AV-unprocessed.smi:89|AV-procd|sdf|828|dock6
  -GOLD-   2262017243D 1   1.00000     0.00000
 Structure written by MMmdl.
 54 56  0  0  0  0  0  0  0  0  1 V2000
  150.9057  135.9492  155.7174 C   0  0  0  0  0  0  0  0  0  0  0  0
  149.8379  136.1270  156.8097 C   0  0  0  0  0  0  0  0  0  0  0  0
  148.9050  135.0021  156.9061 N   0  0  0  0  0  0  0  0  0  0  0  0
  148.5220  134.4628  155.7202 C   0  0  0  0  0  0  0  0  0  0  0  0
  149.2914  133.4682  155.2113 N   0  0  0  0  0  0  0  0  0  0  0  0
  148.9797  132.9049  154.0413 C   0  0  0  0  0  0  0  0  0  0  0  0
  147.9600  133.1831  153.2272 N   0  0  0  0  0  0  0  0  0  0  0  0
  147.1868  134.1887  153.7286 C   0  0  0  0  0  0  0  0  0  0  0  0
  147.3946  134.8821  154.9548 C   0  0  0  0  0  0  0  0  0  0  0  0
  146.4039  135.8426  155.1241 N   0  0  0  0  0  0  0  0  0  0  0  0
  145.6548  135.7225  154.0626 C   0  0  0  0  0  0  0  0  0  0  0  0
  146.0475  134.7461  153.1757 N   0  0  0  0  0  0  0  0  0  0  0  0
  145.4027  134.3979  151.9189 C   0  0  0  0  0  0  0  0  0  0  0  0
  144.9512  132.9181  151.8299 C   0  0  2  0  0  0  0  0  0  0  0  0
  144.8641  132.3817  153.1376 O   0  0  0  0  0  0  0  0  0  0  0  0
  145.8675  132.0325  150.9843 C   0  0  0  0  0  0  0  0  0  0  0  0
  145.1846  132.0484  149.6254 C   0  0  0  0  0  0  0  0  0  0  0  0
  143.8147  131.9592  149.9760 O   0  0  0  0  0  0  0  0  0  0  0  0
  143.5908  132.7839  151.1147 C   0  0  0  0  0  0  0  0  0  0  0  0
  147.8647  135.1029  157.9426 C   0  0  1  0  0  0  0  0  0  0  0  0
  146.9849  133.8416  158.0372 C   0  0  0  0  0  0  0  0  0  0  0  0
  148.4015  135.5139  159.3313 C   0  0  0  0  0  0  0  0  0  0  0  0
  147.0442  136.0704  160.4533 S   0  0  0  0  0  0  0  0  0  0  0  0
  147.4160  137.3554  161.0643 O   0  0  0  0  0  0  0  0  0  0  0  0
  145.7688  135.9655  159.7283 O   0  0  0  0  0  0  0  0  0  0  0  0
  147.0790  134.7759  161.7624 C   0  0  0  0  0  0  0  0  0  0  0  0
  145.8983  134.9393  162.7242 C   0  0  0  0  0  0  0  0  0  0  0  0
  151.6179  136.7738  155.7415 H   0  0  0  0  0  0  0  0  0  0  0  0
  150.4694  135.9263  154.7185 H   0  0  0  0  0  0  0  0  0  0  0  0
  151.4643  135.0243  155.8628 H   0  0  0  0  0  0  0  0  0  0  0  0
  150.3453  136.2333  157.7691 H   0  0  0  0  0  0  0  0  0  0  0  0
  149.2955  137.0589  156.6533 H   0  0  0  0  0  0  0  0  0  0  0  0
  149.6437  132.1202  153.7101 H   0  0  0  0  0  0  0  0  0  0  0  0
  144.7866  136.3441  153.8980 H   0  0  0  0  0  0  0  0  0  0  0  0
  144.5467  135.0605  151.7835 H   0  0  0  0  0  0  0  0  0  0  0  0
  146.0939  134.6283  151.1073 H   0  0  0  0  0  0  0  0  0  0  0  0
  143.9580  132.3947  153.4061 H   0  0  0  0  0  0  0  0  0  0  0  0
  146.9053  132.3592  150.9402 H   0  0  0  0  0  0  0  0  0  0  0  0
  145.8675  131.0081  151.3605 H   0  0  0  0  0  0  0  0  0  0  0  0
  145.3756  132.9851  149.0992 H   0  0  0  0  0  0  0  0  0  0  0  0
  145.4925  131.2202  148.9868 H   0  0  0  0  0  0  0  0  0  0  0  0
  142.8182  132.3404  151.7443 H   0  0  0  0  0  0  0  0  0  0  0  0
  143.2190  133.7527  150.7786 H   0  0  0  0  0  0  0  0  0  0  0  0
  147.1992  135.9066  157.6253 H   0  0  0  0  0  0  0  0  0  0  0  0
  146.1496  134.0016  158.7192 H   0  0  0  0  0  0  0  0  0  0  0  0
  147.5466  132.9849  158.4093 H   0  0  0  0  0  0  0  0  0  0  0  0
  146.5622  133.5731  157.0691 H   0  0  0  0  0  0  0  0  0  0  0  0
  148.8683  134.6559  159.8151 H   0  0  0  0  0  0  0  0  0  0  0  0
  149.1638  136.2899  159.2751 H   0  0  0  0  0  0  0  0  0  0  0  0
  147.0509  133.7993  161.2791 H   0  0  0  0  0  0  0  0  0  0  0  0
  148.0252  134.8570  162.2980 H   0  0  0  0  0  0  0  0  0  0  0  0
  145.9183  134.1722  163.4985 H   0  0  0  0  0  0  0  0  0  0  0  0
  144.9478  134.8569  162.1968 H   0  0  0  0  0  0  0  0  0  0  0  0
  145.9250  135.9116  163.2165 H   0  0  0  0  0  0  0  0  0  0  0  0
  1  2  1  0  0  0  0
  1 28  1  0  0  0  0
  1 29  1  0  0  0  0
  1 30  1  0  0  0  0
  2  3  1  0  0  0  0
  2 31  1  0  0  0  0
  2 32  1  0  0  0  0
  3  4  1  0  0  0  0
  3 20  1  0  0  0  0
  4  9  1  0  0  0  0
  4  5  2  0  0  0  0
  5  6  1  0  0  0  0
  6  7  2  0  0  0  0
  6 33  1  0  0  0  0
  7  8  1  0  0  0  0
  8 12  1  0  0  0  0
  8  9  2  0  0  0  0
  9 10  1  0  0  0  0
 10 11  2  0  0  0  0
 11 12  1  0  0  0  0
 11 34  1  0  0  0  0
 12 13  1  0  0  0  0
 13 14  1  0  0  0  0
 13 35  1  0  0  0  0
 13 36  1  0  0  0  0
 14 19  1  0  0  0  0
 14 15  1  0  0  0  0
 14 16  1  0  0  0  0
 15 37  1  0  0  0  0
 16 17  1  0  0  0  0
 16 38  1  0  0  0  0
 16 39  1  0  0  0  0
 17 18  1  0  0  0  0
 17 40  1  0  0  0  0
 17 41  1  0  0  0  0
 18 19  1  0  0  0  0
 19 42  1  0  0  0  0
 19 43  1  0  0  0  0
 20 21  1  0  0  0  0
 20 22  1  0  0  0  0
 20 44  1  0  0  0  0
 21 45  1  0  0  0  0
 21 46  1  0  0  0  0
 21 47  1  0  0  0  0
 22 23  1  0  0  0  0
 22 48  1  0  0  0  0
 22 49  1  0  0  0  0
 23 24  2  0  0  0  0
 23 25  2  0  0  0  0
 23 26  1  0  0  0  0
 26 27  1  0  0  0  0
 26 50  1  0  0  0  0
 26 51  1  0  0  0  0
 27 52  1  0  0  0  0
 27 53  1  0  0  0  0
 27 54  1  0  0  0  0
M  END
> <s_m_source_file>
AV-unprocessed.smi

> <i_m_source_file_index>
89

> <i_lp_mmshare_version>
43012

> <i_f3d_flags>
0

> <s_epik_input>
W0NIM11bQ0gyXVMoPU8pKD1PKVtDSDJdW0NAQEhdKFtDSDNdKU4oW0NIMl1bQ0gzXSljKG5bY0hdbjEpYyhjMTIpbltjSF1uMltDSDJdW0NAQF0zKFtPSF0pW0NIMl1bQ0gyXU9bQ0gyXTM=

> <s_epik_cmdline>
J2VwaWtfcHl0aG9uJywgJy1waCcsICc3LjAnLCAnLXRuJywgJzgnLCAnLW1hJywgJzIwMCcsICctbWV0YWxfYmluZGluZycsICctaW1hZScsICc8aW5maWxlLm1hZT4nLCAnLW9tYWUnLCAnPG91dGZpbGUubWFlPic=

> <r_lp_tautomer_probability>
1

> <r_epik_Ionization_Penalty>
0.00103773

> <r_epik_Ionization_Penalty_Charging>
0

> <r_epik_Ionization_Penalty_Neutral>
0.00103773

> <r_epik_State_Penalty>
0.000558914

> <r_epik_Charging_Adjusted_Penalty>
0.000558914

> <i_epik_Tot_Q>
0

> <i_epik_Tot_abs_Q>
0

> <r_epik_Metal_State_Penalty>
-0

> <b_epik_Metal_Only>
0

> <s_lp_Force_Field>
OPLS_2005

> <r_lp_Energy>
26.3804

> <b_lp_Chiralities_Consistent>
1

> <s_lp_Variant>
AV-unprocessed.smi:89-4

> <Gold.Version>
5.8.1

> <Gold.Id.Protein>
6NUR|6NUR_protein|mol2

> <Gold.PLP.Fitness>
39.8492

> <Gold.PLP.PLP>
-33.5008

> <Gold.PLP.part.hbond>
-3.6369

> <Gold.PLP.part.metal>
0.0000

> <Gold.PLP.part.buried>
-4.5850

> <Gold.PLP.part.nonpolar>
-26.5499

> <Gold.PLP.part.repulsive>
0.4639

> <Gold.PLP.ligand.clash>
0.0000

> <Gold.PLP.ligand.torsion>
1.7770

> <Gold.PLP.Chemscore.Hbond>
2.9250

> <Gold.PLP.Chemscore.CHOScore>
0.0000

> <Gold.PLP.Chemscore.Metal>
0.0000

> <Gold.Chemscore.Hbonds>
donor molecule, donor type, donor heavy atom, donor atom, acceptor molecule, acceptor atom, score
      L1  H    15    37       P1 10957  0.75
      P1  H  6931  6943       L1    24  0.78
      P1  H  6934  6947       L1    24  1.00
      P1  H 10785 10796       L1    18  0.33

> <Gold.PLP.Chemscore.Internal.Correction>
1.1274

> <Gold.Rescore>
     Score         DG    S(hbond)    S(metal)    S(lipo)     H(rot)  DE(clash)    DE(int)     intcor
      9.18     -11.56       2.11        0.00      67.42       3.45       0.03       2.35       ----

> <Gold.Chemscore.Fitness>
9.1750

> <Gold.Chemscore.DG>
-11.5624

> <Gold.Chemscore.ZeroCoef>
-5.4800

> <Gold.Chemscore.Hbond>
2.1057

> <Gold.Chemscore.Metal>
0.0000

> <Gold.Chemscore.Lipo>
67.4157

> <Gold.Chemscore.Internal_Hbond>
0.0000

> <Gold.Chemscore.DEClash>
0.0332

> <Gold.Chemscore.DEInternal>
2.3542

> <Gold.Chemscore.Rot>
3.4524

> <Gold.Chemscore.Internal.Correction>
   9.000000E+99

> <Gold.Chemscore.Hbonds>
donor molecule, donor type, donor heavy atom, donor atom, acceptor molecule, acceptor atom, score
      L1  H    15    37       P1 10957  0.12
      P1  H  6931  6943       L1    24  0.73
      P1  H  6934  6947       L1    24  0.95
      P1  H 10785 10796       L1    18  0.08

> <Gold.Chemscore.Hbond.Weighted>
-7.0330

> <Gold.Chemscore.Metal.Weighted>
-0.0000

> <Gold.Chemscore.Lipo.Weighted>
-7.8876

> <Gold.Chemscore.Internal_Hbond.Weighted>
0.0000

> <Gold.Chemscore.DEClash.Weighted>
0.0332

> <Gold.Chemscore.DEInternal.Weighted>
2.3542

> <Gold.Chemscore.Rot.Weighted>
8.8382

> <Gold.Chemscore.Internal.Correction.Weighted>
   9.000000E+99

> <Gold.Protein.RotatedTorsions>
[ 6907 6896 6895 6894 ] final   47.88 input  -60.11 | X-H torsion
[ 7974 7965 7964 7962 ] final  157.75 input  175.53 | X-H torsion
[ 8008 7997 7996 7995 ] final -138.48 input   59.86 | X-H torsion
[ 10167 10162 10161 10158 ] final -132.49 input  -65.29 | X-H torsion
[ 10718 10713 10712 10709 ] final  -68.34 input   66.30 | X-H torsion
[ 10763 10752 10751 10750 ] final   36.38 input  -60.55 | X-H torsion
[ 11005 11000 10999 10996 ] final -153.62 input  -57.11 | X-H torsion

> <Gold.Protein.ActiveResidues>
 VAL166  LYS551  ARG553  GLY616  TRP617  ASP618  TYR619  PRO620  LYS621  CYS622 
 ASP623  PHE694  ASN695  SER759  ASP760  ASP761  ALA762  ILE779  LEU786  VAL792 
 PHE793  MET794  SER795  GLU796  ALA797  LYS798  CYS799  TRP800  GLU811  SER814 

> <Gold.Protein.RotatedAtoms>
  152.2732  134.7910  160.0410 H   0  0  0  0  0  0  0  0  0  0  0  0  # atno 6907 bound_to 6896
  151.8516  133.3435  159.3683 H   0  0  0  0  0  0  0  0  0  0  0  0  # atno 6908 bound_to 6896
  150.7160  134.5222  159.5703 H   0  0  0  0  0  0  0  0  0  0  0  0  # atno 6909 bound_to 6896
  144.7885  139.7383  143.6231 H   0  0  0  0  0  0  0  0  0  0  0  0  # atno 7974 bound_to 7965
  155.4290  140.0524  157.3020 H   0  0  0  0  0  0  0  0  0  0  0  0  # atno 8008 bound_to 7997
  154.4868  140.2104  155.9595 H   0  0  0  0  0  0  0  0  0  0  0  0  # atno 8009 bound_to 7997
  156.1287  140.3175  155.8320 H   0  0  0  0  0  0  0  0  0  0  0  0  # atno 8010 bound_to 7997
  139.9080  143.6528  152.2581 H   0  0  0  0  0  0  0  0  0  0  0  0  # atno 10167 bound_to 10162
  156.0510  130.4293  150.1986 H   0  0  0  0  0  0  0  0  0  0  0  0  # atno 10718 bound_to 10713
  153.0079  135.6307  154.1977 H   0  0  0  0  0  0  0  0  0  0  0  0  # atno 10763 bound_to 10752
  154.1720  135.2818  155.3080 H   0  0  0  0  0  0  0  0  0  0  0  0  # atno 10764 bound_to 10752
  154.5901  135.5620  153.7330 H   0  0  0  0  0  0  0  0  0  0  0  0  # atno 10765 bound_to 10752
  140.7061  134.3884  157.5204 H   0  0  0  0  0  0  0  0  0  0  0  0  # atno 11005 bound_to 11000
  146.2127  139.5495  142.9670 LP  0  0  0  0  0  0  0  0  0  0  0  0  # atno 17320 bound_to 7965
  145.5857  141.0376  143.2098 LP  0  0  0  0  0  0  0  0  0  0  0  0  # atno 17321 bound_to 7965
  139.6967  144.7640  151.1343 LP  0  0  0  0  0  0  0  0  0  0  0  0  # atno 17342 bound_to 10162
  140.7692  143.5513  150.9201 LP  0  0  0  0  0  0  0  0  0  0  0  0  # atno 17343 bound_to 10162
  157.0069  130.9939  151.3376 LP  0  0  0  0  0  0  0  0  0  0  0  0  # atno 17370 bound_to 10713
  157.5437  130.8136  149.8059 LP  0  0  0  0  0  0  0  0  0  0  0  0  # atno 17371 bound_to 10713
  139.8884  134.8858  156.2478 LP  0  0  0  0  0  0  0  0  0  0  0  0  # atno 17394 bound_to 11000
  141.0123  133.7088  156.1132 LP  0  0  0  0  0  0  0  0  0  0  0  0  # atno 17395 bound_to 11000

$$$$
