AV-unprocessed.smi:550|AV-procd|sdf|2896|dock6
  -GOLD-   2262023393D 1   1.00000     0.00000
 Structure written by MMmdl.
 46 48  0  0  0  0  0  0  0  0  2 V2000
  146.7946  139.7737  154.0872 O   0  0  0  0  0  0  0  0  0  0  0  0
  147.6944  139.1143  153.5675 C   0  0  0  0  0  0  0  0  0  0  0  0
  147.4827  138.2159  152.5953 N   0  0  0  0  0  0  0  0  0  0  0  0
  146.1832  137.9132  152.0028 C   0  0  0  0  0  0  0  0  0  0  0  0
  145.6871  136.4889  152.3437 C   0  0  2  0  0  0  0  0  0  0  0  0
  144.2547  136.2166  151.8304 C   0  0  0  0  0  0  0  0  0  0  0  0
  143.2414  136.8698  152.7808 C   0  0  0  0  0  0  0  0  0  0  0  0
  144.0238  136.8530  154.4383 S   0  0  0  0  0  0  0  0  0  0  0  0
  144.1495  138.2375  154.9183 O   0  0  0  0  0  0  0  0  0  0  0  0
  143.3986  135.8158  155.2729 O   0  0  0  0  0  0  0  0  0  0  0  0
  145.6592  136.2574  153.8631 C   0  0  0  0  0  0  0  0  0  0  0  0
  148.9962  139.1784  153.8977 N   0  0  0  0  0  0  0  0  0  0  0  0
  149.6337  140.0293  154.8424 C   0  0  0  0  0  0  0  0  0  0  0  0
  150.8560  139.5931  155.3981 C   0  0  0  0  0  0  0  0  0  0  0  0
  151.5359  140.4086  156.3259 C   0  0  0  0  0  0  0  0  0  0  0  0
  150.9864  141.6628  156.6799 C   0  0  0  0  0  0  0  0  0  0  0  0
  151.5803  142.5487  157.5897 N   0  0  0  0  0  0  0  0  0  0  0  0
  151.8673  143.8648  157.0462 C   0  0  0  0  0  0  0  0  0  0  0  0
  152.1251  144.7591  158.2609 C   0  0  0  0  0  0  0  0  0  0  0  0
  151.4144  144.0566  159.4240 C   0  0  0  0  0  0  0  0  0  0  0  0
  150.8365  142.7738  158.8187 C   0  0  0  0  0  0  0  0  0  0  0  0
  149.8188  142.0482  156.1215 N   0  3  0  0  0  0  0  0  0  0  0  0
  149.1347  141.2971  155.2314 C   0  0  0  0  0  0  0  0  0  0  0  0
  148.2771  137.7131  152.2270 H   0  0  0  0  0  0  0  0  0  0  0  0
  145.4538  138.6543  152.3344 H   0  0  0  0  0  0  0  0  0  0  0  0
  146.2697  138.0390  150.9234 H   0  0  0  0  0  0  0  0  0  0  0  0
  146.3755  135.7732  151.8923 H   0  0  0  0  0  0  0  0  0  0  0  0
  144.1051  136.5390  150.8000 H   0  0  0  0  0  0  0  0  0  0  0  0
  144.0879  135.1389  151.8398 H   0  0  0  0  0  0  0  0  0  0  0  0
  143.0575  137.9080  152.5042 H   0  0  0  0  0  0  0  0  0  0  0  0
  142.2872  136.3435  152.8097 H   0  0  0  0  0  0  0  0  0  0  0  0
  145.7210  135.1921  154.0868 H   0  0  0  0  0  0  0  0  0  0  0  0
  146.4592  136.7664  154.4015 H   0  0  0  0  0  0  0  0  0  0  0  0
  149.6025  138.5194  153.4316 H   0  0  0  0  0  0  0  0  0  0  0  0
  151.2727  138.6358  155.1200 H   0  0  0  0  0  0  0  0  0  0  0  0
  152.4667  140.0692  156.7563 H   0  0  0  0  0  0  0  0  0  0  0  0
  152.7296  143.8357  156.3795 H   0  0  0  0  0  0  0  0  0  0  0  0
  151.0134  144.2370  156.4784 H   0  0  0  0  0  0  0  0  0  0  0  0
  153.1951  144.8191  158.4638 H   0  0  0  0  0  0  0  0  0  0  0  0
  151.7601  145.7742  158.1005 H   0  0  0  0  0  0  0  0  0  0  0  0
  152.1312  143.8197  160.2113 H   0  0  0  0  0  0  0  0  0  0  0  0
  150.6317  144.6758  159.8634 H   0  0  0  0  0  0  0  0  0  0  0  0
  149.7739  142.9053  158.6127 H   0  0  0  0  0  0  0  0  0  0  0  0
  150.9436  141.9280  159.4987 H   0  0  0  0  0  0  0  0  0  0  0  0
  148.2276  141.7516  154.8630 H   0  0  0  0  0  0  0  0  0  0  0  0
  149.4353  142.9573  156.3821 H   0  0  0  0  0  0  0  0  0  0  0  0
  1  2  2  0  0  0  0
  2  3  1  0  0  0  0
  2 12  1  0  0  0  0
  3  4  1  0  0  0  0
  3 24  1  0  0  0  0
  4  5  1  0  0  0  0
  4 25  1  0  0  0  0
  4 26  1  0  0  0  0
  5 11  1  0  0  0  0
  5  6  1  0  0  0  0
  5 27  1  0  0  0  0
  6  7  1  0  0  0  0
  6 28  1  0  0  0  0
  6 29  1  0  0  0  0
  7  8  1  0  0  0  0
  7 30  1  0  0  0  0
  7 31  1  0  0  0  0
  8  9  2  0  0  0  0
  8 10  2  0  0  0  0
  8 11  1  0  0  0  0
 11 32  1  0  0  0  0
 11 33  1  0  0  0  0
 12 13  1  0  0  0  0
 12 34  1  0  0  0  0
 13 23  1  0  0  0  0
 13 14  2  0  0  0  0
 14 15  1  0  0  0  0
 14 35  1  0  0  0  0
 15 16  2  0  0  0  0
 15 36  1  0  0  0  0
 16 17  1  0  0  0  0
 16 22  1  0  0  0  0
 17 21  1  0  0  0  0
 17 18  1  0  0  0  0
 18 19  1  0  0  0  0
 18 37  1  0  0  0  0
 18 38  1  0  0  0  0
 19 20  1  0  0  0  0
 19 39  1  0  0  0  0
 19 40  1  0  0  0  0
 20 21  1  0  0  0  0
 20 41  1  0  0  0  0
 20 42  1  0  0  0  0
 21 43  1  0  0  0  0
 21 44  1  0  0  0  0
 22 23  2  0  0  0  0
 22 46  1  0  0  0  0
 23 45  1  0  0  0  0
M  CHG  1  22   1
M  END
> <s_m_source_file>
AV-unprocessed.smi

> <i_m_source_file_index>
550

> <i_lp_mmshare_version>
43012

> <i_f3d_flags>
0

> <s_epik_input>
Tz1TMSg9TylbQ0gyXVtDSDJdW0NASF0oW0NIMl0xKVtDSDJdW05IXUMoPU8pW05IXWMyW2NIXVtjSF1jKG5bY0hdMilOM1tDSDJdW0NIMl1bQ0gyXVtDSDJdMw==

> <s_epik_cmdline>
J2VwaWtfcHl0aG9uJywgJy1waCcsICc3LjAnLCAnLXRuJywgJzgnLCAnLW1hJywgJzIwMCcsICctbWV0YWxfYmluZGluZycsICctaW1hZScsICc8aW5maWxlLm1hZT4nLCAnLW9tYWUnLCAnPG91dGZpbGUubWFlPic=

> <r_lp_tautomer_probability>
0.999994

> <r_epik_Ionization_Penalty>
1.12573

> <r_epik_Ionization_Penalty_Charging>
1.12571

> <r_epik_Ionization_Penalty_Neutral>
1.93198e-05

> <r_epik_State_Penalty>
1.18495

> <r_epik_Charging_Adjusted_Penalty>
2.31065

> <i_epik_Tot_Q>
1

> <i_epik_Tot_abs_Q>
1

> <r_epik_Metal_State_Penalty>
1.26884

> <b_epik_Metal_Only>
0

> <s_lp_Force_Field>
OPLS_2005

> <r_lp_Energy>
42.4783

> <b_lp_Chiralities_Consistent>
1

> <s_lp_Variant>
AV-unprocessed.smi:550-3

> <Gold.Version>
5.8.1

> <Gold.Id.Protein>
6NUR|6NUR_protein|mol2

> <Gold.PLP.Fitness>
46.5726

> <Gold.PLP.PLP>
-38.0524

> <Gold.PLP.part.hbond>
-3.8690

> <Gold.PLP.part.metal>
0.0000

> <Gold.PLP.part.buried>
-2.9045

> <Gold.PLP.part.nonpolar>
-32.5674

> <Gold.PLP.part.repulsive>
0.6020

> <Gold.PLP.ligand.clash>
0.0000

> <Gold.PLP.ligand.torsion>
0.2152

> <Gold.PLP.Chemscore.Hbond>
2.9760

> <Gold.PLP.Chemscore.CHOScore>
0.0000

> <Gold.PLP.Chemscore.Metal>
0.0000

> <Gold.Chemscore.Hbonds>
donor molecule, donor type, donor heavy atom, donor atom, acceptor molecule, acceptor atom, score
      L1  H     3    24       P1  7948  0.98
      L1  H    22    46       P1  8028  1.76

> <Gold.PLP.Chemscore.Internal.Correction>
0.0225

> <Gold.Rescore>
     Score         DG    S(hbond)    S(metal)    S(lipo)     H(rot)  DE(clash)    DE(int)     intcor
     16.97     -18.94       1.84        0.00      95.23       1.50       0.44       1.53       ----

> <Gold.Chemscore.Fitness>
16.9735

> <Gold.Chemscore.DG>
-18.9377

> <Gold.Chemscore.ZeroCoef>
-5.4800

> <Gold.Chemscore.Hbond>
1.8401

> <Gold.Chemscore.Metal>
0.0000

> <Gold.Chemscore.Lipo>
95.2317

> <Gold.Chemscore.Internal_Hbond>
0.0000

> <Gold.Chemscore.DEClash>
0.4362

> <Gold.Chemscore.DEInternal>
1.5280

> <Gold.Chemscore.Rot>
1.4962

> <Gold.Chemscore.Internal.Correction>
   9.000000E+99

> <Gold.Chemscore.Hbonds>
donor molecule, donor type, donor heavy atom, donor atom, acceptor molecule, acceptor atom, score
      L1  H     3    24       P1  7948  0.93
      L1  H    22    46       P1  8028  0.84

> <Gold.Chemscore.Hbond.Weighted>
-6.1459

> <Gold.Chemscore.Metal.Weighted>
-0.0000

> <Gold.Chemscore.Lipo.Weighted>
-11.1421

> <Gold.Chemscore.Internal_Hbond.Weighted>
0.0000

> <Gold.Chemscore.DEClash.Weighted>
0.4362

> <Gold.Chemscore.DEInternal.Weighted>
1.5280

> <Gold.Chemscore.Rot.Weighted>
3.8303

> <Gold.Chemscore.Internal.Correction.Weighted>
   9.000000E+99

> <Gold.Protein.RotatedTorsions>
[ 6907 6896 6895 6894 ] final -102.62 input  -60.11 | X-H torsion
[ 7974 7965 7964 7962 ] final   -9.68 input  175.53 | X-H torsion
[ 8008 7997 7996 7995 ] final  -31.90 input   59.86 | X-H torsion
[ 10167 10162 10161 10158 ] final -126.15 input  -65.29 | X-H torsion
[ 10718 10713 10712 10709 ] final  -63.08 input   66.30 | X-H torsion
[ 10763 10752 10751 10750 ] final  116.62 input  -60.55 | X-H torsion
[ 11005 11000 10999 10996 ] final  -24.17 input  -57.11 | X-H torsion

> <Gold.Protein.ActiveResidues>
 VAL166  LYS551  ARG553  GLY616  TRP617  ASP618  TYR619  PRO620  LYS621  CYS622 
 ASP623  PHE694  ASN695  SER759  ASP760  ASP761  ALA762  ILE779  LEU786  VAL792 
 PHE793  MET794  SER795  GLU796  ALA797  LYS798  CYS799  TRP800  GLU811  SER814 

> <Gold.Protein.RotatedAtoms>
  150.7204  134.0554  159.3812 H   0  0  0  0  0  0  0  0  0  0  0  0  # atno 6907 bound_to 6896
  151.8532  135.0548  160.0470 H   0  0  0  0  0  0  0  0  0  0  0  0  # atno 6908 bound_to 6896
  152.2774  133.5402  159.5513 H   0  0  0  0  0  0  0  0  0  0  0  0  # atno 6909 bound_to 6896
  146.2244  140.2653  142.8354 H   0  0  0  0  0  0  0  0  0  0  0  0  # atno 7974 bound_to 7965
  154.4198  140.1752  156.1641 H   0  0  0  0  0  0  0  0  0  0  0  0  # atno 8008 bound_to 7997
  155.9814  140.3377  155.6642 H   0  0  0  0  0  0  0  0  0  0  0  0  # atno 8009 bound_to 7997
  155.6495  140.0689  157.2582 H   0  0  0  0  0  0  0  0  0  0  0  0  # atno 8010 bound_to 7997
  139.9745  143.5809  152.2401 H   0  0  0  0  0  0  0  0  0  0  0  0  # atno 10167 bound_to 10162
  156.0814  130.4216  150.1226 H   0  0  0  0  0  0  0  0  0  0  0  0  # atno 10718 bound_to 10713
  153.5399  135.3561  155.2714 H   0  0  0  0  0  0  0  0  0  0  0  0  # atno 10763 bound_to 10752
  154.8718  135.4088  154.3055 H   0  0  0  0  0  0  0  0  0  0  0  0  # atno 10764 bound_to 10752
  153.3760  135.7066  153.6669 H   0  0  0  0  0  0  0  0  0  0  0  0  # atno 10765 bound_to 10752
  140.8821  133.7647  156.0314 H   0  0  0  0  0  0  0  0  0  0  0  0  # atno 11005 bound_to 11000
  144.9309  140.7974  143.5690 LP  0  0  0  0  0  0  0  0  0  0  0  0  # atno 17320 bound_to 7965
  145.2596  139.1998  143.4899 LP  0  0  0  0  0  0  0  0  0  0  0  0  # atno 17321 bound_to 7965
  139.6456  144.7658  151.2251 LP  0  0  0  0  0  0  0  0  0  0  0  0  # atno 17342 bound_to 10162
  140.7510  143.6245  150.8482 LP  0  0  0  0  0  0  0  0  0  0  0  0  # atno 17343 bound_to 10162
  156.9257  130.9697  151.3541 LP  0  0  0  0  0  0  0  0  0  0  0  0  # atno 17370 bound_to 10713
  157.5931  130.8458  149.8689 LP  0  0  0  0  0  0  0  0  0  0  0  0  # atno 17371 bound_to 10713
  140.8449  134.3022  157.5299 LP  0  0  0  0  0  0  0  0  0  0  0  0  # atno 17394 bound_to 11000
  139.8720  134.9436  156.3858 LP  0  0  0  0  0  0  0  0  0  0  0  0  # atno 17395 bound_to 11000

$$$$
