AV-unprocessed.smi:447|AV-procd|sdf|2598|dock5
  -GOLD-   2262022593D 1   1.00000     0.00000
 Structure written by MMmdl.
 45 47  0  0  0  0  0  0  0  0  1 V2000
  156.1509  138.6505  159.8957 C   0  0  0  0  0  0  0  0  0  0  0  0
  155.2008  139.0921  158.7883 C   0  0  0  0  0  0  0  0  0  0  0  0
  155.6390  139.3606  157.6701 O   0  0  0  0  0  0  0  0  0  0  0  0
  153.9031  139.1736  159.1172 N   0  0  0  0  0  0  0  0  0  0  0  0
  152.8304  139.6281  158.2347 C   0  0  1  0  0  0  0  0  0  0  0  0
  151.6437  138.6524  158.2543 C   0  0  0  0  0  0  0  0  0  0  0  0
  152.4271  141.0128  158.6738 C   0  0  0  0  0  0  0  0  0  0  0  0
  152.9989  141.6158  159.7209 N   0  0  0  0  0  0  0  0  0  0  0  0
  152.3429  142.8281  159.7785 C   0  0  0  0  0  0  0  0  0  0  0  0
  152.5002  143.9169  160.6656 C   0  0  0  0  0  0  0  0  0  0  0  0
  151.7031  145.0718  160.5261 C   0  0  0  0  0  0  0  0  0  0  0  0
  150.7391  145.1536  159.5006 C   0  0  0  0  0  0  0  0  0  0  0  0
  150.5661  144.0789  158.6073 C   0  0  0  0  0  0  0  0  0  0  0  0
  151.3651  142.9286  158.7506 C   0  0  0  0  0  0  0  0  0  0  0  0
  151.4466  141.7253  158.0565 N   0  0  0  0  0  0  0  0  0  0  0  0
  150.6242  141.3621  156.9088 C   0  0  0  0  0  0  0  0  0  0  0  0
  149.1157  141.4832  157.2075 C   0  0  2  0  0  0  0  0  0  0  0  0
  148.6820  140.2712  157.7905 O   0  0  0  0  0  0  0  0  0  0  0  0
  148.2977  141.8638  155.9802 C   0  0  0  0  0  0  0  0  0  0  0  0
  146.9631  142.2976  156.1345 C   0  0  0  0  0  0  0  0  0  0  0  0
  146.1980  142.6598  155.0092 C   0  0  0  0  0  0  0  0  0  0  0  0
  146.7616  142.5870  153.7212 C   0  0  0  0  0  0  0  0  0  0  0  0
  148.0932  142.1588  153.5602 C   0  0  0  0  0  0  0  0  0  0  0  0
  148.8602  141.8010  154.6857 C   0  0  0  0  0  0  0  0  0  0  0  0
  155.7357  137.8078  160.4495 H   0  0  0  0  0  0  0  0  0  0  0  0
  156.3232  139.4716  160.5921 H   0  0  0  0  0  0  0  0  0  0  0  0
  157.1121  138.3454  159.4808 H   0  0  0  0  0  0  0  0  0  0  0  0
  153.6352  138.9306  160.0601 H   0  0  0  0  0  0  0  0  0  0  0  0
  153.2341  139.6688  157.2250 H   0  0  0  0  0  0  0  0  0  0  0  0
  150.8467  138.9976  157.5951 H   0  0  0  0  0  0  0  0  0  0  0  0
  151.2264  138.5536  159.2570 H   0  0  0  0  0  0  0  0  0  0  0  0
  151.9414  137.6593  157.9173 H   0  0  0  0  0  0  0  0  0  0  0  0
  153.2355  143.8637  161.4547 H   0  0  0  0  0  0  0  0  0  0  0  0
  151.8315  145.8985  161.2094 H   0  0  0  0  0  0  0  0  0  0  0  0
  150.1322  146.0415  159.4002 H   0  0  0  0  0  0  0  0  0  0  0  0
  149.8280  144.1384  157.8212 H   0  0  0  0  0  0  0  0  0  0  0  0
  150.9081  141.9447  156.0335 H   0  0  0  0  0  0  0  0  0  0  0  0
  150.8618  140.3277  156.6567 H   0  0  0  0  0  0  0  0  0  0  0  0
  148.9668  142.2519  157.9670 H   0  0  0  0  0  0  0  0  0  0  0  0
  148.9562  140.2599  158.6949 H   0  0  0  0  0  0  0  0  0  0  0  0
  146.5239  142.3606  157.1196 H   0  0  0  0  0  0  0  0  0  0  0  0
  145.1790  142.9952  155.1343 H   0  0  0  0  0  0  0  0  0  0  0  0
  146.1760  142.8672  152.8580 H   0  0  0  0  0  0  0  0  0  0  0  0
  148.5293  142.1117  152.5733 H   0  0  0  0  0  0  0  0  0  0  0  0
  149.8837  141.4835  154.5499 H   0  0  0  0  0  0  0  0  0  0  0  0
  1  2  1  0  0  0  0
  1 25  1  0  0  0  0
  1 26  1  0  0  0  0
  1 27  1  0  0  0  0
  2  3  2  0  0  0  0
  2  4  1  0  0  0  0
  4  5  1  0  0  0  0
  4 28  1  0  0  0  0
  5  6  1  0  0  0  0
  5  7  1  0  0  0  0
  5 29  1  0  0  0  0
  6 30  1  0  0  0  0
  6 31  1  0  0  0  0
  6 32  1  0  0  0  0
  7 15  1  0  0  0  0
  7  8  2  0  0  0  0
  8  9  1  0  0  0  0
  9 14  2  0  0  0  0
  9 10  1  0  0  0  0
 10 11  2  0  0  0  0
 10 33  1  0  0  0  0
 11 12  1  0  0  0  0
 11 34  1  0  0  0  0
 12 13  2  0  0  0  0
 12 35  1  0  0  0  0
 13 14  1  0  0  0  0
 13 36  1  0  0  0  0
 14 15  1  0  0  0  0
 15 16  1  0  0  0  0
 16 17  1  0  0  0  0
 16 37  1  0  0  0  0
 16 38  1  0  0  0  0
 17 18  1  0  0  0  0
 17 19  1  0  0  0  0
 17 39  1  0  0  0  0
 18 40  1  0  0  0  0
 19 24  1  0  0  0  0
 19 20  2  0  0  0  0
 20 21  1  0  0  0  0
 20 41  1  0  0  0  0
 21 22  2  0  0  0  0
 21 42  1  0  0  0  0
 22 23  1  0  0  0  0
 22 43  1  0  0  0  0
 23 24  2  0  0  0  0
 23 44  1  0  0  0  0
 24 45  1  0  0  0  0
M  END
> <s_m_source_file>
AV-unprocessed.smi

> <i_m_source_file_index>
447

> <i_lp_mmshare_version>
43012

> <i_f3d_flags>
0

> <s_epik_input>
W0NIM11DKD1PKVtOSF1bQ0BIXShbQ0gzXSljKG4xKW4oYyhjMTIpW2NIXVtjSF1bY0hdW2NIXTIpW0NIMl1bQ0BIXShbT0hdKWMzW2NIXVtjSF1bY0hdW2NIXVtjSF0z

> <s_epik_cmdline>
J2VwaWtfcHl0aG9uJywgJy1waCcsICc3LjAnLCAnLXRuJywgJzgnLCAnLW1hJywgJzIwMCcsICctbWV0YWxfYmluZGluZycsICctaW1hZScsICc8aW5maWxlLm1hZT4nLCAnLW9tYWUnLCAnPG91dGZpbGUubWFlPic=

> <r_epik_Ionization_Penalty>
0.13301

> <r_epik_Ionization_Penalty_Charging>
0

> <r_epik_Ionization_Penalty_Neutral>
0.13301

> <r_epik_State_Penalty>
0.122384

> <r_epik_Charging_Adjusted_Penalty>
0.122384

> <i_epik_Tot_Q>
0

> <i_epik_Tot_abs_Q>
0

> <r_epik_Metal_State_Penalty>
0.0997374

> <b_epik_Metal_Only>
0

> <s_lp_Force_Field>
OPLS_2005

> <r_lp_Energy>
6.90784

> <b_lp_Chiralities_Consistent>
1

> <s_lp_Variant>
AV-unprocessed.smi:447-2

> <Gold.Version>
5.8.1

> <Gold.Id.Protein>
6NUR|6NUR_protein|mol2

> <Gold.PLP.Fitness>
46.7263

> <Gold.PLP.PLP>
-45.2423

> <Gold.PLP.part.hbond>
-2.0000

> <Gold.PLP.part.metal>
0.0000

> <Gold.PLP.part.buried>
-6.6436

> <Gold.PLP.part.nonpolar>
-35.8187

> <Gold.PLP.part.repulsive>
0.0690

> <Gold.PLP.ligand.clash>
0.0000

> <Gold.PLP.ligand.torsion>
0.8013

> <Gold.PLP.Chemscore.Hbond>
1.0000

> <Gold.PLP.Chemscore.CHOScore>
0.0000

> <Gold.PLP.Chemscore.Metal>
0.0000

> <Gold.PLP.Chemscore.Internal.Correction>
0.0866

> <Gold.Rescore>
     Score         DG    S(hbond)    S(metal)    S(lipo)     H(rot)  DE(clash)    DE(int)     intcor
     16.05     -16.82       0.98        0.00     120.39       2.35       0.15       0.61       ----

> <Gold.Chemscore.Fitness>
16.0540

> <Gold.Chemscore.DG>
-16.8209

> <Gold.Chemscore.ZeroCoef>
-5.4800

> <Gold.Chemscore.Hbond>
0.9817

> <Gold.Chemscore.Metal>
0.0000

> <Gold.Chemscore.Lipo>
120.3872

> <Gold.Chemscore.Internal_Hbond>
0.0000

> <Gold.Chemscore.DEClash>
0.1530

> <Gold.Chemscore.DEInternal>
0.6140

> <Gold.Chemscore.Rot>
2.3528

> <Gold.Chemscore.Internal.Correction>
   9.000000E+99

> <Gold.Chemscore.Hbond.Weighted>
-3.2787

> <Gold.Chemscore.Metal.Weighted>
-0.0000

> <Gold.Chemscore.Lipo.Weighted>
-14.0853

> <Gold.Chemscore.Internal_Hbond.Weighted>
0.0000

> <Gold.Chemscore.DEClash.Weighted>
0.1530

> <Gold.Chemscore.DEInternal.Weighted>
0.6140

> <Gold.Chemscore.Rot.Weighted>
6.0231

> <Gold.Chemscore.Internal.Correction.Weighted>
   9.000000E+99

> <Gold.Protein.RotatedTorsions>
[ 6907 6896 6895 6894 ] final -116.80 input  -60.11 | X-H torsion
[ 7974 7965 7964 7962 ] final  -41.14 input  175.53 | X-H torsion
[ 8008 7997 7996 7995 ] final  118.90 input   59.86 | X-H torsion
[ 10167 10162 10161 10158 ] final  -87.13 input  -65.29 | X-H torsion
[ 10718 10713 10712 10709 ] final  154.36 input   66.30 | X-H torsion
[ 10763 10752 10751 10750 ] final   51.36 input  -60.55 | X-H torsion
[ 11005 11000 10999 10996 ] final  154.78 input  -57.11 | X-H torsion

> <Gold.Protein.ActiveResidues>
 VAL166  LYS551  ARG553  GLY616  TRP617  ASP618  TYR619  PRO620  LYS621  CYS622 
 ASP623  PHE694  ASN695  SER759  ASP760  ASP761  ALA762  ILE779  LEU786  VAL792 
 PHE793  MET794  SER795  GLU796  ALA797  LYS798  CYS799  TRP800  GLU811  SER814 

> <Gold.Protein.RotatedAtoms>
  150.8085  133.8466  159.3193 H   0  0  0  0  0  0  0  0  0  0  0  0  # atno 6907 bound_to 6896
  151.6258  135.1026  160.0121 H   0  0  0  0  0  0  0  0  0  0  0  0  # atno 6908 bound_to 6896
  152.4176  133.7024  159.6488 H   0  0  0  0  0  0  0  0  0  0  0  0  # atno 6909 bound_to 6896
  146.0239  140.6816  142.9165 H   0  0  0  0  0  0  0  0  0  0  0  0  # atno 7974 bound_to 7965
  156.2569  140.2864  156.0907 H   0  0  0  0  0  0  0  0  0  0  0  0  # atno 8008 bound_to 7997
  155.1466  140.0396  157.2828 H   0  0  0  0  0  0  0  0  0  0  0  0  # atno 8009 bound_to 7997
  154.6491  140.2540  155.7241 H   0  0  0  0  0  0  0  0  0  0  0  0  # atno 8010 bound_to 7997
  140.3874  143.2720  151.9307 H   0  0  0  0  0  0  0  0  0  0  0  0  # atno 10167 bound_to 10162
  157.2326  131.0742  151.1843 H   0  0  0  0  0  0  0  0  0  0  0  0  # atno 10718 bound_to 10713
  152.9785  135.5848  154.4403 H   0  0  0  0  0  0  0  0  0  0  0  0  # atno 10763 bound_to 10752
  154.4005  135.2768  155.2101 H   0  0  0  0  0  0  0  0  0  0  0  0  # atno 10764 bound_to 10752
  154.3935  135.6120  153.5910 H   0  0  0  0  0  0  0  0  0  0  0  0  # atno 10765 bound_to 10752
  140.1520  134.8668  157.2467 H   0  0  0  0  0  0  0  0  0  0  0  0  # atno 11005 bound_to 11000
  144.7001  140.3614  143.7163 LP  0  0  0  0  0  0  0  0  0  0  0  0  # atno 17320 bound_to 7965
  145.7150  139.1694  143.2517 LP  0  0  0  0  0  0  0  0  0  0  0  0  # atno 17321 bound_to 7965
  139.4791  144.5760  151.8010 LP  0  0  0  0  0  0  0  0  0  0  0  0  # atno 17342 bound_to 10162
  140.4875  144.1359  150.5944 LP  0  0  0  0  0  0  0  0  0  0  0  0  # atno 17343 bound_to 10162
  157.3462  130.7058  149.6412 LP  0  0  0  0  0  0  0  0  0  0  0  0  # atno 17370 bound_to 10713
  155.9674  130.4265  150.4704 LP  0  0  0  0  0  0  0  0  0  0  0  0  # atno 17371 bound_to 10713
  140.2593  134.3591  155.7413 LP  0  0  0  0  0  0  0  0  0  0  0  0  # atno 17394 bound_to 11000
  141.2200  133.7360  156.9055 LP  0  0  0  0  0  0  0  0  0  0  0  0  # atno 17395 bound_to 11000

$$$$
