AV-unprocessed.smi:2457|AV-procd|sdf|9706|dock3
  -GOLD-   2272013343D 1   1.00000     0.00000
 Structure written by MMmdl.
 40 41  0  0  0  0  0  0  0  0  1 V2000
  153.0970  138.7534  154.6308 C   0  0  0  0  0  0  0  0  0  0  0  0
  151.6201  138.5251  154.7016 C   0  0  0  0  0  0  0  0  0  0  0  0
  150.9749  137.4647  155.2872 C   0  0  0  0  0  0  0  0  0  0  0  0
  149.2442  137.5944  155.1370 S   0  0  0  0  0  0  0  0  0  0  0  0
  149.4634  139.1093  154.2668 C   0  0  0  0  0  0  0  0  0  0  0  0
  148.3200  139.9347  153.7591 C   0  0  2  0  0  0  0  0  0  0  0  0
  148.2732  141.3235  154.4119 C   0  0  0  0  0  0  0  0  0  0  0  0
  146.9636  139.1963  153.8168 C   0  0  0  0  0  0  0  0  0  0  0  0
  146.9735  137.9282  153.0921 N   0  0  0  0  0  0  0  0  0  0  0  0
  145.8858  137.2036  152.7979 C   0  0  0  0  0  0  0  0  0  0  0  0
  144.7432  137.5039  153.1436 O   0  0  0  0  0  0  0  0  0  0  0  0
  146.1908  136.1264  152.0616 N   0  0  0  0  0  0  0  0  0  0  0  0
  145.2239  135.1698  151.5313 C   0  0  1  0  0  0  0  0  0  0  0  0
  145.9586  133.9815  150.8761 C   0  0  0  0  0  0  0  0  0  0  0  0
  144.9921  132.9654  150.2467 C   0  0  0  0  0  0  0  0  0  0  0  0
  144.0424  132.3442  151.2804 C   0  0  0  0  0  0  0  0  0  0  0  0
  142.9893  133.6064  152.0463 S   0  0  0  0  0  0  0  0  0  0  0  0
  144.2902  134.7100  152.6640 C   0  0  0  0  0  0  0  0  0  0  0  0
  150.7473  139.4550  154.1303 N   0  0  0  0  0  0  0  0  0  0  0  0
  153.6504  137.9300  155.0829 H   0  0  0  0  0  0  0  0  0  0  0  0
  153.3792  139.6671  155.1541 H   0  0  0  0  0  0  0  0  0  0  0  0
  153.4319  138.8463  153.5973 H   0  0  0  0  0  0  0  0  0  0  0  0
  151.4104  136.6173  155.7953 H   0  0  0  0  0  0  0  0  0  0  0  0
  148.5300  140.1148  152.7041 H   0  0  0  0  0  0  0  0  0  0  0  0
  149.2127  141.8572  154.2657 H   0  0  0  0  0  0  0  0  0  0  0  0
  148.0933  141.2516  155.4849 H   0  0  0  0  0  0  0  0  0  0  0  0
  147.4774  141.9319  153.9818 H   0  0  0  0  0  0  0  0  0  0  0  0
  146.7165  138.9714  154.8547 H   0  0  0  0  0  0  0  0  0  0  0  0
  146.1627  139.8347  153.4404 H   0  0  0  0  0  0  0  0  0  0  0  0
  147.8694  137.5998  152.7622 H   0  0  0  0  0  0  0  0  0  0  0  0
  147.1603  135.9682  151.8294 H   0  0  0  0  0  0  0  0  0  0  0  0
  144.6151  135.6703  150.7757 H   0  0  0  0  0  0  0  0  0  0  0  0
  146.6335  134.3480  150.1015 H   0  0  0  0  0  0  0  0  0  0  0  0
  146.5872  133.4806  151.6136 H   0  0  0  0  0  0  0  0  0  0  0  0
  144.4140  133.4459  149.4565 H   0  0  0  0  0  0  0  0  0  0  0  0
  145.5671  132.1735  149.7658 H   0  0  0  0  0  0  0  0  0  0  0  0
  143.4043  131.5984  150.8058 H   0  0  0  0  0  0  0  0  0  0  0  0
  144.6088  131.8323  152.0590 H   0  0  0  0  0  0  0  0  0  0  0  0
  144.8539  134.1915  153.4405 H   0  0  0  0  0  0  0  0  0  0  0  0
  143.8124  135.5696  153.1350 H   0  0  0  0  0  0  0  0  0  0  0  0
  1  2  1  0  0  0  0
  1 20  1  0  0  0  0
  1 21  1  0  0  0  0
  1 22  1  0  0  0  0
  2 19  1  0  0  0  0
  2  3  2  0  0  0  0
  3  4  1  0  0  0  0
  3 23  1  0  0  0  0
  4  5  1  0  0  0  0
  5  6  1  0  0  0  0
  5 19  2  0  0  0  0
  6  7  1  0  0  0  0
  6  8  1  0  0  0  0
  6 24  1  0  0  0  0
  7 25  1  0  0  0  0
  7 26  1  0  0  0  0
  7 27  1  0  0  0  0
  8  9  1  0  0  0  0
  8 28  1  0  0  0  0
  8 29  1  0  0  0  0
  9 10  1  0  0  0  0
  9 30  1  0  0  0  0
 10 11  2  0  0  0  0
 10 12  1  0  0  0  0
 12 13  1  0  0  0  0
 12 31  1  0  0  0  0
 13 18  1  0  0  0  0
 13 14  1  0  0  0  0
 13 32  1  0  0  0  0
 14 15  1  0  0  0  0
 14 33  1  0  0  0  0
 14 34  1  0  0  0  0
 15 16  1  0  0  0  0
 15 35  1  0  0  0  0
 15 36  1  0  0  0  0
 16 17  1  0  0  0  0
 16 37  1  0  0  0  0
 16 38  1  0  0  0  0
 17 18  1  0  0  0  0
 18 39  1  0  0  0  0
 18 40  1  0  0  0  0
M  END
> <s_m_source_file>
AV-unprocessed.smi

> <i_m_source_file_index>
2457

> <i_lp_mmshare_version>
43012

> <i_f3d_flags>
0

> <s_epik_input>
W0NIM11jMVtjSF1zYyhuMSlbQ0BIXShbQ0gzXSlbQ0gyXVtOSF1DKD1PKVtOSF1bQ0BASF0yW0NIMl1bQ0gyXVtDSDJdU1tDSDJdMg==

> <s_epik_cmdline>
J2VwaWtfcHl0aG9uJywgJy1waCcsICc3LjAnLCAnLXRuJywgJzgnLCAnLW1hJywgJzIwMCcsICctbWV0YWxfYmluZGluZycsICctaW1hZScsICc8aW5maWxlLm1hZT4nLCAnLW9tYWUnLCAnPG91dGZpbGUubWFlPic=

> <r_epik_Ionization_Penalty>
0.00154805

> <r_epik_Ionization_Penalty_Charging>
0

> <r_epik_Ionization_Penalty_Neutral>
0.00154805

> <r_epik_State_Penalty>
0.00100357

> <r_epik_Charging_Adjusted_Penalty>
0.00100357

> <i_epik_Tot_Q>
0

> <i_epik_Tot_abs_Q>
0

> <r_epik_Metal_State_Penalty>
-0

> <b_epik_Metal_Only>
0

> <s_lp_Force_Field>
OPLS_2005

> <r_lp_Energy>
-7.39809

> <b_lp_Chiralities_Consistent>
1

> <s_lp_Variant>
AV-unprocessed.smi:2457-3

> <Gold.Version>
5.8.1

> <Gold.Id.Protein>
6NUR|6NUR_protein|mol2

> <Gold.PLP.Fitness>
43.1832

> <Gold.PLP.PLP>
-34.5530

> <Gold.PLP.part.hbond>
-3.0000

> <Gold.PLP.part.metal>
0.0000

> <Gold.PLP.part.buried>
-2.9566

> <Gold.PLP.part.nonpolar>
-29.3731

> <Gold.PLP.part.repulsive>
0.4318

> <Gold.PLP.ligand.clash>
0.0000

> <Gold.PLP.ligand.torsion>
0.2495

> <Gold.PLP.Chemscore.Hbond>
3.0000

> <Gold.PLP.Chemscore.CHOScore>
0.0000

> <Gold.PLP.Chemscore.Metal>
0.0000

> <Gold.Chemscore.Hbonds>
donor molecule, donor type, donor heavy atom, donor atom, acceptor molecule, acceptor atom, score
      L1  H     9    30       P1  7948  1.00
      L1  H    12    31       P1  7948  1.00
      P1  H  7989  7998       L1    19  1.00

> <Gold.PLP.Chemscore.Internal.Correction>
0.1291

> <Gold.Rescore>
     Score         DG    S(hbond)    S(metal)    S(lipo)     H(rot)  DE(clash)    DE(int)     intcor
     19.42     -21.36       2.89        0.00      85.26       1.46       0.21       1.72       ----

> <Gold.Chemscore.Fitness>
19.4213

> <Gold.Chemscore.DG>
-21.3560

> <Gold.Chemscore.ZeroCoef>
-5.4800

> <Gold.Chemscore.Hbond>
2.8868

> <Gold.Chemscore.Metal>
0.0000

> <Gold.Chemscore.Lipo>
85.2620

> <Gold.Chemscore.Internal_Hbond>
0.0000

> <Gold.Chemscore.DEClash>
0.2100

> <Gold.Chemscore.DEInternal>
1.7248

> <Gold.Chemscore.Rot>
1.4616

> <Gold.Chemscore.Internal.Correction>
   9.000000E+99

> <Gold.Chemscore.Hbonds>
donor molecule, donor type, donor heavy atom, donor atom, acceptor molecule, acceptor atom, score
      L1  H     9    30       P1  7948  0.94
      L1  H    12    31       P1  7948  0.99
      P1  H  7989  7998       L1    19  0.78

> <Gold.Chemscore.Hbond.Weighted>
-9.6420

> <Gold.Chemscore.Metal.Weighted>
-0.0000

> <Gold.Chemscore.Lipo.Weighted>
-9.9757

> <Gold.Chemscore.Internal_Hbond.Weighted>
0.0000

> <Gold.Chemscore.DEClash.Weighted>
0.2100

> <Gold.Chemscore.DEInternal.Weighted>
1.7248

> <Gold.Chemscore.Rot.Weighted>
3.7416

> <Gold.Chemscore.Internal.Correction.Weighted>
   9.000000E+99

> <Gold.Protein.RotatedTorsions>
[ 6907 6896 6895 6894 ] final -137.67 input  -60.11 | X-H torsion
[ 7974 7965 7964 7962 ] final   15.37 input  175.53 | X-H torsion
[ 8008 7997 7996 7995 ] final  129.14 input   59.86 | X-H torsion
[ 10167 10162 10161 10158 ] final -169.28 input  -65.29 | X-H torsion
[ 10718 10713 10712 10709 ] final  -82.52 input   66.30 | X-H torsion
[ 10763 10752 10751 10750 ] final -126.39 input  -60.55 | X-H torsion
[ 11005 11000 10999 10996 ] final   78.97 input  -57.11 | X-H torsion

> <Gold.Protein.ActiveResidues>
 VAL166  LYS551  ARG553  GLY616  TRP617  ASP618  TYR619  PRO620  LYS621  CYS622 
 ASP623  PHE694  ASN695  SER759  ASP760  ASP761  ALA762  ILE779  LEU786  VAL792 
 PHE793  MET794  SER795  GLU796  ALA797  LYS798  CYS799  TRP800  GLU811  SER814 

> <Gold.Protein.RotatedAtoms>
  151.0254  133.5839  159.2666 H   0  0  0  0  0  0  0  0  0  0  0  0  # atno 6907 bound_to 6896
  151.2940  135.0749  159.9224 H   0  0  0  0  0  0  0  0  0  0  0  0  # atno 6908 bound_to 6896
  152.5333  133.9947  159.7921 H   0  0  0  0  0  0  0  0  0  0  0  0  # atno 6909 bound_to 6896
  146.2280  139.8904  142.8556 H   0  0  0  0  0  0  0  0  0  0  0  0  # atno 7974 bound_to 7965
  156.2930  140.2627  156.2551 H   0  0  0  0  0  0  0  0  0  0  0  0  # atno 8008 bound_to 7997
  154.9844  140.0389  157.2310 H   0  0  0  0  0  0  0  0  0  0  0  0  # atno 8009 bound_to 7997
  154.7742  140.2783  155.6118 H   0  0  0  0  0  0  0  0  0  0  0  0  # atno 8010 bound_to 7997
  139.5932  144.1167  152.1659 H   0  0  0  0  0  0  0  0  0  0  0  0  # atno 10167 bound_to 10162
  156.0032  130.4637  150.4117 H   0  0  0  0  0  0  0  0  0  0  0  0  # atno 10718 bound_to 10713
  154.8745  135.3997  154.3423 H   0  0  0  0  0  0  0  0  0  0  0  0  # atno 10763 bound_to 10752
  153.4221  135.7023  153.6292 H   0  0  0  0  0  0  0  0  0  0  0  0  # atno 10764 bound_to 10752
  153.4950  135.3740  155.2481 H   0  0  0  0  0  0  0  0  0  0  0  0  # atno 10765 bound_to 10752
  139.9191  134.7805  156.1718 H   0  0  0  0  0  0  0  0  0  0  0  0  # atno 11005 bound_to 11000
  145.2423  141.0014  143.3928 LP  0  0  0  0  0  0  0  0  0  0  0  0  # atno 17320 bound_to 7965
  144.9441  139.4155  143.6434 LP  0  0  0  0  0  0  0  0  0  0  0  0  # atno 17321 bound_to 7965
  140.0746  144.5751  150.7166 LP  0  0  0  0  0  0  0  0  0  0  0  0  # atno 17342 bound_to 10162
  140.7191  143.2571  151.4338 LP  0  0  0  0  0  0  0  0  0  0  0  0  # atno 17343 bound_to 10162
  157.2179  131.0475  151.2563 LP  0  0  0  0  0  0  0  0  0  0  0  0  # atno 17370 bound_to 10713
  157.3828  130.7240  149.6642 LP  0  0  0  0  0  0  0  0  0  0  0  0  # atno 17371 bound_to 10713
  141.0696  133.6803  156.2113 LP  0  0  0  0  0  0  0  0  0  0  0  0  # atno 17394 bound_to 11000
  140.6529  134.5048  157.5578 LP  0  0  0  0  0  0  0  0  0  0  0  0  # atno 17395 bound_to 11000

$$$$
