AV-unprocessed.smi:767|AV-procd|sdf|3672|dock10
  -GOLD-   22720 1 83D 1   1.00000     0.00000
 Structure written by MMmdl.
 48 50  0  0  0  0  0  0  0  0  2 V2000
  151.2644  143.2032  158.3997 C   0  0  0  0  0  0  0  0  0  0  0  0
  150.9403  142.1184  157.3953 C   0  0  0  0  0  0  0  0  0  0  0  0
  151.5885  140.8655  157.4083 C   0  0  0  0  0  0  0  0  0  0  0  0
  151.2206  139.8903  156.4589 C   0  0  0  0  0  0  0  0  0  0  0  0
  150.2165  140.1887  155.5114 C   0  0  0  0  0  0  0  0  0  0  0  0
  149.7632  139.1436  154.5055 C   0  0  0  0  0  0  0  0  0  0  0  0
  148.3261  139.3568  153.9872 C   0  0  0  0  0  0  0  0  0  0  0  0
  147.8579  138.2487  153.1562 N   0  0  0  0  0  0  0  0  0  0  0  0
  146.5757  137.9926  152.8575 C   0  0  0  0  0  0  0  0  0  0  0  0
  145.6270  138.6784  153.2397 O   0  0  0  0  0  0  0  0  0  0  0  0
  146.4440  136.8845  152.1176 N   0  0  0  0  0  0  0  0  0  0  0  0
  145.1584  136.3227  151.7208 C   0  0  1  0  0  0  0  0  0  0  0  0
  145.2174  134.8144  151.4852 C   0  0  2  0  0  0  0  0  0  0  0  0
  145.0632  133.9356  150.2955 C   0  0  0  0  0  0  0  0  0  0  0  0
  144.1072  132.8886  150.9270 C   0  0  0  0  0  0  0  0  0  0  0  0
  143.6819  133.4506  152.1926 O   0  0  0  0  0  0  0  0  0  0  0  0
  143.7876  134.8450  151.9935 C   0  0  1  0  0  0  0  0  0  0  0  0
  144.2188  135.9831  152.9397 C   0  0  0  0  0  0  0  0  0  0  0  0
  144.8355  135.5864  154.2964 C   0  0  0  0  0  0  0  0  0  0  0  0
  143.1512  137.0342  153.2454 C   0  0  0  0  0  0  0  0  0  0  0  0
  149.6192  141.4676  155.5326 C   0  0  0  0  0  0  0  0  0  0  0  0
  149.9932  142.3711  156.4646 N   0  3  0  0  0  0  0  0  0  0  0  0
  151.7460  142.7832  159.2835 H   0  0  0  0  0  0  0  0  0  0  0  0
  150.3563  143.7140  158.7214 H   0  0  0  0  0  0  0  0  0  0  0  0
  151.9375  143.9383  157.9581 H   0  0  0  0  0  0  0  0  0  0  0  0
  152.3481  140.6467  158.1445 H   0  0  0  0  0  0  0  0  0  0  0  0
  151.6959  138.9202  156.4708 H   0  0  0  0  0  0  0  0  0  0  0  0
  150.4586  139.1469  153.6656 H   0  0  0  0  0  0  0  0  0  0  0  0
  149.8417  138.1540  154.9578 H   0  0  0  0  0  0  0  0  0  0  0  0
  147.6452  139.5173  154.8249 H   0  0  0  0  0  0  0  0  0  0  0  0
  148.2868  140.2685  153.3911 H   0  0  0  0  0  0  0  0  0  0  0  0
  148.5632  137.6248  152.7918 H   0  0  0  0  0  0  0  0  0  0  0  0
  147.2747  136.3823  151.8403 H   0  0  0  0  0  0  0  0  0  0  0  0
  144.6645  136.8629  150.9076 H   0  0  0  0  0  0  0  0  0  0  0  0
  145.9156  134.3498  152.1853 H   0  0  0  0  0  0  0  0  0  0  0  0
  144.6002  134.4594  149.4579 H   0  0  0  0  0  0  0  0  0  0  0  0
  146.0058  133.4976  149.9657 H   0  0  0  0  0  0  0  0  0  0  0  0
  143.2468  132.7089  150.2812 H   0  0  0  0  0  0  0  0  0  0  0  0
  144.6052  131.9344  151.1013 H   0  0  0  0  0  0  0  0  0  0  0  0
  143.0589  135.1852  151.2486 H   0  0  0  0  0  0  0  0  0  0  0  0
  144.0645  135.2863  155.0067 H   0  0  0  0  0  0  0  0  0  0  0  0
  145.3773  136.4190  154.7424 H   0  0  0  0  0  0  0  0  0  0  0  0
  145.5320  134.7525  154.2345 H   0  0  0  0  0  0  0  0  0  0  0  0
  142.3616  136.6323  153.8809 H   0  0  0  0  0  0  0  0  0  0  0  0
  142.6766  137.3995  152.3342 H   0  0  0  0  0  0  0  0  0  0  0  0
  143.5771  137.8998  153.7532 H   0  0  0  0  0  0  0  0  0  0  0  0
  148.8397  141.7832  154.8544 H   0  0  0  0  0  0  0  0  0  0  0  0
  149.5344  143.2822  156.4707 H   0  0  0  0  0  0  0  0  0  0  0  0
  1  2  1  0  0  0  0
  1 23  1  0  0  0  0
  1 24  1  0  0  0  0
  1 25  1  0  0  0  0
  2 22  1  0  0  0  0
  2  3  2  0  0  0  0
  3  4  1  0  0  0  0
  3 26  1  0  0  0  0
  4  5  2  0  0  0  0
  4 27  1  0  0  0  0
  5  6  1  0  0  0  0
  5 21  1  0  0  0  0
  6  7  1  0  0  0  0
  6 28  1  0  0  0  0
  6 29  1  0  0  0  0
  7  8  1  0  0  0  0
  7 30  1  0  0  0  0
  7 31  1  0  0  0  0
  8  9  1  0  0  0  0
  8 32  1  0  0  0  0
  9 10  2  0  0  0  0
  9 11  1  0  0  0  0
 11 12  1  0  0  0  0
 11 33  1  0  0  0  0
 12 18  1  0  0  0  0
 12 13  1  0  0  0  0
 12 34  1  0  0  0  0
 13 17  1  0  0  0  0
 13 14  1  0  0  0  0
 13 35  1  0  0  0  0
 14 15  1  0  0  0  0
 14 36  1  0  0  0  0
 14 37  1  0  0  0  0
 15 16  1  0  0  0  0
 15 38  1  0  0  0  0
 15 39  1  0  0  0  0
 16 17  1  0  0  0  0
 17 18  1  0  0  0  0
 17 40  1  0  0  0  0
 18 19  1  0  0  0  0
 18 20  1  0  0  0  0
 19 41  1  0  0  0  0
 19 42  1  0  0  0  0
 19 43  1  0  0  0  0
 20 44  1  0  0  0  0
 20 45  1  0  0  0  0
 20 46  1  0  0  0  0
 21 22  2  0  0  0  0
 21 47  1  0  0  0  0
 22 48  1  0  0  0  0
M  CHG  1  22   1
M  END
> <s_m_source_file>
AV-unprocessed.smi

> <i_m_source_file_index>
767

> <i_lp_mmshare_version>
43012

> <i_f3d_flags>
0

> <s_epik_input>
W0NIM11jMVtjSF1bY0hdYyhbY0hdbjEpW0NIMl1bQ0gyXVtOSF1DKD1PKVtOSF1bQ0BIXTJDKFtDSDNdKShbQ0gzXSlbQ0BIXShbQ0BASF0yMylPW0NIMl1bQ0gyXTM=

> <s_epik_cmdline>
J2VwaWtfcHl0aG9uJywgJy1waCcsICc3LjAnLCAnLXRuJywgJzgnLCAnLW1hJywgJzIwMCcsICctbWV0YWxfYmluZGluZycsICctaW1hZScsICc8aW5maWxlLm1hZT4nLCAnLW9tYWUnLCAnPG91dGZpbGUubWFlPic=

> <r_epik_Ionization_Penalty>
1.41853

> <r_epik_Ionization_Penalty_Charging>
1.41848

> <r_epik_Ionization_Penalty_Neutral>
5.17407e-05

> <r_epik_State_Penalty>
1.50205

> <r_epik_Charging_Adjusted_Penalty>
2.92053

> <i_epik_Tot_Q>
1

> <i_epik_Tot_abs_Q>
1

> <r_epik_Metal_State_Penalty>
1.5544

> <b_epik_Metal_Only>
0

> <s_lp_Force_Field>
OPLS_2005

> <r_lp_Energy>
61.237

> <b_lp_Chiralities_Consistent>
1

> <s_lp_Variant>
AV-unprocessed.smi:767-16

> <Gold.Version>
5.8.1

> <Gold.Id.Protein>
6NUR|6NUR_protein|mol2

> <Gold.PLP.Fitness>
46.0626

> <Gold.PLP.PLP>
-35.2193

> <Gold.PLP.part.hbond>
-3.9355

> <Gold.PLP.part.metal>
0.0000

> <Gold.PLP.part.buried>
-1.9437

> <Gold.PLP.part.nonpolar>
-33.3876

> <Gold.PLP.part.repulsive>
3.3693

> <Gold.PLP.ligand.clash>
0.0000

> <Gold.PLP.ligand.torsion>
0.6676

> <Gold.PLP.Chemscore.Hbond>
3.9680

> <Gold.PLP.Chemscore.CHOScore>
0.0000

> <Gold.PLP.Chemscore.Metal>
0.0000

> <Gold.Chemscore.Hbonds>
donor molecule, donor type, donor heavy atom, donor atom, acceptor molecule, acceptor atom, score
      L1  H     8    32       P1  7948  0.99
      L1  H    11    33       P1  7948  1.00
      L1  H    22    48       P1  8028  2.00

> <Gold.PLP.Chemscore.Internal.Correction>
0.2744

> <Gold.Rescore>
     Score         DG    S(hbond)    S(metal)    S(lipo)     H(rot)  DE(clash)    DE(int)     intcor
     19.23     -22.15       2.87        0.00      93.75       1.52       1.45       1.47       ----

> <Gold.Chemscore.Fitness>
19.2349

> <Gold.Chemscore.DG>
-22.1474

> <Gold.Chemscore.ZeroCoef>
-5.4800

> <Gold.Chemscore.Hbond>
2.8737

> <Gold.Chemscore.Metal>
0.0000

> <Gold.Chemscore.Lipo>
93.7518

> <Gold.Chemscore.Internal_Hbond>
0.0000

> <Gold.Chemscore.DEClash>
1.4458

> <Gold.Chemscore.DEInternal>
1.4668

> <Gold.Chemscore.Rot>
1.5233

> <Gold.Chemscore.Internal.Correction>
   9.000000E+99

> <Gold.Chemscore.Hbonds>
donor molecule, donor type, donor heavy atom, donor atom, acceptor molecule, acceptor atom, score
      L1  H     8    32       P1  7948  0.94
      L1  H    11    33       P1  7948  0.95
      L1  H    22    48       P1  8028  0.97

> <Gold.Chemscore.Hbond.Weighted>
-9.5980

> <Gold.Chemscore.Metal.Weighted>
-0.0000

> <Gold.Chemscore.Lipo.Weighted>
-10.9690

> <Gold.Chemscore.Internal_Hbond.Weighted>
0.0000

> <Gold.Chemscore.DEClash.Weighted>
1.4458

> <Gold.Chemscore.DEInternal.Weighted>
1.4668

> <Gold.Chemscore.Rot.Weighted>
3.8995

> <Gold.Chemscore.Internal.Correction.Weighted>
   9.000000E+99

> <Gold.Protein.RotatedTorsions>
[ 6907 6896 6895 6894 ] final  171.42 input  -60.11 | X-H torsion
[ 7974 7965 7964 7962 ] final  109.81 input  175.53 | X-H torsion
[ 8008 7997 7996 7995 ] final   85.23 input   59.86 | X-H torsion
[ 10167 10162 10161 10158 ] final   34.31 input  -65.29 | X-H torsion
[ 10718 10713 10712 10709 ] final  -80.37 input   66.30 | X-H torsion
[ 10763 10752 10751 10750 ] final -108.71 input  -60.55 | X-H torsion
[ 11005 11000 10999 10996 ] final  123.76 input  -57.11 | X-H torsion

> <Gold.Protein.ActiveResidues>
 VAL166  LYS551  ARG553  GLY616  TRP617  ASP618  TYR619  PRO620  LYS621  CYS622 
 ASP623  PHE694  ASN695  SER759  ASP760  ASP761  ALA762  ILE779  LEU786  VAL792 
 PHE793  MET794  SER795  GLU796  ALA797  LYS798  CYS799  TRP800  GLU811  SER814 

> <Gold.Protein.RotatedAtoms>
  151.8004  133.3369  159.3525 H   0  0  0  0  0  0  0  0  0  0  0  0  # atno 6907 bound_to 6896
  150.7360  134.5758  159.5923 H   0  0  0  0  0  0  0  0  0  0  0  0  # atno 6908 bound_to 6896
  152.3147  134.7456  160.0379 H   0  0  0  0  0  0  0  0  0  0  0  0  # atno 6909 bound_to 6896
  145.2630  139.2695  143.4006 H   0  0  0  0  0  0  0  0  0  0  0  0  # atno 7974 bound_to 7965
  155.9473  140.3403  155.6378 H   0  0  0  0  0  0  0  0  0  0  0  0  # atno 8008 bound_to 7997
  155.6964  140.0755  157.2446 H   0  0  0  0  0  0  0  0  0  0  0  0  # atno 8009 bound_to 7997
  154.4114  140.1648  156.2131 H   0  0  0  0  0  0  0  0  0  0  0  0  # atno 8010 bound_to 7997
  140.4327  144.1302  150.6161 H   0  0  0  0  0  0  0  0  0  0  0  0  # atno 10167 bound_to 10162
  156.0071  130.4572  150.3791 H   0  0  0  0  0  0  0  0  0  0  0  0  # atno 10718 bound_to 10713
  154.8151  135.4627  154.0623 H   0  0  0  0  0  0  0  0  0  0  0  0  # atno 10763 bound_to 10752
  153.2022  135.6870  153.8224 H   0  0  0  0  0  0  0  0  0  0  0  0  # atno 10764 bound_to 10752
  153.7705  135.3271  155.3328 H   0  0  0  0  0  0  0  0  0  0  0  0  # atno 10765 bound_to 10752
  139.9327  134.9641  156.8308 H   0  0  0  0  0  0  0  0  0  0  0  0  # atno 11005 bound_to 11000
  146.3269  140.3053  142.8623 LP  0  0  0  0  0  0  0  0  0  0  0  0  # atno 17320 bound_to 7965
  144.9401  140.8069  143.5636 LP  0  0  0  0  0  0  0  0  0  0  0  0  # atno 17321 bound_to 7965
  140.4409  143.2527  151.9474 LP  0  0  0  0  0  0  0  0  0  0  0  0  # atno 17342 bound_to 10162
  139.4785  144.5655  151.8172 LP  0  0  0  0  0  0  0  0  0  0  0  0  # atno 17343 bound_to 10162
  157.1871  131.0406  151.2719 LP  0  0  0  0  0  0  0  0  0  0  0  0  # atno 17370 bound_to 10713
  157.4094  130.7377  149.6827 LP  0  0  0  0  0  0  0  0  0  0  0  0  # atno 17371 bound_to 10713
  140.6158  134.0040  155.7596 LP  0  0  0  0  0  0  0  0  0  0  0  0  # atno 17394 bound_to 11000
  141.0925  133.9895  157.3214 LP  0  0  0  0  0  0  0  0  0  0  0  0  # atno 17395 bound_to 11000

$$$$
