AV-unprocessed.smi:515|AV-procd|sdf|2781|dock2
  -GOLD-   2262023253D 1   1.00000     0.00000
 Structure written by MMmdl.
 48 50  0  0  0  0  0  0  0  0  2 V2000
  151.9565  145.2624  159.4045 C   0  0  0  0  0  0  0  0  0  0  0  0
  151.5777  144.2840  158.2908 C   0  0  0  0  0  0  0  0  0  0  0  0
  151.7302  142.9627  158.7774 O   0  0  0  0  0  0  0  0  0  0  0  0
  150.8840  142.0299  158.1263 C   0  0  0  0  0  0  0  0  0  0  0  0
  151.2594  141.9448  156.6398 C   0  0  0  0  0  0  0  0  0  0  0  0
  150.9278  140.6454  156.0637 N   0  0  0  0  0  0  0  0  0  0  0  0
  150.0401  140.3808  155.0686 C   0  0  0  0  0  0  0  0  0  0  0  0
  149.2318  141.4374  154.3696 C   0  0  0  0  0  0  0  0  0  0  0  0
  147.8876  141.3636  154.9964 N   0  3  0  0  0  0  0  0  0  0  0  0
  147.8901  141.6061  156.4617 C   0  0  0  0  0  0  0  0  0  0  0  0
  146.4673  141.4740  157.0297 C   0  0  0  0  0  0  0  0  0  0  0  0
  145.5978  142.3757  156.3564 O   0  0  0  0  0  0  0  0  0  0  0  0
  145.5168  142.0959  154.9645 C   0  0  0  0  0  0  0  0  0  0  0  0
  146.9077  142.2503  154.3264 C   0  0  0  0  0  0  0  0  0  0  0  0
  149.9467  139.0856  154.7489 N   0  0  0  0  0  0  0  0  0  0  0  0
  150.8534  138.4781  155.6045 C   0  0  0  0  0  0  0  0  0  0  0  0
  151.4569  139.3980  156.3983 C   0  0  0  0  0  0  0  0  0  0  0  0
  152.4788  139.0333  157.3905 C   0  0  0  0  0  0  0  0  0  0  0  0
  153.0431  139.8490  158.1158 O   0  0  0  0  0  0  0  0  0  0  0  0
  152.7375  137.7036  157.4217 N   0  0  0  0  0  0  0  0  0  0  0  0
  152.1646  136.7264  156.6548 C   0  0  0  0  0  0  0  0  0  0  0  0
  152.5066  135.5527  156.7968 O   0  0  0  0  0  0  0  0  0  0  0  0
  151.2141  137.1077  155.7424 N   0  0  0  0  0  0  0  0  0  0  0  0
  150.5672  136.1028  154.8967 C   0  0  0  0  0  0  0  0  0  0  0  0
  153.4345  137.3993  158.0859 H   0  0  0  0  0  0  0  0  0  0  0  0
  151.8520  146.2941  159.0688 H   0  0  0  0  0  0  0  0  0  0  0  0
  152.9896  145.1149  159.7200 H   0  0  0  0  0  0  0  0  0  0  0  0
  151.3170  145.1277  160.2773 H   0  0  0  0  0  0  0  0  0  0  0  0
  150.5464  144.4554  157.9790 H   0  0  0  0  0  0  0  0  0  0  0  0
  152.2181  144.4414  157.4217 H   0  0  0  0  0  0  0  0  0  0  0  0
  150.9838  141.0474  158.5893 H   0  0  0  0  0  0  0  0  0  0  0  0
  149.8427  142.3370  158.2325 H   0  0  0  0  0  0  0  0  0  0  0  0
  150.7573  142.7298  156.0771 H   0  0  0  0  0  0  0  0  0  0  0  0
  152.3231  142.1384  156.5062 H   0  0  0  0  0  0  0  0  0  0  0  0
  149.6662  142.4330  154.4492 H   0  0  0  0  0  0  0  0  0  0  0  0
  149.1804  141.1834  153.3100 H   0  0  0  0  0  0  0  0  0  0  0  0
  148.5443  140.8958  156.9676 H   0  0  0  0  0  0  0  0  0  0  0  0
  148.2821  142.6035  156.6664 H   0  0  0  0  0  0  0  0  0  0  0  0
  146.1008  140.4510  156.9286 H   0  0  0  0  0  0  0  0  0  0  0  0
  146.4647  141.7090  158.0941 H   0  0  0  0  0  0  0  0  0  0  0  0
  145.1227  141.0911  154.8042 H   0  0  0  0  0  0  0  0  0  0  0  0
  144.8137  142.7905  154.5047 H   0  0  0  0  0  0  0  0  0  0  0  0
  147.2410  143.2867  154.4011 H   0  0  0  0  0  0  0  0  0  0  0  0
  146.8525  142.0060  153.2647 H   0  0  0  0  0  0  0  0  0  0  0  0
  150.0878  135.3369  155.5081 H   0  0  0  0  0  0  0  0  0  0  0  0
  151.3023  135.6154  154.2547 H   0  0  0  0  0  0  0  0  0  0  0  0
  149.7994  136.5282  154.2508 H   0  0  0  0  0  0  0  0  0  0  0  0
  147.5600  140.4185  154.8527 H   0  0  0  0  0  0  0  0  0  0  0  0
  1  2  1  0  0  0  0
  1 26  1  0  0  0  0
  1 27  1  0  0  0  0
  1 28  1  0  0  0  0
  2  3  1  0  0  0  0
  2 29  1  0  0  0  0
  2 30  1  0  0  0  0
  3  4  1  0  0  0  0
  4  5  1  0  0  0  0
  4 31  1  0  0  0  0
  4 32  1  0  0  0  0
  5  6  1  0  0  0  0
  5 33  1  0  0  0  0
  5 34  1  0  0  0  0
  6 17  1  0  0  0  0
  6  7  1  0  0  0  0
  7  8  1  0  0  0  0
  7 15  2  0  0  0  0
  8  9  1  0  0  0  0
  8 35  1  0  0  0  0
  8 36  1  0  0  0  0
  9 14  1  0  0  0  0
  9 10  1  0  0  0  0
  9 48  1  0  0  0  0
 10 11  1  0  0  0  0
 10 37  1  0  0  0  0
 10 38  1  0  0  0  0
 11 12  1  0  0  0  0
 11 39  1  0  0  0  0
 11 40  1  0  0  0  0
 12 13  1  0  0  0  0
 13 14  1  0  0  0  0
 13 41  1  0  0  0  0
 13 42  1  0  0  0  0
 14 43  1  0  0  0  0
 14 44  1  0  0  0  0
 15 16  1  0  0  0  0
 16 23  1  0  0  0  0
 16 17  2  0  0  0  0
 17 18  1  0  0  0  0
 18 19  2  0  0  0  0
 18 20  1  0  0  0  0
 20 25  1  0  0  0  0
 20 21  1  0  0  0  0
 21 22  2  0  0  0  0
 21 23  1  0  0  0  0
 23 24  1  0  0  0  0
 24 45  1  0  0  0  0
 24 46  1  0  0  0  0
 24 47  1  0  0  0  0
M  CHG  1   9   1
M  END
> <s_m_source_file>
AV-unprocessed.smi

> <i_m_source_file_index>
515

> <i_lp_mmshare_version>
43012

> <i_f3d_flags>
0

> <s_epik_input>
W0NIM11uMWMoPU8pW25IXWMoPU8pYyhjMTIpbihbQ0gyXVtDSDJdT1tDSDJdW0NIM10pYyhuMilbQ0gyXU4zW0NIMl1bQ0gyXU9bQ0gyXVtDSDJdMw==

> <s_epik_cmdline>
J2VwaWtfcHl0aG9uJywgJy1waCcsICc3LjAnLCAnLXRuJywgJzgnLCAnLW1hJywgJzIwMCcsICctbWV0YWxfYmluZGluZycsICctaW1hZScsICc8aW5maWxlLm1hZT4nLCAnLW9tYWUnLCAnPG91dGZpbGUubWFlPic=

> <r_epik_Ionization_Penalty>
1.12075

> <r_epik_Ionization_Penalty_Charging>
1.12075

> <r_epik_Ionization_Penalty_Neutral>
5.33793e-09

> <r_epik_State_Penalty>
1.17893

> <r_epik_Charging_Adjusted_Penalty>
2.29968

> <i_epik_Tot_Q>
1

> <i_epik_Tot_abs_Q>
1

> <r_epik_Metal_State_Penalty>
1.3264

> <b_epik_Metal_Only>
0

> <s_lp_Force_Field>
OPLS_2005

> <r_lp_Energy>
34.9817

> <b_lp_Chiralities_Consistent>
1

> <s_lp_Variant>
AV-unprocessed.smi:515-2

> <Gold.Version>
5.8.1

> <Gold.Id.Protein>
6NUR|6NUR_protein|mol2

> <Gold.PLP.Fitness>
43.3832

> <Gold.PLP.PLP>
-38.5302

> <Gold.PLP.part.hbond>
-2.0000

> <Gold.PLP.part.metal>
0.0000

> <Gold.PLP.part.buried>
-3.8623

> <Gold.PLP.part.nonpolar>
-31.5046

> <Gold.PLP.part.repulsive>
0.4453

> <Gold.PLP.ligand.clash>
0.0000

> <Gold.PLP.ligand.torsion>
0.6125

> <Gold.PLP.Chemscore.Hbond>
2.0000

> <Gold.PLP.Chemscore.CHOScore>
0.0000

> <Gold.PLP.Chemscore.Metal>
0.0000

> <Gold.Chemscore.Hbonds>
donor molecule, donor type, donor heavy atom, donor atom, acceptor molecule, acceptor atom, score
      P1  H  7997  8010       L1    19  0.90
      P1  H 10752 10764       L1    22  1.00

> <Gold.PLP.Chemscore.Internal.Correction>
0.0780

> <Gold.Rescore>
     Score         DG    S(hbond)    S(metal)    S(lipo)     H(rot)  DE(clash)    DE(int)     intcor
     11.06     -12.50       1.30        0.00      71.38       2.22       0.25       1.19       ----

> <Gold.Chemscore.Fitness>
11.0598

> <Gold.Chemscore.DG>
-12.4987

> <Gold.Chemscore.ZeroCoef>
-5.4800

> <Gold.Chemscore.Hbond>
1.3012

> <Gold.Chemscore.Metal>
0.0000

> <Gold.Chemscore.Lipo>
71.3771

> <Gold.Chemscore.Internal_Hbond>
0.0000

> <Gold.Chemscore.DEClash>
0.2501

> <Gold.Chemscore.DEInternal>
1.1888

> <Gold.Chemscore.Rot>
2.2182

> <Gold.Chemscore.Internal.Correction>
   9.000000E+99

> <Gold.Chemscore.Hbonds>
donor molecule, donor type, donor heavy atom, donor atom, acceptor molecule, acceptor atom, score
      P1  H  7997  8010       L1    19  0.17
      P1  H 10752 10764       L1    22  0.29

> <Gold.Chemscore.Hbond.Weighted>
-4.3462

> <Gold.Chemscore.Metal.Weighted>
-0.0000

> <Gold.Chemscore.Lipo.Weighted>
-8.3511

> <Gold.Chemscore.Internal_Hbond.Weighted>
0.0000

> <Gold.Chemscore.DEClash.Weighted>
0.2501

> <Gold.Chemscore.DEInternal.Weighted>
1.1888

> <Gold.Chemscore.Rot.Weighted>
5.6785

> <Gold.Chemscore.Internal.Correction.Weighted>
   9.000000E+99

> <Gold.Protein.RotatedTorsions>
[ 6907 6896 6895 6894 ] final  151.68 input  -60.11 | X-H torsion
[ 7974 7965 7964 7962 ] final -170.67 input  175.53 | X-H torsion
[ 8008 7997 7996 7995 ] final   28.19 input   59.86 | X-H torsion
[ 10167 10162 10161 10158 ] final  174.61 input  -65.29 | X-H torsion
[ 10718 10713 10712 10709 ] final  -63.43 input   66.30 | X-H torsion
[ 10763 10752 10751 10750 ] final    6.42 input  -60.55 | X-H torsion
[ 11005 11000 10999 10996 ] final   45.77 input  -57.11 | X-H torsion

> <Gold.Protein.ActiveResidues>
 VAL166  LYS551  ARG553  GLY616  TRP617  ASP618  TYR619  PRO620  LYS621  CYS622 
 ASP623  PHE694  ASN695  SER759  ASP760  ASP761  ALA762  ILE779  LEU786  VAL792 
 PHE793  MET794  SER795  GLU796  ALA797  LYS798  CYS799  TRP800  GLU811  SER814 

> <Gold.Protein.RotatedAtoms>
  152.0972  133.4231  159.4570 H   0  0  0  0  0  0  0  0  0  0  0  0  # atno 6907 bound_to 6896
  150.6863  134.2803  159.4633 H   0  0  0  0  0  0  0  0  0  0  0  0  # atno 6908 bound_to 6896
  152.0659  134.9564  160.0625 H   0  0  0  0  0  0  0  0  0  0  0  0  # atno 6909 bound_to 6896
  144.7167  140.2037  143.6335 H   0  0  0  0  0  0  0  0  0  0  0  0  # atno 7974 bound_to 7965
  155.0548  140.3183  155.4680 H   0  0  0  0  0  0  0  0  0  0  0  0  # atno 8008 bound_to 7997
  156.2826  140.2139  156.5618 H   0  0  0  0  0  0  0  0  0  0  0  0  # atno 8009 bound_to 7997
  154.7181  140.0492  157.0601 H   0  0  0  0  0  0  0  0  0  0  0  0  # atno 8010 bound_to 7997
  139.5148  144.3127  152.0277 H   0  0  0  0  0  0  0  0  0  0  0  0  # atno 10167 bound_to 10162
  156.0792  130.4220  150.1275 H   0  0  0  0  0  0  0  0  0  0  0  0  # atno 10718 bound_to 10713
  153.2480  135.6910  153.7710 H   0  0  0  0  0  0  0  0  0  0  0  0  # atno 10763 bound_to 10752
  153.6816  135.3327  155.3180 H   0  0  0  0  0  0  0  0  0  0  0  0  # atno 10764 bound_to 10752
  154.8382  135.4524  154.1426 H   0  0  0  0  0  0  0  0  0  0  0  0  # atno 10765 bound_to 10752
  140.1429  134.4559  155.8436 H   0  0  0  0  0  0  0  0  0  0  0  0  # atno 11005 bound_to 11000
  145.8656  139.2245  143.1691 LP  0  0  0  0  0  0  0  0  0  0  0  0  # atno 17320 bound_to 7965
  146.0133  140.8416  142.9960 LP  0  0  0  0  0  0  0  0  0  0  0  0  # atno 17321 bound_to 7965
  140.2571  144.4107  150.6200 LP  0  0  0  0  0  0  0  0  0  0  0  0  # atno 17342 bound_to 10162
  140.6184  143.2174  151.6745 LP  0  0  0  0  0  0  0  0  0  0  0  0  # atno 17343 bound_to 10162
  156.9310  130.9714  151.3533 LP  0  0  0  0  0  0  0  0  0  0  0  0  # atno 17370 bound_to 10713
  157.5901  130.8437  149.8646 LP  0  0  0  0  0  0  0  0  0  0  0  0  # atno 17371 bound_to 10713
  141.2188  133.6840  156.7281 LP  0  0  0  0  0  0  0  0  0  0  0  0  # atno 17394 bound_to 11000
  140.2699  134.8400  157.3837 LP  0  0  0  0  0  0  0  0  0  0  0  0  # atno 17395 bound_to 11000

$$$$
