AV-unprocessed.smi:1128|AV-procd|sdf|4843|dock10
  -GOLD-   22720 3413D 1   1.00000     0.00000
 Structure written by MMmdl.
 38 39  0  0  0  0  0  0  0  0  1 V2000
  148.5385  133.2621  155.3471 O   0  0  0  0  0  0  0  0  0  0  0  0
  148.7603  134.0828  154.4574 C   0  0  0  0  0  0  0  0  0  0  0  0
  149.5800  135.1315  154.6149 N   0  0  0  0  0  0  0  0  0  0  0  0
  150.3215  135.4421  155.8330 C   0  0  0  0  0  0  0  0  0  0  0  0
  150.5985  136.9521  155.9884 C   0  0  1  0  0  0  0  0  0  0  0  0
  151.5792  137.2554  157.1464 C   0  0  0  0  0  0  0  0  0  0  0  0
  152.0849  138.6869  157.1267 C   0  0  0  0  0  0  0  0  0  0  0  0
  151.9521  139.5055  156.0700 C   0  0  0  0  0  0  0  0  0  0  0  0
  151.2880  139.0884  154.7713 C   0  0  0  0  0  0  0  0  0  0  0  0
  151.1127  137.5617  154.6706 C   0  0  0  0  0  0  0  0  0  0  0  0
  148.2263  134.0760  153.2219 N   0  0  0  0  0  0  0  0  0  0  0  0
  147.3290  133.1666  152.6356 C   0  0  0  0  0  0  0  0  0  0  0  0
  146.2951  133.5019  151.8197 C   0  0  0  0  0  0  0  0  0  0  0  0
  145.4068  132.5027  151.2494 C   0  0  0  0  0  0  0  0  0  0  0  0
  144.2188  132.8962  150.3853 C   0  0  0  0  0  0  0  0  0  0  0  0
  143.0678  132.5087  150.9363 F   0  0  0  0  0  0  0  0  0  0  0  0
  144.1740  134.2166  150.2079 F   0  0  0  0  0  0  0  0  0  0  0  0
  144.3202  132.3212  149.1879 F   0  0  0  0  0  0  0  0  0  0  0  0
  145.6436  131.2230  151.5919 C   0  0  0  0  0  0  0  0  0  0  0  0
  146.7053  130.8693  152.4271 N   0  0  0  0  0  0  0  0  0  0  0  0
  147.5653  131.7541  152.9791 C   0  0  0  0  0  0  0  0  0  0  0  0
  148.4711  131.3625  153.7144 O   0  0  0  0  0  0  0  0  0  0  0  0
  146.8227  129.8868  152.6289 H   0  0  0  0  0  0  0  0  0  0  0  0
  149.7018  135.7617  153.8358 H   0  0  0  0  0  0  0  0  0  0  0  0
  149.7393  135.0819  156.6817 H   0  0  0  0  0  0  0  0  0  0  0  0
  151.2576  134.8809  155.8451 H   0  0  0  0  0  0  0  0  0  0  0  0
  149.6517  137.4441  156.2178 H   0  0  0  0  0  0  0  0  0  0  0  0
  151.0941  137.0717  158.1057 H   0  0  0  0  0  0  0  0  0  0  0  0
  152.4453  136.5949  157.0967 H   0  0  0  0  0  0  0  0  0  0  0  0
  152.5823  139.0392  158.0184 H   0  0  0  0  0  0  0  0  0  0  0  0
  152.3196  140.5196  156.1262 H   0  0  0  0  0  0  0  0  0  0  0  0
  150.3188  139.5842  154.7133 H   0  0  0  0  0  0  0  0  0  0  0  0
  151.8812  139.4500  153.9310 H   0  0  0  0  0  0  0  0  0  0  0  0
  152.0693  137.1044  154.4141 H   0  0  0  0  0  0  0  0  0  0  0  0
  150.4322  137.3289  153.8508 H   0  0  0  0  0  0  0  0  0  0  0  0
  148.4793  134.8505  152.6256 H   0  0  0  0  0  0  0  0  0  0  0  0
  146.0911  134.5296  151.5695 H   0  0  0  0  0  0  0  0  0  0  0  0
  145.0471  130.3845  151.2638 H   0  0  0  0  0  0  0  0  0  0  0  0
  1  2  2  0  0  0  0
  2  3  1  0  0  0  0
  2 11  1  0  0  0  0
  3  4  1  0  0  0  0
  3 24  1  0  0  0  0
  4  5  1  0  0  0  0
  4 25  1  0  0  0  0
  4 26  1  0  0  0  0
  5 10  1  0  0  0  0
  5  6  1  0  0  0  0
  5 27  1  0  0  0  0
  6  7  1  0  0  0  0
  6 28  1  0  0  0  0
  6 29  1  0  0  0  0
  7  8  2  0  0  0  0
  7 30  1  0  0  0  0
  8  9  1  0  0  0  0
  8 31  1  0  0  0  0
  9 10  1  0  0  0  0
  9 32  1  0  0  0  0
  9 33  1  0  0  0  0
 10 34  1  0  0  0  0
 10 35  1  0  0  0  0
 11 12  1  0  0  0  0
 11 36  1  0  0  0  0
 12 21  1  0  0  0  0
 12 13  2  0  0  0  0
 13 14  1  0  0  0  0
 13 37  1  0  0  0  0
 14 15  1  0  0  0  0
 14 19  2  0  0  0  0
 15 16  1  0  0  0  0
 15 17  1  0  0  0  0
 15 18  1  0  0  0  0
 19 20  1  0  0  0  0
 19 38  1  0  0  0  0
 20 23  1  0  0  0  0
 20 21  1  0  0  0  0
 21 22  2  0  0  0  0
M  END
> <s_m_source_file>
AV-unprocessed.smi

> <i_m_source_file_index>
1128

> <i_lp_mmshare_version>
43012

> <i_f3d_flags>
0

> <s_epik_input>
Tz1jMVtuSF1bY0hdYyhDKEYpKEYpRilbY0hdYzFbTkhdQyg9TylbTkhdW0NIMl1bQ0BASF0yW0NIMl1bQ0hdPVtDSF1bQ0gyXVtDSDJdMg==

> <s_epik_cmdline>
J2VwaWtfcHl0aG9uJywgJy1waCcsICc3LjAnLCAnLXRuJywgJzgnLCAnLW1hJywgJzIwMCcsICctbWV0YWxfYmluZGluZycsICctaW1hZScsICc8aW5maWxlLm1hZT4nLCAnLW9tYWUnLCAnPG91dGZpbGUubWFlPic=

> <r_lp_tautomer_probability>
1

> <r_epik_Ionization_Penalty>
0.00381734

> <r_epik_Ionization_Penalty_Charging>
0.00379608

> <r_epik_Ionization_Penalty_Neutral>
2.12611e-05

> <r_epik_State_Penalty>
-0

> <r_epik_Charging_Adjusted_Penalty>
0.00379608

> <i_epik_Tot_Q>
0

> <i_epik_Tot_abs_Q>
0

> <r_epik_Metal_State_Penalty>
0.371155

> <b_epik_Metal_Only>
0

> <s_lp_Force_Field>
OPLS_2005

> <r_lp_Energy>
19.5554

> <b_lp_Chiralities_Consistent>
1

> <s_lp_Variant>
AV-unprocessed.smi:1128-2

> <Gold.Version>
5.8.1

> <Gold.Id.Protein>
6NUR|6NUR_protein|mol2

> <Gold.PLP.Fitness>
41.9265

> <Gold.PLP.PLP>
-38.6016

> <Gold.PLP.part.hbond>
-2.8994

> <Gold.PLP.part.metal>
0.0000

> <Gold.PLP.part.buried>
-2.5451

> <Gold.PLP.part.nonpolar>
-34.3541

> <Gold.PLP.part.repulsive>
0.1561

> <Gold.PLP.ligand.clash>
0.0000

> <Gold.PLP.ligand.torsion>
0.5722

> <Gold.PLP.Chemscore.Hbond>
1.4765

> <Gold.PLP.Chemscore.CHOScore>
0.0000

> <Gold.PLP.Chemscore.Metal>
0.0000

> <Gold.Chemscore.Hbonds>
donor molecule, donor type, donor heavy atom, donor atom, acceptor molecule, acceptor atom, score
      L1  H     3    24       P1  7948  0.63
      L1  H    11    36       P1  7948  1.00

> <Gold.PLP.Chemscore.Internal.Correction>
0.0398

> <Gold.Rescore>
     Score         DG    S(hbond)    S(metal)    S(lipo)     H(rot)  DE(clash)    DE(int)     intcor
      7.60     -12.56       0.58        0.00      72.38       1.30       0.11       4.85       ----

> <Gold.Chemscore.Fitness>
7.5984

> <Gold.Chemscore.DG>
-12.5608

> <Gold.Chemscore.ZeroCoef>
-5.4800

> <Gold.Chemscore.Hbond>
0.5837

> <Gold.Chemscore.Metal>
0.0000

> <Gold.Chemscore.Lipo>
72.3847

> <Gold.Chemscore.Internal_Hbond>
0.0000

> <Gold.Chemscore.DEClash>
0.1103

> <Gold.Chemscore.DEInternal>
4.8521

> <Gold.Chemscore.Rot>
1.3038

> <Gold.Chemscore.Internal.Correction>
   9.000000E+99

> <Gold.Chemscore.Hbonds>
donor molecule, donor type, donor heavy atom, donor atom, acceptor molecule, acceptor atom, score
      L1  H     3    24       P1  7948  0.14
      L1  H    11    36       P1  7948  0.30

> <Gold.Chemscore.Hbond.Weighted>
-1.9495

> <Gold.Chemscore.Metal.Weighted>
-0.0000

> <Gold.Chemscore.Lipo.Weighted>
-8.4690

> <Gold.Chemscore.Internal_Hbond.Weighted>
0.0000

> <Gold.Chemscore.DEClash.Weighted>
0.1103

> <Gold.Chemscore.DEInternal.Weighted>
4.8521

> <Gold.Chemscore.Rot.Weighted>
3.3377

> <Gold.Chemscore.Internal.Correction.Weighted>
   9.000000E+99

> <Gold.Protein.RotatedTorsions>
[ 6907 6896 6895 6894 ] final -166.95 input  -60.11 | X-H torsion
[ 7974 7965 7964 7962 ] final   89.81 input  175.53 | X-H torsion
[ 8008 7997 7996 7995 ] final  -68.86 input   59.86 | X-H torsion
[ 10167 10162 10161 10158 ] final -160.75 input  -65.29 | X-H torsion
[ 10718 10713 10712 10709 ] final  -81.93 input   66.30 | X-H torsion
[ 10763 10752 10751 10750 ] final  -19.06 input  -60.55 | X-H torsion
[ 11005 11000 10999 10996 ] final   -8.49 input  -57.11 | X-H torsion

> <Gold.Protein.ActiveResidues>
 VAL166  LYS551  ARG553  GLY616  TRP617  ASP618  TYR619  PRO620  LYS621  CYS622 
 ASP623  PHE694  ASN695  SER759  ASP760  ASP761  ALA762  ILE779  LEU786  VAL792 
 PHE793  MET794  SER795  GLU796  ALA797  LYS798  CYS799  TRP800  GLU811  SER814 

> <Gold.Protein.RotatedAtoms>
  151.4518  133.3615  159.2796 H   0  0  0  0  0  0  0  0  0  0  0  0  # atno 6907 bound_to 6896
  150.9086  134.8503  159.7420 H   0  0  0  0  0  0  0  0  0  0  0  0  # atno 6908 bound_to 6896
  152.4919  134.4446  159.9606 H   0  0  0  0  0  0  0  0  0  0  0  0  # atno 6909 bound_to 6896
  145.5274  139.2282  143.2638 H   0  0  0  0  0  0  0  0  0  0  0  0  # atno 7974 bound_to 7965
  154.4898  140.0864  156.7568 H   0  0  0  0  0  0  0  0  0  0  0  0  # atno 8008 bound_to 7997
  155.4260  140.3448  155.4257 H   0  0  0  0  0  0  0  0  0  0  0  0  # atno 8009 bound_to 7997
  156.1313  140.1502  156.9049 H   0  0  0  0  0  0  0  0  0  0  0  0  # atno 8010 bound_to 7997
  139.6516  144.0073  152.2165 H   0  0  0  0  0  0  0  0  0  0  0  0  # atno 10167 bound_to 10162
  156.0041  130.4618  150.4027 H   0  0  0  0  0  0  0  0  0  0  0  0  # atno 10718 bound_to 10713
  153.5989  135.7000  153.5392 H   0  0  0  0  0  0  0  0  0  0  0  0  # atno 10763 bound_to 10752
  153.3114  135.4100  155.1339 H   0  0  0  0  0  0  0  0  0  0  0  0  # atno 10764 bound_to 10752
  154.8586  135.3673  154.5523 H   0  0  0  0  0  0  0  0  0  0  0  0  # atno 10765 bound_to 10752
  140.7241  133.8804  155.8843 H   0  0  0  0  0  0  0  0  0  0  0  0  # atno 11005 bound_to 11000
  146.2066  140.6089  142.9078 LP  0  0  0  0  0  0  0  0  0  0  0  0  # atno 17320 bound_to 7965
  144.7644  140.5496  143.6713 LP  0  0  0  0  0  0  0  0  0  0  0  0  # atno 17321 bound_to 7965
  139.9789  144.6442  150.7919 LP  0  0  0  0  0  0  0  0  0  0  0  0  # atno 17342 bound_to 10162
  140.7540  143.3019  151.3058 LP  0  0  0  0  0  0  0  0  0  0  0  0  # atno 17343 bound_to 10162
  157.2095  131.0457  151.2607 LP  0  0  0  0  0  0  0  0  0  0  0  0  # atno 17370 bound_to 10713
  157.3902  130.7278  149.6692 LP  0  0  0  0  0  0  0  0  0  0  0  0  # atno 17371 bound_to 10713
  140.9978  134.1191  157.4347 LP  0  0  0  0  0  0  0  0  0  0  0  0  # atno 17394 bound_to 11000
  139.8841  135.0059  156.6347 LP  0  0  0  0  0  0  0  0  0  0  0  0  # atno 17395 bound_to 11000

$$$$
