AV-unprocessed.smi:2044|AV-procd|sdf|8303|dock2
  -GOLD-   2272010563D 1   1.00000     0.00000
 Structure written by MMmdl.
 38 39  0  0  0  0  0  0  0  0  2 V2000
  149.3313  140.3307  154.8677 C   0  0  0  0  0  0  0  0  0  0  0  0
  150.1013  139.0547  154.8636 C   0  0  0  0  0  0  0  0  0  0  0  0
  149.7531  137.7598  155.1246 C   0  0  0  0  0  0  0  0  0  0  0  0
  150.9726  137.0521  154.9411 C   0  0  0  0  0  0  0  0  0  0  0  0
  151.1436  135.7274  155.0709 N   0  5  0  0  0  0  0  0  0  0  0  0
  150.0735  134.9127  155.2191 C   0  0  0  0  0  0  0  0  0  0  0  0
  149.8429  134.1757  156.1807 O   0  0  0  0  0  0  0  0  0  0  0  0
  149.2138  134.9597  154.1913 N   0  0  0  0  0  0  0  0  0  0  0  0
  147.9620  134.2133  154.0862 C   0  0  0  0  0  0  0  0  0  0  0  0
  148.1090  132.8571  153.3354 C   0  0  1  0  0  0  0  0  0  0  0  0
  148.8066  131.8389  154.2733 C   0  0  0  0  0  0  0  0  0  0  0  0
  146.8301  132.3462  152.7880 N   0  0  0  0  0  0  0  0  0  0  0  0
  146.9282  130.9496  152.3479 C   0  0  0  0  0  0  0  0  0  0  0  0
  145.6143  130.4160  151.7518 C   0  0  0  0  0  0  0  0  0  0  0  0
  145.2113  131.2397  150.6668 O   0  0  0  0  0  0  0  0  0  0  0  0
  145.0290  132.5916  151.0641 C   0  0  0  0  0  0  0  0  0  0  0  0
  146.3379  133.1419  151.6575 C   0  0  0  0  0  0  0  0  0  0  0  0
  151.9688  137.8454  154.5846 N   0  0  0  0  0  0  0  0  0  0  0  0
  151.4196  139.1323  154.5384 O   0  0  0  0  0  0  0  0  0  0  0  0
  148.6211  140.3541  154.0413 H   0  0  0  0  0  0  0  0  0  0  0  0
  149.9946  141.1903  154.7682 H   0  0  0  0  0  0  0  0  0  0  0  0
  148.7728  140.4418  155.7972 H   0  0  0  0  0  0  0  0  0  0  0  0
  148.7831  137.3785  155.4056 H   0  0  0  0  0  0  0  0  0  0  0  0
  149.4435  135.5739  153.4240 H   0  0  0  0  0  0  0  0  0  0  0  0
  147.5878  134.0394  155.0955 H   0  0  0  0  0  0  0  0  0  0  0  0
  147.2450  134.8748  153.6021 H   0  0  0  0  0  0  0  0  0  0  0  0
  148.7845  133.0274  152.4959 H   0  0  0  0  0  0  0  0  0  0  0  0
  149.7217  132.2357  154.7113 H   0  0  0  0  0  0  0  0  0  0  0  0
  149.1153  130.9362  153.7485 H   0  0  0  0  0  0  0  0  0  0  0  0
  148.1513  131.5466  155.0942 H   0  0  0  0  0  0  0  0  0  0  0  0
  147.7261  130.8497  151.6105 H   0  0  0  0  0  0  0  0  0  0  0  0
  147.1857  130.3004  153.1827 H   0  0  0  0  0  0  0  0  0  0  0  0
  145.7490  129.3958  151.3926 H   0  0  0  0  0  0  0  0  0  0  0  0
  144.8297  130.3872  152.5097 H   0  0  0  0  0  0  0  0  0  0  0  0
  144.7302  133.1799  150.1966 H   0  0  0  0  0  0  0  0  0  0  0  0
  144.2179  132.6589  151.7910 H   0  0  0  0  0  0  0  0  0  0  0  0
  146.1357  134.1656  151.9657 H   0  0  0  0  0  0  0  0  0  0  0  0
  147.0995  133.1883  150.8774 H   0  0  0  0  0  0  0  0  0  0  0  0
  1  2  1  0  0  0  0
  1 20  1  0  0  0  0
  1 21  1  0  0  0  0
  1 22  1  0  0  0  0
  2 19  1  0  0  0  0
  2  3  2  0  0  0  0
  3  4  1  0  0  0  0
  3 23  1  0  0  0  0
  4  5  1  0  0  0  0
  4 18  2  0  0  0  0
  5  6  1  0  0  0  0
  6  7  2  0  0  0  0
  6  8  1  0  0  0  0
  8  9  1  0  0  0  0
  8 24  1  0  0  0  0
  9 10  1  0  0  0  0
  9 25  1  0  0  0  0
  9 26  1  0  0  0  0
 10 11  1  0  0  0  0
 10 12  1  0  0  0  0
 10 27  1  0  0  0  0
 11 28  1  0  0  0  0
 11 29  1  0  0  0  0
 11 30  1  0  0  0  0
 12 17  1  0  0  0  0
 12 13  1  0  0  0  0
 13 14  1  0  0  0  0
 13 31  1  0  0  0  0
 13 32  1  0  0  0  0
 14 15  1  0  0  0  0
 14 33  1  0  0  0  0
 14 34  1  0  0  0  0
 15 16  1  0  0  0  0
 16 17  1  0  0  0  0
 16 35  1  0  0  0  0
 16 36  1  0  0  0  0
 17 37  1  0  0  0  0
 17 38  1  0  0  0  0
 18 19  1  0  0  0  0
M  CHG  1   5  -1
M  END
> <s_m_source_file>
AV-unprocessed.smi

> <i_m_source_file_index>
2044

> <i_lp_mmshare_version>
43012

> <i_f3d_flags>
0

> <s_epik_input>
W0NIM11jMVtjSF1jKG5vMSlbTkhdQyg9TylbTkhdW0NIMl1bQ0BIXShbQ0gzXSlOMltDSDJdW0NIMl1PW0NIMl1bQ0gyXTI=

> <s_epik_cmdline>
J2VwaWtfcHl0aG9uJywgJy1waCcsICc3LjAnLCAnLXRuJywgJzgnLCAnLW1hJywgJzIwMCcsICctbWV0YWxfYmluZGluZycsICctaW1hZScsICc8aW5maWxlLm1hZT4nLCAnLW9tYWUnLCAnPG91dGZpbGUubWFlPic=

> <r_epik_Ionization_Penalty>
6.88367

> <r_epik_Ionization_Penalty_Charging>
6.57198

> <r_epik_Ionization_Penalty_Neutral>
0.311681

> <r_epik_State_Penalty>
6.77619

> <r_epik_Charging_Adjusted_Penalty>
13.3482

> <i_epik_Tot_Q>
-1

> <i_epik_Tot_abs_Q>
1

> <r_epik_Metal_State_Penalty>
2.70533

> <b_epik_Metal_Only>
1

> <s_lp_Force_Field>
OPLS_2005

> <r_lp_Energy>
21.654

> <b_lp_Chiralities_Consistent>
1

> <s_lp_Variant>
AV-unprocessed.smi:2044-6

> <Gold.Version>
5.8.1

> <Gold.Id.Protein>
6NUR|6NUR_protein|mol2

> <Gold.PLP.Fitness>
38.1415

> <Gold.PLP.PLP>
-28.4166

> <Gold.PLP.part.hbond>
-3.4727

> <Gold.PLP.part.metal>
0.0000

> <Gold.PLP.part.buried>
-3.1573

> <Gold.PLP.part.nonpolar>
-22.5135

> <Gold.PLP.part.repulsive>
0.6456

> <Gold.PLP.ligand.clash>
0.0000

> <Gold.PLP.ligand.torsion>
1.1166

> <Gold.PLP.Chemscore.Hbond>
3.9272

> <Gold.PLP.Chemscore.CHOScore>
0.0000

> <Gold.PLP.Chemscore.Metal>
0.0000

> <Gold.Chemscore.Hbonds>
donor molecule, donor type, donor heavy atom, donor atom, acceptor molecule, acceptor atom, score
      L1  H     8    24       P1  7948  0.86
      P1  H  7989  7998       L1    19  1.00
      P1  H 10752 10763       L1     5  2.00

> <Gold.PLP.Chemscore.Internal.Correction>
0.1764

> <Gold.Rescore>
     Score         DG    S(hbond)    S(metal)    S(lipo)     H(rot)  DE(clash)    DE(int)     intcor
     14.96     -16.50       2.49        0.00      56.98       1.55       0.06       1.48       ----

> <Gold.Chemscore.Fitness>
14.9615

> <Gold.Chemscore.DG>
-16.5031

> <Gold.Chemscore.ZeroCoef>
-5.4800

> <Gold.Chemscore.Hbond>
2.4900

> <Gold.Chemscore.Metal>
0.0000

> <Gold.Chemscore.Lipo>
56.9802

> <Gold.Chemscore.Internal_Hbond>
0.0000

> <Gold.Chemscore.DEClash>
0.0619

> <Gold.Chemscore.DEInternal>
1.4797

> <Gold.Chemscore.Rot>
1.5470

> <Gold.Chemscore.Internal.Correction>
   9.000000E+99

> <Gold.Chemscore.Hbonds>
donor molecule, donor type, donor heavy atom, donor atom, acceptor molecule, acceptor atom, score
      L1  H     8    24       P1  7948  0.16
      P1  H  7989  7998       L1    19  0.56
      P1  H 10752 10763       L1     5  0.35

> <Gold.Chemscore.Hbond.Weighted>
-8.3167

> <Gold.Chemscore.Metal.Weighted>
-0.0000

> <Gold.Chemscore.Lipo.Weighted>
-6.6667

> <Gold.Chemscore.Internal_Hbond.Weighted>
0.0000

> <Gold.Chemscore.DEClash.Weighted>
0.0619

> <Gold.Chemscore.DEInternal.Weighted>
1.4797

> <Gold.Chemscore.Rot.Weighted>
3.9603

> <Gold.Chemscore.Internal.Correction.Weighted>
   9.000000E+99

> <Gold.Protein.RotatedTorsions>
[ 6907 6896 6895 6894 ] final -118.69 input  -60.11 | X-H torsion
[ 7974 7965 7964 7962 ] final   97.99 input  175.53 | X-H torsion
[ 8008 7997 7996 7995 ] final  106.10 input   59.86 | X-H torsion
[ 10167 10162 10161 10158 ] final -165.03 input  -65.29 | X-H torsion
[ 10718 10713 10712 10709 ] final  -50.56 input   66.30 | X-H torsion
[ 10763 10752 10751 10750 ] final   64.54 input  -60.55 | X-H torsion
[ 11005 11000 10999 10996 ] final   74.87 input  -57.11 | X-H torsion

> <Gold.Protein.ActiveResidues>
 VAL166  LYS551  ARG553  GLY616  TRP617  ASP618  TYR619  PRO620  LYS621  CYS622 
 ASP623  PHE694  ASN695  SER759  ASP760  ASP761  ALA762  ILE779  LEU786  VAL792 
 PHE793  MET794  SER795  GLU796  ALA797  LYS798  CYS799  TRP800  GLU811  SER814 

> <Gold.Protein.RotatedAtoms>
  150.8241  133.8202  159.3125 H   0  0  0  0  0  0  0  0  0  0  0  0  # atno 6907 bound_to 6896
  151.5951  135.1049  160.0057 H   0  0  0  0  0  0  0  0  0  0  0  0  # atno 6908 bound_to 6896
  152.4328  133.7266  159.6620 H   0  0  0  0  0  0  0  0  0  0  0  0  # atno 6909 bound_to 6896
  145.4181  139.2325  143.3211 H   0  0  0  0  0  0  0  0  0  0  0  0  # atno 7974 bound_to 7965
  156.1715  140.3119  155.8982 H   0  0  0  0  0  0  0  0  0  0  0  0  # atno 8008 bound_to 7997
  155.3577  140.0474  157.3063 H   0  0  0  0  0  0  0  0  0  0  0  0  # atno 8009 bound_to 7997
  154.5246  140.2210  155.8924 H   0  0  0  0  0  0  0  0  0  0  0  0  # atno 8010 bound_to 7997
  139.6210  144.0625  152.1932 H   0  0  0  0  0  0  0  0  0  0  0  0  # atno 10167 bound_to 10162
  156.1790  130.4150  149.9535 H   0  0  0  0  0  0  0  0  0  0  0  0  # atno 10718 bound_to 10713
  153.0060  135.5389  154.6526 H   0  0  0  0  0  0  0  0  0  0  0  0  # atno 10763 bound_to 10752
  154.5754  135.2845  155.0787 H   0  0  0  0  0  0  0  0  0  0  0  0  # atno 10764 bound_to 10752
  154.1937  135.6496  153.5120 H   0  0  0  0  0  0  0  0  0  0  0  0  # atno 10765 bound_to 10752
  139.9370  134.7470  156.1201 H   0  0  0  0  0  0  0  0  0  0  0  0  # atno 11005 bound_to 11000
  146.2671  140.4902  142.8830 LP  0  0  0  0  0  0  0  0  0  0  0  0  # atno 17320 bound_to 7965
  144.8264  140.6635  143.6320 LP  0  0  0  0  0  0  0  0  0  0  0  0  # atno 17321 bound_to 7965
  140.0267  144.6112  150.7522 LP  0  0  0  0  0  0  0  0  0  0  0  0  # atno 17342 bound_to 10162
  140.7382  143.2775  151.3699 LP  0  0  0  0  0  0  0  0  0  0  0  0  # atno 17343 bound_to 10162
  156.7312  130.9044  151.3626 LP  0  0  0  0  0  0  0  0  0  0  0  0  # atno 17370 bound_to 10713
  157.6855  130.9181  150.0375 LP  0  0  0  0  0  0  0  0  0  0  0  0  # atno 17371 bound_to 10713
  141.0988  133.6685  156.2707 LP  0  0  0  0  0  0  0  0  0  0  0  0  # atno 17394 bound_to 11000
  140.6049  134.5517  157.5524 LP  0  0  0  0  0  0  0  0  0  0  0  0  # atno 17395 bound_to 11000

$$$$
