AV-unprocessed.smi:2448|AV-procd|sdf|9662|dock1
  -GOLD-   2272013303D 1   1.00000     0.00000
 Structure written by MMmdl.
 38 39  0  0  0  0  0  0  0  0  2 V2000
  144.3048  135.1471  149.7958 O   0  0  0  0  0  0  0  0  0  0  0  0
  144.8417  134.9981  151.0979 C   0  0  2  0  0  0  0  0  0  0  0  0
  145.1930  136.3983  151.6398 C   0  0  0  0  0  0  0  0  0  0  0  0
  146.1409  136.3368  152.7560 N   0  0  0  0  0  0  0  0  0  0  0  0
  146.2271  137.5436  153.5898 C   0  0  1  0  0  0  0  0  0  0  0  0
  146.1334  138.8436  152.7496 C   0  0  0  0  0  0  0  0  0  0  0  0
  146.7772  140.0677  153.3764 C   0  0  0  0  0  0  0  0  0  0  0  0
  146.0658  141.2851  153.4637 C   0  0  0  0  0  0  0  0  0  0  0  0
  146.6858  142.4038  154.0568 C   0  0  0  0  0  0  0  0  0  0  0  0
  147.9471  142.3019  154.5302 N   0  3  0  0  0  0  0  0  0  0  0  0
  148.6642  141.1588  154.4628 C   0  0  0  0  0  0  0  0  0  0  0  0
  148.0966  140.0075  153.8798 C   0  0  0  0  0  0  0  0  0  0  0  0
  145.1205  137.5066  154.6651 C   0  0  0  0  0  0  0  0  0  0  0  0
  145.2475  138.5543  155.4804 F   0  0  0  0  0  0  0  0  0  0  0  0
  143.9187  137.5708  154.0923 F   0  0  0  0  0  0  0  0  0  0  0  0
  145.1975  136.3878  155.3866 F   0  0  0  0  0  0  0  0  0  0  0  0
  146.0356  134.0271  151.0649 C   0  0  0  0  0  0  0  0  0  0  0  0
  145.4856  132.6122  150.8636 C   0  0  0  0  0  0  0  0  0  0  0  0
  143.8917  132.5186  151.7152 S   0  0  0  0  0  0  0  0  0  0  0  0
  143.7745  134.3102  151.9677 C   0  0  0  0  0  0  0  0  0  0  0  0
  145.0069  135.0628  149.1690 H   0  0  0  0  0  0  0  0  0  0  0  0
  145.6020  137.0121  150.8362 H   0  0  0  0  0  0  0  0  0  0  0  0
  144.2716  136.8832  151.9501 H   0  0  0  0  0  0  0  0  0  0  0  0
  147.0640  136.1168  152.3945 H   0  0  0  0  0  0  0  0  0  0  0  0
  147.1763  137.5407  154.1276 H   0  0  0  0  0  0  0  0  0  0  0  0
  146.5576  138.6750  151.7588 H   0  0  0  0  0  0  0  0  0  0  0  0
  145.0861  139.0950  152.5809 H   0  0  0  0  0  0  0  0  0  0  0  0
  145.0570  141.3608  153.0843 H   0  0  0  0  0  0  0  0  0  0  0  0
  146.2142  143.3696  154.1658 H   0  0  0  0  0  0  0  0  0  0  0  0
  149.6620  141.1992  154.8750 H   0  0  0  0  0  0  0  0  0  0  0  0
  148.6653  139.0900  153.8290 H   0  0  0  0  0  0  0  0  0  0  0  0
  146.7626  134.2847  150.2936 H   0  0  0  0  0  0  0  0  0  0  0  0
  146.5591  134.0695  152.0211 H   0  0  0  0  0  0  0  0  0  0  0  0
  145.3153  132.4241  149.8031 H   0  0  0  0  0  0  0  0  0  0  0  0
  146.1717  131.8485  151.2299 H   0  0  0  0  0  0  0  0  0  0  0  0
  143.9746  134.4937  153.0241 H   0  0  0  0  0  0  0  0  0  0  0  0
  142.7657  134.6712  151.7641 H   0  0  0  0  0  0  0  0  0  0  0  0
  148.3774  143.1238  154.9556 H   0  0  0  0  0  0  0  0  0  0  0  0
  1  2  1  0  0  0  0
  1 21  1  0  0  0  0
  2 20  1  0  0  0  0
  2  3  1  0  0  0  0
  2 17  1  0  0  0  0
  3  4  1  0  0  0  0
  3 22  1  0  0  0  0
  3 23  1  0  0  0  0
  4  5  1  0  0  0  0
  4 24  1  0  0  0  0
  5  6  1  0  0  0  0
  5 13  1  0  0  0  0
  5 25  1  0  0  0  0
  6  7  1  0  0  0  0
  6 26  1  0  0  0  0
  6 27  1  0  0  0  0
  7 12  1  0  0  0  0
  7  8  2  0  0  0  0
  8  9  1  0  0  0  0
  8 28  1  0  0  0  0
  9 10  2  0  0  0  0
  9 29  1  0  0  0  0
 10 11  1  0  0  0  0
 10 38  1  0  0  0  0
 11 12  2  0  0  0  0
 11 30  1  0  0  0  0
 12 31  1  0  0  0  0
 13 14  1  0  0  0  0
 13 15  1  0  0  0  0
 13 16  1  0  0  0  0
 17 18  1  0  0  0  0
 17 32  1  0  0  0  0
 17 33  1  0  0  0  0
 18 19  1  0  0  0  0
 18 34  1  0  0  0  0
 18 35  1  0  0  0  0
 19 20  1  0  0  0  0
 20 36  1  0  0  0  0
 20 37  1  0  0  0  0
M  CHG  1  10   1
M  END
> <s_m_source_file>
AV-unprocessed.smi

> <i_m_source_file_index>
2448

> <i_lp_mmshare_version>
43012

> <i_f3d_flags>
0

> <s_epik_input>
W0NIMl0xU1tDSDJdW0NIMl1bQ0BAXTEoW09IXSlbQ0gyXVtOSF1bQ0BASF0oQyhGKShGKUYpW0NIMl1jMltjSF1bY0hdbltjSF1bY0hdMg==

> <s_epik_cmdline>
J2VwaWtfcHl0aG9uJywgJy1waCcsICc3LjAnLCAnLXRuJywgJzgnLCAnLW1hJywgJzIwMCcsICctbWV0YWxfYmluZGluZycsICctaW1hZScsICc8aW5maWxlLm1hZT4nLCAnLW9tYWUnLCAnPG91dGZpbGUubWFlPic=

> <r_epik_Ionization_Penalty>
1.11129

> <r_epik_Ionization_Penalty_Charging>
1.08366

> <r_epik_Ionization_Penalty_Neutral>
0.0276276

> <r_epik_State_Penalty>
1.93785

> <r_epik_Charging_Adjusted_Penalty>
3.02151

> <i_epik_Tot_Q>
1

> <i_epik_Tot_abs_Q>
1

> <r_epik_Metal_State_Penalty>
5.97911

> <b_epik_Metal_Only>
0

> <s_lp_Force_Field>
OPLS_2005

> <r_lp_Energy>
38.9461

> <b_lp_Chiralities_Consistent>
1

> <s_lp_Variant>
AV-unprocessed.smi:2448-12

> <Gold.Version>
5.8.1

> <Gold.Id.Protein>
6NUR|6NUR_protein|mol2

> <Gold.PLP.Fitness>
44.0930

> <Gold.PLP.PLP>
-33.4333

> <Gold.PLP.part.hbond>
-2.8377

> <Gold.PLP.part.metal>
0.0000

> <Gold.PLP.part.buried>
-1.6928

> <Gold.PLP.part.nonpolar>
-29.1049

> <Gold.PLP.part.repulsive>
0.2131

> <Gold.PLP.ligand.clash>
0.0000

> <Gold.PLP.ligand.torsion>
0.9753

> <Gold.PLP.Chemscore.Hbond>
4.0000

> <Gold.PLP.Chemscore.CHOScore>
0.0000

> <Gold.PLP.Chemscore.Metal>
0.0000

> <Gold.Chemscore.Hbonds>
donor molecule, donor type, donor heavy atom, donor atom, acceptor molecule, acceptor atom, score
      L1  H     1    21       P1  7921  1.00
      L1  H     4    24       P1  7948  1.00
      L1  H    10    38       P1  8028  2.00

> <Gold.PLP.Chemscore.Internal.Correction>
0.6102

> <Gold.Rescore>
     Score         DG    S(hbond)    S(metal)    S(lipo)     H(rot)  DE(clash)    DE(int)     intcor
     15.73     -18.15       2.96        0.00      76.92       2.42       0.11       2.31       ----

> <Gold.Chemscore.Fitness>
15.7293

> <Gold.Chemscore.DG>
-18.1528

> <Gold.Chemscore.ZeroCoef>
-5.4800

> <Gold.Chemscore.Hbond>
2.9583

> <Gold.Chemscore.Metal>
0.0000

> <Gold.Chemscore.Lipo>
76.9174

> <Gold.Chemscore.Internal_Hbond>
0.0000

> <Gold.Chemscore.DEClash>
0.1143

> <Gold.Chemscore.DEInternal>
2.3092

> <Gold.Chemscore.Rot>
2.4247

> <Gold.Chemscore.Internal.Correction>
   9.000000E+99

> <Gold.Chemscore.Hbonds>
donor molecule, donor type, donor heavy atom, donor atom, acceptor molecule, acceptor atom, score
      L1  H     1    21       P1  7921  1.00
      L1  H     4    24       P1  7948  0.99
      L1  H    10    38       P1  8028  1.00

> <Gold.Chemscore.Hbond.Weighted>
-9.8807

> <Gold.Chemscore.Metal.Weighted>
-0.0000

> <Gold.Chemscore.Lipo.Weighted>
-8.9993

> <Gold.Chemscore.Internal_Hbond.Weighted>
0.0000

> <Gold.Chemscore.DEClash.Weighted>
0.1143

> <Gold.Chemscore.DEInternal.Weighted>
2.3092

> <Gold.Chemscore.Rot.Weighted>
6.2072

> <Gold.Chemscore.Internal.Correction.Weighted>
   9.000000E+99

> <Gold.Protein.RotatedTorsions>
[ 6907 6896 6895 6894 ] final  160.24 input  -60.11 | X-H torsion
[ 7974 7965 7964 7962 ] final -141.90 input  175.53 | X-H torsion
[ 8008 7997 7996 7995 ] final   82.32 input   59.86 | X-H torsion
[ 10167 10162 10161 10158 ] final   84.99 input  -65.29 | X-H torsion
[ 10718 10713 10712 10709 ] final -119.75 input   66.30 | X-H torsion
[ 10763 10752 10751 10750 ] final  -58.03 input  -60.55 | X-H torsion
[ 11005 11000 10999 10996 ] final  -42.31 input  -57.11 | X-H torsion

> <Gold.Protein.ActiveResidues>
 VAL166  LYS551  ARG553  GLY616  TRP617  ASP618  TYR619  PRO620  LYS621  CYS622 
 ASP623  PHE694  ASN695  SER759  ASP760  ASP761  ALA762  ILE779  LEU786  VAL792 
 PHE793  MET794  SER795  GLU796  ALA797  LYS798  CYS799  TRP800  GLU811  SER814 

> <Gold.Protein.RotatedAtoms>
  151.9735  133.3734  159.4080 H   0  0  0  0  0  0  0  0  0  0  0  0  # atno 6907 bound_to 6896
  150.6945  134.4114  159.5173 H   0  0  0  0  0  0  0  0  0  0  0  0  # atno 6908 bound_to 6896
  152.1822  134.8744  160.0576 H   0  0  0  0  0  0  0  0  0  0  0  0  # atno 6909 bound_to 6896
  144.8484  140.6023  143.5406 H   0  0  0  0  0  0  0  0  0  0  0  0  # atno 7974 bound_to 7965
  155.9091  140.3428  155.6085 H   0  0  0  0  0  0  0  0  0  0  0  0  # atno 8008 bound_to 7997
  155.7409  140.0807  157.2265 H   0  0  0  0  0  0  0  0  0  0  0  0  # atno 8009 bound_to 7997
  154.4053  140.1571  156.2602 H   0  0  0  0  0  0  0  0  0  0  0  0  # atno 8010 bound_to 7997
  139.9024  144.6321  150.8623 H   0  0  0  0  0  0  0  0  0  0  0  0  # atno 10167 bound_to 10162
  156.1205  130.6319  150.9455 H   0  0  0  0  0  0  0  0  0  0  0  0  # atno 10718 bound_to 10713
  154.2318  135.6359  153.5177 H   0  0  0  0  0  0  0  0  0  0  0  0  # atno 10763 bound_to 10752
  152.9947  135.5521  154.6005 H   0  0  0  0  0  0  0  0  0  0  0  0  # atno 10764 bound_to 10752
  154.5489  135.2900  155.1001 H   0  0  0  0  0  0  0  0  0  0  0  0  # atno 10765 bound_to 10752
  141.0307  133.6821  156.2577 H   0  0  0  0  0  0  0  0  0  0  0  0  # atno 11005 bound_to 11000
  145.4550  139.1519  143.3897 LP  0  0  0  0  0  0  0  0  0  0  0  0  # atno 17320 bound_to 7965
  146.2764  140.4678  142.8794 LP  0  0  0  0  0  0  0  0  0  0  0  0  # atno 17321 bound_to 7965
  140.7704  143.3427  151.2175 LP  0  0  0  0  0  0  0  0  0  0  0  0  # atno 17342 bound_to 10162
  139.7014  143.9527  152.2907 LP  0  0  0  0  0  0  0  0  0  0  0  0  # atno 17343 bound_to 10162
  157.6388  131.0913  150.8294 LP  0  0  0  0  0  0  0  0  0  0  0  0  # atno 17370 bound_to 10713
  156.8391  130.5042  149.5323 LP  0  0  0  0  0  0  0  0  0  0  0  0  # atno 17371 bound_to 10713
  140.6412  134.5164  157.5569 LP  0  0  0  0  0  0  0  0  0  0  0  0  # atno 17394 bound_to 11000
  139.9206  134.8157  156.1225 LP  0  0  0  0  0  0  0  0  0  0  0  0  # atno 17395 bound_to 11000

$$$$
