AV-unprocessed.smi:1285|AV-procd|sdf|5374|dock8
  -GOLD-   22720 4523D 1   1.00000     0.00000
 Structure written by MMmdl.
 47 48  0  0  0  0  0  0  0  0  2 V2000
  147.0782  140.0495  153.3190 C   0  0  0  0  0  0  0  0  0  0  0  0
  148.1634  139.0083  153.6454 C   0  0  0  0  0  0  0  0  0  0  0  0
  147.6776  137.7457  154.4233 C   0  0  2  0  0  0  0  0  0  0  0  0
  146.7146  138.2370  155.5370 C   0  0  0  0  0  0  0  0  0  0  0  0
  148.8953  137.0323  155.0911 C   0  0  0  0  0  0  0  0  0  0  0  0
  149.9850  137.9490  155.4206 N   0  0  0  0  0  0  0  0  0  0  0  0
  151.2945  137.6509  155.4086 C   0  0  0  0  0  0  0  0  0  0  0  0
  151.7246  136.5166  155.1967 O   0  0  0  0  0  0  0  0  0  0  0  0
  152.2543  138.8295  155.6391 C   0  0  1  0  0  0  0  0  0  0  0  0
  153.2575  139.0286  154.4851 C   0  0  0  0  0  0  0  0  0  0  0  0
  151.4935  140.0430  155.9144 N   0  0  0  0  0  0  0  0  0  0  0  0
  151.3782  140.7465  157.0429 C   0  0  0  0  0  0  0  0  0  0  0  0
  150.5481  141.7759  156.9535 N   0  0  0  0  0  0  0  0  0  0  0  0
  150.1546  141.6396  155.6525 C   0  0  0  0  0  0  0  0  0  0  0  0
  150.6816  140.6116  154.9880 N   0  0  0  0  0  0  0  0  0  0  0  0
  146.9598  136.8079  153.4842 N   0  3  0  0  0  0  0  0  0  0  0  0
  146.5473  135.4971  154.0625 C   0  0  0  0  0  0  0  0  0  0  0  0
  146.0296  134.5617  152.9586 C   0  0  0  0  0  0  0  0  0  0  0  0
  144.9324  135.1751  152.2969 O   0  0  0  0  0  0  0  0  0  0  0  0
  145.3118  136.3896  151.6649 C   0  0  0  0  0  0  0  0  0  0  0  0
  145.8233  137.3906  152.7157 C   0  0  0  0  0  0  0  0  0  0  0  0
  147.5125  140.8911  152.7791 H   0  0  0  0  0  0  0  0  0  0  0  0
  146.6164  140.4504  154.2207 H   0  0  0  0  0  0  0  0  0  0  0  0
  146.2895  139.6355  152.6912 H   0  0  0  0  0  0  0  0  0  0  0  0
  148.6655  138.7181  152.7228 H   0  0  0  0  0  0  0  0  0  0  0  0
  148.9341  139.5203  154.2220 H   0  0  0  0  0  0  0  0  0  0  0  0
  147.1327  139.0791  156.0903 H   0  0  0  0  0  0  0  0  0  0  0  0
  146.5102  137.4605  156.2745 H   0  0  0  0  0  0  0  0  0  0  0  0
  145.7577  138.5652  155.1308 H   0  0  0  0  0  0  0  0  0  0  0  0
  148.5956  136.5620  156.0271 H   0  0  0  0  0  0  0  0  0  0  0  0
  149.2736  136.2263  154.4621 H   0  0  0  0  0  0  0  0  0  0  0  0
  149.7255  138.9055  155.6137 H   0  0  0  0  0  0  0  0  0  0  0  0
  152.8323  138.6013  156.5362 H   0  0  0  0  0  0  0  0  0  0  0  0
  153.8630  138.1349  154.3306 H   0  0  0  0  0  0  0  0  0  0  0  0
  153.9405  139.8501  154.7034 H   0  0  0  0  0  0  0  0  0  0  0  0
  152.7579  139.2571  153.5427 H   0  0  0  0  0  0  0  0  0  0  0  0
  151.9041  140.4940  157.9519 H   0  0  0  0  0  0  0  0  0  0  0  0
  149.4522  142.3130  155.1837 H   0  0  0  0  0  0  0  0  0  0  0  0
  147.3747  135.0002  154.5647 H   0  0  0  0  0  0  0  0  0  0  0  0
  145.7604  135.6392  154.8033 H   0  0  0  0  0  0  0  0  0  0  0  0
  146.8195  134.3238  152.2442 H   0  0  0  0  0  0  0  0  0  0  0  0
  145.6968  133.6182  153.3916 H   0  0  0  0  0  0  0  0  0  0  0  0
  146.0732  136.1966  150.9075 H   0  0  0  0  0  0  0  0  0  0  0  0
  144.4455  136.8007  151.1464 H   0  0  0  0  0  0  0  0  0  0  0  0
  145.0094  137.6581  153.3900 H   0  0  0  0  0  0  0  0  0  0  0  0
  146.1162  138.2969  152.1890 H   0  0  0  0  0  0  0  0  0  0  0  0
  147.6531  136.5795  152.7859 H   0  0  0  0  0  0  0  0  0  0  0  0
  1  2  1  0  0  0  0
  1 22  1  0  0  0  0
  1 23  1  0  0  0  0
  1 24  1  0  0  0  0
  2  3  1  0  0  0  0
  2 25  1  0  0  0  0
  2 26  1  0  0  0  0
  3  4  1  0  0  0  0
  3  5  1  0  0  0  0
  3 16  1  0  0  0  0
  4 27  1  0  0  0  0
  4 28  1  0  0  0  0
  4 29  1  0  0  0  0
  5  6  1  0  0  0  0
  5 30  1  0  0  0  0
  5 31  1  0  0  0  0
  6  7  1  0  0  0  0
  6 32  1  0  0  0  0
  7  8  2  0  0  0  0
  7  9  1  0  0  0  0
  9 10  1  0  0  0  0
  9 11  1  0  0  0  0
  9 33  1  0  0  0  0
 10 34  1  0  0  0  0
 10 35  1  0  0  0  0
 10 36  1  0  0  0  0
 11 15  1  0  0  0  0
 11 12  1  0  0  0  0
 12 13  2  0  0  0  0
 12 37  1  0  0  0  0
 13 14  1  0  0  0  0
 14 15  2  0  0  0  0
 14 38  1  0  0  0  0
 16 21  1  0  0  0  0
 16 17  1  0  0  0  0
 16 47  1  0  0  0  0
 17 18  1  0  0  0  0
 17 39  1  0  0  0  0
 17 40  1  0  0  0  0
 18 19  1  0  0  0  0
 18 41  1  0  0  0  0
 18 42  1  0  0  0  0
 19 20  1  0  0  0  0
 20 21  1  0  0  0  0
 20 43  1  0  0  0  0
 20 44  1  0  0  0  0
 21 45  1  0  0  0  0
 21 46  1  0  0  0  0
M  CHG  1  16   1
M  END
> <s_m_source_file>
AV-unprocessed.smi

> <i_m_source_file_index>
1285

> <i_lp_mmshare_version>
43012

> <i_f3d_flags>
0

> <s_epik_input>
W0NIMl0xW0NIMl1PW0NIMl1bQ0gyXU4xW0NAQF0oW0NIM10pKFtDSDJdW0NIM10pW0NIMl1bTkhdQyg9TylbQ0BIXShbQ0gzXSluMltjSF1uW2NIXW4y

> <s_epik_cmdline>
J2VwaWtfcHl0aG9uJywgJy1waCcsICc3LjAnLCAnLXRuJywgJzgnLCAnLW1hJywgJzIwMCcsICctbWV0YWxfYmluZGluZycsICctaW1hZScsICc8aW5maWxlLm1hZT4nLCAnLW9tYWUnLCAnPG91dGZpbGUubWFlPic=

> <r_lp_tautomer_probability>
1

> <r_epik_Ionization_Penalty>
0.569304

> <r_epik_Ionization_Penalty_Charging>
0.569295

> <r_epik_Ionization_Penalty_Neutral>
8.22697e-06

> <r_epik_State_Penalty>
0.581114

> <r_epik_Charging_Adjusted_Penalty>
1.15041

> <i_epik_Tot_Q>
1

> <i_epik_Tot_abs_Q>
1

> <r_epik_Metal_State_Penalty>
0.581117

> <b_epik_Metal_Only>
0

> <s_lp_Force_Field>
OPLS_2005

> <r_lp_Energy>
34.4039

> <b_lp_Chiralities_Consistent>
1

> <s_lp_Variant>
AV-unprocessed.smi:1285-8

> <Gold.Version>
5.8.1

> <Gold.Id.Protein>
6NUR|6NUR_protein|mol2

> <Gold.PLP.Fitness>
40.4827

> <Gold.PLP.PLP>
-27.4847

> <Gold.PLP.part.hbond>
-3.0000

> <Gold.PLP.part.metal>
0.0000

> <Gold.PLP.part.buried>
-1.1924

> <Gold.PLP.part.nonpolar>
-23.6013

> <Gold.PLP.part.repulsive>
0.3382

> <Gold.PLP.ligand.clash>
0.0000

> <Gold.PLP.ligand.torsion>
1.0882

> <Gold.PLP.Chemscore.Hbond>
3.9760

> <Gold.PLP.Chemscore.CHOScore>
0.9837

> <Gold.PLP.Chemscore.Metal>
0.0000

> <Gold.Chemscore.Hbonds>
donor molecule, donor type, donor heavy atom, donor atom, acceptor molecule, acceptor atom, score
      L1  H    16    47       P1  7948  2.00
      P1  H  7989  7998       L1    15  0.96
      P1  H 10752 10764       L1     8  1.00
      L1  C    14    38       P1  8028  1.00

> <Gold.PLP.Chemscore.Internal.Correction>
0.2954

> <Gold.Rescore>
     Score         DG    S(hbond)    S(metal)    S(lipo)     H(rot)  DE(clash)    DE(int)     intcor
     11.65     -13.56       2.88        0.00      47.15       2.76       0.01       1.90       ----

> <Gold.Chemscore.Fitness>
11.6538

> <Gold.Chemscore.DG>
-13.5614

> <Gold.Chemscore.ZeroCoef>
-5.4800

> <Gold.Chemscore.Hbond>
2.8824

> <Gold.Chemscore.Metal>
0.0000

> <Gold.Chemscore.Lipo>
47.1515

> <Gold.Chemscore.Internal_Hbond>
0.0000

> <Gold.Chemscore.DEClash>
0.0071

> <Gold.Chemscore.DEInternal>
1.9004

> <Gold.Chemscore.Rot>
2.7589

> <Gold.Chemscore.Internal.Correction>
   9.000000E+99

> <Gold.Chemscore.Hbonds>
donor molecule, donor type, donor heavy atom, donor atom, acceptor molecule, acceptor atom, score
      L1  H    16    47       P1  7948  0.99
      P1  H  7989  7998       L1    15  0.59
      P1  H 10752 10764       L1     8  0.99

> <Gold.Chemscore.Hbond.Weighted>
-9.6273

> <Gold.Chemscore.Metal.Weighted>
-0.0000

> <Gold.Chemscore.Lipo.Weighted>
-5.5167

> <Gold.Chemscore.Internal_Hbond.Weighted>
0.0000

> <Gold.Chemscore.DEClash.Weighted>
0.0071

> <Gold.Chemscore.DEInternal.Weighted>
1.9004

> <Gold.Chemscore.Rot.Weighted>
7.0627

> <Gold.Chemscore.Internal.Correction.Weighted>
   9.000000E+99

> <Gold.Protein.RotatedTorsions>
[ 6907 6896 6895 6894 ] final  161.84 input  -60.11 | X-H torsion
[ 7974 7965 7964 7962 ] final  168.44 input  175.53 | X-H torsion
[ 8008 7997 7996 7995 ] final   45.25 input   59.86 | X-H torsion
[ 10167 10162 10161 10158 ] final  -50.29 input  -65.29 | X-H torsion
[ 10718 10713 10712 10709 ] final   80.05 input   66.30 | X-H torsion
[ 10763 10752 10751 10750 ] final  -55.56 input  -60.55 | X-H torsion
[ 11005 11000 10999 10996 ] final -156.47 input  -57.11 | X-H torsion

> <Gold.Protein.ActiveResidues>
 VAL166  LYS551  ARG553  GLY616  TRP617  ASP618  TYR619  PRO620  LYS621  CYS622 
 ASP623  PHE694  ASN695  SER759  ASP760  ASP761  ALA762  ILE779  LEU786  VAL792 
 PHE793  MET794  SER795  GLU796  ALA797  LYS798  CYS799  TRP800  GLU811  SER814 

> <Gold.Protein.RotatedAtoms>
  151.9495  133.3662  159.3994 H   0  0  0  0  0  0  0  0  0  0  0  0  # atno 6907 bound_to 6896
  150.6983  134.4355  159.5277 H   0  0  0  0  0  0  0  0  0  0  0  0  # atno 6908 bound_to 6896
  152.2025  134.8575  160.0557 H   0  0  0  0  0  0  0  0  0  0  0  0  # atno 6909 bound_to 6896
  144.7388  139.8908  143.6403 H   0  0  0  0  0  0  0  0  0  0  0  0  # atno 7974 bound_to 7965
  155.3328  140.3403  155.4239 H   0  0  0  0  0  0  0  0  0  0  0  0  # atno 8008 bound_to 7997
  156.1853  140.1678  156.8234 H   0  0  0  0  0  0  0  0  0  0  0  0  # atno 8009 bound_to 7997
  154.5379  140.0731  156.8442 H   0  0  0  0  0  0  0  0  0  0  0  0  # atno 8010 bound_to 7997
  140.6644  143.2663  151.4338 H   0  0  0  0  0  0  0  0  0  0  0  0  # atno 10167 bound_to 10162
  157.6795  130.9942  150.2022 H   0  0  0  0  0  0  0  0  0  0  0  0  # atno 10718 bound_to 10713
  154.1928  135.6424  153.5064 H   0  0  0  0  0  0  0  0  0  0  0  0  # atno 10763 bound_to 10752
  153.0031  135.5432  154.6397 H   0  0  0  0  0  0  0  0  0  0  0  0  # atno 10764 bound_to 10752
  154.5791  135.2923  155.0724 H   0  0  0  0  0  0  0  0  0  0  0  0  # atno 10765 bound_to 10752
  140.6752  134.4204  157.5229 H   0  0  0  0  0  0  0  0  0  0  0  0  # atno 11005 bound_to 11000
  146.1143  139.4152  143.0268 LP  0  0  0  0  0  0  0  0  0  0  0  0  # atno 17320 bound_to 7965
  145.7398  141.0012  143.1307 LP  0  0  0  0  0  0  0  0  0  0  0  0  # atno 17321 bound_to 7965
  139.5888  144.1544  152.2063 LP  0  0  0  0  0  0  0  0  0  0  0  0  # atno 17342 bound_to 10162
  140.0892  144.5635  150.7067 LP  0  0  0  0  0  0  0  0  0  0  0  0  # atno 17343 bound_to 10162
  156.2710  130.3722  149.8031 LP  0  0  0  0  0  0  0  0  0  0  0  0  # atno 17370 bound_to 10713
  156.5748  130.8440  151.3366 LP  0  0  0  0  0  0  0  0  0  0  0  0  # atno 17371 bound_to 10713
  139.8969  134.8649  156.2068 LP  0  0  0  0  0  0  0  0  0  0  0  0  # atno 17394 bound_to 11000
  141.0361  133.6962  156.1515 LP  0  0  0  0  0  0  0  0  0  0  0  0  # atno 17395 bound_to 11000

$$$$
