AV-unprocessed.smi:1301|AV-procd|sdf|5421|dock8
  -GOLD-   22720 4583D 1   1.00000     0.00000
 Structure written by MMmdl.
 45 46  0  0  0  0  0  0  0  0  2 V2000
  147.7662  136.9914  163.6274 C   0  0  0  0  0  0  0  0  0  0  0  0
  147.6796  136.3219  162.2990 C   0  0  0  0  0  0  0  0  0  0  0  0
  147.3731  135.0456  161.9185 C   0  0  0  0  0  0  0  0  0  0  0  0
  147.4825  135.0991  160.5035 C   0  0  0  0  0  0  0  0  0  0  0  0
  147.2376  133.9496  159.7096 N   0  0  0  0  0  0  0  0  0  0  0  0
  148.0208  133.4419  158.7424 C   0  0  0  0  0  0  0  0  0  0  0  0
  149.1052  133.9086  158.3923 O   0  0  0  0  0  0  0  0  0  0  0  0
  147.4719  132.3467  158.1957 N   0  0  0  0  0  0  0  0  0  0  0  0
  148.0585  131.5467  157.1231 C   0  0  2  0  0  0  0  0  0  0  0  0
  148.2671  132.4119  155.8706 C   0  0  0  0  0  0  0  0  0  0  0  0
  148.7948  131.5694  154.6973 C   0  0  0  0  0  0  0  0  0  0  0  0
  147.8895  130.4288  154.4013 N   0  3  1  0  0  0  0  0  0  0  0  0
  148.3093  129.6781  153.1897 C   0  0  0  0  0  0  0  0  0  0  0  0
  147.2132  128.7300  152.6577 C   0  0  0  0  0  0  0  0  0  0  0  0
  147.7504  127.8843  151.4936 C   0  0  0  0  0  0  0  0  0  0  0  0
  145.9524  129.4979  152.2260 C   0  0  0  0  0  0  0  0  0  0  0  0
  147.6972  129.5595  155.5932 C   0  0  0  0  0  0  0  0  0  0  0  0
  147.1423  130.3609  156.7829 C   0  0  0  0  0  0  0  0  0  0  0  0
  147.8229  136.2998  160.0605 N   0  0  0  0  0  0  0  0  0  0  0  0
  147.9509  137.0897  161.2090 O   0  0  0  0  0  0  0  0  0  0  0  0
  147.6249  136.2731  164.4352 H   0  0  0  0  0  0  0  0  0  0  0  0
  147.0011  137.7623  163.7219 H   0  0  0  0  0  0  0  0  0  0  0  0
  148.7402  137.4622  163.7603 H   0  0  0  0  0  0  0  0  0  0  0  0
  147.1143  134.2113  162.5534 H   0  0  0  0  0  0  0  0  0  0  0  0
  146.3742  133.4630  159.8997 H   0  0  0  0  0  0  0  0  0  0  0  0
  146.5767  132.0425  158.5501 H   0  0  0  0  0  0  0  0  0  0  0  0
  149.0293  131.1513  157.4280 H   0  0  0  0  0  0  0  0  0  0  0  0
  147.3268  132.8847  155.5826 H   0  0  0  0  0  0  0  0  0  0  0  0
  148.9663  133.2207  156.0868 H   0  0  0  0  0  0  0  0  0  0  0  0
  148.8848  132.2064  153.8164 H   0  0  0  0  0  0  0  0  0  0  0  0
  149.7945  131.1938  154.9216 H   0  0  0  0  0  0  0  0  0  0  0  0
  148.5652  130.3794  152.3938 H   0  0  0  0  0  0  0  0  0  0  0  0
  149.2246  129.1263  153.4096 H   0  0  0  0  0  0  0  0  0  0  0  0
  146.9269  128.0333  153.4451 H   0  0  0  0  0  0  0  0  0  0  0  0
  148.0545  128.5105  150.6541 H   0  0  0  0  0  0  0  0  0  0  0  0
  146.9942  127.1874  151.1312 H   0  0  0  0  0  0  0  0  0  0  0  0
  148.6158  127.2963  151.8005 H   0  0  0  0  0  0  0  0  0  0  0  0
  146.1763  130.2194  151.4394 H   0  0  0  0  0  0  0  0  0  0  0  0
  145.5097  130.0419  153.0608 H   0  0  0  0  0  0  0  0  0  0  0  0
  145.1912  128.8172  151.8436 H   0  0  0  0  0  0  0  0  0  0  0  0
  147.0091  128.7466  155.3648 H   0  0  0  0  0  0  0  0  0  0  0  0
  148.6478  129.0984  155.8664 H   0  0  0  0  0  0  0  0  0  0  0  0
  147.0379  129.7077  157.6503 H   0  0  0  0  0  0  0  0  0  0  0  0
  146.1399  130.7196  156.5431 H   0  0  0  0  0  0  0  0  0  0  0  0
  146.9911  130.8360  154.1836 H   0  0  0  0  0  0  0  0  0  0  0  0
  1  2  1  0  0  0  0
  1 21  1  0  0  0  0
  1 22  1  0  0  0  0
  1 23  1  0  0  0  0
  2 20  1  0  0  0  0
  2  3  2  0  0  0  0
  3  4  1  0  0  0  0
  3 24  1  0  0  0  0
  4  5  1  0  0  0  0
  4 19  2  0  0  0  0
  5  6  1  0  0  0  0
  5 25  1  0  0  0  0
  6  7  2  0  0  0  0
  6  8  1  0  0  0  0
  8  9  1  0  0  0  0
  8 26  1  0  0  0  0
  9 18  1  0  0  0  0
  9 10  1  0  0  0  0
  9 27  1  0  0  0  0
 10 11  1  0  0  0  0
 10 28  1  0  0  0  0
 10 29  1  0  0  0  0
 11 12  1  0  0  0  0
 11 30  1  0  0  0  0
 11 31  1  0  0  0  0
 12 13  1  0  0  0  0
 12 17  1  0  0  0  0
 12 45  1  0  0  0  0
 13 14  1  0  0  0  0
 13 32  1  0  0  0  0
 13 33  1  0  0  0  0
 14 15  1  0  0  0  0
 14 16  1  0  0  0  0
 14 34  1  0  0  0  0
 15 35  1  0  0  0  0
 15 36  1  0  0  0  0
 15 37  1  0  0  0  0
 16 38  1  0  0  0  0
 16 39  1  0  0  0  0
 16 40  1  0  0  0  0
 17 18  1  0  0  0  0
 17 41  1  0  0  0  0
 17 42  1  0  0  0  0
 18 43  1  0  0  0  0
 18 44  1  0  0  0  0
 19 20  1  0  0  0  0
M  CHG  1  12   1
M  END
> <s_m_source_file>
AV-unprocessed.smi

> <i_m_source_file_index>
1301

> <i_lp_mmshare_version>
43012

> <i_f3d_flags>
0

> <s_epik_input>
W0NIM11jMVtjSF1jKG5vMSlbTkhdQyg9TylbTkhdW0NIXTJbQ0gyXVtDSDJdTihbQ0gyXVtDSDJdMilbQ0gyXVtDSF0oW0NIM10pW0NIM10=

> <s_epik_cmdline>
J2VwaWtfcHl0aG9uJywgJy1waCcsICc3LjAnLCAnLXRuJywgJzgnLCAnLW1hJywgJzIwMCcsICctbWV0YWxfYmluZGluZycsICctaW1hZScsICc8aW5maWxlLm1hZT4nLCAnLW9tYWUnLCAnPG91dGZpbGUubWFlPic=

> <r_epik_Ionization_Penalty>
0.0020743

> <r_epik_Ionization_Penalty_Charging>
0.0020412

> <r_epik_Ionization_Penalty_Neutral>
3.31029e-05

> <r_epik_State_Penalty>
0.00139626

> <r_epik_Charging_Adjusted_Penalty>
0.00343746

> <i_epik_Tot_Q>
1

> <i_epik_Tot_abs_Q>
1

> <r_epik_Metal_State_Penalty>
0.0141509

> <b_epik_Metal_Only>
0

> <s_lp_Force_Field>
OPLS_2005

> <r_lp_Energy>
17.3221

> <b_lp_Chiralities_Consistent>
1

> <s_lp_Variant>
AV-unprocessed.smi:1301-1

> <Gold.Version>
5.8.1

> <Gold.Id.Protein>
6NUR|6NUR_protein|mol2

> <Gold.PLP.Fitness>
36.3467

> <Gold.PLP.PLP>
-29.0303

> <Gold.PLP.part.hbond>
-3.0000

> <Gold.PLP.part.metal>
0.0000

> <Gold.PLP.part.buried>
-2.5924

> <Gold.PLP.part.nonpolar>
-22.9418

> <Gold.PLP.part.repulsive>
0.0476

> <Gold.PLP.ligand.clash>
0.0000

> <Gold.PLP.ligand.torsion>
0.5179

> <Gold.PLP.Chemscore.Hbond>
2.7771

> <Gold.PLP.Chemscore.CHOScore>
0.0000

> <Gold.PLP.Chemscore.Metal>
0.0000

> <Gold.Chemscore.Hbonds>
donor molecule, donor type, donor heavy atom, donor atom, acceptor molecule, acceptor atom, score
      P1  H  6896  6907       L1     7  1.00
      P1  H  6931  6943       L1    20  1.00
      P1  H  6934  6947       L1    20  0.64

> <Gold.PLP.Chemscore.Internal.Correction>
0.0208

> <Gold.Rescore>
     Score         DG    S(hbond)    S(metal)    S(lipo)     H(rot)  DE(clash)    DE(int)     intcor
     16.41     -17.19       2.14        0.00      70.38       1.43       0.20       0.58       ----

> <Gold.Chemscore.Fitness>
16.4130

> <Gold.Chemscore.DG>
-17.1937

> <Gold.Chemscore.ZeroCoef>
-5.4800

> <Gold.Chemscore.Hbond>
2.1377

> <Gold.Chemscore.Metal>
0.0000

> <Gold.Chemscore.Lipo>
70.3782

> <Gold.Chemscore.Internal_Hbond>
0.0000

> <Gold.Chemscore.DEClash>
0.2047

> <Gold.Chemscore.DEInternal>
0.5760

> <Gold.Chemscore.Rot>
1.4298

> <Gold.Chemscore.Internal.Correction>
   9.000000E+99

> <Gold.Chemscore.Hbonds>
donor molecule, donor type, donor heavy atom, donor atom, acceptor molecule, acceptor atom, score
      P1  H  6896  6907       L1     7  0.96
      P1  H  6931  6943       L1    20  0.29
      P1  H  6934  6947       L1    20  0.52

> <Gold.Chemscore.Hbond.Weighted>
-7.1398

> <Gold.Chemscore.Metal.Weighted>
-0.0000

> <Gold.Chemscore.Lipo.Weighted>
-8.2343

> <Gold.Chemscore.Internal_Hbond.Weighted>
0.0000

> <Gold.Chemscore.DEClash.Weighted>
0.2047

> <Gold.Chemscore.DEInternal.Weighted>
0.5760

> <Gold.Chemscore.Rot.Weighted>
3.6604

> <Gold.Chemscore.Internal.Correction.Weighted>
   9.000000E+99

> <Gold.Protein.RotatedTorsions>
[ 6907 6896 6895 6894 ] final -122.59 input  -60.11 | X-H torsion
[ 7974 7965 7964 7962 ] final -140.08 input  175.53 | X-H torsion
[ 8008 7997 7996 7995 ] final -179.33 input   59.86 | X-H torsion
[ 10167 10162 10161 10158 ] final -165.40 input  -65.29 | X-H torsion
[ 10718 10713 10712 10709 ] final  104.55 input   66.30 | X-H torsion
[ 10763 10752 10751 10750 ] final -178.30 input  -60.55 | X-H torsion
[ 11005 11000 10999 10996 ] final   85.50 input  -57.11 | X-H torsion

> <Gold.Protein.ActiveResidues>
 VAL166  LYS551  ARG553  GLY616  TRP617  ASP618  TYR619  PRO620  LYS621  CYS622 
 ASP623  PHE694  ASN695  SER759  ASP760  ASP761  ALA762  ILE779  LEU786  VAL792 
 PHE793  MET794  SER795  GLU796  ALA797  LYS798  CYS799  TRP800  GLU811  SER814 

> <Gold.Protein.RotatedAtoms>
  150.8590  133.7672  159.2998 H   0  0  0  0  0  0  0  0  0  0  0  0  # atno 6907 bound_to 6896
  151.5320  135.1067  159.9914 H   0  0  0  0  0  0  0  0  0  0  0  0  # atno 6908 bound_to 6896
  152.4612  133.7782  159.6892 H   0  0  0  0  0  0  0  0  0  0  0  0  # atno 6909 bound_to 6896
  144.8625  140.6242  143.5319 H   0  0  0  0  0  0  0  0  0  0  0  0  # atno 7974 bound_to 7965
  156.0292  140.1278  157.0276 H   0  0  0  0  0  0  0  0  0  0  0  0  # atno 8008 bound_to 7997
  154.4343  140.1053  156.6145 H   0  0  0  0  0  0  0  0  0  0  0  0  # atno 8009 bound_to 7997
  155.5832  140.3468  155.4548 H   0  0  0  0  0  0  0  0  0  0  0  0  # atno 8010 bound_to 7997
  139.6184  144.0673  152.1910 H   0  0  0  0  0  0  0  0  0  0  0  0  # atno 10167 bound_to 10162
  157.6736  131.0806  150.5723 H   0  0  0  0  0  0  0  0  0  0  0  0  # atno 10718 bound_to 10713
  154.5494  135.2812  155.1023 H   0  0  0  0  0  0  0  0  0  0  0  0  # atno 10763 bound_to 10752
  154.2474  135.6345  153.5232 H   0  0  0  0  0  0  0  0  0  0  0  0  # atno 10764 bound_to 10752
  152.9999  135.5574  154.6055 H   0  0  0  0  0  0  0  0  0  0  0  0  # atno 10765 bound_to 10752
  139.8970  134.8291  156.2590 H   0  0  0  0  0  0  0  0  0  0  0  0  # atno 11005 bound_to 11000
  145.4284  139.1553  143.4036 LP  0  0  0  0  0  0  0  0  0  0  0  0  # atno 17320 bound_to 7965
  146.2871  140.4399  142.8753 LP  0  0  0  0  0  0  0  0  0  0  0  0  # atno 17321 bound_to 7965
  140.0308  144.6082  150.7489 LP  0  0  0  0  0  0  0  0  0  0  0  0  # atno 17342 bound_to 10162
  140.7366  143.2755  151.3754 LP  0  0  0  0  0  0  0  0  0  0  0  0  # atno 17343 bound_to 10162
  156.6025  130.4358  149.5891 LP  0  0  0  0  0  0  0  0  0  0  0  0  # atno 17370 bound_to 10713
  156.2495  130.6899  151.1631 LP  0  0  0  0  0  0  0  0  0  0  0  0  # atno 17371 bound_to 10713
  141.0174  133.7060  156.1212 LP  0  0  0  0  0  0  0  0  0  0  0  0  # atno 17394 bound_to 11000
  140.7281  134.4284  157.5568 LP  0  0  0  0  0  0  0  0  0  0  0  0  # atno 17395 bound_to 11000

$$$$
