AV-unprocessed.smi:2881|AV-procd|sdf|11058|dock4
  -GOLD-   2272015523D 1   1.00000     0.00000
 Structure written by MMmdl.
 40 42  0  0  0  0  0  0  0  0  1 V2000
  147.8420  141.7050  154.0908 C   0  0  0  0  0  0  0  0  0  0  0  0
  149.0457  140.9003  154.4477 C   0  0  0  0  0  0  0  0  0  0  0  0
  149.7954  140.8593  155.5890 C   0  0  0  0  0  0  0  0  0  0  0  0
  150.8016  139.8850  155.3170 C   0  0  0  0  0  0  0  0  0  0  0  0
  151.8960  139.4034  156.2340 C   0  0  0  0  0  0  0  0  0  0  0  0
  151.5883  139.8084  157.6770 C   0  0  0  0  0  0  0  0  0  0  0  0
  150.7879  139.1548  158.3451 O   0  0  0  0  0  0  0  0  0  0  0  0
  152.2166  140.9032  158.1342 N   0  0  0  0  0  0  0  0  0  0  0  0
  151.9856  141.5443  159.4273 C   0  0  1  0  0  0  0  0  0  0  0  0
  153.3151  142.0885  159.9927 C   0  0  2  0  0  0  0  0  0  0  0  0
  153.1292  142.4252  161.4833 C   0  0  0  0  0  0  0  0  0  0  0  0
  152.2486  143.6884  161.4330 C   0  0  0  0  0  0  0  0  0  0  0  0
  152.0450  143.9053  159.9203 C   0  0  1  0  0  0  0  0  0  0  0  0
  153.3989  143.4765  159.3691 C   0  0  0  0  0  0  0  0  0  0  0  0
  151.0883  142.8192  159.3690 C   0  0  1  0  0  0  0  0  0  0  0  0
  150.4931  143.1737  157.9856 C   0  0  0  0  0  0  0  0  0  0  0  0
  149.0865  143.2705  158.0615 O   0  0  0  0  0  0  0  0  0  0  0  0
  150.6891  139.3713  154.0997 N   0  0  0  0  0  0  0  0  0  0  0  0
  149.6155  139.9956  153.5817 N   0  0  0  0  0  0  0  0  0  0  0  0
  149.2879  139.7980  152.6467 H   0  0  0  0  0  0  0  0  0  0  0  0
  147.0066  141.4574  154.7458 H   0  0  0  0  0  0  0  0  0  0  0  0
  147.5306  141.5184  153.0626 H   0  0  0  0  0  0  0  0  0  0  0  0
  148.0466  142.7709  154.1925 H   0  0  0  0  0  0  0  0  0  0  0  0
  149.6430  141.4329  156.4914 H   0  0  0  0  0  0  0  0  0  0  0  0
  152.0043  138.3196  156.1716 H   0  0  0  0  0  0  0  0  0  0  0  0
  152.8558  139.8304  155.9417 H   0  0  0  0  0  0  0  0  0  0  0  0
  152.8633  141.3661  157.5119 H   0  0  0  0  0  0  0  0  0  0  0  0
  151.5644  140.8117  160.1188 H   0  0  0  0  0  0  0  0  0  0  0  0
  154.1753  141.4450  159.8031 H   0  0  0  0  0  0  0  0  0  0  0  0
  152.6626  141.6120  162.0401 H   0  0  0  0  0  0  0  0  0  0  0  0
  154.0880  142.6454  161.9542 H   0  0  0  0  0  0  0  0  0  0  0  0
  151.3062  143.5622  161.9668 H   0  0  0  0  0  0  0  0  0  0  0  0
  152.7716  144.5356  161.8784 H   0  0  0  0  0  0  0  0  0  0  0  0
  151.7536  144.9262  159.6720 H   0  0  0  0  0  0  0  0  0  0  0  0
  154.2298  144.0723  159.7507 H   0  0  0  0  0  0  0  0  0  0  0  0
  153.4435  143.4629  158.2792 H   0  0  0  0  0  0  0  0  0  0  0  0
  150.2505  142.6895  160.0562 H   0  0  0  0  0  0  0  0  0  0  0  0
  150.8942  144.1121  157.6022 H   0  0  0  0  0  0  0  0  0  0  0  0
  150.7286  142.3980  157.2566 H   0  0  0  0  0  0  0  0  0  0  0  0
  148.7606  143.5636  157.2241 H   0  0  0  0  0  0  0  0  0  0  0  0
  1  2  1  0  0  0  0
  1 21  1  0  0  0  0
  1 22  1  0  0  0  0
  1 23  1  0  0  0  0
  2 19  1  0  0  0  0
  2  3  2  0  0  0  0
  3  4  1  0  0  0  0
  3 24  1  0  0  0  0
  4  5  1  0  0  0  0
  4 18  2  0  0  0  0
  5  6  1  0  0  0  0
  5 25  1  0  0  0  0
  5 26  1  0  0  0  0
  6  7  2  0  0  0  0
  6  8  1  0  0  0  0
  8  9  1  0  0  0  0
  8 27  1  0  0  0  0
  9 15  1  0  0  0  0
  9 10  1  0  0  0  0
  9 28  1  0  0  0  0
 10 14  1  0  0  0  0
 10 11  1  0  0  0  0
 10 29  1  0  0  0  0
 11 12  1  0  0  0  0
 11 30  1  0  0  0  0
 11 31  1  0  0  0  0
 12 13  1  0  0  0  0
 12 32  1  0  0  0  0
 12 33  1  0  0  0  0
 13 14  1  0  0  0  0
 13 15  1  0  0  0  0
 13 34  1  0  0  0  0
 14 35  1  0  0  0  0
 14 36  1  0  0  0  0
 15 16  1  0  0  0  0
 15 37  1  0  0  0  0
 16 17  1  0  0  0  0
 16 38  1  0  0  0  0
 16 39  1  0  0  0  0
 17 40  1  0  0  0  0
 18 19  1  0  0  0  0
 19 20  1  0  0  0  0
M  END
> <s_m_source_file>
AV-unprocessed.smi

> <i_m_source_file_index>
2881

> <i_lp_mmshare_version>
43012

> <i_f3d_flags>
0

> <s_epik_input>
W0NIM11jMVtjSF1jKG5bbkhdMSlbQ0gyXUMoPU8pW05IXVtDQEhdKFtDQEBIXTIzKVtDQEhdKFtDSDJdW09IXSlbQ0BASF0oW0NIMl0zKVtDSDJdW0NIMl0y

> <s_epik_cmdline>
J2VwaWtfcHl0aG9uJywgJy1waCcsICc3LjAnLCAnLXRuJywgJzgnLCAnLW1hJywgJzIwMCcsICctbWV0YWxfYmluZGluZycsICctaW1hZScsICc8aW5maWxlLm1hZT4nLCAnLW9tYWUnLCAnPG91dGZpbGUubWFlPic=

> <r_lp_tautomer_probability>
0.5

> <r_epik_Ionization_Penalty>
9.4349e-05

> <r_epik_Ionization_Penalty_Charging>
0

> <r_epik_Ionization_Penalty_Neutral>
9.4349e-05

> <r_epik_State_Penalty>
0.41068

> <r_epik_Charging_Adjusted_Penalty>
0.41068

> <i_epik_Tot_Q>
0

> <i_epik_Tot_abs_Q>
0

> <r_epik_Metal_State_Penalty>
0.4107

> <b_epik_Metal_Only>
0

> <s_lp_Force_Field>
OPLS_2005

> <r_lp_Energy>
47.5678

> <b_lp_Chiralities_Consistent>
1

> <s_lp_Variant>
AV-unprocessed.smi:2881-4

> <Gold.Version>
5.8.1

> <Gold.Id.Protein>
6NUR|6NUR_protein|mol2

> <Gold.PLP.Fitness>
44.9260

> <Gold.PLP.PLP>
-42.2506

> <Gold.PLP.part.hbond>
-3.6337

> <Gold.PLP.part.metal>
0.0000

> <Gold.PLP.part.buried>
-3.6730

> <Gold.PLP.part.nonpolar>
-35.9158

> <Gold.PLP.part.repulsive>
1.5551

> <Gold.PLP.ligand.clash>
0.0000

> <Gold.PLP.ligand.torsion>
1.5441

> <Gold.PLP.Chemscore.Hbond>
1.9140

> <Gold.PLP.Chemscore.CHOScore>
0.0000

> <Gold.PLP.Chemscore.Metal>
0.0000

> <Gold.Chemscore.Hbonds>
donor molecule, donor type, donor heavy atom, donor atom, acceptor molecule, acceptor atom, score
      L1  H    17    40       P1  8028  0.95
      L1  H    19    20       P1  7957  0.86
      P1  H  7989  7998       L1    18  0.10

> <Gold.PLP.Chemscore.Internal.Correction>
0.0217

> <Gold.Rescore>
     Score         DG    S(hbond)    S(metal)    S(lipo)     H(rot)  DE(clash)    DE(int)     intcor
     16.00     -17.69       1.13        0.00     121.77       2.28       0.07       1.63       ----

> <Gold.Chemscore.Fitness>
15.9962

> <Gold.Chemscore.DG>
-17.6921

> <Gold.Chemscore.ZeroCoef>
-5.4800

> <Gold.Chemscore.Hbond>
1.1347

> <Gold.Chemscore.Metal>
0.0000

> <Gold.Chemscore.Lipo>
121.7724

> <Gold.Chemscore.Internal_Hbond>
0.0000

> <Gold.Chemscore.DEClash>
0.0665

> <Gold.Chemscore.DEInternal>
1.6295

> <Gold.Chemscore.Rot>
2.2755

> <Gold.Chemscore.Internal.Correction>
   9.000000E+99

> <Gold.Chemscore.Hbonds>
donor molecule, donor type, donor heavy atom, donor atom, acceptor molecule, acceptor atom, score
      L1  H    17    40       P1  8028  0.20
      L1  H    19    20       P1  7957  0.80

> <Gold.Chemscore.Hbond.Weighted>
-3.7899

> <Gold.Chemscore.Metal.Weighted>
-0.0000

> <Gold.Chemscore.Lipo.Weighted>
-14.2474

> <Gold.Chemscore.Internal_Hbond.Weighted>
0.0000

> <Gold.Chemscore.DEClash.Weighted>
0.0665

> <Gold.Chemscore.DEInternal.Weighted>
1.6295

> <Gold.Chemscore.Rot.Weighted>
5.8252

> <Gold.Chemscore.Internal.Correction.Weighted>
   9.000000E+99

> <Gold.Protein.RotatedTorsions>
[ 6907 6896 6895 6894 ] final -171.70 input  -60.11 | X-H torsion
[ 7974 7965 7964 7962 ] final  -30.69 input  175.53 | X-H torsion
[ 8008 7997 7996 7995 ] final  -30.47 input   59.86 | X-H torsion
[ 10167 10162 10161 10158 ] final   47.12 input  -65.29 | X-H torsion
[ 10718 10713 10712 10709 ] final -176.02 input   66.30 | X-H torsion
[ 10763 10752 10751 10750 ] final    3.61 input  -60.55 | X-H torsion
[ 11005 11000 10999 10996 ] final -148.76 input  -57.11 | X-H torsion

> <Gold.Protein.ActiveResidues>
 VAL166  LYS551  ARG553  GLY616  TRP617  ASP618  TYR619  PRO620  LYS621  CYS622 
 ASP623  PHE694  ASN695  SER759  ASP760  ASP761  ALA762  ILE779  LEU786  VAL792 
 PHE793  MET794  SER795  GLU796  ALA797  LYS798  CYS799  TRP800  GLU811  SER814 

> <Gold.Protein.RotatedAtoms>
  151.5281  133.3454  159.2913 H   0  0  0  0  0  0  0  0  0  0  0  0  # atno 6907 bound_to 6896
  150.8610  134.7964  159.7094 H   0  0  0  0  0  0  0  0  0  0  0  0  # atno 6908 bound_to 6896
  152.4630  134.5150  159.9817 H   0  0  0  0  0  0  0  0  0  0  0  0  # atno 6909 bound_to 6896
  146.1124  140.5572  142.8772 H   0  0  0  0  0  0  0  0  0  0  0  0  # atno 7974 bound_to 7965
  154.4249  140.1790  156.1412 H   0  0  0  0  0  0  0  0  0  0  0  0  # atno 8008 bound_to 7997
  155.9990  140.3362  155.6802 H   0  0  0  0  0  0  0  0  0  0  0  0  # atno 8009 bound_to 7997
  155.6269  140.0665  157.2651 H   0  0  0  0  0  0  0  0  0  0  0  0  # atno 8010 bound_to 7997
  140.3069  144.2867  150.6207 H   0  0  0  0  0  0  0  0  0  0  0  0  # atno 10167 bound_to 10162
  156.8085  130.9577  151.3116 H   0  0  0  0  0  0  0  0  0  0  0  0  # atno 10718 bound_to 10713
  153.2813  135.6941  153.7383 H   0  0  0  0  0  0  0  0  0  0  0  0  # atno 10763 bound_to 10752
  153.6369  135.3400  155.3060 H   0  0  0  0  0  0  0  0  0  0  0  0  # atno 10764 bound_to 10752
  154.8496  135.4422  154.1867 H   0  0  0  0  0  0  0  0  0  0  0  0  # atno 10765 bound_to 10752
  140.7579  134.3332  157.5109 H   0  0  0  0  0  0  0  0  0  0  0  0  # atno 11005 bound_to 11000
  144.7523  140.5221  143.6793 LP  0  0  0  0  0  0  0  0  0  0  0  0  # atno 17320 bound_to 7965
  145.5636  139.1480  143.3327 LP  0  0  0  0  0  0  0  0  0  0  0  0  # atno 17321 bound_to 7965
  140.5602  143.2193  151.7778 LP  0  0  0  0  0  0  0  0  0  0  0  0  # atno 17342 bound_to 10162
  139.4902  144.4359  151.9820 LP  0  0  0  0  0  0  0  0  0  0  0  0  # atno 17343 bound_to 10162
  157.6518  130.8891  149.9648 LP  0  0  0  0  0  0  0  0  0  0  0  0  # atno 17370 bound_to 10713
  156.1059  130.3653  150.0135 LP  0  0  0  0  0  0  0  0  0  0  0  0  # atno 17371 bound_to 10713
  139.8776  134.9183  156.3200 LP  0  0  0  0  0  0  0  0  0  0  0  0  # atno 17394 bound_to 11000
  140.9690  133.7339  156.0508 LP  0  0  0  0  0  0  0  0  0  0  0  0  # atno 17395 bound_to 11000

$$$$
