AV-unprocessed.smi:2931|AV-procd|sdf|11248|dock5
  -GOLD-   2272016143D 1   1.00000     0.00000
 Structure written by MMmdl.
 43 44  0  0  0  0  0  0  0  0  3 V2000
  144.4864  142.8370  155.0269 C   0  0  0  0  0  0  0  0  0  0  0  0
  145.2659  141.7017  154.4890 N   0  3  1  0  0  0  0  0  0  0  0  0
  146.6156  142.1114  154.0265 C   0  0  0  0  0  0  0  0  0  0  0  0
  147.3462  140.9390  153.3502 C   0  0  0  0  0  0  0  0  0  0  0  0
  147.4149  139.7152  154.2791 C   0  0  0  0  0  0  0  0  0  0  0  0
  146.0160  139.3326  154.7959 C   0  0  2  0  0  0  0  0  0  0  0  0
  145.2180  138.7693  153.7065 N   0  0  0  0  0  0  0  0  0  0  0  0
  144.7770  137.5050  153.6486 C   0  0  0  0  0  0  0  0  0  0  0  0
  144.9523  136.6738  154.5386 O   0  0  0  0  0  0  0  0  0  0  0  0
  144.1228  137.2559  152.5059 N   0  0  0  0  0  0  0  0  0  0  0  0
  143.5702  135.9594  152.1221 C   0  0  0  0  0  0  0  0  0  0  0  0
  144.0962  135.4456  150.7664 C   0  0  0  0  0  0  0  0  0  0  0  0
  145.0622  134.2794  150.8873 C   0  0  0  0  0  0  0  0  0  0  0  0
  146.2516  134.4058  151.6395 C   0  0  0  0  0  0  0  0  0  0  0  0
  147.1291  133.3059  151.7286 C   0  0  0  0  0  0  0  0  0  0  0  0
  146.8242  132.1492  151.1004 N   0  3  0  0  0  0  0  0  0  0  0  0
  145.6975  131.9862  150.3728 C   0  0  0  0  0  0  0  0  0  0  0  0
  144.7836  133.0522  150.2462 C   0  0  0  0  0  0  0  0  0  0  0  0
  145.3312  140.5605  155.4366 C   0  0  0  0  0  0  0  0  0  0  0  0
  144.9626  143.2522  155.9161 H   0  0  0  0  0  0  0  0  0  0  0  0
  143.4781  142.5194  155.2946 H   0  0  0  0  0  0  0  0  0  0  0  0
  144.3986  143.6299  154.2836 H   0  0  0  0  0  0  0  0  0  0  0  0
  146.5273  142.9397  153.3223 H   0  0  0  0  0  0  0  0  0  0  0  0
  147.1967  142.4775  154.8746 H   0  0  0  0  0  0  0  0  0  0  0  0
  146.8333  140.6740  152.4249 H   0  0  0  0  0  0  0  0  0  0  0  0
  148.3533  141.2443  153.0648 H   0  0  0  0  0  0  0  0  0  0  0  0
  147.8780  138.8730  153.7633 H   0  0  0  0  0  0  0  0  0  0  0  0
  148.0610  139.9456  155.1274 H   0  0  0  0  0  0  0  0  0  0  0  0
  146.1373  138.5604  155.5580 H   0  0  0  0  0  0  0  0  0  0  0  0
  145.0306  139.3737  152.9197 H   0  0  0  0  0  0  0  0  0  0  0  0
  144.0345  138.0040  151.8335 H   0  0  0  0  0  0  0  0  0  0  0  0
  143.8356  135.2500  152.9063 H   0  0  0  0  0  0  0  0  0  0  0  0
  142.4803  136.0071  152.1107 H   0  0  0  0  0  0  0  0  0  0  0  0
  143.2561  135.1385  150.1425 H   0  0  0  0  0  0  0  0  0  0  0  0
  144.5832  136.2592  150.2276 H   0  0  0  0  0  0  0  0  0  0  0  0
  146.4908  135.3335  152.1393 H   0  0  0  0  0  0  0  0  0  0  0  0
  148.0598  133.3170  152.2768 H   0  0  0  0  0  0  0  0  0  0  0  0
  145.5627  131.0166  149.9159 H   0  0  0  0  0  0  0  0  0  0  0  0
  143.8820  132.9286  149.6638 H   0  0  0  0  0  0  0  0  0  0  0  0
  145.8790  140.8668  156.3293 H   0  0  0  0  0  0  0  0  0  0  0  0
  144.3251  140.3001  155.7678 H   0  0  0  0  0  0  0  0  0  0  0  0
  144.7686  141.3711  153.6748 H   0  0  0  0  0  0  0  0  0  0  0  0
  147.4740  131.3659  151.1750 H   0  0  0  0  0  0  0  0  0  0  0  0
  1  2  1  0  0  0  0
  1 20  1  0  0  0  0
  1 21  1  0  0  0  0
  1 22  1  0  0  0  0
  2 19  1  0  0  0  0
  2  3  1  0  0  0  0
  2 42  1  0  0  0  0
  3  4  1  0  0  0  0
  3 23  1  0  0  0  0
  3 24  1  0  0  0  0
  4  5  1  0  0  0  0
  4 25  1  0  0  0  0
  4 26  1  0  0  0  0
  5  6  1  0  0  0  0
  5 27  1  0  0  0  0
  5 28  1  0  0  0  0
  6  7  1  0  0  0  0
  6 19  1  0  0  0  0
  6 29  1  0  0  0  0
  7  8  1  0  0  0  0
  7 30  1  0  0  0  0
  8  9  2  0  0  0  0
  8 10  1  0  0  0  0
 10 11  1  0  0  0  0
 10 31  1  0  0  0  0
 11 12  1  0  0  0  0
 11 32  1  0  0  0  0
 11 33  1  0  0  0  0
 12 13  1  0  0  0  0
 12 34  1  0  0  0  0
 12 35  1  0  0  0  0
 13 18  1  0  0  0  0
 13 14  2  0  0  0  0
 14 15  1  0  0  0  0
 14 36  1  0  0  0  0
 15 16  2  0  0  0  0
 15 37  1  0  0  0  0
 16 17  1  0  0  0  0
 16 43  1  0  0  0  0
 17 18  2  0  0  0  0
 17 38  1  0  0  0  0
 18 39  1  0  0  0  0
 19 40  1  0  0  0  0
 19 41  1  0  0  0  0
M  CHG  1   2   1
M  CHG  1  16   1
M  END
> <s_m_source_file>
AV-unprocessed.smi

> <i_m_source_file_index>
2931

> <i_lp_mmshare_version>
43012

> <i_f3d_flags>
0

> <s_epik_input>
W0NIM11OMVtDSDJdW0NIMl1bQ0gyXVtDQEhdKFtDSDJdMSlbTkhdQyg9TylbTkhdW0NIMl1bQ0gyXWMyW2NIXVtjSF1uW2NIXVtjSF0y

> <s_epik_cmdline>
J2VwaWtfcHl0aG9uJywgJy1waCcsICc3LjAnLCAnLXRuJywgJzgnLCAnLW1hJywgJzIwMCcsICctbWV0YWxfYmluZGluZycsICctaW1hZScsICc8aW5maWxlLm1hZT4nLCAnLW9tYWUnLCAnPG91dGZpbGUubWFlPic=

> <r_epik_Ionization_Penalty>
1.43754

> <r_epik_Ionization_Penalty_Charging>
1.4375

> <r_epik_Ionization_Penalty_Neutral>
3.7629e-05

> <r_epik_State_Penalty>
1.52008

> <r_epik_Charging_Adjusted_Penalty>
2.95758

> <i_epik_Tot_Q>
2

> <i_epik_Tot_abs_Q>
2

> <r_epik_Metal_State_Penalty>
1.57105

> <b_epik_Metal_Only>
0

> <s_lp_Force_Field>
OPLS_2005

> <r_lp_Energy>
32.3729

> <b_lp_Chiralities_Consistent>
1

> <s_lp_Variant>
AV-unprocessed.smi:2931-7

> <Gold.Version>
5.8.1

> <Gold.Id.Protein>
6NUR|6NUR_protein|mol2

> <Gold.PLP.Fitness>
44.4400

> <Gold.PLP.PLP>
-32.1708

> <Gold.PLP.part.hbond>
-4.4255

> <Gold.PLP.part.metal>
0.0000

> <Gold.PLP.part.buried>
-5.4716

> <Gold.PLP.part.nonpolar>
-23.7128

> <Gold.PLP.part.repulsive>
0.1049

> <Gold.PLP.ligand.clash>
0.0000

> <Gold.PLP.ligand.torsion>
0.3660

> <Gold.PLP.Chemscore.Hbond>
4.3284

> <Gold.PLP.Chemscore.CHOScore>
0.0000

> <Gold.PLP.Chemscore.Metal>
0.0000

> <Gold.Chemscore.Hbonds>
donor molecule, donor type, donor heavy atom, donor atom, acceptor molecule, acceptor atom, score
      L1  H     2    42       P1 10175  1.90
      L1  H     7    30       P1 10175  0.69
      L1  H    10    31       P1 10171  0.79
      L1  H    16    43       P1 10747  0.69

> <Gold.PLP.Chemscore.Internal.Correction>
0.0159

> <Gold.Rescore>
     Score         DG    S(hbond)    S(metal)    S(lipo)     H(rot)  DE(clash)    DE(int)     intcor
     20.76     -21.77       3.41        0.00      77.93       1.65       0.65       0.36       ----

> <Gold.Chemscore.Fitness>
20.7572

> <Gold.Chemscore.DG>
-21.7678

> <Gold.Chemscore.ZeroCoef>
-5.4800

> <Gold.Chemscore.Hbond>
3.4085

> <Gold.Chemscore.Metal>
0.0000

> <Gold.Chemscore.Lipo>
77.9320

> <Gold.Chemscore.Internal_Hbond>
0.0000

> <Gold.Chemscore.DEClash>
0.6469

> <Gold.Chemscore.DEInternal>
0.3636

> <Gold.Chemscore.Rot>
1.6464

> <Gold.Chemscore.Internal.Correction>
   9.000000E+99

> <Gold.Chemscore.Hbonds>
donor molecule, donor type, donor heavy atom, donor atom, acceptor molecule, acceptor atom, score
      L1  H     2    42       P1 10175  0.22
      L1  H     7    30       P1 10175  0.70
      L1  H    10    31       P1 10171  0.75
      L1  H    16    43       P1 10747  0.70

> <Gold.Chemscore.Hbond.Weighted>
-11.3845

> <Gold.Chemscore.Metal.Weighted>
-0.0000

> <Gold.Chemscore.Lipo.Weighted>
-9.1180

> <Gold.Chemscore.Internal_Hbond.Weighted>
0.0000

> <Gold.Chemscore.DEClash.Weighted>
0.6469

> <Gold.Chemscore.DEInternal.Weighted>
0.3636

> <Gold.Chemscore.Rot.Weighted>
4.2148

> <Gold.Chemscore.Internal.Correction.Weighted>
   9.000000E+99

> <Gold.Protein.RotatedTorsions>
[ 6907 6896 6895 6894 ] final  129.18 input  -60.11 | X-H torsion
[ 7974 7965 7964 7962 ] final  151.71 input  175.53 | X-H torsion
[ 8008 7997 7996 7995 ] final  -82.81 input   59.86 | X-H torsion
[ 10167 10162 10161 10158 ] final -138.20 input  -65.29 | X-H torsion
[ 10718 10713 10712 10709 ] final   -2.65 input   66.30 | X-H torsion
[ 10763 10752 10751 10750 ] final  149.54 input  -60.55 | X-H torsion
[ 11005 11000 10999 10996 ] final   70.53 input  -57.11 | X-H torsion

> <Gold.Protein.ActiveResidues>
 VAL166  LYS551  ARG553  GLY616  TRP617  ASP618  TYR619  PRO620  LYS621  CYS622 
 ASP623  PHE694  ASN695  SER759  ASP760  ASP761  ALA762  ILE779  LEU786  VAL792 
 PHE793  MET794  SER795  GLU796  ALA797  LYS798  CYS799  TRP800  GLU811  SER814 

> <Gold.Protein.RotatedAtoms>
  152.3649  133.6344  159.6042 H   0  0  0  0  0  0  0  0  0  0  0  0  # atno 6907 bound_to 6896
  150.7627  133.9364  159.3451 H   0  0  0  0  0  0  0  0  0  0  0  0  # atno 6908 bound_to 6896
  151.7197  135.0898  160.0333 H   0  0  0  0  0  0  0  0  0  0  0  0  # atno 6909 bound_to 6896
  144.8273  139.6573  143.6074 H   0  0  0  0  0  0  0  0  0  0  0  0  # atno 7974 bound_to 7965
  154.6125  140.0628  156.9512 H   0  0  0  0  0  0  0  0  0  0  0  0  # atno 8008 bound_to 7997
  155.1950  140.3310  155.4334 H   0  0  0  0  0  0  0  0  0  0  0  0  # atno 8009 bound_to 7997
  156.2385  140.1874  156.7037 H   0  0  0  0  0  0  0  0  0  0  0  0  # atno 8010 bound_to 7997
  139.8501  143.7209  152.2658 H   0  0  0  0  0  0  0  0  0  0  0  0  # atno 10167 bound_to 10162
  156.7876  130.5351  149.5740 H   0  0  0  0  0  0  0  0  0  0  0  0  # atno 10718 bound_to 10713
  154.0728  135.2865  155.3305 H   0  0  0  0  0  0  0  0  0  0  0  0  # atno 10763 bound_to 10752
  154.6735  135.5290  153.8172 H   0  0  0  0  0  0  0  0  0  0  0  0  # atno 10764 bound_to 10752
  153.0478  135.6563  154.0909 H   0  0  0  0  0  0  0  0  0  0  0  0  # atno 10765 bound_to 10752
  139.9592  134.7090  156.0683 H   0  0  0  0  0  0  0  0  0  0  0  0  # atno 11005 bound_to 11000
  146.2578  139.6341  142.9383 LP  0  0  0  0  0  0  0  0  0  0  0  0  # atno 17320 bound_to 7965
  145.4972  141.0438  143.2560 LP  0  0  0  0  0  0  0  0  0  0  0  0  # atno 17321 bound_to 7965
  139.7473  144.7543  151.0559 LP  0  0  0  0  0  0  0  0  0  0  0  0  # atno 17342 bound_to 10162
  140.7788  143.4901  150.9905 LP  0  0  0  0  0  0  0  0  0  0  0  0  # atno 17343 bound_to 10162
  156.1179  130.6088  151.0148 LP  0  0  0  0  0  0  0  0  0  0  0  0  # atno 17370 bound_to 10713
  157.6616  131.0880  150.7825 LP  0  0  0  0  0  0  0  0  0  0  0  0  # atno 17371 bound_to 10713
  141.1268  133.6597  156.3357 LP  0  0  0  0  0  0  0  0  0  0  0  0  # atno 17394 bound_to 11000
  140.5538  134.6001  157.5415 LP  0  0  0  0  0  0  0  0  0  0  0  0  # atno 17395 bound_to 11000

$$$$
