AV-unprocessed.smi:2152|AV-procd|sdf|8762|dock10
  -GOLD-   2272011543D 1   1.00000     0.00000
 Structure written by MMmdl.
 41 42  0  0  0  0  0  0  0  0  1 V2000
  151.5419  144.5926  159.3791 C   0  0  0  0  0  0  0  0  0  0  0  0
  151.9535  143.3871  160.2435 C   0  0  2  0  0  0  0  0  0  0  0  0
  152.4486  143.8564  161.6267 C   0  0  0  0  0  0  0  0  0  0  0  0
  152.8626  142.6758  162.5179 C   0  0  0  0  0  0  0  0  0  0  0  0
  153.9324  141.8161  161.8313 C   0  0  0  0  0  0  0  0  0  0  0  0
  153.4481  141.3274  160.4588 C   0  0  0  0  0  0  0  0  0  0  0  0
  153.0211  142.5016  159.5539 C   0  0  1  0  0  0  0  0  0  0  0  0
  152.5090  141.9823  158.2878 N   0  0  0  0  0  0  0  0  0  0  0  0
  151.6213  140.9854  158.1556 C   0  0  0  0  0  0  0  0  0  0  0  0
  151.1050  140.4061  159.1122 O   0  0  0  0  0  0  0  0  0  0  0  0
  151.2463  140.6046  156.7176 C   0  0  0  0  0  0  0  0  0  0  0  0
  149.8276  140.8383  156.4202 N   0  0  0  0  0  0  0  0  0  0  0  0
  148.9922  141.3335  157.4049 C   0  0  0  0  0  0  0  0  0  0  0  0
  147.6736  141.5603  157.2178 C   0  0  0  0  0  0  0  0  0  0  0  0
  147.0420  141.2917  155.9314 C   0  0  0  0  0  0  0  0  0  0  0  0
  145.8409  141.4678  155.7246 O   0  0  0  0  0  0  0  0  0  0  0  0
  147.9222  140.7988  154.9379 N   0  0  0  0  0  0  0  0  0  0  0  0
  147.3889  140.4844  153.6285 C   0  0  0  0  0  0  0  0  0  0  0  0
  149.2970  140.5485  155.1447 C   0  0  0  0  0  0  0  0  0  0  0  0
  150.0166  140.0882  154.2542 O   0  0  0  0  0  0  0  0  0  0  0  0
  152.3988  145.2291  159.1560 H   0  0  0  0  0  0  0  0  0  0  0  0
  150.7983  145.2050  159.8899 H   0  0  0  0  0  0  0  0  0  0  0  0
  151.1052  144.2800  158.4304 H   0  0  0  0  0  0  0  0  0  0  0  0
  151.0612  142.7795  160.4031 H   0  0  0  0  0  0  0  0  0  0  0  0
  153.2964  144.5320  161.5044 H   0  0  0  0  0  0  0  0  0  0  0  0
  151.6682  144.4312  162.1267 H   0  0  0  0  0  0  0  0  0  0  0  0
  153.2389  143.0449  163.4724 H   0  0  0  0  0  0  0  0  0  0  0  0
  151.9891  142.0633  162.7451 H   0  0  0  0  0  0  0  0  0  0  0  0
  154.8484  142.3959  161.7115 H   0  0  0  0  0  0  0  0  0  0  0  0
  154.1853  140.9632  162.4617 H   0  0  0  0  0  0  0  0  0  0  0  0
  154.2399  140.7514  159.9782 H   0  0  0  0  0  0  0  0  0  0  0  0
  152.6093  140.6434  160.5959 H   0  0  0  0  0  0  0  0  0  0  0  0
  153.8969  143.1247  159.3604 H   0  0  0  0  0  0  0  0  0  0  0  0
  152.8734  142.4035  157.4455 H   0  0  0  0  0  0  0  0  0  0  0  0
  151.8707  141.1868  156.0387 H   0  0  0  0  0  0  0  0  0  0  0  0
  151.4999  139.5597  156.5283 H   0  0  0  0  0  0  0  0  0  0  0  0
  149.4114  141.5445  158.3780 H   0  0  0  0  0  0  0  0  0  0  0  0
  147.0764  141.9430  158.0323 H   0  0  0  0  0  0  0  0  0  0  0  0
  148.0857  140.8577  152.8759 H   0  0  0  0  0  0  0  0  0  0  0  0
  146.4264  140.9725  153.4758 H   0  0  0  0  0  0  0  0  0  0  0  0
  147.2904  139.3990  153.5790 H   0  0  0  0  0  0  0  0  0  0  0  0
  1  2  1  0  0  0  0
  1 21  1  0  0  0  0
  1 22  1  0  0  0  0
  1 23  1  0  0  0  0
  2  7  1  0  0  0  0
  2  3  1  0  0  0  0
  2 24  1  0  0  0  0
  3  4  1  0  0  0  0
  3 25  1  0  0  0  0
  3 26  1  0  0  0  0
  4  5  1  0  0  0  0
  4 27  1  0  0  0  0
  4 28  1  0  0  0  0
  5  6  1  0  0  0  0
  5 29  1  0  0  0  0
  5 30  1  0  0  0  0
  6  7  1  0  0  0  0
  6 31  1  0  0  0  0
  6 32  1  0  0  0  0
  7  8  1  0  0  0  0
  7 33  1  0  0  0  0
  8  9  1  0  0  0  0
  8 34  1  0  0  0  0
  9 10  2  0  0  0  0
  9 11  1  0  0  0  0
 11 12  1  0  0  0  0
 11 35  1  0  0  0  0
 11 36  1  0  0  0  0
 12 19  1  0  0  0  0
 12 13  1  0  0  0  0
 13 14  2  0  0  0  0
 13 37  1  0  0  0  0
 14 15  1  0  0  0  0
 14 38  1  0  0  0  0
 15 16  2  0  0  0  0
 15 17  1  0  0  0  0
 17 18  1  0  0  0  0
 17 19  1  0  0  0  0
 18 39  1  0  0  0  0
 18 40  1  0  0  0  0
 18 41  1  0  0  0  0
 19 20  2  0  0  0  0
M  END
> <s_m_source_file>
AV-unprocessed.smi

> <i_m_source_file_index>
2152

> <i_lp_mmshare_version>
43012

> <i_f3d_flags>
0

> <s_epik_input>
W0NIM11bQ0BASF0xW0NIMl1bQ0gyXVtDSDJdW0NIMl1bQ0BIXTFbTkhdQyg9TylbQ0gyXW4yW2NIXVtjSF1jKD1PKW4oW0NIM10pYzI9Tw==

> <s_epik_cmdline>
J2VwaWtfcHl0aG9uJywgJy1waCcsICc3LjAnLCAnLXRuJywgJzgnLCAnLW1hJywgJzIwMCcsICctbWV0YWxfYmluZGluZycsICctaW1hZScsICc8aW5maWxlLm1hZT4nLCAnLW9tYWUnLCAnPG91dGZpbGUubWFlPic=

> <r_lp_tautomer_probability>
1

> <r_epik_Ionization_Penalty>
3.20555e-08

> <r_epik_Ionization_Penalty_Charging>
1.30086e-08

> <r_epik_Ionization_Penalty_Neutral>
1.90469e-08

> <r_epik_State_Penalty>
-0

> <r_epik_Charging_Adjusted_Penalty>
1.30086e-08

> <i_epik_Tot_Q>
0

> <i_epik_Tot_abs_Q>
0

> <r_epik_Metal_State_Penalty>
-0

> <b_epik_Metal_Only>
0

> <s_lp_Force_Field>
OPLS_2005

> <r_lp_Energy>
17.5308

> <b_lp_Chiralities_Consistent>
1

> <s_lp_Variant>
AV-unprocessed.smi:2152-1

> <Gold.Version>
5.8.1

> <Gold.Id.Protein>
6NUR|6NUR_protein|mol2

> <Gold.PLP.Fitness>
46.1815

> <Gold.PLP.PLP>
-44.1318

> <Gold.PLP.part.hbond>
-1.0000

> <Gold.PLP.part.metal>
0.0000

> <Gold.PLP.part.buried>
-2.7762

> <Gold.PLP.part.nonpolar>
-39.4964

> <Gold.PLP.part.repulsive>
1.1004

> <Gold.PLP.ligand.clash>
0.0000

> <Gold.PLP.ligand.torsion>
0.1791

> <Gold.PLP.Chemscore.Hbond>
0.8000

> <Gold.PLP.Chemscore.CHOScore>
0.0000

> <Gold.PLP.Chemscore.Metal>
0.0000

> <Gold.Chemscore.Hbonds>
donor molecule, donor type, donor heavy atom, donor atom, acceptor molecule, acceptor atom, score
      P1  H  7989  7998       L1    20  0.98

> <Gold.PLP.Chemscore.Internal.Correction>
0.0079

> <Gold.Rescore>
     Score         DG    S(hbond)    S(metal)    S(lipo)     H(rot)  DE(clash)    DE(int)     intcor
     13.74     -16.66       0.98        0.00     100.80       1.52       0.03       2.88       ----

> <Gold.Chemscore.Fitness>
13.7437

> <Gold.Chemscore.DG>
-16.6603

> <Gold.Chemscore.ZeroCoef>
-5.4800

> <Gold.Chemscore.Hbond>
0.9847

> <Gold.Chemscore.Metal>
0.0000

> <Gold.Chemscore.Lipo>
100.7975

> <Gold.Chemscore.Internal_Hbond>
0.0000

> <Gold.Chemscore.DEClash>
0.0322

> <Gold.Chemscore.DEInternal>
2.8845

> <Gold.Chemscore.Rot>
1.5242

> <Gold.Chemscore.Internal.Correction>
   9.000000E+99

> <Gold.Chemscore.Hbonds>
donor molecule, donor type, donor heavy atom, donor atom, acceptor molecule, acceptor atom, score
      P1  H  7989  7998       L1    20  0.93

> <Gold.Chemscore.Hbond.Weighted>
-3.2889

> <Gold.Chemscore.Metal.Weighted>
-0.0000

> <Gold.Chemscore.Lipo.Weighted>
-11.7933

> <Gold.Chemscore.Internal_Hbond.Weighted>
0.0000

> <Gold.Chemscore.DEClash.Weighted>
0.0322

> <Gold.Chemscore.DEInternal.Weighted>
2.8845

> <Gold.Chemscore.Rot.Weighted>
3.9019

> <Gold.Chemscore.Internal.Correction.Weighted>
   9.000000E+99

> <Gold.Protein.RotatedTorsions>
[ 6907 6896 6895 6894 ] final  151.07 input  -60.11 | X-H torsion
[ 7974 7965 7964 7962 ] final  -24.98 input  175.53 | X-H torsion
[ 8008 7997 7996 7995 ] final   61.46 input   59.86 | X-H torsion
[ 10167 10162 10161 10158 ] final  -95.13 input  -65.29 | X-H torsion
[ 10718 10713 10712 10709 ] final  129.89 input   66.30 | X-H torsion
[ 10763 10752 10751 10750 ] final -110.06 input  -60.55 | X-H torsion
[ 11005 11000 10999 10996 ] final -111.36 input  -57.11 | X-H torsion

> <Gold.Protein.ActiveResidues>
 VAL166  LYS551  ARG553  GLY616  TRP617  ASP618  TYR619  PRO620  LYS621  CYS622 
 ASP623  PHE694  ASN695  SER759  ASP760  ASP761  ALA762  ILE779  LEU786  VAL792 
 PHE793  MET794  SER795  GLU796  ALA797  LYS798  CYS799  TRP800  GLU811  SER814 

> <Gold.Protein.RotatedAtoms>
  152.1058  133.4274  159.4607 H   0  0  0  0  0  0  0  0  0  0  0  0  # atno 6907 bound_to 6896
  150.6865  134.2707  159.4596 H   0  0  0  0  0  0  0  0  0  0  0  0  # atno 6908 bound_to 6896
  152.0571  134.9617  160.0625 H   0  0  0  0  0  0  0  0  0  0  0  0  # atno 6909 bound_to 6896
  146.1520  140.4825  142.8607 H   0  0  0  0  0  0  0  0  0  0  0  0  # atno 7974 bound_to 7965
  155.5986  140.3493  155.4587 H   0  0  0  0  0  0  0  0  0  0  0  0  # atno 8008 bound_to 7997
  156.0245  140.1261  157.0347 H   0  0  0  0  0  0  0  0  0  0  0  0  # atno 8009 bound_to 7997
  154.4328  140.1056  156.5998 H   0  0  0  0  0  0  0  0  0  0  0  0  # atno 8010 bound_to 7997
  140.3073  143.3126  152.0185 H   0  0  0  0  0  0  0  0  0  0  0  0  # atno 10167 bound_to 10162
  157.5113  131.1097  150.9289 H   0  0  0  0  0  0  0  0  0  0  0  0  # atno 10718 bound_to 10713
  154.8228  135.4578  154.0828 H   0  0  0  0  0  0  0  0  0  0  0  0  # atno 10763 bound_to 10752
  153.2168  135.6889  153.8054 H   0  0  0  0  0  0  0  0  0  0  0  0  # atno 10764 bound_to 10752
  153.7486  135.3301  155.3294 H   0  0  0  0  0  0  0  0  0  0  0  0  # atno 10765 bound_to 10752
  141.0739  133.9334  157.2430 H   0  0  0  0  0  0  0  0  0  0  0  0  # atno 11005 bound_to 11000
  144.7916  140.6043  143.6538 LP  0  0  0  0  0  0  0  0  0  0  0  0  # atno 17320 bound_to 7965
  145.4800  139.1496  143.3767 LP  0  0  0  0  0  0  0  0  0  0  0  0  # atno 17321 bound_to 7965
  139.4901  144.6411  151.6875 LP  0  0  0  0  0  0  0  0  0  0  0  0  # atno 17342 bound_to 10162
  140.5599  144.0286  150.6165 LP  0  0  0  0  0  0  0  0  0  0  0  0  # atno 17343 bound_to 10162
  156.9928  130.5570  149.5304 LP  0  0  0  0  0  0  0  0  0  0  0  0  # atno 17370 bound_to 10713
  156.0291  130.5383  150.8486 LP  0  0  0  0  0  0  0  0  0  0  0  0  # atno 17371 bound_to 10713
  139.9551  135.0167  156.9106 LP  0  0  0  0  0  0  0  0  0  0  0  0  # atno 17394 bound_to 11000
  140.5615  134.0530  155.7400 LP  0  0  0  0  0  0  0  0  0  0  0  0  # atno 17395 bound_to 11000

$$$$
