AV-unprocessed.smi:156|AV-procd|sdf|1289|dock7
  -GOLD-   2262018573D 1   1.00000     0.00000
 Structure written by MMmdl.
 51 53  0  0  0  0  0  0  0  0  1 V2000
  147.0619  139.6403  155.8248 C   0  0  0  0  0  0  0  0  0  0  0  0
  147.8896  139.2784  154.5747 C   0  0  2  0  0  0  0  0  0  0  0  0
  149.1024  140.2240  154.3347 C   0  0  1  0  0  0  0  0  0  0  0  0
  148.7188  141.7149  154.3941 C   0  0  0  0  0  0  0  0  0  0  0  0
  150.5072  139.9045  155.5252 S   0  0  0  0  0  0  0  0  0  0  0  0
  150.6283  141.4778  156.4774 C   0  0  0  0  0  0  0  0  0  0  0  0
  150.1235  138.8418  156.4664 O   0  0  0  0  0  0  0  0  0  0  0  0
  151.7497  139.7638  154.7505 O   0  0  0  0  0  0  0  0  0  0  0  0
  147.0155  139.1960  153.3973 N   0  0  0  0  0  0  0  0  0  0  0  0
  146.9698  140.2813  152.4212 C   0  0  0  0  0  0  0  0  0  0  0  0
  146.0603  138.2312  153.3155 C   0  0  0  0  0  0  0  0  0  0  0  0
  145.2142  138.0448  154.3635 N   0  0  0  0  0  0  0  0  0  0  0  0
  144.2663  137.1053  154.3134 C   0  0  0  0  0  0  0  0  0  0  0  0
  143.9961  136.2459  153.3306 N   0  0  0  0  0  0  0  0  0  0  0  0
  144.8458  136.4160  152.2777 C   0  0  0  0  0  0  0  0  0  0  0  0
  145.8887  137.3819  152.1829 C   0  0  0  0  0  0  0  0  0  0  0  0
  146.5335  137.2529  150.9581 N   0  0  0  0  0  0  0  0  0  0  0  0
  145.9082  136.2738  150.3653 C   0  0  0  0  0  0  0  0  0  0  0  0
  144.8924  135.6979  151.0944 N   0  0  0  0  0  0  0  0  0  0  0  0
  144.0382  134.5907  150.6850 C   0  0  0  0  0  0  0  0  0  0  0  0
  144.5874  133.1827  151.0234 C   0  0  0  0  0  0  0  0  0  0  0  0
  143.4384  132.1749  150.8799 C   0  0  0  0  0  0  0  0  0  0  0  0
  143.0180  132.0609  149.5352 O   0  0  0  0  0  0  0  0  0  0  0  0
  145.8964  132.7826  150.3214 C   0  0  0  0  0  0  0  0  0  0  0  0
  146.6766  133.0491  151.5055 O   0  0  0  0  0  0  0  0  0  0  0  0
  145.4605  133.0391  152.2825 C   0  0  0  0  0  0  0  0  0  0  0  0
  147.6370  139.5038  156.7401 H   0  0  0  0  0  0  0  0  0  0  0  0
  146.1832  139.0002  155.9099 H   0  0  0  0  0  0  0  0  0  0  0  0
  146.7178  140.6741  155.7995 H   0  0  0  0  0  0  0  0  0  0  0  0
  148.3137  138.2948  154.7717 H   0  0  0  0  0  0  0  0  0  0  0  0
  149.5085  140.0361  153.3404 H   0  0  0  0  0  0  0  0  0  0  0  0
  148.0175  141.9814  153.6042 H   0  0  0  0  0  0  0  0  0  0  0  0
  149.5899  142.3556  154.2583 H   0  0  0  0  0  0  0  0  0  0  0  0
  148.2611  141.9735  155.3487 H   0  0  0  0  0  0  0  0  0  0  0  0
  151.4874  141.4231  157.1454 H   0  0  0  0  0  0  0  0  0  0  0  0
  149.7301  141.6228  157.0765 H   0  0  0  0  0  0  0  0  0  0  0  0
  150.7584  142.3181  155.7969 H   0  0  0  0  0  0  0  0  0  0  0  0
  145.9407  140.5358  152.1654 H   0  0  0  0  0  0  0  0  0  0  0  0
  147.4917  139.9956  151.5080 H   0  0  0  0  0  0  0  0  0  0  0  0
  147.4463  141.1828  152.8042 H   0  0  0  0  0  0  0  0  0  0  0  0
  143.6356  137.0299  155.1869 H   0  0  0  0  0  0  0  0  0  0  0  0
  146.1790  135.9408  149.3743 H   0  0  0  0  0  0  0  0  0  0  0  0
  143.0618  134.7467  151.1445 H   0  0  0  0  0  0  0  0  0  0  0  0
  143.8746  134.6816  149.6104 H   0  0  0  0  0  0  0  0  0  0  0  0
  143.7309  131.1899  151.2452 H   0  0  0  0  0  0  0  0  0  0  0  0
  142.5755  132.4813  151.4724 H   0  0  0  0  0  0  0  0  0  0  0  0
  142.0850  131.9106  149.5228 H   0  0  0  0  0  0  0  0  0  0  0  0
  145.9449  131.7294  150.0393 H   0  0  0  0  0  0  0  0  0  0  0  0
  146.1738  133.4122  149.4772 H   0  0  0  0  0  0  0  0  0  0  0  0
  145.3964  133.8686  152.9844 H   0  0  0  0  0  0  0  0  0  0  0  0
  145.3260  132.0899  152.8042 H   0  0  0  0  0  0  0  0  0  0  0  0
  1  2  1  0  0  0  0
  1 27  1  0  0  0  0
  1 28  1  0  0  0  0
  1 29  1  0  0  0  0
  2  3  1  0  0  0  0
  2  9  1  0  0  0  0
  2 30  1  0  0  0  0
  3  4  1  0  0  0  0
  3  5  1  0  0  0  0
  3 31  1  0  0  0  0
  4 32  1  0  0  0  0
  4 33  1  0  0  0  0
  4 34  1  0  0  0  0
  5  6  1  0  0  0  0
  5  7  2  0  0  0  0
  5  8  2  0  0  0  0
  6 35  1  0  0  0  0
  6 36  1  0  0  0  0
  6 37  1  0  0  0  0
  9 10  1  0  0  0  0
  9 11  1  0  0  0  0
 10 38  1  0  0  0  0
 10 39  1  0  0  0  0
 10 40  1  0  0  0  0
 11 16  1  0  0  0  0
 11 12  2  0  0  0  0
 12 13  1  0  0  0  0
 13 14  2  0  0  0  0
 13 41  1  0  0  0  0
 14 15  1  0  0  0  0
 15 19  1  0  0  0  0
 15 16  2  0  0  0  0
 16 17  1  0  0  0  0
 17 18  2  0  0  0  0
 18 19  1  0  0  0  0
 18 42  1  0  0  0  0
 19 20  1  0  0  0  0
 20 21  1  0  0  0  0
 20 43  1  0  0  0  0
 20 44  1  0  0  0  0
 21 26  1  0  0  0  0
 21 22  1  0  0  0  0
 21 24  1  0  0  0  0
 22 23  1  0  0  0  0
 22 45  1  0  0  0  0
 22 46  1  0  0  0  0
 23 47  1  0  0  0  0
 24 25  1  0  0  0  0
 24 48  1  0  0  0  0
 24 49  1  0  0  0  0
 25 26  1  0  0  0  0
 26 50  1  0  0  0  0
 26 51  1  0  0  0  0
M  END
> <s_m_source_file>
AV-unprocessed.smi

> <i_m_source_file_index>
156

> <i_lp_mmshare_version>
43012

> <i_f3d_flags>
0

> <s_epik_input>
W0NIM11TKD1PKSg9TylbQ0BASF0oW0NIM10pW0NAQEhdKFtDSDNdKU4oW0NIM10pYyhuW2NIXW4xKWMoYzEyKW5bY0hdbjJbQ0gyXUMzKFtDSDJdW09IXSlbQ0gyXU9bQ0gyXTM=

> <s_epik_cmdline>
J2VwaWtfcHl0aG9uJywgJy1waCcsICc3LjAnLCAnLXRuJywgJzgnLCAnLW1hJywgJzIwMCcsICctbWV0YWxfYmluZGluZycsICctaW1hZScsICc8aW5maWxlLm1hZT4nLCAnLW9tYWUnLCAnPG91dGZpbGUubWFlPic=

> <r_lp_tautomer_probability>
1

> <r_epik_Ionization_Penalty>
0.00107697

> <r_epik_Ionization_Penalty_Charging>
0

> <r_epik_Ionization_Penalty_Neutral>
0.00107697

> <r_epik_State_Penalty>
0.000614712

> <r_epik_Charging_Adjusted_Penalty>
0.000614712

> <i_epik_Tot_Q>
0

> <i_epik_Tot_abs_Q>
0

> <r_epik_Metal_State_Penalty>
-0

> <b_epik_Metal_Only>
0

> <s_lp_Force_Field>
OPLS_2005

> <r_lp_Energy>
28.6083

> <b_lp_Chiralities_Consistent>
1

> <s_lp_Variant>
AV-unprocessed.smi:156-3

> <Gold.Version>
5.8.1

> <Gold.Id.Protein>
6NUR|6NUR_protein|mol2

> <Gold.PLP.Fitness>
45.8048

> <Gold.PLP.PLP>
-37.8211

> <Gold.PLP.part.hbond>
-4.6962

> <Gold.PLP.part.metal>
0.0000

> <Gold.PLP.part.buried>
-1.2231

> <Gold.PLP.part.nonpolar>
-35.7255

> <Gold.PLP.part.repulsive>
3.0677

> <Gold.PLP.ligand.clash>
0.0000

> <Gold.PLP.ligand.torsion>
2.5631

> <Gold.PLP.Chemscore.Hbond>
3.0476

> <Gold.PLP.Chemscore.CHOScore>
1.0000

> <Gold.PLP.Chemscore.Metal>
0.0000

> <Gold.Chemscore.Hbonds>
donor molecule, donor type, donor heavy atom, donor atom, acceptor molecule, acceptor atom, score
      L1  H    23    47       P1 10952  0.78
      P1  H  7954  7966       L1    17  0.99
      P1  H  7989  7998       L1     8  1.00
      P1  H 10785 10796       L1    23  0.26
      L1  C    18    42       P1  7921  1.00

> <Gold.PLP.Chemscore.Internal.Correction>
0.9672

> <Gold.Rescore>
     Score         DG    S(hbond)    S(metal)    S(lipo)     H(rot)  DE(clash)    DE(int)     intcor
      8.63     -14.89       2.57        0.00      77.23       3.21       2.22       4.04       ----

> <Gold.Chemscore.Fitness>
8.6347

> <Gold.Chemscore.DG>
-14.8920

> <Gold.Chemscore.ZeroCoef>
-5.4800

> <Gold.Chemscore.Hbond>
2.5743

> <Gold.Chemscore.Metal>
0.0000

> <Gold.Chemscore.Lipo>
77.2256

> <Gold.Chemscore.Internal_Hbond>
0.0000

> <Gold.Chemscore.DEClash>
2.2174

> <Gold.Chemscore.DEInternal>
4.0399

> <Gold.Chemscore.Rot>
3.2115

> <Gold.Chemscore.Internal.Correction>
   9.000000E+99

> <Gold.Chemscore.Hbonds>
donor molecule, donor type, donor heavy atom, donor atom, acceptor molecule, acceptor atom, score
      L1  H    23    47       P1 10952  0.75
      P1  H  7954  7966       L1    17  0.72
      P1  H  7989  7998       L1     8  0.58

> <Gold.Chemscore.Hbond.Weighted>
-8.5981

> <Gold.Chemscore.Metal.Weighted>
-0.0000

> <Gold.Chemscore.Lipo.Weighted>
-9.0354

> <Gold.Chemscore.Internal_Hbond.Weighted>
0.0000

> <Gold.Chemscore.DEClash.Weighted>
2.2174

> <Gold.Chemscore.DEInternal.Weighted>
4.0399

> <Gold.Chemscore.Rot.Weighted>
8.2215

> <Gold.Chemscore.Internal.Correction.Weighted>
   9.000000E+99

> <Gold.Protein.RotatedTorsions>
[ 6907 6896 6895 6894 ] final  165.95 input  -60.11 | X-H torsion
[ 7974 7965 7964 7962 ] final -110.02 input  175.53 | X-H torsion
[ 8008 7997 7996 7995 ] final  168.14 input   59.86 | X-H torsion
[ 10167 10162 10161 10158 ] final -151.53 input  -65.29 | X-H torsion
[ 10718 10713 10712 10709 ] final  114.89 input   66.30 | X-H torsion
[ 10763 10752 10751 10750 ] final -169.75 input  -60.55 | X-H torsion
[ 11005 11000 10999 10996 ] final   18.89 input  -57.11 | X-H torsion

> <Gold.Protein.ActiveResidues>
 VAL166  LYS551  ARG553  GLY616  TRP617  ASP618  TYR619  PRO620  LYS621  CYS622 
 ASP623  PHE694  ASN695  SER759  ASP760  ASP761  ALA762  ILE779  LEU786  VAL792 
 PHE793  MET794  SER795  GLU796  ALA797  LYS798  CYS799  TRP800  GLU811  SER814 

> <Gold.Protein.RotatedAtoms>
  151.8865  133.3506  159.3783 H   0  0  0  0  0  0  0  0  0  0  0  0  # atno 6907 bound_to 6896
  150.7114  134.4966  159.5550 H   0  0  0  0  0  0  0  0  0  0  0  0  # atno 6908 bound_to 6896
  152.2528  134.8115  160.0494 H   0  0  0  0  0  0  0  0  0  0  0  0  # atno 6909 bound_to 6896
  145.1734  140.8937  143.3522 H   0  0  0  0  0  0  0  0  0  0  0  0  # atno 7974 bound_to 7965
  156.1572  140.1598  156.8672 H   0  0  0  0  0  0  0  0  0  0  0  0  # atno 8008 bound_to 7997
  154.5126  140.0797  156.8056 H   0  0  0  0  0  0  0  0  0  0  0  0  # atno 8009 bound_to 7997
  155.3779  140.3403  155.4248 H   0  0  0  0  0  0  0  0  0  0  0  0  # atno 8010 bound_to 7997
  139.7260  143.8883  152.2519 H   0  0  0  0  0  0  0  0  0  0  0  0  # atno 10167 bound_to 10162
  157.6255  131.1005  150.7251 H   0  0  0  0  0  0  0  0  0  0  0  0  # atno 10718 bound_to 10713
  154.6489  135.2908  155.0011 H   0  0  0  0  0  0  0  0  0  0  0  0  # atno 10763 bound_to 10752
  154.1111  135.6562  153.4889 H   0  0  0  0  0  0  0  0  0  0  0  0  # atno 10764 bound_to 10752
  153.0366  135.5265  154.7388 H   0  0  0  0  0  0  0  0  0  0  0  0  # atno 10765 bound_to 10752
  140.4198  134.1531  155.7672 H   0  0  0  0  0  0  0  0  0  0  0  0  # atno 11005 bound_to 11000
  145.0209  139.3425  143.6073 LP  0  0  0  0  0  0  0  0  0  0  0  0  # atno 17320 bound_to 7965
  146.3465  139.9509  142.8729 LP  0  0  0  0  0  0  0  0  0  0  0  0  # atno 17321 bound_to 7965
  139.8792  144.7027  150.8897 LP  0  0  0  0  0  0  0  0  0  0  0  0  # atno 17342 bound_to 10162
  140.7763  143.3675  151.1712 LP  0  0  0  0  0  0  0  0  0  0  0  0  # atno 17343 bound_to 10162
  156.7600  130.4795  149.5439 LP  0  0  0  0  0  0  0  0  0  0  0  0  # atno 17370 bound_to 10713
  156.1424  130.6253  151.0485 LP  0  0  0  0  0  0  0  0  0  0  0  0  # atno 17371 bound_to 10713
  141.1788  133.8457  157.1328 LP  0  0  0  0  0  0  0  0  0  0  0  0  # atno 17394 bound_to 11000
  140.0208  134.9946  157.0588 LP  0  0  0  0  0  0  0  0  0  0  0  0  # atno 17395 bound_to 11000

$$$$
