AV-unprocessed.smi:957|AV-procd|sdf|4266|dock8
  -GOLD-   22720 2173D 1   1.00000     0.00000
 Structure written by MMmdl.
 30 31  0  0  0  0  0  0  0  0  2 V2000
  154.6895  140.8269  162.7407 C   0  0  0  0  0  0  0  0  0  0  0  0
  153.8122  141.7081  161.8430 C   0  0  0  0  0  0  0  0  0  0  0  0
  153.6285  141.1234  160.5259 N   0  0  0  0  0  0  0  0  0  0  0  0
  154.2454  140.0494  160.0092 C   0  0  0  0  0  0  0  0  0  0  0  0
  153.8838  139.7325  158.7674 N   0  0  0  0  0  0  0  0  0  0  0  0
  152.9429  140.6817  158.4280 N   0  0  0  0  0  0  0  0  0  0  0  0
  152.8237  141.4774  159.4992 C   0  0  0  0  0  0  0  0  0  0  0  0
  151.8934  142.6579  159.5440 C   0  0  1  0  0  0  0  0  0  0  0  0
  152.6113  143.9396  160.0089 C   0  0  0  0  0  0  0  0  0  0  0  0
  151.6360  145.1265  160.0271 C   0  0  0  0  0  0  0  0  0  0  0  0
  150.9527  145.2960  158.6602 C   0  0  0  0  0  0  0  0  0  0  0  0
  150.2727  144.0459  158.2569 N   0  3  0  0  0  0  0  0  0  0  0  0
  151.1880  142.8851  158.1909 C   0  0  0  0  0  0  0  0  0  0  0  0
  154.8053  141.2749  163.7277 H   0  0  0  0  0  0  0  0  0  0  0  0
  155.6856  140.6915  162.3194 H   0  0  0  0  0  0  0  0  0  0  0  0
  154.2465  139.8395  162.8747 H   0  0  0  0  0  0  0  0  0  0  0  0
  152.8322  141.8429  162.3024 H   0  0  0  0  0  0  0  0  0  0  0  0
  154.2417  142.7042  161.7357 H   0  0  0  0  0  0  0  0  0  0  0  0
  154.9828  139.4813  160.5573 H   0  0  0  0  0  0  0  0  0  0  0  0
  151.1123  142.4509  160.2745 H   0  0  0  0  0  0  0  0  0  0  0  0
  153.0389  143.7951  161.0016 H   0  0  0  0  0  0  0  0  0  0  0  0
  153.4436  144.1656  159.3410 H   0  0  0  0  0  0  0  0  0  0  0  0
  150.8807  144.9693  160.7985 H   0  0  0  0  0  0  0  0  0  0  0  0
  152.1661  146.0408  160.2957 H   0  0  0  0  0  0  0  0  0  0  0  0
  150.2208  146.1030  158.6999 H   0  0  0  0  0  0  0  0  0  0  0  0
  151.6865  145.5671  157.8998 H   0  0  0  0  0  0  0  0  0  0  0  0
  149.5457  143.8448  158.9284 H   0  0  0  0  0  0  0  0  0  0  0  0
  151.9186  143.0573  157.3992 H   0  0  0  0  0  0  0  0  0  0  0  0
  150.6150  142.0013  157.9087 H   0  0  0  0  0  0  0  0  0  0  0  0
  149.8499  144.1808  157.3494 H   0  0  0  0  0  0  0  0  0  0  0  0
  1  2  1  0  0  0  0
  1 14  1  0  0  0  0
  1 15  1  0  0  0  0
  1 16  1  0  0  0  0
  2  3  1  0  0  0  0
  2 17  1  0  0  0  0
  2 18  1  0  0  0  0
  3  7  1  0  0  0  0
  3  4  1  0  0  0  0
  4  5  2  0  0  0  0
  4 19  1  0  0  0  0
  5  6  1  0  0  0  0
  6  7  2  0  0  0  0
  7  8  1  0  0  0  0
  8 13  1  0  0  0  0
  8  9  1  0  0  0  0
  8 20  1  0  0  0  0
  9 10  1  0  0  0  0
  9 21  1  0  0  0  0
  9 22  1  0  0  0  0
 10 11  1  0  0  0  0
 10 23  1  0  0  0  0
 10 24  1  0  0  0  0
 11 12  1  0  0  0  0
 11 25  1  0  0  0  0
 11 26  1  0  0  0  0
 12 13  1  0  0  0  0
 12 27  1  0  0  0  0
 12 30  1  0  0  0  0
 13 28  1  0  0  0  0
 13 29  1  0  0  0  0
M  CHG  1  12   1
M  END
> <s_m_source_file>
AV-unprocessed.smi

> <i_m_source_file_index>
957

> <i_lp_mmshare_version>
43012

> <i_f3d_flags>
0

> <s_epik_input>
W0NIM11bQ0gyXW4xW2NIXW5uYzFbQ0BASF0yW0NIMl1bQ0gyXVtDSDJdW05IXVtDSDJdMg==

> <s_epik_cmdline>
J2VwaWtfcHl0aG9uJywgJy1waCcsICc3LjAnLCAnLXRuJywgJzgnLCAnLW1hJywgJzIwMCcsICctbWV0YWxfYmluZGluZycsICctaW1hZScsICc8aW5maWxlLm1hZT4nLCAnLW9tYWUnLCAnPG91dGZpbGUubWFlPic=

> <r_lp_tautomer_probability>
1

> <r_epik_Ionization_Penalty>
0.000442722

> <r_epik_Ionization_Penalty_Charging>
0.000426856

> <r_epik_Ionization_Penalty_Neutral>
1.58656e-05

> <r_epik_State_Penalty>
-0

> <r_epik_Charging_Adjusted_Penalty>
0.000426856

> <i_epik_Tot_Q>
1

> <i_epik_Tot_abs_Q>
1

> <r_epik_Metal_State_Penalty>
-0

> <b_epik_Metal_Only>
0

> <s_lp_Force_Field>
OPLS_2005

> <r_lp_Energy>
16.0383

> <b_lp_Chiralities_Consistent>
1

> <s_lp_Variant>
AV-unprocessed.smi:957-2

> <Gold.Version>
5.8.1

> <Gold.Id.Protein>
6NUR|6NUR_protein|mol2

> <Gold.PLP.Fitness>
39.4356

> <Gold.PLP.PLP>
-31.1055

> <Gold.PLP.part.hbond>
-3.3817

> <Gold.PLP.part.metal>
0.0000

> <Gold.PLP.part.buried>
-0.9308

> <Gold.PLP.part.nonpolar>
-26.9576

> <Gold.PLP.part.repulsive>
0.0633

> <Gold.PLP.ligand.clash>
0.0000

> <Gold.PLP.ligand.torsion>
0.1707

> <Gold.PLP.Chemscore.Hbond>
2.8816

> <Gold.PLP.Chemscore.CHOScore>
0.0000

> <Gold.PLP.Chemscore.Metal>
0.0000

> <Gold.Chemscore.Hbonds>
donor molecule, donor type, donor heavy atom, donor atom, acceptor molecule, acceptor atom, score
      L1  H    12    30       P1  8028  2.00
      P1  H  7997  8010       L1     5  0.84

> <Gold.PLP.Chemscore.Internal.Correction>
0.0267

> <Gold.Rescore>
     Score         DG    S(hbond)    S(metal)    S(lipo)     H(rot)  DE(clash)    DE(int)     intcor
     13.84     -14.25       0.93        0.00      75.83       1.26       0.18       0.22       ----

> <Gold.Chemscore.Fitness>
13.8439

> <Gold.Chemscore.DG>
-14.2471

> <Gold.Chemscore.ZeroCoef>
-5.4800

> <Gold.Chemscore.Hbond>
0.9322

> <Gold.Chemscore.Metal>
0.0000

> <Gold.Chemscore.Lipo>
75.8308

> <Gold.Chemscore.Internal_Hbond>
0.0000

> <Gold.Chemscore.DEClash>
0.1783

> <Gold.Chemscore.DEInternal>
0.2248

> <Gold.Chemscore.Rot>
1.2573

> <Gold.Chemscore.Internal.Correction>
   9.000000E+99

> <Gold.Chemscore.Hbonds>
donor molecule, donor type, donor heavy atom, donor atom, acceptor molecule, acceptor atom, score
      L1  H    12    30       P1  8028  0.48
      P1  H  7997  8010       L1     5  0.15

> <Gold.Chemscore.Hbond.Weighted>
-3.1136

> <Gold.Chemscore.Metal.Weighted>
-0.0000

> <Gold.Chemscore.Lipo.Weighted>
-8.8722

> <Gold.Chemscore.Internal_Hbond.Weighted>
0.0000

> <Gold.Chemscore.DEClash.Weighted>
0.1783

> <Gold.Chemscore.DEInternal.Weighted>
0.2248

> <Gold.Chemscore.Rot.Weighted>
3.2188

> <Gold.Chemscore.Internal.Correction.Weighted>
   9.000000E+99

> <Gold.Protein.RotatedTorsions>
[ 6907 6896 6895 6894 ] final  -37.44 input  -60.11 | X-H torsion
[ 7974 7965 7964 7962 ] final -100.72 input  175.53 | X-H torsion
[ 8008 7997 7996 7995 ] final   -1.50 input   59.86 | X-H torsion
[ 10167 10162 10161 10158 ] final  110.27 input  -65.29 | X-H torsion
[ 10718 10713 10712 10709 ] final  151.69 input   66.30 | X-H torsion
[ 10763 10752 10751 10750 ] final   90.87 input  -60.55 | X-H torsion
[ 11005 11000 10999 10996 ] final  147.78 input  -57.11 | X-H torsion

> <Gold.Protein.ActiveResidues>
 VAL166  LYS551  ARG553  GLY616  TRP617  ASP618  TYR619  PRO620  LYS621  CYS622 
 ASP623  PHE694  ASN695  SER759  ASP760  ASP761  ALA762  ILE779  LEU786  VAL792 
 PHE793  MET794  SER795  GLU796  ALA797  LYS798  CYS799  TRP800  GLU811  SER814 

> <Gold.Protein.RotatedAtoms>
  151.0147  134.9424  159.8026 H   0  0  0  0  0  0  0  0  0  0  0  0  # atno 6907 bound_to 6896
  152.5311  134.2981  159.9078 H   0  0  0  0  0  0  0  0  0  0  0  0  # atno 6908 bound_to 6896
  151.2988  133.4090  159.2672 H   0  0  0  0  0  0  0  0  0  0  0  0  # atno 6909 bound_to 6896
  145.2909  140.9352  143.2878 H   0  0  0  0  0  0  0  0  0  0  0  0  # atno 7974 bound_to 7965
  154.6461  140.2558  155.7266 H   0  0  0  0  0  0  0  0  0  0  0  0  # atno 8008 bound_to 7997
  156.2553  140.2877  156.0796 H   0  0  0  0  0  0  0  0  0  0  0  0  # atno 8009 bound_to 7997
  155.1522  140.0382  157.2814 H   0  0  0  0  0  0  0  0  0  0  0  0  # atno 8010 bound_to 7997
  139.6701  144.7125  151.1704 H   0  0  0  0  0  0  0  0  0  0  0  0  # atno 10167 bound_to 10162
  157.2674  131.0810  151.1623 H   0  0  0  0  0  0  0  0  0  0  0  0  # atno 10718 bound_to 10713
  153.2022  135.4418  155.0280 H   0  0  0  0  0  0  0  0  0  0  0  0  # atno 10763 bound_to 10752
  154.8153  135.3312  154.7195 H   0  0  0  0  0  0  0  0  0  0  0  0  # atno 10764 bound_to 10752
  153.7639  135.6989  153.4975 H   0  0  0  0  0  0  0  0  0  0  0  0  # atno 10765 bound_to 10752
  140.0904  134.9044  157.1642 H   0  0  0  0  0  0  0  0  0  0  0  0  # atno 11005 bound_to 11000
  144.9173  139.4454  143.6558 LP  0  0  0  0  0  0  0  0  0  0  0  0  # atno 17320 bound_to 7965
  146.3185  139.8015  142.8964 LP  0  0  0  0  0  0  0  0  0  0  0  0  # atno 17321 bound_to 7965
  140.7615  143.5857  150.8848 LP  0  0  0  0  0  0  0  0  0  0  0  0  # atno 17342 bound_to 10162
  139.9522  143.6259  152.3026 LP  0  0  0  0  0  0  0  0  0  0  0  0  # atno 17343 bound_to 10162
  157.3109  130.6889  149.6215 LP  0  0  0  0  0  0  0  0  0  0  0  0  # atno 17370 bound_to 10713
  155.9663  130.4364  150.5132 LP  0  0  0  0  0  0  0  0  0  0  0  0  # atno 17371 bound_to 10713
  140.3360  134.2757  155.7220 LP  0  0  0  0  0  0  0  0  0  0  0  0  # atno 17394 bound_to 11000
  141.2076  133.7801  157.0109 LP  0  0  0  0  0  0  0  0  0  0  0  0  # atno 17395 bound_to 11000

$$$$
