AV-unprocessed.smi:2610|AV-procd|sdf|10208|dock1
  -GOLD-   2272014213D 1   1.00000     0.00000
 Structure written by MMmdl.
 45 47  0  0  0  0  0  0  0  0  1 V2000
  150.4883  138.4437  154.0668 C   0  0  0  0  0  0  0  0  0  0  0  0
  151.9280  138.1475  154.5002 C   0  0  0  0  0  0  0  0  0  0  0  0
  152.5112  139.2500  155.3951 C   0  0  0  0  0  0  0  0  0  0  0  0
  152.1123  139.0850  156.8687 C   0  0  0  0  0  0  0  0  0  0  0  0
  152.0446  140.3967  157.5934 C   0  0  0  0  0  0  0  0  0  0  0  0
  152.6743  140.5779  158.7545 N   0  0  0  0  0  0  0  0  0  0  0  0
  152.4330  141.9086  159.0283 C   0  0  0  0  0  0  0  0  0  0  0  0
  152.8421  142.7079  160.1195 C   0  0  0  0  0  0  0  0  0  0  0  0
  152.4890  144.0717  160.1774 C   0  0  0  0  0  0  0  0  0  0  0  0
  151.7263  144.6549  159.1455 C   0  0  0  0  0  0  0  0  0  0  0  0
  151.3063  143.8754  158.0510 C   0  0  0  0  0  0  0  0  0  0  0  0
  151.6525  142.5110  158.0011 C   0  0  0  0  0  0  0  0  0  0  0  0
  151.3991  141.4837  157.0942 N   0  0  0  0  0  0  0  0  0  0  0  0
  150.6322  141.5934  155.8550 C   0  0  0  0  0  0  0  0  0  0  0  0
  149.0978  141.4203  156.0216 C   0  0  0  0  0  0  0  0  0  0  0  0
  148.6331  142.3898  156.9436 O   0  0  0  0  0  0  0  0  0  0  0  0
  148.3219  141.6096  154.7002 C   0  0  0  0  0  0  0  0  0  0  0  0
  146.8364  141.2322  154.8395 C   0  0  0  0  0  0  0  0  0  0  0  0
  146.7150  139.8997  155.3218 O   0  0  0  0  0  0  0  0  0  0  0  0
  147.2691  139.7328  156.6209 C   0  0  0  0  0  0  0  0  0  0  0  0
  148.7807  140.0228  156.5923 C   0  0  0  0  0  0  0  0  0  0  0  0
  150.0998  137.6428  153.4375 H   0  0  0  0  0  0  0  0  0  0  0  0
  150.4312  139.3720  153.4976 H   0  0  0  0  0  0  0  0  0  0  0  0
  149.8286  138.5381  154.9298 H   0  0  0  0  0  0  0  0  0  0  0  0
  151.9538  137.1945  155.0297 H   0  0  0  0  0  0  0  0  0  0  0  0
  152.5527  138.0259  153.6146 H   0  0  0  0  0  0  0  0  0  0  0  0
  153.5987  139.2504  155.3099 H   0  0  0  0  0  0  0  0  0  0  0  0
  152.1731  140.2227  155.0355 H   0  0  0  0  0  0  0  0  0  0  0  0
  151.1608  138.5620  156.9409 H   0  0  0  0  0  0  0  0  0  0  0  0
  152.8393  138.4489  157.3752 H   0  0  0  0  0  0  0  0  0  0  0  0
  153.4328  142.2713  160.9112 H   0  0  0  0  0  0  0  0  0  0  0  0
  152.8092  144.6742  161.0148 H   0  0  0  0  0  0  0  0  0  0  0  0
  151.4643  145.7019  159.1943 H   0  0  0  0  0  0  0  0  0  0  0  0
  150.7259  144.3240  157.2593 H   0  0  0  0  0  0  0  0  0  0  0  0
  150.8441  142.5695  155.4169 H   0  0  0  0  0  0  0  0  0  0  0  0
  151.0179  140.8685  155.1379 H   0  0  0  0  0  0  0  0  0  0  0  0
  148.4577  143.1908  156.4738 H   0  0  0  0  0  0  0  0  0  0  0  0
  148.4063  142.6360  154.3418 H   0  0  0  0  0  0  0  0  0  0  0  0
  148.7620  140.9747  153.9312 H   0  0  0  0  0  0  0  0  0  0  0  0
  146.3147  141.9218  155.5048 H   0  0  0  0  0  0  0  0  0  0  0  0
  146.3441  141.2991  153.8691 H   0  0  0  0  0  0  0  0  0  0  0  0
  146.7566  140.3805  157.3337 H   0  0  0  0  0  0  0  0  0  0  0  0
  147.0939  138.7072  156.9461 H   0  0  0  0  0  0  0  0  0  0  0  0
  149.2652  139.2633  155.9771 H   0  0  0  0  0  0  0  0  0  0  0  0
  149.1992  139.9152  157.5940 H   0  0  0  0  0  0  0  0  0  0  0  0
  1  2  1  0  0  0  0
  1 22  1  0  0  0  0
  1 23  1  0  0  0  0
  1 24  1  0  0  0  0
  2  3  1  0  0  0  0
  2 25  1  0  0  0  0
  2 26  1  0  0  0  0
  3  4  1  0  0  0  0
  3 27  1  0  0  0  0
  3 28  1  0  0  0  0
  4  5  1  0  0  0  0
  4 29  1  0  0  0  0
  4 30  1  0  0  0  0
  5 13  1  0  0  0  0
  5  6  2  0  0  0  0
  6  7  1  0  0  0  0
  7 12  2  0  0  0  0
  7  8  1  0  0  0  0
  8  9  2  0  0  0  0
  8 31  1  0  0  0  0
  9 10  1  0  0  0  0
  9 32  1  0  0  0  0
 10 11  2  0  0  0  0
 10 33  1  0  0  0  0
 11 12  1  0  0  0  0
 11 34  1  0  0  0  0
 12 13  1  0  0  0  0
 13 14  1  0  0  0  0
 14 15  1  0  0  0  0
 14 35  1  0  0  0  0
 14 36  1  0  0  0  0
 15 21  1  0  0  0  0
 15 16  1  0  0  0  0
 15 17  1  0  0  0  0
 16 37  1  0  0  0  0
 17 18  1  0  0  0  0
 17 38  1  0  0  0  0
 17 39  1  0  0  0  0
 18 19  1  0  0  0  0
 18 40  1  0  0  0  0
 18 41  1  0  0  0  0
 19 20  1  0  0  0  0
 20 21  1  0  0  0  0
 20 42  1  0  0  0  0
 20 43  1  0  0  0  0
 21 44  1  0  0  0  0
 21 45  1  0  0  0  0
M  END
> <s_m_source_file>
AV-unprocessed.smi

> <i_m_source_file_index>
2610

> <i_lp_mmshare_version>
43012

> <i_f3d_flags>
0

> <s_epik_input>
W0NIM11bQ0gyXVtDSDJdW0NIMl1jKG4xKW4oYyhjMTIpW2NIXVtjSF1bY0hdW2NIXTIpW0NIMl1DMyhbT0hdKVtDSDJdW0NIMl1PW0NIMl1bQ0gyXTM=

> <s_epik_cmdline>
J2VwaWtfcHl0aG9uJywgJy1waCcsICc3LjAnLCAnLXRuJywgJzgnLCAnLW1hJywgJzIwMCcsICctbWV0YWxfYmluZGluZycsICctaW1hZScsICc8aW5maWxlLm1hZT4nLCAnLW9tYWUnLCAnPG91dGZpbGUubWFlPic=

> <r_epik_Ionization_Penalty>
0.224246

> <r_epik_Ionization_Penalty_Charging>
0

> <r_epik_Ionization_Penalty_Neutral>
0.224246

> <r_epik_State_Penalty>
0.214696

> <r_epik_Charging_Adjusted_Penalty>
0.214696

> <i_epik_Tot_Q>
0

> <i_epik_Tot_abs_Q>
0

> <r_epik_Metal_State_Penalty>
0.000258695

> <b_epik_Metal_Only>
0

> <s_lp_Force_Field>
OPLS_2005

> <r_lp_Energy>
13.1565

> <b_lp_Chiralities_Consistent>
1

> <s_lp_Variant>
AV-unprocessed.smi:2610-1

> <Gold.Version>
5.8.1

> <Gold.Id.Protein>
6NUR|6NUR_protein|mol2

> <Gold.PLP.Fitness>
46.1037

> <Gold.PLP.PLP>
-44.2950

> <Gold.PLP.part.hbond>
-1.0000

> <Gold.PLP.part.metal>
0.0000

> <Gold.PLP.part.buried>
-4.8557

> <Gold.PLP.part.nonpolar>
-38.1695

> <Gold.PLP.part.repulsive>
0.0436

> <Gold.PLP.ligand.clash>
0.0000

> <Gold.PLP.ligand.torsion>
0.7591

> <Gold.PLP.Chemscore.Hbond>
1.0000

> <Gold.PLP.Chemscore.CHOScore>
0.0000

> <Gold.PLP.Chemscore.Metal>
0.0000

> <Gold.Chemscore.Hbonds>
donor molecule, donor type, donor heavy atom, donor atom, acceptor molecule, acceptor atom, score
      L1  H    16    37       P1  8028  1.00

> <Gold.PLP.Chemscore.Internal.Correction>
0.3270

> <Gold.Rescore>
     Score         DG    S(hbond)    S(metal)    S(lipo)     H(rot)  DE(clash)    DE(int)     intcor
     18.02     -18.76       0.97        0.00     127.63       1.91       0.04       0.70       ----

> <Gold.Chemscore.Fitness>
18.0184

> <Gold.Chemscore.DG>
-18.7577

> <Gold.Chemscore.ZeroCoef>
-5.4800

> <Gold.Chemscore.Hbond>
0.9653

> <Gold.Chemscore.Metal>
0.0000

> <Gold.Chemscore.Lipo>
127.6298

> <Gold.Chemscore.Internal_Hbond>
0.0000

> <Gold.Chemscore.DEClash>
0.0397

> <Gold.Chemscore.DEInternal>
0.6997

> <Gold.Chemscore.Rot>
1.9059

> <Gold.Chemscore.Internal.Correction>
   9.000000E+99

> <Gold.Chemscore.Hbonds>
donor molecule, donor type, donor heavy atom, donor atom, acceptor molecule, acceptor atom, score
      L1  H    16    37       P1  8028  0.69

> <Gold.Chemscore.Hbond.Weighted>
-3.2241

> <Gold.Chemscore.Metal.Weighted>
-0.0000

> <Gold.Chemscore.Lipo.Weighted>
-14.9327

> <Gold.Chemscore.Internal_Hbond.Weighted>
0.0000

> <Gold.Chemscore.DEClash.Weighted>
0.0397

> <Gold.Chemscore.DEInternal.Weighted>
0.6997

> <Gold.Chemscore.Rot.Weighted>
4.8790

> <Gold.Chemscore.Internal.Correction.Weighted>
   9.000000E+99

> <Gold.Protein.RotatedTorsions>
[ 6907 6896 6895 6894 ] final -156.14 input  -60.11 | X-H torsion
[ 7974 7965 7964 7962 ] final -169.38 input  175.53 | X-H torsion
[ 8008 7997 7996 7995 ] final -153.62 input   59.86 | X-H torsion
[ 10167 10162 10161 10158 ] final -144.60 input  -65.29 | X-H torsion
[ 10718 10713 10712 10709 ] final   -4.78 input   66.30 | X-H torsion
[ 10763 10752 10751 10750 ] final  128.09 input  -60.55 | X-H torsion
[ 11005 11000 10999 10996 ] final  -68.02 input  -57.11 | X-H torsion

> <Gold.Protein.ActiveResidues>
 VAL166  LYS551  ARG553  GLY616  TRP617  ASP618  TYR619  PRO620  LYS621  CYS622 
 ASP623  PHE694  ASN695  SER759  ASP760  ASP761  ALA762  ILE779  LEU786  VAL792 
 PHE793  MET794  SER795  GLU796  ALA797  LYS798  CYS799  TRP800  GLU811  SER814 

> <Gold.Protein.RotatedAtoms>
  151.2831  133.4200  159.2627 H   0  0  0  0  0  0  0  0  0  0  0  0  # atno 6907 bound_to 6896
  151.0343  134.9562  159.8138 H   0  0  0  0  0  0  0  0  0  0  0  0  # atno 6908 bound_to 6896
  152.5352  134.2791  159.9053 H   0  0  0  0  0  0  0  0  0  0  0  0  # atno 6909 bound_to 6896
  144.7186  140.2230  143.6313 H   0  0  0  0  0  0  0  0  0  0  0  0  # atno 7974 bound_to 7965
  155.6736  140.0736  157.2511 H   0  0  0  0  0  0  0  0  0  0  0  0  # atno 8008 bound_to 7997
  154.4118  140.1694  156.1957 H   0  0  0  0  0  0  0  0  0  0  0  0  # atno 8009 bound_to 7997
  155.9595  140.3371  155.6481 H   0  0  0  0  0  0  0  0  0  0  0  0  # atno 8010 bound_to 7997
  139.7884  143.8001  152.2647 H   0  0  0  0  0  0  0  0  0  0  0  0  # atno 10167 bound_to 10162
  156.7563  130.5255  149.5794 H   0  0  0  0  0  0  0  0  0  0  0  0  # atno 10718 bound_to 10713
  153.7199  135.3255  155.3264 H   0  0  0  0  0  0  0  0  0  0  0  0  # atno 10763 bound_to 10752
  154.8359  135.4497  154.1228 H   0  0  0  0  0  0  0  0  0  0  0  0  # atno 10764 bound_to 10752
  153.2345  135.6964  153.7932 H   0  0  0  0  0  0  0  0  0  0  0  0  # atno 10765 bound_to 10752
  141.1522  133.6731  156.6382 H   0  0  0  0  0  0  0  0  0  0  0  0  # atno 11005 bound_to 11000
  145.8483  139.2163  143.1787 LP  0  0  0  0  0  0  0  0  0  0  0  0  # atno 17320 bound_to 7965
  146.0284  140.8281  142.9888 LP  0  0  0  0  0  0  0  0  0  0  0  0  # atno 17321 bound_to 7965
  139.8085  144.7345  150.9729 LP  0  0  0  0  0  0  0  0  0  0  0  0  # atno 17342 bound_to 10162
  140.7820  143.4274  151.0747 LP  0  0  0  0  0  0  0  0  0  0  0  0  # atno 17343 bound_to 10162
  156.1368  130.6217  151.0411 LP  0  0  0  0  0  0  0  0  0  0  0  0  # atno 17370 bound_to 10713
  157.6754  131.0851  150.7506 LP  0  0  0  0  0  0  0  0  0  0  0  0  # atno 17371 bound_to 10713
  140.3414  134.7846  157.4400 LP  0  0  0  0  0  0  0  0  0  0  0  0  # atno 17394 bound_to 11000
  140.0935  134.5569  155.8421 LP  0  0  0  0  0  0  0  0  0  0  0  0  # atno 17395 bound_to 11000

$$$$
