AV-unprocessed.smi:243|AV-procd|sdf|1861|dock5
  -GOLD-   2262020493D 1   1.00000     0.00000
 Structure written by MMmdl.
 58 61  0  0  0  0  0  0  0  0  2 V2000
  144.3843  132.4802  149.2674 C   0  0  0  0  0  0  0  0  0  0  0  0
  144.2244  132.8898  150.7385 C   0  0  0  0  0  0  0  0  0  0  0  0
  143.4876  134.1722  150.8952 N   0  3  1  0  0  0  0  0  0  0  0  0
  142.9941  134.4063  152.2760 C   0  0  0  0  0  0  0  0  0  0  0  0
  144.1327  134.8172  153.2235 C   0  0  0  0  0  0  0  0  0  0  0  0
  144.8637  136.0684  152.7003 C   0  0  1  0  0  0  0  0  0  0  0  0
  145.9361  136.4689  153.6228 N   0  0  0  0  0  0  0  0  0  0  0  0
  146.1400  137.8708  153.9766 C   0  0  0  0  0  0  0  0  0  0  0  0
  146.7908  135.5380  154.1294 C   0  0  0  0  0  0  0  0  0  0  0  0
  147.3852  135.7817  155.3279 N   0  0  0  0  0  0  0  0  0  0  0  0
  148.2367  134.9004  155.8589 C   0  0  0  0  0  0  0  0  0  0  0  0
  148.6303  133.7246  155.3705 N   0  0  0  0  0  0  0  0  0  0  0  0
  148.0417  133.4669  154.1682 C   0  0  0  0  0  0  0  0  0  0  0  0
  147.1179  134.3082  153.4822 C   0  0  0  0  0  0  0  0  0  0  0  0
  146.7211  133.6933  152.2992 N   0  0  0  0  0  0  0  0  0  0  0  0
  147.3736  132.5641  152.2851 C   0  0  0  0  0  0  0  0  0  0  0  0
  148.2006  132.3514  153.3638 N   0  0  0  0  0  0  0  0  0  0  0  0
  149.0345  131.1832  153.6065 C   0  0  0  0  0  0  0  0  0  0  0  0
  148.2436  129.8935  153.9458 C   0  0  2  0  0  0  0  0  0  0  0  0
  147.6742  130.0179  155.2357 O   0  0  0  0  0  0  0  0  0  0  0  0
  149.0776  128.6121  153.8900 C   0  0  0  0  0  0  0  0  0  0  0  0
  148.7728  128.0691  152.5021 C   0  0  0  0  0  0  0  0  0  0  0  0
  147.3868  128.3316  152.3745 O   0  0  0  0  0  0  0  0  0  0  0  0
  147.1321  129.6252  152.9099 C   0  0  0  0  0  0  0  0  0  0  0  0
  145.3595  135.8402  151.2493 C   0  0  2  0  0  0  0  0  0  0  0  0
  146.0057  137.0999  150.6478 C   0  0  0  0  0  0  0  0  0  0  0  0
  144.1880  135.3696  150.3554 C   0  0  0  0  0  0  0  0  0  0  0  0
  144.8350  131.4902  149.1932 H   0  0  0  0  0  0  0  0  0  0  0  0
  145.0261  133.1675  148.7170 H   0  0  0  0  0  0  0  0  0  0  0  0
  143.4189  132.4406  148.7622 H   0  0  0  0  0  0  0  0  0  0  0  0
  143.6662  132.0984  151.2405 H   0  0  0  0  0  0  0  0  0  0  0  0
  145.1963  132.9329  151.2298 H   0  0  0  0  0  0  0  0  0  0  0  0
  142.2439  135.1976  152.2455 H   0  0  0  0  0  0  0  0  0  0  0  0
  142.4826  133.5195  152.6523 H   0  0  0  0  0  0  0  0  0  0  0  0
  143.7248  135.0166  154.2152 H   0  0  0  0  0  0  0  0  0  0  0  0
  144.8284  133.9859  153.3410 H   0  0  0  0  0  0  0  0  0  0  0  0
  144.1077  136.8531  152.6607 H   0  0  0  0  0  0  0  0  0  0  0  0
  146.4615  137.9695  155.0141 H   0  0  0  0  0  0  0  0  0  0  0  0
  145.2253  138.4507  153.8620 H   0  0  0  0  0  0  0  0  0  0  0  0
  146.8977  138.3178  153.3329 H   0  0  0  0  0  0  0  0  0  0  0  0
  148.6646  135.1775  156.8112 H   0  0  0  0  0  0  0  0  0  0  0  0
  147.2706  131.8513  151.4797 H   0  0  0  0  0  0  0  0  0  0  0  0
  149.6538  131.0202  152.7231 H   0  0  0  0  0  0  0  0  0  0  0  0
  149.7233  131.4240  154.4174 H   0  0  0  0  0  0  0  0  0  0  0  0
  148.3345  130.3519  155.8234 H   0  0  0  0  0  0  0  0  0  0  0  0
  150.1431  128.7542  154.0614 H   0  0  0  0  0  0  0  0  0  0  0  0
  148.7252  127.8906  154.6289 H   0  0  0  0  0  0  0  0  0  0  0  0
  149.3277  128.6117  151.7347 H   0  0  0  0  0  0  0  0  0  0  0  0
  148.9930  127.0056  152.4055 H   0  0  0  0  0  0  0  0  0  0  0  0
  146.1288  129.6614  153.3364 H   0  0  0  0  0  0  0  0  0  0  0  0
  147.1645  130.3502  152.0955 H   0  0  0  0  0  0  0  0  0  0  0  0
  146.1191  135.0593  151.2476 H   0  0  0  0  0  0  0  0  0  0  0  0
  145.3072  137.9370  150.6360 H   0  0  0  0  0  0  0  0  0  0  0  0
  146.3297  136.9231  149.6220 H   0  0  0  0  0  0  0  0  0  0  0  0
  146.8843  137.4084  151.2149 H   0  0  0  0  0  0  0  0  0  0  0  0
  144.5341  135.1831  149.3393 H   0  0  0  0  0  0  0  0  0  0  0  0
  143.4550  136.1734  150.2733 H   0  0  0  0  0  0  0  0  0  0  0  0
  142.6560  134.0600  150.3329 H   0  0  0  0  0  0  0  0  0  0  0  0
  1  2  1  0  0  0  0
  1 28  1  0  0  0  0
  1 29  1  0  0  0  0
  1 30  1  0  0  0  0
  2  3  1  0  0  0  0
  2 31  1  0  0  0  0
  2 32  1  0  0  0  0
  3 27  1  0  0  0  0
  3  4  1  0  0  0  0
  3 58  1  0  0  0  0
  4  5  1  0  0  0  0
  4 33  1  0  0  0  0
  4 34  1  0  0  0  0
  5  6  1  0  0  0  0
  5 35  1  0  0  0  0
  5 36  1  0  0  0  0
  6  7  1  0  0  0  0
  6 25  1  0  0  0  0
  6 37  1  0  0  0  0
  7  8  1  0  0  0  0
  7  9  1  0  0  0  0
  8 38  1  0  0  0  0
  8 39  1  0  0  0  0
  8 40  1  0  0  0  0
  9 14  1  0  0  0  0
  9 10  2  0  0  0  0
 10 11  1  0  0  0  0
 11 12  2  0  0  0  0
 11 41  1  0  0  0  0
 12 13  1  0  0  0  0
 13 17  1  0  0  0  0
 13 14  2  0  0  0  0
 14 15  1  0  0  0  0
 15 16  2  0  0  0  0
 16 17  1  0  0  0  0
 16 42  1  0  0  0  0
 17 18  1  0  0  0  0
 18 19  1  0  0  0  0
 18 43  1  0  0  0  0
 18 44  1  0  0  0  0
 19 24  1  0  0  0  0
 19 20  1  0  0  0  0
 19 21  1  0  0  0  0
 20 45  1  0  0  0  0
 21 22  1  0  0  0  0
 21 46  1  0  0  0  0
 21 47  1  0  0  0  0
 22 23  1  0  0  0  0
 22 48  1  0  0  0  0
 22 49  1  0  0  0  0
 23 24  1  0  0  0  0
 24 50  1  0  0  0  0
 24 51  1  0  0  0  0
 25 26  1  0  0  0  0
 25 27  1  0  0  0  0
 25 52  1  0  0  0  0
 26 53  1  0  0  0  0
 26 54  1  0  0  0  0
 26 55  1  0  0  0  0
 27 56  1  0  0  0  0
 27 57  1  0  0  0  0
M  CHG  1   3   1
M  END
> <s_m_source_file>
AV-unprocessed.smi

> <i_m_source_file_index>
243

> <i_lp_mmshare_version>
43012

> <i_f3d_flags>
0

> <s_epik_input>
W0NIM11bQ0gyXU4xW0NIMl1bQ0gyXVtDQEhdKFtDQEBIXShbQ0gzXSlbQ0gyXTEpTihbQ0gzXSljKG5bY0hdbjIpYyhjMjMpbltjSF1uM1tDSDJdW0NAQF00KFtPSF0pW0NIMl1bQ0gyXU9bQ0gyXTQ=

> <s_epik_cmdline>
J2VwaWtfcHl0aG9uJywgJy1waCcsICc3LjAnLCAnLXRuJywgJzgnLCAnLW1hJywgJzIwMCcsICctbWV0YWxfYmluZGluZycsICctaW1hZScsICc8aW5maWxlLm1hZT4nLCAnLW9tYWUnLCAnPG91dGZpbGUubWFlPic=

> <r_lp_tautomer_probability>
1

> <r_epik_Ionization_Penalty>
0.00253099

> <r_epik_Ionization_Penalty_Charging>
0.00137877

> <r_epik_Ionization_Penalty_Neutral>
0.00115221

> <r_epik_State_Penalty>
-0

> <r_epik_Charging_Adjusted_Penalty>
0.00137877

> <i_epik_Tot_Q>
1

> <i_epik_Tot_abs_Q>
1

> <r_epik_Metal_State_Penalty>
-0

> <b_epik_Metal_Only>
0

> <s_lp_Force_Field>
OPLS_2005

> <r_lp_Energy>
46.8505

> <b_lp_Chiralities_Consistent>
1

> <s_lp_Variant>
AV-unprocessed.smi:243-14

> <Gold.Version>
5.8.1

> <Gold.Id.Protein>
6NUR|6NUR_protein|mol2

> <Gold.PLP.Fitness>
43.3873

> <Gold.PLP.PLP>
-36.4108

> <Gold.PLP.part.hbond>
-1.0000

> <Gold.PLP.part.metal>
0.0000

> <Gold.PLP.part.buried>
0.3964

> <Gold.PLP.part.nonpolar>
-35.7898

> <Gold.PLP.part.repulsive>
0.3258

> <Gold.PLP.ligand.clash>
0.0000

> <Gold.PLP.ligand.torsion>
1.0627

> <Gold.PLP.Chemscore.Hbond>
2.0000

> <Gold.PLP.Chemscore.CHOScore>
0.9910

> <Gold.PLP.Chemscore.Metal>
0.0000

> <Gold.Chemscore.Hbonds>
donor molecule, donor type, donor heavy atom, donor atom, acceptor molecule, acceptor atom, score
      L1  H     3    58       P1 10186  2.00
      L1  C    16    42       P1 10747  0.94

> <Gold.PLP.Chemscore.Internal.Correction>
0.1290

> <Gold.Rescore>
     Score         DG    S(hbond)    S(metal)    S(lipo)     H(rot)  DE(clash)    DE(int)     intcor
      8.39     -13.20       0.95        0.00      87.67       2.24       1.18       3.62       ----

> <Gold.Chemscore.Fitness>
8.3913

> <Gold.Chemscore.DG>
-13.1954

> <Gold.Chemscore.ZeroCoef>
-5.4800

> <Gold.Chemscore.Hbond>
0.9542

> <Gold.Chemscore.Metal>
0.0000

> <Gold.Chemscore.Lipo>
87.6711

> <Gold.Chemscore.Internal_Hbond>
0.0000

> <Gold.Chemscore.DEClash>
1.1805

> <Gold.Chemscore.DEInternal>
3.6235

> <Gold.Chemscore.Rot>
2.2379

> <Gold.Chemscore.Internal.Correction>
   9.000000E+99

> <Gold.Chemscore.Hbonds>
donor molecule, donor type, donor heavy atom, donor atom, acceptor molecule, acceptor atom, score
      L1  H     3    58       P1 10186  0.92

> <Gold.Chemscore.Hbond.Weighted>
-3.1870

> <Gold.Chemscore.Metal.Weighted>
-0.0000

> <Gold.Chemscore.Lipo.Weighted>
-10.2575

> <Gold.Chemscore.Internal_Hbond.Weighted>
0.0000

> <Gold.Chemscore.DEClash.Weighted>
1.1805

> <Gold.Chemscore.DEInternal.Weighted>
3.6235

> <Gold.Chemscore.Rot.Weighted>
5.7291

> <Gold.Chemscore.Internal.Correction.Weighted>
   9.000000E+99

> <Gold.Protein.RotatedTorsions>
[ 6907 6896 6895 6894 ] final   45.16 input  -60.11 | X-H torsion
[ 7974 7965 7964 7962 ] final -144.67 input  175.53 | X-H torsion
[ 8008 7997 7996 7995 ] final  -48.10 input   59.86 | X-H torsion
[ 10167 10162 10161 10158 ] final  158.43 input  -65.29 | X-H torsion
[ 10718 10713 10712 10709 ] final   80.07 input   66.30 | X-H torsion
[ 10763 10752 10751 10750 ] final  -58.41 input  -60.55 | X-H torsion
[ 11005 11000 10999 10996 ] final  -95.14 input  -57.11 | X-H torsion

> <Gold.Protein.ActiveResidues>
 VAL166  LYS551  ARG553  GLY616  TRP617  ASP618  TYR619  PRO620  LYS621  CYS622 
 ASP623  PHE694  ASN695  SER759  ASP760  ASP761  ALA762  ILE779  LEU786  VAL792 
 PHE793  MET794  SER795  GLU796  ALA797  LYS798  CYS799  TRP800  GLU811  SER814 

> <Gold.Protein.RotatedAtoms>
  152.2413  134.8226  160.0459 H   0  0  0  0  0  0  0  0  0  0  0  0  # atno 6907 bound_to 6896
  151.8939  133.3517  159.3816 H   0  0  0  0  0  0  0  0  0  0  0  0  # atno 6908 bound_to 6896
  150.7054  134.4822  159.5520 H   0  0  0  0  0  0  0  0  0  0  0  0  # atno 6909 bound_to 6896
  144.8281  140.5680  143.5533 H   0  0  0  0  0  0  0  0  0  0  0  0  # atno 7974 bound_to 7965
  154.4024  140.1330  156.4284 H   0  0  0  0  0  0  0  0  0  0  0  0  # atno 8008 bound_to 7997
  155.7575  140.3487  155.5161 H   0  0  0  0  0  0  0  0  0  0  0  0  # atno 8009 bound_to 7997
  155.8891  140.1000  157.1422 H   0  0  0  0  0  0  0  0  0  0  0  0  # atno 8010 bound_to 7997
  139.4827  144.4825  151.8423 H   0  0  0  0  0  0  0  0  0  0  0  0  # atno 10167 bound_to 10162
  157.6795  130.9943  150.2025 H   0  0  0  0  0  0  0  0  0  0  0  0  # atno 10718 bound_to 10713
  154.2376  135.6349  153.5196 H   0  0  0  0  0  0  0  0  0  0  0  0  # atno 10763 bound_to 10752
  152.9936  135.5534  154.5945 H   0  0  0  0  0  0  0  0  0  0  0  0  # atno 10764 bound_to 10752
  154.5443  135.2897  155.1042 H   0  0  0  0  0  0  0  0  0  0  0  0  # atno 10765 bound_to 10752
  141.1450  133.8005  157.0394 H   0  0  0  0  0  0  0  0  0  0  0  0  # atno 11005 bound_to 11000
  145.4956  139.1486  143.3685 LP  0  0  0  0  0  0  0  0  0  0  0  0  # atno 17320 bound_to 7965
  146.2585  140.5095  142.8863 LP  0  0  0  0  0  0  0  0  0  0  0  0  # atno 17321 bound_to 7965
  140.4303  144.2125  150.5888 LP  0  0  0  0  0  0  0  0  0  0  0  0  # atno 17342 bound_to 10162
  140.4786  143.2387  151.8987 LP  0  0  0  0  0  0  0  0  0  0  0  0  # atno 17343 bound_to 10162
  156.2713  130.3722  149.8029 LP  0  0  0  0  0  0  0  0  0  0  0  0  # atno 17370 bound_to 10713
  156.5745  130.8439  151.3366 LP  0  0  0  0  0  0  0  0  0  0  0  0  # atno 17371 bound_to 10713
  140.0702  134.9706  157.1455 LP  0  0  0  0  0  0  0  0  0  0  0  0  # atno 17394 bound_to 11000
  140.3721  134.2379  155.7177 LP  0  0  0  0  0  0  0  0  0  0  0  0  # atno 17395 bound_to 11000

$$$$
