AV-unprocessed.smi:54|AV-procd|sdf|541|dock7
  -GOLD-   2262016433D 1   1.00000     0.00000
 Structure written by MMmdl.
 44 46  0  0  0  0  0  0  0  0  1 V2000
  151.4644  145.3815  159.4123 C   0  0  0  0  0  0  0  0  0  0  0  0
  151.2352  144.0735  160.1871 C   0  0  0  0  0  0  0  0  0  0  0  0
  152.0470  144.0481  161.4921 C   0  0  0  0  0  0  0  0  0  0  0  0
  151.5782  142.8601  159.3152 C   0  0  0  0  0  0  0  0  0  0  0  0
  152.6542  142.2691  159.4140 O   0  0  0  0  0  0  0  0  0  0  0  0
  150.5465  142.4584  158.3754 N   0  0  0  0  0  0  0  0  0  0  0  0
  150.5879  141.4297  157.4969 C   0  0  0  0  0  0  0  0  0  0  0  0
  149.5572  141.0761  156.7419 N   0  0  0  0  0  0  0  0  0  0  0  0
  149.7928  140.0079  155.9216 C   0  0  0  0  0  0  0  0  0  0  0  0
  150.9678  139.2931  155.8191 C   0  0  0  0  0  0  0  0  0  0  0  0
  150.8310  138.2782  154.8787 N   0  0  0  0  0  0  0  0  0  0  0  0
  149.6057  138.4057  154.4519 C   0  0  0  0  0  0  0  0  0  0  0  0
  148.9073  139.4396  155.0309 N   0  0  0  0  0  0  0  0  0  0  0  0
  147.4959  139.8828  154.7925 C   0  0  2  0  0  0  0  0  0  0  0  0
  146.6983  138.7367  154.7660 O   0  0  0  0  0  0  0  0  0  0  0  0
  146.0048  138.6230  153.5242 C   0  0  2  0  0  0  0  0  0  0  0  0
  145.8014  137.1469  153.1390 C   0  0  0  0  0  0  0  0  0  0  0  0
  144.8654  137.0448  152.0872 O   0  0  0  0  0  0  0  0  0  0  0  0
  146.8275  139.4610  152.5346 C   0  0  2  0  0  0  0  0  0  0  0  0
  147.8771  138.7036  151.9548 O   0  0  0  0  0  0  0  0  0  0  0  0
  147.3364  140.5824  153.4298 C   0  0  2  0  0  0  0  0  0  0  0  0
  148.4988  141.2167  152.9247 O   0  0  0  0  0  0  0  0  0  0  0  0
  152.0906  139.6598  156.6326 C   0  0  0  0  0  0  0  0  0  0  0  0
  153.2035  139.1399  156.6744 O   0  0  0  0  0  0  0  0  0  0  0  0
  151.8093  140.7567  157.4575 N   0  0  0  0  0  0  0  0  0  0  0  0
  147.2537  140.5182  155.6452 H   0  0  0  0  0  0  0  0  0  0  0  0
  145.0365  139.1129  153.6423 H   0  0  0  0  0  0  0  0  0  0  0  0
  146.2068  139.8455  151.7247 H   0  0  0  0  0  0  0  0  0  0  0  0
  146.5499  141.3299  153.5415 H   0  0  0  0  0  0  0  0  0  0  0  0
  150.8981  145.3955  158.4801 H   0  0  0  0  0  0  0  0  0  0  0  0
  152.5173  145.5224  159.1644 H   0  0  0  0  0  0  0  0  0  0  0  0
  151.1465  146.2429  160.0002 H   0  0  0  0  0  0  0  0  0  0  0  0
  150.1770  144.0182  160.4466 H   0  0  0  0  0  0  0  0  0  0  0  0
  151.8813  143.1223  162.0446 H   0  0  0  0  0  0  0  0  0  0  0  0
  151.7604  144.8729  162.1447 H   0  0  0  0  0  0  0  0  0  0  0  0
  153.1176  144.1354  161.3013 H   0  0  0  0  0  0  0  0  0  0  0  0
  149.6961  143.0015  158.3964 H   0  0  0  0  0  0  0  0  0  0  0  0
  149.1826  137.7498  153.7052 H   0  0  0  0  0  0  0  0  0  0  0  0
  146.7386  136.7187  152.7824 H   0  0  0  0  0  0  0  0  0  0  0  0
  145.4757  136.5533  153.9937 H   0  0  0  0  0  0  0  0  0  0  0  0
  144.9138  137.8305  151.5645 H   0  0  0  0  0  0  0  0  0  0  0  0
  148.3509  139.2611  151.3563 H   0  0  0  0  0  0  0  0  0  0  0  0
  148.8574  140.6725  152.2400 H   0  0  0  0  0  0  0  0  0  0  0  0
  152.5565  141.0709  158.0590 H   0  0  0  0  0  0  0  0  0  0  0  0
  1  2  1  0  0  0  0
  1 30  1  0  0  0  0
  1 31  1  0  0  0  0
  1 32  1  0  0  0  0
  2  3  1  0  0  0  0
  2  4  1  0  0  0  0
  2 33  1  0  0  0  0
  3 34  1  0  0  0  0
  3 35  1  0  0  0  0
  3 36  1  0  0  0  0
  4  5  2  0  0  0  0
  4  6  1  0  0  0  0
  6 37  1  0  0  0  0
  6  7  1  0  0  0  0
  7 25  1  0  0  0  0
  7  8  2  0  0  0  0
  8  9  1  0  0  0  0
  9 13  1  0  0  0  0
  9 10  2  0  0  0  0
 10 11  1  0  0  0  0
 10 23  1  0  0  0  0
 11 12  2  0  0  0  0
 12 13  1  0  0  0  0
 12 38  1  0  0  0  0
 13 14  1  0  0  0  0
 14 26  1  0  0  0  0
 14 21  1  0  0  0  0
 14 15  1  0  0  0  0
 15 16  1  0  0  0  0
 16 27  1  0  0  0  0
 16 17  1  0  0  0  0
 16 19  1  0  0  0  0
 17 18  1  0  0  0  0
 17 39  1  0  0  0  0
 17 40  1  0  0  0  0
 18 41  1  0  0  0  0
 19 28  1  0  0  0  0
 19 20  1  0  0  0  0
 19 21  1  0  0  0  0
 20 42  1  0  0  0  0
 21 29  1  0  0  0  0
 21 22  1  0  0  0  0
 22 43  1  0  0  0  0
 23 24  2  0  0  0  0
 23 25  1  0  0  0  0
 25 44  1  0  0  0  0
M  END
> <s_m_source_file>
AV-unprocessed.smi

> <i_m_source_file_index>
54

> <i_lp_mmshare_version>
43012

> <i_f3d_flags>
0

> <s_epik_input>
W0NIM11bQ0hdKFtDSDNdKUMoPU8pW05IXWMobjEpW25IXWMoPU8pYyhjMTIpbltjSF1uMltDQEBIXTNPW0NASF0oW0NIMl1bT0hdKVtDQEBIXShbT0hdKVtDQEhdM1tPSF0=

> <s_epik_cmdline>
J2VwaWtfcHl0aG9uJywgJy1waCcsICc3LjAnLCAnLXRuJywgJzgnLCAnLW1hJywgJzIwMCcsICctbWV0YWxfYmluZGluZycsICctaW1hZScsICc8aW5maWxlLm1hZT4nLCAnLW9tYWUnLCAnPG91dGZpbGUubWFlPic=

> <r_lp_tautomer_probability>
0.85571

> <r_epik_Ionization_Penalty>
0.0316551

> <r_epik_Ionization_Penalty_Charging>
0.0316043

> <r_epik_Ionization_Penalty_Neutral>
5.07097e-05

> <r_epik_State_Penalty>
3.15494e-07

> <r_epik_Charging_Adjusted_Penalty>
0.0316047

> <i_epik_Tot_Q>
0

> <i_epik_Tot_abs_Q>
0

> <r_epik_Metal_State_Penalty>
0.421206

> <b_epik_Metal_Only>
0

> <s_epik_Chemistry_Notes>
This compound contains an acetal/aminal-like group ( X-CH(R)-Y where X, Y are N, S, or O) that may be acid/base labile, releasing an aldehyde.

> <s_lp_Force_Field>
OPLS_2005

> <r_lp_Energy>
46.8633

> <b_lp_Chiralities_Consistent>
1

> <s_lp_Variant>
AV-unprocessed.smi:54-13

> <Gold.Version>
5.8.1

> <Gold.Id.Protein>
6NUR|6NUR_protein|mol2

> <Gold.PLP.Fitness>
46.2593

> <Gold.PLP.PLP>
-35.0371

> <Gold.PLP.part.hbond>
-5.5931

> <Gold.PLP.part.metal>
0.0000

> <Gold.PLP.part.buried>
-3.8753

> <Gold.PLP.part.nonpolar>
-27.1829

> <Gold.PLP.part.repulsive>
0.4286

> <Gold.PLP.ligand.clash>
0.0000

> <Gold.PLP.ligand.torsion>
1.0551

> <Gold.PLP.Chemscore.Hbond>
3.3689

> <Gold.PLP.Chemscore.CHOScore>
1.0000

> <Gold.PLP.Chemscore.Metal>
0.0000

> <Gold.Chemscore.Hbonds>
donor molecule, donor type, donor heavy atom, donor atom, acceptor molecule, acceptor atom, score
      L1  H    18    41       P1 10171  0.45
      L1  H    20    42       P1  7957  0.74
      L1  H    22    43       P1  7957  0.80
      P1  H  7997  8008       L1    24  0.91
      P1  H  8011  8017       L1    22  0.14
      L1  C    12    38       P1  7948  1.00

> <Gold.PLP.Chemscore.Internal.Correction>
0.2258

> <Gold.Rescore>
     Score         DG    S(hbond)    S(metal)    S(lipo)     H(rot)  DE(clash)    DE(int)     intcor
     10.70     -12.88       3.16        0.00      61.78       4.05       0.79       1.39       ----

> <Gold.Chemscore.Fitness>
10.7005

> <Gold.Chemscore.DG>
-12.8809

> <Gold.Chemscore.ZeroCoef>
-5.4800

> <Gold.Chemscore.Hbond>
3.1553

> <Gold.Chemscore.Metal>
0.0000

> <Gold.Chemscore.Lipo>
61.7810

> <Gold.Chemscore.Internal_Hbond>
0.0000

> <Gold.Chemscore.DEClash>
0.7912

> <Gold.Chemscore.DEInternal>
1.3892

> <Gold.Chemscore.Rot>
4.0493

> <Gold.Chemscore.Internal.Correction>
   9.000000E+99

> <Gold.Chemscore.Hbonds>
donor molecule, donor type, donor heavy atom, donor atom, acceptor molecule, acceptor atom, score
      L1  H    18    41       P1 10171  0.46
      L1  H    20    42       P1  7957  0.56
      L1  H    22    43       P1  7957  0.79
      P1  H  7997  8008       L1    24  0.81

> <Gold.Chemscore.Hbond.Weighted>
-10.5388

> <Gold.Chemscore.Metal.Weighted>
-0.0000

> <Gold.Chemscore.Lipo.Weighted>
-7.2284

> <Gold.Chemscore.Internal_Hbond.Weighted>
0.0000

> <Gold.Chemscore.DEClash.Weighted>
0.7912

> <Gold.Chemscore.DEInternal.Weighted>
1.3892

> <Gold.Chemscore.Rot.Weighted>
10.3662

> <Gold.Chemscore.Internal.Correction.Weighted>
   9.000000E+99

> <Gold.Protein.RotatedTorsions>
[ 6907 6896 6895 6894 ] final  170.29 input  -60.11 | X-H torsion
[ 7974 7965 7964 7962 ] final   20.56 input  175.53 | X-H torsion
[ 8008 7997 7996 7995 ] final  -56.12 input   59.86 | X-H torsion
[ 10167 10162 10161 10158 ] final -167.65 input  -65.29 | X-H torsion
[ 10718 10713 10712 10709 ] final  -48.71 input   66.30 | X-H torsion
[ 10763 10752 10751 10750 ] final -133.35 input  -60.55 | X-H torsion
[ 11005 11000 10999 10996 ] final  100.89 input  -57.11 | X-H torsion

> <Gold.Protein.ActiveResidues>
 VAL166  LYS551  ARG553  GLY616  TRP617  ASP618  TYR619  PRO620  LYS621  CYS622 
 ASP623  PHE694  ASN695  SER759  ASP760  ASP761  ALA762  ILE779  LEU786  VAL792 
 PHE793  MET794  SER795  GLU796  ALA797  LYS798  CYS799  TRP800  GLU811  SER814 

> <Gold.Protein.RotatedAtoms>
  151.8185  133.3391  159.3576 H   0  0  0  0  0  0  0  0  0  0  0  0  # atno 6907 bound_to 6896
  150.7302  134.5596  159.5845 H   0  0  0  0  0  0  0  0  0  0  0  0  # atno 6908 bound_to 6896
  152.3023  134.7597  160.0406 H   0  0  0  0  0  0  0  0  0  0  0  0  # atno 6909 bound_to 6896
  146.2107  139.8153  142.8691 H   0  0  0  0  0  0  0  0  0  0  0  0  # atno 7974 bound_to 7965
  154.4218  140.1137  156.5586 H   0  0  0  0  0  0  0  0  0  0  0  0  # atno 8008 bound_to 7997
  155.6335  140.3496  155.4672 H   0  0  0  0  0  0  0  0  0  0  0  0  # atno 8009 bound_to 7997
  155.9929  140.1183  157.0611 H   0  0  0  0  0  0  0  0  0  0  0  0  # atno 8010 bound_to 7997
  139.6036  144.0960  152.1769 H   0  0  0  0  0  0  0  0  0  0  0  0  # atno 10167 bound_to 10162
  156.1962  130.4154  149.9303 H   0  0  0  0  0  0  0  0  0  0  0  0  # atno 10718 bound_to 10713
  154.8733  135.3769  154.4559 H   0  0  0  0  0  0  0  0  0  0  0  0  # atno 10763 bound_to 10752
  153.5231  135.7028  153.5726 H   0  0  0  0  0  0  0  0  0  0  0  0  # atno 10764 bound_to 10752
  153.3964  135.3959  155.1924 H   0  0  0  0  0  0  0  0  0  0  0  0  # atno 10765 bound_to 10752
  139.8772  134.9159  156.4823 H   0  0  0  0  0  0  0  0  0  0  0  0  # atno 11005 bound_to 11000
  145.3153  141.0230  143.3531 LP  0  0  0  0  0  0  0  0  0  0  0  0  # atno 17320 bound_to 7965
  144.8906  139.4780  143.6680 LP  0  0  0  0  0  0  0  0  0  0  0  0  # atno 17321 bound_to 7965
  140.0562  144.5893  150.7298 LP  0  0  0  0  0  0  0  0  0  0  0  0  # atno 17342 bound_to 10162
  140.7268  143.2645  151.4092 LP  0  0  0  0  0  0  0  0  0  0  0  0  # atno 17343 bound_to 10162
  156.7027  130.8939  151.3601 LP  0  0  0  0  0  0  0  0  0  0  0  0  # atno 17370 bound_to 10713
  157.6959  130.9281  150.0643 LP  0  0  0  0  0  0  0  0  0  0  0  0  # atno 17371 bound_to 10713
  140.8718  133.7983  155.9372 LP  0  0  0  0  0  0  0  0  0  0  0  0  # atno 17394 bound_to 11000
  140.8945  134.2455  157.5076 LP  0  0  0  0  0  0  0  0  0  0  0  0  # atno 17395 bound_to 11000

$$$$
