AV-unprocessed.smi:1019|AV-procd|sdf|4449|dock4
  -GOLD-   22720 2413D 1   1.00000     0.00000
 Structure written by MMmdl.
 45 47  0  0  0  0  0  0  0  0  3 V2000
  146.1782  139.6219  155.0719 C   0  0  0  0  0  0  0  0  0  0  0  0
  146.5092  139.7367  153.6328 N   0  3  1  0  0  0  0  0  0  0  0  0
  147.3045  140.9563  153.3453 C   0  0  0  0  0  0  0  0  0  0  0  0
  148.5411  141.0435  154.2233 C   0  0  0  0  0  0  0  0  0  0  0  0
  149.7754  140.5488  153.7516 C   0  0  0  0  0  0  0  0  0  0  0  0
  150.9226  140.6165  154.5656 C   0  0  0  0  0  0  0  0  0  0  0  0
  150.8413  141.1820  155.8525 C   0  0  0  0  0  0  0  0  0  0  0  0
  149.6125  141.6814  156.3254 C   0  0  0  0  0  0  0  0  0  0  0  0
  148.4645  141.6136  155.5122 C   0  0  0  0  0  0  0  0  0  0  0  0
  147.1092  138.4924  153.0814 C   0  0  0  0  0  0  0  0  0  0  0  0
  146.0997  137.6756  152.2516 C   0  0  1  0  0  0  0  0  0  0  0  0
  146.1694  138.0934  150.9006 O   0  0  0  0  0  0  0  0  0  0  0  0
  146.3992  136.1648  152.3215 C   0  0  0  0  0  0  0  0  0  0  0  0
  145.3032  135.3389  151.7972 N   0  0  0  0  0  0  0  0  0  0  0  0
  144.0951  135.7086  151.2906 C   0  0  0  0  0  0  0  0  0  0  0  0
  143.4304  134.5722  150.9420 N   0  3  0  0  0  0  0  0  0  0  0  0
  144.2253  133.4603  151.2282 C   0  0  0  0  0  0  0  0  0  0  0  0
  143.9879  132.1003  151.0541 C   0  0  0  0  0  0  0  0  0  0  0  0
  145.0159  131.2220  151.4552 C   0  0  0  0  0  0  0  0  0  0  0  0
  146.2225  131.7044  152.0032 C   0  0  0  0  0  0  0  0  0  0  0  0
  146.4528  133.0855  152.1753 C   0  0  0  0  0  0  0  0  0  0  0  0
  145.4309  133.9463  151.7771 C   0  0  0  0  0  0  0  0  0  0  0  0
  147.0818  139.5127  155.6732 H   0  0  0  0  0  0  0  0  0  0  0  0
  145.5355  138.7631  155.2643 H   0  0  0  0  0  0  0  0  0  0  0  0
  145.6457  140.5091  155.4165 H   0  0  0  0  0  0  0  0  0  0  0  0
  147.6416  140.9439  152.3076 H   0  0  0  0  0  0  0  0  0  0  0  0
  146.6827  141.8456  153.4605 H   0  0  0  0  0  0  0  0  0  0  0  0
  149.8456  140.1123  152.7659 H   0  0  0  0  0  0  0  0  0  0  0  0
  151.8658  140.2350  154.2030 H   0  0  0  0  0  0  0  0  0  0  0  0
  151.7216  141.2339  156.4762 H   0  0  0  0  0  0  0  0  0  0  0  0
  149.5503  142.1157  157.3124 H   0  0  0  0  0  0  0  0  0  0  0  0
  147.5255  141.9974  155.8837 H   0  0  0  0  0  0  0  0  0  0  0  0
  147.9671  138.7195  152.4483 H   0  0  0  0  0  0  0  0  0  0  0  0
  147.5033  137.8928  153.9036 H   0  0  0  0  0  0  0  0  0  0  0  0
  145.0852  137.8498  152.6102 H   0  0  0  0  0  0  0  0  0  0  0  0
  145.3428  138.4778  150.6522 H   0  0  0  0  0  0  0  0  0  0  0  0
  147.2915  135.9284  151.7398 H   0  0  0  0  0  0  0  0  0  0  0  0
  146.6071  135.8529  153.3458 H   0  0  0  0  0  0  0  0  0  0  0  0
  143.7279  136.7198  151.1881 H   0  0  0  0  0  0  0  0  0  0  0  0
  143.0651  131.7278  150.6339 H   0  0  0  0  0  0  0  0  0  0  0  0
  144.8761  130.1569  151.3396 H   0  0  0  0  0  0  0  0  0  0  0  0
  146.9872  130.9999  152.2971 H   0  0  0  0  0  0  0  0  0  0  0  0
  147.3803  133.4448  152.5955 H   0  0  0  0  0  0  0  0  0  0  0  0
  145.6336  139.8699  153.1480 H   0  0  0  0  0  0  0  0  0  0  0  0
  142.5021  134.5598  150.5390 H   0  0  0  0  0  0  0  0  0  0  0  0
  1  2  1  0  0  0  0
  1 23  1  0  0  0  0
  1 24  1  0  0  0  0
  1 25  1  0  0  0  0
  2  3  1  0  0  0  0
  2 10  1  0  0  0  0
  2 44  1  0  0  0  0
  3  4  1  0  0  0  0
  3 26  1  0  0  0  0
  3 27  1  0  0  0  0
  4  9  1  0  0  0  0
  4  5  2  0  0  0  0
  5  6  1  0  0  0  0
  5 28  1  0  0  0  0
  6  7  2  0  0  0  0
  6 29  1  0  0  0  0
  7  8  1  0  0  0  0
  7 30  1  0  0  0  0
  8  9  2  0  0  0  0
  8 31  1  0  0  0  0
  9 32  1  0  0  0  0
 10 11  1  0  0  0  0
 10 33  1  0  0  0  0
 10 34  1  0  0  0  0
 11 12  1  0  0  0  0
 11 13  1  0  0  0  0
 11 35  1  0  0  0  0
 12 36  1  0  0  0  0
 13 14  1  0  0  0  0
 13 37  1  0  0  0  0
 13 38  1  0  0  0  0
 14 22  1  0  0  0  0
 14 15  1  0  0  0  0
 15 16  2  0  0  0  0
 15 39  1  0  0  0  0
 16 17  1  0  0  0  0
 16 45  1  0  0  0  0
 17 22  2  0  0  0  0
 17 18  1  0  0  0  0
 18 19  2  0  0  0  0
 18 40  1  0  0  0  0
 19 20  1  0  0  0  0
 19 41  1  0  0  0  0
 20 21  2  0  0  0  0
 20 42  1  0  0  0  0
 21 22  1  0  0  0  0
 21 43  1  0  0  0  0
M  CHG  1   2   1
M  CHG  1  16   1
M  END
> <s_m_source_file>
AV-unprocessed.smi

> <i_m_source_file_index>
1019

> <i_lp_mmshare_version>
43012

> <i_f3d_flags>
0

> <s_epik_input>
W2NIXTFbY0hdW2NIXVtjSF1bY0hdYzFbQ0gyXU4oW0NIM10pW0NIMl1bQ0BIXShbT0hdKVtDSDJdbihbY0hdbjIpYyhjMjMpW2NIXVtjSF1bY0hdW2NIXTM=

> <s_epik_cmdline>
J2VwaWtfcHl0aG9uJywgJy1waCcsICc3LjAnLCAnLXRuJywgJzgnLCAnLW1hJywgJzIwMCcsICctbWV0YWxfYmluZGluZycsICctaW1hZScsICc8aW5maWxlLm1hZT4nLCAnLW9tYWUnLCAnPG91dGZpbGUubWFlPic=

> <r_epik_Ionization_Penalty>
1.5198

> <r_epik_Ionization_Penalty_Charging>
1.5198

> <r_epik_Ionization_Penalty_Neutral>
3.13312e-06

> <r_epik_State_Penalty>
1.624

> <r_epik_Charging_Adjusted_Penalty>
3.1438

> <i_epik_Tot_Q>
2

> <i_epik_Tot_abs_Q>
2

> <r_epik_Metal_State_Penalty>
5.67392

> <b_epik_Metal_Only>
0

> <s_lp_Force_Field>
OPLS_2005

> <r_lp_Energy>
24.7474

> <b_lp_Chiralities_Consistent>
1

> <s_lp_Variant>
AV-unprocessed.smi:1019-7

> <Gold.Version>
5.8.1

> <Gold.Id.Protein>
6NUR|6NUR_protein|mol2

> <Gold.PLP.Fitness>
58.1286

> <Gold.PLP.PLP>
-39.8782

> <Gold.PLP.part.hbond>
-4.4955

> <Gold.PLP.part.metal>
0.0000

> <Gold.PLP.part.buried>
0.4770

> <Gold.PLP.part.nonpolar>
-35.8074

> <Gold.PLP.part.repulsive>
0.0338

> <Gold.PLP.ligand.clash>
0.0000

> <Gold.PLP.ligand.torsion>
1.5489

> <Gold.PLP.Chemscore.Hbond>
6.0000

> <Gold.PLP.Chemscore.CHOScore>
1.0000

> <Gold.PLP.Chemscore.Metal>
0.0000

> <Gold.Chemscore.Hbonds>
donor molecule, donor type, donor heavy atom, donor atom, acceptor molecule, acceptor atom, score
      L1  H     2    44       P1 10175  1.40
      L1  H    12    36       P1 10171  1.00
      L1  H    16    45       P1 10186  2.00
      P1  H  7954  7966       L1    12  0.47
      L1  C    15    39       P1 10171  1.00

> <Gold.PLP.Chemscore.Internal.Correction>
0.3482

> <Gold.Rescore>
     Score         DG    S(hbond)    S(metal)    S(lipo)     H(rot)  DE(clash)    DE(int)     intcor
     20.35     -24.02       3.76        0.00     104.86       2.46       2.10       1.57       ----

> <Gold.Chemscore.Fitness>
20.3521

> <Gold.Chemscore.DG>
-24.0250

> <Gold.Chemscore.ZeroCoef>
-5.4800

> <Gold.Chemscore.Hbond>
3.7610

> <Gold.Chemscore.Metal>
0.0000

> <Gold.Chemscore.Lipo>
104.8592

> <Gold.Chemscore.Internal_Hbond>
0.0000

> <Gold.Chemscore.DEClash>
2.1028

> <Gold.Chemscore.DEInternal>
1.5700

> <Gold.Chemscore.Rot>
2.4552

> <Gold.Chemscore.Internal.Correction>
   9.000000E+99

> <Gold.Chemscore.Hbonds>
donor molecule, donor type, donor heavy atom, donor atom, acceptor molecule, acceptor atom, score
      L1  H     2    44       P1 10175  0.69
      L1  H    12    36       P1 10171  0.99
      L1  H    16    45       P1 10186  0.26
      P1  H  7954  7966       L1    12  0.43

> <Gold.Chemscore.Hbond.Weighted>
-12.5619

> <Gold.Chemscore.Metal.Weighted>
-0.0000

> <Gold.Chemscore.Lipo.Weighted>
-12.2685

> <Gold.Chemscore.Internal_Hbond.Weighted>
0.0000

> <Gold.Chemscore.DEClash.Weighted>
2.1028

> <Gold.Chemscore.DEInternal.Weighted>
1.5700

> <Gold.Chemscore.Rot.Weighted>
6.2854

> <Gold.Chemscore.Internal.Correction.Weighted>
   9.000000E+99

> <Gold.Protein.RotatedTorsions>
[ 6907 6896 6895 6894 ] final -103.31 input  -60.11 | X-H torsion
[ 7974 7965 7964 7962 ] final -108.53 input  175.53 | X-H torsion
[ 8008 7997 7996 7995 ] final  -79.69 input   59.86 | X-H torsion
[ 10167 10162 10161 10158 ] final   55.66 input  -65.29 | X-H torsion
[ 10718 10713 10712 10709 ] final  -21.19 input   66.30 | X-H torsion
[ 10763 10752 10751 10750 ] final  115.38 input  -60.55 | X-H torsion
[ 11005 11000 10999 10996 ] final  104.54 input  -57.11 | X-H torsion

> <Gold.Protein.ActiveResidues>
 VAL166  LYS551  ARG553  GLY616  TRP617  ASP618  TYR619  PRO620  LYS621  CYS622 
 ASP623  PHE694  ASN695  SER759  ASP760  ASP761  ALA762  ILE779  LEU786  VAL792 
 PHE793  MET794  SER795  GLU796  ALA797  LYS798  CYS799  TRP800  GLU811  SER814 

> <Gold.Protein.RotatedAtoms>
  150.7235  134.0448  159.3777 H   0  0  0  0  0  0  0  0  0  0  0  0  # atno 6907 bound_to 6896
  151.8423  135.0584  160.0459 H   0  0  0  0  0  0  0  0  0  0  0  0  # atno 6908 bound_to 6896
  152.2853  133.5473  159.5560 H   0  0  0  0  0  0  0  0  0  0  0  0  # atno 6909 bound_to 6896
  145.1918  140.9018  143.3420 H   0  0  0  0  0  0  0  0  0  0  0  0  # atno 7974 bound_to 7965
  154.5810  140.0674  156.9104 H   0  0  0  0  0  0  0  0  0  0  0  0  # atno 8008 bound_to 7997
  155.2463  140.3348  155.4268 H   0  0  0  0  0  0  0  0  0  0  0  0  # atno 8009 bound_to 7997
  156.2189  140.1790  156.7509 H   0  0  0  0  0  0  0  0  0  0  0  0  # atno 8010 bound_to 7997
  140.2171  144.3828  150.6465 H   0  0  0  0  0  0  0  0  0  0  0  0  # atno 10167 bound_to 10162
  156.5215  130.4633  149.6594 H   0  0  0  0  0  0  0  0  0  0  0  0  # atno 10718 bound_to 10713
  153.5214  135.3597  155.2633 H   0  0  0  0  0  0  0  0  0  0  0  0  # atno 10763 bound_to 10752
  154.8735  135.4046  154.3256 H   0  0  0  0  0  0  0  0  0  0  0  0  # atno 10764 bound_to 10752
  153.3927  135.7072  153.6550 H   0  0  0  0  0  0  0  0  0  0  0  0  # atno 10765 bound_to 10752
  139.8793  134.9304  156.5377 H   0  0  0  0  0  0  0  0  0  0  0  0  # atno 11005 bound_to 11000
  145.0034  139.3577  143.6156 LP  0  0  0  0  0  0  0  0  0  0  0  0  # atno 17320 bound_to 7965
  146.3435  139.9267  142.8759 LP  0  0  0  0  0  0  0  0  0  0  0  0  # atno 17321 bound_to 7965
  140.6282  143.2184  151.6552 LP  0  0  0  0  0  0  0  0  0  0  0  0  # atno 17342 bound_to 10162
  139.5158  144.3367  152.0777 LP  0  0  0  0  0  0  0  0  0  0  0  0  # atno 17343 bound_to 10162
  156.3145  130.7247  151.2146 LP  0  0  0  0  0  0  0  0  0  0  0  0  # atno 17370 bound_to 10713
  157.7436  131.0472  150.4933 LP  0  0  0  0  0  0  0  0  0  0  0  0  # atno 17371 bound_to 10713
  140.8334  133.8261  155.9005 LP  0  0  0  0  0  0  0  0  0  0  0  0  # atno 17394 bound_to 11000
  140.9307  134.2025  157.4865 LP  0  0  0  0  0  0  0  0  0  0  0  0  # atno 17395 bound_to 11000

$$$$
