AV-unprocessed.smi:767|AV-procd|sdf|3659|dock6
  -GOLD-   22720 1 73D 1   1.00000     0.00000
 Structure written by MMmdl.
 47 49  0  0  0  0  0  0  0  0  1 V2000
  153.4523  143.1246  163.1139 C   0  0  0  0  0  0  0  0  0  0  0  0
  152.8455  143.1178  161.7265 C   0  0  0  0  0  0  0  0  0  0  0  0
  153.2310  142.1501  160.7752 C   0  0  0  0  0  0  0  0  0  0  0  0
  152.6384  142.1924  159.4989 C   0  0  0  0  0  0  0  0  0  0  0  0
  151.6839  143.1931  159.2241 C   0  0  0  0  0  0  0  0  0  0  0  0
  151.0021  143.2689  157.8688 C   0  0  0  0  0  0  0  0  0  0  0  0
  149.6649  142.5035  157.8094 C   0  0  0  0  0  0  0  0  0  0  0  0
  148.5066  143.3702  158.0028 N   0  0  0  0  0  0  0  0  0  0  0  0
  147.3902  143.0306  158.6607 C   0  0  0  0  0  0  0  0  0  0  0  0
  147.1910  141.9238  159.1614 O   0  0  0  0  0  0  0  0  0  0  0  0
  146.5268  144.0518  158.7238 N   0  0  0  0  0  0  0  0  0  0  0  0
  145.2341  144.0161  159.4089 C   0  0  2  0  0  0  0  0  0  0  0  0
  144.3615  145.2544  159.1017 C   0  0  2  0  0  0  0  0  0  0  0  0
  144.6986  146.2453  158.0141 C   0  0  0  0  0  0  0  0  0  0  0  0
  145.4260  147.3556  158.7784 C   0  0  0  0  0  0  0  0  0  0  0  0
  145.8611  146.7432  159.9907 O   0  0  0  0  0  0  0  0  0  0  0  0
  144.8412  145.8430  160.4183 C   0  0  2  0  0  0  0  0  0  0  0  0
  145.3117  144.4539  160.8974 C   0  0  0  0  0  0  0  0  0  0  0  0
  144.3147  143.7373  161.8126 C   0  0  0  0  0  0  0  0  0  0  0  0
  146.6650  144.4093  161.6192 C   0  0  0  0  0  0  0  0  0  0  0  0
  151.3715  144.1155  160.2445 C   0  0  0  0  0  0  0  0  0  0  0  0
  151.9362  144.0845  161.4709 N   0  0  0  0  0  0  0  0  0  0  0  0
  153.9438  142.1761  163.3319 H   0  0  0  0  0  0  0  0  0  0  0  0
  152.6842  143.2884  163.8705 H   0  0  0  0  0  0  0  0  0  0  0  0
  154.1926  143.9205  163.1967 H   0  0  0  0  0  0  0  0  0  0  0  0
  153.9617  141.3917  161.0151 H   0  0  0  0  0  0  0  0  0  0  0  0
  152.9078  141.4644  158.7482 H   0  0  0  0  0  0  0  0  0  0  0  0
  150.8384  144.3164  157.6141 H   0  0  0  0  0  0  0  0  0  0  0  0
  151.6810  142.8784  157.1098 H   0  0  0  0  0  0  0  0  0  0  0  0
  149.5578  142.0392  156.8289 H   0  0  0  0  0  0  0  0  0  0  0  0
  149.6566  141.6909  158.5374 H   0  0  0  0  0  0  0  0  0  0  0  0
  148.5742  144.3074  157.6340 H   0  0  0  0  0  0  0  0  0  0  0  0
  146.7867  144.9259  158.2908 H   0  0  0  0  0  0  0  0  0  0  0  0
  144.6862  143.0831  159.2629 H   0  0  0  0  0  0  0  0  0  0  0  0
  143.3011  145.0016  159.1500 H   0  0  0  0  0  0  0  0  0  0  0  0
  145.3345  145.8107  157.2433 H   0  0  0  0  0  0  0  0  0  0  0  0
  143.8074  146.6313  157.5184 H   0  0  0  0  0  0  0  0  0  0  0  0
  146.2638  147.7715  158.2186 H   0  0  0  0  0  0  0  0  0  0  0  0
  144.7384  148.1677  159.0186 H   0  0  0  0  0  0  0  0  0  0  0  0
  144.0563  146.3181  161.0085 H   0  0  0  0  0  0  0  0  0  0  0  0
  144.2376  144.2268  162.7839 H   0  0  0  0  0  0  0  0  0  0  0  0
  144.6066  142.7011  161.9872 H   0  0  0  0  0  0  0  0  0  0  0  0
  143.3129  143.7201  161.3821 H   0  0  0  0  0  0  0  0  0  0  0  0
  146.6044  144.8565  162.6117 H   0  0  0  0  0  0  0  0  0  0  0  0
  147.4395  144.9536  161.0788 H   0  0  0  0  0  0  0  0  0  0  0  0
  147.0156  143.3843  161.7421 H   0  0  0  0  0  0  0  0  0  0  0  0
  150.6450  144.8965  160.0744 H   0  0  0  0  0  0  0  0  0  0  0  0
  1  2  1  0  0  0  0
  1 23  1  0  0  0  0
  1 24  1  0  0  0  0
  1 25  1  0  0  0  0
  2 22  1  0  0  0  0
  2  3  2  0  0  0  0
  3  4  1  0  0  0  0
  3 26  1  0  0  0  0
  4  5  2  0  0  0  0
  4 27  1  0  0  0  0
  5  6  1  0  0  0  0
  5 21  1  0  0  0  0
  6  7  1  0  0  0  0
  6 28  1  0  0  0  0
  6 29  1  0  0  0  0
  7  8  1  0  0  0  0
  7 30  1  0  0  0  0
  7 31  1  0  0  0  0
  8  9  1  0  0  0  0
  8 32  1  0  0  0  0
  9 10  2  0  0  0  0
  9 11  1  0  0  0  0
 11 12  1  0  0  0  0
 11 33  1  0  0  0  0
 12 18  1  0  0  0  0
 12 13  1  0  0  0  0
 12 34  1  0  0  0  0
 13 17  1  0  0  0  0
 13 14  1  0  0  0  0
 13 35  1  0  0  0  0
 14 15  1  0  0  0  0
 14 36  1  0  0  0  0
 14 37  1  0  0  0  0
 15 16  1  0  0  0  0
 15 38  1  0  0  0  0
 15 39  1  0  0  0  0
 16 17  1  0  0  0  0
 17 18  1  0  0  0  0
 17 40  1  0  0  0  0
 18 19  1  0  0  0  0
 18 20  1  0  0  0  0
 19 41  1  0  0  0  0
 19 42  1  0  0  0  0
 19 43  1  0  0  0  0
 20 44  1  0  0  0  0
 20 45  1  0  0  0  0
 20 46  1  0  0  0  0
 21 22  2  0  0  0  0
 21 47  1  0  0  0  0
M  END
> <s_m_source_file>
AV-unprocessed.smi

> <i_m_source_file_index>
767

> <i_lp_mmshare_version>
43012

> <i_f3d_flags>
0

> <s_epik_input>
W0NIM11jMVtjSF1bY0hdYyhbY0hdbjEpW0NIMl1bQ0gyXVtOSF1DKD1PKVtOSF1bQ0BIXTJDKFtDSDNdKShbQ0gzXSlbQ0BIXShbQ0BASF0yMylPW0NIMl1bQ0gyXTM=

> <s_epik_cmdline>
J2VwaWtfcHl0aG9uJywgJy1waCcsICc3LjAnLCAnLXRuJywgJzgnLCAnLW1hJywgJzIwMCcsICctbWV0YWxfYmluZGluZycsICctaW1hZScsICc8aW5maWxlLm1hZT4nLCAnLW9tYWUnLCAnPG91dGZpbGUubWFlPic=

> <r_epik_Ionization_Penalty>
0.0567523

> <r_epik_Ionization_Penalty_Charging>
0

> <r_epik_Ionization_Penalty_Neutral>
0.0567523

> <r_epik_State_Penalty>
0.0489186

> <r_epik_Charging_Adjusted_Penalty>
0.0489186

> <i_epik_Tot_Q>
0

> <i_epik_Tot_abs_Q>
0

> <r_epik_Metal_State_Penalty>
0.044622

> <b_epik_Metal_Only>
0

> <s_lp_Force_Field>
OPLS_2005

> <r_lp_Energy>
34.1608

> <b_lp_Chiralities_Consistent>
1

> <s_lp_Variant>
AV-unprocessed.smi:767-3

> <Gold.Version>
5.8.1

> <Gold.Id.Protein>
6NUR|6NUR_protein|mol2

> <Gold.PLP.Fitness>
44.9552

> <Gold.PLP.PLP>
-41.1366

> <Gold.PLP.part.hbond>
-4.3043

> <Gold.PLP.part.metal>
0.0000

> <Gold.PLP.part.buried>
-0.0933

> <Gold.PLP.part.nonpolar>
-36.1078

> <Gold.PLP.part.repulsive>
0.4698

> <Gold.PLP.ligand.clash>
0.0000

> <Gold.PLP.ligand.torsion>
1.0268

> <Gold.PLP.Chemscore.Hbond>
1.8920

> <Gold.PLP.Chemscore.CHOScore>
0.0000

> <Gold.PLP.Chemscore.Metal>
0.0000

> <Gold.Chemscore.Hbonds>
donor molecule, donor type, donor heavy atom, donor atom, acceptor molecule, acceptor atom, score
      L1  H     8    32       P1  8029  0.25
      L1  H    11    33       P1  8029  1.00
      P1  H  6934  6946       L1    10  0.58

> <Gold.PLP.Chemscore.Internal.Correction>
0.1961

> <Gold.Rescore>
     Score         DG    S(hbond)    S(metal)    S(lipo)     H(rot)  DE(clash)    DE(int)     intcor
     19.20     -21.46       1.57        0.00     123.52       1.45       1.44       0.82       ----

> <Gold.Chemscore.Fitness>
19.1966

> <Gold.Chemscore.DG>
-21.4556

> <Gold.Chemscore.ZeroCoef>
-5.4800

> <Gold.Chemscore.Hbond>
1.5673

> <Gold.Chemscore.Metal>
0.0000

> <Gold.Chemscore.Lipo>
123.5212

> <Gold.Chemscore.Internal_Hbond>
0.0000

> <Gold.Chemscore.DEClash>
1.4365

> <Gold.Chemscore.DEInternal>
0.8226

> <Gold.Chemscore.Rot>
1.4497

> <Gold.Chemscore.Internal.Correction>
   9.000000E+99

> <Gold.Chemscore.Hbonds>
donor molecule, donor type, donor heavy atom, donor atom, acceptor molecule, acceptor atom, score
      L1  H    11    33       P1  8029  0.94
      P1  H  6934  6946       L1    10  0.58

> <Gold.Chemscore.Hbond.Weighted>
-5.2349

> <Gold.Chemscore.Metal.Weighted>
-0.0000

> <Gold.Chemscore.Lipo.Weighted>
-14.4520

> <Gold.Chemscore.Internal_Hbond.Weighted>
0.0000

> <Gold.Chemscore.DEClash.Weighted>
1.4365

> <Gold.Chemscore.DEInternal.Weighted>
0.8226

> <Gold.Chemscore.Rot.Weighted>
3.7112

> <Gold.Chemscore.Internal.Correction.Weighted>
   9.000000E+99

> <Gold.Protein.RotatedTorsions>
[ 6907 6896 6895 6894 ] final  170.02 input  -60.11 | X-H torsion
[ 7974 7965 7964 7962 ] final -145.71 input  175.53 | X-H torsion
[ 8008 7997 7996 7995 ] final   91.48 input   59.86 | X-H torsion
[ 10167 10162 10161 10158 ] final -170.73 input  -65.29 | X-H torsion
[ 10718 10713 10712 10709 ] final   23.12 input   66.30 | X-H torsion
[ 10763 10752 10751 10750 ] final   55.71 input  -60.55 | X-H torsion
[ 11005 11000 10999 10996 ] final   71.21 input  -57.11 | X-H torsion

> <Gold.Protein.ActiveResidues>
 VAL166  LYS551  ARG553  GLY616  TRP617  ASP618  TYR619  PRO620  LYS621  CYS622 
 ASP623  PHE694  ASN695  SER759  ASP760  ASP761  ALA762  ILE779  LEU786  VAL792 
 PHE793  MET794  SER795  GLU796  ALA797  LYS798  CYS799  TRP800  GLU811  SER814 

> <Gold.Protein.RotatedAtoms>
  151.8227  133.3397  159.3588 H   0  0  0  0  0  0  0  0  0  0  0  0  # atno 6907 bound_to 6896
  150.7289  134.5558  159.5827 H   0  0  0  0  0  0  0  0  0  0  0  0  # atno 6908 bound_to 6896
  152.2994  134.7630  160.0412 H   0  0  0  0  0  0  0  0  0  0  0  0  # atno 6909 bound_to 6896
  144.8208  140.5548  143.5579 H   0  0  0  0  0  0  0  0  0  0  0  0  # atno 7974 bound_to 7965
  156.0243  140.3337  155.7071 H   0  0  0  0  0  0  0  0  0  0  0  0  # atno 8008 bound_to 7997
  155.5977  140.0652  157.2759 H   0  0  0  0  0  0  0  0  0  0  0  0  # atno 8009 bound_to 7997
  154.4328  140.1816  156.1129 H   0  0  0  0  0  0  0  0  0  0  0  0  # atno 8010 bound_to 7997
  139.5844  144.1351  152.1557 H   0  0  0  0  0  0  0  0  0  0  0  0  # atno 10167 bound_to 10162
  157.1618  130.6720  149.6046 H   0  0  0  0  0  0  0  0  0  0  0  0  # atno 10718 bound_to 10713
  152.9821  135.5701  154.5111 H   0  0  0  0  0  0  0  0  0  0  0  0  # atno 10763 bound_to 10752
  154.4615  135.2781  155.1711 H   0  0  0  0  0  0  0  0  0  0  0  0  # atno 10764 bound_to 10752
  154.3297  135.6252  153.5599 H   0  0  0  0  0  0  0  0  0  0  0  0  # atno 10765 bound_to 10752
  139.9555  134.7151  156.0762 H   0  0  0  0  0  0  0  0  0  0  0  0  # atno 11005 bound_to 11000
  145.5109  139.1479  143.3605 LP  0  0  0  0  0  0  0  0  0  0  0  0  # atno 17320 bound_to 7965
  146.2514  140.5249  142.8892 LP  0  0  0  0  0  0  0  0  0  0  0  0  # atno 17321 bound_to 7965
  140.0911  144.5620  150.7054 LP  0  0  0  0  0  0  0  0  0  0  0  0  # atno 17342 bound_to 10162
  140.7118  143.2511  151.4557 LP  0  0  0  0  0  0  0  0  0  0  0  0  # atno 17343 bound_to 10162
  155.9752  130.4709  150.6446 LP  0  0  0  0  0  0  0  0  0  0  0  0  # atno 17370 bound_to 10713
  157.4126  131.0825  151.1207 LP  0  0  0  0  0  0  0  0  0  0  0  0  # atno 17371 bound_to 10713
  141.1226  133.6608  156.3254 LP  0  0  0  0  0  0  0  0  0  0  0  0  # atno 17394 bound_to 11000
  140.5618  134.5926  157.5435 LP  0  0  0  0  0  0  0  0  0  0  0  0  # atno 17395 bound_to 11000

$$$$
