AV-unprocessed.smi:3274|AV-procd|sdf|12524|dock5
  -GOLD-   2272018433D 1   1.00000     0.00000
 Structure written by MMmdl.
 43 44  0  0  0  0  0  0  0  0  2 V2000
  146.2364  130.3711  152.4574 C   0  0  0  0  0  0  0  0  0  0  0  0
  145.8254  131.6071  151.6742 C   0  0  0  0  0  0  0  0  0  0  0  0
  145.0212  131.4806  150.6012 C   0  0  0  0  0  0  0  0  0  0  0  0
  144.4885  132.6412  149.7929 C   0  0  0  0  0  0  0  0  0  0  0  0
  144.5504  133.9441  150.5933 C   0  0  0  0  0  0  0  0  0  0  0  0
  145.9382  134.1504  151.2211 C   0  0  1  0  0  0  0  0  0  0  0  0
  145.9849  135.5218  151.9234 C   0  0  0  0  0  0  0  0  0  0  0  0
  146.3372  132.9760  152.1679 C   0  0  2  0  0  0  0  0  0  0  0  0
  147.8670  132.9926  152.4232 C   0  0  0  0  0  0  0  0  0  0  0  0
  148.2756  134.0198  153.4062 N   0  3  0  0  0  0  0  0  0  0  0  0
  149.5254  133.7214  154.1411 C   0  0  2  0  0  0  0  0  0  0  0  0
  149.5057  132.2587  154.6042 C   0  0  0  0  0  0  0  0  0  0  0  0
  149.7046  134.6745  155.3414 C   0  0  0  0  0  0  0  0  0  0  0  0
  150.1481  135.9997  154.9483 N   0  0  0  0  0  0  0  0  0  0  0  0
  149.5037  137.1676  154.9469 C   0  0  0  0  0  0  0  0  0  0  0  0
  150.2435  138.1850  154.5292 N   0  0  0  0  0  0  0  0  0  0  0  0
  151.4102  137.5266  154.2612 C   0  0  0  0  0  0  0  0  0  0  0  0
  151.4081  136.2154  154.5021 N   0  0  0  0  0  0  0  0  0  0  0  0
  146.0341  130.5073  153.5201 H   0  0  0  0  0  0  0  0  0  0  0  0
  147.2964  130.1573  152.3209 H   0  0  0  0  0  0  0  0  0  0  0  0
  145.6834  129.4911  152.1274 H   0  0  0  0  0  0  0  0  0  0  0  0
  144.7042  130.4997  150.2772 H   0  0  0  0  0  0  0  0  0  0  0  0
  145.0685  132.7224  148.8730 H   0  0  0  0  0  0  0  0  0  0  0  0
  143.4574  132.4340  149.5050 H   0  0  0  0  0  0  0  0  0  0  0  0
  144.2970  134.7801  149.9402 H   0  0  0  0  0  0  0  0  0  0  0  0
  143.7936  133.9262  151.3791 H   0  0  0  0  0  0  0  0  0  0  0  0
  146.6538  134.1785  150.3976 H   0  0  0  0  0  0  0  0  0  0  0  0
  145.3277  135.5452  152.7933 H   0  0  0  0  0  0  0  0  0  0  0  0
  145.6639  136.3162  151.2489 H   0  0  0  0  0  0  0  0  0  0  0  0
  146.9871  135.7840  152.2569 H   0  0  0  0  0  0  0  0  0  0  0  0
  145.8329  133.1470  153.1205 H   0  0  0  0  0  0  0  0  0  0  0  0
  148.1992  132.0107  152.7629 H   0  0  0  0  0  0  0  0  0  0  0  0
  148.4090  133.1917  151.5013 H   0  0  0  0  0  0  0  0  0  0  0  0
  148.3905  134.9027  152.9286 H   0  0  0  0  0  0  0  0  0  0  0  0
  150.3768  133.8364  153.4680 H   0  0  0  0  0  0  0  0  0  0  0  0
  150.4300  131.9980  155.1207 H   0  0  0  0  0  0  0  0  0  0  0  0
  149.4006  131.5797  153.7573 H   0  0  0  0  0  0  0  0  0  0  0  0
  148.6778  132.0684  155.2884 H   0  0  0  0  0  0  0  0  0  0  0  0
  148.7728  134.7661  155.9021 H   0  0  0  0  0  0  0  0  0  0  0  0
  150.4434  134.2680  156.0333 H   0  0  0  0  0  0  0  0  0  0  0  0
  148.4766  137.2775  155.2635 H   0  0  0  0  0  0  0  0  0  0  0  0
  152.2895  138.0297  153.8867 H   0  0  0  0  0  0  0  0  0  0  0  0
  147.5270  134.1148  154.0775 H   0  0  0  0  0  0  0  0  0  0  0  0
  1  2  1  0  0  0  0
  1 19  1  0  0  0  0
  1 20  1  0  0  0  0
  1 21  1  0  0  0  0
  2  8  1  0  0  0  0
  2  3  2  0  0  0  0
  3  4  1  0  0  0  0
  3 22  1  0  0  0  0
  4  5  1  0  0  0  0
  4 23  1  0  0  0  0
  4 24  1  0  0  0  0
  5  6  1  0  0  0  0
  5 25  1  0  0  0  0
  5 26  1  0  0  0  0
  6  7  1  0  0  0  0
  6  8  1  0  0  0  0
  6 27  1  0  0  0  0
  7 28  1  0  0  0  0
  7 29  1  0  0  0  0
  7 30  1  0  0  0  0
  8  9  1  0  0  0  0
  8 31  1  0  0  0  0
  9 10  1  0  0  0  0
  9 32  1  0  0  0  0
  9 33  1  0  0  0  0
 10 11  1  0  0  0  0
 10 34  1  0  0  0  0
 10 43  1  0  0  0  0
 11 12  1  0  0  0  0
 11 13  1  0  0  0  0
 11 35  1  0  0  0  0
 12 36  1  0  0  0  0
 12 37  1  0  0  0  0
 12 38  1  0  0  0  0
 13 14  1  0  0  0  0
 13 39  1  0  0  0  0
 13 40  1  0  0  0  0
 14 18  1  0  0  0  0
 14 15  1  0  0  0  0
 15 16  2  0  0  0  0
 15 41  1  0  0  0  0
 16 17  1  0  0  0  0
 17 18  2  0  0  0  0
 17 42  1  0  0  0  0
M  CHG  1  10   1
M  END
> <s_m_source_file>
AV-unprocessed.smi

> <i_m_source_file_index>
3274

> <i_lp_mmshare_version>
43012

> <i_f3d_flags>
0

> <s_epik_input>
W0NIM11DMT1bQ0hdW0NIMl1bQ0gyXVtDQEBIXShbQ0gzXSlbQ0BIXTFbQ0gyXVtOSF1bQ0BIXShbQ0gzXSlbQ0gyXW4yW2NIXW5bY0hdbjI=

> <s_epik_cmdline>
J2VwaWtfcHl0aG9uJywgJy1waCcsICc3LjAnLCAnLXRuJywgJzgnLCAnLW1hJywgJzIwMCcsICctbWV0YWxfYmluZGluZycsICctaW1hZScsICc8aW5maWxlLm1hZT4nLCAnLW9tYWUnLCAnPG91dGZpbGUubWFlPic=

> <r_lp_tautomer_probability>
1

> <r_epik_Ionization_Penalty>
0.0017527

> <r_epik_Ionization_Penalty_Charging>
0.00175191

> <r_epik_Ionization_Penalty_Neutral>
7.94565e-07

> <r_epik_State_Penalty>
0.00118605

> <r_epik_Charging_Adjusted_Penalty>
0.00293796

> <i_epik_Tot_Q>
1

> <i_epik_Tot_abs_Q>
1

> <r_epik_Metal_State_Penalty>
-0

> <b_epik_Metal_Only>
0

> <s_lp_Force_Field>
OPLS_2005

> <r_lp_Energy>
18.1094

> <b_lp_Chiralities_Consistent>
1

> <s_lp_Variant>
AV-unprocessed.smi:3274-3

> <Gold.Version>
5.8.1

> <Gold.Id.Protein>
6NUR|6NUR_protein|mol2

> <Gold.PLP.Fitness>
43.8372

> <Gold.PLP.PLP>
-36.1759

> <Gold.PLP.part.hbond>
-2.0000

> <Gold.PLP.part.metal>
0.0000

> <Gold.PLP.part.buried>
-4.7149

> <Gold.PLP.part.nonpolar>
-30.3153

> <Gold.PLP.part.repulsive>
0.5784

> <Gold.PLP.ligand.clash>
0.0000

> <Gold.PLP.ligand.torsion>
0.7207

> <Gold.PLP.Chemscore.Hbond>
3.0000

> <Gold.PLP.Chemscore.CHOScore>
0.0000

> <Gold.PLP.Chemscore.Metal>
0.0000

> <Gold.Chemscore.Hbonds>
donor molecule, donor type, donor heavy atom, donor atom, acceptor molecule, acceptor atom, score
      L1  H    10    34       P1  7948  2.00
      P1  H 10752 10765       L1    18  1.00

> <Gold.PLP.Chemscore.Internal.Correction>
0.1026

> <Gold.Rescore>
     Score         DG    S(hbond)    S(metal)    S(lipo)     H(rot)  DE(clash)    DE(int)     intcor
     14.12     -14.98       1.78        0.00      82.15       2.36       0.15       0.71       ----

> <Gold.Chemscore.Fitness>
14.1151

> <Gold.Chemscore.DG>
-14.9767

> <Gold.Chemscore.ZeroCoef>
-5.4800

> <Gold.Chemscore.Hbond>
1.7758

> <Gold.Chemscore.Metal>
0.0000

> <Gold.Chemscore.Lipo>
82.1452

> <Gold.Chemscore.Internal_Hbond>
0.0000

> <Gold.Chemscore.DEClash>
0.1549

> <Gold.Chemscore.DEInternal>
0.7067

> <Gold.Chemscore.Rot>
2.3615

> <Gold.Chemscore.Internal.Correction>
   9.000000E+99

> <Gold.Chemscore.Hbonds>
donor molecule, donor type, donor heavy atom, donor atom, acceptor molecule, acceptor atom, score
      L1  H    10    34       P1  7948  0.65
      P1  H 10752 10765       L1    18  0.74

> <Gold.Chemscore.Hbond.Weighted>
-5.9311

> <Gold.Chemscore.Metal.Weighted>
-0.0000

> <Gold.Chemscore.Lipo.Weighted>
-9.6110

> <Gold.Chemscore.Internal_Hbond.Weighted>
0.0000

> <Gold.Chemscore.DEClash.Weighted>
0.1549

> <Gold.Chemscore.DEInternal.Weighted>
0.7067

> <Gold.Chemscore.Rot.Weighted>
6.0454

> <Gold.Chemscore.Internal.Correction.Weighted>
   9.000000E+99

> <Gold.Protein.RotatedTorsions>
[ 6907 6896 6895 6894 ] final  127.03 input  -60.11 | X-H torsion
[ 7974 7965 7964 7962 ] final   13.89 input  175.53 | X-H torsion
[ 8008 7997 7996 7995 ] final  -36.87 input   59.86 | X-H torsion
[ 10167 10162 10161 10158 ] final  167.77 input  -65.29 | X-H torsion
[ 10718 10713 10712 10709 ] final  -90.05 input   66.30 | X-H torsion
[ 10763 10752 10751 10750 ] final  166.98 input  -60.55 | X-H torsion
[ 11005 11000 10999 10996 ] final  151.06 input  -57.11 | X-H torsion

> <Gold.Protein.ActiveResidues>
 VAL166  LYS551  ARG553  GLY616  TRP617  ASP618  TYR619  PRO620  LYS621  CYS622 
 ASP623  PHE694  ASN695  SER759  ASP760  ASP761  ALA762  ILE779  LEU786  VAL792 
 PHE793  MET794  SER795  GLU796  ALA797  LYS798  CYS799  TRP800  GLU811  SER814 

> <Gold.Protein.RotatedAtoms>
  152.3850  133.6598  159.6191 H   0  0  0  0  0  0  0  0  0  0  0  0  # atno 6907 bound_to 6896
  150.7771  133.9050  159.3361 H   0  0  0  0  0  0  0  0  0  0  0  0  # atno 6908 bound_to 6896
  151.6849  135.0957  160.0274 H   0  0  0  0  0  0  0  0  0  0  0  0  # atno 6909 bound_to 6896
  146.2318  139.9122  142.8522 H   0  0  0  0  0  0  0  0  0  0  0  0  # atno 7974 bound_to 7965
  154.4064  140.1619  156.2444 H   0  0  0  0  0  0  0  0  0  0  0  0  # atno 8008 bound_to 7997
  155.9173  140.3423  155.6122 H   0  0  0  0  0  0  0  0  0  0  0  0  # atno 8009 bound_to 7997
  155.7264  140.0775  157.2299 H   0  0  0  0  0  0  0  0  0  0  0  0  # atno 8010 bound_to 7997
  139.4953  144.3886  151.9542 H   0  0  0  0  0  0  0  0  0  0  0  0  # atno 10167 bound_to 10162
  155.9986  130.4895  150.5264 H   0  0  0  0  0  0  0  0  0  0  0  0  # atno 10718 bound_to 10713
  154.3471  135.2753  155.2392 H   0  0  0  0  0  0  0  0  0  0  0  0  # atno 10763 bound_to 10752
  154.4638  135.5900  153.6277 H   0  0  0  0  0  0  0  0  0  0  0  0  # atno 10764 bound_to 10752
  152.9853  135.6071  154.3677 H   0  0  0  0  0  0  0  0  0  0  0  0  # atno 10765 bound_to 10752
  140.1185  134.8879  157.2039 H   0  0  0  0  0  0  0  0  0  0  0  0  # atno 11005 bound_to 11000
  145.2218  140.9938  143.4041 LP  0  0  0  0  0  0  0  0  0  0  0  0  # atno 17320 bound_to 7965
  144.9603  139.3987  143.6359 LP  0  0  0  0  0  0  0  0  0  0  0  0  # atno 17321 bound_to 7965
  140.3323  144.3301  150.5984 LP  0  0  0  0  0  0  0  0  0  0  0  0  # atno 17342 bound_to 10162
  140.5634  143.2189  151.7725 LP  0  0  0  0  0  0  0  0  0  0  0  0  # atno 17343 bound_to 10162
  157.3219  131.0683  151.1925 LP  0  0  0  0  0  0  0  0  0  0  0  0  # atno 17370 bound_to 10713
  157.2836  130.6762  149.6078 LP  0  0  0  0  0  0  0  0  0  0  0  0  # atno 17371 bound_to 10713
  140.2996  134.3147  155.7293 LP  0  0  0  0  0  0  0  0  0  0  0  0  # atno 17394 bound_to 11000
  141.2146  133.7584  156.9621 LP  0  0  0  0  0  0  0  0  0  0  0  0  # atno 17395 bound_to 11000

$$$$
