AV-unprocessed.smi:1039|AV-procd|sdf|4523|dock10
  -GOLD-   22720 2543D 1   1.00000     0.00000
 Structure written by MMmdl.
 41 42  0  0  0  0  0  0  0  0  2 V2000
  145.4253  130.5044  151.8771 C   0  0  0  0  0  0  0  0  0  0  0  0
  145.4174  131.8500  151.1390 C   0  0  0  0  0  0  0  0  0  0  0  0
  146.6208  132.7291  151.5426 C   0  0  0  0  0  0  0  0  0  0  0  0
  146.5441  134.1151  150.8774 C   0  0  0  0  0  0  0  0  0  0  0  0
  145.2659  134.7469  151.2468 N   0  0  0  0  0  0  0  0  0  0  0  0
  145.0977  135.7724  152.1195 C   0  0  0  0  0  0  0  0  0  0  0  0
  144.0146  136.0528  152.6339 O   0  0  0  0  0  0  0  0  0  0  0  0
  146.2059  136.4929  152.3597 N   0  0  0  0  0  0  0  0  0  0  0  0
  146.2863  137.6609  153.2320 C   0  0  0  0  0  0  0  0  0  0  0  0
  147.3779  138.6674  152.8110 C   0  0  0  0  0  0  0  0  0  0  0  0
  147.3466  139.9748  153.5480 C   0  0  0  0  0  0  0  0  0  0  0  0
  146.4065  140.9157  153.3964 N   0  3  0  0  0  0  0  0  0  0  0  0
  146.6721  141.9920  154.1968 C   0  0  0  0  0  0  0  0  0  0  0  0
  147.8267  141.6951  154.8714 C   0  0  0  0  0  0  0  0  0  0  0  0
  148.2205  140.4491  154.4539 N   0  0  0  0  0  0  0  0  0  0  0  0
  149.4048  139.7207  154.9208 C   0  0  0  0  0  0  0  0  0  0  0  0
  150.1195  139.2811  153.8853 F   0  0  0  0  0  0  0  0  0  0  0  0
  150.1514  140.4937  155.7080 F   0  0  0  0  0  0  0  0  0  0  0  0
  144.1285  134.0007  150.6945 C   0  0  0  0  0  0  0  0  0  0  0  0
  144.0863  132.6055  151.3445 C   0  0  0  0  0  0  0  0  0  0  0  0
  145.3266  130.6426  152.9542 H   0  0  0  0  0  0  0  0  0  0  0  0
  146.3535  129.9623  151.6949 H   0  0  0  0  0  0  0  0  0  0  0  0
  144.6027  129.8702  151.5456 H   0  0  0  0  0  0  0  0  0  0  0  0
  145.5111  131.6390  150.0727 H   0  0  0  0  0  0  0  0  0  0  0  0
  146.6459  132.8488  152.6268 H   0  0  0  0  0  0  0  0  0  0  0  0
  147.5528  132.2363  151.2643 H   0  0  0  0  0  0  0  0  0  0  0  0
  147.4238  134.7009  151.1433 H   0  0  0  0  0  0  0  0  0  0  0  0
  146.5896  134.0085  149.7925 H   0  0  0  0  0  0  0  0  0  0  0  0
  147.0603  136.2043  151.9055 H   0  0  0  0  0  0  0  0  0  0  0  0
  145.3159  138.1561  153.2897 H   0  0  0  0  0  0  0  0  0  0  0  0
  146.4957  137.2913  154.2348 H   0  0  0  0  0  0  0  0  0  0  0  0
  148.3674  138.2426  152.9844 H   0  0  0  0  0  0  0  0  0  0  0  0
  147.3155  138.8806  151.7445 H   0  0  0  0  0  0  0  0  0  0  0  0
  146.0356  142.8643  154.2261 H   0  0  0  0  0  0  0  0  0  0  0  0
  148.3832  142.2649  155.6015 H   0  0  0  0  0  0  0  0  0  0  0  0
  149.0921  138.8538  155.5038 H   0  0  0  0  0  0  0  0  0  0  0  0
  143.1754  134.5094  150.8452 H   0  0  0  0  0  0  0  0  0  0  0  0
  144.2450  133.9084  149.6137 H   0  0  0  0  0  0  0  0  0  0  0  0
  143.2608  132.0281  150.9274 H   0  0  0  0  0  0  0  0  0  0  0  0
  143.8810  132.7110  152.4109 H   0  0  0  0  0  0  0  0  0  0  0  0
  145.6122  140.8378  152.7733 H   0  0  0  0  0  0  0  0  0  0  0  0
  1  2  1  0  0  0  0
  1 21  1  0  0  0  0
  1 22  1  0  0  0  0
  1 23  1  0  0  0  0
  2 20  1  0  0  0  0
  2  3  1  0  0  0  0
  2 24  1  0  0  0  0
  3  4  1  0  0  0  0
  3 25  1  0  0  0  0
  3 26  1  0  0  0  0
  4  5  1  0  0  0  0
  4 27  1  0  0  0  0
  4 28  1  0  0  0  0
  5  6  1  0  0  0  0
  5 19  1  0  0  0  0
  6  7  2  0  0  0  0
  6  8  1  0  0  0  0
  8  9  1  0  0  0  0
  8 29  1  0  0  0  0
  9 10  1  0  0  0  0
  9 30  1  0  0  0  0
  9 31  1  0  0  0  0
 10 11  1  0  0  0  0
 10 32  1  0  0  0  0
 10 33  1  0  0  0  0
 11 15  1  0  0  0  0
 11 12  2  0  0  0  0
 12 13  1  0  0  0  0
 12 41  1  0  0  0  0
 13 14  2  0  0  0  0
 13 34  1  0  0  0  0
 14 15  1  0  0  0  0
 14 35  1  0  0  0  0
 15 16  1  0  0  0  0
 16 17  1  0  0  0  0
 16 18  1  0  0  0  0
 16 36  1  0  0  0  0
 19 20  1  0  0  0  0
 19 37  1  0  0  0  0
 19 38  1  0  0  0  0
 20 39  1  0  0  0  0
 20 40  1  0  0  0  0
M  CHG  1  12   1
M  END
> <s_m_source_file>
AV-unprocessed.smi

> <i_m_source_file_index>
1039

> <i_lp_mmshare_version>
43012

> <i_f3d_flags>
0

> <s_epik_input>
W0NIM11bQ0hdMVtDSDJdW0NIMl1OKFtDSDJdW0NIMl0xKUMoPU8pW05IXVtDSDJdW0NIMl1jMm5bY0hdW2NIXW4yW0NIXShGKUY=

> <s_epik_cmdline>
J2VwaWtfcHl0aG9uJywgJy1waCcsICc3LjAnLCAnLXRuJywgJzgnLCAnLW1hJywgJzIwMCcsICctbWV0YWxfYmluZGluZycsICctaW1hZScsICc8aW5maWxlLm1hZT4nLCAnLW9tYWUnLCAnPG91dGZpbGUubWFlPic=

> <r_lp_tautomer_probability>
1

> <r_epik_Ionization_Penalty>
1.09425

> <r_epik_Ionization_Penalty_Charging>
0

> <r_epik_Ionization_Penalty_Neutral>
1.09425

> <r_epik_State_Penalty>
1.15074

> <r_epik_Charging_Adjusted_Penalty>
1.15074

> <i_epik_Tot_Q>
1

> <i_epik_Tot_abs_Q>
1

> <r_epik_Metal_State_Penalty>
1.2388

> <b_epik_Metal_Only>
0

> <s_lp_Force_Field>
OPLS_2005

> <r_lp_Energy>
37.2769

> <b_lp_Chiralities_Consistent>
1

> <s_lp_Variant>
AV-unprocessed.smi:1039-2

> <Gold.Version>
5.8.1

> <Gold.Id.Protein>
6NUR|6NUR_protein|mol2

> <Gold.PLP.Fitness>
46.6999

> <Gold.PLP.PLP>
-35.8551

> <Gold.PLP.part.hbond>
-2.0000

> <Gold.PLP.part.metal>
0.0000

> <Gold.PLP.part.buried>
0.1045

> <Gold.PLP.part.nonpolar>
-33.1249

> <Gold.PLP.part.repulsive>
0.1686

> <Gold.PLP.ligand.clash>
0.0999

> <Gold.PLP.ligand.torsion>
0.5385

> <Gold.PLP.Chemscore.Hbond>
2.9920

> <Gold.PLP.Chemscore.CHOScore>
1.0000

> <Gold.PLP.Chemscore.Metal>
0.0000

> <Gold.Chemscore.Hbonds>
donor molecule, donor type, donor heavy atom, donor atom, acceptor molecule, acceptor atom, score
      L1  H     8    29       P1  7948  0.99
      L1  H    12    41       P1 10175  2.00
      L1  C    14    35       P1  8028  0.97

> <Gold.PLP.Chemscore.Internal.Correction>
0.0457

> <Gold.Rescore>
     Score         DG    S(hbond)    S(metal)    S(lipo)     H(rot)  DE(clash)    DE(int)     intcor
     14.77     -15.20       1.84        0.00      65.75       1.61       0.08       0.35       ----

> <Gold.Chemscore.Fitness>
14.7666

> <Gold.Chemscore.DG>
-15.2002

> <Gold.Chemscore.ZeroCoef>
-5.4800

> <Gold.Chemscore.Hbond>
1.8374

> <Gold.Chemscore.Metal>
0.0000

> <Gold.Chemscore.Lipo>
65.7465

> <Gold.Chemscore.Internal_Hbond>
0.0000

> <Gold.Chemscore.DEClash>
0.0834

> <Gold.Chemscore.DEInternal>
0.3502

> <Gold.Chemscore.Rot>
1.6051

> <Gold.Chemscore.Internal.Correction>
   9.000000E+99

> <Gold.Chemscore.Hbonds>
donor molecule, donor type, donor heavy atom, donor atom, acceptor molecule, acceptor atom, score
      L1  H     8    29       P1  7948  0.94
      L1  H    12    41       P1 10175  0.28

> <Gold.Chemscore.Hbond.Weighted>
-6.1370

> <Gold.Chemscore.Metal.Weighted>
-0.0000

> <Gold.Chemscore.Lipo.Weighted>
-7.6923

> <Gold.Chemscore.Internal_Hbond.Weighted>
0.0000

> <Gold.Chemscore.DEClash.Weighted>
0.0834

> <Gold.Chemscore.DEInternal.Weighted>
0.3502

> <Gold.Chemscore.Rot.Weighted>
4.1092

> <Gold.Chemscore.Internal.Correction.Weighted>
   9.000000E+99

> <Gold.Protein.RotatedTorsions>
[ 6907 6896 6895 6894 ] final -121.02 input  -60.11 | X-H torsion
[ 7974 7965 7964 7962 ] final -124.36 input  175.53 | X-H torsion
[ 8008 7997 7996 7995 ] final    4.45 input   59.86 | X-H torsion
[ 10167 10162 10161 10158 ] final -111.22 input  -65.29 | X-H torsion
[ 10718 10713 10712 10709 ] final  -37.28 input   66.30 | X-H torsion
[ 10763 10752 10751 10750 ] final -177.41 input  -60.55 | X-H torsion
[ 11005 11000 10999 10996 ] final -145.78 input  -57.11 | X-H torsion

> <Gold.Protein.ActiveResidues>
 VAL166  LYS551  ARG553  GLY616  TRP617  ASP618  TYR619  PRO620  LYS621  CYS622 
 ASP623  PHE694  ASN695  SER759  ASP760  ASP761  ALA762  ILE779  LEU786  VAL792 
 PHE793  MET794  SER795  GLU796  ALA797  LYS798  CYS799  TRP800  GLU811  SER814 

> <Gold.Protein.RotatedAtoms>
  150.8446  133.7882  159.3047 H   0  0  0  0  0  0  0  0  0  0  0  0  # atno 6907 bound_to 6896
  151.5573  135.1064  159.9974 H   0  0  0  0  0  0  0  0  0  0  0  0  # atno 6908 bound_to 6896
  152.4502  133.7572  159.6783 H   0  0  0  0  0  0  0  0  0  0  0  0  # atno 6909 bound_to 6896
  145.0089  140.7888  143.4451 H   0  0  0  0  0  0  0  0  0  0  0  0  # atno 7974 bound_to 7965
  154.7161  140.2702  155.6584 H   0  0  0  0  0  0  0  0  0  0  0  0  # atno 8008 bound_to 7997
  156.2810  140.2743  156.1742 H   0  0  0  0  0  0  0  0  0  0  0  0  # atno 8009 bound_to 7997
  155.0570  140.0371  157.2553 H   0  0  0  0  0  0  0  0  0  0  0  0  # atno 8010 bound_to 7997
  140.1359  143.4320  152.1595 H   0  0  0  0  0  0  0  0  0  0  0  0  # atno 10167 bound_to 10162
  156.3170  130.4260  149.7996 H   0  0  0  0  0  0  0  0  0  0  0  0  # atno 10718 bound_to 10713
  154.5605  135.2820  155.0924 H   0  0  0  0  0  0  0  0  0  0  0  0  # atno 10763 bound_to 10752
  154.2334  135.6370  153.5187 H   0  0  0  0  0  0  0  0  0  0  0  0  # atno 10764 bound_to 10752
  153.0028  135.5543  154.6198 H   0  0  0  0  0  0  0  0  0  0  0  0  # atno 10765 bound_to 10752
  140.7888  134.2993  157.5020 H   0  0  0  0  0  0  0  0  0  0  0  0  # atno 11005 bound_to 11000
  145.2051  139.2232  143.5172 LP  0  0  0  0  0  0  0  0  0  0  0  0  # atno 17320 bound_to 7965
  146.3466  140.1876  142.8589 LP  0  0  0  0  0  0  0  0  0  0  0  0  # atno 17321 bound_to 7965
  139.5496  144.7327  151.4476 LP  0  0  0  0  0  0  0  0  0  0  0  0  # atno 17342 bound_to 10162
  140.6789  143.8126  150.7095 LP  0  0  0  0  0  0  0  0  0  0  0  0  # atno 17343 bound_to 10162
  156.5318  130.8261  151.3239 LP  0  0  0  0  0  0  0  0  0  0  0  0  # atno 17370 bound_to 10713
  157.7404  130.9849  150.2373 LP  0  0  0  0  0  0  0  0  0  0  0  0  # atno 17371 bound_to 10713
  139.8733  134.9362  156.3654 LP  0  0  0  0  0  0  0  0  0  0  0  0  # atno 17394 bound_to 11000
  140.9410  133.7514  156.0147 LP  0  0  0  0  0  0  0  0  0  0  0  0  # atno 17395 bound_to 11000

$$$$
