AV-unprocessed.smi:1686|AV-procd|sdf|6763|dock2
  -GOLD-   22720 7523D 1   1.00000     0.00000
 Structure written by MMmdl.
 41 43  0  0  0  0  0  0  0  0  1 V2000
  153.3785  138.6099  154.4924 C   0  0  0  0  0  0  0  0  0  0  0  0
  152.0026  138.2453  154.9713 C   0  0  0  0  0  0  0  0  0  0  0  0
  151.6310  136.9720  154.9546 N   0  0  0  0  0  0  0  0  0  0  0  0
  150.3255  136.9355  155.4580 O   0  0  0  0  0  0  0  0  0  0  0  0
  149.9791  138.2093  155.7530 C   0  0  0  0  0  0  0  0  0  0  0  0
  148.4436  138.6170  156.4102 Cl  0  0  0  0  0  0  0  0  0  0  0  0
  150.9761  139.0987  155.4732 C   0  0  0  0  0  0  0  0  0  0  0  0
  150.9979  140.5978  155.6530 C   0  0  0  0  0  0  0  0  0  0  0  0
  150.9167  140.9962  157.1317 C   0  0  0  0  0  0  0  0  0  0  0  0
  149.8768  141.4444  157.6177 O   0  0  0  0  0  0  0  0  0  0  0  0
  152.0437  140.8258  157.8396 N   0  0  0  0  0  0  0  0  0  0  0  0
  152.2193  141.1529  159.2531 C   0  0  1  0  0  0  0  0  0  0  0  0
  153.3134  140.2472  159.8472 C   0  0  0  0  0  0  0  0  0  0  0  0
  152.5554  142.6566  159.4068 C   0  0  2  0  0  0  0  0  0  0  0  0
  152.2209  143.2281  160.8067 C   0  0  0  0  0  0  0  0  0  0  0  0
  151.3342  144.4456  160.4916 C   0  0  1  0  0  0  0  0  0  0  0  0
  152.1846  145.5458  159.8312 C   0  0  0  0  0  0  0  0  0  0  0  0
  152.4448  144.9723  158.4259 C   0  0  0  0  0  0  0  0  0  0  0  0
  151.7433  143.6015  158.4823 C   0  0  2  0  0  0  0  0  0  0  0  0
  150.5112  143.9283  159.3198 C   0  0  0  0  0  0  0  0  0  0  0  0
  153.5667  139.6788  154.5904 H   0  0  0  0  0  0  0  0  0  0  0  0
  153.5110  138.3457  153.4431 H   0  0  0  0  0  0  0  0  0  0  0  0
  154.1441  138.0883  155.0673 H   0  0  0  0  0  0  0  0  0  0  0  0
  151.9037  141.0285  155.2254 H   0  0  0  0  0  0  0  0  0  0  0  0
  150.1659  141.0679  155.1279 H   0  0  0  0  0  0  0  0  0  0  0  0
  152.8493  140.4522  157.3592 H   0  0  0  0  0  0  0  0  0  0  0  0
  151.2840  140.9545  159.7794 H   0  0  0  0  0  0  0  0  0  0  0  0
  153.4506  140.4279  160.9130 H   0  0  0  0  0  0  0  0  0  0  0  0
  154.2735  140.4121  159.3568 H   0  0  0  0  0  0  0  0  0  0  0  0
  153.0587  139.1933  159.7307 H   0  0  0  0  0  0  0  0  0  0  0  0
  153.6202  142.7845  159.2041 H   0  0  0  0  0  0  0  0  0  0  0  0
  151.6589  142.5126  161.4082 H   0  0  0  0  0  0  0  0  0  0  0  0
  153.1155  143.4993  161.3687 H   0  0  0  0  0  0  0  0  0  0  0  0
  150.7518  144.7946  161.3448 H   0  0  0  0  0  0  0  0  0  0  0  0
  151.6304  146.4830  159.7667 H   0  0  0  0  0  0  0  0  0  0  0  0
  153.1072  145.7383  160.3800 H   0  0  0  0  0  0  0  0  0  0  0  0
  151.9898  145.6072  157.6647 H   0  0  0  0  0  0  0  0  0  0  0  0
  153.5080  144.8913  158.1977 H   0  0  0  0  0  0  0  0  0  0  0  0
  151.5264  143.1985  157.4931 H   0  0  0  0  0  0  0  0  0  0  0  0
  149.9056  143.0548  159.5662 H   0  0  0  0  0  0  0  0  0  0  0  0
  149.8715  144.6901  158.8703 H   0  0  0  0  0  0  0  0  0  0  0  0
  1  2  1  0  0  0  0
  1 21  1  0  0  0  0
  1 22  1  0  0  0  0
  1 23  1  0  0  0  0
  2  7  1  0  0  0  0
  2  3  2  0  0  0  0
  3  4  1  0  0  0  0
  4  5  1  0  0  0  0
  5  6  1  0  0  0  0
  5  7  2  0  0  0  0
  7  8  1  0  0  0  0
  8  9  1  0  0  0  0
  8 24  1  0  0  0  0
  8 25  1  0  0  0  0
  9 10  2  0  0  0  0
  9 11  1  0  0  0  0
 11 12  1  0  0  0  0
 11 26  1  0  0  0  0
 12 13  1  0  0  0  0
 12 14  1  0  0  0  0
 12 27  1  0  0  0  0
 13 28  1  0  0  0  0
 13 29  1  0  0  0  0
 13 30  1  0  0  0  0
 14 19  1  0  0  0  0
 14 15  1  0  0  0  0
 14 31  1  0  0  0  0
 15 16  1  0  0  0  0
 15 32  1  0  0  0  0
 15 33  1  0  0  0  0
 16 20  1  0  0  0  0
 16 17  1  0  0  0  0
 16 34  1  0  0  0  0
 17 18  1  0  0  0  0
 17 35  1  0  0  0  0
 17 36  1  0  0  0  0
 18 19  1  0  0  0  0
 18 37  1  0  0  0  0
 18 38  1  0  0  0  0
 19 20  1  0  0  0  0
 19 39  1  0  0  0  0
 20 40  1  0  0  0  0
 20 41  1  0  0  0  0
M  END
> <s_m_source_file>
AV-unprocessed.smi

> <i_m_source_file_index>
1686

> <i_lp_mmshare_version>
43012

> <i_f3d_flags>
0

> <s_epik_input>
W0NIM11jMW5vYyhDbCljMVtDSDJdQyg9TylbTkhdW0NASF0oW0NIM10pW0NASF0oW0NIMl1bQ0BIXTIzKVtDQEhdKFtDSDJdMylbQ0gyXVtDSDJdMg==

> <s_epik_cmdline>
J2VwaWtfcHl0aG9uJywgJy1waCcsICc3LjAnLCAnLXRuJywgJzgnLCAnLW1hJywgJzIwMCcsICctbWV0YWxfYmluZGluZycsICctaW1hZScsICc8aW5maWxlLm1hZT4nLCAnLW9tYWUnLCAnPG91dGZpbGUubWFlPic=

> <r_lp_tautomer_probability>
1

> <r_epik_Ionization_Penalty>
2.01576e-08

> <r_epik_Ionization_Penalty_Charging>
0

> <r_epik_Ionization_Penalty_Neutral>
2.01576e-08

> <r_epik_State_Penalty>
-0

> <r_epik_Charging_Adjusted_Penalty>
0

> <i_epik_Tot_Q>
0

> <i_epik_Tot_abs_Q>
0

> <r_epik_Metal_State_Penalty>
-0

> <b_epik_Metal_Only>
0

> <s_lp_Force_Field>
OPLS_2005

> <r_lp_Energy>
46.9039

> <b_lp_Chiralities_Consistent>
1

> <s_lp_Variant>
AV-unprocessed.smi:1686-6

> <Gold.Version>
5.8.1

> <Gold.Id.Protein>
6NUR|6NUR_protein|mol2

> <Gold.PLP.Fitness>
44.4212

> <Gold.PLP.PLP>
-43.3046

> <Gold.PLP.part.hbond>
-1.0000

> <Gold.PLP.part.metal>
0.0000

> <Gold.PLP.part.buried>
-5.5983

> <Gold.PLP.part.nonpolar>
-35.5544

> <Gold.PLP.part.repulsive>
0.3779

> <Gold.PLP.ligand.clash>
0.0000

> <Gold.PLP.ligand.torsion>
0.9548

> <Gold.PLP.Chemscore.Hbond>
1.0000

> <Gold.PLP.Chemscore.CHOScore>
0.0000

> <Gold.PLP.Chemscore.Metal>
0.0000

> <Gold.Chemscore.Hbonds>
donor molecule, donor type, donor heavy atom, donor atom, acceptor molecule, acceptor atom, score
      P1  H 10752 10763       L1     3  1.00

> <Gold.PLP.Chemscore.Internal.Correction>
0.0261

> <Gold.Rescore>
     Score         DG    S(hbond)    S(metal)    S(lipo)     H(rot)  DE(clash)    DE(int)     intcor
     19.52     -20.55       0.97        0.00     133.22       1.46       0.11       0.92       ----

> <Gold.Chemscore.Fitness>
19.5229

> <Gold.Chemscore.DG>
-20.5504

> <Gold.Chemscore.ZeroCoef>
-5.4800

> <Gold.Chemscore.Hbond>
0.9680

> <Gold.Chemscore.Metal>
0.0000

> <Gold.Chemscore.Lipo>
133.2249

> <Gold.Chemscore.Internal_Hbond>
0.0000

> <Gold.Chemscore.DEClash>
0.1060

> <Gold.Chemscore.DEInternal>
0.9215

> <Gold.Chemscore.Rot>
1.4648

> <Gold.Chemscore.Internal.Correction>
   9.000000E+99

> <Gold.Chemscore.Hbonds>
donor molecule, donor type, donor heavy atom, donor atom, acceptor molecule, acceptor atom, score
      P1  H 10752 10763       L1     3  0.95

> <Gold.Chemscore.Hbond.Weighted>
-3.2330

> <Gold.Chemscore.Metal.Weighted>
-0.0000

> <Gold.Chemscore.Lipo.Weighted>
-15.5873

> <Gold.Chemscore.Internal_Hbond.Weighted>
0.0000

> <Gold.Chemscore.DEClash.Weighted>
0.1060

> <Gold.Chemscore.DEInternal.Weighted>
0.9215

> <Gold.Chemscore.Rot.Weighted>
3.7500

> <Gold.Chemscore.Internal.Correction.Weighted>
   9.000000E+99

> <Gold.Protein.RotatedTorsions>
[ 6907 6896 6895 6894 ] final -170.87 input  -60.11 | X-H torsion
[ 7974 7965 7964 7962 ] final  121.41 input  175.53 | X-H torsion
[ 8008 7997 7996 7995 ] final  -25.58 input   59.86 | X-H torsion
[ 10167 10162 10161 10158 ] final  123.62 input  -65.29 | X-H torsion
[ 10718 10713 10712 10709 ] final    1.71 input   66.30 | X-H torsion
[ 10763 10752 10751 10750 ] final   50.98 input  -60.55 | X-H torsion
[ 11005 11000 10999 10996 ] final  102.66 input  -57.11 | X-H torsion

> <Gold.Protein.ActiveResidues>
 VAL166  LYS551  ARG553  GLY616  TRP617  ASP618  TYR619  PRO620  LYS621  CYS622 
 ASP623  PHE694  ASN695  SER759  ASP760  ASP761  ALA762  ILE779  LEU786  VAL792 
 PHE793  MET794  SER795  GLU796  ALA797  LYS798  CYS799  TRP800  GLU811  SER814 

> <Gold.Protein.RotatedAtoms>
  151.5147  133.3478  159.2890 H   0  0  0  0  0  0  0  0  0  0  0  0  # atno 6907 bound_to 6896
  150.8690  134.8062  159.7151 H   0  0  0  0  0  0  0  0  0  0  0  0  # atno 6908 bound_to 6896
  152.4685  134.5028  159.9782 H   0  0  0  0  0  0  0  0  0  0  0  0  # atno 6909 bound_to 6896
  145.1196  139.3398  143.4721 H   0  0  0  0  0  0  0  0  0  0  0  0  # atno 7974 bound_to 7965
  154.4468  140.1922  156.0642 H   0  0  0  0  0  0  0  0  0  0  0  0  # atno 8008 bound_to 7997
  156.0560  140.3302  155.7379 H   0  0  0  0  0  0  0  0  0  0  0  0  # atno 8009 bound_to 7997
  155.5485  140.0593  157.2846 H   0  0  0  0  0  0  0  0  0  0  0  0  # atno 8010 bound_to 7997
  139.5788  144.6976  151.3582 H   0  0  0  0  0  0  0  0  0  0  0  0  # atno 10167 bound_to 10162
  156.8523  130.5558  149.5669 H   0  0  0  0  0  0  0  0  0  0  0  0  # atno 10718 bound_to 10713
  152.9785  135.5861  154.4340 H   0  0  0  0  0  0  0  0  0  0  0  0  # atno 10763 bound_to 10752
  154.3950  135.2768  155.2134 H   0  0  0  0  0  0  0  0  0  0  0  0  # atno 10764 bound_to 10752
  154.3990  135.6108  153.5940 H   0  0  0  0  0  0  0  0  0  0  0  0  # atno 10765 bound_to 10752
  139.8779  134.9233  156.5091 H   0  0  0  0  0  0  0  0  0  0  0  0  # atno 11005 bound_to 11000
  146.3522  140.1150  142.8602 LP  0  0  0  0  0  0  0  0  0  0  0  0  # atno 17320 bound_to 7965
  145.0755  140.9185  143.4856 LP  0  0  0  0  0  0  0  0  0  0  0  0  # atno 17321 bound_to 7965
  140.7069  143.7491  150.7497 LP  0  0  0  0  0  0  0  0  0  0  0  0  # atno 17342 bound_to 10162
  140.1018  143.4780  152.2420 LP  0  0  0  0  0  0  0  0  0  0  0  0  # atno 17343 bound_to 10162
  156.0821  130.5829  150.9582 LP  0  0  0  0  0  0  0  0  0  0  0  0  # atno 17370 bound_to 10713
  157.6296  131.0922  150.8466 LP  0  0  0  0  0  0  0  0  0  0  0  0  # atno 17371 bound_to 10713
  140.8533  133.8115  155.9191 LP  0  0  0  0  0  0  0  0  0  0  0  0  # atno 17394 bound_to 11000
  140.9122  134.2246  157.4978 LP  0  0  0  0  0  0  0  0  0  0  0  0  # atno 17395 bound_to 11000

$$$$
