AV-unprocessed.smi:265|AV-procd|sdf|2020|dock7
  -GOLD-   2262021223D 1   1.00000     0.00000
 Structure written by MMmdl.
 52 56  0  0  0  0  0  0  0  0  1 V2000
  146.4986  132.4935  152.7339 C   0  0  0  0  0  0  0  0  0  0  0  0
  145.8119  133.1002  151.4981 C   0  0  1  0  0  0  0  0  0  0  0  0
  145.8428  132.1016  150.4769 O   0  0  0  0  0  0  0  0  0  0  0  0
  144.5574  131.9502  149.8938 C   0  0  0  0  0  0  0  0  0  0  0  0
  143.6085  132.3132  151.0246 C   0  0  0  0  0  0  0  0  0  0  0  0
  144.3219  133.4930  151.6767 C   0  0  1  0  0  0  0  0  0  0  0  0
  143.9322  133.5666  153.0370 O   0  0  0  0  0  0  0  0  0  0  0  0
  144.0241  134.8621  151.0073 C   0  0  0  0  0  0  0  0  0  0  0  0
  144.9010  135.9432  151.4325 N   0  0  0  0  0  0  0  0  0  0  0  0
  145.6976  136.7204  150.6222 C   0  0  0  0  0  0  0  0  0  0  0  0
  146.3997  137.6311  151.2391 N   0  0  0  0  0  0  0  0  0  0  0  0
  146.0793  137.4563  152.5803 C   0  0  0  0  0  0  0  0  0  0  0  0
  146.4783  138.0992  153.7864 C   0  0  0  0  0  0  0  0  0  0  0  0
  147.3774  139.1157  153.8118 N   0  0  0  0  0  0  0  0  0  0  0  0
  146.8927  140.4421  154.1934 C   0  0  0  0  0  0  0  0  0  0  0  0
  147.9054  141.5264  153.7952 C   0  0  0  0  0  0  0  0  0  0  0  0
  149.3090  141.2287  154.3473 C   0  0  1  0  0  0  0  0  0  0  0  0
  149.3177  141.3517  155.7639 O   0  0  0  0  0  0  0  0  0  0  0  0
  150.6224  141.2700  156.3404 C   0  0  0  0  0  0  0  0  0  0  0  0
  151.4164  140.0560  155.8228 C   0  0  0  0  0  0  0  0  0  0  0  0
  152.4198  139.6787  156.4236 O   0  0  0  0  0  0  0  0  0  0  0  0
  151.0032  139.4667  154.6891 N   0  0  0  0  0  0  0  0  0  0  0  0
  149.7587  139.7926  154.0006 C   0  0  1  0  0  0  0  0  0  0  0  0
  148.6789  138.7557  154.3710 C   0  0  0  0  0  0  0  0  0  0  0  0
  145.9241  137.6520  154.9453 N   0  0  0  0  0  0  0  0  0  0  0  0
  145.0505  136.6411  154.9306 C   0  0  0  0  0  0  0  0  0  0  0  0
  144.5955  135.9474  153.8859 N   0  0  0  0  0  0  0  0  0  0  0  0
  145.1376  136.3974  152.7186 C   0  0  0  0  0  0  0  0  0  0  0  0
  150.0078  141.9551  153.9277 H   0  0  0  0  0  0  0  0  0  0  0  0
  149.9439  139.7328  152.9273 H   0  0  0  0  0  0  0  0  0  0  0  0
  146.5548  133.2137  153.5505 H   0  0  0  0  0  0  0  0  0  0  0  0
  147.5181  132.1874  152.4986 H   0  0  0  0  0  0  0  0  0  0  0  0
  145.9641  131.6137  153.0942 H   0  0  0  0  0  0  0  0  0  0  0  0
  146.3961  133.9585  151.1637 H   0  0  0  0  0  0  0  0  0  0  0  0
  144.4517  132.6413  149.0566 H   0  0  0  0  0  0  0  0  0  0  0  0
  144.4037  130.9369  149.5229 H   0  0  0  0  0  0  0  0  0  0  0  0
  142.5946  132.5208  150.6852 H   0  0  0  0  0  0  0  0  0  0  0  0
  143.5519  131.4728  151.7188 H   0  0  0  0  0  0  0  0  0  0  0  0
  143.0767  133.9657  153.0834 H   0  0  0  0  0  0  0  0  0  0  0  0
  144.0961  134.7719  149.9224 H   0  0  0  0  0  0  0  0  0  0  0  0
  142.9975  135.1673  151.2128 H   0  0  0  0  0  0  0  0  0  0  0  0
  145.7342  136.5959  149.5496 H   0  0  0  0  0  0  0  0  0  0  0  0
  145.9365  140.6473  153.7101 H   0  0  0  0  0  0  0  0  0  0  0  0
  146.7219  140.4684  155.2708 H   0  0  0  0  0  0  0  0  0  0  0  0
  147.9552  141.5833  152.7070 H   0  0  0  0  0  0  0  0  0  0  0  0
  147.5649  142.5033  154.1394 H   0  0  0  0  0  0  0  0  0  0  0  0
  151.1781  142.1795  156.1090 H   0  0  0  0  0  0  0  0  0  0  0  0
  150.5287  141.2152  157.4251 H   0  0  0  0  0  0  0  0  0  0  0  0
  151.5443  138.6955  154.3263 H   0  0  0  0  0  0  0  0  0  0  0  0
  148.5770  138.6933  155.4556 H   0  0  0  0  0  0  0  0  0  0  0  0
  148.9979  137.7694  154.0354 H   0  0  0  0  0  0  0  0  0  0  0  0
  144.6607  136.3458  155.8936 H   0  0  0  0  0  0  0  0  0  0  0  0
  1  2  1  0  0  0  0
  1 31  1  0  0  0  0
  1 32  1  0  0  0  0
  1 33  1  0  0  0  0
  2  6  1  0  0  0  0
  2  3  1  0  0  0  0
  2 34  1  0  0  0  0
  3  4  1  0  0  0  0
  4  5  1  0  0  0  0
  4 35  1  0  0  0  0
  4 36  1  0  0  0  0
  5  6  1  0  0  0  0
  5 37  1  0  0  0  0
  5 38  1  0  0  0  0
  6  7  1  0  0  0  0
  6  8  1  0  0  0  0
  7 39  1  0  0  0  0
  8  9  1  0  0  0  0
  8 40  1  0  0  0  0
  8 41  1  0  0  0  0
  9 28  1  0  0  0  0
  9 10  1  0  0  0  0
 10 11  2  0  0  0  0
 10 42  1  0  0  0  0
 11 12  1  0  0  0  0
 12 28  2  0  0  0  0
 12 13  1  0  0  0  0
 13 14  1  0  0  0  0
 13 25  2  0  0  0  0
 14 24  1  0  0  0  0
 14 15  1  0  0  0  0
 15 16  1  0  0  0  0
 15 43  1  0  0  0  0
 15 44  1  0  0  0  0
 16 17  1  0  0  0  0
 16 45  1  0  0  0  0
 16 46  1  0  0  0  0
 17 29  1  0  0  0  0
 17 23  1  0  0  0  0
 17 18  1  0  0  0  0
 18 19  1  0  0  0  0
 19 20  1  0  0  0  0
 19 47  1  0  0  0  0
 19 48  1  0  0  0  0
 20 21  2  0  0  0  0
 20 22  1  0  0  0  0
 22 23  1  0  0  0  0
 22 49  1  0  0  0  0
 23 30  1  0  0  0  0
 23 24  1  0  0  0  0
 24 50  1  0  0  0  0
 24 51  1  0  0  0  0
 25 26  1  0  0  0  0
 26 27  2  0  0  0  0
 26 52  1  0  0  0  0
 27 28  1  0  0  0  0
M  END
> <s_m_source_file>
AV-unprocessed.smi

> <i_m_source_file_index>
265

> <i_lp_mmshare_version>
43012

> <i_f3d_flags>
0

> <s_epik_input>
W0NIMl0xW0NIMl1PW0NAQEhdKFtDSDNdKVtDQEBdMShbT0hdKVtDSDJdbihbY0hdbjIpYyhjMjMpbltjSF1uYzNOKFtDSDJdW0NIMl00KVtDSDJdW0NAQEhdKFtDQEhdNDUpW05IXUMoPU8pW0NIMl1PNQ==

> <s_epik_cmdline>
J2VwaWtfcHl0aG9uJywgJy1waCcsICc3LjAnLCAnLXRuJywgJzgnLCAnLW1hJywgJzIwMCcsICctbWV0YWxfYmluZGluZycsICctaW1hZScsICc8aW5maWxlLm1hZT4nLCAnLW9tYWUnLCAnPG91dGZpbGUubWFlPic=

> <r_lp_tautomer_probability>
1

> <r_epik_Ionization_Penalty>
0.00221504

> <r_epik_Ionization_Penalty_Charging>
0

> <r_epik_Ionization_Penalty_Neutral>
0.00221504

> <r_epik_State_Penalty>
-0

> <r_epik_Charging_Adjusted_Penalty>
0

> <i_epik_Tot_Q>
0

> <i_epik_Tot_abs_Q>
0

> <r_epik_Metal_State_Penalty>
-0

> <b_epik_Metal_Only>
0

> <s_lp_Force_Field>
OPLS_2005

> <r_lp_Energy>
44.9484

> <b_lp_Chiralities_Consistent>
1

> <s_lp_Variant>
AV-unprocessed.smi:265-6

> <Gold.Version>
5.8.1

> <Gold.Id.Protein>
6NUR|6NUR_protein|mol2

> <Gold.PLP.Fitness>
47.8982

> <Gold.PLP.PLP>
-39.2167

> <Gold.PLP.part.hbond>
-2.3768

> <Gold.PLP.part.metal>
0.0000

> <Gold.PLP.part.buried>
0.6919

> <Gold.PLP.part.nonpolar>
-41.9214

> <Gold.PLP.part.repulsive>
3.9650

> <Gold.PLP.ligand.clash>
0.0000

> <Gold.PLP.ligand.torsion>
0.2659

> <Gold.PLP.Chemscore.Hbond>
1.9500

> <Gold.PLP.Chemscore.CHOScore>
1.0000

> <Gold.PLP.Chemscore.Metal>
0.0000

> <Gold.Chemscore.Hbonds>
donor molecule, donor type, donor heavy atom, donor atom, acceptor molecule, acceptor atom, score
      P1  H  7954  7966       L1    11  0.50
      P1  H  7997  8010       L1    21  1.00
      L1  C    10    42       P1  7921  0.78

> <Gold.PLP.Chemscore.Internal.Correction>
0.3632

> <Gold.Rescore>
     Score         DG    S(hbond)    S(metal)    S(lipo)     H(rot)  DE(clash)    DE(int)     intcor
      8.28     -13.39       1.02        0.00      87.58       2.25       3.11       1.99       ----

> <Gold.Chemscore.Fitness>
8.2841

> <Gold.Chemscore.DG>
-13.3899

> <Gold.Chemscore.ZeroCoef>
-5.4800

> <Gold.Chemscore.Hbond>
1.0214

> <Gold.Chemscore.Metal>
0.0000

> <Gold.Chemscore.Lipo>
87.5766

> <Gold.Chemscore.Internal_Hbond>
0.0000

> <Gold.Chemscore.DEClash>
3.1118

> <Gold.Chemscore.DEInternal>
1.9940

> <Gold.Chemscore.Rot>
2.2453

> <Gold.Chemscore.Internal.Correction>
   9.000000E+99

> <Gold.Chemscore.Hbonds>
donor molecule, donor type, donor heavy atom, donor atom, acceptor molecule, acceptor atom, score
      P1  H  7954  7966       L1    11  0.17
      P1  H  7997  8010       L1    21  0.98

> <Gold.Chemscore.Hbond.Weighted>
-3.4114

> <Gold.Chemscore.Metal.Weighted>
-0.0000

> <Gold.Chemscore.Lipo.Weighted>
-10.2465

> <Gold.Chemscore.Internal_Hbond.Weighted>
0.0000

> <Gold.Chemscore.DEClash.Weighted>
3.1118

> <Gold.Chemscore.DEInternal.Weighted>
1.9940

> <Gold.Chemscore.Rot.Weighted>
5.7479

> <Gold.Chemscore.Internal.Correction.Weighted>
   9.000000E+99

> <Gold.Protein.RotatedTorsions>
[ 6907 6896 6895 6894 ] final -149.55 input  -60.11 | X-H torsion
[ 7974 7965 7964 7962 ] final  130.43 input  175.53 | X-H torsion
[ 8008 7997 7996 7995 ] final   71.92 input   59.86 | X-H torsion
[ 10167 10162 10161 10158 ] final  -14.29 input  -65.29 | X-H torsion
[ 10718 10713 10712 10709 ] final  159.40 input   66.30 | X-H torsion
[ 10763 10752 10751 10750 ] final -161.30 input  -60.55 | X-H torsion
[ 11005 11000 10999 10996 ] final  -82.33 input  -57.11 | X-H torsion

> <Gold.Protein.ActiveResidues>
 VAL166  LYS551  ARG553  GLY616  TRP617  ASP618  TYR619  PRO620  LYS621  CYS622 
 ASP623  PHE694  ASN695  SER759  ASP760  ASP761  ALA762  ILE779  LEU786  VAL792 
 PHE793  MET794  SER795  GLU796  ALA797  LYS798  CYS799  TRP800  GLU811  SER814 

> <Gold.Protein.RotatedAtoms>
  151.1857  133.4698  159.2594 H   0  0  0  0  0  0  0  0  0  0  0  0  # atno 6907 bound_to 6896
  151.1214  135.0081  159.8550 H   0  0  0  0  0  0  0  0  0  0  0  0  # atno 6908 bound_to 6896
  152.5456  134.1768  159.8672 H   0  0  0  0  0  0  0  0  0  0  0  0  # atno 6909 bound_to 6896
  145.0180  139.4158  143.5211 H   0  0  0  0  0  0  0  0  0  0  0  0  # atno 7974 bound_to 7965
  155.7611  140.3486  155.5198 H   0  0  0  0  0  0  0  0  0  0  0  0  # atno 8008 bound_to 7997
  155.8913  140.1018  157.1437 H   0  0  0  0  0  0  0  0  0  0  0  0  # atno 8009 bound_to 7997
  154.4034  140.1304  156.4306 H   0  0  0  0  0  0  0  0  0  0  0  0  # atno 8010 bound_to 7997
  140.7198  143.5337  150.9490 H   0  0  0  0  0  0  0  0  0  0  0  0  # atno 10167 bound_to 10162
  157.1646  131.0595  151.2214 H   0  0  0  0  0  0  0  0  0  0  0  0  # atno 10718 bound_to 10713
  154.7315  135.3047  154.8883 H   0  0  0  0  0  0  0  0  0  0  0  0  # atno 10763 bound_to 10752
  153.9724  135.6740  153.4751 H   0  0  0  0  0  0  0  0  0  0  0  0  # atno 10764 bound_to 10752
  153.0923  135.4953  154.8634 H   0  0  0  0  0  0  0  0  0  0  0  0  # atno 10765 bound_to 10752
  141.1663  133.7239  156.8555 H   0  0  0  0  0  0  0  0  0  0  0  0  # atno 11005 bound_to 11000
  146.3481  139.9662  142.8711 LP  0  0  0  0  0  0  0  0  0  0  0  0  # atno 17320 bound_to 7965
  145.1933  140.9822  143.4198 LP  0  0  0  0  0  0  0  0  0  0  0  0  # atno 17321 bound_to 7965
  139.9058  143.6780  152.3124 LP  0  0  0  0  0  0  0  0  0  0  0  0  # atno 17342 bound_to 10162
  139.7146  144.7614  151.1056 LP  0  0  0  0  0  0  0  0  0  0  0  0  # atno 17343 bound_to 10162
  157.4100  130.7380  149.6832 LP  0  0  0  0  0  0  0  0  0  0  0  0  # atno 17370 bound_to 10713
  155.9748  130.4098  150.3896 LP  0  0  0  0  0  0  0  0  0  0  0  0  # atno 17371 bound_to 10713
  140.1885  134.8982  157.3033 LP  0  0  0  0  0  0  0  0  0  0  0  0  # atno 17394 bound_to 11000
  140.2316  134.3902  155.7519 LP  0  0  0  0  0  0  0  0  0  0  0  0  # atno 17395 bound_to 11000

$$$$
