AV-unprocessed.smi:1543|AV-procd|sdf|6208|dock8
  -GOLD-   22720 6383D 1   1.00000     0.00000
 Structure written by MMmdl.
 49 50  0  0  0  0  0  0  0  0  2 V2000
  151.9786  138.0847  154.2427 C   0  0  0  0  0  0  0  0  0  0  0  0
  150.8581  138.8901  154.9102 C   0  0  2  0  0  0  0  0  0  0  0  0
  149.5360  138.7949  154.1277 C   0  0  0  0  0  0  0  0  0  0  0  0
  148.4927  139.6489  154.7596 N   0  3  2  0  0  0  0  0  0  0  0  0
  147.0895  139.4704  154.2378 C   0  0  0  0  0  0  0  0  0  0  0  0
  146.1704  140.5805  154.8070 C   0  0  0  0  0  0  0  0  0  0  0  0
  147.0860  139.6606  152.6998 C   0  0  0  0  0  0  0  0  0  0  0  0
  146.5193  138.0710  154.6187 C   0  0  0  0  0  0  0  0  0  0  0  0
  146.7545  137.0469  153.6012 N   0  0  0  0  0  0  0  0  0  0  0  0
  145.8560  136.1447  153.1810 C   0  0  0  0  0  0  0  0  0  0  0  0
  144.7093  136.0735  153.6221 O   0  0  0  0  0  0  0  0  0  0  0  0
  146.3718  135.3564  152.2226 N   0  0  0  0  0  0  0  0  0  0  0  0
  145.7563  134.2719  151.5410 C   0  0  0  0  0  0  0  0  0  0  0  0
  144.3667  133.9993  151.5648 C   0  0  0  0  0  0  0  0  0  0  0  0
  143.8822  132.8791  150.8624 C   0  0  0  0  0  0  0  0  0  0  0  0
  144.8025  132.0693  150.1692 C   0  0  0  0  0  0  0  0  0  0  0  0
  146.1304  132.3096  150.1489 N   0  0  0  0  0  0  0  0  0  0  0  0
  146.5879  133.3849  150.8247 C   0  0  0  0  0  0  0  0  0  0  0  0
  148.9853  141.0539  154.8299 C   0  0  0  0  0  0  0  0  0  0  0  0
  150.3332  141.1357  155.5718 C   0  0  1  0  0  0  0  0  0  0  0  0
  150.2123  140.9279  157.0922 C   0  0  0  0  0  0  0  0  0  0  0  0
  151.2779  140.2490  154.9758 O   0  0  0  0  0  0  0  0  0  0  0  0
  151.7174  137.0284  154.1759 H   0  0  0  0  0  0  0  0  0  0  0  0
  152.9053  138.1613  154.8119 H   0  0  0  0  0  0  0  0  0  0  0  0
  152.1775  138.4452  153.2330 H   0  0  0  0  0  0  0  0  0  0  0  0
  150.7168  138.4980  155.9175 H   0  0  0  0  0  0  0  0  0  0  0  0
  149.6970  139.1034  153.0942 H   0  0  0  0  0  0  0  0  0  0  0  0
  149.2396  137.7481  154.1076 H   0  0  0  0  0  0  0  0  0  0  0  0
  145.2090  140.6119  154.2930 H   0  0  0  0  0  0  0  0  0  0  0  0
  146.6228  141.5667  154.6967 H   0  0  0  0  0  0  0  0  0  0  0  0
  145.9407  140.4302  155.8616 H   0  0  0  0  0  0  0  0  0  0  0  0
  146.0741  139.7585  152.3057 H   0  0  0  0  0  0  0  0  0  0  0  0
  147.5322  138.8160  152.1754 H   0  0  0  0  0  0  0  0  0  0  0  0
  147.6277  140.5616  152.4093 H   0  0  0  0  0  0  0  0  0  0  0  0
  146.9171  137.7324  155.5756 H   0  0  0  0  0  0  0  0  0  0  0  0
  145.4393  138.1257  154.7507 H   0  0  0  0  0  0  0  0  0  0  0  0
  147.6712  137.0322  153.1779 H   0  0  0  0  0  0  0  0  0  0  0  0
  147.3016  135.5909  151.9068 H   0  0  0  0  0  0  0  0  0  0  0  0
  143.6691  134.6121  152.1139 H   0  0  0  0  0  0  0  0  0  0  0  0
  142.8283  132.6434  150.8589 H   0  0  0  0  0  0  0  0  0  0  0  0
  144.4638  131.2027  149.6212 H   0  0  0  0  0  0  0  0  0  0  0  0
  147.6559  133.5441  150.7888 H   0  0  0  0  0  0  0  0  0  0  0  0
  149.1161  141.4473  153.8217 H   0  0  0  0  0  0  0  0  0  0  0  0
  148.2807  141.7116  155.3349 H   0  0  0  0  0  0  0  0  0  0  0  0
  150.7311  142.1400  155.4237 H   0  0  0  0  0  0  0  0  0  0  0  0
  149.5909  141.7041  157.5396 H   0  0  0  0  0  0  0  0  0  0  0  0
  151.1911  140.9748  157.5702 H   0  0  0  0  0  0  0  0  0  0  0  0
  149.7619  139.9686  157.3453 H   0  0  0  0  0  0  0  0  0  0  0  0
  148.4457  139.3386  155.7197 H   0  0  0  0  0  0  0  0  0  0  0  0
  1  2  1  0  0  0  0
  1 23  1  0  0  0  0
  1 24  1  0  0  0  0
  1 25  1  0  0  0  0
  2 22  1  0  0  0  0
  2  3  1  0  0  0  0
  2 26  1  0  0  0  0
  3  4  1  0  0  0  0
  3 27  1  0  0  0  0
  3 28  1  0  0  0  0
  4  5  1  0  0  0  0
  4 19  1  0  0  0  0
  4 49  1  0  0  0  0
  5  6  1  0  0  0  0
  5  7  1  0  0  0  0
  5  8  1  0  0  0  0
  6 29  1  0  0  0  0
  6 30  1  0  0  0  0
  6 31  1  0  0  0  0
  7 32  1  0  0  0  0
  7 33  1  0  0  0  0
  7 34  1  0  0  0  0
  8  9  1  0  0  0  0
  8 35  1  0  0  0  0
  8 36  1  0  0  0  0
  9 10  1  0  0  0  0
  9 37  1  0  0  0  0
 10 11  2  0  0  0  0
 10 12  1  0  0  0  0
 12 13  1  0  0  0  0
 12 38  1  0  0  0  0
 13 18  1  0  0  0  0
 13 14  2  0  0  0  0
 14 15  1  0  0  0  0
 14 39  1  0  0  0  0
 15 16  2  0  0  0  0
 15 40  1  0  0  0  0
 16 17  1  0  0  0  0
 16 41  1  0  0  0  0
 17 18  2  0  0  0  0
 18 42  1  0  0  0  0
 19 20  1  0  0  0  0
 19 43  1  0  0  0  0
 19 44  1  0  0  0  0
 20 21  1  0  0  0  0
 20 22  1  0  0  0  0
 20 45  1  0  0  0  0
 21 46  1  0  0  0  0
 21 47  1  0  0  0  0
 21 48  1  0  0  0  0
M  CHG  1   4   1
M  END
> <s_m_source_file>
AV-unprocessed.smi

> <i_m_source_file_index>
1543

> <i_lp_mmshare_version>
43012

> <i_f3d_flags>
0

> <s_epik_input>
W0NIM11bQ0BASF0xW0NIMl1OKFtDSDJdW0NASF0oTzEpW0NIM10pQyhbQ0gzXSkoW0NIM10pW0NIMl1bTkhdQyg9TylbTkhdYzJbY0hdW2NIXVtjSF1uW2NIXTI=

> <s_epik_cmdline>
J2VwaWtfcHl0aG9uJywgJy1waCcsICc3LjAnLCAnLXRuJywgJzgnLCAnLW1hJywgJzIwMCcsICctbWV0YWxfYmluZGluZycsICctaW1hZScsICc8aW5maWxlLm1hZT4nLCAnLW9tYWUnLCAnPG91dGZpbGUubWFlPic=

> <r_epik_Ionization_Penalty>
0.60676

> <r_epik_Ionization_Penalty_Charging>
0.602531

> <r_epik_Ionization_Penalty_Neutral>
0.00422967

> <r_epik_State_Penalty>
0.607492

> <r_epik_Charging_Adjusted_Penalty>
1.21002

> <i_epik_Tot_Q>
1

> <i_epik_Tot_abs_Q>
1

> <r_epik_Metal_State_Penalty>
0.604589

> <b_epik_Metal_Only>
0

> <s_lp_Force_Field>
OPLS_2005

> <r_lp_Energy>
30.3839

> <b_lp_Chiralities_Consistent>
1

> <s_lp_Variant>
AV-unprocessed.smi:1543-4

> <Gold.Version>
5.8.1

> <Gold.Id.Protein>
6NUR|6NUR_protein|mol2

> <Gold.PLP.Fitness>
44.1800

> <Gold.PLP.PLP>
-37.1730

> <Gold.PLP.part.hbond>
-3.0000

> <Gold.PLP.part.metal>
0.0000

> <Gold.PLP.part.buried>
-4.5020

> <Gold.PLP.part.nonpolar>
-30.1104

> <Gold.PLP.part.repulsive>
0.3502

> <Gold.PLP.ligand.clash>
0.0000

> <Gold.PLP.ligand.torsion>
1.0530

> <Gold.PLP.Chemscore.Hbond>
3.0000

> <Gold.PLP.Chemscore.CHOScore>
0.0000

> <Gold.PLP.Chemscore.Metal>
0.0000

> <Gold.Chemscore.Hbonds>
donor molecule, donor type, donor heavy atom, donor atom, acceptor molecule, acceptor atom, score
      L1  H     9    37       P1  7948  0.99
      L1  H    12    38       P1  7948  1.00
      P1  H  7989  7998       L1    22  1.00

> <Gold.PLP.Chemscore.Internal.Correction>
0.1130

> <Gold.Rescore>
     Score         DG    S(hbond)    S(metal)    S(lipo)     H(rot)  DE(clash)    DE(int)     intcor
     19.74     -22.08       2.73        0.00      96.07       1.46       0.21       2.13       ----

> <Gold.Chemscore.Fitness>
19.7385

> <Gold.Chemscore.DG>
-22.0790

> <Gold.Chemscore.ZeroCoef>
-5.4800

> <Gold.Chemscore.Hbond>
2.7261

> <Gold.Chemscore.Metal>
0.0000

> <Gold.Chemscore.Lipo>
96.0659

> <Gold.Chemscore.Internal_Hbond>
0.0000

> <Gold.Chemscore.DEClash>
0.2065

> <Gold.Chemscore.DEInternal>
2.1339

> <Gold.Chemscore.Rot>
1.4632

> <Gold.Chemscore.Internal.Correction>
   9.000000E+99

> <Gold.Chemscore.Hbonds>
donor molecule, donor type, donor heavy atom, donor atom, acceptor molecule, acceptor atom, score
      L1  H     9    37       P1  7948  0.91
      L1  H    12    38       P1  7948  1.00
      P1  H  7989  7998       L1    22  0.50

> <Gold.Chemscore.Hbond.Weighted>
-9.1051

> <Gold.Chemscore.Metal.Weighted>
-0.0000

> <Gold.Chemscore.Lipo.Weighted>
-11.2397

> <Gold.Chemscore.Internal_Hbond.Weighted>
0.0000

> <Gold.Chemscore.DEClash.Weighted>
0.2065

> <Gold.Chemscore.DEInternal.Weighted>
2.1339

> <Gold.Chemscore.Rot.Weighted>
3.7459

> <Gold.Chemscore.Internal.Correction.Weighted>
   9.000000E+99

> <Gold.Protein.RotatedTorsions>
[ 6907 6896 6895 6894 ] final   80.25 input  -60.11 | X-H torsion
[ 7974 7965 7964 7962 ] final -160.09 input  175.53 | X-H torsion
[ 8008 7997 7996 7995 ] final  158.57 input   59.86 | X-H torsion
[ 10167 10162 10161 10158 ] final  -17.24 input  -65.29 | X-H torsion
[ 10718 10713 10712 10709 ] final   90.29 input   66.30 | X-H torsion
[ 10763 10752 10751 10750 ] final   77.21 input  -60.55 | X-H torsion
[ 11005 11000 10999 10996 ] final  -48.33 input  -57.11 | X-H torsion

> <Gold.Protein.ActiveResidues>
 VAL166  LYS551  ARG553  GLY616  TRP617  ASP618  TYR619  PRO620  LYS621  CYS622 
 ASP623  PHE694  ASN695  SER759  ASP760  ASP761  ALA762  ILE779  LEU786  VAL792 
 PHE793  MET794  SER795  GLU796  ALA797  LYS798  CYS799  TRP800  GLU811  SER814 

> <Gold.Protein.RotatedAtoms>
  152.5228  134.3386  159.9208 H   0  0  0  0  0  0  0  0  0  0  0  0  # atno 6907 bound_to 6896
  151.3335  133.3984  159.2672 H   0  0  0  0  0  0  0  0  0  0  0  0  # atno 6908 bound_to 6896
  150.9861  134.9224  159.7930 H   0  0  0  0  0  0  0  0  0  0  0  0  # atno 6909 bound_to 6896
  144.7440  140.3591  143.6100 H   0  0  0  0  0  0  0  0  0  0  0  0  # atno 7974 bound_to 7965
  156.2294  140.1855  156.7280 H   0  0  0  0  0  0  0  0  0  0  0  0  # atno 8008 bound_to 7997
  154.5997  140.0638  156.9379 H   0  0  0  0  0  0  0  0  0  0  0  0  # atno 8009 bound_to 7997
  155.2195  140.3306  155.4320 H   0  0  0  0  0  0  0  0  0  0  0  0  # atno 8010 bound_to 7997
  140.7244  143.5035  150.9839 H   0  0  0  0  0  0  0  0  0  0  0  0  # atno 10167 bound_to 10162
  157.6958  131.0365  150.3555 H   0  0  0  0  0  0  0  0  0  0  0  0  # atno 10718 bound_to 10713
  153.0782  135.4922  154.8448 H   0  0  0  0  0  0  0  0  0  0  0  0  # atno 10763 bound_to 10752
  154.7116  135.3021  154.9191 H   0  0  0  0  0  0  0  0  0  0  0  0  # atno 10764 bound_to 10752
  153.9883  135.6781  153.4806 H   0  0  0  0  0  0  0  0  0  0  0  0  # atno 10765 bound_to 10752
  141.0694  133.6683  156.3426 H   0  0  0  0  0  0  0  0  0  0  0  0  # atno 11005 bound_to 11000
  145.7196  139.1706  143.2492 LP  0  0  0  0  0  0  0  0  0  0  0  0  # atno 17320 bound_to 7965
  146.1287  140.7214  142.9422 LP  0  0  0  0  0  0  0  0  0  0  0  0  # atno 17321 bound_to 7965
  139.8746  143.7149  152.3163 LP  0  0  0  0  0  0  0  0  0  0  0  0  # atno 17342 bound_to 10162
  139.7410  144.7559  151.0652 LP  0  0  0  0  0  0  0  0  0  0  0  0  # atno 17343 bound_to 10162
  156.3998  130.3913  149.6968 LP  0  0  0  0  0  0  0  0  0  0  0  0  # atno 17370 bound_to 10713
  156.4289  130.7805  151.2824 LP  0  0  0  0  0  0  0  0  0  0  0  0  # atno 17371 bound_to 10713
  140.5705  134.5845  157.5456 LP  0  0  0  0  0  0  0  0  0  0  0  0  # atno 17394 bound_to 11000
  139.9508  134.7620  156.0452 LP  0  0  0  0  0  0  0  0  0  0  0  0  # atno 17395 bound_to 11000

$$$$
