AV-unprocessed.smi:2171|AV-procd|sdf|8829|dock8
  -GOLD-   2272012 23D 1   1.00000     0.00000
 Structure written by MMmdl.
 39 41  0  0  0  0  0  0  0  0  2 V2000
  152.6684  139.7509  156.2219 O   0  0  0  0  0  0  0  0  0  0  0  0
  151.4739  139.4671  156.3026 C   0  0  0  0  0  0  0  0  0  0  0  0
  150.7396  138.8902  155.0899 C   0  0  0  0  0  0  0  0  0  0  0  0
  149.7156  139.8025  154.6068 N   0  0  0  0  0  0  0  0  0  0  0  0
  148.4739  139.4993  154.0872 C   0  0  0  0  0  0  0  0  0  0  0  0
  147.8727  140.6793  153.7548 C   0  0  0  0  0  0  0  0  0  0  0  0
  148.8346  141.6634  154.1175 C   0  0  0  0  0  0  0  0  0  0  0  0
  149.9359  141.1361  154.6271 N   0  0  0  0  0  0  0  0  0  0  0  0
  150.7544  139.6122  157.4273 N   0  0  0  0  0  0  0  0  0  0  0  0
  151.2864  140.0238  158.7238 C   0  0  1  0  0  0  0  0  0  0  0  0
  152.7190  139.5150  158.9742 C   0  0  0  0  0  0  0  0  0  0  0  0
  153.4439  140.6986  159.6234 C   0  0  0  0  0  0  0  0  0  0  0  0
  152.8069  141.8597  158.9917 N   0  3  2  0  0  0  0  0  0  0  0  0
  153.0768  143.2021  159.5450 C   0  0  0  0  0  0  0  0  0  0  0  0
  152.4522  144.2528  158.6018 C   0  0  0  0  0  0  0  0  0  0  0  0
  150.9604  143.9685  158.3143 C   0  0  0  0  0  0  0  0  0  0  0  0
  150.7302  142.5095  157.8651 C   0  0  0  0  0  0  0  0  0  0  0  0
  151.3678  141.5601  158.8969 C   0  0  1  0  0  0  0  0  0  0  0  0
  151.4526  138.6954  154.2879 H   0  0  0  0  0  0  0  0  0  0  0  0
  150.2732  137.9377  155.3471 H   0  0  0  0  0  0  0  0  0  0  0  0
  148.1266  138.4805  153.9956 H   0  0  0  0  0  0  0  0  0  0  0  0
  146.8935  140.8188  153.3211 H   0  0  0  0  0  0  0  0  0  0  0  0
  148.7664  142.7376  154.0259 H   0  0  0  0  0  0  0  0  0  0  0  0
  149.7767  139.3622  157.3937 H   0  0  0  0  0  0  0  0  0  0  0  0
  150.6471  139.6232  159.5133 H   0  0  0  0  0  0  0  0  0  0  0  0
  152.7443  138.6197  159.5963 H   0  0  0  0  0  0  0  0  0  0  0  0
  153.2060  139.2716  158.0284 H   0  0  0  0  0  0  0  0  0  0  0  0
  153.2623  140.7177  160.6993 H   0  0  0  0  0  0  0  0  0  0  0  0
  154.5205  140.6794  159.4522 H   0  0  0  0  0  0  0  0  0  0  0  0
  152.6626  143.2853  160.5509 H   0  0  0  0  0  0  0  0  0  0  0  0
  154.1532  143.3592  159.6229 H   0  0  0  0  0  0  0  0  0  0  0  0
  152.5677  145.2511  159.0249 H   0  0  0  0  0  0  0  0  0  0  0  0
  153.0001  144.2558  157.6584 H   0  0  0  0  0  0  0  0  0  0  0  0
  150.3792  144.1620  159.2169 H   0  0  0  0  0  0  0  0  0  0  0  0
  150.5864  144.6571  157.5561 H   0  0  0  0  0  0  0  0  0  0  0  0
  149.6606  142.3182  157.7754 H   0  0  0  0  0  0  0  0  0  0  0  0
  151.1658  142.3492  156.8776 H   0  0  0  0  0  0  0  0  0  0  0  0
  150.9235  141.7800  159.8702 H   0  0  0  0  0  0  0  0  0  0  0  0
  153.1510  141.8692  158.0421 H   0  0  0  0  0  0  0  0  0  0  0  0
  1  2  2  0  0  0  0
  2  3  1  0  0  0  0
  2  9  1  0  0  0  0
  3  4  1  0  0  0  0
  3 19  1  0  0  0  0
  3 20  1  0  0  0  0
  4  8  1  0  0  0  0
  4  5  1  0  0  0  0
  5  6  2  0  0  0  0
  5 21  1  0  0  0  0
  6  7  1  0  0  0  0
  6 22  1  0  0  0  0
  7  8  2  0  0  0  0
  7 23  1  0  0  0  0
  9 10  1  0  0  0  0
  9 24  1  0  0  0  0
 10 18  1  0  0  0  0
 10 11  1  0  0  0  0
 10 25  1  0  0  0  0
 11 12  1  0  0  0  0
 11 26  1  0  0  0  0
 11 27  1  0  0  0  0
 12 13  1  0  0  0  0
 12 28  1  0  0  0  0
 12 29  1  0  0  0  0
 13 18  1  0  0  0  0
 13 14  1  0  0  0  0
 13 39  1  0  0  0  0
 14 15  1  0  0  0  0
 14 30  1  0  0  0  0
 14 31  1  0  0  0  0
 15 16  1  0  0  0  0
 15 32  1  0  0  0  0
 15 33  1  0  0  0  0
 16 17  1  0  0  0  0
 16 34  1  0  0  0  0
 16 35  1  0  0  0  0
 17 18  1  0  0  0  0
 17 36  1  0  0  0  0
 17 37  1  0  0  0  0
 18 38  1  0  0  0  0
M  CHG  1  13   1
M  END
> <s_m_source_file>
AV-unprocessed.smi

> <i_m_source_file_index>
2171

> <i_lp_mmshare_version>
43012

> <i_f3d_flags>
0

> <s_epik_input>
bjFbY0hdW2NIXVtjSF1uMVtDSDJdQyg9TylbTkhdW0NASF0oW0NIMl1bQ0gyXTIpW0NAQEhdKE4yMylbQ0gyXVtDSDJdW0NIMl1bQ0gyXTM=

> <s_epik_cmdline>
J2VwaWtfcHl0aG9uJywgJy1waCcsICc3LjAnLCAnLXRuJywgJzgnLCAnLW1hJywgJzIwMCcsICctbWV0YWxfYmluZGluZycsICctaW1hZScsICc8aW5maWxlLm1hZT4nLCAnLW9tYWUnLCAnPG91dGZpbGUubWFlPic=

> <r_lp_tautomer_probability>
1

> <r_epik_Ionization_Penalty>
0.00204179

> <r_epik_Ionization_Penalty_Charging>
0.00203239

> <r_epik_Ionization_Penalty_Neutral>
9.40205e-06

> <r_epik_State_Penalty>
0.00138983

> <r_epik_Charging_Adjusted_Penalty>
0.00342221

> <i_epik_Tot_Q>
1

> <i_epik_Tot_abs_Q>
1

> <r_epik_Metal_State_Penalty>
-0

> <b_epik_Metal_Only>
0

> <s_lp_Force_Field>
OPLS_2005

> <r_lp_Energy>
40.8782

> <b_lp_Chiralities_Consistent>
1

> <s_lp_Variant>
AV-unprocessed.smi:2171-4

> <Gold.Version>
5.8.1

> <Gold.Id.Protein>
6NUR|6NUR_protein|mol2

> <Gold.PLP.Fitness>
41.7927

> <Gold.PLP.PLP>
-36.4278

> <Gold.PLP.part.hbond>
-2.0000

> <Gold.PLP.part.metal>
0.0000

> <Gold.PLP.part.buried>
-1.4893

> <Gold.PLP.part.nonpolar>
-33.1424

> <Gold.PLP.part.repulsive>
0.2492

> <Gold.PLP.ligand.clash>
0.0000

> <Gold.PLP.ligand.torsion>
0.7241

> <Gold.PLP.Chemscore.Hbond>
1.2703

> <Gold.PLP.Chemscore.CHOScore>
0.9993

> <Gold.PLP.Chemscore.Metal>
0.0000

> <Gold.Chemscore.Hbonds>
donor molecule, donor type, donor heavy atom, donor atom, acceptor molecule, acceptor atom, score
      P1  H  7989  7998       L1     8  0.31
      P1  H  7997  8008       L1     1  1.00
      L1  C     7    23       P1  8028  0.97

> <Gold.PLP.Chemscore.Internal.Correction>
0.0043

> <Gold.Rescore>
     Score         DG    S(hbond)    S(metal)    S(lipo)     H(rot)  DE(clash)    DE(int)     intcor
     16.63     -18.76       1.60        0.00      99.36       1.44       0.02       2.10       ----

> <Gold.Chemscore.Fitness>
16.6349

> <Gold.Chemscore.DG>
-18.7589

> <Gold.Chemscore.ZeroCoef>
-5.4800

> <Gold.Chemscore.Hbond>
1.5996

> <Gold.Chemscore.Metal>
0.0000

> <Gold.Chemscore.Lipo>
99.3598

> <Gold.Chemscore.Internal_Hbond>
0.0000

> <Gold.Chemscore.DEClash>
0.0195

> <Gold.Chemscore.DEInternal>
2.1045

> <Gold.Chemscore.Rot>
1.4410

> <Gold.Chemscore.Internal.Correction>
   9.000000E+99

> <Gold.Chemscore.Hbonds>
donor molecule, donor type, donor heavy atom, donor atom, acceptor molecule, acceptor atom, score
      P1  H  7989  7998       L1     8  0.02
      P1  H  7997  8008       L1     1  1.00

> <Gold.Chemscore.Hbond.Weighted>
-5.3428

> <Gold.Chemscore.Metal.Weighted>
-0.0000

> <Gold.Chemscore.Lipo.Weighted>
-11.6251

> <Gold.Chemscore.Internal_Hbond.Weighted>
0.0000

> <Gold.Chemscore.DEClash.Weighted>
0.0195

> <Gold.Chemscore.DEInternal.Weighted>
2.1045

> <Gold.Chemscore.Rot.Weighted>
3.6889

> <Gold.Chemscore.Internal.Correction.Weighted>
   9.000000E+99

> <Gold.Protein.RotatedTorsions>
[ 6907 6896 6895 6894 ] final   85.73 input  -60.11 | X-H torsion
[ 7974 7965 7964 7962 ] final   68.14 input  175.53 | X-H torsion
[ 8008 7997 7996 7995 ] final  -39.86 input   59.86 | X-H torsion
[ 10167 10162 10161 10158 ] final  119.12 input  -65.29 | X-H torsion
[ 10718 10713 10712 10709 ] final -176.28 input   66.30 | X-H torsion
[ 10763 10752 10751 10750 ] final  -69.18 input  -60.55 | X-H torsion
[ 11005 11000 10999 10996 ] final   67.30 input  -57.11 | X-H torsion

> <Gold.Protein.ActiveResidues>
 VAL166  LYS551  ARG553  GLY616  TRP617  ASP618  TYR619  PRO620  LYS621  CYS622 
 ASP623  PHE694  ASN695  SER759  ASP760  ASP761  ALA762  ILE779  LEU786  VAL792 
 PHE793  MET794  SER795  GLU796  ALA797  LYS798  CYS799  TRP800  GLU811  SER814 

> <Gold.Protein.RotatedAtoms>
  152.5381  134.2540  159.8909 H   0  0  0  0  0  0  0  0  0  0  0  0  # atno 6907 bound_to 6896
  151.2503  133.4347  159.2619 H   0  0  0  0  0  0  0  0  0  0  0  0  # atno 6908 bound_to 6896
  151.0546  134.9710  159.8285 H   0  0  0  0  0  0  0  0  0  0  0  0  # atno 6909 bound_to 6896
  145.8062  139.3008  143.1126 H   0  0  0  0  0  0  0  0  0  0  0  0  # atno 7974 bound_to 7965
  154.4018  140.1540  156.2933 H   0  0  0  0  0  0  0  0  0  0  0  0  # atno 8008 bound_to 7997
  155.8766  140.3446  155.5836 H   0  0  0  0  0  0  0  0  0  0  0  0  # atno 8009 bound_to 7997
  155.7714  140.0831  157.2096 H   0  0  0  0  0  0  0  0  0  0  0  0  # atno 8010 bound_to 7997
  139.6067  144.7071  151.2937 H   0  0  0  0  0  0  0  0  0  0  0  0  # atno 10167 bound_to 10162
  156.8124  130.9591  151.3115 H   0  0  0  0  0  0  0  0  0  0  0  0  # atno 10718 bound_to 10713
  154.3997  135.6034  153.5890 H   0  0  0  0  0  0  0  0  0  0  0  0  # atno 10763 bound_to 10752
  152.9788  135.5903  154.4199 H   0  0  0  0  0  0  0  0  0  0  0  0  # atno 10764 bound_to 10752
  154.3996  135.2843  155.2083 H   0  0  0  0  0  0  0  0  0  0  0  0  # atno 10765 bound_to 10752
  139.9779  134.6792  156.0319 H   0  0  0  0  0  0  0  0  0  0  0  0  # atno 11005 bound_to 11000
  145.9825  140.8670  143.0107 LP  0  0  0  0  0  0  0  0  0  0  0  0  # atno 17320 bound_to 7965
  144.6762  140.2101  143.7378 LP  0  0  0  0  0  0  0  0  0  0  0  0  # atno 17321 bound_to 7965
  140.7290  143.6920  150.7914 LP  0  0  0  0  0  0  0  0  0  0  0  0  # atno 17342 bound_to 10162
  140.0507  143.5252  152.2675 LP  0  0  0  0  0  0  0  0  0  0  0  0  # atno 17343 bound_to 10162
  157.6499  130.8875  149.9612 LP  0  0  0  0  0  0  0  0  0  0  0  0  # atno 17370 bound_to 10713
  156.1037  130.3654  150.0173 LP  0  0  0  0  0  0  0  0  0  0  0  0  # atno 17371 bound_to 10713
  141.1454  133.6557  156.3852 LP  0  0  0  0  0  0  0  0  0  0  0  0  # atno 17394 bound_to 11000
  140.5157  134.6352  157.5300 LP  0  0  0  0  0  0  0  0  0  0  0  0  # atno 17395 bound_to 11000

$$$$
