AV-unprocessed.smi:187|AV-procd|sdf|1468|dock1
  -GOLD-   2262019283D 1   1.00000     0.00000
 Structure written by MMmdl.
 53 56  0  0  0  0  0  0  0  0  1 V2000
  149.6552  138.6737  154.0747 C   0  0  0  0  0  0  0  0  0  0  0  0
  148.5219  139.7190  154.1190 C   0  0  2  0  0  0  0  0  0  0  0  0
  149.0870  141.0862  154.5549 C   0  0  0  0  0  0  0  0  0  0  0  0
  147.9834  142.1492  154.6437 C   0  0  0  0  0  0  0  0  0  0  0  0
  146.8652  141.6754  155.5912 C   0  0  1  0  0  0  0  0  0  0  0  0
  145.7286  142.7031  155.6605 C   0  0  0  0  0  0  0  0  0  0  0  0
  145.1287  143.0257  154.5120 N   0  0  0  0  0  0  0  0  0  0  0  0
  145.3944  143.2010  156.7342 O   0  0  0  0  0  0  0  0  0  0  0  0
  146.3362  140.3059  155.1228 C   0  0  0  0  0  0  0  0  0  0  0  0
  147.4174  139.3279  155.0071 N   0  0  0  0  0  0  0  0  0  0  0  0
  146.9205  138.0840  154.8263 C   0  0  0  0  0  0  0  0  0  0  0  0
  146.9736  137.2383  155.8844 N   0  0  0  0  0  0  0  0  0  0  0  0
  146.5029  135.9931  155.7671 C   0  0  0  0  0  0  0  0  0  0  0  0
  145.9436  135.4083  154.7054 N   0  0  0  0  0  0  0  0  0  0  0  0
  145.8775  136.2628  153.6439 C   0  0  0  0  0  0  0  0  0  0  0  0
  146.3427  137.6073  153.6159 C   0  0  0  0  0  0  0  0  0  0  0  0
  146.1183  138.1614  152.3617 N   0  0  0  0  0  0  0  0  0  0  0  0
  145.5604  137.1960  151.6835 C   0  0  0  0  0  0  0  0  0  0  0  0
  145.3514  136.0298  152.3851 N   0  0  0  0  0  0  0  0  0  0  0  0
  144.7949  134.8101  151.8782 C   0  0  0  0  0  0  0  0  0  0  0  0
  145.6546  133.5549  151.7097 C   0  0  0  0  0  0  0  0  0  0  0  0
  144.8093  133.1502  150.4803 C   0  0  0  0  0  0  0  0  0  0  0  0
  145.6007  132.5933  149.2854 C   0  0  0  0  0  0  0  0  0  0  0  0
  146.3357  131.4426  149.6496 O   0  0  0  0  0  0  0  0  0  0  0  0
  143.6163  132.2192  150.7774 C   0  0  0  0  0  0  0  0  0  0  0  0
  142.7166  132.1688  149.6888 O   0  0  0  0  0  0  0  0  0  0  0  0
  144.4619  134.6523  150.3930 C   0  0  0  0  0  0  0  0  0  0  0  0
  150.4802  139.0211  153.4525 H   0  0  0  0  0  0  0  0  0  0  0  0
  149.3198  137.7250  153.6554 H   0  0  0  0  0  0  0  0  0  0  0  0
  150.0517  138.4776  155.0715 H   0  0  0  0  0  0  0  0  0  0  0  0
  148.1225  139.8324  153.1107 H   0  0  0  0  0  0  0  0  0  0  0  0
  149.5749  140.9902  155.5261 H   0  0  0  0  0  0  0  0  0  0  0  0
  149.8554  141.4151  153.8545 H   0  0  0  0  0  0  0  0  0  0  0  0
  148.4061  143.0913  154.9950 H   0  0  0  0  0  0  0  0  0  0  0  0
  147.5833  142.3379  153.6461 H   0  0  0  0  0  0  0  0  0  0  0  0
  147.2880  141.5553  156.5906 H   0  0  0  0  0  0  0  0  0  0  0  0
  144.3752  143.6977  154.5077 H   0  0  0  0  0  0  0  0  0  0  0  0
  145.4321  142.5951  153.6505 H   0  0  0  0  0  0  0  0  0  0  0  0
  145.5865  139.9422  155.8278 H   0  0  0  0  0  0  0  0  0  0  0  0
  145.8397  140.4047  154.1557 H   0  0  0  0  0  0  0  0  0  0  0  0
  146.5853  135.3777  156.6508 H   0  0  0  0  0  0  0  0  0  0  0  0
  145.2777  137.3142  150.6476 H   0  0  0  0  0  0  0  0  0  0  0  0
  143.9197  134.5993  152.4953 H   0  0  0  0  0  0  0  0  0  0  0  0
  146.6897  133.7904  151.4547 H   0  0  0  0  0  0  0  0  0  0  0  0
  145.6106  132.8645  152.5524 H   0  0  0  0  0  0  0  0  0  0  0  0
  144.9287  132.3132  148.4736 H   0  0  0  0  0  0  0  0  0  0  0  0
  146.2844  133.3358  148.8732 H   0  0  0  0  0  0  0  0  0  0  0  0
  147.2536  131.6672  149.6717 H   0  0  0  0  0  0  0  0  0  0  0  0
  143.9504  131.2013  150.9793 H   0  0  0  0  0  0  0  0  0  0  0  0
  143.0727  132.5388  151.6669 H   0  0  0  0  0  0  0  0  0  0  0  0
  142.1529  132.9260  149.7303 H   0  0  0  0  0  0  0  0  0  0  0  0
  143.4243  134.8693  150.1364 H   0  0  0  0  0  0  0  0  0  0  0  0
  145.1467  135.2111  149.7520 H   0  0  0  0  0  0  0  0  0  0  0  0
  1  2  1  0  0  0  0
  1 28  1  0  0  0  0
  1 29  1  0  0  0  0
  1 30  1  0  0  0  0
  2 10  1  0  0  0  0
  2  3  1  0  0  0  0
  2 31  1  0  0  0  0
  3  4  1  0  0  0  0
  3 32  1  0  0  0  0
  3 33  1  0  0  0  0
  4  5  1  0  0  0  0
  4 34  1  0  0  0  0
  4 35  1  0  0  0  0
  5  6  1  0  0  0  0
  5  9  1  0  0  0  0
  5 36  1  0  0  0  0
  6  7  1  0  0  0  0
  6  8  2  0  0  0  0
  7 37  1  0  0  0  0
  7 38  1  0  0  0  0
  9 10  1  0  0  0  0
  9 39  1  0  0  0  0
  9 40  1  0  0  0  0
 10 11  1  0  0  0  0
 11 16  1  0  0  0  0
 11 12  2  0  0  0  0
 12 13  1  0  0  0  0
 13 14  2  0  0  0  0
 13 41  1  0  0  0  0
 14 15  1  0  0  0  0
 15 19  1  0  0  0  0
 15 16  2  0  0  0  0
 16 17  1  0  0  0  0
 17 18  2  0  0  0  0
 18 19  1  0  0  0  0
 18 42  1  0  0  0  0
 19 20  1  0  0  0  0
 20 27  1  0  0  0  0
 20 21  1  0  0  0  0
 20 43  1  0  0  0  0
 21 22  1  0  0  0  0
 21 44  1  0  0  0  0
 21 45  1  0  0  0  0
 22 23  1  0  0  0  0
 22 25  1  0  0  0  0
 22 27  1  0  0  0  0
 23 24  1  0  0  0  0
 23 46  1  0  0  0  0
 23 47  1  0  0  0  0
 24 48  1  0  0  0  0
 25 26  1  0  0  0  0
 25 49  1  0  0  0  0
 25 50  1  0  0  0  0
 26 51  1  0  0  0  0
 27 52  1  0  0  0  0
 27 53  1  0  0  0  0
M  END
> <s_m_source_file>
AV-unprocessed.smi

> <i_m_source_file_index>
187

> <i_lp_mmshare_version>
43012

> <i_f3d_flags>
0

> <s_epik_input>
W0NIM11bQ0BASF0xW0NIMl1bQ0gyXVtDQEBIXShDKD1PKVtOSDJdKVtDSDJdTjFjKG5bY0hdbjIpYyhjMjMpbltjSF1uM1tDSF0oW0NIMl00KVtDSDJdQzQoW0NIMl1bT0hdKVtDSDJdW09IXQ==

> <s_epik_cmdline>
J2VwaWtfcHl0aG9uJywgJy1waCcsICc3LjAnLCAnLXRuJywgJzgnLCAnLW1hJywgJzIwMCcsICctbWV0YWxfYmluZGluZycsICctaW1hZScsICc8aW5maWxlLm1hZT4nLCAnLW9tYWUnLCAnPG91dGZpbGUubWFlPic=

> <r_lp_tautomer_probability>
1

> <r_epik_Ionization_Penalty>
0.0017711

> <r_epik_Ionization_Penalty_Charging>
0

> <r_epik_Ionization_Penalty_Neutral>
0.0017711

> <r_epik_State_Penalty>
0.00107211

> <r_epik_Charging_Adjusted_Penalty>
0.00107211

> <i_epik_Tot_Q>
0

> <i_epik_Tot_abs_Q>
0

> <r_epik_Metal_State_Penalty>
-0

> <b_epik_Metal_Only>
0

> <s_lp_Force_Field>
OPLS_2005

> <r_lp_Energy>
40.3757

> <b_lp_Chiralities_Consistent>
1

> <s_lp_Variant>
AV-unprocessed.smi:187-1

> <Gold.Version>
5.8.1

> <Gold.Id.Protein>
6NUR|6NUR_protein|mol2

> <Gold.PLP.Fitness>
48.1626

> <Gold.PLP.PLP>
-38.8187

> <Gold.PLP.part.hbond>
-4.3050

> <Gold.PLP.part.metal>
0.0000

> <Gold.PLP.part.buried>
-1.0100

> <Gold.PLP.part.nonpolar>
-34.4013

> <Gold.PLP.part.repulsive>
0.6565

> <Gold.PLP.ligand.clash>
0.0000

> <Gold.PLP.ligand.torsion>
0.5520

> <Gold.PLP.Chemscore.Hbond>
2.6413

> <Gold.PLP.Chemscore.CHOScore>
0.5985

> <Gold.PLP.Chemscore.Metal>
0.0000

> <Gold.Chemscore.Hbonds>
donor molecule, donor type, donor heavy atom, donor atom, acceptor molecule, acceptor atom, score
      L1  H    24    48       P1 10747  0.78
      L1  H    26    51       P1 10186  1.00
      P1  H 10785 10796       L1    26  0.36
      L1  C    18    42       P1 10171  1.00

> <Gold.PLP.Chemscore.Internal.Correction>
0.7286

> <Gold.Rescore>
     Score         DG    S(hbond)    S(metal)    S(lipo)     H(rot)  DE(clash)    DE(int)     intcor
     11.67     -13.30       2.47        0.00      83.53       3.99       1.20       0.43       ----

> <Gold.Chemscore.Fitness>
11.6651

> <Gold.Chemscore.DG>
-13.2959

> <Gold.Chemscore.ZeroCoef>
-5.4800

> <Gold.Chemscore.Hbond>
2.4724

> <Gold.Chemscore.Metal>
0.0000

> <Gold.Chemscore.Lipo>
83.5293

> <Gold.Chemscore.Internal_Hbond>
0.0000

> <Gold.Chemscore.DEClash>
1.2007

> <Gold.Chemscore.DEInternal>
0.4302

> <Gold.Chemscore.Rot>
3.9902

> <Gold.Chemscore.Internal.Correction>
   9.000000E+99

> <Gold.Chemscore.Hbonds>
donor molecule, donor type, donor heavy atom, donor atom, acceptor molecule, acceptor atom, score
      L1  H    24    48       P1 10747  0.76
      L1  H    26    51       P1 10186  1.00
      P1  H 10785 10796       L1    26  0.14

> <Gold.Chemscore.Hbond.Weighted>
-8.2578

> <Gold.Chemscore.Metal.Weighted>
-0.0000

> <Gold.Chemscore.Lipo.Weighted>
-9.7729

> <Gold.Chemscore.Internal_Hbond.Weighted>
0.0000

> <Gold.Chemscore.DEClash.Weighted>
1.2007

> <Gold.Chemscore.DEInternal.Weighted>
0.4302

> <Gold.Chemscore.Rot.Weighted>
10.2148

> <Gold.Chemscore.Internal.Correction.Weighted>
   9.000000E+99

> <Gold.Protein.RotatedTorsions>
[ 6907 6896 6895 6894 ] final   16.93 input  -60.11 | X-H torsion
[ 7974 7965 7964 7962 ] final    7.39 input  175.53 | X-H torsion
[ 8008 7997 7996 7995 ] final   67.52 input   59.86 | X-H torsion
[ 10167 10162 10161 10158 ] final  -37.62 input  -65.29 | X-H torsion
[ 10718 10713 10712 10709 ] final -153.95 input   66.30 | X-H torsion
[ 10763 10752 10751 10750 ] final  -69.69 input  -60.55 | X-H torsion
[ 11005 11000 10999 10996 ] final   24.83 input  -57.11 | X-H torsion

> <Gold.Protein.ActiveResidues>
 VAL166  LYS551  ARG553  GLY616  TRP617  ASP618  TYR619  PRO620  LYS621  CYS622 
 ASP623  PHE694  ASN695  SER759  ASP760  ASP761  ALA762  ILE779  LEU786  VAL792 
 PHE793  MET794  SER795  GLU796  ALA797  LYS798  CYS799  TRP800  GLU811  SER814 

> <Gold.Protein.RotatedAtoms>
  151.8416  135.0588  160.0448 H   0  0  0  0  0  0  0  0  0  0  0  0  # atno 6907 bound_to 6896
  152.2805  133.5461  159.5503 H   0  0  0  0  0  0  0  0  0  0  0  0  # atno 6908 bound_to 6896
  150.7187  134.0487  159.3833 H   0  0  0  0  0  0  0  0  0  0  0  0  # atno 6909 bound_to 6896
  146.2427  140.0091  142.8408 H   0  0  0  0  0  0  0  0  0  0  0  0  # atno 7974 bound_to 7965
  155.6941  140.3496  155.4905 H   0  0  0  0  0  0  0  0  0  0  0  0  # atno 8008 bound_to 7997
  155.9498  140.1117  157.1008 H   0  0  0  0  0  0  0  0  0  0  0  0  # atno 8009 bound_to 7997
  154.4119  140.1196  156.5024 H   0  0  0  0  0  0  0  0  0  0  0  0  # atno 8010 bound_to 7997
  140.7113  143.3330  151.2526 H   0  0  0  0  0  0  0  0  0  0  0  0  # atno 10167 bound_to 10162
  156.4928  130.8355  151.2577 H   0  0  0  0  0  0  0  0  0  0  0  0  # atno 10718 bound_to 10713
  154.4071  135.6017  153.5931 H   0  0  0  0  0  0  0  0  0  0  0  0  # atno 10763 bound_to 10752
  152.9789  135.5920  154.4115 H   0  0  0  0  0  0  0  0  0  0  0  0  # atno 10764 bound_to 10752
  154.3922  135.2842  155.2126 H   0  0  0  0  0  0  0  0  0  0  0  0  # atno 10765 bound_to 10752
  140.3545  134.2193  155.7677 H   0  0  0  0  0  0  0  0  0  0  0  0  # atno 11005 bound_to 11000
  145.1344  140.9536  143.4525 LP  0  0  0  0  0  0  0  0  0  0  0  0  # atno 17320 bound_to 7965
  145.0356  139.3303  143.6002 LP  0  0  0  0  0  0  0  0  0  0  0  0  # atno 17321 bound_to 7965
  139.6817  143.9843  152.2812 LP  0  0  0  0  0  0  0  0  0  0  0  0  # atno 17342 bound_to 10162
  139.9475  144.6642  150.8205 LP  0  0  0  0  0  0  0  0  0  0  0  0  # atno 17343 bound_to 10162
  157.7472  131.0008  150.2939 LP  0  0  0  0  0  0  0  0  0  0  0  0  # atno 17370 bound_to 10713
  156.3410  130.3815  149.7409 LP  0  0  0  0  0  0  0  0  0  0  0  0  # atno 17371 bound_to 10713
  141.2002  133.7992  157.0498 LP  0  0  0  0  0  0  0  0  0  0  0  0  # atno 17394 bound_to 11000
  140.0676  134.9720  157.1413 LP  0  0  0  0  0  0  0  0  0  0  0  0  # atno 17395 bound_to 11000

$$$$
