AV-unprocessed.smi:266|AV-procd|sdf|2037|dock5
  -GOLD-   2262021253D 1   1.00000     0.00000
 Structure written by MMmdl.
 52 55  0  0  0  0  0  0  0  0  1 V2000
  143.0829  134.1495  152.1859 C   0  0  0  0  0  0  0  0  0  0  0  0
  144.3689  133.6590  151.4982 C   0  0  2  0  0  0  0  0  0  0  0  0
  143.9704  132.6854  150.5311 O   0  0  0  0  0  0  0  0  0  0  0  0
  144.7098  131.4841  150.6977 C   0  0  0  0  0  0  0  0  0  0  0  0
  145.0824  131.4866  152.1720 C   0  0  0  0  0  0  0  0  0  0  0  0
  145.3995  132.9573  152.4194 C   0  0  2  0  0  0  0  0  0  0  0  0
  145.1955  133.2460  153.7915 O   0  0  0  0  0  0  0  0  0  0  0  0
  146.8495  133.3661  152.0438 C   0  0  0  0  0  0  0  0  0  0  0  0
  147.8454  133.0460  153.0556 N   0  0  0  0  0  0  0  0  0  0  0  0
  148.5931  133.9429  153.7838 C   0  0  0  0  0  0  0  0  0  0  0  0
  149.4239  133.4104  154.6369 N   0  0  0  0  0  0  0  0  0  0  0  0
  149.2215  132.0411  154.5056 C   0  0  0  0  0  0  0  0  0  0  0  0
  149.7752  130.8820  155.1255 C   0  0  0  0  0  0  0  0  0  0  0  0
  150.7236  130.8822  156.0939 N   0  0  0  0  0  0  0  0  0  0  0  0
  150.2453  130.3150  157.3471 C   0  0  0  0  0  0  0  0  0  0  0  0
  152.1142  130.6090  155.7318 C   0  0  0  0  0  0  0  0  0  0  0  0
  153.1455  131.1695  156.7347 C   0  0  1  0  0  0  0  0  0  0  0  0
  154.6023  131.0319  156.2468 C   0  0  0  0  0  0  0  0  0  0  0  0
  155.5046  131.8710  157.1572 C   0  0  0  0  0  0  0  0  0  0  0  0
  154.4951  133.3139  157.6611 S   0  0  0  0  0  0  0  0  0  0  0  0
  154.4604  133.3828  159.1299 O   0  0  0  0  0  0  0  0  0  0  0  0
  154.8729  134.4857  156.8566 O   0  0  0  0  0  0  0  0  0  0  0  0
  152.9012  132.6541  157.0420 C   0  0  0  0  0  0  0  0  0  0  0  0
  149.3272  129.6708  154.7082 N   0  0  0  0  0  0  0  0  0  0  0  0
  148.3858  129.5892  153.7639 C   0  0  0  0  0  0  0  0  0  0  0  0
  147.7727  130.5771  153.1101 N   0  0  0  0  0  0  0  0  0  0  0  0
  148.2299  131.7970  153.5123 C   0  0  0  0  0  0  0  0  0  0  0  0
  143.2953  134.9333  152.9133 H   0  0  0  0  0  0  0  0  0  0  0  0
  142.5728  133.3364  152.7033 H   0  0  0  0  0  0  0  0  0  0  0  0
  142.3881  134.5640  151.4550 H   0  0  0  0  0  0  0  0  0  0  0  0
  144.8282  134.5022  150.9804 H   0  0  0  0  0  0  0  0  0  0  0  0
  144.1225  130.6110  150.4127 H   0  0  0  0  0  0  0  0  0  0  0  0
  145.6013  131.5154  150.0703 H   0  0  0  0  0  0  0  0  0  0  0  0
  144.2117  131.1825  152.7555 H   0  0  0  0  0  0  0  0  0  0  0  0
  145.8896  130.7964  152.4129 H   0  0  0  0  0  0  0  0  0  0  0  0
  144.3990  132.8220  154.0725 H   0  0  0  0  0  0  0  0  0  0  0  0
  147.1509  132.8797  151.1152 H   0  0  0  0  0  0  0  0  0  0  0  0
  146.8967  134.4380  151.8461 H   0  0  0  0  0  0  0  0  0  0  0  0
  148.5092  135.0122  153.6541 H   0  0  0  0  0  0  0  0  0  0  0  0
  149.3746  130.8567  157.7184 H   0  0  0  0  0  0  0  0  0  0  0  0
  151.0182  130.3679  158.1143 H   0  0  0  0  0  0  0  0  0  0  0  0
  149.9701  129.2679  157.2139 H   0  0  0  0  0  0  0  0  0  0  0  0
  152.2438  129.5286  155.6617 H   0  0  0  0  0  0  0  0  0  0  0  0
  152.3098  130.9932  154.7309 H   0  0  0  0  0  0  0  0  0  0  0  0
  153.0680  130.6380  157.6834 H   0  0  0  0  0  0  0  0  0  0  0  0
  154.9254  129.9906  156.2227 H   0  0  0  0  0  0  0  0  0  0  0  0
  154.6771  131.4119  155.2270 H   0  0  0  0  0  0  0  0  0  0  0  0
  155.7708  131.3152  158.0565 H   0  0  0  0  0  0  0  0  0  0  0  0
  156.4198  132.2014  156.6657 H   0  0  0  0  0  0  0  0  0  0  0  0
  152.6432  133.2055  156.1373 H   0  0  0  0  0  0  0  0  0  0  0  0
  152.1152  132.8120  157.7806 H   0  0  0  0  0  0  0  0  0  0  0  0
  148.0798  128.5893  153.4934 H   0  0  0  0  0  0  0  0  0  0  0  0
  1  2  1  0  0  0  0
  1 28  1  0  0  0  0
  1 29  1  0  0  0  0
  1 30  1  0  0  0  0
  2  6  1  0  0  0  0
  2  3  1  0  0  0  0
  2 31  1  0  0  0  0
  3  4  1  0  0  0  0
  4  5  1  0  0  0  0
  4 32  1  0  0  0  0
  4 33  1  0  0  0  0
  5  6  1  0  0  0  0
  5 34  1  0  0  0  0
  5 35  1  0  0  0  0
  6  7  1  0  0  0  0
  6  8  1  0  0  0  0
  7 36  1  0  0  0  0
  8  9  1  0  0  0  0
  8 37  1  0  0  0  0
  8 38  1  0  0  0  0
  9 27  1  0  0  0  0
  9 10  1  0  0  0  0
 10 11  2  0  0  0  0
 10 39  1  0  0  0  0
 11 12  1  0  0  0  0
 12 27  2  0  0  0  0
 12 13  1  0  0  0  0
 13 14  1  0  0  0  0
 13 24  2  0  0  0  0
 14 15  1  0  0  0  0
 14 16  1  0  0  0  0
 15 40  1  0  0  0  0
 15 41  1  0  0  0  0
 15 42  1  0  0  0  0
 16 17  1  0  0  0  0
 16 43  1  0  0  0  0
 16 44  1  0  0  0  0
 17 23  1  0  0  0  0
 17 18  1  0  0  0  0
 17 45  1  0  0  0  0
 18 19  1  0  0  0  0
 18 46  1  0  0  0  0
 18 47  1  0  0  0  0
 19 20  1  0  0  0  0
 19 48  1  0  0  0  0
 19 49  1  0  0  0  0
 20 21  2  0  0  0  0
 20 22  2  0  0  0  0
 20 23  1  0  0  0  0
 23 50  1  0  0  0  0
 23 51  1  0  0  0  0
 24 25  1  0  0  0  0
 25 26  2  0  0  0  0
 25 52  1  0  0  0  0
 26 27  1  0  0  0  0
M  END
> <s_m_source_file>
AV-unprocessed.smi

> <i_m_source_file_index>
266

> <i_lp_mmshare_version>
43012

> <i_f3d_flags>
0

> <s_epik_input>
W0NIMl0xW0NIMl1PW0NAQEhdKFtDSDNdKVtDQEBdMShbT0hdKVtDSDJdbihbY0hdbjIpYyhjMjMpbltjSF1uYzNOKFtDSDNdKVtDSDJdW0NAQEhdKFtDSDJdNClbQ0gyXVtDSDJdUzQoPU8pPU8=

> <s_epik_cmdline>
J2VwaWtfcHl0aG9uJywgJy1waCcsICc3LjAnLCAnLXRuJywgJzgnLCAnLW1hJywgJzIwMCcsICctbWV0YWxfYmluZGluZycsICctaW1hZScsICc8aW5maWxlLm1hZT4nLCAnLW9tYWUnLCAnPG91dGZpbGUubWFlPic=

> <r_lp_tautomer_probability>
1

> <r_epik_Ionization_Penalty>
0.00155497

> <r_epik_Ionization_Penalty_Charging>
0

> <r_epik_Ionization_Penalty_Neutral>
0.00155497

> <r_epik_State_Penalty>
-0

> <r_epik_Charging_Adjusted_Penalty>
0

> <i_epik_Tot_Q>
0

> <i_epik_Tot_abs_Q>
0

> <r_epik_Metal_State_Penalty>
-0

> <b_epik_Metal_Only>
0

> <s_lp_Force_Field>
OPLS_2005

> <r_lp_Energy>
32.6677

> <b_lp_Chiralities_Consistent>
1

> <s_lp_Variant>
AV-unprocessed.smi:266-7

> <Gold.Version>
5.8.1

> <Gold.Id.Protein>
6NUR|6NUR_protein|mol2

> <Gold.PLP.Fitness>
46.5509

> <Gold.PLP.PLP>
-36.0076

> <Gold.PLP.part.hbond>
-3.0000

> <Gold.PLP.part.metal>
0.0000

> <Gold.PLP.part.buried>
-5.2137

> <Gold.PLP.part.nonpolar>
-30.5039

> <Gold.PLP.part.repulsive>
2.1628

> <Gold.PLP.ligand.clash>
0.0000

> <Gold.PLP.ligand.torsion>
0.7123

> <Gold.PLP.Chemscore.Hbond>
2.9350

> <Gold.PLP.Chemscore.CHOScore>
0.8244

> <Gold.PLP.Chemscore.Metal>
0.0000

> <Gold.Chemscore.Hbonds>
donor molecule, donor type, donor heavy atom, donor atom, acceptor molecule, acceptor atom, score
      L1  H     7    36       P1 10957  0.71
      P1  H  6896  6907       L1    21  0.93
      P1  H 10752 10764       L1    22  0.88
      L1  C    10    39       P1  7948  0.95

> <Gold.PLP.Chemscore.Internal.Correction>
0.6898

> <Gold.Rescore>
     Score         DG    S(hbond)    S(metal)    S(lipo)     H(rot)  DE(clash)    DE(int)     intcor
     14.57     -15.84       2.78        0.00      69.77       2.76       0.46       0.82       ----

> <Gold.Chemscore.Fitness>
14.5658

> <Gold.Chemscore.DG>
-15.8407

> <Gold.Chemscore.ZeroCoef>
-5.4800

> <Gold.Chemscore.Hbond>
2.7761

> <Gold.Chemscore.Metal>
0.0000

> <Gold.Chemscore.Lipo>
69.7731

> <Gold.Chemscore.Internal_Hbond>
0.0000

> <Gold.Chemscore.DEClash>
0.4583

> <Gold.Chemscore.DEInternal>
0.8166

> <Gold.Chemscore.Rot>
2.7637

> <Gold.Chemscore.Internal.Correction>
   9.000000E+99

> <Gold.Chemscore.Hbonds>
donor molecule, donor type, donor heavy atom, donor atom, acceptor molecule, acceptor atom, score
      L1  H     7    36       P1 10957  0.62
      P1  H  6896  6907       L1    21  0.66
      P1  H 10752 10764       L1    22  0.87

> <Gold.Chemscore.Hbond.Weighted>
-9.2723

> <Gold.Chemscore.Metal.Weighted>
-0.0000

> <Gold.Chemscore.Lipo.Weighted>
-8.1635

> <Gold.Chemscore.Internal_Hbond.Weighted>
0.0000

> <Gold.Chemscore.DEClash.Weighted>
0.4583

> <Gold.Chemscore.DEInternal.Weighted>
0.8166

> <Gold.Chemscore.Rot.Weighted>
7.0750

> <Gold.Chemscore.Internal.Correction.Weighted>
   9.000000E+99

> <Gold.Protein.RotatedTorsions>
[ 6907 6896 6895 6894 ] final  101.68 input  -60.11 | X-H torsion
[ 7974 7965 7964 7962 ] final   84.81 input  175.53 | X-H torsion
[ 8008 7997 7996 7995 ] final   61.44 input   59.86 | X-H torsion
[ 10167 10162 10161 10158 ] final  -58.94 input  -65.29 | X-H torsion
[ 10718 10713 10712 10709 ] final  -10.23 input   66.30 | X-H torsion
[ 10763 10752 10751 10750 ] final   30.62 input  -60.55 | X-H torsion
[ 11005 11000 10999 10996 ] final -128.46 input  -57.11 | X-H torsion

> <Gold.Protein.ActiveResidues>
 VAL166  LYS551  ARG553  GLY616  TRP617  ASP618  TYR619  PRO620  LYS621  CYS622 
 ASP623  PHE694  ASN695  SER759  ASP760  ASP761  ALA762  ILE779  LEU786  VAL792 
 PHE793  MET794  SER795  GLU796  ALA797  LYS798  CYS799  TRP800  GLU811  SER814 

> <Gold.Protein.RotatedAtoms>
  152.5343  134.0089  159.7928 H   0  0  0  0  0  0  0  0  0  0  0  0  # atno 6907 bound_to 6896
  151.0295  133.5796  159.2669 H   0  0  0  0  0  0  0  0  0  0  0  0  # atno 6908 bound_to 6896
  151.2806  135.0719  159.9221 H   0  0  0  0  0  0  0  0  0  0  0  0  # atno 6909 bound_to 6896
  145.5938  139.2342  143.2284 H   0  0  0  0  0  0  0  0  0  0  0  0  # atno 7974 bound_to 7965
  155.5984  140.3493  155.4587 H   0  0  0  0  0  0  0  0  0  0  0  0  # atno 8008 bound_to 7997
  156.0247  140.1261  157.0345 H   0  0  0  0  0  0  0  0  0  0  0  0  # atno 8009 bound_to 7997
  154.4328  140.1055  156.6000 H   0  0  0  0  0  0  0  0  0  0  0  0  # atno 8010 bound_to 7997
  140.6166  143.2404  151.5582 H   0  0  0  0  0  0  0  0  0  0  0  0  # atno 10167 bound_to 10162
  156.6765  130.5024  149.5984 H   0  0  0  0  0  0  0  0  0  0  0  0  # atno 10718 bound_to 10713
  153.0361  135.6459  154.1072 H   0  0  0  0  0  0  0  0  0  0  0  0  # atno 10763 bound_to 10752
  154.0787  135.2875  155.3296 H   0  0  0  0  0  0  0  0  0  0  0  0  # atno 10764 bound_to 10752
  154.6545  135.5414  153.8006 H   0  0  0  0  0  0  0  0  0  0  0  0  # atno 10765 bound_to 10752
  140.9514  134.1060  157.4058 H   0  0  0  0  0  0  0  0  0  0  0  0  # atno 11005 bound_to 11000
  146.1627  140.6763  142.9270 LP  0  0  0  0  0  0  0  0  0  0  0  0  # atno 17320 bound_to 7965
  144.7340  140.4754  143.6917 LP  0  0  0  0  0  0  0  0  0  0  0  0  # atno 17321 bound_to 7965
  139.5404  144.2664  152.1338 LP  0  0  0  0  0  0  0  0  0  0  0  0  # atno 17342 bound_to 10162
  140.1875  144.4784  150.6496 LP  0  0  0  0  0  0  0  0  0  0  0  0  # atno 17343 bound_to 10162
  156.1900  130.6553  151.1050 LP  0  0  0  0  0  0  0  0  0  0  0  0  # atno 17370 bound_to 10713
  157.7059  131.0756  150.6668 LP  0  0  0  0  0  0  0  0  0  0  0  0  # atno 17371 bound_to 10713
  139.8849  135.0067  156.6398 LP  0  0  0  0  0  0  0  0  0  0  0  0  # atno 17394 bound_to 11000
  140.7596  133.8828  155.8408 LP  0  0  0  0  0  0  0  0  0  0  0  0  # atno 17395 bound_to 11000

$$$$
