AV-unprocessed.smi:1822|AV-procd|sdf|7390|dock3
  -GOLD-   22720 9 63D 1   1.00000     0.00000
 Structure written by MMmdl.
 46 47  0  0  0  0  0  0  0  0  1 V2000
  147.5061  140.8471  153.7767 C   0  0  0  0  0  0  0  0  0  0  0  0
  147.9497  139.7259  154.5910 N   0  0  0  0  0  0  0  0  0  0  0  0
  149.2342  139.3764  154.7709 C   0  0  0  0  0  0  0  0  0  0  0  0
  150.1556  140.0053  154.2474 O   0  0  0  0  0  0  0  0  0  0  0  0
  149.4141  138.2020  155.6279 C   0  0  0  0  0  0  0  0  0  0  0  0
  149.1369  138.2087  157.0566 C   0  0  0  0  0  0  0  0  0  0  0  0
  149.3187  137.0965  157.7952 C   0  0  0  0  0  0  0  0  0  0  0  0
  149.7986  135.8452  157.2019 C   0  0  0  0  0  0  0  0  0  0  0  0
  149.9661  134.8267  157.8728 O   0  0  0  0  0  0  0  0  0  0  0  0
  150.0493  135.8821  155.8582 N   0  0  0  0  0  0  0  0  0  0  0  0
  150.5343  134.6858  155.1491 C   0  0  0  0  0  0  0  0  0  0  0  0
  149.3899  133.7607  154.7158 C   0  0  0  0  0  0  0  0  0  0  0  0
  149.2011  132.7106  155.3324 O   0  0  0  0  0  0  0  0  0  0  0  0
  148.6537  134.1896  153.6694 N   0  0  0  0  0  0  0  0  0  0  0  0
  147.6001  133.5760  153.0981 C   0  0  0  0  0  0  0  0  0  0  0  0
  147.2030  132.4378  153.3570 O   0  0  0  0  0  0  0  0  0  0  0  0
  147.0150  134.3737  152.1925 N   0  0  0  0  0  0  0  0  0  0  0  0
  145.8475  134.0259  151.3878 C   0  0  0  0  0  0  0  0  0  0  0  0
  144.6676  133.6806  152.3161 C   0  0  0  0  0  0  0  0  0  0  0  0
  143.4310  133.2395  151.5164 C   0  0  0  0  0  0  0  0  0  0  0  0
  143.7593  132.0607  150.5870 C   0  0  0  0  0  0  0  0  0  0  0  0
  144.9308  132.4018  149.6529 C   0  0  0  0  0  0  0  0  0  0  0  0
  146.1697  132.8453  150.4480 C   0  0  0  0  0  0  0  0  0  0  0  0
  149.8559  137.0480  155.0906 C   0  0  0  0  0  0  0  0  0  0  0  0
  146.4171  140.8924  153.7694 H   0  0  0  0  0  0  0  0  0  0  0  0
  147.8494  140.7404  152.7470 H   0  0  0  0  0  0  0  0  0  0  0  0
  147.8839  141.7895  154.1748 H   0  0  0  0  0  0  0  0  0  0  0  0
  147.2355  139.1754  155.0455 H   0  0  0  0  0  0  0  0  0  0  0  0
  148.7826  139.0979  157.5569 H   0  0  0  0  0  0  0  0  0  0  0  0
  149.1065  137.1257  158.8540 H   0  0  0  0  0  0  0  0  0  0  0  0
  151.1216  134.9739  154.2751 H   0  0  0  0  0  0  0  0  0  0  0  0
  151.2218  134.1142  155.7745 H   0  0  0  0  0  0  0  0  0  0  0  0
  148.9287  135.0732  153.2664 H   0  0  0  0  0  0  0  0  0  0  0  0
  147.4026  135.2948  152.0505 H   0  0  0  0  0  0  0  0  0  0  0  0
  145.5602  134.8893  150.7842 H   0  0  0  0  0  0  0  0  0  0  0  0
  144.9567  132.8821  153.0010 H   0  0  0  0  0  0  0  0  0  0  0  0
  144.4145  134.5419  152.9353 H   0  0  0  0  0  0  0  0  0  0  0  0
  142.6270  132.9618  152.1983 H   0  0  0  0  0  0  0  0  0  0  0  0
  143.0599  134.0782  150.9259 H   0  0  0  0  0  0  0  0  0  0  0  0
  144.0110  131.1831  151.1839 H   0  0  0  0  0  0  0  0  0  0  0  0
  142.8805  131.7938  149.9994 H   0  0  0  0  0  0  0  0  0  0  0  0
  145.1762  131.5385  149.0338 H   0  0  0  0  0  0  0  0  0  0  0  0
  144.6327  133.1976  148.9693 H   0  0  0  0  0  0  0  0  0  0  0  0
  146.9660  133.1212  149.7556 H   0  0  0  0  0  0  0  0  0  0  0  0
  146.5459  132.0024  151.0294 H   0  0  0  0  0  0  0  0  0  0  0  0
  150.0942  136.9352  154.0420 H   0  0  0  0  0  0  0  0  0  0  0  0
  1  2  1  0  0  0  0
  1 25  1  0  0  0  0
  1 26  1  0  0  0  0
  1 27  1  0  0  0  0
  2  3  1  0  0  0  0
  2 28  1  0  0  0  0
  3  4  2  0  0  0  0
  3  5  1  0  0  0  0
  5 24  2  0  0  0  0
  5  6  1  0  0  0  0
  6  7  2  0  0  0  0
  6 29  1  0  0  0  0
  7  8  1  0  0  0  0
  7 30  1  0  0  0  0
  8  9  2  0  0  0  0
  8 10  1  0  0  0  0
 10 11  1  0  0  0  0
 10 24  1  0  0  0  0
 11 12  1  0  0  0  0
 11 31  1  0  0  0  0
 11 32  1  0  0  0  0
 12 13  2  0  0  0  0
 12 14  1  0  0  0  0
 14 15  1  0  0  0  0
 14 33  1  0  0  0  0
 15 16  2  0  0  0  0
 15 17  1  0  0  0  0
 17 18  1  0  0  0  0
 17 34  1  0  0  0  0
 18 23  1  0  0  0  0
 18 19  1  0  0  0  0
 18 35  1  0  0  0  0
 19 20  1  0  0  0  0
 19 36  1  0  0  0  0
 19 37  1  0  0  0  0
 20 21  1  0  0  0  0
 20 38  1  0  0  0  0
 20 39  1  0  0  0  0
 21 22  1  0  0  0  0
 21 40  1  0  0  0  0
 21 41  1  0  0  0  0
 22 23  1  0  0  0  0
 22 42  1  0  0  0  0
 22 43  1  0  0  0  0
 23 44  1  0  0  0  0
 23 45  1  0  0  0  0
 24 46  1  0  0  0  0
M  END
> <s_m_source_file>
AV-unprocessed.smi

> <i_m_source_file_index>
1822

> <i_lp_mmshare_version>
43012

> <i_f3d_flags>
0

> <s_epik_input>
W0NIM11bTkhdQyg9TyljMVtjSF1bY0hdYyg9TyluKFtjSF0xKVtDSDJdQyg9TylbTkhdQyg9TylbTkhdW0NIXTJbQ0gyXVtDSDJdW0NIMl1bQ0gyXVtDSDJdMg==

> <s_epik_cmdline>
J2VwaWtfcHl0aG9uJywgJy1waCcsICc3LjAnLCAnLXRuJywgJzgnLCAnLW1hJywgJzIwMCcsICctbWV0YWxfYmluZGluZycsICctaW1hZScsICc8aW5maWxlLm1hZT4nLCAnLW9tYWUnLCAnPG91dGZpbGUubWFlPic=

> <r_lp_tautomer_probability>
1

> <r_epik_Ionization_Penalty>
3.30797e-05

> <r_epik_Ionization_Penalty_Charging>
3.7169e-08

> <r_epik_Ionization_Penalty_Neutral>
3.30425e-05

> <r_epik_State_Penalty>
-0

> <r_epik_Charging_Adjusted_Penalty>
3.7169e-08

> <i_epik_Tot_Q>
0

> <i_epik_Tot_abs_Q>
0

> <r_epik_Metal_State_Penalty>
-0

> <b_epik_Metal_Only>
0

> <s_lp_Force_Field>
OPLS_2005

> <r_lp_Energy>
24.3679

> <b_lp_Chiralities_Consistent>
1

> <s_lp_Variant>
AV-unprocessed.smi:1822-1

> <Gold.Version>
5.8.1

> <Gold.Id.Protein>
6NUR|6NUR_protein|mol2

> <Gold.PLP.Fitness>
47.8177

> <Gold.PLP.PLP>
-36.5021

> <Gold.PLP.part.hbond>
-4.0000

> <Gold.PLP.part.metal>
0.0000

> <Gold.PLP.part.buried>
-5.6227

> <Gold.PLP.part.nonpolar>
-26.9859

> <Gold.PLP.part.repulsive>
0.8074

> <Gold.PLP.ligand.clash>
0.0000

> <Gold.PLP.ligand.torsion>
1.8547

> <Gold.PLP.Chemscore.Hbond>
3.9360

> <Gold.PLP.Chemscore.CHOScore>
1.0606

> <Gold.PLP.Chemscore.Metal>
0.0000

> <Gold.Chemscore.Hbonds>
donor molecule, donor type, donor heavy atom, donor atom, acceptor molecule, acceptor atom, score
      L1  H    14    33       P1  7948  0.99
      L1  H    17    34       P1  7948  0.86
      P1  H  6896  6908       L1     9  0.90
      P1  H  7989  7998       L1     4  1.00
      L1  C    24    46       P1  7948  1.00

> <Gold.PLP.Chemscore.Internal.Correction>
0.0352

> <Gold.Rescore>
     Score         DG    S(hbond)    S(metal)    S(lipo)     H(rot)  DE(clash)    DE(int)     intcor
     16.36     -20.39       3.27        0.00      69.53       1.62       0.02       4.02       ----

> <Gold.Chemscore.Fitness>
16.3553

> <Gold.Chemscore.DG>
-20.3910

> <Gold.Chemscore.ZeroCoef>
-5.4800

> <Gold.Chemscore.Hbond>
3.2665

> <Gold.Chemscore.Metal>
0.0000

> <Gold.Chemscore.Lipo>
69.5347

> <Gold.Chemscore.Internal_Hbond>
0.0000

> <Gold.Chemscore.DEClash>
0.0166

> <Gold.Chemscore.DEInternal>
4.0191

> <Gold.Chemscore.Rot>
1.6151

> <Gold.Chemscore.Internal.Correction>
   9.000000E+99

> <Gold.Chemscore.Hbonds>
donor molecule, donor type, donor heavy atom, donor atom, acceptor molecule, acceptor atom, score
      L1  H    14    33       P1  7948  0.33
      L1  H    17    34       P1  7948  0.84
      P1  H  6896  6908       L1     9  0.88
      P1  H  7989  7998       L1     4  0.97

> <Gold.Chemscore.Hbond.Weighted>
-10.9100

> <Gold.Chemscore.Metal.Weighted>
-0.0000

> <Gold.Chemscore.Lipo.Weighted>
-8.1356

> <Gold.Chemscore.Internal_Hbond.Weighted>
0.0000

> <Gold.Chemscore.DEClash.Weighted>
0.0166

> <Gold.Chemscore.DEInternal.Weighted>
4.0191

> <Gold.Chemscore.Rot.Weighted>
4.1346

> <Gold.Chemscore.Internal.Correction.Weighted>
   9.000000E+99

> <Gold.Protein.RotatedTorsions>
[ 6907 6896 6895 6894 ] final  148.57 input  -60.11 | X-H torsion
[ 7974 7965 7964 7962 ] final  -98.58 input  175.53 | X-H torsion
[ 8008 7997 7996 7995 ] final  -75.76 input   59.86 | X-H torsion
[ 10167 10162 10161 10158 ] final -158.21 input  -65.29 | X-H torsion
[ 10718 10713 10712 10709 ] final  130.21 input   66.30 | X-H torsion
[ 10763 10752 10751 10750 ] final  -20.61 input  -60.55 | X-H torsion
[ 11005 11000 10999 10996 ] final   20.14 input  -57.11 | X-H torsion

> <Gold.Protein.ActiveResidues>
 VAL166  LYS551  ARG553  GLY616  TRP617  ASP618  TYR619  PRO620  LYS621  CYS622 
 ASP623  PHE694  ASN695  SER759  ASP760  ASP761  ALA762  ILE779  LEU786  VAL792 
 PHE793  MET794  SER795  GLU796  ALA797  LYS798  CYS799  TRP800  GLU811  SER814 

> <Gold.Protein.RotatedAtoms>
  152.1397  133.4456  159.4760 H   0  0  0  0  0  0  0  0  0  0  0  0  # atno 6907 bound_to 6896
  150.6885  134.2320  159.4447 H   0  0  0  0  0  0  0  0  0  0  0  0  # atno 6908 bound_to 6896
  152.0210  134.9822  160.0621 H   0  0  0  0  0  0  0  0  0  0  0  0  # atno 6909 bound_to 6896
  145.3187  140.9417  143.2728 H   0  0  0  0  0  0  0  0  0  0  0  0  # atno 7974 bound_to 7965
  154.5445  140.0738  156.8566 H   0  0  0  0  0  0  0  0  0  0  0  0  # atno 8008 bound_to 7997
  155.3114  140.3390  155.4225 H   0  0  0  0  0  0  0  0  0  0  0  0  # atno 8009 bound_to 7997
  156.1905  140.1684  156.8087 H   0  0  0  0  0  0  0  0  0  0  0  0  # atno 8010 bound_to 7997
  139.6709  143.9746  152.2283 H   0  0  0  0  0  0  0  0  0  0  0  0  # atno 10167 bound_to 10162
  157.5083  131.1096  150.9330 H   0  0  0  0  0  0  0  0  0  0  0  0  # atno 10718 bound_to 10713
  153.6232  135.6992  153.5303 H   0  0  0  0  0  0  0  0  0  0  0  0  # atno 10763 bound_to 10752
  153.2920  135.4154  155.1175 H   0  0  0  0  0  0  0  0  0  0  0  0  # atno 10764 bound_to 10752
  154.8538  135.3628  154.5773 H   0  0  0  0  0  0  0  0  0  0  0  0  # atno 10765 bound_to 10752
  140.4059  134.1669  155.7665 H   0  0  0  0  0  0  0  0  0  0  0  0  # atno 11005 bound_to 11000
  144.8956  139.4716  143.6657 LP  0  0  0  0  0  0  0  0  0  0  0  0  # atno 17320 bound_to 7965
  146.3090  139.7681  142.9034 LP  0  0  0  0  0  0  0  0  0  0  0  0  # atno 17321 bound_to 7965
  139.9510  144.6620  150.8172 LP  0  0  0  0  0  0  0  0  0  0  0  0  # atno 17342 bound_to 10162
  140.7618  143.3182  151.2683 LP  0  0  0  0  0  0  0  0  0  0  0  0  # atno 17343 bound_to 10162
  156.9978  130.5588  149.5309 LP  0  0  0  0  0  0  0  0  0  0  0  0  # atno 17370 bound_to 10713
  156.0272  130.5365  150.8439 LP  0  0  0  0  0  0  0  0  0  0  0  0  # atno 17371 bound_to 10713
  141.1839  133.8354  157.1157 LP  0  0  0  0  0  0  0  0  0  0  0  0  # atno 17394 bound_to 11000
  140.0302  134.9904  157.0766 LP  0  0  0  0  0  0  0  0  0  0  0  0  # atno 17395 bound_to 11000

$$$$
