AV-unprocessed.smi:3122|AV-procd|sdf|11897|dock2
  -GOLD-   2272017283D 1   1.00000     0.00000
 Structure written by MMmdl.
 30 31  0  0  0  0  0  0  0  0  2 V2000
  153.6216  141.6915  159.9461 C   0  0  0  0  0  0  0  0  0  0  0  0
  152.6657  142.2673  158.8907 C   0  0  0  0  0  0  0  0  0  0  0  0
  151.3936  142.8544  159.5176 C   0  0  0  0  0  0  0  0  0  0  0  0
  152.3405  141.2675  157.8256 C   0  0  0  0  0  0  0  0  0  0  0  0
  152.8252  140.0289  157.6969 N   0  0  0  0  0  0  0  0  0  0  0  0
  152.1686  139.4770  156.6209 N   0  0  0  0  0  0  0  0  0  0  0  0
  151.2962  140.4026  156.2129 C   0  0  0  0  0  0  0  0  0  0  0  0
  150.3719  140.3342  155.0399 C   0  0  1  0  0  0  0  0  0  0  0  0
  150.4481  138.9766  154.3162 C   0  0  0  0  0  0  0  0  0  0  0  0
  149.4487  138.9248  153.2314 N   0  3  0  0  0  0  0  0  0  0  0  0
  148.0913  139.2178  153.7329 C   0  0  0  0  0  0  0  0  0  0  0  0
  148.0823  140.5624  154.4812 C   0  0  0  0  0  0  0  0  0  0  0  0
  149.0473  140.5363  155.5278 O   0  0  0  0  0  0  0  0  0  0  0  0
  151.3591  141.5542  156.9305 O   0  0  0  0  0  0  0  0  0  0  0  0
  154.5438  141.3344  159.4867 H   0  0  0  0  0  0  0  0  0  0  0  0
  153.1688  140.8546  160.4789 H   0  0  0  0  0  0  0  0  0  0  0  0
  153.8923  142.4468  160.6845 H   0  0  0  0  0  0  0  0  0  0  0  0
  153.1915  143.0894  158.4032 H   0  0  0  0  0  0  0  0  0  0  0  0
  150.7640  143.3231  158.7608 H   0  0  0  0  0  0  0  0  0  0  0  0
  151.6358  143.6138  160.2614 H   0  0  0  0  0  0  0  0  0  0  0  0
  150.8030  142.0817  160.0107 H   0  0  0  0  0  0  0  0  0  0  0  0
  150.6321  141.1432  154.3547 H   0  0  0  0  0  0  0  0  0  0  0  0
  151.4426  138.8165  153.8990 H   0  0  0  0  0  0  0  0  0  0  0  0
  150.2564  138.1613  155.0156 H   0  0  0  0  0  0  0  0  0  0  0  0
  149.6919  139.6132  152.5333 H   0  0  0  0  0  0  0  0  0  0  0  0
  147.3924  139.2378  152.8966 H   0  0  0  0  0  0  0  0  0  0  0  0
  147.7741  138.4144  154.3991 H   0  0  0  0  0  0  0  0  0  0  0  0
  148.2914  141.3883  153.7997 H   0  0  0  0  0  0  0  0  0  0  0  0
  147.0980  140.7469  154.9120 H   0  0  0  0  0  0  0  0  0  0  0  0
  149.4599  138.0080  152.8074 H   0  0  0  0  0  0  0  0  0  0  0  0
  1  2  1  0  0  0  0
  1 15  1  0  0  0  0
  1 16  1  0  0  0  0
  1 17  1  0  0  0  0
  2  3  1  0  0  0  0
  2  4  1  0  0  0  0
  2 18  1  0  0  0  0
  3 19  1  0  0  0  0
  3 20  1  0  0  0  0
  3 21  1  0  0  0  0
  4 14  1  0  0  0  0
  4  5  2  0  0  0  0
  5  6  1  0  0  0  0
  6  7  2  0  0  0  0
  7  8  1  0  0  0  0
  7 14  1  0  0  0  0
  8 13  1  0  0  0  0
  8  9  1  0  0  0  0
  8 22  1  0  0  0  0
  9 10  1  0  0  0  0
  9 23  1  0  0  0  0
  9 24  1  0  0  0  0
 10 11  1  0  0  0  0
 10 25  1  0  0  0  0
 10 30  1  0  0  0  0
 11 12  1  0  0  0  0
 11 26  1  0  0  0  0
 11 27  1  0  0  0  0
 12 13  1  0  0  0  0
 12 28  1  0  0  0  0
 12 29  1  0  0  0  0
M  CHG  1  10   1
M  END
> <s_m_source_file>
AV-unprocessed.smi

> <i_m_source_file_index>
3122

> <i_lp_mmshare_version>
43012

> <i_f3d_flags>
0

> <s_epik_input>
W0NIM11bQ0hdKFtDSDNdKWMxbm5jKG8xKVtDQEBIXTJbQ0gyXVtOSF1bQ0gyXVtDSDJdTzI=

> <s_epik_cmdline>
J2VwaWtfcHl0aG9uJywgJy1waCcsICc3LjAnLCAnLXRuJywgJzgnLCAnLW1hJywgJzIwMCcsICctbWV0YWxfYmluZGluZycsICctaW1hZScsICc8aW5maWxlLm1hZT4nLCAnLW9tYWUnLCAnPG91dGZpbGUubWFlPic=

> <r_lp_tautomer_probability>
1

> <r_epik_Ionization_Penalty>
0.0380945

> <r_epik_Ionization_Penalty_Charging>
0.0380945

> <r_epik_Ionization_Penalty_Neutral>
3.26791e-13

> <r_epik_State_Penalty>
0.0319257

> <r_epik_Charging_Adjusted_Penalty>
0.0700202

> <i_epik_Tot_Q>
1

> <i_epik_Tot_abs_Q>
1

> <r_epik_Metal_State_Penalty>
0.0319257

> <b_epik_Metal_Only>
0

> <s_lp_Force_Field>
OPLS_2005

> <r_lp_Energy>
10.6757

> <b_lp_Chiralities_Consistent>
1

> <s_lp_Variant>
AV-unprocessed.smi:3122-2

> <Gold.Version>
5.8.1

> <Gold.Id.Protein>
6NUR|6NUR_protein|mol2

> <Gold.PLP.Fitness>
34.9239

> <Gold.PLP.PLP>
-23.2324

> <Gold.PLP.part.hbond>
-2.7815

> <Gold.PLP.part.metal>
0.0000

> <Gold.PLP.part.buried>
-1.7476

> <Gold.PLP.part.nonpolar>
-17.7064

> <Gold.PLP.part.repulsive>
0.2177

> <Gold.PLP.ligand.clash>
0.0000

> <Gold.PLP.ligand.torsion>
0.2092

> <Gold.PLP.Chemscore.Hbond>
4.0000

> <Gold.PLP.Chemscore.CHOScore>
0.0000

> <Gold.PLP.Chemscore.Metal>
0.0000

> <Gold.Chemscore.Hbonds>
donor molecule, donor type, donor heavy atom, donor atom, acceptor molecule, acceptor atom, score
      L1  H    10    25       P1  7957  0.73
      L1  H    10    30       P1  7948  1.98
      P1  H  7997  8009       L1     5  0.94

> <Gold.PLP.Chemscore.Internal.Correction>
0.1099

> <Gold.Rescore>
     Score         DG    S(hbond)    S(metal)    S(lipo)     H(rot)  DE(clash)    DE(int)     intcor
     16.43     -16.74       2.44        0.00      54.29       1.26       0.07       0.24       ----

> <Gold.Chemscore.Fitness>
16.4341

> <Gold.Chemscore.DG>
-16.7403

> <Gold.Chemscore.ZeroCoef>
-5.4800

> <Gold.Chemscore.Hbond>
2.4372

> <Gold.Chemscore.Metal>
0.0000

> <Gold.Chemscore.Lipo>
54.2902

> <Gold.Chemscore.Internal_Hbond>
0.0000

> <Gold.Chemscore.DEClash>
0.0655

> <Gold.Chemscore.DEInternal>
0.2408

> <Gold.Chemscore.Rot>
1.2625

> <Gold.Chemscore.Internal.Correction>
   9.000000E+99

> <Gold.Chemscore.Hbonds>
donor molecule, donor type, donor heavy atom, donor atom, acceptor molecule, acceptor atom, score
      L1  H    10    25       P1  7957  0.69
      L1  H    10    30       P1  7948  0.79
      P1  H  7997  8009       L1     5  0.16

> <Gold.Chemscore.Hbond.Weighted>
-8.1404

> <Gold.Chemscore.Metal.Weighted>
-0.0000

> <Gold.Chemscore.Lipo.Weighted>
-6.3520

> <Gold.Chemscore.Internal_Hbond.Weighted>
0.0000

> <Gold.Chemscore.DEClash.Weighted>
0.0655

> <Gold.Chemscore.DEInternal.Weighted>
0.2408

> <Gold.Chemscore.Rot.Weighted>
3.2320

> <Gold.Chemscore.Internal.Correction.Weighted>
   9.000000E+99

> <Gold.Protein.RotatedTorsions>
[ 6907 6896 6895 6894 ] final  -22.94 input  -60.11 | X-H torsion
[ 7974 7965 7964 7962 ] final   46.57 input  175.53 | X-H torsion
[ 8008 7997 7996 7995 ] final  156.09 input   59.86 | X-H torsion
[ 10167 10162 10161 10158 ] final  -71.75 input  -65.29 | X-H torsion
[ 10718 10713 10712 10709 ] final -105.31 input   66.30 | X-H torsion
[ 10763 10752 10751 10750 ] final -171.28 input  -60.55 | X-H torsion
[ 11005 11000 10999 10996 ] final -150.98 input  -57.11 | X-H torsion

> <Gold.Protein.ActiveResidues>
 VAL166  LYS551  ARG553  GLY616  TRP617  ASP618  TYR619  PRO620  LYS621  CYS622 
 ASP623  PHE694  ASN695  SER759  ASP760  ASP761  ALA762  ILE779  LEU786  VAL792 
 PHE793  MET794  SER795  GLU796  ALA797  LYS798  CYS799  TRP800  GLU811  SER814 

> <Gold.Protein.RotatedAtoms>
  151.2112  135.0482  159.8911 H   0  0  0  0  0  0  0  0  0  0  0  0  # atno 6907 bound_to 6896
  152.5424  134.0743  159.8218 H   0  0  0  0  0  0  0  0  0  0  0  0  # atno 6908 bound_to 6896
  151.0896  133.5278  159.2647 H   0  0  0  0  0  0  0  0  0  0  0  0  # atno 6909 bound_to 6896
  146.0377  139.4842  142.9797 H   0  0  0  0  0  0  0  0  0  0  0  0  # atno 7974 bound_to 7965
  156.2442  140.1922  156.6902 H   0  0  0  0  0  0  0  0  0  0  0  0  # atno 8008 bound_to 7997
  154.6257  140.0602  156.9697 H   0  0  0  0  0  0  0  0  0  0  0  0  # atno 8009 bound_to 7997
  155.1790  140.3275  155.4381 H   0  0  0  0  0  0  0  0  0  0  0  0  # atno 8010 bound_to 7997
  140.5248  143.2327  151.7367 H   0  0  0  0  0  0  0  0  0  0  0  0  # atno 10167 bound_to 10162
  156.0340  130.5557  150.7520 H   0  0  0  0  0  0  0  0  0  0  0  0  # atno 10718 bound_to 10713
  154.6323  135.2888  155.0202 H   0  0  0  0  0  0  0  0  0  0  0  0  # atno 10763 bound_to 10752
  154.1358  135.6526  153.4935 H   0  0  0  0  0  0  0  0  0  0  0  0  # atno 10764 bound_to 10752
  153.0285  135.5321  154.7155 H   0  0  0  0  0  0  0  0  0  0  0  0  # atno 10765 bound_to 10752
  140.7345  134.3584  157.5160 H   0  0  0  0  0  0  0  0  0  0  0  0  # atno 11005 bound_to 11000
  145.6936  141.0157  143.1542 LP  0  0  0  0  0  0  0  0  0  0  0  0  # atno 17320 bound_to 7965
  144.7060  139.8561  143.7430 LP  0  0  0  0  0  0  0  0  0  0  0  0  # atno 17321 bound_to 7965
  139.4934  144.4202  151.9986 LP  0  0  0  0  0  0  0  0  0  0  0  0  # atno 17342 bound_to 10162
  140.3301  144.3326  150.5989 LP  0  0  0  0  0  0  0  0  0  0  0  0  # atno 17343 bound_to 10162
  157.5062  131.0922  151.0254 LP  0  0  0  0  0  0  0  0  0  0  0  0  # atno 17370 bound_to 10713
  157.0621  130.5830  149.5387 LP  0  0  0  0  0  0  0  0  0  0  0  0  # atno 17371 bound_to 10713
  139.8819  134.9040  156.2867 LP  0  0  0  0  0  0  0  0  0  0  0  0  # atno 17394 bound_to 11000
  140.9892  133.7219  156.0788 LP  0  0  0  0  0  0  0  0  0  0  0  0  # atno 17395 bound_to 11000

$$$$
