AV-unprocessed.smi:2710|AV-procd|sdf|10471|dock3
  -GOLD-   2272014513D 1   1.00000     0.00000
 Structure written by MMmdl.
 53 54  0  0  0  0  0  0  0  0  2 V2000
  145.9817  134.3803  152.0439 C   0  0  0  0  0  0  0  0  0  0  0  0
  146.8777  133.7218  153.1059 C   0  0  0  0  0  0  0  0  0  0  0  0
  147.8453  134.6659  153.7372 N   0  3  1  0  0  0  0  0  0  0  0  0
  147.1505  135.7532  154.4855 C   0  0  0  0  0  0  0  0  0  0  0  0
  148.1317  136.7989  155.0339 C   0  0  0  0  0  0  0  0  0  0  0  0
  149.1772  136.1432  155.9401 C   0  0  2  0  0  0  0  0  0  0  0  0
  150.1294  137.1470  156.4070 N   0  0  0  0  0  0  0  0  0  0  0  0
  149.8033  138.3041  157.0006 C   0  0  0  0  0  0  0  0  0  0  0  0
  148.6437  138.6369  157.2414 O   0  0  0  0  0  0  0  0  0  0  0  0
  150.8997  139.0210  157.2997 N   0  0  0  0  0  0  0  0  0  0  0  0
  150.9868  140.2997  157.9140 C   0  0  0  0  0  0  0  0  0  0  0  0
  149.8876  141.0992  158.3094 C   0  0  0  0  0  0  0  0  0  0  0  0
  150.0617  142.3137  158.8726 N   0  0  0  0  0  0  0  0  0  0  0  0
  151.3163  142.7353  159.0774 C   0  0  0  0  0  0  0  0  0  0  0  0
  151.4993  144.1778  159.5808 C   0  0  0  0  0  0  0  0  0  0  0  0
  152.3217  145.0188  158.5760 C   0  0  0  0  0  0  0  0  0  0  0  0
  152.2899  144.2069  160.9103 C   0  0  0  0  0  0  0  0  0  0  0  0
  150.1189  144.8277  159.7875 C   0  0  0  0  0  0  0  0  0  0  0  0
  152.4193  142.0780  158.6957 N   0  0  0  0  0  0  0  0  0  0  0  0
  152.2602  140.8628  158.1311 C   0  0  0  0  0  0  0  0  0  0  0  0
  149.8828  135.0295  155.1514 C   0  0  0  0  0  0  0  0  0  0  0  0
  148.8844  133.9953  154.5861 C   0  0  2  0  0  0  0  0  0  0  0  0
  149.6776  132.9050  153.8360 C   0  0  0  0  0  0  0  0  0  0  0  0
  145.4166  133.6220  151.5013 H   0  0  0  0  0  0  0  0  0  0  0  0
  146.5739  134.9324  151.3135 H   0  0  0  0  0  0  0  0  0  0  0  0
  145.2520  135.0623  152.4789 H   0  0  0  0  0  0  0  0  0  0  0  0
  146.2691  133.2425  153.8741 H   0  0  0  0  0  0  0  0  0  0  0  0
  147.4077  132.9254  152.5889 H   0  0  0  0  0  0  0  0  0  0  0  0
  146.4436  136.2740  153.8420 H   0  0  0  0  0  0  0  0  0  0  0  0
  146.5717  135.3193  155.3026 H   0  0  0  0  0  0  0  0  0  0  0  0
  148.6216  137.3100  154.2035 H   0  0  0  0  0  0  0  0  0  0  0  0
  147.5830  137.5620  155.5874 H   0  0  0  0  0  0  0  0  0  0  0  0
  148.6681  135.7086  156.8029 H   0  0  0  0  0  0  0  0  0  0  0  0
  151.1084  136.9535  156.2534 H   0  0  0  0  0  0  0  0  0  0  0  0
  151.7855  138.5858  157.0865 H   0  0  0  0  0  0  0  0  0  0  0  0
  148.8613  140.8013  158.1656 H   0  0  0  0  0  0  0  0  0  0  0  0
  152.4949  146.0280  158.9512 H   0  0  0  0  0  0  0  0  0  0  0  0
  151.8125  145.1237  157.6173 H   0  0  0  0  0  0  0  0  0  0  0  0
  153.2966  144.5683  158.3854 H   0  0  0  0  0  0  0  0  0  0  0  0
  153.2656  143.7313  160.8030 H   0  0  0  0  0  0  0  0  0  0  0  0
  151.7587  143.6948  161.7134 H   0  0  0  0  0  0  0  0  0  0  0  0
  152.4597  145.2295  161.2491 H   0  0  0  0  0  0  0  0  0  0  0  0
  150.2109  145.8538  160.1451 H   0  0  0  0  0  0  0  0  0  0  0  0
  149.5274  144.2759  160.5191 H   0  0  0  0  0  0  0  0  0  0  0  0
  149.5501  144.8530  158.8573 H   0  0  0  0  0  0  0  0  0  0  0  0
  153.1607  140.3391  157.8453 H   0  0  0  0  0  0  0  0  0  0  0  0
  150.4587  135.4664  154.3338 H   0  0  0  0  0  0  0  0  0  0  0  0
  150.6033  134.5258  155.7974 H   0  0  0  0  0  0  0  0  0  0  0  0
  148.3748  133.5209  155.4266 H   0  0  0  0  0  0  0  0  0  0  0  0
  150.5218  132.5585  154.4331 H   0  0  0  0  0  0  0  0  0  0  0  0
  150.0756  133.2782  152.8918 H   0  0  0  0  0  0  0  0  0  0  0  0
  149.0758  132.0205  153.6300 H   0  0  0  0  0  0  0  0  0  0  0  0
  148.3444  135.1084  152.9787 H   0  0  0  0  0  0  0  0  0  0  0  0
  1  2  1  0  0  0  0
  1 24  1  0  0  0  0
  1 25  1  0  0  0  0
  1 26  1  0  0  0  0
  2  3  1  0  0  0  0
  2 27  1  0  0  0  0
  2 28  1  0  0  0  0
  3 22  1  0  0  0  0
  3  4  1  0  0  0  0
  3 53  1  0  0  0  0
  4  5  1  0  0  0  0
  4 29  1  0  0  0  0
  4 30  1  0  0  0  0
  5  6  1  0  0  0  0
  5 31  1  0  0  0  0
  5 32  1  0  0  0  0
  6  7  1  0  0  0  0
  6 21  1  0  0  0  0
  6 33  1  0  0  0  0
  7  8  1  0  0  0  0
  7 34  1  0  0  0  0
  8  9  2  0  0  0  0
  8 10  1  0  0  0  0
 10 11  1  0  0  0  0
 10 35  1  0  0  0  0
 11 20  1  0  0  0  0
 11 12  2  0  0  0  0
 12 13  1  0  0  0  0
 12 36  1  0  0  0  0
 13 14  2  0  0  0  0
 14 15  1  0  0  0  0
 14 19  1  0  0  0  0
 15 16  1  0  0  0  0
 15 17  1  0  0  0  0
 15 18  1  0  0  0  0
 16 37  1  0  0  0  0
 16 38  1  0  0  0  0
 16 39  1  0  0  0  0
 17 40  1  0  0  0  0
 17 41  1  0  0  0  0
 17 42  1  0  0  0  0
 18 43  1  0  0  0  0
 18 44  1  0  0  0  0
 18 45  1  0  0  0  0
 19 20  2  0  0  0  0
 20 46  1  0  0  0  0
 21 22  1  0  0  0  0
 21 47  1  0  0  0  0
 21 48  1  0  0  0  0
 22 23  1  0  0  0  0
 22 49  1  0  0  0  0
 23 50  1  0  0  0  0
 23 51  1  0  0  0  0
 23 52  1  0  0  0  0
M  CHG  1   3   1
M  END
> <s_m_source_file>
AV-unprocessed.smi

> <i_m_source_file_index>
2710

> <i_lp_mmshare_version>
43012

> <i_f3d_flags>
0

> <s_epik_input>
W0NIM11bQ0gyXU4xW0NIMl1bQ0gyXVtDQEhdKFtDSDJdW0NASF0xW0NIM10pW05IXUMoPU8pW05IXWMyW2NIXW5jKEMoW0NIM10pKFtDSDNdKVtDSDNdKW5bY0hdMg==

> <s_epik_cmdline>
J2VwaWtfcHl0aG9uJywgJy1waCcsICc3LjAnLCAnLXRuJywgJzgnLCAnLW1hJywgJzIwMCcsICctbWV0YWxfYmluZGluZycsICctaW1hZScsICc8aW5maWxlLm1hZT4nLCAnLW9tYWUnLCAnPG91dGZpbGUubWFlPic=

> <r_lp_tautomer_probability>
1

> <r_epik_Ionization_Penalty>
0.00396003

> <r_epik_Ionization_Penalty_Charging>
0.0039379

> <r_epik_Ionization_Penalty_Neutral>
2.21316e-05

> <r_epik_State_Penalty>
0.00281651

> <r_epik_Charging_Adjusted_Penalty>
0.00675441

> <i_epik_Tot_Q>
1

> <i_epik_Tot_abs_Q>
1

> <r_epik_Metal_State_Penalty>
-0

> <b_epik_Metal_Only>
0

> <s_lp_Force_Field>
OPLS_2005

> <r_lp_Energy>
20.1014

> <b_lp_Chiralities_Consistent>
1

> <s_lp_Variant>
AV-unprocessed.smi:2710-8

> <Gold.Version>
5.8.1

> <Gold.Id.Protein>
6NUR|6NUR_protein|mol2

> <Gold.PLP.Fitness>
40.7320

> <Gold.PLP.PLP>
-34.8884

> <Gold.PLP.part.hbond>
-1.7356

> <Gold.PLP.part.metal>
0.0000

> <Gold.PLP.part.buried>
-6.1759

> <Gold.PLP.part.nonpolar>
-26.8696

> <Gold.PLP.part.repulsive>
0.0964

> <Gold.PLP.ligand.clash>
0.0000

> <Gold.PLP.ligand.torsion>
0.1786

> <Gold.PLP.Chemscore.Hbond>
2.0000

> <Gold.PLP.Chemscore.CHOScore>
0.0000

> <Gold.PLP.Chemscore.Metal>
0.0000

> <Gold.Chemscore.Hbonds>
donor molecule, donor type, donor heavy atom, donor atom, acceptor molecule, acceptor atom, score
      L1  H     3    53       P1  7948  2.00

> <Gold.PLP.Chemscore.Internal.Correction>
0.2008

> <Gold.Rescore>
     Score         DG    S(hbond)    S(metal)    S(lipo)     H(rot)  DE(clash)    DE(int)     intcor
     13.57     -16.06       0.98        0.00      90.98       1.31       0.01       2.48       ----

> <Gold.Chemscore.Fitness>
13.5680

> <Gold.Chemscore.DG>
-16.0559

> <Gold.Chemscore.ZeroCoef>
-5.4800

> <Gold.Chemscore.Hbond>
0.9821

> <Gold.Chemscore.Metal>
0.0000

> <Gold.Chemscore.Lipo>
90.9796

> <Gold.Chemscore.Internal_Hbond>
0.0000

> <Gold.Chemscore.DEClash>
0.0117

> <Gold.Chemscore.DEInternal>
2.4761

> <Gold.Chemscore.Rot>
1.3081

> <Gold.Chemscore.Internal.Correction>
   9.000000E+99

> <Gold.Chemscore.Hbonds>
donor molecule, donor type, donor heavy atom, donor atom, acceptor molecule, acceptor atom, score
      L1  H     3    53       P1  7948  0.88

> <Gold.Chemscore.Hbond.Weighted>
-3.2801

> <Gold.Chemscore.Metal.Weighted>
-0.0000

> <Gold.Chemscore.Lipo.Weighted>
-10.6446

> <Gold.Chemscore.Internal_Hbond.Weighted>
0.0000

> <Gold.Chemscore.DEClash.Weighted>
0.0117

> <Gold.Chemscore.DEInternal.Weighted>
2.4761

> <Gold.Chemscore.Rot.Weighted>
3.3488

> <Gold.Chemscore.Internal.Correction.Weighted>
   9.000000E+99

> <Gold.Protein.RotatedTorsions>
[ 6907 6896 6895 6894 ] final  -81.92 input  -60.11 | X-H torsion
[ 7974 7965 7964 7962 ] final  -24.14 input  175.53 | X-H torsion
[ 8008 7997 7996 7995 ] final  -83.50 input   59.86 | X-H torsion
[ 10167 10162 10161 10158 ] final -106.46 input  -65.29 | X-H torsion
[ 10718 10713 10712 10709 ] final -140.13 input   66.30 | X-H torsion
[ 10763 10752 10751 10750 ] final  -77.91 input  -60.55 | X-H torsion
[ 11005 11000 10999 10996 ] final  -32.88 input  -57.11 | X-H torsion

> <Gold.Protein.ActiveResidues>
 VAL166  LYS551  ARG553  GLY616  TRP617  ASP618  TYR619  PRO620  LYS621  CYS622 
 ASP623  PHE694  ASN695  SER759  ASP760  ASP761  ALA762  ILE779  LEU786  VAL792 
 PHE793  MET794  SER795  GLU796  ALA797  LYS798  CYS799  TRP800  GLU811  SER814 

> <Gold.Protein.RotatedAtoms>
  150.6905  134.3744  159.5006 H   0  0  0  0  0  0  0  0  0  0  0  0  # atno 6907 bound_to 6896
  152.1555  134.8951  160.0554 H   0  0  0  0  0  0  0  0  0  0  0  0  # atno 6908 bound_to 6896
  152.0032  133.3798  159.4227 H   0  0  0  0  0  0  0  0  0  0  0  0  # atno 6909 bound_to 6896
  146.1573  140.4712  142.8586 H   0  0  0  0  0  0  0  0  0  0  0  0  # atno 7974 bound_to 7965
  154.6197  140.0618  156.9600 H   0  0  0  0  0  0  0  0  0  0  0  0  # atno 8008 bound_to 7997
  155.1837  140.3301  155.4352 H   0  0  0  0  0  0  0  0  0  0  0  0  # atno 8009 bound_to 7997
  156.2425  140.1893  156.6932 H   0  0  0  0  0  0  0  0  0  0  0  0  # atno 8010 bound_to 7997
  140.1875  143.3918  152.1233 H   0  0  0  0  0  0  0  0  0  0  0  0  # atno 10167 bound_to 10162
  156.3188  130.7522  151.1615 H   0  0  0  0  0  0  0  0  0  0  0  0  # atno 10718 bound_to 10713
  154.5191  135.5748  153.6666 H   0  0  0  0  0  0  0  0  0  0  0  0  # atno 10763 bound_to 10752
  152.9913  135.6177  154.2778 H   0  0  0  0  0  0  0  0  0  0  0  0  # atno 10764 bound_to 10752
  154.2697  135.2853  155.2723 H   0  0  0  0  0  0  0  0  0  0  0  0  # atno 10765 bound_to 10752
  140.9589  133.7176  156.1338 H   0  0  0  0  0  0  0  0  0  0  0  0  # atno 11005 bound_to 11000
  144.7980  140.6159  143.6497 LP  0  0  0  0  0  0  0  0  0  0  0  0  # atno 17320 bound_to 7965
  145.4677  139.1506  143.3831 LP  0  0  0  0  0  0  0  0  0  0  0  0  # atno 17321 bound_to 7965
  139.5270  144.7114  151.5194 LP  0  0  0  0  0  0  0  0  0  0  0  0  # atno 17342 bound_to 10162
  140.6478  143.8758  150.6755 LP  0  0  0  0  0  0  0  0  0  0  0  0  # atno 17343 bound_to 10162
  157.7407  131.0513  150.5146 LP  0  0  0  0  0  0  0  0  0  0  0  0  # atno 17370 bound_to 10713
  156.5296  130.4181  149.6208 LP  0  0  0  0  0  0  0  0  0  0  0  0  # atno 17371 bound_to 10713
  140.7496  134.4060  157.5543 LP  0  0  0  0  0  0  0  0  0  0  0  0  # atno 17394 bound_to 11000
  139.8871  134.8891  156.2545 LP  0  0  0  0  0  0  0  0  0  0  0  0  # atno 17395 bound_to 11000

$$$$
