AV-unprocessed.smi:1056|AV-procd|sdf|4640|dock2
  -GOLD-   22720 3143D 1   1.00000     0.00000
 Structure written by MMmdl.
 45 47  0  0  0  0  0  0  0  0  2 V2000
  153.7714  142.9411  163.6619 C   0  0  0  0  0  0  0  0  0  0  0  0
  153.1346  143.0478  162.2867 C   0  0  0  0  0  0  0  0  0  0  0  0
  152.3064  144.1596  162.0122 C   0  0  0  0  0  0  0  0  0  0  0  0
  151.7353  144.2278  160.7470 C   0  0  0  0  0  0  0  0  0  0  0  0
  150.8873  145.1788  160.1752 N   0  3  0  0  0  0  0  0  0  0  0  0
  150.5881  144.8114  158.8983 C   0  0  0  0  0  0  0  0  0  0  0  0
  151.2326  143.6396  158.6478 N   0  0  0  0  0  0  0  0  0  0  0  0
  151.2514  142.8129  157.4336 C   0  0  0  0  0  0  0  0  0  0  0  0
  149.9917  141.9352  157.2817 C   0  0  2  0  0  0  0  0  0  0  0  0
  150.0199  140.9426  158.2907 O   0  0  0  0  0  0  0  0  0  0  0  0
  149.9226  141.2546  155.8955 C   0  0  0  0  0  0  0  0  0  0  0  0
  148.5780  140.8805  155.4449 N   0  0  0  0  0  0  0  0  0  0  0  0
  148.5781  139.8412  154.4147 C   0  0  0  0  0  0  0  0  0  0  0  0
  147.1537  139.3867  154.0602 C   0  0  0  0  0  0  0  0  0  0  0  0
  146.2523  140.5157  153.8566 N   0  0  0  0  0  0  0  0  0  0  0  0
  146.4775  141.7605  154.3071 C   0  0  0  0  0  0  0  0  0  0  0  0
  145.6560  142.6617  154.1542 O   0  0  0  0  0  0  0  0  0  0  0  0
  147.8185  142.0612  155.0036 C   0  0  0  0  0  0  0  0  0  0  0  0
  151.9621  143.2380  159.7712 C   0  0  0  0  0  0  0  0  0  0  0  0
  152.7767  142.1372  160.0237 C   0  0  0  0  0  0  0  0  0  0  0  0
  153.3686  142.0505  161.3043 C   0  0  0  0  0  0  0  0  0  0  0  0
  154.2629  140.8609  161.6100 C   0  0  0  0  0  0  0  0  0  0  0  0
  153.4859  143.7780  164.3000 H   0  0  0  0  0  0  0  0  0  0  0  0
  154.8587  142.9394  163.5817 H   0  0  0  0  0  0  0  0  0  0  0  0
  153.4584  142.0221  164.1584 H   0  0  0  0  0  0  0  0  0  0  0  0
  152.1247  144.9233  162.7543 H   0  0  0  0  0  0  0  0  0  0  0  0
  149.9564  145.3521  158.2083 H   0  0  0  0  0  0  0  0  0  0  0  0
  151.3762  143.4724  156.5738 H   0  0  0  0  0  0  0  0  0  0  0  0
  152.1449  142.1884  157.4772 H   0  0  0  0  0  0  0  0  0  0  0  0
  149.1089  142.5582  157.4310 H   0  0  0  0  0  0  0  0  0  0  0  0
  150.5888  140.2434  158.0072 H   0  0  0  0  0  0  0  0  0  0  0  0
  150.3245  141.9611  155.1673 H   0  0  0  0  0  0  0  0  0  0  0  0
  150.5950  140.3954  155.8540 H   0  0  0  0  0  0  0  0  0  0  0  0
  149.0809  140.2108  153.5188 H   0  0  0  0  0  0  0  0  0  0  0  0
  149.1373  138.9669  154.7451 H   0  0  0  0  0  0  0  0  0  0  0  0
  147.1636  138.7644  153.1653 H   0  0  0  0  0  0  0  0  0  0  0  0
  146.7486  138.7757  154.8676 H   0  0  0  0  0  0  0  0  0  0  0  0
  145.3813  140.3317  153.3801 H   0  0  0  0  0  0  0  0  0  0  0  0
  147.6290  142.7165  155.8549 H   0  0  0  0  0  0  0  0  0  0  0  0
  148.4145  142.6389  154.2951 H   0  0  0  0  0  0  0  0  0  0  0  0
  152.9529  141.3788  159.2751 H   0  0  0  0  0  0  0  0  0  0  0  0
  154.3809  140.2156  160.7388 H   0  0  0  0  0  0  0  0  0  0  0  0
  153.8379  140.2604  162.4148 H   0  0  0  0  0  0  0  0  0  0  0  0
  155.2561  141.1934  161.9122 H   0  0  0  0  0  0  0  0  0  0  0  0
  150.5372  146.0175  160.6200 H   0  0  0  0  0  0  0  0  0  0  0  0
  1  2  1  0  0  0  0
  1 23  1  0  0  0  0
  1 24  1  0  0  0  0
  1 25  1  0  0  0  0
  2 21  1  0  0  0  0
  2  3  2  0  0  0  0
  3  4  1  0  0  0  0
  3 26  1  0  0  0  0
  4 19  2  0  0  0  0
  4  5  1  0  0  0  0
  5  6  2  0  0  0  0
  5 45  1  0  0  0  0
  6  7  1  0  0  0  0
  6 27  1  0  0  0  0
  7  8  1  0  0  0  0
  7 19  1  0  0  0  0
  8  9  1  0  0  0  0
  8 28  1  0  0  0  0
  8 29  1  0  0  0  0
  9 10  1  0  0  0  0
  9 11  1  0  0  0  0
  9 30  1  0  0  0  0
 10 31  1  0  0  0  0
 11 12  1  0  0  0  0
 11 32  1  0  0  0  0
 11 33  1  0  0  0  0
 12 18  1  0  0  0  0
 12 13  1  0  0  0  0
 13 14  1  0  0  0  0
 13 34  1  0  0  0  0
 13 35  1  0  0  0  0
 14 15  1  0  0  0  0
 14 36  1  0  0  0  0
 14 37  1  0  0  0  0
 15 16  1  0  0  0  0
 15 38  1  0  0  0  0
 16 17  2  0  0  0  0
 16 18  1  0  0  0  0
 18 39  1  0  0  0  0
 18 40  1  0  0  0  0
 19 20  1  0  0  0  0
 20 21  2  0  0  0  0
 20 41  1  0  0  0  0
 21 22  1  0  0  0  0
 22 42  1  0  0  0  0
 22 43  1  0  0  0  0
 22 44  1  0  0  0  0
M  CHG  1   5   1
M  END
> <s_m_source_file>
AV-unprocessed.smi

> <i_m_source_file_index>
1056

> <i_lp_mmshare_version>
43012

> <i_f3d_flags>
0

> <s_epik_input>
W0NIM11jKFtjSF0xKWMoW0NIM10pW2NIXWMoYzEyKW4oW2NIXW4yKVtDSDJdW0NASF0oW09IXSlbQ0gyXU4zW0NIMl1bQ0gyXVtOSF1DKD1PKVtDSDJdMw==

> <s_epik_cmdline>
J2VwaWtfcHl0aG9uJywgJy1waCcsICc3LjAnLCAnLXRuJywgJzgnLCAnLW1hJywgJzIwMCcsICctbWV0YWxfYmluZGluZycsICctaW1hZScsICc8aW5maWxlLm1hZT4nLCAnLW9tYWUnLCAnPG91dGZpbGUubWFlPic=

> <r_epik_Ionization_Penalty>
2.47196

> <r_epik_Ionization_Penalty_Charging>
1.21809

> <r_epik_Ionization_Penalty_Neutral>
1.25387

> <r_epik_State_Penalty>
2.6255

> <r_epik_Charging_Adjusted_Penalty>
3.84359

> <i_epik_Tot_Q>
1

> <i_epik_Tot_abs_Q>
1

> <r_epik_Metal_State_Penalty>
2.76698

> <b_epik_Metal_Only>
0

> <s_lp_Force_Field>
OPLS_2005

> <r_lp_Energy>
35.3562

> <b_lp_Chiralities_Consistent>
1

> <s_lp_Variant>
AV-unprocessed.smi:1056-11

> <Gold.Version>
5.8.1

> <Gold.Id.Protein>
6NUR|6NUR_protein|mol2

> <Gold.PLP.Fitness>
56.0523

> <Gold.PLP.PLP>
-51.3187

> <Gold.PLP.part.hbond>
-1.0000

> <Gold.PLP.part.metal>
0.0000

> <Gold.PLP.part.buried>
-3.3086

> <Gold.PLP.part.nonpolar>
-47.8297

> <Gold.PLP.part.repulsive>
0.5143

> <Gold.PLP.ligand.clash>
0.0000

> <Gold.PLP.ligand.torsion>
0.7325

> <Gold.PLP.Chemscore.Hbond>
1.0000

> <Gold.PLP.Chemscore.CHOScore>
1.0287

> <Gold.PLP.Chemscore.Metal>
0.0000

> <Gold.Chemscore.Hbonds>
donor molecule, donor type, donor heavy atom, donor atom, acceptor molecule, acceptor atom, score
      L1  H    15    38       P1 10175  1.00
      L1  C     6    27       P1  8029  1.00

> <Gold.PLP.Chemscore.Internal.Correction>
0.1124

> <Gold.Rescore>
     Score         DG    S(hbond)    S(metal)    S(lipo)     H(rot)  DE(clash)    DE(int)     intcor
     16.20     -18.40       0.99        0.00     134.22       2.37       1.69       0.52       ----

> <Gold.Chemscore.Fitness>
16.1956

> <Gold.Chemscore.DG>
-18.4029

> <Gold.Chemscore.ZeroCoef>
-5.4800

> <Gold.Chemscore.Hbond>
0.9858

> <Gold.Chemscore.Metal>
0.0000

> <Gold.Chemscore.Lipo>
134.2199

> <Gold.Chemscore.Internal_Hbond>
0.0000

> <Gold.Chemscore.DEClash>
1.6872

> <Gold.Chemscore.DEInternal>
0.5202

> <Gold.Chemscore.Rot>
2.3724

> <Gold.Chemscore.Internal.Correction>
   9.000000E+99

> <Gold.Chemscore.Hbonds>
donor molecule, donor type, donor heavy atom, donor atom, acceptor molecule, acceptor atom, score
      L1  H    15    38       P1 10175  0.99

> <Gold.Chemscore.Hbond.Weighted>
-3.2926

> <Gold.Chemscore.Metal.Weighted>
-0.0000

> <Gold.Chemscore.Lipo.Weighted>
-15.7037

> <Gold.Chemscore.Internal_Hbond.Weighted>
0.0000

> <Gold.Chemscore.DEClash.Weighted>
1.6872

> <Gold.Chemscore.DEInternal.Weighted>
0.5202

> <Gold.Chemscore.Rot.Weighted>
6.0734

> <Gold.Chemscore.Internal.Correction.Weighted>
   9.000000E+99

> <Gold.Protein.RotatedTorsions>
[ 6907 6896 6895 6894 ] final   92.83 input  -60.11 | X-H torsion
[ 7974 7965 7964 7962 ] final   61.74 input  175.53 | X-H torsion
[ 8008 7997 7996 7995 ] final   44.89 input   59.86 | X-H torsion
[ 10167 10162 10161 10158 ] final  -93.30 input  -65.29 | X-H torsion
[ 10718 10713 10712 10709 ] final  -35.92 input   66.30 | X-H torsion
[ 10763 10752 10751 10750 ] final   12.30 input  -60.55 | X-H torsion
[ 11005 11000 10999 10996 ] final -175.01 input  -57.11 | X-H torsion

> <Gold.Protein.ActiveResidues>
 VAL166  LYS551  ARG553  GLY616  TRP617  ASP618  TYR619  PRO620  LYS621  CYS622 
 ASP623  PHE694  ASN695  SER759  ASP760  ASP761  ALA762  ILE779  LEU786  VAL792 
 PHE793  MET794  SER795  GLU796  ALA797  LYS798  CYS799  TRP800  GLU811  SER814 

> <Gold.Protein.RotatedAtoms>
  152.5453  134.1442  159.8491 H   0  0  0  0  0  0  0  0  0  0  0  0  # atno 6907 bound_to 6896
  151.1475  133.4922  159.2603 H   0  0  0  0  0  0  0  0  0  0  0  0  # atno 6908 bound_to 6896
  151.1507  135.0236  159.8722 H   0  0  0  0  0  0  0  0  0  0  0  0  # atno 6909 bound_to 6896
  145.8813  139.3445  143.0704 H   0  0  0  0  0  0  0  0  0  0  0  0  # atno 7974 bound_to 7965
  155.3268  140.3400  155.4240 H   0  0  0  0  0  0  0  0  0  0  0  0  # atno 8008 bound_to 7997
  156.1882  140.1688  156.8181 H   0  0  0  0  0  0  0  0  0  0  0  0  # atno 8009 bound_to 7997
  154.5410  140.0725  156.8494 H   0  0  0  0  0  0  0  0  0  0  0  0  # atno 8010 bound_to 7997
  140.3261  143.3021  151.9994 H   0  0  0  0  0  0  0  0  0  0  0  0  # atno 10167 bound_to 10162
  156.3329  130.4282  149.7856 H   0  0  0  0  0  0  0  0  0  0  0  0  # atno 10718 bound_to 10713
  153.1836  135.6831  153.8444 H   0  0  0  0  0  0  0  0  0  0  0  0  # atno 10763 bound_to 10752
  153.7768  135.3188  155.3361 H   0  0  0  0  0  0  0  0  0  0  0  0  # atno 10764 bound_to 10752
  154.8075  135.4739  154.0526 H   0  0  0  0  0  0  0  0  0  0  0  0  # atno 10765 bound_to 10752
  140.4680  134.6192  157.4870 H   0  0  0  0  0  0  0  0  0  0  0  0  # atno 11005 bound_to 11000
  145.9020  140.9236  143.0498 LP  0  0  0  0  0  0  0  0  0  0  0  0  # atno 17320 bound_to 7965
  144.6727  140.1046  143.7459 LP  0  0  0  0  0  0  0  0  0  0  0  0  # atno 17321 bound_to 7965
  139.4865  144.6273  151.7140 LP  0  0  0  0  0  0  0  0  0  0  0  0  # atno 17342 bound_to 10162
  140.5440  144.0533  150.6099 LP  0  0  0  0  0  0  0  0  0  0  0  0  # atno 17343 bound_to 10162
  156.5121  130.8177  151.3173 LP  0  0  0  0  0  0  0  0  0  0  0  0  # atno 17370 bound_to 10713
  157.7433  130.9910  150.2587 LP  0  0  0  0  0  0  0  0  0  0  0  0  # atno 17371 bound_to 10713
  139.9903  134.6996  155.9702 LP  0  0  0  0  0  0  0  0  0  0  0  0  # atno 17394 bound_to 11000
  141.1590  133.6540  156.4256 LP  0  0  0  0  0  0  0  0  0  0  0  0  # atno 17395 bound_to 11000

$$$$
