AV-unprocessed.smi:1239|AV-procd|sdf|5189|dock2
  -GOLD-   22720 4273D 1   1.00000     0.00000
 Structure written by MMmdl.
 49 50  0  0  0  0  0  0  0  0  3 V2000
  143.9039  137.4355  152.2416 C   0  0  0  0  0  0  0  0  0  0  0  0
  145.4104  137.1996  152.5094 C   0  0  2  0  0  0  0  0  0  0  0  0
  146.2474  138.3446  151.8792 C   0  0  0  0  0  0  0  0  0  0  0  0
  147.5333  138.5449  152.5427 N   0  0  0  0  0  0  0  0  0  0  0  0
  147.8044  139.5430  153.3956 C   0  0  0  0  0  0  0  0  0  0  0  0
  146.9860  140.4098  153.7014 O   0  0  0  0  0  0  0  0  0  0  0  0
  149.0712  139.4779  153.8414 N   0  0  0  0  0  0  0  0  0  0  0  0
  149.7221  140.3239  154.7806 C   0  0  0  0  0  0  0  0  0  0  0  0
  150.7668  139.7730  155.5519 C   0  0  0  0  0  0  0  0  0  0  0  0
  151.4306  140.5698  156.5072 C   0  0  0  0  0  0  0  0  0  0  0  0
  151.0386  141.9179  156.6958 C   0  0  0  0  0  0  0  0  0  0  0  0
  151.6527  142.7786  157.6316 N   0  0  0  0  0  0  0  0  0  0  0  0
  152.4330  142.2178  158.7291 C   0  0  0  0  0  0  0  0  0  0  0  0
  151.5318  144.2224  157.4768 C   0  0  0  0  0  0  0  0  0  0  0  0
  150.0208  142.3984  155.9403 N   0  3  0  0  0  0  0  0  0  0  0  0
  149.3598  141.6719  155.0135 C   0  0  0  0  0  0  0  0  0  0  0  0
  145.9037  135.8679  152.0268 N   0  3  0  0  0  0  0  0  0  0  0  0
  145.7675  134.8036  153.0589 C   0  0  0  0  0  0  0  0  0  0  0  0
  146.3645  133.4750  152.5680 C   0  0  0  0  0  0  0  0  0  0  0  0
  145.7175  133.0815  151.3670 O   0  0  0  0  0  0  0  0  0  0  0  0
  145.9161  134.0333  150.3322 C   0  0  0  0  0  0  0  0  0  0  0  0
  145.3175  135.3895  150.7441 C   0  0  0  0  0  0  0  0  0  0  0  0
  143.5833  138.4208  152.5792 H   0  0  0  0  0  0  0  0  0  0  0  0
  143.2764  136.7239  152.7783 H   0  0  0  0  0  0  0  0  0  0  0  0
  143.6713  137.3641  151.1785 H   0  0  0  0  0  0  0  0  0  0  0  0
  145.5418  137.2214  153.5925 H   0  0  0  0  0  0  0  0  0  0  0  0
  146.4370  138.1783  150.8194 H   0  0  0  0  0  0  0  0  0  0  0  0
  145.6913  139.2806  151.9387 H   0  0  0  0  0  0  0  0  0  0  0  0
  148.2620  137.8757  152.3398 H   0  0  0  0  0  0  0  0  0  0  0  0
  149.6486  138.7560  153.4355 H   0  0  0  0  0  0  0  0  0  0  0  0
  151.0658  138.7443  155.4123 H   0  0  0  0  0  0  0  0  0  0  0  0
  152.2312  140.1299  157.0822 H   0  0  0  0  0  0  0  0  0  0  0  0
  153.2775  141.6445  158.3451 H   0  0  0  0  0  0  0  0  0  0  0  0
  151.8159  141.5595  159.3417 H   0  0  0  0  0  0  0  0  0  0  0  0
  152.8282  143.0007  159.3767 H   0  0  0  0  0  0  0  0  0  0  0  0
  150.4862  144.5272  157.5282 H   0  0  0  0  0  0  0  0  0  0  0  0
  151.9417  144.5407  156.5179 H   0  0  0  0  0  0  0  0  0  0  0  0
  152.0722  144.7523  158.2614 H   0  0  0  0  0  0  0  0  0  0  0  0
  148.5638  142.1999  154.5104 H   0  0  0  0  0  0  0  0  0  0  0  0
  146.2653  135.0843  153.9851 H   0  0  0  0  0  0  0  0  0  0  0  0
  144.7125  134.6636  153.3002 H   0  0  0  0  0  0  0  0  0  0  0  0
  147.4404  133.5631  152.4091 H   0  0  0  0  0  0  0  0  0  0  0  0
  146.2163  132.6981  153.3185 H   0  0  0  0  0  0  0  0  0  0  0  0
  146.9798  134.1294  150.1080 H   0  0  0  0  0  0  0  0  0  0  0  0
  145.4328  133.6716  149.4247 H   0  0  0  0  0  0  0  0  0  0  0  0
  144.2341  135.3058  150.8442 H   0  0  0  0  0  0  0  0  0  0  0  0
  145.5196  136.0926  149.9366 H   0  0  0  0  0  0  0  0  0  0  0  0
  149.7330  143.3669  156.0812 H   0  0  0  0  0  0  0  0  0  0  0  0
  146.8918  135.9805  151.8491 H   0  0  0  0  0  0  0  0  0  0  0  0
  1  2  1  0  0  0  0
  1 23  1  0  0  0  0
  1 24  1  0  0  0  0
  1 25  1  0  0  0  0
  2  3  1  0  0  0  0
  2 17  1  0  0  0  0
  2 26  1  0  0  0  0
  3  4  1  0  0  0  0
  3 27  1  0  0  0  0
  3 28  1  0  0  0  0
  4  5  1  0  0  0  0
  4 29  1  0  0  0  0
  5  6  2  0  0  0  0
  5  7  1  0  0  0  0
  7  8  1  0  0  0  0
  7 30  1  0  0  0  0
  8 16  1  0  0  0  0
  8  9  2  0  0  0  0
  9 10  1  0  0  0  0
  9 31  1  0  0  0  0
 10 11  2  0  0  0  0
 10 32  1  0  0  0  0
 11 12  1  0  0  0  0
 11 15  1  0  0  0  0
 12 13  1  0  0  0  0
 12 14  1  0  0  0  0
 13 33  1  0  0  0  0
 13 34  1  0  0  0  0
 13 35  1  0  0  0  0
 14 36  1  0  0  0  0
 14 37  1  0  0  0  0
 14 38  1  0  0  0  0
 15 16  2  0  0  0  0
 15 48  1  0  0  0  0
 16 39  1  0  0  0  0
 17 22  1  0  0  0  0
 17 18  1  0  0  0  0
 17 49  1  0  0  0  0
 18 19  1  0  0  0  0
 18 40  1  0  0  0  0
 18 41  1  0  0  0  0
 19 20  1  0  0  0  0
 19 42  1  0  0  0  0
 19 43  1  0  0  0  0
 20 21  1  0  0  0  0
 21 22  1  0  0  0  0
 21 44  1  0  0  0  0
 21 45  1  0  0  0  0
 22 46  1  0  0  0  0
 22 47  1  0  0  0  0
M  CHG  1  15   1
M  CHG  1  17   1
M  END
> <s_m_source_file>
AV-unprocessed.smi

> <i_m_source_file_index>
1239

> <i_lp_mmshare_version>
43012

> <i_f3d_flags>
0

> <s_epik_input>
W0NIMl0xW0NIMl1PW0NIMl1bQ0gyXU4xW0NASF0oW0NIM10pW0NIMl1bTkhdQyg9TylbTkhdYzJbY0hdW2NIXWMoTihbQ0gzXSlbQ0gzXSluW2NIXTI=

> <s_epik_cmdline>
J2VwaWtfcHl0aG9uJywgJy1waCcsICc3LjAnLCAnLXRuJywgJzgnLCAnLW1hJywgJzIwMCcsICctbWV0YWxfYmluZGluZycsICctaW1hZScsICc8aW5maWxlLm1hZT4nLCAnLW9tYWUnLCAnPG91dGZpbGUubWFlPic=

> <r_lp_tautomer_probability>
0.999994

> <r_epik_Ionization_Penalty>
0.907597

> <r_epik_Ionization_Penalty_Charging>
0.907577

> <r_epik_Ionization_Penalty_Neutral>
2.023e-05

> <r_epik_State_Penalty>
0.909151

> <r_epik_Charging_Adjusted_Penalty>
1.81673

> <i_epik_Tot_Q>
2

> <i_epik_Tot_abs_Q>
2

> <r_epik_Metal_State_Penalty>
1.19543

> <b_epik_Metal_Only>
0

> <s_lp_Force_Field>
OPLS_2005

> <r_lp_Energy>
31.6235

> <b_lp_Chiralities_Consistent>
1

> <s_lp_Variant>
AV-unprocessed.smi:1239-5

> <Gold.Version>
5.8.1

> <Gold.Id.Protein>
6NUR|6NUR_protein|mol2

> <Gold.PLP.Fitness>
51.9043

> <Gold.PLP.PLP>
-39.7092

> <Gold.PLP.part.hbond>
-5.0000

> <Gold.PLP.part.metal>
0.0000

> <Gold.PLP.part.buried>
-1.7015

> <Gold.PLP.part.nonpolar>
-32.9706

> <Gold.PLP.part.repulsive>
0.5445

> <Gold.PLP.ligand.clash>
0.0000

> <Gold.PLP.ligand.torsion>
1.3489

> <Gold.PLP.Chemscore.Hbond>
4.9280

> <Gold.PLP.Chemscore.CHOScore>
0.0000

> <Gold.PLP.Chemscore.Metal>
0.0000

> <Gold.Chemscore.Hbonds>
donor molecule, donor type, donor heavy atom, donor atom, acceptor molecule, acceptor atom, score
      L1  H     4    29       P1  7948  1.00
      L1  H    15    48       P1  8028  2.00
      L1  H    17    49       P1  7948  1.92

> <Gold.PLP.Chemscore.Internal.Correction>
0.1089

> <Gold.Rescore>
     Score         DG    S(hbond)    S(metal)    S(lipo)     H(rot)  DE(clash)    DE(int)     intcor
     18.29     -21.03       2.82        0.00      85.42       1.51       0.27       2.47       ----

> <Gold.Chemscore.Fitness>
18.2927

> <Gold.Chemscore.DG>
-21.0336

> <Gold.Chemscore.ZeroCoef>
-5.4800

> <Gold.Chemscore.Hbond>
2.8190

> <Gold.Chemscore.Metal>
0.0000

> <Gold.Chemscore.Lipo>
85.4241

> <Gold.Chemscore.Internal_Hbond>
0.0000

> <Gold.Chemscore.DEClash>
0.2697

> <Gold.Chemscore.DEInternal>
2.4713

> <Gold.Chemscore.Rot>
1.5064

> <Gold.Chemscore.Internal.Correction>
   9.000000E+99

> <Gold.Chemscore.Hbonds>
donor molecule, donor type, donor heavy atom, donor atom, acceptor molecule, acceptor atom, score
      L1  H     4    29       P1  7948  0.99
      L1  H    15    48       P1  8028  0.97
      L1  H    17    49       P1  7948  0.91

> <Gold.Chemscore.Hbond.Weighted>
-9.4153

> <Gold.Chemscore.Metal.Weighted>
-0.0000

> <Gold.Chemscore.Lipo.Weighted>
-9.9946

> <Gold.Chemscore.Internal_Hbond.Weighted>
0.0000

> <Gold.Chemscore.DEClash.Weighted>
0.2697

> <Gold.Chemscore.DEInternal.Weighted>
2.4713

> <Gold.Chemscore.Rot.Weighted>
3.8563

> <Gold.Chemscore.Internal.Correction.Weighted>
   9.000000E+99

> <Gold.Protein.RotatedTorsions>
[ 6907 6896 6895 6894 ] final -108.23 input  -60.11 | X-H torsion
[ 7974 7965 7964 7962 ] final -169.39 input  175.53 | X-H torsion
[ 8008 7997 7996 7995 ] final  119.62 input   59.86 | X-H torsion
[ 10167 10162 10161 10158 ] final   62.14 input  -65.29 | X-H torsion
[ 10718 10713 10712 10709 ] final  124.32 input   66.30 | X-H torsion
[ 10763 10752 10751 10750 ] final   92.12 input  -60.55 | X-H torsion
[ 11005 11000 10999 10996 ] final  -52.24 input  -57.11 | X-H torsion

> <Gold.Protein.ActiveResidues>
 VAL166  LYS551  ARG553  GLY616  TRP617  ASP618  TYR619  PRO620  LYS621  CYS622 
 ASP623  PHE694  ASN695  SER759  ASP760  ASP761  ALA762  ILE779  LEU786  VAL792 
 PHE793  MET794  SER795  GLU796  ALA797  LYS798  CYS799  TRP800  GLU811  SER814 

> <Gold.Protein.RotatedAtoms>
  150.7490  133.9708  159.3544 H   0  0  0  0  0  0  0  0  0  0  0  0  # atno 6907 bound_to 6896
  151.7641  135.0801  160.0359 H   0  0  0  0  0  0  0  0  0  0  0  0  # atno 6908 bound_to 6896
  152.3383  133.6000  159.5894 H   0  0  0  0  0  0  0  0  0  0  0  0  # atno 6909 bound_to 6896
  144.7186  140.2227  143.6314 H   0  0  0  0  0  0  0  0  0  0  0  0  # atno 7974 bound_to 7965
  156.2604  140.2849  156.1020 H   0  0  0  0  0  0  0  0  0  0  0  0  # atno 8008 bound_to 7997
  155.1350  140.0394  157.2802 H   0  0  0  0  0  0  0  0  0  0  0  0  # atno 8009 bound_to 7997
  154.6572  140.2558  155.7155 H   0  0  0  0  0  0  0  0  0  0  0  0  # atno 8010 bound_to 7997
  140.1472  144.4498  150.6779 H   0  0  0  0  0  0  0  0  0  0  0  0  # atno 10167 bound_to 10162
  157.5594  131.1090  150.8564 H   0  0  0  0  0  0  0  0  0  0  0  0  # atno 10718 bound_to 10713
  153.2157  135.4373  155.0431 H   0  0  0  0  0  0  0  0  0  0  0  0  # atno 10763 bound_to 10752
  154.8224  135.3344  154.7002 H   0  0  0  0  0  0  0  0  0  0  0  0  # atno 10764 bound_to 10752
  153.7437  135.7003  153.5017 H   0  0  0  0  0  0  0  0  0  0  0  0  # atno 10765 bound_to 10752
  141.0914  133.6632  156.3995 H   0  0  0  0  0  0  0  0  0  0  0  0  # atno 11005 bound_to 11000
  145.8485  139.2164  143.1786 LP  0  0  0  0  0  0  0  0  0  0  0  0  # atno 17320 bound_to 7965
  146.0282  140.8283  142.9889 LP  0  0  0  0  0  0  0  0  0  0  0  0  # atno 17321 bound_to 7965
  140.6725  143.2291  151.5590 LP  0  0  0  0  0  0  0  0  0  0  0  0  # atno 17342 bound_to 10162
  139.5443  144.2562  152.1412 LP  0  0  0  0  0  0  0  0  0  0  0  0  # atno 17343 bound_to 10162
  156.9066  130.5266  149.5281 LP  0  0  0  0  0  0  0  0  0  0  0  0  # atno 17370 bound_to 10713
  156.0649  130.5694  150.9268 LP  0  0  0  0  0  0  0  0  0  0  0  0  # atno 17371 bound_to 10713
  140.5244  134.6273  157.5329 LP  0  0  0  0  0  0  0  0  0  0  0  0  # atno 17394 bound_to 11000
  139.9740  134.7245  155.9985 LP  0  0  0  0  0  0  0  0  0  0  0  0  # atno 17395 bound_to 11000

$$$$
