AV-unprocessed.smi:3311|AV-procd|sdf|12719|dock9
  -GOLD-   2272019 63D 1   1.00000     0.00000
 Structure written by MMmdl.
 44 45  0  0  0  0  0  0  0  0  2 V2000
  144.8967  135.0308  154.1952 C   0  0  0  0  0  0  0  0  0  0  0  0
  146.0377  135.0933  153.1663 C   0  0  2  0  0  0  0  0  0  0  0  0
  146.9073  136.2469  153.4923 N   0  3  0  0  0  0  0  0  0  0  0  0
  146.2540  137.5706  153.4026 C   0  0  0  0  0  0  0  0  0  0  0  0
  147.2800  138.7218  153.3222 C   0  0  0  0  0  0  0  0  0  0  0  0
  147.8958  138.6435  152.0481 O   0  0  0  0  0  0  0  0  0  0  0  0
  146.6073  140.1071  153.4895 C   0  0  0  0  0  0  0  0  0  0  0  0
  147.6217  141.2633  153.5472 C   0  0  0  0  0  0  0  0  0  0  0  0
  148.6707  141.0336  154.6438 C   0  0  0  0  0  0  0  0  0  0  0  0
  149.3845  139.6891  154.4468 C   0  0  0  0  0  0  0  0  0  0  0  0
  148.3787  138.5247  154.3936 C   0  0  0  0  0  0  0  0  0  0  0  0
  145.5308  135.2039  151.7030 C   0  0  2  0  0  0  0  0  0  0  0  0
  144.2127  135.9905  151.5714 C   0  0  0  0  0  0  0  0  0  0  0  0
  145.3840  133.8872  151.0923 N   0  0  0  0  0  0  0  0  0  0  0  0
  144.2477  133.3168  150.5559 C   0  0  0  0  0  0  0  0  0  0  0  0
  144.5922  132.0814  150.0879 C   0  0  0  0  0  0  0  0  0  0  0  0
  145.9784  131.9793  150.3898 C   0  0  0  0  0  0  0  0  0  0  0  0
  146.4491  133.0599  150.9903 N   0  0  0  0  0  0  0  0  0  0  0  0
  144.2939  134.1311  154.0738 H   0  0  0  0  0  0  0  0  0  0  0  0
  144.2342  135.8929  154.1102 H   0  0  0  0  0  0  0  0  0  0  0  0
  145.2897  135.0124  155.2125 H   0  0  0  0  0  0  0  0  0  0  0  0
  146.6144  134.1717  153.2643 H   0  0  0  0  0  0  0  0  0  0  0  0
  147.2360  136.1344  154.4408 H   0  0  0  0  0  0  0  0  0  0  0  0
  145.6027  137.5840  152.5275 H   0  0  0  0  0  0  0  0  0  0  0  0
  145.6135  137.7094  154.2748 H   0  0  0  0  0  0  0  0  0  0  0  0
  148.0639  137.7338  151.8524 H   0  0  0  0  0  0  0  0  0  0  0  0
  145.8993  140.2924  152.6811 H   0  0  0  0  0  0  0  0  0  0  0  0
  146.0221  140.1116  154.4101 H   0  0  0  0  0  0  0  0  0  0  0  0
  148.1179  141.3685  152.5817 H   0  0  0  0  0  0  0  0  0  0  0  0
  147.0997  142.2036  153.7269 H   0  0  0  0  0  0  0  0  0  0  0  0
  149.3984  141.8457  154.6392 H   0  0  0  0  0  0  0  0  0  0  0  0
  148.1898  141.0544  155.6227 H   0  0  0  0  0  0  0  0  0  0  0  0
  149.9707  139.7162  153.5275 H   0  0  0  0  0  0  0  0  0  0  0  0
  150.0955  139.5263  155.2573 H   0  0  0  0  0  0  0  0  0  0  0  0
  147.9112  138.4265  155.3744 H   0  0  0  0  0  0  0  0  0  0  0  0
  148.9122  137.5888  154.2213 H   0  0  0  0  0  0  0  0  0  0  0  0
  146.2855  135.7378  151.1230 H   0  0  0  0  0  0  0  0  0  0  0  0
  144.3346  137.0337  151.8611 H   0  0  0  0  0  0  0  0  0  0  0  0
  143.4259  135.5609  152.1922 H   0  0  0  0  0  0  0  0  0  0  0  0
  143.8586  135.9873  150.5399 H   0  0  0  0  0  0  0  0  0  0  0  0
  143.2983  133.8319  150.5485 H   0  0  0  0  0  0  0  0  0  0  0  0
  143.9512  131.3592  149.6044 H   0  0  0  0  0  0  0  0  0  0  0  0
  146.6520  131.1586  150.1917 H   0  0  0  0  0  0  0  0  0  0  0  0
  147.7065  136.2377  152.8752 H   0  0  0  0  0  0  0  0  0  0  0  0
  1  2  1  0  0  0  0
  1 19  1  0  0  0  0
  1 20  1  0  0  0  0
  1 21  1  0  0  0  0
  2  3  1  0  0  0  0
  2 12  1  0  0  0  0
  2 22  1  0  0  0  0
  3  4  1  0  0  0  0
  3 23  1  0  0  0  0
  3 44  1  0  0  0  0
  4  5  1  0  0  0  0
  4 24  1  0  0  0  0
  4 25  1  0  0  0  0
  5 11  1  0  0  0  0
  5  6  1  0  0  0  0
  5  7  1  0  0  0  0
  6 26  1  0  0  0  0
  7  8  1  0  0  0  0
  7 27  1  0  0  0  0
  7 28  1  0  0  0  0
  8  9  1  0  0  0  0
  8 29  1  0  0  0  0
  8 30  1  0  0  0  0
  9 10  1  0  0  0  0
  9 31  1  0  0  0  0
  9 32  1  0  0  0  0
 10 11  1  0  0  0  0
 10 33  1  0  0  0  0
 10 34  1  0  0  0  0
 11 35  1  0  0  0  0
 11 36  1  0  0  0  0
 12 13  1  0  0  0  0
 12 14  1  0  0  0  0
 12 37  1  0  0  0  0
 13 38  1  0  0  0  0
 13 39  1  0  0  0  0
 13 40  1  0  0  0  0
 14 18  1  0  0  0  0
 14 15  1  0  0  0  0
 15 16  2  0  0  0  0
 15 41  1  0  0  0  0
 16 17  1  0  0  0  0
 16 42  1  0  0  0  0
 17 18  2  0  0  0  0
 17 43  1  0  0  0  0
M  CHG  1   3   1
M  END
> <s_m_source_file>
AV-unprocessed.smi

> <i_m_source_file_index>
3311

> <i_lp_mmshare_version>
43012

> <i_f3d_flags>
0

> <s_epik_input>
bjFbY0hdW2NIXVtjSF1uMVtDQEBIXShbQ0gzXSlbQ0BIXShbQ0gzXSlbTkhdW0NIMl1DMihbT0hdKVtDSDJdW0NIMl1bQ0gyXVtDSDJdW0NIMl0y

> <s_epik_cmdline>
J2VwaWtfcHl0aG9uJywgJy1waCcsICc3LjAnLCAnLXRuJywgJzgnLCAnLW1hJywgJzIwMCcsICctbWV0YWxfYmluZGluZycsICctaW1hZScsICc8aW5maWxlLm1hZT4nLCAnLW9tYWUnLCAnPG91dGZpbGUubWFlPic=

> <r_lp_tautomer_probability>
1

> <r_epik_Ionization_Penalty>
0.0141403

> <r_epik_Ionization_Penalty_Charging>
0.0141276

> <r_epik_Ionization_Penalty_Neutral>
1.27139e-05

> <r_epik_State_Penalty>
0.0110334

> <r_epik_Charging_Adjusted_Penalty>
0.025161

> <i_epik_Tot_Q>
1

> <i_epik_Tot_abs_Q>
1

> <r_epik_Metal_State_Penalty>
0.0110573

> <b_epik_Metal_Only>
0

> <s_lp_Force_Field>
OPLS_2005

> <r_lp_Energy>
21.8269

> <b_lp_Chiralities_Consistent>
1

> <s_lp_Variant>
AV-unprocessed.smi:3311-1

> <Gold.Version>
5.8.1

> <Gold.Id.Protein>
6NUR|6NUR_protein|mol2

> <Gold.PLP.Fitness>
45.6148

> <Gold.PLP.PLP>
-32.4909

> <Gold.PLP.part.hbond>
-2.9696

> <Gold.PLP.part.metal>
0.0000

> <Gold.PLP.part.buried>
-4.3081

> <Gold.PLP.part.nonpolar>
-26.0441

> <Gold.PLP.part.repulsive>
0.1976

> <Gold.PLP.ligand.clash>
0.0000

> <Gold.PLP.ligand.torsion>
0.9716

> <Gold.PLP.Chemscore.Hbond>
3.0000

> <Gold.PLP.Chemscore.CHOScore>
2.0000

> <Gold.PLP.Chemscore.Metal>
0.0000

> <Gold.Chemscore.Hbonds>
donor molecule, donor type, donor heavy atom, donor atom, acceptor molecule, acceptor atom, score
      L1  H     3    44       P1  7948  2.00
      L1  H     6    26       P1  7948  1.00
      L1  C    15    41       P1 10186  0.91
      L1  C    17    43       P1 10747  1.00

> <Gold.PLP.Chemscore.Internal.Correction>
0.0671

> <Gold.Rescore>
     Score         DG    S(hbond)    S(metal)    S(lipo)     H(rot)  DE(clash)    DE(int)     intcor
     15.32     -16.32       1.95        0.00      83.72       2.14       0.14       0.87       ----

> <Gold.Chemscore.Fitness>
15.3162

> <Gold.Chemscore.DG>
-16.3196

> <Gold.Chemscore.ZeroCoef>
-5.4800

> <Gold.Chemscore.Hbond>
1.9549

> <Gold.Chemscore.Metal>
0.0000

> <Gold.Chemscore.Lipo>
83.7181

> <Gold.Chemscore.Internal_Hbond>
0.0000

> <Gold.Chemscore.DEClash>
0.1365

> <Gold.Chemscore.DEInternal>
0.8669

> <Gold.Chemscore.Rot>
2.1424

> <Gold.Chemscore.Internal.Correction>
   9.000000E+99

> <Gold.Chemscore.Hbonds>
donor molecule, donor type, donor heavy atom, donor atom, acceptor molecule, acceptor atom, score
      L1  H     3    44       P1  7948  0.99
      L1  H     6    26       P1  7948  0.99

> <Gold.Chemscore.Hbond.Weighted>
-6.5292

> <Gold.Chemscore.Metal.Weighted>
-0.0000

> <Gold.Chemscore.Lipo.Weighted>
-9.7950

> <Gold.Chemscore.Internal_Hbond.Weighted>
0.0000

> <Gold.Chemscore.DEClash.Weighted>
0.1365

> <Gold.Chemscore.DEInternal.Weighted>
0.8669

> <Gold.Chemscore.Rot.Weighted>
5.4846

> <Gold.Chemscore.Internal.Correction.Weighted>
   9.000000E+99

> <Gold.Protein.RotatedTorsions>
[ 6907 6896 6895 6894 ] final  107.22 input  -60.11 | X-H torsion
[ 7974 7965 7964 7962 ] final   74.84 input  175.53 | X-H torsion
[ 8008 7997 7996 7995 ] final   94.08 input   59.86 | X-H torsion
[ 10167 10162 10161 10158 ] final -179.95 input  -65.29 | X-H torsion
[ 10718 10713 10712 10709 ] final -116.38 input   66.30 | X-H torsion
[ 10763 10752 10751 10750 ] final   -8.83 input  -60.55 | X-H torsion
[ 11005 11000 10999 10996 ] final -148.43 input  -57.11 | X-H torsion

> <Gold.Protein.ActiveResidues>
 VAL166  LYS551  ARG553  GLY616  TRP617  ASP618  TYR619  PRO620  LYS621  CYS622 
 ASP623  PHE694  ASN695  SER759  ASP760  ASP761  ALA762  ILE779  LEU786  VAL792 
 PHE793  MET794  SER795  GLU796  ALA797  LYS798  CYS799  TRP800  GLU811  SER814 

> <Gold.Protein.RotatedAtoms>
  152.5163  133.9266  159.7559 H   0  0  0  0  0  0  0  0  0  0  0  0  # atno 6907 bound_to 6896
  150.9625  133.6421  159.2759 H   0  0  0  0  0  0  0  0  0  0  0  0  # atno 6908 bound_to 6896
  151.3661  135.0919  159.9503 H   0  0  0  0  0  0  0  0  0  0  0  0  # atno 6909 bound_to 6896
  145.7231  139.2656  143.1584 H   0  0  0  0  0  0  0  0  0  0  0  0  # atno 7974 bound_to 7965
  156.0539  140.3304  155.7383 H   0  0  0  0  0  0  0  0  0  0  0  0  # atno 8008 bound_to 7997
  155.5558  140.0614  157.2857 H   0  0  0  0  0  0  0  0  0  0  0  0  # atno 8009 bound_to 7997
  154.4449  140.1886  156.0721 H   0  0  0  0  0  0  0  0  0  0  0  0  # atno 8010 bound_to 7997
  139.5363  144.2488  152.0801 H   0  0  0  0  0  0  0  0  0  0  0  0  # atno 10167 bound_to 10162
  156.0959  130.6132  150.9028 H   0  0  0  0  0  0  0  0  0  0  0  0  # atno 10718 bound_to 10713
  153.4460  135.7014  153.6139 H   0  0  0  0  0  0  0  0  0  0  0  0  # atno 10763 bound_to 10752
  153.4493  135.3762  155.2275 H   0  0  0  0  0  0  0  0  0  0  0  0  # atno 10764 bound_to 10752
  154.8728  135.3993  154.3866 H   0  0  0  0  0  0  0  0  0  0  0  0  # atno 10765 bound_to 10752
  140.7613  134.3295  157.5101 H   0  0  0  0  0  0  0  0  0  0  0  0  # atno 11005 bound_to 11000
  146.0607  140.7974  142.9736 LP  0  0  0  0  0  0  0  0  0  0  0  0  # atno 17320 bound_to 7965
  144.6911  140.3192  143.7235 LP  0  0  0  0  0  0  0  0  0  0  0  0  # atno 17321 bound_to 7965
  140.1959  144.4706  150.6455 LP  0  0  0  0  0  0  0  0  0  0  0  0  # atno 17342 bound_to 10162
  140.6571  143.2241  151.5942 LP  0  0  0  0  0  0  0  0  0  0  0  0  # atno 17343 bound_to 10162
  157.6120  131.0935  150.8778 LP  0  0  0  0  0  0  0  0  0  0  0  0  # atno 17370 bound_to 10713
  156.8916  130.5215  149.5286 LP  0  0  0  0  0  0  0  0  0  0  0  0  # atno 17371 bound_to 10713
  139.8770  134.9204  156.3249 LP  0  0  0  0  0  0  0  0  0  0  0  0  # atno 17394 bound_to 11000
  140.9660  133.7357  156.0468 LP  0  0  0  0  0  0  0  0  0  0  0  0  # atno 17395 bound_to 11000

$$$$
