AV-unprocessed.smi:3158|AV-procd|sdf|12044|dock8
  -GOLD-   2272017473D 1   1.00000     0.00000
 Structure written by MMmdl.
 40 40  0  0  0  0  0  0  0  0  2 V2000
  149.1828  139.0546  154.5390 C   0  0  0  0  0  0  0  0  0  0  0  0
  150.6173  138.7532  154.0810 C   0  0  0  0  0  0  0  0  0  0  0  0
  151.2165  137.4882  154.7230 C   0  0  1  0  0  0  0  0  0  0  0  0
  151.4143  137.6554  156.2368 C   0  0  0  0  0  0  0  0  0  0  0  0
  150.3548  136.3362  154.4665 N   0  0  0  0  0  0  0  0  0  0  0  0
  150.4649  135.1309  155.0466 C   0  0  0  0  0  0  0  0  0  0  0  0
  151.3320  134.8532  155.8762 O   0  0  0  0  0  0  0  0  0  0  0  0
  149.4406  134.0727  154.6117 C   0  0  1  0  0  0  0  0  0  0  0  0
  148.7667  133.4557  155.8471 C   0  0  0  0  0  0  0  0  0  0  0  0
  148.4102  134.6362  153.7086 N   0  3  0  0  0  0  0  0  0  0  0  0
  147.5935  133.6375  152.9864 C   0  0  0  0  0  0  0  0  0  0  0  0
  146.2072  134.2035  152.6495 C   0  0  0  0  0  0  0  0  0  0  0  0
  145.5357  133.4106  151.6385 N   0  0  0  0  0  0  0  0  0  0  0  0
  146.0090  132.3095  150.9561 C   0  0  0  0  0  0  0  0  0  0  0  0
  145.0212  131.9046  150.1049 C   0  0  0  0  0  0  0  0  0  0  0  0
  143.9694  132.8334  150.3407 C   0  0  0  0  0  0  0  0  0  0  0  0
  144.2805  133.7338  151.2598 N   0  0  0  0  0  0  0  0  0  0  0  0
  148.7881  139.9299  154.0227 H   0  0  0  0  0  0  0  0  0  0  0  0
  149.1358  139.2558  155.6096 H   0  0  0  0  0  0  0  0  0  0  0  0
  148.5186  138.2167  154.3257 H   0  0  0  0  0  0  0  0  0  0  0  0
  150.6177  138.6380  152.9964 H   0  0  0  0  0  0  0  0  0  0  0  0
  151.2527  139.6141  154.2936 H   0  0  0  0  0  0  0  0  0  0  0  0
  152.1976  137.3244  154.2734 H   0  0  0  0  0  0  0  0  0  0  0  0
  152.0713  138.4975  156.4554 H   0  0  0  0  0  0  0  0  0  0  0  0
  151.8659  136.7653  156.6761 H   0  0  0  0  0  0  0  0  0  0  0  0
  150.4657  137.8333  156.7448 H   0  0  0  0  0  0  0  0  0  0  0  0
  149.6164  136.4697  153.7907 H   0  0  0  0  0  0  0  0  0  0  0  0
  149.9615  133.2764  154.0772 H   0  0  0  0  0  0  0  0  0  0  0  0
  149.4999  133.0045  156.5171 H   0  0  0  0  0  0  0  0  0  0  0  0
  148.0657  132.6719  155.5593 H   0  0  0  0  0  0  0  0  0  0  0  0
  148.2121  134.2032  156.4165 H   0  0  0  0  0  0  0  0  0  0  0  0
  147.7823  135.1986  154.2646 H   0  0  0  0  0  0  0  0  0  0  0  0
  148.0996  133.3393  152.0674 H   0  0  0  0  0  0  0  0  0  0  0  0
  147.4949  132.7435  153.6037 H   0  0  0  0  0  0  0  0  0  0  0  0
  145.5775  134.2360  153.5399 H   0  0  0  0  0  0  0  0  0  0  0  0
  146.2942  135.2277  152.2842 H   0  0  0  0  0  0  0  0  0  0  0  0
  146.9970  131.9091  151.1304 H   0  0  0  0  0  0  0  0  0  0  0  0
  145.0463  131.0721  149.4175 H   0  0  0  0  0  0  0  0  0  0  0  0
  142.9963  132.8794  149.8746 H   0  0  0  0  0  0  0  0  0  0  0  0
  148.8702  135.2340  153.0364 H   0  0  0  0  0  0  0  0  0  0  0  0
  1  2  1  0  0  0  0
  1 18  1  0  0  0  0
  1 19  1  0  0  0  0
  1 20  1  0  0  0  0
  2  3  1  0  0  0  0
  2 21  1  0  0  0  0
  2 22  1  0  0  0  0
  3  4  1  0  0  0  0
  3  5  1  0  0  0  0
  3 23  1  0  0  0  0
  4 24  1  0  0  0  0
  4 25  1  0  0  0  0
  4 26  1  0  0  0  0
  5  6  1  0  0  0  0
  5 27  1  0  0  0  0
  6  7  2  0  0  0  0
  6  8  1  0  0  0  0
  8  9  1  0  0  0  0
  8 10  1  0  0  0  0
  8 28  1  0  0  0  0
  9 29  1  0  0  0  0
  9 30  1  0  0  0  0
  9 31  1  0  0  0  0
 10 11  1  0  0  0  0
 10 32  1  0  0  0  0
 10 40  1  0  0  0  0
 11 12  1  0  0  0  0
 11 33  1  0  0  0  0
 11 34  1  0  0  0  0
 12 13  1  0  0  0  0
 12 35  1  0  0  0  0
 12 36  1  0  0  0  0
 13 17  1  0  0  0  0
 13 14  1  0  0  0  0
 14 15  2  0  0  0  0
 14 37  1  0  0  0  0
 15 16  1  0  0  0  0
 15 38  1  0  0  0  0
 16 17  2  0  0  0  0
 16 39  1  0  0  0  0
M  CHG  1  10   1
M  END
> <s_m_source_file>
AV-unprocessed.smi

> <i_m_source_file_index>
3158

> <i_lp_mmshare_version>
43012

> <i_f3d_flags>
0

> <s_epik_input>
W0NIM11bQ0gyXVtDQEhdKFtDSDNdKVtOSF1DKD1PKVtDQEhdKFtDSDNdKVtOSF1bQ0gyXVtDSDJdbjFbY0hdW2NIXVtjSF1uMQ==

> <s_epik_cmdline>
J2VwaWtfcHl0aG9uJywgJy1waCcsICc3LjAnLCAnLXRuJywgJzgnLCAnLW1hJywgJzIwMCcsICctbWV0YWxfYmluZGluZycsICctaW1hZScsICc8aW5maWxlLm1hZT4nLCAnLW9tYWUnLCAnPG91dGZpbGUubWFlPic=

> <r_lp_tautomer_probability>
1

> <r_epik_Ionization_Penalty>
0.20724

> <r_epik_Ionization_Penalty_Charging>
0.207237

> <r_epik_Ionization_Penalty_Neutral>
3.33806e-06

> <r_epik_State_Penalty>
0.197234

> <r_epik_Charging_Adjusted_Penalty>
0.404471

> <i_epik_Tot_Q>
1

> <i_epik_Tot_abs_Q>
1

> <r_epik_Metal_State_Penalty>
0.197524

> <b_epik_Metal_Only>
0

> <s_lp_Force_Field>
OPLS_2005

> <r_lp_Energy>
5.19885

> <b_lp_Chiralities_Consistent>
1

> <s_lp_Variant>
AV-unprocessed.smi:3158-4

> <Gold.Version>
5.8.1

> <Gold.Id.Protein>
6NUR|6NUR_protein|mol2

> <Gold.PLP.Fitness>
46.2289

> <Gold.PLP.PLP>
-29.7557

> <Gold.PLP.part.hbond>
-3.9476

> <Gold.PLP.part.metal>
0.0000

> <Gold.PLP.part.buried>
-1.9616

> <Gold.PLP.part.nonpolar>
-22.9763

> <Gold.PLP.part.repulsive>
0.2407

> <Gold.PLP.ligand.clash>
0.0000

> <Gold.PLP.ligand.torsion>
0.5654

> <Gold.PLP.Chemscore.Hbond>
3.8164

> <Gold.PLP.Chemscore.CHOScore>
2.0000

> <Gold.PLP.Chemscore.Metal>
0.0000

> <Gold.Chemscore.Hbonds>
donor molecule, donor type, donor heavy atom, donor atom, acceptor molecule, acceptor atom, score
      L1  H     5    27       P1  7948  0.93
      L1  H    10    40       P1  7948  1.89
      P1  H 10752 10765       L1     7  0.80
      L1  C    14    37       P1 10747  1.00
      L1  C    16    39       P1 10186  0.99

> <Gold.PLP.Chemscore.Internal.Correction>
0.1548

> <Gold.Rescore>
     Score         DG    S(hbond)    S(metal)    S(lipo)     H(rot)  DE(clash)    DE(int)     intcor
     13.37     -15.43       2.11        0.00      73.30       2.21       0.34       1.73       ----

> <Gold.Chemscore.Fitness>
13.3683

> <Gold.Chemscore.DG>
-15.4313

> <Gold.Chemscore.ZeroCoef>
-5.4800

> <Gold.Chemscore.Hbond>
2.1080

> <Gold.Chemscore.Metal>
0.0000

> <Gold.Chemscore.Lipo>
73.3036

> <Gold.Chemscore.Internal_Hbond>
0.0000

> <Gold.Chemscore.DEClash>
0.3357

> <Gold.Chemscore.DEInternal>
1.7273

> <Gold.Chemscore.Rot>
2.2132

> <Gold.Chemscore.Internal.Correction>
   9.000000E+99

> <Gold.Chemscore.Hbonds>
donor molecule, donor type, donor heavy atom, donor atom, acceptor molecule, acceptor atom, score
      L1  H     5    27       P1  7948  0.56
      L1  H    10    40       P1  7948  0.40
      P1  H 10752 10765       L1     7  0.23

> <Gold.Chemscore.Hbond.Weighted>
-7.0406

> <Gold.Chemscore.Metal.Weighted>
-0.0000

> <Gold.Chemscore.Lipo.Weighted>
-8.5765

> <Gold.Chemscore.Internal_Hbond.Weighted>
0.0000

> <Gold.Chemscore.DEClash.Weighted>
0.3357

> <Gold.Chemscore.DEInternal.Weighted>
1.7273

> <Gold.Chemscore.Rot.Weighted>
5.6658

> <Gold.Chemscore.Internal.Correction.Weighted>
   9.000000E+99

> <Gold.Protein.RotatedTorsions>
[ 6907 6896 6895 6894 ] final   -8.47 input  -60.11 | X-H torsion
[ 7974 7965 7964 7962 ] final  127.01 input  175.53 | X-H torsion
[ 8008 7997 7996 7995 ] final -122.08 input   59.86 | X-H torsion
[ 10167 10162 10161 10158 ] final  144.97 input  -65.29 | X-H torsion
[ 10718 10713 10712 10709 ] final -173.85 input   66.30 | X-H torsion
[ 10763 10752 10751 10750 ] final -162.23 input  -60.55 | X-H torsion
[ 11005 11000 10999 10996 ] final   88.58 input  -57.11 | X-H torsion

> <Gold.Protein.ActiveResidues>
 VAL166  LYS551  ARG553  GLY616  TRP617  ASP618  TYR619  PRO620  LYS621  CYS622 
 ASP623  PHE694  ASN695  SER759  ASP760  ASP761  ALA762  ILE779  LEU786  VAL792 
 PHE793  MET794  SER795  GLU796  ALA797  LYS798  CYS799  TRP800  GLU811  SER814 

> <Gold.Protein.RotatedAtoms>
  151.4332  135.1012  159.9648 H   0  0  0  0  0  0  0  0  0  0  0  0  # atno 6907 bound_to 6896
  152.4949  133.8598  159.7255 H   0  0  0  0  0  0  0  0  0  0  0  0  # atno 6908 bound_to 6896
  150.9140  133.6903  159.2875 H   0  0  0  0  0  0  0  0  0  0  0  0  # atno 6909 bound_to 6896
  145.0553  139.3849  143.5033 H   0  0  0  0  0  0  0  0  0  0  0  0  # atno 7974 bound_to 7965
  155.1584  140.0405  157.2837 H   0  0  0  0  0  0  0  0  0  0  0  0  # atno 8008 bound_to 7997
  154.6353  140.2534  155.7358 H   0  0  0  0  0  0  0  0  0  0  0  0  # atno 8009 bound_to 7997
  156.2506  140.2867  156.0723 H   0  0  0  0  0  0  0  0  0  0  0  0  # atno 8010 bound_to 7997
  139.4935  144.5934  151.6632 H   0  0  0  0  0  0  0  0  0  0  0  0  # atno 10167 bound_to 10162
  156.7764  130.9467  151.3120 H   0  0  0  0  0  0  0  0  0  0  0  0  # atno 10718 bound_to 10713
  154.7233  135.3030  154.9012 H   0  0  0  0  0  0  0  0  0  0  0  0  # atno 10763 bound_to 10752
  153.9877  135.6722  153.4757 H   0  0  0  0  0  0  0  0  0  0  0  0  # atno 10764 bound_to 10752
  153.0853  135.4987  154.8502 H   0  0  0  0  0  0  0  0  0  0  0  0  # atno 10765 bound_to 10752
  139.8893  134.8497  156.3020 H   0  0  0  0  0  0  0  0  0  0  0  0  # atno 11005 bound_to 11000
  146.3521  140.0224  142.8657 LP  0  0  0  0  0  0  0  0  0  0  0  0  # atno 17320 bound_to 7965
  145.1476  140.9605  143.4452 LP  0  0  0  0  0  0  0  0  0  0  0  0  # atno 17321 bound_to 7965
  140.5567  144.0337  150.6151 LP  0  0  0  0  0  0  0  0  0  0  0  0  # atno 17342 bound_to 10162
  140.3409  143.3020  152.0589 LP  0  0  0  0  0  0  0  0  0  0  0  0  # atno 17343 bound_to 10162
  157.6667  130.9014  149.9948 LP  0  0  0  0  0  0  0  0  0  0  0  0  # atno 17370 bound_to 10713
  156.1246  130.3645  149.9831 LP  0  0  0  0  0  0  0  0  0  0  0  0  # atno 17371 bound_to 10713
  140.9907  133.7210  156.0809 LP  0  0  0  0  0  0  0  0  0  0  0  0  # atno 17394 bound_to 11000
  140.7629  134.3919  157.5522 LP  0  0  0  0  0  0  0  0  0  0  0  0  # atno 17395 bound_to 11000

$$$$
