AV-unprocessed.smi:193|AV-procd|sdf|1497|dock2
  -GOLD-   2262019323D 1   1.00000     0.00000
 Structure written by MMmdl.
 62 66  0  0  0  0  0  0  0  0  2 V2000
  150.5037  132.7411  155.6244 C   0  0  0  0  0  0  0  0  0  0  0  0
  149.6033  133.9479  155.3173 C   0  0  1  0  0  0  0  0  0  0  0  0
  150.4329  135.1176  154.7520 C   0  0  0  0  0  0  0  0  0  0  0  0
  149.8338  136.4165  155.0692 N   0  0  0  0  0  0  0  0  0  0  0  0
  150.6880  137.4542  155.2524 C   0  0  0  0  0  0  0  0  0  0  0  0
  152.0181  137.2874  155.0238 N   0  0  0  0  0  0  0  0  0  0  0  0
  152.8622  138.3105  155.1897 C   0  0  0  0  0  0  0  0  0  0  0  0
  152.5931  139.5616  155.5682 N   0  0  0  0  0  0  0  0  0  0  0  0
  151.2597  139.7343  155.7963 C   0  0  0  0  0  0  0  0  0  0  0  0
  150.2476  138.7430  155.6627 C   0  0  0  0  0  0  0  0  0  0  0  0
  149.0082  139.2827  155.9846 N   0  0  0  0  0  0  0  0  0  0  0  0
  149.2720  140.5253  156.2848 C   0  0  0  0  0  0  0  0  0  0  0  0
  150.5982  140.8832  156.1936 N   0  0  0  0  0  0  0  0  0  0  0  0
  151.1668  142.1940  156.4693 C   0  0  0  0  0  0  0  0  0  0  0  0
  151.3369  142.4996  157.9780 C   0  0  0  0  0  0  0  0  0  0  0  0
  150.0638  142.3742  158.5883 O   0  0  0  0  0  0  0  0  0  0  0  0
  152.2910  141.4787  158.6301 C   0  0  0  0  0  0  0  0  0  0  0  0
  152.6208  141.8423  160.0888 C   0  0  0  0  0  0  0  0  0  0  0  0
  153.1534  143.1595  160.1526 O   0  0  0  0  0  0  0  0  0  0  0  0
  152.2268  144.1483  159.7198 C   0  0  0  0  0  0  0  0  0  0  0  0
  151.8669  143.9264  158.2399 C   0  0  0  0  0  0  0  0  0  0  0  0
  148.5807  136.8107  154.4286 C   0  0  0  0  0  0  0  0  0  0  0  0
  147.4466  135.7919  154.6132 C   0  0  0  0  0  0  0  0  0  0  0  0
  147.6727  134.6035  153.7572 N   0  3  2  0  0  0  0  0  0  0  0  0
  146.4225  134.1074  153.1395 C   0  0  2  0  0  0  0  0  0  0  0  0
  146.6435  133.0310  152.1023 C   0  0  0  0  0  0  0  0  0  0  0  0
  146.2966  134.4394  151.6691 C   0  0  1  0  0  0  0  0  0  0  0  0
  144.9440  134.7384  151.0614 C   0  0  0  0  0  0  0  0  0  0  0  0
  148.4388  133.5047  154.4007 C   0  0  0  0  0  0  0  0  0  0  0  0
  150.9879  132.3659  154.7221 H   0  0  0  0  0  0  0  0  0  0  0  0
  149.9295  131.9229  156.0599 H   0  0  0  0  0  0  0  0  0  0  0  0
  151.2870  133.0038  156.3363 H   0  0  0  0  0  0  0  0  0  0  0  0
  149.1892  134.2645  156.2760 H   0  0  0  0  0  0  0  0  0  0  0  0
  151.4290  135.0759  155.1957 H   0  0  0  0  0  0  0  0  0  0  0  0
  150.5695  135.0155  153.6746 H   0  0  0  0  0  0  0  0  0  0  0  0
  153.9017  138.0968  154.9897 H   0  0  0  0  0  0  0  0  0  0  0  0
  148.5011  141.2228  156.5796 H   0  0  0  0  0  0  0  0  0  0  0  0
  152.1285  142.2622  155.9583 H   0  0  0  0  0  0  0  0  0  0  0  0
  150.5257  142.9450  156.0059 H   0  0  0  0  0  0  0  0  0  0  0  0
  149.4144  142.2760  157.9088 H   0  0  0  0  0  0  0  0  0  0  0  0
  151.8689  140.4741  158.5809 H   0  0  0  0  0  0  0  0  0  0  0  0
  153.2237  141.4452  158.0654 H   0  0  0  0  0  0  0  0  0  0  0  0
  151.7374  141.7632  160.7240 H   0  0  0  0  0  0  0  0  0  0  0  0
  153.3581  141.1458  160.4883 H   0  0  0  0  0  0  0  0  0  0  0  0
  151.3356  144.1272  160.3488 H   0  0  0  0  0  0  0  0  0  0  0  0
  152.6791  145.1319  159.8481 H   0  0  0  0  0  0  0  0  0  0  0  0
  152.7616  144.0923  157.6384 H   0  0  0  0  0  0  0  0  0  0  0  0
  151.1415  144.6768  157.9234 H   0  0  0  0  0  0  0  0  0  0  0  0
  148.2431  137.7644  154.8346 H   0  0  0  0  0  0  0  0  0  0  0  0
  148.7609  136.9831  153.3666 H   0  0  0  0  0  0  0  0  0  0  0  0
  147.2974  135.5197  155.6588 H   0  0  0  0  0  0  0  0  0  0  0  0
  146.5235  136.2828  154.3011 H   0  0  0  0  0  0  0  0  0  0  0  0
  145.5431  134.0832  153.7810 H   0  0  0  0  0  0  0  0  0  0  0  0
  147.6603  132.6884  151.9193 H   0  0  0  0  0  0  0  0  0  0  0  0
  145.8734  132.2690  152.0015 H   0  0  0  0  0  0  0  0  0  0  0  0
  147.1085  135.0139  151.2255 H   0  0  0  0  0  0  0  0  0  0  0  0
  144.1659  134.1377  151.5335 H   0  0  0  0  0  0  0  0  0  0  0  0
  144.9554  134.5164  149.9943 H   0  0  0  0  0  0  0  0  0  0  0  0
  144.6985  135.7920  151.1958 H   0  0  0  0  0  0  0  0  0  0  0  0
  148.8223  132.8677  153.6027 H   0  0  0  0  0  0  0  0  0  0  0  0
  147.7554  132.8857  154.9844 H   0  0  0  0  0  0  0  0  0  0  0  0
  148.2434  134.9336  152.9920 H   0  0  0  0  0  0  0  0  0  0  0  0
  1  2  1  0  0  0  0
  1 30  1  0  0  0  0
  1 31  1  0  0  0  0
  1 32  1  0  0  0  0
  2 29  1  0  0  0  0
  2  3  1  0  0  0  0
  2 33  1  0  0  0  0
  3  4  1  0  0  0  0
  3 34  1  0  0  0  0
  3 35  1  0  0  0  0
  4  5  1  0  0  0  0
  4 22  1  0  0  0  0
  5 10  1  0  0  0  0
  5  6  2  0  0  0  0
  6  7  1  0  0  0  0
  7  8  2  0  0  0  0
  7 36  1  0  0  0  0
  8  9  1  0  0  0  0
  9 13  1  0  0  0  0
  9 10  2  0  0  0  0
 10 11  1  0  0  0  0
 11 12  2  0  0  0  0
 12 13  1  0  0  0  0
 12 37  1  0  0  0  0
 13 14  1  0  0  0  0
 14 15  1  0  0  0  0
 14 38  1  0  0  0  0
 14 39  1  0  0  0  0
 15 21  1  0  0  0  0
 15 16  1  0  0  0  0
 15 17  1  0  0  0  0
 16 40  1  0  0  0  0
 17 18  1  0  0  0  0
 17 41  1  0  0  0  0
 17 42  1  0  0  0  0
 18 19  1  0  0  0  0
 18 43  1  0  0  0  0
 18 44  1  0  0  0  0
 19 20  1  0  0  0  0
 20 21  1  0  0  0  0
 20 45  1  0  0  0  0
 20 46  1  0  0  0  0
 21 47  1  0  0  0  0
 21 48  1  0  0  0  0
 22 23  1  0  0  0  0
 22 49  1  0  0  0  0
 22 50  1  0  0  0  0
 23 24  1  0  0  0  0
 23 51  1  0  0  0  0
 23 52  1  0  0  0  0
 24 25  1  0  0  0  0
 24 29  1  0  0  0  0
 24 62  1  0  0  0  0
 25 27  1  0  0  0  0
 25 26  1  0  0  0  0
 25 53  1  0  0  0  0
 26 27  1  0  0  0  0
 26 54  1  0  0  0  0
 26 55  1  0  0  0  0
 27 28  1  0  0  0  0
 27 56  1  0  0  0  0
 28 57  1  0  0  0  0
 28 58  1  0  0  0  0
 28 59  1  0  0  0  0
 29 60  1  0  0  0  0
 29 61  1  0  0  0  0
M  CHG  1  24   1
M  END
> <s_m_source_file>
AV-unprocessed.smi

> <i_m_source_file_index>
193

> <i_lp_mmshare_version>
43012

> <i_f3d_flags>
0

> <s_epik_input>
W0NIM11bQ0BASF0xW0NIMl1bQ0BIXTFOKFtDSDJdMilbQ0gyXVtDSDJdTihbQ0gyXVtDQEhdMltDSDNdKWMobltjSF1uMyljKGMzNCluW2NIXW40W0NIMl1DNShbT0hdKVtDSDJdW0NIMl1PW0NIMl1bQ0gyXTU=

> <s_epik_cmdline>
J2VwaWtfcHl0aG9uJywgJy1waCcsICc3LjAnLCAnLXRuJywgJzgnLCAnLW1hJywgJzIwMCcsICctbWV0YWxfYmluZGluZycsICctaW1hZScsICc8aW5maWxlLm1hZT4nLCAnLW9tYWUnLCAnPG91dGZpbGUubWFlPic=

> <r_lp_tautomer_probability>
1

> <r_epik_Ionization_Penalty>
0.0540825

> <r_epik_Ionization_Penalty_Charging>
0.0538476

> <r_epik_Ionization_Penalty_Neutral>
0.000234891

> <r_epik_State_Penalty>
0.0200719

> <r_epik_Charging_Adjusted_Penalty>
0.0739194

> <i_epik_Tot_Q>
1

> <i_epik_Tot_abs_Q>
1

> <r_epik_Metal_State_Penalty>
0.0199414

> <b_epik_Metal_Only>
0

> <s_lp_Force_Field>
OPLS_2005

> <r_lp_Energy>
54.7229

> <b_lp_Chiralities_Consistent>
1

> <s_lp_Variant>
AV-unprocessed.smi:193-2

> <Gold.Version>
5.8.1

> <Gold.Id.Protein>
6NUR|6NUR_protein|mol2

> <Gold.PLP.Fitness>
57.5632

> <Gold.PLP.PLP>
-46.7479

> <Gold.PLP.part.hbond>
-3.1261

> <Gold.PLP.part.metal>
0.0000

> <Gold.PLP.part.buried>
-4.2819

> <Gold.PLP.part.nonpolar>
-41.0644

> <Gold.PLP.part.repulsive>
0.2438

> <Gold.PLP.ligand.clash>
0.0000

> <Gold.PLP.ligand.torsion>
1.2707

> <Gold.PLP.Chemscore.Hbond>
3.8300

> <Gold.PLP.Chemscore.CHOScore>
0.0000

> <Gold.PLP.Chemscore.Metal>
0.0000

> <Gold.Chemscore.Hbonds>
donor molecule, donor type, donor heavy atom, donor atom, acceptor molecule, acceptor atom, score
      L1  H    24    62       P1  7948  2.00
      P1  H  7997  8010       L1     8  1.00
      P1  H 10752 10764       L1     6  0.86

> <Gold.PLP.Chemscore.Internal.Correction>
1.8668

> <Gold.Rescore>
     Score         DG    S(hbond)    S(metal)    S(lipo)     H(rot)  DE(clash)    DE(int)     intcor
     15.14     -19.39       2.06        0.00     108.10       2.20       1.64       2.60       ----

> <Gold.Chemscore.Fitness>
15.1445

> <Gold.Chemscore.DG>
-19.3859

> <Gold.Chemscore.ZeroCoef>
-5.4800

> <Gold.Chemscore.Hbond>
2.0641

> <Gold.Chemscore.Metal>
0.0000

> <Gold.Chemscore.Lipo>
108.1049

> <Gold.Chemscore.Internal_Hbond>
0.0000

> <Gold.Chemscore.DEClash>
1.6391

> <Gold.Chemscore.DEInternal>
2.6024

> <Gold.Chemscore.Rot>
2.2018

> <Gold.Chemscore.Internal.Correction>
   9.000000E+99

> <Gold.Chemscore.Hbonds>
donor molecule, donor type, donor heavy atom, donor atom, acceptor molecule, acceptor atom, score
      L1  H    24    62       P1  7948  0.84
      P1  H  7997  8010       L1     8  0.25
      P1  H 10752 10764       L1     6  0.68

> <Gold.Chemscore.Hbond.Weighted>
-6.8942

> <Gold.Chemscore.Metal.Weighted>
-0.0000

> <Gold.Chemscore.Lipo.Weighted>
-12.6483

> <Gold.Chemscore.Internal_Hbond.Weighted>
0.0000

> <Gold.Chemscore.DEClash.Weighted>
1.6391

> <Gold.Chemscore.DEInternal.Weighted>
2.6024

> <Gold.Chemscore.Rot.Weighted>
5.6366

> <Gold.Chemscore.Internal.Correction.Weighted>
   9.000000E+99

> <Gold.Protein.RotatedTorsions>
[ 6907 6896 6895 6894 ] final  123.54 input  -60.11 | X-H torsion
[ 7974 7965 7964 7962 ] final   -0.12 input  175.53 | X-H torsion
[ 8008 7997 7996 7995 ] final   96.71 input   59.86 | X-H torsion
[ 10167 10162 10161 10158 ] final   99.51 input  -65.29 | X-H torsion
[ 10718 10713 10712 10709 ] final  119.05 input   66.30 | X-H torsion
[ 10763 10752 10751 10750 ] final  -69.53 input  -60.55 | X-H torsion
[ 11005 11000 10999 10996 ] final -113.19 input  -57.11 | X-H torsion

> <Gold.Protein.ActiveResidues>
 VAL166  LYS551  ARG553  GLY616  TRP617  ASP618  TYR619  PRO620  LYS621  CYS622 
 ASP623  PHE694  ASN695  SER759  ASP760  ASP761  ALA762  ILE779  LEU786  VAL792 
 PHE793  MET794  SER795  GLU796  ALA797  LYS798  CYS799  TRP800  GLU811  SER814 

> <Gold.Protein.RotatedAtoms>
  152.4153  133.7029  159.6433 H   0  0  0  0  0  0  0  0  0  0  0  0  # atno 6907 bound_to 6896
  150.8031  133.8550  159.3225 H   0  0  0  0  0  0  0  0  0  0  0  0  # atno 6908 bound_to 6896
  151.6282  135.1027  160.0167 H   0  0  0  0  0  0  0  0  0  0  0  0  # atno 6909 bound_to 6896
  146.2430  140.1221  142.8340 H   0  0  0  0  0  0  0  0  0  0  0  0  # atno 7974 bound_to 7965
  156.0824  140.3269  155.7711 H   0  0  0  0  0  0  0  0  0  0  0  0  # atno 8008 bound_to 7997
  155.5130  140.0578  157.2937 H   0  0  0  0  0  0  0  0  0  0  0  0  # atno 8009 bound_to 7997
  154.4590  140.1957  156.0315 H   0  0  0  0  0  0  0  0  0  0  0  0  # atno 8010 bound_to 7997
  139.7611  144.6954  151.0292 H   0  0  0  0  0  0  0  0  0  0  0  0  # atno 10167 bound_to 10162
  157.5988  131.1054  150.7841 H   0  0  0  0  0  0  0  0  0  0  0  0  # atno 10718 bound_to 10713
  154.4048  135.6022  153.5918 H   0  0  0  0  0  0  0  0  0  0  0  0  # atno 10763 bound_to 10752
  152.9789  135.5915  154.4141 H   0  0  0  0  0  0  0  0  0  0  0  0  # atno 10764 bound_to 10752
  154.3945  135.2842  155.2113 H   0  0  0  0  0  0  0  0  0  0  0  0  # atno 10765 bound_to 10752
  141.0629  133.9505  157.2632 H   0  0  0  0  0  0  0  0  0  0  0  0  # atno 11005 bound_to 11000
  145.0397  140.8936  143.5060 LP  0  0  0  0  0  0  0  0  0  0  0  0  # atno 17320 bound_to 7965
  145.1300  139.2638  143.5544 LP  0  0  0  0  0  0  0  0  0  0  0  0  # atno 17321 bound_to 7965
  140.7807  143.4696  151.0164 LP  0  0  0  0  0  0  0  0  0  0  0  0  # atno 17342 bound_to 10162
  139.8382  143.7599  152.3180 LP  0  0  0  0  0  0  0  0  0  0  0  0  # atno 17343 bound_to 10162
  156.8245  130.4995  149.5339 LP  0  0  0  0  0  0  0  0  0  0  0  0  # atno 17370 bound_to 10713
  156.1057  130.6002  150.9967 LP  0  0  0  0  0  0  0  0  0  0  0  0  # atno 17371 bound_to 10713
  139.9450  135.0185  156.8823 LP  0  0  0  0  0  0  0  0  0  0  0  0  # atno 17394 bound_to 11000
  140.5831  134.0333  155.7471 LP  0  0  0  0  0  0  0  0  0  0  0  0  # atno 17395 bound_to 11000

$$$$
