AV-unprocessed.smi:2773|AV-procd|sdf|10678|dock2
  -GOLD-   2272015123D 1   1.00000     0.00000
 Structure written by MMmdl.
 30 31  0  0  0  0  0  0  0  0  1 V2000
  146.8081  142.4096  154.1903 C   0  0  0  0  0  0  0  0  0  0  0  0
  147.8064  141.3434  153.7838 C   0  0  2  0  0  0  0  0  0  0  0  0
  148.1852  140.2426  154.7387 C   0  0  0  0  0  0  0  0  0  0  0  0
  149.2097  141.2899  154.3596 C   0  0  2  0  0  0  0  0  0  0  0  0
  149.5846  142.2303  155.3741 N   0  0  0  0  0  0  0  0  0  0  0  0
  150.2962  142.0019  156.4926 C   0  0  0  0  0  0  0  0  0  0  0  0
  150.6905  140.8710  156.7722 O   0  0  0  0  0  0  0  0  0  0  0  0
  150.4903  143.0934  157.2602 N   0  0  0  0  0  0  0  0  0  0  0  0
  151.1991  143.1948  158.4862 C   0  0  0  0  0  0  0  0  0  0  0  0
  150.9394  144.3652  159.2327 C   0  0  0  0  0  0  0  0  0  0  0  0
  151.5940  144.5601  160.4636 C   0  0  0  0  0  0  0  0  0  0  0  0
  152.4934  143.5795  160.9179 C   0  0  0  0  0  0  0  0  0  0  0  0
  152.7003  142.4380  160.1143 C   0  0  0  0  0  0  0  0  0  0  0  0
  153.6581  141.3308  160.5311 C   0  0  0  0  0  0  0  0  0  0  0  0
  153.9923  141.4264  161.8188 F   0  0  0  0  0  0  0  0  0  0  0  0
  153.0870  140.1427  160.3321 F   0  0  0  0  0  0  0  0  0  0  0  0
  154.7714  141.4008  159.8009 F   0  0  0  0  0  0  0  0  0  0  0  0
  152.0686  142.2555  158.9325 N   0  0  0  0  0  0  0  0  0  0  0  0
  146.8596  142.6116  155.2605 H   0  0  0  0  0  0  0  0  0  0  0  0
  145.7963  142.0824  153.9507 H   0  0  0  0  0  0  0  0  0  0  0  0
  147.0105  143.3353  153.6510 H   0  0  0  0  0  0  0  0  0  0  0  0
  147.7245  141.0590  152.7366 H   0  0  0  0  0  0  0  0  0  0  0  0
  147.7692  140.2784  155.7440 H   0  0  0  0  0  0  0  0  0  0  0  0
  148.3123  139.2438  154.3261 H   0  0  0  0  0  0  0  0  0  0  0  0
  149.9934  140.9340  153.6925 H   0  0  0  0  0  0  0  0  0  0  0  0
  149.2178  143.1643  155.2603 H   0  0  0  0  0  0  0  0  0  0  0  0
  150.0887  143.9540  156.9186 H   0  0  0  0  0  0  0  0  0  0  0  0
  150.2456  145.1096  158.8695 H   0  0  0  0  0  0  0  0  0  0  0  0
  151.4088  145.4483  161.0492 H   0  0  0  0  0  0  0  0  0  0  0  0
  153.0073  143.7080  161.8590 H   0  0  0  0  0  0  0  0  0  0  0  0
  1  2  1  0  0  0  0
  1 19  1  0  0  0  0
  1 20  1  0  0  0  0
  1 21  1  0  0  0  0
  2  4  1  0  0  0  0
  2  3  1  0  0  0  0
  2 22  1  0  0  0  0
  3  4  1  0  0  0  0
  3 23  1  0  0  0  0
  3 24  1  0  0  0  0
  4  5  1  0  0  0  0
  4 25  1  0  0  0  0
  5  6  1  0  0  0  0
  5 26  1  0  0  0  0
  6  7  2  0  0  0  0
  6  8  1  0  0  0  0
  8  9  1  0  0  0  0
  8 27  1  0  0  0  0
  9 18  1  0  0  0  0
  9 10  2  0  0  0  0
 10 11  1  0  0  0  0
 10 28  1  0  0  0  0
 11 12  2  0  0  0  0
 11 29  1  0  0  0  0
 12 13  1  0  0  0  0
 12 30  1  0  0  0  0
 13 14  1  0  0  0  0
 13 18  2  0  0  0  0
 14 15  1  0  0  0  0
 14 16  1  0  0  0  0
 14 17  1  0  0  0  0
M  END
> <s_m_source_file>
AV-unprocessed.smi

> <i_m_source_file_index>
2773

> <i_lp_mmshare_version>
43012

> <i_f3d_flags>
0

> <s_epik_input>
W0NIM11bQ0BASF0xW0NIMl1bQ0BIXTFbTkhdQyg9TylbTkhdYzJbY0hdW2NIXVtjSF1jKG4yKUMoRikoRilG

> <s_epik_cmdline>
J2VwaWtfcHl0aG9uJywgJy1waCcsICc3LjAnLCAnLXRuJywgJzgnLCAnLW1hJywgJzIwMCcsICctbWV0YWxfYmluZGluZycsICctaW1hZScsICc8aW5maWxlLm1hZT4nLCAnLW9tYWUnLCAnPG91dGZpbGUubWFlPic=

> <r_lp_tautomer_probability>
1

> <r_epik_Ionization_Penalty>
4.04275e-05

> <r_epik_Ionization_Penalty_Charging>
0

> <r_epik_Ionization_Penalty_Neutral>
4.04275e-05

> <r_epik_State_Penalty>
-0

> <r_epik_Charging_Adjusted_Penalty>
0

> <i_epik_Tot_Q>
0

> <i_epik_Tot_abs_Q>
0

> <r_epik_Metal_State_Penalty>
-0

> <b_epik_Metal_Only>
0

> <s_lp_Force_Field>
OPLS_2005

> <r_lp_Energy>
32.9292

> <b_lp_Chiralities_Consistent>
1

> <s_lp_Variant>
AV-unprocessed.smi:2773-3

> <Gold.Version>
5.8.1

> <Gold.Id.Protein>
6NUR|6NUR_protein|mol2

> <Gold.PLP.Fitness>
47.2171

> <Gold.PLP.PLP>
-42.9109

> <Gold.PLP.part.hbond>
-2.0000

> <Gold.PLP.part.metal>
0.0000

> <Gold.PLP.part.buried>
-4.7293

> <Gold.PLP.part.nonpolar>
-36.1166

> <Gold.PLP.part.repulsive>
0.2267

> <Gold.PLP.ligand.clash>
0.0000

> <Gold.PLP.ligand.torsion>
0.7581

> <Gold.PLP.Chemscore.Hbond>
1.9280

> <Gold.PLP.Chemscore.CHOScore>
0.0000

> <Gold.PLP.Chemscore.Metal>
0.0000

> <Gold.Chemscore.Hbonds>
donor molecule, donor type, donor heavy atom, donor atom, acceptor molecule, acceptor atom, score
      L1  H     5    26       P1  8028  1.00
      L1  H     8    27       P1  8028  0.93

> <Gold.PLP.Chemscore.Internal.Correction>
0.0383

> <Gold.Rescore>
     Score         DG    S(hbond)    S(metal)    S(lipo)     H(rot)  DE(clash)    DE(int)     intcor
     17.14     -19.15       1.93        0.00      83.52       1.00       0.14       1.87       ----

> <Gold.Chemscore.Fitness>
17.1422

> <Gold.Chemscore.DG>
-19.1519

> <Gold.Chemscore.ZeroCoef>
-5.4800

> <Gold.Chemscore.Hbond>
1.9341

> <Gold.Chemscore.Metal>
0.0000

> <Gold.Chemscore.Lipo>
83.5201

> <Gold.Chemscore.Internal_Hbond>
0.0000

> <Gold.Chemscore.DEClash>
0.1374

> <Gold.Chemscore.DEInternal>
1.8723

> <Gold.Chemscore.Rot>
1.0000

> <Gold.Chemscore.Internal.Correction>
   9.000000E+99

> <Gold.Chemscore.Hbonds>
donor molecule, donor type, donor heavy atom, donor atom, acceptor molecule, acceptor atom, score
      L1  H     5    26       P1  8028  0.99
      L1  H     8    27       P1  8028  0.87

> <Gold.Chemscore.Hbond.Weighted>
-6.4600

> <Gold.Chemscore.Metal.Weighted>
-0.0000

> <Gold.Chemscore.Lipo.Weighted>
-9.7718

> <Gold.Chemscore.Internal_Hbond.Weighted>
0.0000

> <Gold.Chemscore.DEClash.Weighted>
0.1374

> <Gold.Chemscore.DEInternal.Weighted>
1.8723

> <Gold.Chemscore.Rot.Weighted>
2.5600

> <Gold.Chemscore.Internal.Correction.Weighted>
   9.000000E+99

> <Gold.Protein.RotatedTorsions>
[ 6907 6896 6895 6894 ] final -106.27 input  -60.11 | X-H torsion
[ 7974 7965 7964 7962 ] final -128.24 input  175.53 | X-H torsion
[ 8008 7997 7996 7995 ] final   17.65 input   59.86 | X-H torsion
[ 10167 10162 10161 10158 ] final  -45.13 input  -65.29 | X-H torsion
[ 10718 10713 10712 10709 ] final -121.49 input   66.30 | X-H torsion
[ 10763 10752 10751 10750 ] final  100.56 input  -60.55 | X-H torsion
[ 11005 11000 10999 10996 ] final -136.59 input  -57.11 | X-H torsion

> <Gold.Protein.ActiveResidues>
 VAL166  LYS551  ARG553  GLY616  TRP617  ASP618  TYR619  PRO620  LYS621  CYS622 
 ASP623  PHE694  ASN695  SER759  ASP760  ASP761  ALA762  ILE779  LEU786  VAL792 
 PHE793  MET794  SER795  GLU796  ALA797  LYS798  CYS799  TRP800  GLU811  SER814 

> <Gold.Protein.RotatedAtoms>
  150.7380  134.0001  159.3635 H   0  0  0  0  0  0  0  0  0  0  0  0  # atno 6907 bound_to 6896
  151.7955  135.0721  160.0402 H   0  0  0  0  0  0  0  0  0  0  0  0  # atno 6908 bound_to 6896
  152.3178  133.5784  159.5760 H   0  0  0  0  0  0  0  0  0  0  0  0  # atno 6909 bound_to 6896
  144.9690  140.7526  143.4682 H   0  0  0  0  0  0  0  0  0  0  0  0  # atno 7974 bound_to 7965
  154.8946  140.2992  155.5351 H   0  0  0  0  0  0  0  0  0  0  0  0  # atno 8008 bound_to 7997
  156.3020  140.2418  156.3900 H   0  0  0  0  0  0  0  0  0  0  0  0  # atno 8009 bound_to 7997
  154.8584  140.0406  157.1638 H   0  0  0  0  0  0  0  0  0  0  0  0  # atno 8010 bound_to 7997
  140.6870  143.2895  151.3594 H   0  0  0  0  0  0  0  0  0  0  0  0  # atno 10167 bound_to 10162
  156.1341  130.6417  150.9668 H   0  0  0  0  0  0  0  0  0  0  0  0  # atno 10718 bound_to 10713
  153.3155  135.4075  155.1372 H   0  0  0  0  0  0  0  0  0  0  0  0  # atno 10763 bound_to 10752
  154.8587  135.3575  154.5666 H   0  0  0  0  0  0  0  0  0  0  0  0  # atno 10764 bound_to 10752
  153.6097  135.7068  153.5410 H   0  0  0  0  0  0  0  0  0  0  0  0  # atno 10765 bound_to 10752
  140.8791  134.1955  157.4603 H   0  0  0  0  0  0  0  0  0  0  0  0  # atno 11005 bound_to 11000
  145.2587  139.2001  143.4904 LP  0  0  0  0  0  0  0  0  0  0  0  0  # atno 17320 bound_to 7965
  146.3376  140.2513  142.8598 LP  0  0  0  0  0  0  0  0  0  0  0  0  # atno 17321 bound_to 7965
  139.6237  144.0856  152.2415 LP  0  0  0  0  0  0  0  0  0  0  0  0  # atno 17342 bound_to 10162
  140.0308  144.6082  150.7489 LP  0  0  0  0  0  0  0  0  0  0  0  0  # atno 17343 bound_to 10162
  157.6516  131.0896  150.8038 LP  0  0  0  0  0  0  0  0  0  0  0  0  # atno 17370 bound_to 10713
  156.8120  130.4955  149.5354 LP  0  0  0  0  0  0  0  0  0  0  0  0  # atno 17371 bound_to 10713
  139.8718  134.9809  156.5094 LP  0  0  0  0  0  0  0  0  0  0  0  0  # atno 17394 bound_to 11000
  140.8483  133.8152  155.9143 LP  0  0  0  0  0  0  0  0  0  0  0  0  # atno 17395 bound_to 11000

$$$$
