AV-unprocessed.smi:1561|AV-procd|sdf|6285|dock1
  -GOLD-   22720 6483D 1   1.00000     0.00000
 Structure written by MMmdl.
 33 34  0  0  0  0  0  0  0  0  1 V2000
  149.0468  138.0980  155.1054 C   0  0  0  0  0  0  0  0  0  0  0  0
  149.5242  139.4910  154.6455 C   0  0  2  0  0  0  0  0  0  0  0  0
  150.7600  139.9842  155.4143 C   0  0  0  0  0  0  0  0  0  0  0  0
  151.8334  140.1634  154.8376 O   0  0  0  0  0  0  0  0  0  0  0  0
  150.5942  140.1807  156.7315 N   0  0  0  0  0  0  0  0  0  0  0  0
  151.6541  140.5345  157.6681 C   0  0  0  0  0  0  0  0  0  0  0  0
  151.3331  141.8403  158.4206 C   0  0  1  0  0  0  0  0  0  0  0  0
  152.3902  142.2463  159.4410 C   0  0  0  0  0  0  0  0  0  0  0  0
  152.4744  143.7717  159.3156 C   0  0  0  0  0  0  0  0  0  0  0  0
  151.4111  144.1412  158.4490 O   0  0  0  0  0  0  0  0  0  0  0  0
  151.2271  143.0783  157.5309 C   0  0  0  0  0  0  0  0  0  0  0  0
  148.4650  140.4921  154.7146 N   0  0  0  0  0  0  0  0  0  0  0  0
  147.9363  141.2389  153.6809 C   0  0  0  0  0  0  0  0  0  0  0  0
  147.0082  142.0845  154.2169 C   0  0  0  0  0  0  0  0  0  0  0  0
  147.0464  141.7897  155.6077 C   0  0  0  0  0  0  0  0  0  0  0  0
  147.9235  140.8451  155.9039 N   0  0  0  0  0  0  0  0  0  0  0  0
  149.8349  137.3540  154.9851 H   0  0  0  0  0  0  0  0  0  0  0  0
  148.1927  137.7663  154.5141 H   0  0  0  0  0  0  0  0  0  0  0  0
  148.7445  138.0914  156.1534 H   0  0  0  0  0  0  0  0  0  0  0  0
  149.8108  139.4005  153.5964 H   0  0  0  0  0  0  0  0  0  0  0  0
  149.6775  140.0182  157.1222 H   0  0  0  0  0  0  0  0  0  0  0  0
  151.8201  139.7194  158.3744 H   0  0  0  0  0  0  0  0  0  0  0  0
  152.5792  140.6459  157.1018 H   0  0  0  0  0  0  0  0  0  0  0  0
  150.3850  141.7286  158.9497 H   0  0  0  0  0  0  0  0  0  0  0  0
  152.0993  141.9379  160.4459 H   0  0  0  0  0  0  0  0  0  0  0  0
  153.3608  141.7975  159.2248 H   0  0  0  0  0  0  0  0  0  0  0  0
  152.3861  144.2767  160.2777 H   0  0  0  0  0  0  0  0  0  0  0  0
  153.4228  144.0660  158.8637 H   0  0  0  0  0  0  0  0  0  0  0  0
  152.0197  143.0995  156.7810 H   0  0  0  0  0  0  0  0  0  0  0  0
  150.2656  143.1507  157.0211 H   0  0  0  0  0  0  0  0  0  0  0  0
  148.2635  141.1094  152.6597 H   0  0  0  0  0  0  0  0  0  0  0  0
  146.3991  142.8081  153.6959 H   0  0  0  0  0  0  0  0  0  0  0  0
  146.4711  142.2346  156.4061 H   0  0  0  0  0  0  0  0  0  0  0  0
  1  2  1  0  0  0  0
  1 17  1  0  0  0  0
  1 18  1  0  0  0  0
  1 19  1  0  0  0  0
  2  3  1  0  0  0  0
  2 12  1  0  0  0  0
  2 20  1  0  0  0  0
  3  4  2  0  0  0  0
  3  5  1  0  0  0  0
  5  6  1  0  0  0  0
  5 21  1  0  0  0  0
  6  7  1  0  0  0  0
  6 22  1  0  0  0  0
  6 23  1  0  0  0  0
  7 11  1  0  0  0  0
  7  8  1  0  0  0  0
  7 24  1  0  0  0  0
  8  9  1  0  0  0  0
  8 25  1  0  0  0  0
  8 26  1  0  0  0  0
  9 10  1  0  0  0  0
  9 27  1  0  0  0  0
  9 28  1  0  0  0  0
 10 11  1  0  0  0  0
 11 29  1  0  0  0  0
 11 30  1  0  0  0  0
 12 16  1  0  0  0  0
 12 13  1  0  0  0  0
 13 14  2  0  0  0  0
 13 31  1  0  0  0  0
 14 15  1  0  0  0  0
 14 32  1  0  0  0  0
 15 16  2  0  0  0  0
 15 33  1  0  0  0  0
M  END
> <s_m_source_file>
AV-unprocessed.smi

> <i_m_source_file_index>
1561

> <i_lp_mmshare_version>
43012

> <i_f3d_flags>
0

> <s_epik_input>
bjFbY0hdW2NIXVtjSF1uMVtDQEhdKFtDSDNdKUMoPU8pW05IXVtDSDJdW0NAQEhdMltDSDJdW0NIMl1PW0NIMl0y

> <s_epik_cmdline>
J2VwaWtfcHl0aG9uJywgJy1waCcsICc3LjAnLCAnLXRuJywgJzgnLCAnLW1hJywgJzIwMCcsICctbWV0YWxfYmluZGluZycsICctaW1hZScsICc8aW5maWxlLm1hZT4nLCAnLW9tYWUnLCAnPG91dGZpbGUubWFlPic=

> <r_lp_tautomer_probability>
1

> <r_epik_Ionization_Penalty>
3.82077e-05

> <r_epik_Ionization_Penalty_Charging>
0

> <r_epik_Ionization_Penalty_Neutral>
3.82077e-05

> <r_epik_State_Penalty>
-0

> <r_epik_Charging_Adjusted_Penalty>
0

> <i_epik_Tot_Q>
0

> <i_epik_Tot_abs_Q>
0

> <r_epik_Metal_State_Penalty>
-0

> <b_epik_Metal_Only>
0

> <s_lp_Force_Field>
OPLS_2005

> <r_lp_Energy>
22.0569

> <b_lp_Chiralities_Consistent>
1

> <s_lp_Variant>
AV-unprocessed.smi:1561-3

> <Gold.Version>
5.8.1

> <Gold.Id.Protein>
6NUR|6NUR_protein|mol2

> <Gold.PLP.Fitness>
36.7575

> <Gold.PLP.PLP>
-30.8922

> <Gold.PLP.part.hbond>
-0.9756

> <Gold.PLP.part.metal>
0.0000

> <Gold.PLP.part.buried>
-5.0090

> <Gold.PLP.part.nonpolar>
-26.3251

> <Gold.PLP.part.repulsive>
0.2647

> <Gold.PLP.ligand.clash>
0.0000

> <Gold.PLP.ligand.torsion>
0.0621

> <Gold.PLP.Chemscore.Hbond>
0.9600

> <Gold.PLP.Chemscore.CHOScore>
1.0000

> <Gold.PLP.Chemscore.Metal>
0.0000

> <Gold.Chemscore.Hbonds>
donor molecule, donor type, donor heavy atom, donor atom, acceptor molecule, acceptor atom, score
      P1  H  7989  7998       L1     4  0.86
      L1  C    13    31       P1  7957  1.00

> <Gold.PLP.Chemscore.Internal.Correction>
0.1094

> <Gold.Rescore>
     Score         DG    S(hbond)    S(metal)    S(lipo)     H(rot)  DE(clash)    DE(int)     intcor
     12.12     -13.55       0.95        0.00      76.93       1.61       0.11       1.32       ----

> <Gold.Chemscore.Fitness>
12.1197

> <Gold.Chemscore.DG>
-13.5477

> <Gold.Chemscore.ZeroCoef>
-5.4800

> <Gold.Chemscore.Hbond>
0.9541

> <Gold.Chemscore.Metal>
0.0000

> <Gold.Chemscore.Lipo>
76.9329

> <Gold.Chemscore.Internal_Hbond>
0.0000

> <Gold.Chemscore.DEClash>
0.1111

> <Gold.Chemscore.DEInternal>
1.3169

> <Gold.Chemscore.Rot>
1.6094

> <Gold.Chemscore.Internal.Correction>
   9.000000E+99

> <Gold.Chemscore.Hbonds>
donor molecule, donor type, donor heavy atom, donor atom, acceptor molecule, acceptor atom, score
      P1  H  7989  7998       L1     4  0.69

> <Gold.Chemscore.Hbond.Weighted>
-3.1866

> <Gold.Chemscore.Metal.Weighted>
-0.0000

> <Gold.Chemscore.Lipo.Weighted>
-9.0012

> <Gold.Chemscore.Internal_Hbond.Weighted>
0.0000

> <Gold.Chemscore.DEClash.Weighted>
0.1111

> <Gold.Chemscore.DEInternal.Weighted>
1.3169

> <Gold.Chemscore.Rot.Weighted>
4.1201

> <Gold.Chemscore.Internal.Correction.Weighted>
   9.000000E+99

> <Gold.Protein.RotatedTorsions>
[ 6907 6896 6895 6894 ] final   43.68 input  -60.11 | X-H torsion
[ 7974 7965 7964 7962 ] final -101.25 input  175.53 | X-H torsion
[ 8008 7997 7996 7995 ] final  -90.91 input   59.86 | X-H torsion
[ 10167 10162 10161 10158 ] final    7.26 input  -65.29 | X-H torsion
[ 10718 10713 10712 10709 ] final   19.50 input   66.30 | X-H torsion
[ 10763 10752 10751 10750 ] final  -66.02 input  -60.55 | X-H torsion
[ 11005 11000 10999 10996 ] final  -40.54 input  -57.11 | X-H torsion

> <Gold.Protein.ActiveResidues>
 VAL166  LYS551  ARG553  GLY616  TRP617  ASP618  TYR619  PRO620  LYS621  CYS622 
 ASP623  PHE694  ASN695  SER759  ASP760  ASP761  ALA762  ILE779  LEU786  VAL792 
 PHE793  MET794  SER795  GLU796  ALA797  LYS798  CYS799  TRP800  GLU811  SER814 

> <Gold.Protein.RotatedAtoms>
  152.2232  134.8393  160.0483 H   0  0  0  0  0  0  0  0  0  0  0  0  # atno 6907 bound_to 6896
  151.9169  133.3570  159.3891 H   0  0  0  0  0  0  0  0  0  0  0  0  # atno 6908 bound_to 6896
  150.7005  134.4600  159.5420 H   0  0  0  0  0  0  0  0  0  0  0  0  # atno 6909 bound_to 6896
  145.2841  140.9335  143.2915 H   0  0  0  0  0  0  0  0  0  0  0  0  # atno 7974 bound_to 7965
  154.7043  140.0525  157.0488 H   0  0  0  0  0  0  0  0  0  0  0  0  # atno 8008 bound_to 7997
  155.0642  140.3192  155.4632 H   0  0  0  0  0  0  0  0  0  0  0  0  # atno 8009 bound_to 7997
  156.2770  140.2093  156.5769 H   0  0  0  0  0  0  0  0  0  0  0  0  # atno 8010 bound_to 7997
  140.6381  143.7838  150.7389 H   0  0  0  0  0  0  0  0  0  0  0  0  # atno 10167 bound_to 10162
  157.1113  130.6510  149.5898 H   0  0  0  0  0  0  0  0  0  0  0  0  # atno 10718 bound_to 10713
  154.3536  135.6131  153.5655 H   0  0  0  0  0  0  0  0  0  0  0  0  # atno 10763 bound_to 10752
  152.9797  135.5798  154.4715 H   0  0  0  0  0  0  0  0  0  0  0  0  # atno 10764 bound_to 10752
  154.4440  135.2851  155.1805 H   0  0  0  0  0  0  0  0  0  0  0  0  # atno 10765 bound_to 10752
  141.0182  133.6875  156.2336 H   0  0  0  0  0  0  0  0  0  0  0  0  # atno 11005 bound_to 11000
  144.9228  139.4391  143.6533 LP  0  0  0  0  0  0  0  0  0  0  0  0  # atno 17320 bound_to 7965
  146.3207  139.8098  142.8948 LP  0  0  0  0  0  0  0  0  0  0  0  0  # atno 17321 bound_to 7965
  140.1463  143.4396  152.2160 LP  0  0  0  0  0  0  0  0  0  0  0  0  # atno 17342 bound_to 10162
  139.5591  144.7393  151.4207 LP  0  0  0  0  0  0  0  0  0  0  0  0  # atno 17343 bound_to 10162
  155.9850  130.4877  150.7009 LP  0  0  0  0  0  0  0  0  0  0  0  0  # atno 17370 bound_to 10713
  157.4557  131.0877  151.0799 LP  0  0  0  0  0  0  0  0  0  0  0  0  # atno 17371 bound_to 10713
  140.6618  134.4960  157.5583 LP  0  0  0  0  0  0  0  0  0  0  0  0  # atno 17394 bound_to 11000
  139.9130  134.8305  156.1463 LP  0  0  0  0  0  0  0  0  0  0  0  0  # atno 17395 bound_to 11000

$$$$
