AV-unprocessed.smi:2390|AV-procd|sdf|9479|dock1
  -GOLD-   2272013103D 1   1.00000     0.00000
 Structure written by MMmdl.
 46 47  0  0  0  0  0  0  0  0  2 V2000
  152.5592  142.3478  161.8268 C   0  0  0  0  0  0  0  0  0  0  0  0
  152.1392  143.3867  160.8081 C   0  0  0  0  0  0  0  0  0  0  0  0
  152.2852  144.7627  161.0718 C   0  0  0  0  0  0  0  0  0  0  0  0
  151.8753  145.6747  160.0827 C   0  0  0  0  0  0  0  0  0  0  0  0
  151.3389  145.1770  158.8794 C   0  0  0  0  0  0  0  0  0  0  0  0
  151.2285  143.7806  158.6935 C   0  0  0  0  0  0  0  0  0  0  0  0
  150.6691  143.3790  157.4513 N   0  0  0  0  0  0  0  0  0  0  0  0
  150.1404  142.1856  157.1298 C   0  0  0  0  0  0  0  0  0  0  0  0
  150.1233  141.1951  157.8605 O   0  0  0  0  0  0  0  0  0  0  0  0
  149.6098  142.2035  155.8972 N   0  0  0  0  0  0  0  0  0  0  0  0
  148.9592  141.0798  155.2171 C   0  0  2  0  0  0  0  0  0  0  0  0
  150.0570  140.1009  154.7675 C   0  0  0  0  0  0  0  0  0  0  0  0
  148.0655  141.5745  154.0432 C   0  0  1  0  0  0  0  0  0  0  0  0
  147.3991  140.4231  153.2590 C   0  0  0  0  0  0  0  0  0  0  0  0
  147.0773  142.5957  154.5032 N   0  3  0  0  0  0  0  0  0  0  0  0
  146.1510  143.0726  153.4491 C   0  0  0  0  0  0  0  0  0  0  0  0
  145.3224  144.2563  153.9791 C   0  0  0  0  0  0  0  0  0  0  0  0
  144.6289  143.8719  155.1609 O   0  0  0  0  0  0  0  0  0  0  0  0
  145.5169  143.4800  156.2020 C   0  0  0  0  0  0  0  0  0  0  0  0
  146.3309  142.2603  155.7419 C   0  0  0  0  0  0  0  0  0  0  0  0
  151.6243  142.9091  159.6547 N   0  0  0  0  0  0  0  0  0  0  0  0
  153.0130  142.8126  162.7026 H   0  0  0  0  0  0  0  0  0  0  0  0
  153.2863  141.6616  161.3916 H   0  0  0  0  0  0  0  0  0  0  0  0
  151.6953  141.7701  162.1566 H   0  0  0  0  0  0  0  0  0  0  0  0
  152.7001  145.1133  162.0054 H   0  0  0  0  0  0  0  0  0  0  0  0
  151.9697  146.7386  160.2436 H   0  0  0  0  0  0  0  0  0  0  0  0
  151.0187  145.8646  158.1102 H   0  0  0  0  0  0  0  0  0  0  0  0
  150.6479  144.0906  156.7357 H   0  0  0  0  0  0  0  0  0  0  0  0
  149.6769  143.0638  155.3726 H   0  0  0  0  0  0  0  0  0  0  0  0
  148.3347  140.5448  155.9344 H   0  0  0  0  0  0  0  0  0  0  0  0
  149.6367  139.1766  154.3719 H   0  0  0  0  0  0  0  0  0  0  0  0
  150.6986  139.8224  155.6043 H   0  0  0  0  0  0  0  0  0  0  0  0
  150.6906  140.5391  153.9956 H   0  0  0  0  0  0  0  0  0  0  0  0
  148.7368  142.0821  153.3485 H   0  0  0  0  0  0  0  0  0  0  0  0
  148.1409  139.8036  152.7557 H   0  0  0  0  0  0  0  0  0  0  0  0
  146.7319  140.8000  152.4840 H   0  0  0  0  0  0  0  0  0  0  0  0
  146.8193  139.7706  153.9124 H   0  0  0  0  0  0  0  0  0  0  0  0
  146.7128  143.3889  152.5696 H   0  0  0  0  0  0  0  0  0  0  0  0
  145.4910  142.2624  153.1371 H   0  0  0  0  0  0  0  0  0  0  0  0
  145.9621  145.1161  154.1851 H   0  0  0  0  0  0  0  0  0  0  0  0
  144.5962  144.5724  153.2300 H   0  0  0  0  0  0  0  0  0  0  0  0
  146.1729  144.3091  156.4725 H   0  0  0  0  0  0  0  0  0  0  0  0
  144.9346  143.2310  157.0892 H   0  0  0  0  0  0  0  0  0  0  0  0
  145.6554  141.4228  155.5638 H   0  0  0  0  0  0  0  0  0  0  0  0
  147.0178  141.9565  156.5315 H   0  0  0  0  0  0  0  0  0  0  0  0
  147.6383  143.4025  154.7380 H   0  0  0  0  0  0  0  0  0  0  0  0
  1  2  1  0  0  0  0
  1 22  1  0  0  0  0
  1 23  1  0  0  0  0
  1 24  1  0  0  0  0
  2 21  1  0  0  0  0
  2  3  2  0  0  0  0
  3  4  1  0  0  0  0
  3 25  1  0  0  0  0
  4  5  2  0  0  0  0
  4 26  1  0  0  0  0
  5  6  1  0  0  0  0
  5 27  1  0  0  0  0
  6  7  1  0  0  0  0
  6 21  2  0  0  0  0
  7  8  1  0  0  0  0
  7 28  1  0  0  0  0
  8  9  2  0  0  0  0
  8 10  1  0  0  0  0
 10 11  1  0  0  0  0
 10 29  1  0  0  0  0
 11 12  1  0  0  0  0
 11 13  1  0  0  0  0
 11 30  1  0  0  0  0
 12 31  1  0  0  0  0
 12 32  1  0  0  0  0
 12 33  1  0  0  0  0
 13 14  1  0  0  0  0
 13 15  1  0  0  0  0
 13 34  1  0  0  0  0
 14 35  1  0  0  0  0
 14 36  1  0  0  0  0
 14 37  1  0  0  0  0
 15 20  1  0  0  0  0
 15 16  1  0  0  0  0
 15 46  1  0  0  0  0
 16 17  1  0  0  0  0
 16 38  1  0  0  0  0
 16 39  1  0  0  0  0
 17 18  1  0  0  0  0
 17 40  1  0  0  0  0
 17 41  1  0  0  0  0
 18 19  1  0  0  0  0
 19 20  1  0  0  0  0
 19 42  1  0  0  0  0
 19 43  1  0  0  0  0
 20 44  1  0  0  0  0
 20 45  1  0  0  0  0
M  CHG  1  15   1
M  END
> <s_m_source_file>
AV-unprocessed.smi

> <i_m_source_file_index>
2390

> <i_lp_mmshare_version>
43012

> <i_f3d_flags>
0

> <s_epik_input>
W0NIM11jMVtjSF1bY0hdW2NIXWMobjEpW05IXUMoPU8pW05IXVtDQEhdKFtDSDNdKVtDQEhdKFtDSDNdKU4yW0NIMl1bQ0gyXU9bQ0gyXVtDSDJdMg==

> <s_epik_cmdline>
J2VwaWtfcHl0aG9uJywgJy1waCcsICc3LjAnLCAnLXRuJywgJzgnLCAnLW1hJywgJzIwMCcsICctbWV0YWxfYmluZGluZycsICctaW1hZScsICc8aW5maWxlLm1hZT4nLCAnLW9tYWUnLCAnPG91dGZpbGUubWFlPic=

> <r_epik_Ionization_Penalty>
0.60259

> <r_epik_Ionization_Penalty_Charging>
0.602531

> <r_epik_Ionization_Penalty_Neutral>
5.9516e-05

> <r_epik_State_Penalty>
0.617039

> <r_epik_Charging_Adjusted_Penalty>
1.21957

> <i_epik_Tot_Q>
1

> <i_epik_Tot_abs_Q>
1

> <r_epik_Metal_State_Penalty>
0.617047

> <b_epik_Metal_Only>
0

> <s_lp_Force_Field>
OPLS_2005

> <r_lp_Energy>
26.9068

> <b_lp_Chiralities_Consistent>
1

> <s_lp_Variant>
AV-unprocessed.smi:2390-7

> <Gold.Version>
5.8.1

> <Gold.Id.Protein>
6NUR|6NUR_protein|mol2

> <Gold.PLP.Fitness>
53.9178

> <Gold.PLP.PLP>
-44.9737

> <Gold.PLP.part.hbond>
-3.0000

> <Gold.PLP.part.metal>
0.0000

> <Gold.PLP.part.buried>
-5.4854

> <Gold.PLP.part.nonpolar>
-36.1817

> <Gold.PLP.part.repulsive>
0.4311

> <Gold.PLP.ligand.clash>
0.0000

> <Gold.PLP.ligand.torsion>
0.4850

> <Gold.PLP.Chemscore.Hbond>
3.2520

> <Gold.PLP.Chemscore.CHOScore>
0.0000

> <Gold.PLP.Chemscore.Metal>
0.0000

> <Gold.Chemscore.Hbonds>
donor molecule, donor type, donor heavy atom, donor atom, acceptor molecule, acceptor atom, score
      L1  H     7    28       P1  8028  0.39
      L1  H    10    29       P1  8028  0.62
      L1  H    15    46       P1  8028  2.00

> <Gold.PLP.Chemscore.Internal.Correction>
0.1580

> <Gold.Rescore>
     Score         DG    S(hbond)    S(metal)    S(lipo)     H(rot)  DE(clash)    DE(int)     intcor
     17.02     -19.34       1.54        0.00     106.88       1.48       0.55       1.77       ----

> <Gold.Chemscore.Fitness>
17.0155

> <Gold.Chemscore.DG>
-19.3388

> <Gold.Chemscore.ZeroCoef>
-5.4800

> <Gold.Chemscore.Hbond>
1.5430

> <Gold.Chemscore.Metal>
0.0000

> <Gold.Chemscore.Lipo>
106.8821

> <Gold.Chemscore.Internal_Hbond>
0.0000

> <Gold.Chemscore.DEClash>
0.5522

> <Gold.Chemscore.DEInternal>
1.7711

> <Gold.Chemscore.Rot>
1.4844

> <Gold.Chemscore.Internal.Correction>
   9.000000E+99

> <Gold.Chemscore.Hbonds>
donor molecule, donor type, donor heavy atom, donor atom, acceptor molecule, acceptor atom, score
      L1  H     7    28       P1  8028  0.38
      L1  H    10    29       P1  8028  0.62
      L1  H    15    46       P1  8028  0.39

> <Gold.Chemscore.Hbond.Weighted>
-5.1536

> <Gold.Chemscore.Metal.Weighted>
-0.0000

> <Gold.Chemscore.Lipo.Weighted>
-12.5052

> <Gold.Chemscore.Internal_Hbond.Weighted>
0.0000

> <Gold.Chemscore.DEClash.Weighted>
0.5522

> <Gold.Chemscore.DEInternal.Weighted>
1.7711

> <Gold.Chemscore.Rot.Weighted>
3.8000

> <Gold.Chemscore.Internal.Correction.Weighted>
   9.000000E+99

> <Gold.Protein.RotatedTorsions>
[ 6907 6896 6895 6894 ] final -141.36 input  -60.11 | X-H torsion
[ 7974 7965 7964 7962 ] final   57.35 input  175.53 | X-H torsion
[ 8008 7997 7996 7995 ] final   47.09 input   59.86 | X-H torsion
[ 10167 10162 10161 10158 ] final   88.26 input  -65.29 | X-H torsion
[ 10718 10713 10712 10709 ] final -135.39 input   66.30 | X-H torsion
[ 10763 10752 10751 10750 ] final -167.38 input  -60.55 | X-H torsion
[ 11005 11000 10999 10996 ] final  134.83 input  -57.11 | X-H torsion

> <Gold.Protein.ActiveResidues>
 VAL166  LYS551  ARG553  GLY616  TRP617  ASP618  TYR619  PRO620  LYS621  CYS622 
 ASP623  PHE694  ASN695  SER759  ASP760  ASP761  ALA762  ILE779  LEU786  VAL792 
 PHE793  MET794  SER795  GLU796  ALA797  LYS798  CYS799  TRP800  GLU811  SER814 

> <Gold.Protein.RotatedAtoms>
  151.0728  133.5452  159.2625 H   0  0  0  0  0  0  0  0  0  0  0  0  # atno 6907 bound_to 6896
  151.2385  135.0580  159.9025 H   0  0  0  0  0  0  0  0  0  0  0  0  # atno 6908 bound_to 6896
  152.5414  134.0506  159.8162 H   0  0  0  0  0  0  0  0  0  0  0  0  # atno 6909 bound_to 6896
  145.9300  139.3800  143.0427 H   0  0  0  0  0  0  0  0  0  0  0  0  # atno 7974 bound_to 7965
  155.3634  140.3420  155.4241 H   0  0  0  0  0  0  0  0  0  0  0  0  # atno 8008 bound_to 7997
  156.1702  140.1629  156.8496 H   0  0  0  0  0  0  0  0  0  0  0  0  # atno 8009 bound_to 7997
  154.5225  140.0763  156.8180 H   0  0  0  0  0  0  0  0  0  0  0  0  # atno 8010 bound_to 7997
  139.8691  144.6503  150.8970 H   0  0  0  0  0  0  0  0  0  0  0  0  # atno 10167 bound_to 10162
  156.2656  130.7235  151.1185 H   0  0  0  0  0  0  0  0  0  0  0  0  # atno 10718 bound_to 10713
  154.6737  135.2943  154.9707 H   0  0  0  0  0  0  0  0  0  0  0  0  # atno 10763 bound_to 10752
  154.0725  135.6616  153.4830 H   0  0  0  0  0  0  0  0  0  0  0  0  # atno 10764 bound_to 10752
  153.0503  135.5178  154.7746 H   0  0  0  0  0  0  0  0  0  0  0  0  # atno 10765 bound_to 10752
  139.9940  134.9504  156.9922 H   0  0  0  0  0  0  0  0  0  0  0  0  # atno 11005 bound_to 11000
  145.8438  140.9566  143.0785 LP  0  0  0  0  0  0  0  0  0  0  0  0  # atno 17320 bound_to 7965
  144.6763  140.0319  143.7482 LP  0  0  0  0  0  0  0  0  0  0  0  0  # atno 17321 bound_to 7965
  140.7763  143.3679  151.1704 LP  0  0  0  0  0  0  0  0  0  0  0  0  # atno 17342 bound_to 10162
  139.7301  143.9086  152.3016 LP  0  0  0  0  0  0  0  0  0  0  0  0  # atno 17343 bound_to 10162
  157.7266  131.0645  150.5902 LP  0  0  0  0  0  0  0  0  0  0  0  0  # atno 17370 bound_to 10713
  156.5993  130.4350  149.5903 LP  0  0  0  0  0  0  0  0  0  0  0  0  # atno 17371 bound_to 10713
  140.4853  134.1248  155.7223 LP  0  0  0  0  0  0  0  0  0  0  0  0  # atno 17394 bound_to 11000
  141.1589  133.8830  157.1901 LP  0  0  0  0  0  0  0  0  0  0  0  0  # atno 17395 bound_to 11000

$$$$
