AV-unprocessed.smi:3149|AV-procd|sdf|12003|dock2
  -GOLD-   2272017403D 1   1.00000     0.00000
 Structure written by MMmdl.
 37 38  0  0  0  0  0  0  0  0  1 V2000
  153.0306  139.2705  159.3576 C   0  0  0  0  0  0  0  0  0  0  0  0
  152.3615  140.6510  159.2098 C   0  0  2  0  0  0  0  0  0  0  0  0
  152.2017  140.9317  157.7844 N   0  0  0  0  0  0  0  0  0  0  0  0
  151.0766  140.1956  157.1924 C   0  0  0  0  0  0  0  0  0  0  0  0
  150.8390  140.5711  155.7242 C   0  0  0  0  0  0  0  0  0  0  0  0
  151.6361  140.2377  154.8460 O   0  0  0  0  0  0  0  0  0  0  0  0
  149.7385  141.3848  155.4455 N   0  0  0  0  0  0  0  0  0  0  0  0
  148.9510  141.2105  154.2343 C   0  0  0  0  0  0  0  0  0  0  0  0
  147.7707  141.7373  155.0573 C   0  0  0  0  0  0  0  0  0  0  0  0
  148.5746  141.4031  156.3185 C   0  0  0  0  0  0  0  0  0  0  0  0
  153.1896  141.7978  159.8500 C   0  0  2  0  0  0  0  0  0  0  0  0
  153.7227  141.4527  161.2522 C   0  0  0  0  0  0  0  0  0  0  0  0
  152.4153  143.0332  159.9216 N   0  0  0  0  0  0  0  0  0  0  0  0
  152.6141  144.2186  159.2416 C   0  0  0  0  0  0  0  0  0  0  0  0
  151.6378  145.0865  159.6386 C   0  0  0  0  0  0  0  0  0  0  0  0
  150.8751  144.3318  160.5727 C   0  0  0  0  0  0  0  0  0  0  0  0
  151.3410  143.1047  160.7380 N   0  0  0  0  0  0  0  0  0  0  0  0
  153.1078  138.9739  160.4031 H   0  0  0  0  0  0  0  0  0  0  0  0
  154.0366  139.2710  158.9366 H   0  0  0  0  0  0  0  0  0  0  0  0
  152.4636  138.4871  158.8548 H   0  0  0  0  0  0  0  0  0  0  0  0
  151.3841  140.6261  159.6947 H   0  0  0  0  0  0  0  0  0  0  0  0
  152.0766  141.9274  157.6634 H   0  0  0  0  0  0  0  0  0  0  0  0
  151.2587  139.1226  157.2591 H   0  0  0  0  0  0  0  0  0  0  0  0
  150.1666  140.4110  157.7540 H   0  0  0  0  0  0  0  0  0  0  0  0
  149.2540  141.8550  153.4086 H   0  0  0  0  0  0  0  0  0  0  0  0
  148.8319  140.1669  153.9355 H   0  0  0  0  0  0  0  0  0  0  0  0
  147.5957  142.8068  154.9267 H   0  0  0  0  0  0  0  0  0  0  0  0
  146.8527  141.1597  154.9453 H   0  0  0  0  0  0  0  0  0  0  0  0
  148.3272  140.4272  156.7411 H   0  0  0  0  0  0  0  0  0  0  0  0
  148.5953  142.1946  157.0682 H   0  0  0  0  0  0  0  0  0  0  0  0
  154.0564  141.9864  159.2129 H   0  0  0  0  0  0  0  0  0  0  0  0
  154.4370  140.6308  161.2209 H   0  0  0  0  0  0  0  0  0  0  0  0
  152.9149  141.1700  161.9280 H   0  0  0  0  0  0  0  0  0  0  0  0
  154.2399  142.3056  161.6928 H   0  0  0  0  0  0  0  0  0  0  0  0
  153.4265  144.3451  158.5413 H   0  0  0  0  0  0  0  0  0  0  0  0
  151.4904  146.1050  159.3112 H   0  0  0  0  0  0  0  0  0  0  0  0
  150.0023  144.6366  161.1312 H   0  0  0  0  0  0  0  0  0  0  0  0
  1  2  1  0  0  0  0
  1 18  1  0  0  0  0
  1 19  1  0  0  0  0
  1 20  1  0  0  0  0
  2  3  1  0  0  0  0
  2 11  1  0  0  0  0
  2 21  1  0  0  0  0
  3  4  1  0  0  0  0
  3 22  1  0  0  0  0
  4  5  1  0  0  0  0
  4 23  1  0  0  0  0
  4 24  1  0  0  0  0
  5  6  2  0  0  0  0
  5  7  1  0  0  0  0
  7 10  1  0  0  0  0
  7  8  1  0  0  0  0
  8  9  1  0  0  0  0
  8 25  1  0  0  0  0
  8 26  1  0  0  0  0
  9 10  1  0  0  0  0
  9 27  1  0  0  0  0
  9 28  1  0  0  0  0
 10 29  1  0  0  0  0
 10 30  1  0  0  0  0
 11 12  1  0  0  0  0
 11 13  1  0  0  0  0
 11 31  1  0  0  0  0
 12 32  1  0  0  0  0
 12 33  1  0  0  0  0
 12 34  1  0  0  0  0
 13 17  1  0  0  0  0
 13 14  1  0  0  0  0
 14 15  2  0  0  0  0
 14 35  1  0  0  0  0
 15 16  1  0  0  0  0
 15 36  1  0  0  0  0
 16 17  2  0  0  0  0
 16 37  1  0  0  0  0
M  END
> <s_m_source_file>
AV-unprocessed.smi

> <i_m_source_file_index>
3149

> <i_lp_mmshare_version>
43012

> <i_f3d_flags>
0

> <s_epik_input>
bjFbY0hdW2NIXVtjSF1uMVtDQEBIXShbQ0gzXSlbQ0BIXShbQ0gzXSlbTkhdW0NIMl1DKD1PKU4yW0NIMl1bQ0gyXVtDSDJdMg==

> <s_epik_cmdline>
J2VwaWtfcHl0aG9uJywgJy1waCcsICc3LjAnLCAnLXRuJywgJzgnLCAnLW1hJywgJzIwMCcsICctbWV0YWxfYmluZGluZycsICctaW1hZScsICc8aW5maWxlLm1hZT4nLCAnLW9tYWUnLCAnPG91dGZpbGUubWFlPic=

> <r_lp_tautomer_probability>
1

> <r_epik_Ionization_Penalty>
0.918674

> <r_epik_Ionization_Penalty_Charging>
0

> <r_epik_Ionization_Penalty_Neutral>
0.918674

> <r_epik_State_Penalty>
0.958258

> <r_epik_Charging_Adjusted_Penalty>
0.958258

> <i_epik_Tot_Q>
0

> <i_epik_Tot_abs_Q>
0

> <r_epik_Metal_State_Penalty>
0.956881

> <b_epik_Metal_Only>
0

> <s_lp_Force_Field>
OPLS_2005

> <r_lp_Energy>
24.7968

> <b_lp_Chiralities_Consistent>
1

> <s_lp_Variant>
AV-unprocessed.smi:3149-5

> <Gold.Version>
5.8.1

> <Gold.Id.Protein>
6NUR|6NUR_protein|mol2

> <Gold.PLP.Fitness>
46.5783

> <Gold.PLP.PLP>
-44.5087

> <Gold.PLP.part.hbond>
-1.1960

> <Gold.PLP.part.metal>
0.0000

> <Gold.PLP.part.buried>
-4.3868

> <Gold.PLP.part.nonpolar>
-38.6941

> <Gold.PLP.part.repulsive>
0.1313

> <Gold.PLP.ligand.clash>
0.0000

> <Gold.PLP.ligand.torsion>
0.9292

> <Gold.PLP.Chemscore.Hbond>
1.0000

> <Gold.PLP.Chemscore.CHOScore>
0.0000

> <Gold.PLP.Chemscore.Metal>
0.0000

> <Gold.Chemscore.Hbonds>
donor molecule, donor type, donor heavy atom, donor atom, acceptor molecule, acceptor atom, score
      P1  H  6933  6945       L1    17  0.02
      P1  H  7989  7998       L1     6  0.87

> <Gold.PLP.Chemscore.Internal.Correction>
0.9280

> <Gold.Rescore>
     Score         DG    S(hbond)    S(metal)    S(lipo)     H(rot)  DE(clash)    DE(int)     intcor
     14.58     -15.38       0.99        0.00      95.34       1.79       0.01       0.78       ----

> <Gold.Chemscore.Fitness>
14.5839

> <Gold.Chemscore.DG>
-15.3801

> <Gold.Chemscore.ZeroCoef>
-5.4800

> <Gold.Chemscore.Hbond>
0.9942

> <Gold.Chemscore.Metal>
0.0000

> <Gold.Chemscore.Lipo>
95.3445

> <Gold.Chemscore.Internal_Hbond>
0.0000

> <Gold.Chemscore.DEClash>
0.0149

> <Gold.Chemscore.DEInternal>
0.7813

> <Gold.Chemscore.Rot>
1.7874

> <Gold.Chemscore.Internal.Correction>
   9.000000E+99

> <Gold.Chemscore.Hbonds>
donor molecule, donor type, donor heavy atom, donor atom, acceptor molecule, acceptor atom, score
      P1  H  6933  6945       L1    17  0.02
      P1  H  7989  7998       L1     6  0.79

> <Gold.Chemscore.Hbond.Weighted>
-3.3206

> <Gold.Chemscore.Metal.Weighted>
-0.0000

> <Gold.Chemscore.Lipo.Weighted>
-11.1553

> <Gold.Chemscore.Internal_Hbond.Weighted>
0.0000

> <Gold.Chemscore.DEClash.Weighted>
0.0149

> <Gold.Chemscore.DEInternal.Weighted>
0.7813

> <Gold.Chemscore.Rot.Weighted>
4.5758

> <Gold.Chemscore.Internal.Correction.Weighted>
   9.000000E+99

> <Gold.Protein.RotatedTorsions>
[ 6907 6896 6895 6894 ] final  150.47 input  -60.11 | X-H torsion
[ 7974 7965 7964 7962 ] final  151.76 input  175.53 | X-H torsion
[ 8008 7997 7996 7995 ] final   61.38 input   59.86 | X-H torsion
[ 10167 10162 10161 10158 ] final   75.66 input  -65.29 | X-H torsion
[ 10718 10713 10712 10709 ] final  -32.04 input   66.30 | X-H torsion
[ 10763 10752 10751 10750 ] final  -50.06 input  -60.55 | X-H torsion
[ 11005 11000 10999 10996 ] final   35.18 input  -57.11 | X-H torsion

> <Gold.Protein.ActiveResidues>
 VAL166  LYS551  ARG553  GLY616  TRP617  ASP618  TYR619  PRO620  LYS621  CYS622 
 ASP623  PHE694  ASN695  SER759  ASP760  ASP761  ALA762  ILE779  LEU786  VAL792 
 PHE793  MET794  SER795  GLU796  ALA797  LYS798  CYS799  TRP800  GLU811  SER814 

> <Gold.Protein.RotatedAtoms>
  152.1140  133.4316  159.4643 H   0  0  0  0  0  0  0  0  0  0  0  0  # atno 6907 bound_to 6896
  150.6868  134.2615  159.4560 H   0  0  0  0  0  0  0  0  0  0  0  0  # atno 6908 bound_to 6896
  152.0486  134.9667  160.0625 H   0  0  0  0  0  0  0  0  0  0  0  0  # atno 6909 bound_to 6896
  144.8269  139.6580  143.6076 H   0  0  0  0  0  0  0  0  0  0  0  0  # atno 7974 bound_to 7965
  155.5974  140.3493  155.4584 H   0  0  0  0  0  0  0  0  0  0  0  0  # atno 8008 bound_to 7997
  156.0255  140.1263  157.0338 H   0  0  0  0  0  0  0  0  0  0  0  0  # atno 8009 bound_to 7997
  154.4331  140.1054  156.6010 H   0  0  0  0  0  0  0  0  0  0  0  0  # atno 8010 bound_to 7997
  140.0006  144.5689  150.7741 H   0  0  0  0  0  0  0  0  0  0  0  0  # atno 10167 bound_to 10162
  156.3798  130.4354  149.7478 H   0  0  0  0  0  0  0  0  0  0  0  0  # atno 10718 bound_to 10713
  154.1042  135.6559  153.4873 H   0  0  0  0  0  0  0  0  0  0  0  0  # atno 10763 bound_to 10752
  153.0278  135.5232  154.7256 H   0  0  0  0  0  0  0  0  0  0  0  0  # atno 10764 bound_to 10752
  154.6417  135.2989  155.0064 H   0  0  0  0  0  0  0  0  0  0  0  0  # atno 10765 bound_to 10752
  140.2453  134.3367  155.7910 H   0  0  0  0  0  0  0  0  0  0  0  0  # atno 11005 bound_to 11000
  146.2574  139.6333  142.9385 LP  0  0  0  0  0  0  0  0  0  0  0  0  # atno 17320 bound_to 7965
  145.4980  141.0438  143.2556 LP  0  0  0  0  0  0  0  0  0  0  0  0  # atno 17321 bound_to 7965
  140.7420  143.2826  151.3554 LP  0  0  0  0  0  0  0  0  0  0  0  0  # atno 17342 bound_to 10162
  139.6275  144.0786  152.2447 LP  0  0  0  0  0  0  0  0  0  0  0  0  # atno 17343 bound_to 10162
  156.4572  130.7935  151.2955 LP  0  0  0  0  0  0  0  0  0  0  0  0  # atno 17370 bound_to 10713
  157.7491  131.0077  150.3200 LP  0  0  0  0  0  0  0  0  0  0  0  0  # atno 17371 bound_to 10713
  141.2207  133.7322  156.8950 LP  0  0  0  0  0  0  0  0  0  0  0  0  # atno 17394 bound_to 11000
  140.1612  134.9164  157.2717 LP  0  0  0  0  0  0  0  0  0  0  0  0  # atno 17395 bound_to 11000

$$$$
