AV-unprocessed.smi:934|AV-procd|sdf|4206|dock3
  -GOLD-   22720 2113D 1   1.00000     0.00000
 Structure written by MMmdl.
 42 43  0  0  0  0  0  0  0  0  1 V2000
  145.0977  139.7199  155.3168 C   0  0  0  0  0  0  0  0  0  0  0  0
  146.3317  138.9366  155.4053 N   0  0  0  0  0  0  0  0  0  0  0  0
  146.6091  138.7257  156.8271 C   0  0  0  0  0  0  0  0  0  0  0  0
  147.4586  139.4378  154.5670 C   0  0  0  0  0  0  0  0  0  0  0  0
  147.0205  139.3497  153.0684 C   0  0  0  0  0  0  0  0  0  0  0  0
  147.0987  137.9912  152.5310 N   0  0  0  0  0  0  0  0  0  0  0  0
  146.0613  137.1757  152.2958 C   0  0  0  0  0  0  0  0  0  0  0  0
  144.8922  137.4764  152.5339 O   0  0  0  0  0  0  0  0  0  0  0  0
  146.4790  136.0081  151.7774 N   0  0  0  0  0  0  0  0  0  0  0  0
  145.7201  134.8696  151.3895 C   0  0  0  0  0  0  0  0  0  0  0  0
  146.2577  133.7012  150.7952 C   0  0  0  0  0  0  0  0  0  0  0  0
  145.3879  132.6423  150.4696 C   0  0  0  0  0  0  0  0  0  0  0  0
  144.0163  132.7856  150.7538 C   0  0  0  0  0  0  0  0  0  0  0  0
  143.4914  133.8881  151.3277 N   0  0  0  0  0  0  0  0  0  0  0  0
  144.3310  134.8990  151.6365 C   0  0  0  0  0  0  0  0  0  0  0  0
  147.8287  140.9038  154.9294 C   0  0  0  0  0  0  0  0  0  0  0  0
  149.1309  141.3722  154.2503 C   0  0  0  0  0  0  0  0  0  0  0  0
  150.2024  140.4915  154.5622 O   0  0  0  0  0  0  0  0  0  0  0  0
  149.9818  139.1645  154.1013 C   0  0  0  0  0  0  0  0  0  0  0  0
  148.7399  138.5794  154.7973 C   0  0  0  0  0  0  0  0  0  0  0  0
  144.7377  139.8201  154.2949 H   0  0  0  0  0  0  0  0  0  0  0  0
  145.2217  140.7170  155.7397 H   0  0  0  0  0  0  0  0  0  0  0  0
  144.2975  139.2280  155.8712 H   0  0  0  0  0  0  0  0  0  0  0  0
  147.3501  137.9436  156.9845 H   0  0  0  0  0  0  0  0  0  0  0  0
  145.7115  138.3865  157.3455 H   0  0  0  0  0  0  0  0  0  0  0  0
  146.9468  139.6365  157.3201 H   0  0  0  0  0  0  0  0  0  0  0  0
  145.9978  139.6992  152.9358 H   0  0  0  0  0  0  0  0  0  0  0  0
  147.6015  140.0282  152.4460 H   0  0  0  0  0  0  0  0  0  0  0  0
  148.0223  137.6581  152.2963 H   0  0  0  0  0  0  0  0  0  0  0  0
  147.4789  135.9066  151.6804 H   0  0  0  0  0  0  0  0  0  0  0  0
  147.3095  133.5847  150.5898 H   0  0  0  0  0  0  0  0  0  0  0  0
  145.7651  131.7387  150.0142 H   0  0  0  0  0  0  0  0  0  0  0  0
  143.3231  131.9920  150.5169 H   0  0  0  0  0  0  0  0  0  0  0  0
  143.8753  135.7642  152.0959 H   0  0  0  0  0  0  0  0  0  0  0  0
  147.0259  141.5885  154.6549 H   0  0  0  0  0  0  0  0  0  0  0  0
  147.9632  141.0082  156.0055 H   0  0  0  0  0  0  0  0  0  0  0  0
  149.0130  141.4503  153.1692 H   0  0  0  0  0  0  0  0  0  0  0  0
  149.3913  142.3698  154.6040 H   0  0  0  0  0  0  0  0  0  0  0  0
  149.8949  139.1449  153.0152 H   0  0  0  0  0  0  0  0  0  0  0  0
  150.8580  138.5652  154.3488 H   0  0  0  0  0  0  0  0  0  0  0  0
  149.0036  138.5430  155.8529 H   0  0  0  0  0  0  0  0  0  0  0  0
  148.5851  137.5456  154.4881 H   0  0  0  0  0  0  0  0  0  0  0  0
  1  2  1  0  0  0  0
  1 21  1  0  0  0  0
  1 22  1  0  0  0  0
  1 23  1  0  0  0  0
  2  3  1  0  0  0  0
  2  4  1  0  0  0  0
  3 24  1  0  0  0  0
  3 25  1  0  0  0  0
  3 26  1  0  0  0  0
  4 20  1  0  0  0  0
  4  5  1  0  0  0  0
  4 16  1  0  0  0  0
  5  6  1  0  0  0  0
  5 27  1  0  0  0  0
  5 28  1  0  0  0  0
  6  7  1  0  0  0  0
  6 29  1  0  0  0  0
  7  8  2  0  0  0  0
  7  9  1  0  0  0  0
  9 10  1  0  0  0  0
  9 30  1  0  0  0  0
 10 15  1  0  0  0  0
 10 11  2  0  0  0  0
 11 12  1  0  0  0  0
 11 31  1  0  0  0  0
 12 13  2  0  0  0  0
 12 32  1  0  0  0  0
 13 14  1  0  0  0  0
 13 33  1  0  0  0  0
 14 15  2  0  0  0  0
 15 34  1  0  0  0  0
 16 17  1  0  0  0  0
 16 35  1  0  0  0  0
 16 36  1  0  0  0  0
 17 18  1  0  0  0  0
 17 37  1  0  0  0  0
 17 38  1  0  0  0  0
 18 19  1  0  0  0  0
 19 20  1  0  0  0  0
 19 39  1  0  0  0  0
 19 40  1  0  0  0  0
 20 41  1  0  0  0  0
 20 42  1  0  0  0  0
M  END
> <s_m_source_file>
AV-unprocessed.smi

> <i_m_source_file_index>
934

> <i_lp_mmshare_version>
43012

> <i_f3d_flags>
0

> <s_epik_input>
W0NIMl0xW0NIMl1PW0NIMl1bQ0gyXUMxKE4oW0NIM10pW0NIM10pW0NIMl1bTkhdQyg9TylbTkhdYzJbY0hdW2NIXVtjSF1uW2NIXTI=

> <s_epik_cmdline>
J2VwaWtfcHl0aG9uJywgJy1waCcsICc3LjAnLCAnLXRuJywgJzgnLCAnLW1hJywgJzIwMCcsICctbWV0YWxfYmluZGluZycsICctaW1hZScsICc8aW5maWxlLm1hZT4nLCAnLW9tYWUnLCAnPG91dGZpbGUubWFlPic=

> <r_epik_Ionization_Penalty>
2.28202

> <r_epik_Ionization_Penalty_Charging>
0

> <r_epik_Ionization_Penalty_Neutral>
2.28202

> <r_epik_State_Penalty>
2.42606

> <r_epik_Charging_Adjusted_Penalty>
2.42606

> <i_epik_Tot_Q>
0

> <i_epik_Tot_abs_Q>
0

> <r_epik_Metal_State_Penalty>
2.42536

> <b_epik_Metal_Only>
0

> <s_lp_Force_Field>
OPLS_2005

> <r_lp_Energy>
30.2098

> <b_lp_Chiralities_Consistent>
1

> <s_lp_Variant>
AV-unprocessed.smi:934-2

> <Gold.Version>
5.8.1

> <Gold.Id.Protein>
6NUR|6NUR_protein|mol2

> <Gold.PLP.Fitness>
36.6718

> <Gold.PLP.PLP>
-28.5924

> <Gold.PLP.part.hbond>
-2.9177

> <Gold.PLP.part.metal>
0.0000

> <Gold.PLP.part.buried>
-4.5416

> <Gold.PLP.part.nonpolar>
-22.1726

> <Gold.PLP.part.repulsive>
1.0062

> <Gold.PLP.ligand.clash>
0.0000

> <Gold.PLP.ligand.torsion>
0.4086

> <Gold.PLP.Chemscore.Hbond>
2.9440

> <Gold.PLP.Chemscore.CHOScore>
0.0000

> <Gold.PLP.Chemscore.Metal>
0.0000

> <Gold.Chemscore.Hbonds>
donor molecule, donor type, donor heavy atom, donor atom, acceptor molecule, acceptor atom, score
      L1  H     6    29       P1  7948  0.90
      L1  H     9    30       P1  7948  0.88
      P1  H  7989  7998       L1    18  0.84

> <Gold.PLP.Chemscore.Internal.Correction>
0.0645

> <Gold.Rescore>
     Score         DG    S(hbond)    S(metal)    S(lipo)     H(rot)  DE(clash)    DE(int)     intcor
     14.88     -17.19       2.22        0.00      68.26       1.44       0.44       1.87       ----

> <Gold.Chemscore.Fitness>
14.8824

> <Gold.Chemscore.DG>
-17.1900

> <Gold.Chemscore.ZeroCoef>
-5.4800

> <Gold.Chemscore.Hbond>
2.2193

> <Gold.Chemscore.Metal>
0.0000

> <Gold.Chemscore.Lipo>
68.2628

> <Gold.Chemscore.Internal_Hbond>
0.0000

> <Gold.Chemscore.DEClash>
0.4386

> <Gold.Chemscore.DEInternal>
1.8689

> <Gold.Chemscore.Rot>
1.4411

> <Gold.Chemscore.Internal.Correction>
   9.000000E+99

> <Gold.Chemscore.Hbonds>
donor molecule, donor type, donor heavy atom, donor atom, acceptor molecule, acceptor atom, score
      L1  H     6    29       P1  7948  0.88
      L1  H     9    30       P1  7948  0.85
      P1  H  7989  7998       L1    18  0.11

> <Gold.Chemscore.Hbond.Weighted>
-7.4125

> <Gold.Chemscore.Metal.Weighted>
-0.0000

> <Gold.Chemscore.Lipo.Weighted>
-7.9867

> <Gold.Chemscore.Internal_Hbond.Weighted>
0.0000

> <Gold.Chemscore.DEClash.Weighted>
0.4386

> <Gold.Chemscore.DEInternal.Weighted>
1.8689

> <Gold.Chemscore.Rot.Weighted>
3.6892

> <Gold.Chemscore.Internal.Correction.Weighted>
   9.000000E+99

> <Gold.Protein.RotatedTorsions>
[ 6907 6896 6895 6894 ] final  136.98 input  -60.11 | X-H torsion
[ 7974 7965 7964 7962 ] final   56.31 input  175.53 | X-H torsion
[ 8008 7997 7996 7995 ] final  -80.75 input   59.86 | X-H torsion
[ 10167 10162 10161 10158 ] final  132.25 input  -65.29 | X-H torsion
[ 10718 10713 10712 10709 ] final  -81.13 input   66.30 | X-H torsion
[ 10763 10752 10751 10750 ] final   80.52 input  -60.55 | X-H torsion
[ 11005 11000 10999 10996 ] final  164.34 input  -57.11 | X-H torsion

> <Gold.Protein.ActiveResidues>
 VAL166  LYS551  ARG553  GLY616  TRP617  ASP618  TYR619  PRO620  LYS621  CYS622 
 ASP623  PHE694  ASN695  SER759  ASP760  ASP761  ALA762  ILE779  LEU786  VAL792 
 PHE793  MET794  SER795  GLU796  ALA797  LYS798  CYS799  TRP800  GLU811  SER814 

> <Gold.Protein.RotatedAtoms>
  152.2833  133.5491  159.5511 H   0  0  0  0  0  0  0  0  0  0  0  0  # atno 6907 bound_to 6896
  150.7205  134.0533  159.3815 H   0  0  0  0  0  0  0  0  0  0  0  0  # atno 6908 bound_to 6896
  151.8443  135.0580  160.0502 H   0  0  0  0  0  0  0  0  0  0  0  0  # atno 6909 bound_to 6896
  145.9411  139.3889  143.0363 H   0  0  0  0  0  0  0  0  0  0  0  0  # atno 7974 bound_to 7965
  154.5914  140.0658  156.9244 H   0  0  0  0  0  0  0  0  0  0  0  0  # atno 8008 bound_to 7997
  155.2288  140.3336  155.4288 H   0  0  0  0  0  0  0  0  0  0  0  0  # atno 8009 bound_to 7997
  156.2258  140.1819  156.7350 H   0  0  0  0  0  0  0  0  0  0  0  0  # atno 8010 bound_to 7997
  139.5348  144.6670  151.4825 H   0  0  0  0  0  0  0  0  0  0  0  0  # atno 10167 bound_to 10162
  156.0056  130.4594  150.3905 H   0  0  0  0  0  0  0  0  0  0  0  0  # atno 10718 bound_to 10713
  153.1040  135.4799  154.8918 H   0  0  0  0  0  0  0  0  0  0  0  0  # atno 10763 bound_to 10752
  154.7410  135.3082  154.8731 H   0  0  0  0  0  0  0  0  0  0  0  0  # atno 10764 bound_to 10752
  153.9339  135.6841  153.4798 H   0  0  0  0  0  0  0  0  0  0  0  0  # atno 10765 bound_to 10752
  140.2449  134.8022  157.3446 H   0  0  0  0  0  0  0  0  0  0  0  0  # atno 11005 bound_to 11000
  145.8298  140.9636  143.0855 LP  0  0  0  0  0  0  0  0  0  0  0  0  # atno 17320 bound_to 7965
  144.6779  140.0148  143.7484 LP  0  0  0  0  0  0  0  0  0  0  0  0  # atno 17321 bound_to 7965
  140.6548  143.8622  150.6823 LP  0  0  0  0  0  0  0  0  0  0  0  0  # atno 17342 bound_to 10162
  140.1998  143.3968  152.1800 LP  0  0  0  0  0  0  0  0  0  0  0  0  # atno 17343 bound_to 10162
  157.1980  131.0431  151.2665 LP  0  0  0  0  0  0  0  0  0  0  0  0  # atno 17370 bound_to 10713
  157.4001  130.7329  149.6761 LP  0  0  0  0  0  0  0  0  0  0  0  0  # atno 17371 bound_to 10713
  140.1616  134.4722  155.7891 LP  0  0  0  0  0  0  0  0  0  0  0  0  # atno 17394 bound_to 11000
  141.2207  133.6903  156.7554 LP  0  0  0  0  0  0  0  0  0  0  0  0  # atno 17395 bound_to 11000

$$$$
