AV-unprocessed.smi:1159|AV-procd|sdf|4915|dock1
  -GOLD-   22720 3493D 1   1.00000     0.00000
 Structure written by MMmdl.
 41 42  0  0  0  0  0  0  0  0  1 V2000
  145.9823  138.1766  154.5319 O   0  0  0  0  0  0  0  0  0  0  0  0
  146.8565  137.6303  153.8591 C   0  0  0  0  0  0  0  0  0  0  0  0
  148.1453  138.0078  153.8082 N   0  0  0  0  0  0  0  0  0  0  0  0
  148.7801  139.0645  154.5150 C   0  0  0  0  0  0  0  0  0  0  0  0
  148.1621  139.8139  155.5438 C   0  0  0  0  0  0  0  0  0  0  0  0
  148.9006  140.8264  156.1853 C   0  0  0  0  0  0  0  0  0  0  0  0
  150.2326  141.0555  155.7873 C   0  0  0  0  0  0  0  0  0  0  0  0
  150.9472  142.0518  156.4195 O   0  0  0  0  0  0  0  0  0  0  0  0
  150.3912  142.6530  157.5861 C   0  0  0  0  0  0  0  0  0  0  0  0
  151.4407  143.5641  158.2329 C   0  0  0  0  0  0  0  0  0  0  0  0
  152.4874  142.8452  158.6373 F   0  0  0  0  0  0  0  0  0  0  0  0
  151.8569  144.4604  157.3390 F   0  0  0  0  0  0  0  0  0  0  0  0
  150.9131  144.2105  159.2721 F   0  0  0  0  0  0  0  0  0  0  0  0
  150.8361  140.3316  154.8123 N   0  0  0  0  0  0  0  0  0  0  0  0
  150.1230  139.3610  154.2026 C   0  0  0  0  0  0  0  0  0  0  0  0
  146.6260  136.5835  153.0536 N   0  0  0  0  0  0  0  0  0  0  0  0
  145.3321  135.9291  152.8503 C   0  0  1  0  0  0  0  0  0  0  0  0
  145.4474  134.8686  151.7322 C   0  0  0  0  0  0  0  0  0  0  0  0
  144.1093  134.5117  151.0652 C   0  0  0  0  0  0  0  0  0  0  0  0
  143.0744  133.8692  152.0003 C   0  0  0  0  0  0  0  0  0  0  0  0
  142.5827  134.8094  153.1141 C   0  0  0  0  0  0  0  0  0  0  0  0
  143.5254  134.9073  154.2215 N   0  0  0  0  0  0  0  0  0  0  0  0
  144.7776  135.3882  154.1821 C   0  0  0  0  0  0  0  0  0  0  0  0
  145.4769  135.3915  155.1950 O   0  0  0  0  0  0  0  0  0  0  0  0
  148.7254  137.5234  153.1386 H   0  0  0  0  0  0  0  0  0  0  0  0
  147.1485  139.6241  155.8615 H   0  0  0  0  0  0  0  0  0  0  0  0
  148.4534  141.4150  156.9727 H   0  0  0  0  0  0  0  0  0  0  0  0
  149.5087  143.2393  157.3251 H   0  0  0  0  0  0  0  0  0  0  0  0
  150.0844  141.8846  158.2976 H   0  0  0  0  0  0  0  0  0  0  0  0
  150.6420  138.8069  153.4342 H   0  0  0  0  0  0  0  0  0  0  0  0
  147.4061  136.1970  152.5422 H   0  0  0  0  0  0  0  0  0  0  0  0
  144.6330  136.7011  152.5228 H   0  0  0  0  0  0  0  0  0  0  0  0
  146.1094  135.2370  150.9473 H   0  0  0  0  0  0  0  0  0  0  0  0
  145.9246  133.9670  152.1189 H   0  0  0  0  0  0  0  0  0  0  0  0
  143.6820  135.4044  150.6066 H   0  0  0  0  0  0  0  0  0  0  0  0
  144.3072  133.8232  150.2432 H   0  0  0  0  0  0  0  0  0  0  0  0
  142.2151  133.5749  151.3969 H   0  0  0  0  0  0  0  0  0  0  0  0
  143.4686  132.9462  152.4279 H   0  0  0  0  0  0  0  0  0  0  0  0
  142.3517  135.8004  152.7211 H   0  0  0  0  0  0  0  0  0  0  0  0
  141.6509  134.4190  153.5240 H   0  0  0  0  0  0  0  0  0  0  0  0
  143.1970  134.5641  155.1127 H   0  0  0  0  0  0  0  0  0  0  0  0
  1  2  2  0  0  0  0
  2  3  1  0  0  0  0
  2 16  1  0  0  0  0
  3  4  1  0  0  0  0
  3 25  1  0  0  0  0
  4 15  1  0  0  0  0
  4  5  2  0  0  0  0
  5  6  1  0  0  0  0
  5 26  1  0  0  0  0
  6  7  2  0  0  0  0
  6 27  1  0  0  0  0
  7  8  1  0  0  0  0
  7 14  1  0  0  0  0
  8  9  1  0  0  0  0
  9 10  1  0  0  0  0
  9 28  1  0  0  0  0
  9 29  1  0  0  0  0
 10 11  1  0  0  0  0
 10 12  1  0  0  0  0
 10 13  1  0  0  0  0
 14 15  2  0  0  0  0
 15 30  1  0  0  0  0
 16 17  1  0  0  0  0
 16 31  1  0  0  0  0
 17 23  1  0  0  0  0
 17 18  1  0  0  0  0
 17 32  1  0  0  0  0
 18 19  1  0  0  0  0
 18 33  1  0  0  0  0
 18 34  1  0  0  0  0
 19 20  1  0  0  0  0
 19 35  1  0  0  0  0
 19 36  1  0  0  0  0
 20 21  1  0  0  0  0
 20 37  1  0  0  0  0
 20 38  1  0  0  0  0
 21 22  1  0  0  0  0
 21 39  1  0  0  0  0
 21 40  1  0  0  0  0
 22 23  1  0  0  0  0
 22 41  1  0  0  0  0
 23 24  2  0  0  0  0
M  END
> <s_m_source_file>
AV-unprocessed.smi

> <i_m_source_file_index>
1159

> <i_lp_mmshare_version>
43012

> <i_f3d_flags>
0

> <s_epik_input>
Tz1DMVtOSF1bQ0gyXVtDSDJdW0NIMl1bQ0gyXVtDQEhdMVtOSF1DKD1PKVtOSF1jMltjSF1bY0hdYyhuW2NIXTIpT1tDSDJdQyhGKShGKUY=

> <s_epik_cmdline>
J2VwaWtfcHl0aG9uJywgJy1waCcsICc3LjAnLCAnLXRuJywgJzgnLCAnLW1hJywgJzIwMCcsICctbWV0YWxfYmluZGluZycsICctaW1hZScsICc8aW5maWxlLm1hZT4nLCAnLW9tYWUnLCAnPG91dGZpbGUubWFlPic=

> <r_lp_tautomer_probability>
1

> <r_epik_Ionization_Penalty>
3.53205e-05

> <r_epik_Ionization_Penalty_Charging>
0

> <r_epik_Ionization_Penalty_Neutral>
3.53205e-05

> <r_epik_State_Penalty>
-0

> <r_epik_Charging_Adjusted_Penalty>
0

> <i_epik_Tot_Q>
0

> <i_epik_Tot_abs_Q>
0

> <r_epik_Metal_State_Penalty>
-0

> <b_epik_Metal_Only>
0

> <s_lp_Force_Field>
OPLS_2005

> <r_lp_Energy>
11.134

> <b_lp_Chiralities_Consistent>
1

> <s_lp_Variant>
AV-unprocessed.smi:1159-2

> <Gold.Version>
5.8.1

> <Gold.Id.Protein>
6NUR|6NUR_protein|mol2

> <Gold.PLP.Fitness>
44.8169

> <Gold.PLP.PLP>
-36.2263

> <Gold.PLP.part.hbond>
-3.1334

> <Gold.PLP.part.metal>
0.0000

> <Gold.PLP.part.buried>
-4.4857

> <Gold.PLP.part.nonpolar>
-28.1075

> <Gold.PLP.part.repulsive>
0.2730

> <Gold.PLP.ligand.clash>
0.2761

> <Gold.PLP.ligand.torsion>
0.1616

> <Gold.PLP.Chemscore.Hbond>
2.9000

> <Gold.PLP.Chemscore.CHOScore>
0.1412

> <Gold.PLP.Chemscore.Metal>
0.0000

> <Gold.Chemscore.Hbonds>
donor molecule, donor type, donor heavy atom, donor atom, acceptor molecule, acceptor atom, score
      L1  H     3    25       P1  7948  1.00
      L1  H    16    31       P1  7948  1.00
      P1  H  7989  7998       L1    14  0.90
      L1  C    15    30       P1  7957  0.17

> <Gold.PLP.Chemscore.Internal.Correction>
0.0664

> <Gold.Rescore>
     Score         DG    S(hbond)    S(metal)    S(lipo)     H(rot)  DE(clash)    DE(int)     intcor
     13.60     -15.82       2.27        0.00      63.25       1.81       0.17       2.05       ----

> <Gold.Chemscore.Fitness>
13.6023

> <Gold.Chemscore.DG>
-15.8231

> <Gold.Chemscore.ZeroCoef>
-5.4800

> <Gold.Chemscore.Hbond>
2.2656

> <Gold.Chemscore.Metal>
0.0000

> <Gold.Chemscore.Lipo>
63.2472

> <Gold.Chemscore.Internal_Hbond>
0.0000

> <Gold.Chemscore.DEClash>
0.1701

> <Gold.Chemscore.DEInternal>
2.0507

> <Gold.Chemscore.Rot>
1.8062

> <Gold.Chemscore.Internal.Correction>
   9.000000E+99

> <Gold.Chemscore.Hbonds>
donor molecule, donor type, donor heavy atom, donor atom, acceptor molecule, acceptor atom, score
      L1  H     3    25       P1  7948  0.96
      L1  H    16    31       P1  7948  0.98
      P1  H  7989  7998       L1    14  0.18

> <Gold.Chemscore.Hbond.Weighted>
-7.5670

> <Gold.Chemscore.Metal.Weighted>
-0.0000

> <Gold.Chemscore.Lipo.Weighted>
-7.3999

> <Gold.Chemscore.Internal_Hbond.Weighted>
0.0000

> <Gold.Chemscore.DEClash.Weighted>
0.1701

> <Gold.Chemscore.DEInternal.Weighted>
2.0507

> <Gold.Chemscore.Rot.Weighted>
4.6238

> <Gold.Chemscore.Internal.Correction.Weighted>
   9.000000E+99

> <Gold.Protein.RotatedTorsions>
[ 6907 6896 6895 6894 ] final -144.49 input  -60.11 | X-H torsion
[ 7974 7965 7964 7962 ] final -140.95 input  175.53 | X-H torsion
[ 8008 7997 7996 7995 ] final  -76.22 input   59.86 | X-H torsion
[ 10167 10162 10161 10158 ] final  -34.91 input  -65.29 | X-H torsion
[ 10718 10713 10712 10709 ] final  -33.83 input   66.30 | X-H torsion
[ 10763 10752 10751 10750 ] final  -29.94 input  -60.55 | X-H torsion
[ 11005 11000 10999 10996 ] final   72.63 input  -57.11 | X-H torsion

> <Gold.Protein.ActiveResidues>
 VAL166  LYS551  ARG553  GLY616  TRP617  ASP618  TYR619  PRO620  LYS621  CYS622 
 ASP623  PHE694  ASN695  SER759  ASP760  ASP761  ALA762  ILE779  LEU786  VAL792 
 PHE793  MET794  SER795  GLU796  ALA797  LYS798  CYS799  TRP800  GLU811  SER814 

> <Gold.Protein.RotatedAtoms>
  151.1147  133.5147  159.2604 H   0  0  0  0  0  0  0  0  0  0  0  0  # atno 6907 bound_to 6896
  151.1928  135.0409  159.8849 H   0  0  0  0  0  0  0  0  0  0  0  0  # atno 6908 bound_to 6896
  152.5452  134.0985  159.8361 H   0  0  0  0  0  0  0  0  0  0  0  0  # atno 6909 bound_to 6896
  144.8557  140.6138  143.5361 H   0  0  0  0  0  0  0  0  0  0  0  0  # atno 7974 bound_to 7965
  154.5485  140.0731  156.8629 H   0  0  0  0  0  0  0  0  0  0  0  0  # atno 8008 bound_to 7997
  155.3039  140.3386  155.4228 H   0  0  0  0  0  0  0  0  0  0  0  0  # atno 8009 bound_to 7997
  156.1940  140.1697  156.8021 H   0  0  0  0  0  0  0  0  0  0  0  0  # atno 8010 bound_to 7997
  140.7176  143.3514  151.2148 H   0  0  0  0  0  0  0  0  0  0  0  0  # atno 10167 bound_to 10162
  156.3579  130.4319  149.7648 H   0  0  0  0  0  0  0  0  0  0  0  0  # atno 10718 bound_to 10713
  153.7729  135.6911  153.4903 H   0  0  0  0  0  0  0  0  0  0  0  0  # atno 10763 bound_to 10752
  153.1863  135.4488  155.0091 H   0  0  0  0  0  0  0  0  0  0  0  0  # atno 10764 bound_to 10752
  154.8111  135.3378  154.7237 H   0  0  0  0  0  0  0  0  0  0  0  0  # atno 10765 bound_to 10752
  139.9481  134.7276  156.0929 H   0  0  0  0  0  0  0  0  0  0  0  0  # atno 11005 bound_to 11000
  145.4411  139.1535  143.3970 LP  0  0  0  0  0  0  0  0  0  0  0  0  # atno 17320 bound_to 7965
  146.2821  140.4532  142.8772 LP  0  0  0  0  0  0  0  0  0  0  0  0  # atno 17321 bound_to 7965
  139.7046  143.9477  152.2921 LP  0  0  0  0  0  0  0  0  0  0  0  0  # atno 17342 bound_to 10162
  139.9181  144.6816  150.8490 LP  0  0  0  0  0  0  0  0  0  0  0  0  # atno 17343 bound_to 10162
  156.4824  130.8047  151.3061 LP  0  0  0  0  0  0  0  0  0  0  0  0  # atno 17370 bound_to 10713
  157.7470  131.0001  150.2916 LP  0  0  0  0  0  0  0  0  0  0  0  0  # atno 17371 bound_to 10713
  141.1137  133.6635  156.3041 LP  0  0  0  0  0  0  0  0  0  0  0  0  # atno 17394 bound_to 11000
  140.5785  134.5769  157.5474 LP  0  0  0  0  0  0  0  0  0  0  0  0  # atno 17395 bound_to 11000

$$$$
