AV-unprocessed.smi:1896|AV-procd|sdf|7683|dock1
  -GOLD-   22720 9423D 1   1.00000     0.00000
 Structure written by MMmdl.
 47 48  0  0  0  0  0  0  0  0  2 V2000
  150.6029  145.5477  160.1247 C   0  0  0  0  0  0  0  0  0  0  0  0
  151.4728  144.3415  160.3341 C   0  0  0  0  0  0  0  0  0  0  0  0
  151.8316  144.0155  161.5643 N   0  0  0  0  0  0  0  0  0  0  0  0
  152.6024  142.9193  161.4196 N   0  0  0  0  0  0  0  0  0  0  0  0
  153.1727  142.2904  162.5949 C   0  0  0  0  0  0  0  0  0  0  0  0
  152.7346  142.5541  160.0942 C   0  0  0  0  0  0  0  0  0  0  0  0
  153.5505  141.3742  159.6737 C   0  0  0  0  0  0  0  0  0  0  0  0
  152.0131  143.4544  159.3559 C   0  0  0  0  0  0  0  0  0  0  0  0
  151.8321  143.5123  157.8600 C   0  0  0  0  0  0  0  0  0  0  0  0
  151.2273  142.1972  157.3702 C   0  0  0  0  0  0  0  0  0  0  0  0
  151.8374  141.1401  157.5288 O   0  0  0  0  0  0  0  0  0  0  0  0
  150.0343  142.2753  156.7630 N   0  0  0  0  0  0  0  0  0  0  0  0
  149.3318  141.1384  156.1808 C   0  0  0  0  0  0  0  0  0  0  0  0
  148.7986  141.4466  154.7601 C   0  0  1  0  0  0  0  0  0  0  0  0
  148.4042  140.1461  154.0242 C   0  0  0  0  0  0  0  0  0  0  0  0
  147.6470  142.3946  154.8040 N   0  3  0  0  0  0  0  0  0  0  0  0
  146.8861  142.5456  153.5440 C   0  0  0  0  0  0  0  0  0  0  0  0
  145.5422  143.1315  153.9609 C   0  0  0  0  0  0  0  0  0  0  0  0
  145.2623  142.4372  155.2883 C   0  0  0  0  0  0  0  0  0  0  0  0
  146.6483  142.1292  155.8712 C   0  0  0  0  0  0  0  0  0  0  0  0
  151.2098  146.4354  159.9483 H   0  0  0  0  0  0  0  0  0  0  0  0
  149.9742  145.7436  160.9940 H   0  0  0  0  0  0  0  0  0  0  0  0
  149.9435  145.4179  159.2667 H   0  0  0  0  0  0  0  0  0  0  0  0
  152.8675  141.2447  162.6359 H   0  0  0  0  0  0  0  0  0  0  0  0
  152.8347  142.7912  163.5033 H   0  0  0  0  0  0  0  0  0  0  0  0
  154.2607  142.3433  162.5470 H   0  0  0  0  0  0  0  0  0  0  0  0
  153.5965  141.2887  158.5883 H   0  0  0  0  0  0  0  0  0  0  0  0
  153.1247  140.4502  160.0652 H   0  0  0  0  0  0  0  0  0  0  0  0
  154.5729  141.4589  160.0421 H   0  0  0  0  0  0  0  0  0  0  0  0
  151.1755  144.3318  157.5668 H   0  0  0  0  0  0  0  0  0  0  0  0
  152.7782  143.6947  157.3491 H   0  0  0  0  0  0  0  0  0  0  0  0
  149.6021  143.1836  156.6738 H   0  0  0  0  0  0  0  0  0  0  0  0
  150.0085  140.2825  156.1500 H   0  0  0  0  0  0  0  0  0  0  0  0
  148.5138  140.8757  156.8526 H   0  0  0  0  0  0  0  0  0  0  0  0
  149.6001  141.9272  154.1962 H   0  0  0  0  0  0  0  0  0  0  0  0
  149.2518  139.4689  153.9240 H   0  0  0  0  0  0  0  0  0  0  0  0
  148.0474  140.3349  153.0122 H   0  0  0  0  0  0  0  0  0  0  0  0
  147.6169  139.6138  154.5586 H   0  0  0  0  0  0  0  0  0  0  0  0
  147.4024  143.1853  152.8275 H   0  0  0  0  0  0  0  0  0  0  0  0
  146.7344  141.5674  153.0845 H   0  0  0  0  0  0  0  0  0  0  0  0
  145.6387  144.2071  154.1169 H   0  0  0  0  0  0  0  0  0  0  0  0
  144.7583  142.9666  153.2210 H   0  0  0  0  0  0  0  0  0  0  0  0
  144.6525  143.0474  155.9553 H   0  0  0  0  0  0  0  0  0  0  0  0
  144.7246  141.5053  155.1086 H   0  0  0  0  0  0  0  0  0  0  0  0
  146.6806  141.0912  156.2057 H   0  0  0  0  0  0  0  0  0  0  0  0
  146.8662  142.7626  156.7318 H   0  0  0  0  0  0  0  0  0  0  0  0
  148.0268  143.3094  155.0022 H   0  0  0  0  0  0  0  0  0  0  0  0
  1  2  1  0  0  0  0
  1 21  1  0  0  0  0
  1 22  1  0  0  0  0
  1 23  1  0  0  0  0
  2  8  1  0  0  0  0
  2  3  2  0  0  0  0
  3  4  1  0  0  0  0
  4  5  1  0  0  0  0
  4  6  1  0  0  0  0
  5 24  1  0  0  0  0
  5 25  1  0  0  0  0
  5 26  1  0  0  0  0
  6  7  1  0  0  0  0
  6  8  2  0  0  0  0
  7 27  1  0  0  0  0
  7 28  1  0  0  0  0
  7 29  1  0  0  0  0
  8  9  1  0  0  0  0
  9 10  1  0  0  0  0
  9 30  1  0  0  0  0
  9 31  1  0  0  0  0
 10 11  2  0  0  0  0
 10 12  1  0  0  0  0
 12 13  1  0  0  0  0
 12 32  1  0  0  0  0
 13 14  1  0  0  0  0
 13 33  1  0  0  0  0
 13 34  1  0  0  0  0
 14 15  1  0  0  0  0
 14 16  1  0  0  0  0
 14 35  1  0  0  0  0
 15 36  1  0  0  0  0
 15 37  1  0  0  0  0
 15 38  1  0  0  0  0
 16 20  1  0  0  0  0
 16 17  1  0  0  0  0
 16 47  1  0  0  0  0
 17 18  1  0  0  0  0
 17 39  1  0  0  0  0
 17 40  1  0  0  0  0
 18 19  1  0  0  0  0
 18 41  1  0  0  0  0
 18 42  1  0  0  0  0
 19 20  1  0  0  0  0
 19 43  1  0  0  0  0
 19 44  1  0  0  0  0
 20 45  1  0  0  0  0
 20 46  1  0  0  0  0
M  CHG  1  16   1
M  END
> <s_m_source_file>
AV-unprocessed.smi

> <i_m_source_file_index>
1896

> <i_lp_mmshare_version>
43012

> <i_f3d_flags>
0

> <s_epik_input>
W0NIM11jMW5uKFtDSDNdKWMoW0NIM10pYzFbQ0gyXUMoPU8pW05IXVtDSDJdW0NASF0oW0NIM10pTjJbQ0gyXVtDSDJdW0NIMl1bQ0gyXTI=

> <s_epik_cmdline>
J2VwaWtfcHl0aG9uJywgJy1waCcsICc3LjAnLCAnLXRuJywgJzgnLCAnLW1hJywgJzIwMCcsICctbWV0YWxfYmluZGluZycsICctaW1hZScsICc8aW5maWxlLm1hZT4nLCAnLW9tYWUnLCAnPG91dGZpbGUubWFlPic=

> <r_lp_tautomer_probability>
1

> <r_epik_Ionization_Penalty>
0.00723064

> <r_epik_Ionization_Penalty_Charging>
0.0050435

> <r_epik_Ionization_Penalty_Neutral>
0.00218714

> <r_epik_State_Penalty>
-0

> <r_epik_Charging_Adjusted_Penalty>
0.0050435

> <i_epik_Tot_Q>
1

> <i_epik_Tot_abs_Q>
1

> <r_epik_Metal_State_Penalty>
-0

> <b_epik_Metal_Only>
0

> <s_lp_Force_Field>
OPLS_2005

> <r_lp_Energy>
24.4883

> <b_lp_Chiralities_Consistent>
1

> <s_lp_Variant>
AV-unprocessed.smi:1896-2

> <Gold.Version>
5.8.1

> <Gold.Id.Protein>
6NUR|6NUR_protein|mol2

> <Gold.PLP.Fitness>
56.8415

> <Gold.PLP.PLP>
-48.6506

> <Gold.PLP.part.hbond>
-2.0000

> <Gold.PLP.part.metal>
0.0000

> <Gold.PLP.part.buried>
-6.2642

> <Gold.PLP.part.nonpolar>
-39.9536

> <Gold.PLP.part.repulsive>
0.3321

> <Gold.PLP.ligand.clash>
0.0000

> <Gold.PLP.ligand.torsion>
0.4411

> <Gold.PLP.Chemscore.Hbond>
3.0000

> <Gold.PLP.Chemscore.CHOScore>
0.0000

> <Gold.PLP.Chemscore.Metal>
0.0000

> <Gold.Chemscore.Hbonds>
donor molecule, donor type, donor heavy atom, donor atom, acceptor molecule, acceptor atom, score
      L1  H    12    32       P1  8028  1.00
      L1  H    16    47       P1  8028  2.00

> <Gold.PLP.Chemscore.Internal.Correction>
0.0731

> <Gold.Rescore>
     Score         DG    S(hbond)    S(metal)    S(lipo)     H(rot)  DE(clash)    DE(int)     intcor
     19.23     -20.63       1.79        0.00     114.63       1.65       0.90       0.51       ----

> <Gold.Chemscore.Fitness>
19.2264

> <Gold.Chemscore.DG>
-20.6336

> <Gold.Chemscore.ZeroCoef>
-5.4800

> <Gold.Chemscore.Hbond>
1.7858

> <Gold.Chemscore.Metal>
0.0000

> <Gold.Chemscore.Lipo>
114.6295

> <Gold.Chemscore.Internal_Hbond>
0.0000

> <Gold.Chemscore.DEClash>
0.9008

> <Gold.Chemscore.DEInternal>
0.5064

> <Gold.Chemscore.Rot>
1.6495

> <Gold.Chemscore.Internal.Correction>
   9.000000E+99

> <Gold.Chemscore.Hbonds>
donor molecule, donor type, donor heavy atom, donor atom, acceptor molecule, acceptor atom, score
      L1  H    12    32       P1  8028  0.96
      L1  H    16    47       P1  8028  0.85

> <Gold.Chemscore.Hbond.Weighted>
-5.9647

> <Gold.Chemscore.Metal.Weighted>
-0.0000

> <Gold.Chemscore.Lipo.Weighted>
-13.4116

> <Gold.Chemscore.Internal_Hbond.Weighted>
0.0000

> <Gold.Chemscore.DEClash.Weighted>
0.9008

> <Gold.Chemscore.DEInternal.Weighted>
0.5064

> <Gold.Chemscore.Rot.Weighted>
4.2227

> <Gold.Chemscore.Internal.Correction.Weighted>
   9.000000E+99

> <Gold.Protein.RotatedTorsions>
[ 6907 6896 6895 6894 ] final  117.68 input  -60.11 | X-H torsion
[ 7974 7965 7964 7962 ] final   69.92 input  175.53 | X-H torsion
[ 8008 7997 7996 7995 ] final  -75.94 input   59.86 | X-H torsion
[ 10167 10162 10161 10158 ] final  123.46 input  -65.29 | X-H torsion
[ 10718 10713 10712 10709 ] final  -43.62 input   66.30 | X-H torsion
[ 10763 10752 10751 10750 ] final    3.80 input  -60.55 | X-H torsion
[ 11005 11000 10999 10996 ] final  -37.49 input  -57.11 | X-H torsion

> <Gold.Protein.ActiveResidues>
 VAL166  LYS551  ARG553  GLY616  TRP617  ASP618  TYR619  PRO620  LYS621  CYS622 
 ASP623  PHE694  ASN695  SER759  ASP760  ASP761  ALA762  ILE779  LEU786  VAL792 
 PHE793  MET794  SER795  GLU796  ALA797  LYS798  CYS799  TRP800  GLU811  SER814 

> <Gold.Protein.RotatedAtoms>
  152.4595  133.7792  159.6841 H   0  0  0  0  0  0  0  0  0  0  0  0  # atno 6907 bound_to 6896
  150.8533  133.7743  159.3024 H   0  0  0  0  0  0  0  0  0  0  0  0  # atno 6908 bound_to 6896
  151.5332  135.1071  159.9959 H   0  0  0  0  0  0  0  0  0  0  0  0  # atno 6909 bound_to 6896
  145.7845  139.2903  143.1246 H   0  0  0  0  0  0  0  0  0  0  0  0  # atno 7974 bound_to 7965
  154.5461  140.0735  156.8590 H   0  0  0  0  0  0  0  0  0  0  0  0  # atno 8008 bound_to 7997
  155.3085  140.3389  155.4226 H   0  0  0  0  0  0  0  0  0  0  0  0  # atno 8009 bound_to 7997
  156.1919  140.1689  156.8061 H   0  0  0  0  0  0  0  0  0  0  0  0  # atno 8010 bound_to 7997
  139.5798  144.6981  151.3557 H   0  0  0  0  0  0  0  0  0  0  0  0  # atno 10167 bound_to 10162
  156.2471  130.4185  149.8692 H   0  0  0  0  0  0  0  0  0  0  0  0  # atno 10718 bound_to 10713
  153.2790  135.6939  153.7405 H   0  0  0  0  0  0  0  0  0  0  0  0  # atno 10763 bound_to 10752
  153.6399  135.3395  155.3069 H   0  0  0  0  0  0  0  0  0  0  0  0  # atno 10764 bound_to 10752
  154.8489  135.4429  154.1837 H   0  0  0  0  0  0  0  0  0  0  0  0  # atno 10765 bound_to 10752
  140.9956  133.6982  156.1929 H   0  0  0  0  0  0  0  0  0  0  0  0  # atno 11005 bound_to 11000
  146.0040  140.8495  143.0004 LP  0  0  0  0  0  0  0  0  0  0  0  0  # atno 17320 bound_to 7965
  144.6791  140.2393  143.7345 LP  0  0  0  0  0  0  0  0  0  0  0  0  # atno 17321 bound_to 7965
  140.7078  143.7470  150.7512 LP  0  0  0  0  0  0  0  0  0  0  0  0  # atno 17342 bound_to 10162
  140.0999  143.4797  152.2431 LP  0  0  0  0  0  0  0  0  0  0  0  0  # atno 17343 bound_to 10162
  156.6254  130.8643  151.3484 LP  0  0  0  0  0  0  0  0  0  0  0  0  # atno 17370 bound_to 10713
  157.7199  130.9545  150.1399 LP  0  0  0  0  0  0  0  0  0  0  0  0  # atno 17371 bound_to 10713
  140.6971  134.4604  157.5587 LP  0  0  0  0  0  0  0  0  0  0  0  0  # atno 17394 bound_to 11000
  139.9013  134.8549  156.1884 LP  0  0  0  0  0  0  0  0  0  0  0  0  # atno 17395 bound_to 11000

$$$$
