AV-unprocessed.smi:1782|AV-procd|sdf|7191|dock2
  -GOLD-   22720 8433D 1   1.00000     0.00000
 Structure written by MMmdl.
 42 44  0  0  0  0  0  0  0  0  2 V2000
  149.9800  139.9183  157.0039 O   0  0  0  0  0  0  0  0  0  0  0  0
  150.6677  140.4995  156.1637 C   0  0  0  0  0  0  0  0  0  0  0  0
  151.1074  141.9540  156.3823 C   0  0  0  0  0  0  0  0  0  0  0  0
  151.4803  142.2351  157.7796 N   0  0  0  0  0  0  0  0  0  0  0  0
  150.9502  143.4011  158.3605 C   0  0  0  0  0  0  0  0  0  0  0  0
  151.2335  143.7518  159.6220 C   0  0  0  0  0  0  0  0  0  0  0  0
  152.1098  142.8987  160.3872 C   0  0  0  0  0  0  0  0  0  0  0  0
  152.6347  141.7702  159.8561 C   0  0  0  0  0  0  0  0  0  0  0  0
  153.5735  140.8626  160.6478 C   0  0  0  0  0  0  0  0  0  0  0  0
  153.1593  139.5966  160.5868 F   0  0  0  0  0  0  0  0  0  0  0  0
  154.8114  140.9202  160.1546 F   0  0  0  0  0  0  0  0  0  0  0  0
  153.6317  141.2116  161.9340 F   0  0  0  0  0  0  0  0  0  0  0  0
  152.3126  141.3909  158.4652 C   0  0  0  0  0  0  0  0  0  0  0  0
  152.7632  140.3722  157.9374 O   0  0  0  0  0  0  0  0  0  0  0  0
  151.0856  139.9172  155.0300 N   0  0  0  0  0  0  0  0  0  0  0  0
  150.7522  138.5554  154.6277 C   0  0  1  0  0  0  0  0  0  0  0  0
  151.4416  137.4663  155.4556 C   0  0  0  0  0  0  0  0  0  0  0  0
  150.4521  136.2887  155.4505 C   0  0  0  0  0  0  0  0  0  0  0  0
  149.2093  136.7764  154.8084 N   0  3  1  0  0  0  0  0  0  0  0  0
  147.9679  136.2126  155.3791 C   0  0  0  0  0  0  0  0  0  0  0  0
  147.5602  134.8994  154.7553 C   0  0  0  0  0  0  0  0  0  0  0  0
  146.8184  136.1702  154.4012 C   0  0  0  0  0  0  0  0  0  0  0  0
  149.2725  138.2478  154.8353 C   0  0  0  0  0  0  0  0  0  0  0  0
  151.9409  142.1595  155.7093 H   0  0  0  0  0  0  0  0  0  0  0  0
  150.3124  142.6324  156.0667 H   0  0  0  0  0  0  0  0  0  0  0  0
  150.3096  143.9888  157.7189 H   0  0  0  0  0  0  0  0  0  0  0  0
  150.8207  144.6521  160.0529 H   0  0  0  0  0  0  0  0  0  0  0  0
  152.3445  143.1836  161.4018 H   0  0  0  0  0  0  0  0  0  0  0  0
  151.6543  140.4614  154.3969 H   0  0  0  0  0  0  0  0  0  0  0  0
  150.9931  138.4150  153.5717 H   0  0  0  0  0  0  0  0  0  0  0  0
  152.4154  137.1940  155.0473 H   0  0  0  0  0  0  0  0  0  0  0  0
  151.5975  137.8063  156.4807 H   0  0  0  0  0  0  0  0  0  0  0  0
  150.8407  135.4380  154.8900 H   0  0  0  0  0  0  0  0  0  0  0  0
  150.2633  135.9547  156.4721 H   0  0  0  0  0  0  0  0  0  0  0  0
  147.7888  136.4005  156.4364 H   0  0  0  0  0  0  0  0  0  0  0  0
  148.2085  134.4665  153.9953 H   0  0  0  0  0  0  0  0  0  0  0  0
  147.0439  134.1811  155.3891 H   0  0  0  0  0  0  0  0  0  0  0  0
  145.8135  136.2882  154.8020 H   0  0  0  0  0  0  0  0  0  0  0  0
  146.9729  136.5817  153.4052 H   0  0  0  0  0  0  0  0  0  0  0  0
  148.9367  138.6134  155.8080 H   0  0  0  0  0  0  0  0  0  0  0  0
  148.6394  138.6908  154.0657 H   0  0  0  0  0  0  0  0  0  0  0  0
  149.2587  136.5031  153.8372 H   0  0  0  0  0  0  0  0  0  0  0  0
  1  2  2  0  0  0  0
  2  3  1  0  0  0  0
  2 15  1  0  0  0  0
  3  4  1  0  0  0  0
  3 24  1  0  0  0  0
  3 25  1  0  0  0  0
  4 13  1  0  0  0  0
  4  5  1  0  0  0  0
  5  6  2  0  0  0  0
  5 26  1  0  0  0  0
  6  7  1  0  0  0  0
  6 27  1  0  0  0  0
  7  8  2  0  0  0  0
  7 28  1  0  0  0  0
  8  9  1  0  0  0  0
  8 13  1  0  0  0  0
  9 10  1  0  0  0  0
  9 11  1  0  0  0  0
  9 12  1  0  0  0  0
 13 14  2  0  0  0  0
 15 16  1  0  0  0  0
 15 29  1  0  0  0  0
 16 23  1  0  0  0  0
 16 17  1  0  0  0  0
 16 30  1  0  0  0  0
 17 18  1  0  0  0  0
 17 31  1  0  0  0  0
 17 32  1  0  0  0  0
 18 19  1  0  0  0  0
 18 33  1  0  0  0  0
 18 34  1  0  0  0  0
 19 20  1  0  0  0  0
 19 23  1  0  0  0  0
 19 42  1  0  0  0  0
 20 22  1  0  0  0  0
 20 21  1  0  0  0  0
 20 35  1  0  0  0  0
 21 22  1  0  0  0  0
 21 36  1  0  0  0  0
 21 37  1  0  0  0  0
 22 38  1  0  0  0  0
 22 39  1  0  0  0  0
 23 40  1  0  0  0  0
 23 41  1  0  0  0  0
M  CHG  1  19   1
M  END
> <s_m_source_file>
AV-unprocessed.smi

> <i_m_source_file_index>
1782

> <i_lp_mmshare_version>
43012

> <i_f3d_flags>
0

> <s_epik_input>
W0NIMl0xW0NIMl1bQ0hdMU4oW0NIMl0yKVtDSDJdW0NIMl1bQ0BIXTJbTkhdQyg9TylbQ0gyXW4zW2NIXVtjSF1bY0hdYyhDKEYpKEYpRiljMz1P

> <s_epik_cmdline>
J2VwaWtfcHl0aG9uJywgJy1waCcsICc3LjAnLCAnLXRuJywgJzgnLCAnLW1hJywgJzIwMCcsICctbWV0YWxfYmluZGluZycsICctaW1hZScsICc8aW5maWxlLm1hZT4nLCAnLW9tYWUnLCAnPG91dGZpbGUubWFlPic=

> <r_lp_tautomer_probability>
1

> <r_epik_Ionization_Penalty>
0.00106789

> <r_epik_Ionization_Penalty_Charging>
0.00106781

> <r_epik_Ionization_Penalty_Neutral>
8.2288e-08

> <r_epik_State_Penalty>
0.000699156

> <r_epik_Charging_Adjusted_Penalty>
0.00176697

> <i_epik_Tot_Q>
1

> <i_epik_Tot_abs_Q>
1

> <r_epik_Metal_State_Penalty>
-0

> <b_epik_Metal_Only>
0

> <s_lp_Force_Field>
OPLS_2005

> <r_lp_Energy>
45.6714

> <b_lp_Chiralities_Consistent>
1

> <s_lp_Variant>
AV-unprocessed.smi:1782-4

> <Gold.Version>
5.8.1

> <Gold.Id.Protein>
6NUR|6NUR_protein|mol2

> <Gold.PLP.Fitness>
49.3659

> <Gold.PLP.PLP>
-39.2020

> <Gold.PLP.part.hbond>
-2.0000

> <Gold.PLP.part.metal>
0.0000

> <Gold.PLP.part.buried>
-4.2267

> <Gold.PLP.part.nonpolar>
-33.6061

> <Gold.PLP.part.repulsive>
2.3066

> <Gold.PLP.ligand.clash>
0.1087

> <Gold.PLP.ligand.torsion>
1.4471

> <Gold.PLP.Chemscore.Hbond>
2.8480

> <Gold.PLP.Chemscore.CHOScore>
1.0000

> <Gold.PLP.Chemscore.Metal>
0.0000

> <Gold.Chemscore.Hbonds>
donor molecule, donor type, donor heavy atom, donor atom, acceptor molecule, acceptor atom, score
      L1  H    19    42       P1  7948  2.00
      P1  H  7997  8009       L1    14  0.83
      L1  C     5    26       P1  8028  0.87

> <Gold.PLP.Chemscore.Internal.Correction>
1.6229

> <Gold.Rescore>
     Score         DG    S(hbond)    S(metal)    S(lipo)     H(rot)  DE(clash)    DE(int)     intcor
      9.64     -16.86       1.94        0.00      81.41       1.81       0.56       6.65       ----

> <Gold.Chemscore.Fitness>
9.6447

> <Gold.Chemscore.DG>
-16.8562

> <Gold.Chemscore.ZeroCoef>
-5.4800

> <Gold.Chemscore.Hbond>
1.9416

> <Gold.Chemscore.Metal>
0.0000

> <Gold.Chemscore.Lipo>
81.4113

> <Gold.Chemscore.Internal_Hbond>
0.0000

> <Gold.Chemscore.DEClash>
0.5613

> <Gold.Chemscore.DEInternal>
6.6503

> <Gold.Chemscore.Rot>
1.8101

> <Gold.Chemscore.Internal.Correction>
   9.000000E+99

> <Gold.Chemscore.Hbonds>
donor molecule, donor type, donor heavy atom, donor atom, acceptor molecule, acceptor atom, score
      L1  H    19    42       P1  7948  0.91
      P1  H  7997  8009       L1    14  0.79

> <Gold.Chemscore.Hbond.Weighted>
-6.4849

> <Gold.Chemscore.Metal.Weighted>
-0.0000

> <Gold.Chemscore.Lipo.Weighted>
-9.5251

> <Gold.Chemscore.Internal_Hbond.Weighted>
0.0000

> <Gold.Chemscore.DEClash.Weighted>
0.5613

> <Gold.Chemscore.DEInternal.Weighted>
6.6503

> <Gold.Chemscore.Rot.Weighted>
4.6338

> <Gold.Chemscore.Internal.Correction.Weighted>
   9.000000E+99

> <Gold.Protein.RotatedTorsions>
[ 6907 6896 6895 6894 ] final  155.00 input  -60.11 | X-H torsion
[ 7974 7965 7964 7962 ] final  -52.58 input  175.53 | X-H torsion
[ 8008 7997 7996 7995 ] final  173.42 input   59.86 | X-H torsion
[ 10167 10162 10161 10158 ] final   52.72 input  -65.29 | X-H torsion
[ 10718 10713 10712 10709 ] final  120.14 input   66.30 | X-H torsion
[ 10763 10752 10751 10750 ] final  -96.89 input  -60.55 | X-H torsion
[ 11005 11000 10999 10996 ] final  -98.17 input  -57.11 | X-H torsion

> <Gold.Protein.ActiveResidues>
 VAL166  LYS551  ARG553  GLY616  TRP617  ASP618  TYR619  PRO620  LYS621  CYS622 
 ASP623  PHE694  ASN695  SER759  ASP760  ASP761  ALA762  ILE779  LEU786  VAL792 
 PHE793  MET794  SER795  GLU796  ALA797  LYS798  CYS799  TRP800  GLU811  SER814 

> <Gold.Protein.RotatedAtoms>
  152.0504  133.4016  159.4374 H   0  0  0  0  0  0  0  0  0  0  0  0  # atno 6907 bound_to 6896
  150.6870  134.3315  159.4838 H   0  0  0  0  0  0  0  0  0  0  0  0  # atno 6908 bound_to 6896
  152.1124  134.9264  160.0617 H   0  0  0  0  0  0  0  0  0  0  0  0  # atno 6909 bound_to 6896
  145.9064  140.7952  142.9717 H   0  0  0  0  0  0  0  0  0  0  0  0  # atno 7974 bound_to 7965
  156.1077  140.1460  156.9381 H   0  0  0  0  0  0  0  0  0  0  0  0  # atno 8008 bound_to 7997
  154.4745  140.0899  156.7272 H   0  0  0  0  0  0  0  0  0  0  0  0  # atno 8009 bound_to 7997
  155.4651  140.3439  155.4320 H   0  0  0  0  0  0  0  0  0  0  0  0  # atno 8010 bound_to 7997
  140.2484  144.3507  150.6356 H   0  0  0  0  0  0  0  0  0  0  0  0  # atno 10167 bound_to 10162
  157.5912  131.1064  150.7994 H   0  0  0  0  0  0  0  0  0  0  0  0  # atno 10718 bound_to 10713
  154.7280  135.5067  153.8917 H   0  0  0  0  0  0  0  0  0  0  0  0  # atno 10763 bound_to 10752
  153.0923  135.6662  153.9839 H   0  0  0  0  0  0  0  0  0  0  0  0  # atno 10764 bound_to 10752
  153.9647  135.3044  155.3410 H   0  0  0  0  0  0  0  0  0  0  0  0  # atno 10765 bound_to 10752
  141.1354  133.8226  157.0804 H   0  0  0  0  0  0  0  0  0  0  0  0  # atno 11005 bound_to 11000
  144.6739  140.1757  143.7410 LP  0  0  0  0  0  0  0  0  0  0  0  0  # atno 17320 bound_to 7965
  145.8727  139.2280  143.1651 LP  0  0  0  0  0  0  0  0  0  0  0  0  # atno 17321 bound_to 7965
  140.6060  143.2168  151.6980 LP  0  0  0  0  0  0  0  0  0  0  0  0  # atno 17342 bound_to 10162
  139.5054  144.3718  152.0462 LP  0  0  0  0  0  0  0  0  0  0  0  0  # atno 17343 bound_to 10162
  156.8415  130.5050  149.5320 LP  0  0  0  0  0  0  0  0  0  0  0  0  # atno 17370 bound_to 10713
  156.0967  130.5938  150.9825 LP  0  0  0  0  0  0  0  0  0  0  0  0  # atno 17371 bound_to 10713
  140.0455  134.9832  157.1041 LP  0  0  0  0  0  0  0  0  0  0  0  0  # atno 17394 bound_to 11000
  140.4070  134.2022  155.7163 LP  0  0  0  0  0  0  0  0  0  0  0  0  # atno 17395 bound_to 11000

$$$$
