AV-unprocessed.smi:2531|AV-procd|sdf|9964|dock3
  -GOLD-   2272014 03D 1   1.00000     0.00000
 Structure written by MMmdl.
 46 48  0  0  0  0  0  0  0  0  1 V2000
  149.9084  143.6834  158.3185 O   0  0  0  0  0  0  0  0  0  0  0  0
  150.9069  142.9645  158.3754 C   0  0  0  0  0  0  0  0  0  0  0  0
  152.2899  143.5430  158.7533 C   0  0  0  0  0  0  0  0  0  0  0  0
  152.8212  143.0450  160.1084 C   0  0  0  0  0  0  0  0  0  0  0  0
  152.2175  143.9796  161.1653 C   0  0  0  0  0  0  0  0  0  0  0  0
  151.8257  145.2677  160.4252 C   0  0  0  0  0  0  0  0  0  0  0  0
  152.2397  145.0646  158.9621 C   0  0  0  0  0  0  0  0  0  0  0  0
  150.8143  141.5831  158.1788 N   0  0  0  0  0  0  0  0  0  0  0  0
  149.9563  141.0040  157.1560 C   0  0  0  0  0  0  0  0  0  0  0  0
  150.9654  139.8504  157.1259 C   0  0  0  0  0  0  0  0  0  0  0  0
  151.4051  139.3331  155.4075 S   0  0  0  0  0  0  0  0  0  0  0  0
  150.4615  139.9690  154.4752 O   0  0  0  0  0  0  0  0  0  0  0  0
  152.8535  139.4762  155.1942 O   0  0  0  0  0  0  0  0  0  0  0  0
  151.0534  137.6467  155.4301 N   0  0  0  0  0  0  0  0  0  0  0  0
  151.7172  136.8260  156.4409 C   0  0  0  0  0  0  0  0  0  0  0  0
  150.6926  135.9491  157.1729 C   0  0  0  0  0  0  0  0  0  0  0  0
  150.4483  134.6338  156.4577 C   0  0  0  0  0  0  0  0  0  0  0  0
  150.0781  134.6111  155.0959 C   0  0  0  0  0  0  0  0  0  0  0  0
  149.8701  133.3625  154.4783 C   0  0  0  0  0  0  0  0  0  0  0  0
  150.0406  132.1913  155.2413 C   0  0  0  0  0  0  0  0  0  0  0  0
  150.4133  132.3211  156.5940 C   0  0  0  0  0  0  0  0  0  0  0  0
  150.6147  133.5131  157.1961 N   0  0  0  0  0  0  0  0  0  0  0  0
  151.9752  140.7964  157.7910 C   0  0  0  0  0  0  0  0  0  0  0  0
  152.9991  143.2824  157.9675 H   0  0  0  0  0  0  0  0  0  0  0  0
  152.6028  141.9954  160.3101 H   0  0  0  0  0  0  0  0  0  0  0  0
  153.9077  143.1432  160.1195 H   0  0  0  0  0  0  0  0  0  0  0  0
  151.3314  143.5246  161.6097 H   0  0  0  0  0  0  0  0  0  0  0  0
  152.9244  144.1722  161.9731 H   0  0  0  0  0  0  0  0  0  0  0  0
  150.7470  145.4145  160.4914 H   0  0  0  0  0  0  0  0  0  0  0  0
  152.3013  146.1493  160.8559 H   0  0  0  0  0  0  0  0  0  0  0  0
  153.2357  145.4799  158.8039 H   0  0  0  0  0  0  0  0  0  0  0  0
  151.5691  145.5814  158.2742 H   0  0  0  0  0  0  0  0  0  0  0  0
  148.9621  140.7292  157.5100 H   0  0  0  0  0  0  0  0  0  0  0  0
  149.9309  141.5802  156.2289 H   0  0  0  0  0  0  0  0  0  0  0  0
  150.6648  139.0021  157.7430 H   0  0  0  0  0  0  0  0  0  0  0  0
  150.0458  137.4896  155.4414 H   0  0  0  0  0  0  0  0  0  0  0  0
  152.4751  136.2064  155.9602 H   0  0  0  0  0  0  0  0  0  0  0  0
  152.2307  137.4799  157.1468 H   0  0  0  0  0  0  0  0  0  0  0  0
  151.0346  135.7398  158.1877 H   0  0  0  0  0  0  0  0  0  0  0  0
  149.7469  136.4843  157.2723 H   0  0  0  0  0  0  0  0  0  0  0  0
  149.9575  135.5267  154.5358 H   0  0  0  0  0  0  0  0  0  0  0  0
  149.5859  133.3044  153.4379 H   0  0  0  0  0  0  0  0  0  0  0  0
  149.8903  131.2168  154.8006 H   0  0  0  0  0  0  0  0  0  0  0  0
  150.5535  131.4443  157.2088 H   0  0  0  0  0  0  0  0  0  0  0  0
  152.6369  141.3189  157.0982 H   0  0  0  0  0  0  0  0  0  0  0  0
  152.5133  140.3626  158.6340 H   0  0  0  0  0  0  0  0  0  0  0  0
  1  2  2  0  0  0  0
  2  3  1  0  0  0  0
  2  8  1  0  0  0  0
  3  7  1  0  0  0  0
  3  4  1  0  0  0  0
  3 24  1  0  0  0  0
  4  5  1  0  0  0  0
  4 25  1  0  0  0  0
  4 26  1  0  0  0  0
  5  6  1  0  0  0  0
  5 27  1  0  0  0  0
  5 28  1  0  0  0  0
  6  7  1  0  0  0  0
  6 29  1  0  0  0  0
  6 30  1  0  0  0  0
  7 31  1  0  0  0  0
  7 32  1  0  0  0  0
  8 23  1  0  0  0  0
  8  9  1  0  0  0  0
  9 10  1  0  0  0  0
  9 33  1  0  0  0  0
  9 34  1  0  0  0  0
 10 11  1  0  0  0  0
 10 23  1  0  0  0  0
 10 35  1  0  0  0  0
 11 12  2  0  0  0  0
 11 13  2  0  0  0  0
 11 14  1  0  0  0  0
 14 15  1  0  0  0  0
 14 36  1  0  0  0  0
 15 16  1  0  0  0  0
 15 37  1  0  0  0  0
 15 38  1  0  0  0  0
 16 17  1  0  0  0  0
 16 39  1  0  0  0  0
 16 40  1  0  0  0  0
 17 22  1  0  0  0  0
 17 18  2  0  0  0  0
 18 19  1  0  0  0  0
 18 41  1  0  0  0  0
 19 20  2  0  0  0  0
 19 42  1  0  0  0  0
 20 21  1  0  0  0  0
 20 43  1  0  0  0  0
 21 22  2  0  0  0  0
 21 44  1  0  0  0  0
 23 45  1  0  0  0  0
 23 46  1  0  0  0  0
M  END
> <s_m_source_file>
AV-unprocessed.smi

> <i_m_source_file_index>
2531

> <i_lp_mmshare_version>
43012

> <i_f3d_flags>
0

> <s_epik_input>
W0NIMl0xW0NIMl1bQ0gyXVtDSDJdW0NIXTFDKD1PKU4yW0NIMl1bQ0hdKFtDSDJdMilTKD1PKSg9TylbTkhdW0NIMl1bQ0gyXWMzW2NIXVtjSF1bY0hdW2NIXW4z

> <s_epik_cmdline>
J2VwaWtfcHl0aG9uJywgJy1waCcsICc3LjAnLCAnLXRuJywgJzgnLCAnLW1hJywgJzIwMCcsICctbWV0YWxfYmluZGluZycsICctaW1hZScsICc8aW5maWxlLm1hZT4nLCAnLW9tYWUnLCAnPG91dGZpbGUubWFlPic=

> <r_epik_Ionization_Penalty>
0.0203172

> <r_epik_Ionization_Penalty_Charging>
0

> <r_epik_Ionization_Penalty_Neutral>
0.0203172

> <r_epik_State_Penalty>
0.0162494

> <r_epik_Charging_Adjusted_Penalty>
0.0162494

> <i_epik_Tot_Q>
0

> <i_epik_Tot_abs_Q>
0

> <r_epik_Metal_State_Penalty>
0.0444853

> <b_epik_Metal_Only>
0

> <s_lp_Force_Field>
OPLS_2005

> <r_lp_Energy>
30.9959

> <b_lp_Chiralities_Consistent>
1

> <s_lp_Variant>
AV-unprocessed.smi:2531-1

> <Gold.Version>
5.8.1

> <Gold.Id.Protein>
6NUR|6NUR_protein|mol2

> <Gold.PLP.Fitness>
54.6807

> <Gold.PLP.PLP>
-47.2094

> <Gold.PLP.part.hbond>
-3.3916

> <Gold.PLP.part.metal>
0.0000

> <Gold.PLP.part.buried>
-8.2286

> <Gold.PLP.part.nonpolar>
-38.3294

> <Gold.PLP.part.repulsive>
1.2754

> <Gold.PLP.ligand.clash>
0.0000

> <Gold.PLP.ligand.torsion>
1.4247

> <Gold.PLP.Chemscore.Hbond>
2.8800

> <Gold.PLP.Chemscore.CHOScore>
0.0000

> <Gold.PLP.Chemscore.Metal>
0.0000

> <Gold.Chemscore.Hbonds>
donor molecule, donor type, donor heavy atom, donor atom, acceptor molecule, acceptor atom, score
      P1  H  6896  6907       L1    22  0.83
      P1  H  7989  7998       L1    12  0.95
      P1  H  7997  8008       L1    13  1.00

> <Gold.PLP.Chemscore.Internal.Correction>
1.6807

> <Gold.Rescore>
     Score         DG    S(hbond)    S(metal)    S(lipo)     H(rot)  DE(clash)    DE(int)     intcor
     21.66     -23.15       2.87        0.00     109.52       1.85       0.05       1.44       ----

> <Gold.Chemscore.Fitness>
21.6630

> <Gold.Chemscore.DG>
-23.1490

> <Gold.Chemscore.ZeroCoef>
-5.4800

> <Gold.Chemscore.Hbond>
2.8710

> <Gold.Chemscore.Metal>
0.0000

> <Gold.Chemscore.Lipo>
109.5249

> <Gold.Chemscore.Internal_Hbond>
0.0000

> <Gold.Chemscore.DEClash>
0.0471

> <Gold.Chemscore.DEInternal>
1.4389

> <Gold.Chemscore.Rot>
1.8494

> <Gold.Chemscore.Internal.Correction>
   9.000000E+99

> <Gold.Chemscore.Hbonds>
donor molecule, donor type, donor heavy atom, donor atom, acceptor molecule, acceptor atom, score
      P1  H  6896  6907       L1    22  0.74
      P1  H  7989  7998       L1    12  0.22
      P1  H  7997  8008       L1    13  1.00

> <Gold.Chemscore.Hbond.Weighted>
-9.5892

> <Gold.Chemscore.Metal.Weighted>
-0.0000

> <Gold.Chemscore.Lipo.Weighted>
-12.8144

> <Gold.Chemscore.Internal_Hbond.Weighted>
0.0000

> <Gold.Chemscore.DEClash.Weighted>
0.0471

> <Gold.Chemscore.DEInternal.Weighted>
1.4389

> <Gold.Chemscore.Rot.Weighted>
4.7346

> <Gold.Chemscore.Internal.Correction.Weighted>
   9.000000E+99

> <Gold.Protein.RotatedTorsions>
[ 6907 6896 6895 6894 ] final -132.02 input  -60.11 | X-H torsion
[ 7974 7965 7964 7962 ] final  -49.98 input  175.53 | X-H torsion
[ 8008 7997 7996 7995 ] final  -21.54 input   59.86 | X-H torsion
[ 10167 10162 10161 10158 ] final  103.69 input  -65.29 | X-H torsion
[ 10718 10713 10712 10709 ] final   90.27 input   66.30 | X-H torsion
[ 10763 10752 10751 10750 ] final   13.31 input  -60.55 | X-H torsion
[ 11005 11000 10999 10996 ] final  -76.11 input  -57.11 | X-H torsion

> <Gold.Protein.ActiveResidues>
 VAL166  LYS551  ARG553  GLY616  TRP617  ASP618  TYR619  PRO620  LYS621  CYS622 
 ASP623  PHE694  ASN695  SER759  ASP760  ASP761  ALA762  ILE779  LEU786  VAL792 
 PHE793  MET794  SER795  GLU796  ALA797  LYS798  CYS799  TRP800  GLU811  SER814 

> <Gold.Protein.RotatedAtoms>
  150.9576  133.6480  159.2759 H   0  0  0  0  0  0  0  0  0  0  0  0  # atno 6907 bound_to 6896
  151.3814  135.0939  159.9507 H   0  0  0  0  0  0  0  0  0  0  0  0  # atno 6908 bound_to 6896
  152.5135  133.9110  159.7542 H   0  0  0  0  0  0  0  0  0  0  0  0  # atno 6909 bound_to 6896
  145.9347  140.7717  142.9582 H   0  0  0  0  0  0  0  0  0  0  0  0  # atno 7974 bound_to 7965
  154.4699  140.2032  156.0022 H   0  0  0  0  0  0  0  0  0  0  0  0  # atno 8008 bound_to 7997
  156.0992  140.3246  155.7890 H   0  0  0  0  0  0  0  0  0  0  0  0  # atno 8009 bound_to 7997
  155.4826  140.0540  157.2956 H   0  0  0  0  0  0  0  0  0  0  0  0  # atno 8010 bound_to 7997
  139.7241  144.7051  151.0826 H   0  0  0  0  0  0  0  0  0  0  0  0  # atno 10167 bound_to 10162
  157.6958  131.0364  150.3552 H   0  0  0  0  0  0  0  0  0  0  0  0  # atno 10718 bound_to 10713
  153.1733  135.6816  153.8577 H   0  0  0  0  0  0  0  0  0  0  0  0  # atno 10763 bound_to 10752
  153.7933  135.3166  155.3382 H   0  0  0  0  0  0  0  0  0  0  0  0  # atno 10764 bound_to 10752
  154.8013  135.4776  154.0374 H   0  0  0  0  0  0  0  0  0  0  0  0  # atno 10765 bound_to 10752
  141.1651  133.6971  156.7619 H   0  0  0  0  0  0  0  0  0  0  0  0  # atno 11005 bound_to 11000
  144.6770  140.2184  143.7369 LP  0  0  0  0  0  0  0  0  0  0  0  0  # atno 17320 bound_to 7965
  145.8379  139.2116  143.1845 LP  0  0  0  0  0  0  0  0  0  0  0  0  # atno 17321 bound_to 7965
  140.7759  143.5128  150.9632 LP  0  0  0  0  0  0  0  0  0  0  0  0  # atno 17342 bound_to 10162
  139.8815  143.7066  152.3156 LP  0  0  0  0  0  0  0  0  0  0  0  0  # atno 17343 bound_to 10162
  156.3995  130.3913  149.6970 LP  0  0  0  0  0  0  0  0  0  0  0  0  # atno 17370 bound_to 10713
  156.4292  130.7807  151.2826 LP  0  0  0  0  0  0  0  0  0  0  0  0  # atno 17371 bound_to 10713
  140.2528  134.8527  157.3683 LP  0  0  0  0  0  0  0  0  0  0  0  0  # atno 17394 bound_to 11000
  140.1686  134.4637  155.7846 LP  0  0  0  0  0  0  0  0  0  0  0  0  # atno 17395 bound_to 11000

$$$$
