AV-unprocessed.smi:3238|AV-procd|sdf|12377|dock10
  -GOLD-   2272018243D 1   1.00000     0.00000
 Structure written by MMmdl.
 37 39  0  0  0  0  0  0  0  0  1 V2000
  146.8371  138.9897  152.4467 C   0  0  0  0  0  0  0  0  0  0  0  0
  148.1270  138.7191  153.0631 N   0  0  0  0  0  0  0  0  0  0  0  0
  148.7953  139.5926  153.8304 C   0  0  0  0  0  0  0  0  0  0  0  0
  148.3720  140.7217  154.0838 O   0  0  0  0  0  0  0  0  0  0  0  0
  150.1322  139.0989  154.3985 C   0  0  0  0  0  0  0  0  0  0  0  0
  150.3911  139.6128  155.7812 C   0  0  0  0  0  0  0  0  0  0  0  0
  149.5301  139.3980  156.7697 N   0  0  0  0  0  0  0  0  0  0  0  0
  150.1420  140.0119  157.8715 O   0  0  0  0  0  0  0  0  0  0  0  0
  151.3040  140.5315  157.4078 C   0  0  0  0  0  0  0  0  0  0  0  0
  152.2246  141.2155  158.3644 C   0  0  0  0  0  0  0  0  0  0  0  0
  151.5751  142.4282  159.0596 C   0  0  2  0  0  0  0  0  0  0  0  0
  150.7030  143.2986  158.1240 C   0  0  0  0  0  0  0  0  0  0  0  0
  151.3037  144.7054  158.2957 C   0  0  1  0  0  0  0  0  0  0  0  0
  150.9859  145.2337  159.7068 C   0  0  0  0  0  0  0  0  0  0  0  0
  151.9084  144.3843  160.6018 C   0  0  0  0  0  0  0  0  0  0  0  0
  152.6033  143.4551  159.5878 C   0  0  2  0  0  0  0  0  0  0  0  0
  152.7910  144.3934  158.3995 C   0  0  0  0  0  0  0  0  0  0  0  0
  151.5204  140.2972  156.1160 N   0  0  0  0  0  0  0  0  0  0  0  0
  146.4961  138.1119  151.8979 H   0  0  0  0  0  0  0  0  0  0  0  0
  146.9078  139.8238  151.7474 H   0  0  0  0  0  0  0  0  0  0  0  0
  146.0881  139.2313  153.2022 H   0  0  0  0  0  0  0  0  0  0  0  0
  148.5354  137.8100  152.9003 H   0  0  0  0  0  0  0  0  0  0  0  0
  150.1324  138.0082  154.4062 H   0  0  0  0  0  0  0  0  0  0  0  0
  150.9478  139.4114  153.7448 H   0  0  0  0  0  0  0  0  0  0  0  0
  152.5333  140.4855  159.1133 H   0  0  0  0  0  0  0  0  0  0  0  0
  153.1297  141.5104  157.8326 H   0  0  0  0  0  0  0  0  0  0  0  0
  150.9773  142.0570  159.8937 H   0  0  0  0  0  0  0  0  0  0  0  0
  150.7916  142.9809  157.0843 H   0  0  0  0  0  0  0  0  0  0  0  0
  149.6461  143.2622  158.3902 H   0  0  0  0  0  0  0  0  0  0  0  0
  151.0319  145.3966  157.4976 H   0  0  0  0  0  0  0  0  0  0  0  0
  151.2353  146.2921  159.7932 H   0  0  0  0  0  0  0  0  0  0  0  0
  149.9323  145.1152  159.9629 H   0  0  0  0  0  0  0  0  0  0  0  0
  152.6382  145.0176  161.1083 H   0  0  0  0  0  0  0  0  0  0  0  0
  151.3588  143.8346  161.3669 H   0  0  0  0  0  0  0  0  0  0  0  0
  153.5208  143.0084  159.9725 H   0  0  0  0  0  0  0  0  0  0  0  0
  153.1939  143.9026  157.5123 H   0  0  0  0  0  0  0  0  0  0  0  0
  153.4015  145.2682  158.6308 H   0  0  0  0  0  0  0  0  0  0  0  0
  1  2  1  0  0  0  0
  1 19  1  0  0  0  0
  1 20  1  0  0  0  0
  1 21  1  0  0  0  0
  2  3  1  0  0  0  0
  2 22  1  0  0  0  0
  3  4  2  0  0  0  0
  3  5  1  0  0  0  0
  5  6  1  0  0  0  0
  5 23  1  0  0  0  0
  5 24  1  0  0  0  0
  6 18  1  0  0  0  0
  6  7  2  0  0  0  0
  7  8  1  0  0  0  0
  8  9  1  0  0  0  0
  9 10  1  0  0  0  0
  9 18  2  0  0  0  0
 10 11  1  0  0  0  0
 10 25  1  0  0  0  0
 10 26  1  0  0  0  0
 11 16  1  0  0  0  0
 11 12  1  0  0  0  0
 11 27  1  0  0  0  0
 12 13  1  0  0  0  0
 12 28  1  0  0  0  0
 12 29  1  0  0  0  0
 13 17  1  0  0  0  0
 13 14  1  0  0  0  0
 13 30  1  0  0  0  0
 14 15  1  0  0  0  0
 14 31  1  0  0  0  0
 14 32  1  0  0  0  0
 15 16  1  0  0  0  0
 15 33  1  0  0  0  0
 15 34  1  0  0  0  0
 16 17  1  0  0  0  0
 16 35  1  0  0  0  0
 17 36  1  0  0  0  0
 17 37  1  0  0  0  0
M  END
> <s_m_source_file>
AV-unprocessed.smi

> <i_m_source_file_index>
3238

> <i_lp_mmshare_version>
43012

> <i_f3d_flags>
0

> <s_epik_input>
W0NIM11bTkhdQyg9TylbQ0gyXWMxbm9jKG4xKVtDSDJdW0NASF0oW0NIMl1bQ0BIXTIzKVtDQEhdKFtDSDJdMylbQ0gyXVtDSDJdMg==

> <s_epik_cmdline>
J2VwaWtfcHl0aG9uJywgJy1waCcsICc3LjAnLCAnLXRuJywgJzgnLCAnLW1hJywgJzIwMCcsICctbWV0YWxfYmluZGluZycsICctaW1hZScsICc8aW5maWxlLm1hZT4nLCAnLW9tYWUnLCAnPG91dGZpbGUubWFlPic=

> <r_lp_tautomer_probability>
1

> <r_epik_Ionization_Penalty>
1.02915e-07

> <r_epik_Ionization_Penalty_Charging>
0

> <r_epik_Ionization_Penalty_Neutral>
1.02915e-07

> <r_epik_State_Penalty>
-0

> <r_epik_Charging_Adjusted_Penalty>
0

> <i_epik_Tot_Q>
0

> <i_epik_Tot_abs_Q>
0

> <r_epik_Metal_State_Penalty>
-0

> <b_epik_Metal_Only>
0

> <s_lp_Force_Field>
OPLS_2005

> <r_lp_Energy>
47.6747

> <b_lp_Chiralities_Consistent>
1

> <s_lp_Variant>
AV-unprocessed.smi:3238-3

> <Gold.Version>
5.8.1

> <Gold.Id.Protein>
6NUR|6NUR_protein|mol2

> <Gold.PLP.Fitness>
41.7026

> <Gold.PLP.PLP>
-39.8245

> <Gold.PLP.part.hbond>
-2.0000

> <Gold.PLP.part.metal>
0.0000

> <Gold.PLP.part.buried>
-3.6610

> <Gold.PLP.part.nonpolar>
-34.9160

> <Gold.PLP.part.repulsive>
0.1788

> <Gold.PLP.ligand.clash>
0.0000

> <Gold.PLP.ligand.torsion>
0.5693

> <Gold.PLP.Chemscore.Hbond>
1.0000

> <Gold.PLP.Chemscore.CHOScore>
0.0000

> <Gold.PLP.Chemscore.Metal>
0.0000

> <Gold.Chemscore.Hbonds>
donor molecule, donor type, donor heavy atom, donor atom, acceptor molecule, acceptor atom, score
      L1  H     2    22       P1  7948  1.00

> <Gold.PLP.Chemscore.Internal.Correction>
0.0168

> <Gold.Rescore>
     Score         DG    S(hbond)    S(metal)    S(lipo)     H(rot)  DE(clash)    DE(int)     intcor
     15.94     -16.72       0.99        0.00     108.33       1.85       0.28       0.50       ----

> <Gold.Chemscore.Fitness>
15.9398

> <Gold.Chemscore.DG>
-16.7204

> <Gold.Chemscore.ZeroCoef>
-5.4800

> <Gold.Chemscore.Hbond>
0.9881

> <Gold.Chemscore.Metal>
0.0000

> <Gold.Chemscore.Lipo>
108.3252

> <Gold.Chemscore.Internal_Hbond>
0.0000

> <Gold.Chemscore.DEClash>
0.2830

> <Gold.Chemscore.DEInternal>
0.4976

> <Gold.Chemscore.Rot>
1.8492

> <Gold.Chemscore.Internal.Correction>
   9.000000E+99

> <Gold.Chemscore.Hbonds>
donor molecule, donor type, donor heavy atom, donor atom, acceptor molecule, acceptor atom, score
      L1  H     2    22       P1  7948  0.98

> <Gold.Chemscore.Hbond.Weighted>
-3.3003

> <Gold.Chemscore.Metal.Weighted>
-0.0000

> <Gold.Chemscore.Lipo.Weighted>
-12.6740

> <Gold.Chemscore.Internal_Hbond.Weighted>
0.0000

> <Gold.Chemscore.DEClash.Weighted>
0.2830

> <Gold.Chemscore.DEInternal.Weighted>
0.4976

> <Gold.Chemscore.Rot.Weighted>
4.7340

> <Gold.Chemscore.Internal.Correction.Weighted>
   9.000000E+99

> <Gold.Protein.RotatedTorsions>
[ 6907 6896 6895 6894 ] final -125.65 input  -60.11 | X-H torsion
[ 7974 7965 7964 7962 ] final -107.64 input  175.53 | X-H torsion
[ 8008 7997 7996 7995 ] final  125.27 input   59.86 | X-H torsion
[ 10167 10162 10161 10158 ] final   72.45 input  -65.29 | X-H torsion
[ 10718 10713 10712 10709 ] final  -34.85 input   66.30 | X-H torsion
[ 10763 10752 10751 10750 ] final   40.42 input  -60.55 | X-H torsion
[ 11005 11000 10999 10996 ] final  -38.57 input  -57.11 | X-H torsion

> <Gold.Protein.ActiveResidues>
 VAL166  LYS551  ARG553  GLY616  TRP617  ASP618  TYR619  PRO620  LYS621  CYS622 
 ASP623  PHE694  ASN695  SER759  ASP760  ASP761  ALA762  ILE779  LEU786  VAL792 
 PHE793  MET794  SER795  GLU796  ALA797  LYS798  CYS799  TRP800  GLU811  SER814 

> <Gold.Protein.RotatedAtoms>
  150.8889  133.7270  159.2910 H   0  0  0  0  0  0  0  0  0  0  0  0  # atno 6907 bound_to 6896
  151.4827  135.1051  159.9792 H   0  0  0  0  0  0  0  0  0  0  0  0  # atno 6908 bound_to 6896
  152.4807  133.8201  159.7104 H   0  0  0  0  0  0  0  0  0  0  0  0  # atno 6909 bound_to 6896
  145.2029  140.9064  143.3359 H   0  0  0  0  0  0  0  0  0  0  0  0  # atno 7974 bound_to 7965
  156.2828  140.2720  156.1922 H   0  0  0  0  0  0  0  0  0  0  0  0  # atno 8008 bound_to 7997
  155.0447  140.0386  157.2540 H   0  0  0  0  0  0  0  0  0  0  0  0  # atno 8009 bound_to 7997
  154.7245  140.2694  155.6517 H   0  0  0  0  0  0  0  0  0  0  0  0  # atno 8010 bound_to 7997
  140.0351  144.5434  150.7477 H   0  0  0  0  0  0  0  0  0  0  0  0  # atno 10167 bound_to 10162
  156.3456  130.4300  149.7749 H   0  0  0  0  0  0  0  0  0  0  0  0  # atno 10718 bound_to 10713
  152.9937  135.6192  154.2623 H   0  0  0  0  0  0  0  0  0  0  0  0  # atno 10763 bound_to 10752
  154.2359  135.2790  155.2874 H   0  0  0  0  0  0  0  0  0  0  0  0  # atno 10764 bound_to 10752
  154.5410  135.5761  153.6897 H   0  0  0  0  0  0  0  0  0  0  0  0  # atno 10765 bound_to 10752
  141.0037  133.6942  156.2071 H   0  0  0  0  0  0  0  0  0  0  0  0  # atno 11005 bound_to 11000
  144.9931  139.3670  143.6205 LP  0  0  0  0  0  0  0  0  0  0  0  0  # atno 17320 bound_to 7965
  146.3414  139.9122  142.8778 LP  0  0  0  0  0  0  0  0  0  0  0  0  # atno 17321 bound_to 7965
  140.7285  143.2662  151.4036 LP  0  0  0  0  0  0  0  0  0  0  0  0  # atno 17342 bound_to 10162
  139.6050  144.1215  152.2239 LP  0  0  0  0  0  0  0  0  0  0  0  0  # atno 17343 bound_to 10162
  156.4969  130.8111  151.3117 LP  0  0  0  0  0  0  0  0  0  0  0  0  # atno 17370 bound_to 10713
  157.7453  130.9957  150.2754 LP  0  0  0  0  0  0  0  0  0  0  0  0  # atno 17371 bound_to 10713
  140.6847  134.4730  157.5589 LP  0  0  0  0  0  0  0  0  0  0  0  0  # atno 17394 bound_to 11000
  139.9052  134.8465  156.1734 LP  0  0  0  0  0  0  0  0  0  0  0  0  # atno 17395 bound_to 11000

$$$$
