AV-unprocessed.smi:1269|AV-procd|sdf|5328|dock8
  -GOLD-   22720 4453D 1   1.00000     0.00000
 Structure written by MMmdl.
 43 44  0  0  0  0  0  0  0  0  1 V2000
  146.3092  128.5970  152.7646 C   0  0  0  0  0  0  0  0  0  0  0  0
  147.4316  128.9071  153.5834 O   0  0  0  0  0  0  0  0  0  0  0  0
  147.8621  130.2171  153.6356 C   0  0  0  0  0  0  0  0  0  0  0  0
  148.9849  130.5266  154.4283 C   0  0  0  0  0  0  0  0  0  0  0  0
  149.4282  131.8614  154.4842 C   0  0  0  0  0  0  0  0  0  0  0  0
  148.7450  132.8456  153.7420 C   0  0  0  0  0  0  0  0  0  0  0  0
  149.2060  134.1869  153.8325 N   0  0  0  0  0  0  0  0  0  0  0  0
  150.0351  134.7292  154.7411 C   0  0  0  0  0  0  0  0  0  0  0  0
  150.5284  134.1355  155.6995 O   0  0  0  0  0  0  0  0  0  0  0  0
  150.2470  136.0288  154.4864 N   0  0  0  0  0  0  0  0  0  0  0  0
  151.0938  136.9223  155.2741 C   0  0  1  0  0  0  0  0  0  0  0  0
  151.3262  138.1956  154.4456 C   0  0  0  0  0  0  0  0  0  0  0  0
  150.4367  137.1511  156.6584 C   0  0  0  0  0  0  0  0  0  0  0  0
  151.2198  137.9136  157.6352 N   0  0  0  0  0  0  0  0  0  0  0  0
  151.2168  139.3372  157.3074 C   0  0  0  0  0  0  0  0  0  0  0  0
  152.0264  140.1664  158.3193 C   0  0  0  0  0  0  0  0  0  0  0  0
  153.3615  139.6766  158.3772 O   0  0  0  0  0  0  0  0  0  0  0  0
  153.4228  138.2986  158.7284 C   0  0  0  0  0  0  0  0  0  0  0  0
  152.6122  137.4709  157.7158 C   0  0  0  0  0  0  0  0  0  0  0  0
  147.6198  132.4363  152.9851 C   0  0  0  0  0  0  0  0  0  0  0  0
  147.1888  131.1579  152.9288 N   0  0  0  0  0  0  0  0  0  0  0  0
  146.0969  127.5301  152.8328 H   0  0  0  0  0  0  0  0  0  0  0  0
  146.5039  128.8293  151.7166 H   0  0  0  0  0  0  0  0  0  0  0  0
  145.4165  129.1330  153.0903 H   0  0  0  0  0  0  0  0  0  0  0  0
  149.4962  129.7544  154.9838 H   0  0  0  0  0  0  0  0  0  0  0  0
  150.2851  132.1223  155.0882 H   0  0  0  0  0  0  0  0  0  0  0  0
  148.8187  134.8232  153.1513 H   0  0  0  0  0  0  0  0  0  0  0  0
  149.7926  136.4330  153.6807 H   0  0  0  0  0  0  0  0  0  0  0  0
  152.0618  136.4388  155.4189 H   0  0  0  0  0  0  0  0  0  0  0  0
  152.1622  138.7763  154.8318 H   0  0  0  0  0  0  0  0  0  0  0  0
  150.4398  138.8305  154.4268 H   0  0  0  0  0  0  0  0  0  0  0  0
  151.5801  137.9502  153.4136 H   0  0  0  0  0  0  0  0  0  0  0  0
  149.4459  137.5930  156.5415 H   0  0  0  0  0  0  0  0  0  0  0  0
  150.2541  136.1597  157.0761 H   0  0  0  0  0  0  0  0  0  0  0  0
  151.6252  139.4887  156.3066 H   0  0  0  0  0  0  0  0  0  0  0  0
  150.1919  139.7099  157.2852 H   0  0  0  0  0  0  0  0  0  0  0  0
  152.0441  141.2153  158.0230 H   0  0  0  0  0  0  0  0  0  0  0  0
  151.5706  140.1196  159.3094 H   0  0  0  0  0  0  0  0  0  0  0  0
  154.4647  137.9785  158.7315 H   0  0  0  0  0  0  0  0  0  0  0  0
  153.0395  138.1551  159.7397 H   0  0  0  0  0  0  0  0  0  0  0  0
  152.6758  136.4253  158.0007 H   0  0  0  0  0  0  0  0  0  0  0  0
  153.0826  137.5501  156.7345 H   0  0  0  0  0  0  0  0  0  0  0  0
  147.0231  133.1356  152.4212 H   0  0  0  0  0  0  0  0  0  0  0  0
  1  2  1  0  0  0  0
  1 22  1  0  0  0  0
  1 23  1  0  0  0  0
  1 24  1  0  0  0  0
  2  3  1  0  0  0  0
  3 21  1  0  0  0  0
  3  4  2  0  0  0  0
  4  5  1  0  0  0  0
  4 25  1  0  0  0  0
  5  6  2  0  0  0  0
  5 26  1  0  0  0  0
  6  7  1  0  0  0  0
  6 20  1  0  0  0  0
  7  8  1  0  0  0  0
  7 27  1  0  0  0  0
  8  9  2  0  0  0  0
  8 10  1  0  0  0  0
 10 11  1  0  0  0  0
 10 28  1  0  0  0  0
 11 12  1  0  0  0  0
 11 13  1  0  0  0  0
 11 29  1  0  0  0  0
 12 30  1  0  0  0  0
 12 31  1  0  0  0  0
 12 32  1  0  0  0  0
 13 14  1  0  0  0  0
 13 33  1  0  0  0  0
 13 34  1  0  0  0  0
 14 19  1  0  0  0  0
 14 15  1  0  0  0  0
 15 16  1  0  0  0  0
 15 35  1  0  0  0  0
 15 36  1  0  0  0  0
 16 17  1  0  0  0  0
 16 37  1  0  0  0  0
 16 38  1  0  0  0  0
 17 18  1  0  0  0  0
 18 19  1  0  0  0  0
 18 39  1  0  0  0  0
 18 40  1  0  0  0  0
 19 41  1  0  0  0  0
 19 42  1  0  0  0  0
 20 21  2  0  0  0  0
 20 43  1  0  0  0  0
M  END
> <s_m_source_file>
AV-unprocessed.smi

> <i_m_source_file_index>
1269

> <i_lp_mmshare_version>
43012

> <i_f3d_flags>
0

> <s_epik_input>
W0NIM11PYzFbY0hdW2NIXWMoW2NIXW4xKVtOSF1DKD1PKVtOSF1bQ0BIXShbQ0gzXSlbQ0gyXU4yW0NIMl1bQ0gyXU9bQ0gyXVtDSDJdMg==

> <s_epik_cmdline>
J2VwaWtfcHl0aG9uJywgJy1waCcsICc3LjAnLCAnLXRuJywgJzgnLCAnLW1hJywgJzIwMCcsICctbWV0YWxfYmluZGluZycsICctaW1hZScsICc8aW5maWxlLm1hZT4nLCAnLW9tYWUnLCAnPG91dGZpbGUubWFlPic=

> <r_lp_tautomer_probability>
1

> <r_epik_Ionization_Penalty>
0.266086

> <r_epik_Ionization_Penalty_Charging>
0

> <r_epik_Ionization_Penalty_Neutral>
0.266086

> <r_epik_State_Penalty>
0.257924

> <r_epik_Charging_Adjusted_Penalty>
0.257924

> <i_epik_Tot_Q>
0

> <i_epik_Tot_abs_Q>
0

> <r_epik_Metal_State_Penalty>
0.25792

> <b_epik_Metal_Only>
0

> <s_lp_Force_Field>
OPLS_2005

> <r_lp_Energy>
29.6845

> <b_lp_Chiralities_Consistent>
1

> <s_lp_Variant>
AV-unprocessed.smi:1269-2

> <Gold.Version>
5.8.1

> <Gold.Id.Protein>
6NUR|6NUR_protein|mol2

> <Gold.PLP.Fitness>
38.3502

> <Gold.PLP.PLP>
-29.9653

> <Gold.PLP.part.hbond>
-3.7786

> <Gold.PLP.part.metal>
0.0000

> <Gold.PLP.part.buried>
-3.7286

> <Gold.PLP.part.nonpolar>
-22.9531

> <Gold.PLP.part.repulsive>
0.3741

> <Gold.PLP.ligand.clash>
0.0000

> <Gold.PLP.ligand.torsion>
0.2955

> <Gold.PLP.Chemscore.Hbond>
2.9760

> <Gold.PLP.Chemscore.CHOScore>
0.0000

> <Gold.PLP.Chemscore.Metal>
0.0000

> <Gold.Chemscore.Hbonds>
donor molecule, donor type, donor heavy atom, donor atom, acceptor molecule, acceptor atom, score
      L1  H     7    27       P1  7948  1.00
      L1  H    10    28       P1  7948  0.99
      P1  H  7997  8009       L1    17  1.00

> <Gold.PLP.Chemscore.Internal.Correction>
0.0481

> <Gold.Rescore>
     Score         DG    S(hbond)    S(metal)    S(lipo)     H(rot)  DE(clash)    DE(int)     intcor
     13.78     -15.53       2.05        0.00      64.93       1.72       0.06       1.69       ----

> <Gold.Chemscore.Fitness>
13.7812

> <Gold.Chemscore.DG>
-15.5292

> <Gold.Chemscore.ZeroCoef>
-5.4800

> <Gold.Chemscore.Hbond>
2.0518

> <Gold.Chemscore.Metal>
0.0000

> <Gold.Chemscore.Lipo>
64.9293

> <Gold.Chemscore.Internal_Hbond>
0.0000

> <Gold.Chemscore.DEClash>
0.0590

> <Gold.Chemscore.DEInternal>
1.6890

> <Gold.Chemscore.Rot>
1.7189

> <Gold.Chemscore.Internal.Correction>
   9.000000E+99

> <Gold.Chemscore.Hbonds>
donor molecule, donor type, donor heavy atom, donor atom, acceptor molecule, acceptor atom, score
      L1  H     7    27       P1  7948  0.25
      L1  H    10    28       P1  7948  0.32
      P1  H  7997  8009       L1    17  0.68

> <Gold.Chemscore.Hbond.Weighted>
-6.8529

> <Gold.Chemscore.Metal.Weighted>
-0.0000

> <Gold.Chemscore.Lipo.Weighted>
-7.5967

> <Gold.Chemscore.Internal_Hbond.Weighted>
0.0000

> <Gold.Chemscore.DEClash.Weighted>
0.0590

> <Gold.Chemscore.DEInternal.Weighted>
1.6890

> <Gold.Chemscore.Rot.Weighted>
4.4004

> <Gold.Chemscore.Internal.Correction.Weighted>
   9.000000E+99

> <Gold.Protein.RotatedTorsions>
[ 6907 6896 6895 6894 ] final -130.97 input  -60.11 | X-H torsion
[ 7974 7965 7964 7962 ] final  113.57 input  175.53 | X-H torsion
[ 8008 7997 7996 7995 ] final  167.57 input   59.86 | X-H torsion
[ 10167 10162 10161 10158 ] final  -33.04 input  -65.29 | X-H torsion
[ 10718 10713 10712 10709 ] final  102.65 input   66.30 | X-H torsion
[ 10763 10752 10751 10750 ] final   50.62 input  -60.55 | X-H torsion
[ 11005 11000 10999 10996 ] final   55.08 input  -57.11 | X-H torsion

> <Gold.Protein.ActiveResidues>
 VAL166  LYS551  ARG553  GLY616  TRP617  ASP618  TYR619  PRO620  LYS621  CYS622 
 ASP623  PHE694  ASN695  SER759  ASP760  ASP761  ALA762  ILE779  LEU786  VAL792 
 PHE793  MET794  SER795  GLU796  ALA797  LYS798  CYS799  TRP800  GLU811  SER814 

> <Gold.Protein.RotatedAtoms>
  150.9457  133.6606  159.2781 H   0  0  0  0  0  0  0  0  0  0  0  0  # atno 6907 bound_to 6896
  151.3979  135.0965  159.9556 H   0  0  0  0  0  0  0  0  0  0  0  0  # atno 6908 bound_to 6896
  152.5089  133.8957  159.7471 H   0  0  0  0  0  0  0  0  0  0  0  0  # atno 6909 bound_to 6896
  145.2153  139.2887  143.4247 H   0  0  0  0  0  0  0  0  0  0  0  0  # atno 7974 bound_to 7965
  156.1622  140.1613  156.8592 H   0  0  0  0  0  0  0  0  0  0  0  0  # atno 8008 bound_to 7997
  154.5172  140.0787  156.8139 H   0  0  0  0  0  0  0  0  0  0  0  0  # atno 8009 bound_to 7997
  155.3684  140.3399  155.4245 H   0  0  0  0  0  0  0  0  0  0  0  0  # atno 8010 bound_to 7997
  140.7211  143.3649  151.1889 H   0  0  0  0  0  0  0  0  0  0  0  0  # atno 10167 bound_to 10162
  157.6796  131.0758  150.5437 H   0  0  0  0  0  0  0  0  0  0  0  0  # atno 10718 bound_to 10713
  152.9784  135.5873  154.4281 H   0  0  0  0  0  0  0  0  0  0  0  0  # atno 10763 bound_to 10752
  154.3898  135.2767  155.2164 H   0  0  0  0  0  0  0  0  0  0  0  0  # atno 10764 bound_to 10752
  154.4041  135.6097  153.5968 H   0  0  0  0  0  0  0  0  0  0  0  0  # atno 10765 bound_to 10752
  140.0635  134.5568  155.9125 H   0  0  0  0  0  0  0  0  0  0  0  0  # atno 11005 bound_to 11000
  146.3388  140.2442  142.8596 LP  0  0  0  0  0  0  0  0  0  0  0  0  # atno 17320 bound_to 7965
  144.9817  140.8465  143.5393 LP  0  0  0  0  0  0  0  0  0  0  0  0  # atno 17321 bound_to 7965
  139.7209  143.9225  152.2985 LP  0  0  0  0  0  0  0  0  0  0  0  0  # atno 17342 bound_to 10162
  139.8981  144.6927  150.8695 LP  0  0  0  0  0  0  0  0  0  0  0  0  # atno 17343 bound_to 10162
  156.5743  130.4288  149.6005 LP  0  0  0  0  0  0  0  0  0  0  0  0  # atno 17370 bound_to 10713
  156.2714  130.7019  151.1818 LP  0  0  0  0  0  0  0  0  0  0  0  0  # atno 17371 bound_to 10713
  141.1983  133.6601  156.5786 LP  0  0  0  0  0  0  0  0  0  0  0  0  # atno 17394 bound_to 11000
  140.3733  134.7586  157.4613 LP  0  0  0  0  0  0  0  0  0  0  0  0  # atno 17395 bound_to 11000

$$$$
