AV-unprocessed.smi:766|AV-procd|sdf|3653|dock1
  -GOLD-   22720 1 53D 1   1.00000     0.00000
 Structure written by MMmdl.
 48 50  0  0  0  0  0  0  0  0  3 V2000
  153.5073  142.0856  161.0362 C   0  0  0  0  0  0  0  0  0  0  0  0
  152.7556  141.8769  159.7324 C   0  0  0  0  0  0  0  0  0  0  0  0
  152.8716  140.6293  159.0795 C   0  0  0  0  0  0  0  0  0  0  0  0
  152.1700  140.4677  157.8909 C   0  0  0  0  0  0  0  0  0  0  0  0
  152.0814  139.3767  157.0242 N   0  3  0  0  0  0  0  0  0  0  0  0
  151.2645  139.6900  155.9809 C   0  0  0  0  0  0  0  0  0  0  0  0
  150.8317  140.9671  156.1664 N   0  0  0  0  0  0  0  0  0  0  0  0
  149.9262  141.7786  155.3395 C   0  0  0  0  0  0  0  0  0  0  0  0
  148.9419  140.9270  154.5140 C   0  0  2  0  0  0  0  0  0  0  0  0
  149.4708  140.7098  153.2204 O   0  0  0  0  0  0  0  0  0  0  0  0
  147.5708  141.6089  154.3751 C   0  0  0  0  0  0  0  0  0  0  0  0
  147.1456  142.2201  155.6497 N   0  3  0  0  0  0  0  0  0  0  0  0
  145.6881  142.4281  155.7641 C   0  0  0  0  0  0  0  0  0  0  0  0
  145.1800  143.4516  154.7321 C   0  0  0  0  0  0  0  0  0  0  0  0
  144.1106  144.3006  155.2340 N   0  0  0  0  0  0  0  0  0  0  0  0
  142.9676  144.7068  154.5769 C   0  0  0  0  0  0  0  0  0  0  0  0
  142.2423  145.4657  155.4499 C   0  0  0  0  0  0  0  0  0  0  0  0
  143.0237  145.4534  156.6385 C   0  0  0  0  0  0  0  0  0  0  0  0
  144.1359  144.7481  156.5090 N   0  0  0  0  0  0  0  0  0  0  0  0
  151.3719  141.4933  157.3470 C   0  0  0  0  0  0  0  0  0  0  0  0
  151.2498  142.7301  157.9766 C   0  0  0  0  0  0  0  0  0  0  0  0
  151.9558  142.9145  159.1870 C   0  0  0  0  0  0  0  0  0  0  0  0
  151.8414  144.2534  159.8960 C   0  0  0  0  0  0  0  0  0  0  0  0
  154.0819  141.2007  161.3115 H   0  0  0  0  0  0  0  0  0  0  0  0
  152.8120  142.2972  161.8488 H   0  0  0  0  0  0  0  0  0  0  0  0
  154.2034  142.9201  160.9489 H   0  0  0  0  0  0  0  0  0  0  0  0
  153.4798  139.8355  159.4882 H   0  0  0  0  0  0  0  0  0  0  0  0
  151.0052  139.0402  155.1574 H   0  0  0  0  0  0  0  0  0  0  0  0
  149.3722  142.4270  156.0197 H   0  0  0  0  0  0  0  0  0  0  0  0
  150.5129  142.4403  154.7018 H   0  0  0  0  0  0  0  0  0  0  0  0
  148.8187  139.9583  155.0006 H   0  0  0  0  0  0  0  0  0  0  0  0
  149.1031  139.9102  152.8750 H   0  0  0  0  0  0  0  0  0  0  0  0
  147.6230  142.3942  153.6197 H   0  0  0  0  0  0  0  0  0  0  0  0
  146.8205  140.8915  154.0383 H   0  0  0  0  0  0  0  0  0  0  0  0
  147.4357  141.6109  156.4021 H   0  0  0  0  0  0  0  0  0  0  0  0
  145.1799  141.4753  155.6114 H   0  0  0  0  0  0  0  0  0  0  0  0
  145.4444  142.7545  156.7760 H   0  0  0  0  0  0  0  0  0  0  0  0
  146.0023  144.0888  154.4035 H   0  0  0  0  0  0  0  0  0  0  0  0
  144.8119  142.9345  153.8454 H   0  0  0  0  0  0  0  0  0  0  0  0
  142.7671  144.4267  153.5531 H   0  0  0  0  0  0  0  0  0  0  0  0
  141.2940  145.9498  155.2694 H   0  0  0  0  0  0  0  0  0  0  0  0
  142.8154  145.9289  157.5856 H   0  0  0  0  0  0  0  0  0  0  0  0
  150.6453  143.5234  157.5621 H   0  0  0  0  0  0  0  0  0  0  0  0
  151.1916  144.9394  159.3519 H   0  0  0  0  0  0  0  0  0  0  0  0
  152.8207  144.7239  159.9864 H   0  0  0  0  0  0  0  0  0  0  0  0
  151.4254  144.1231  160.8952 H   0  0  0  0  0  0  0  0  0  0  0  0
  147.6120  143.1093  155.7559 H   0  0  0  0  0  0  0  0  0  0  0  0
  152.5410  138.4817  157.1362 H   0  0  0  0  0  0  0  0  0  0  0  0
  1  2  1  0  0  0  0
  1 24  1  0  0  0  0
  1 25  1  0  0  0  0
  1 26  1  0  0  0  0
  2 22  1  0  0  0  0
  2  3  2  0  0  0  0
  3  4  1  0  0  0  0
  3 27  1  0  0  0  0
  4 20  2  0  0  0  0
  4  5  1  0  0  0  0
  5  6  2  0  0  0  0
  5 48  1  0  0  0  0
  6  7  1  0  0  0  0
  6 28  1  0  0  0  0
  7  8  1  0  0  0  0
  7 20  1  0  0  0  0
  8  9  1  0  0  0  0
  8 29  1  0  0  0  0
  8 30  1  0  0  0  0
  9 10  1  0  0  0  0
  9 11  1  0  0  0  0
  9 31  1  0  0  0  0
 10 32  1  0  0  0  0
 11 12  1  0  0  0  0
 11 33  1  0  0  0  0
 11 34  1  0  0  0  0
 12 13  1  0  0  0  0
 12 35  1  0  0  0  0
 12 47  1  0  0  0  0
 13 14  1  0  0  0  0
 13 36  1  0  0  0  0
 13 37  1  0  0  0  0
 14 15  1  0  0  0  0
 14 38  1  0  0  0  0
 14 39  1  0  0  0  0
 15 19  1  0  0  0  0
 15 16  1  0  0  0  0
 16 17  2  0  0  0  0
 16 40  1  0  0  0  0
 17 18  1  0  0  0  0
 17 41  1  0  0  0  0
 18 19  2  0  0  0  0
 18 42  1  0  0  0  0
 20 21  1  0  0  0  0
 21 22  2  0  0  0  0
 21 43  1  0  0  0  0
 22 23  1  0  0  0  0
 23 44  1  0  0  0  0
 23 45  1  0  0  0  0
 23 46  1  0  0  0  0
M  CHG  1   5   1
M  CHG  1  12   1
M  END
> <s_m_source_file>
AV-unprocessed.smi

> <i_m_source_file_index>
766

> <i_lp_mmshare_version>
43012

> <i_f3d_flags>
0

> <s_epik_input>
W0NIM11jKFtjSF0xKWMoW0NIM10pW2NIXWMoYzEyKW4oW2NIXW4yKVtDSDJdW0NASF0oW09IXSlbQ0gyXVtOSF1bQ0gyXVtDSDJdbjNbY0hdW2NIXVtjSF1uMw==

> <s_epik_cmdline>
J2VwaWtfcHl0aG9uJywgJy1waCcsICc3LjAnLCAnLXRuJywgJzgnLCAnLW1hJywgJzIwMCcsICctbWV0YWxfYmluZGluZycsICctaW1hZScsICc8aW5maWxlLm1hZT4nLCAnLW9tYWUnLCAnPG91dGZpbGUubWFlPic=

> <r_lp_tautomer_probability>
1

> <r_epik_Ionization_Penalty>
1.25103

> <r_epik_Ionization_Penalty_Charging>
1.25102

> <r_epik_Ionization_Penalty_Neutral>
6.05394e-06

> <r_epik_State_Penalty>
1.2613

> <r_epik_Charging_Adjusted_Penalty>
2.51232

> <i_epik_Tot_Q>
2

> <i_epik_Tot_abs_Q>
2

> <r_epik_Metal_State_Penalty>
1.33164

> <b_epik_Metal_Only>
0

> <s_lp_Force_Field>
OPLS_2005

> <r_lp_Energy>
19.7351

> <b_lp_Chiralities_Consistent>
1

> <s_lp_Variant>
AV-unprocessed.smi:766-3

> <Gold.Version>
5.8.1

> <Gold.Id.Protein>
6NUR|6NUR_protein|mol2

> <Gold.PLP.Fitness>
60.5514

> <Gold.PLP.PLP>
-50.6130

> <Gold.PLP.part.hbond>
-2.6172

> <Gold.PLP.part.metal>
0.0000

> <Gold.PLP.part.buried>
-5.6786

> <Gold.PLP.part.nonpolar>
-42.3247

> <Gold.PLP.part.repulsive>
0.2407

> <Gold.PLP.ligand.clash>
0.0000

> <Gold.PLP.ligand.torsion>
1.6237

> <Gold.PLP.Chemscore.Hbond>
3.2272

> <Gold.PLP.Chemscore.CHOScore>
0.9989

> <Gold.PLP.Chemscore.Metal>
0.0000

> <Gold.Chemscore.Hbonds>
donor molecule, donor type, donor heavy atom, donor atom, acceptor molecule, acceptor atom, score
      L1  H    10    32       P1  7957  0.02
      L1  H    12    47       P1  8028  1.90
      P1  H  7989  7998       L1    10  0.19
      P1  H  8011  8017       L1    10  1.00
      L1  C    16    40       P1 10174  1.00

> <Gold.PLP.Chemscore.Internal.Correction>
0.5075

> <Gold.Rescore>
     Score         DG    S(hbond)    S(metal)    S(lipo)     H(rot)  DE(clash)    DE(int)     intcor
     16.22     -17.82       1.67        0.00     123.96       3.02       0.06       1.54       ----

> <Gold.Chemscore.Fitness>
16.2241

> <Gold.Chemscore.DG>
-17.8236

> <Gold.Chemscore.ZeroCoef>
-5.4800

> <Gold.Chemscore.Hbond>
1.6704

> <Gold.Chemscore.Metal>
0.0000

> <Gold.Chemscore.Lipo>
123.9579

> <Gold.Chemscore.Internal_Hbond>
0.0000

> <Gold.Chemscore.DEClash>
0.0614

> <Gold.Chemscore.DEInternal>
1.5381

> <Gold.Chemscore.Rot>
3.0229

> <Gold.Chemscore.Internal.Correction>
   9.000000E+99

> <Gold.Chemscore.Hbonds>
donor molecule, donor type, donor heavy atom, donor atom, acceptor molecule, acceptor atom, score
      L1  H    10    32       P1  7957  0.06
      L1  H    12    47       P1  8028  0.20
      P1  H  7989  7998       L1    10  0.09
      P1  H  8011  8017       L1    10  0.78

> <Gold.Chemscore.Hbond.Weighted>
-5.5791

> <Gold.Chemscore.Metal.Weighted>
-0.0000

> <Gold.Chemscore.Lipo.Weighted>
-14.5031

> <Gold.Chemscore.Internal_Hbond.Weighted>
0.0000

> <Gold.Chemscore.DEClash.Weighted>
0.0614

> <Gold.Chemscore.DEInternal.Weighted>
1.5381

> <Gold.Chemscore.Rot.Weighted>
7.7386

> <Gold.Chemscore.Internal.Correction.Weighted>
   9.000000E+99

> <Gold.Protein.RotatedTorsions>
[ 6907 6896 6895 6894 ] final  -41.58 input  -60.11 | X-H torsion
[ 7974 7965 7964 7962 ] final  -52.06 input  175.53 | X-H torsion
[ 8008 7997 7996 7995 ] final   39.59 input   59.86 | X-H torsion
[ 10167 10162 10161 10158 ] final  -92.26 input  -65.29 | X-H torsion
[ 10718 10713 10712 10709 ] final -109.99 input   66.30 | X-H torsion
[ 10763 10752 10751 10750 ] final   66.19 input  -60.55 | X-H torsion
[ 11005 11000 10999 10996 ] final -175.61 input  -57.11 | X-H torsion

> <Gold.Protein.ActiveResidues>
 VAL166  LYS551  ARG553  GLY616  TRP617  ASP618  TYR619  PRO620  LYS621  CYS622 
 ASP623  PHE694  ASN695  SER759  ASP760  ASP761  ALA762  ILE779  LEU786  VAL792 
 PHE793  MET794  SER795  GLU796  ALA797  LYS798  CYS799  TRP800  GLU811  SER814 

> <Gold.Protein.RotatedAtoms>
  150.9652  134.9033  159.7754 H   0  0  0  0  0  0  0  0  0  0  0  0  # atno 6907 bound_to 6896
  152.5170  134.3618  159.9297 H   0  0  0  0  0  0  0  0  0  0  0  0  # atno 6908 bound_to 6896
  151.3629  133.3842  159.2726 H   0  0  0  0  0  0  0  0  0  0  0  0  # atno 6909 bound_to 6896
  145.9121  140.7906  142.9690 H   0  0  0  0  0  0  0  0  0  0  0  0  # atno 7974 bound_to 7965
  155.2392  140.3344  155.4294 H   0  0  0  0  0  0  0  0  0  0  0  0  # atno 8008 bound_to 7997
  156.2263  140.1830  156.7400 H   0  0  0  0  0  0  0  0  0  0  0  0  # atno 8009 bound_to 7997
  154.5904  140.0639  156.9215 H   0  0  0  0  0  0  0  0  0  0  0  0  # atno 8010 bound_to 7997
  140.3366  143.2965  151.9882 H   0  0  0  0  0  0  0  0  0  0  0  0  # atno 10167 bound_to 10162
  156.0566  130.5792  150.8175 H   0  0  0  0  0  0  0  0  0  0  0  0  # atno 10718 bound_to 10713
  153.0129  135.5329  154.6786 H   0  0  0  0  0  0  0  0  0  0  0  0  # atno 10763 bound_to 10752
  154.5951  135.2862  155.0596 H   0  0  0  0  0  0  0  0  0  0  0  0  # atno 10764 bound_to 10752
  154.1674  135.6537  153.5053 H   0  0  0  0  0  0  0  0  0  0  0  0  # atno 10765 bound_to 10752
  140.4613  134.6252  157.4844 H   0  0  0  0  0  0  0  0  0  0  0  0  # atno 11005 bound_to 11000
  144.6744  140.1842  143.7403 LP  0  0  0  0  0  0  0  0  0  0  0  0  # atno 17320 bound_to 7965
  145.8658  139.2246  143.1690 LP  0  0  0  0  0  0  0  0  0  0  0  0  # atno 17321 bound_to 7965
  139.4847  144.6191  151.7289 LP  0  0  0  0  0  0  0  0  0  0  0  0  # atno 17342 bound_to 10162
  140.5348  144.0673  150.6066 LP  0  0  0  0  0  0  0  0  0  0  0  0  # atno 17343 bound_to 10162
  157.5541  131.0944  150.9653 LP  0  0  0  0  0  0  0  0  0  0  0  0  # atno 17370 bound_to 10713
  156.9906  130.5562  149.5303 LP  0  0  0  0  0  0  0  0  0  0  0  0  # atno 17371 bound_to 10713
  139.9943  134.6935  155.9635 LP  0  0  0  0  0  0  0  0  0  0  0  0  # atno 17394 bound_to 11000
  141.1620  133.6538  156.4350 LP  0  0  0  0  0  0  0  0  0  0  0  0  # atno 17395 bound_to 11000

$$$$
