AV-unprocessed.smi:1518|AV-procd|sdf|6124|dock3
  -GOLD-   22720 6263D 1   1.00000     0.00000
 Structure written by MMmdl.
 45 47  0  0  0  0  0  0  0  0  1 V2000
  152.0350  144.2140  158.4356 C   0  0  0  0  0  0  0  0  0  0  0  0
  152.1666  144.0072  159.9438 C   0  0  0  0  0  0  0  0  0  0  0  0
  151.6133  144.8066  160.6984 O   0  0  0  0  0  0  0  0  0  0  0  0
  152.9664  142.8431  160.4226 C   0  0  0  0  0  0  0  0  0  0  0  0
  153.1078  142.6286  161.8121 C   0  0  0  0  0  0  0  0  0  0  0  0
  153.8577  141.5405  162.2934 C   0  0  0  0  0  0  0  0  0  0  0  0
  154.4725  140.6551  161.3904 C   0  0  0  0  0  0  0  0  0  0  0  0
  154.3450  140.8431  160.0004 C   0  0  0  0  0  0  0  0  0  0  0  0
  154.9804  139.9267  159.1904 O   0  0  0  0  0  0  0  0  0  0  0  0
  156.1059  139.2274  159.7071 C   0  0  0  0  0  0  0  0  0  0  0  0
  156.9749  138.7119  158.5490 C   0  0  2  0  0  0  0  0  0  0  0  0
  157.0981  139.7279  157.5740 O   0  0  0  0  0  0  0  0  0  0  0  0
  156.4643  137.3898  157.9388 C   0  0  0  0  0  0  0  0  0  0  0  0
  157.2309  136.9740  156.7723 N   0  0  0  0  0  0  0  0  0  0  0  0
  158.3042  136.1449  156.7290 C   0  0  0  0  0  0  0  0  0  0  0  0
  158.8553  135.5123  157.9758 C   0  0  0  0  0  0  0  0  0  0  0  0
  159.2970  136.4418  158.9446 O   0  0  0  0  0  0  0  0  0  0  0  0
  158.8147  135.9264  155.5146 N   0  0  0  0  0  0  0  0  0  0  0  0
  157.9987  136.6839  154.6978 C   0  0  0  0  0  0  0  0  0  0  0  0
  158.0208  136.8722  153.2973 C   0  0  0  0  0  0  0  0  0  0  0  0
  157.0682  137.7045  152.6736 C   0  0  0  0  0  0  0  0  0  0  0  0
  156.0818  138.3586  153.4397 C   0  0  0  0  0  0  0  0  0  0  0  0
  156.0416  138.1839  154.8363 C   0  0  0  0  0  0  0  0  0  0  0  0
  156.9951  137.3522  155.4540 C   0  0  0  0  0  0  0  0  0  0  0  0
  153.5869  141.9426  159.5227 C   0  0  0  0  0  0  0  0  0  0  0  0
  151.5106  143.3740  157.9802 H   0  0  0  0  0  0  0  0  0  0  0  0
  153.0183  144.3082  157.9744 H   0  0  0  0  0  0  0  0  0  0  0  0
  151.4720  145.1230  158.2226 H   0  0  0  0  0  0  0  0  0  0  0  0
  152.6443  143.2966  162.5240 H   0  0  0  0  0  0  0  0  0  0  0  0
  153.9615  141.3848  163.3569 H   0  0  0  0  0  0  0  0  0  0  0  0
  155.0471  139.8224  161.7686 H   0  0  0  0  0  0  0  0  0  0  0  0
  156.6937  139.8645  160.3704 H   0  0  0  0  0  0  0  0  0  0  0  0
  155.7592  138.3717  160.2886 H   0  0  0  0  0  0  0  0  0  0  0  0
  157.9803  138.5526  158.9392 H   0  0  0  0  0  0  0  0  0  0  0  0
  158.0113  139.9584  157.4958 H   0  0  0  0  0  0  0  0  0  0  0  0
  156.4939  136.5941  158.6835 H   0  0  0  0  0  0  0  0  0  0  0  0
  155.4189  137.4841  157.6429 H   0  0  0  0  0  0  0  0  0  0  0  0
  158.0923  134.8837  158.4336 H   0  0  0  0  0  0  0  0  0  0  0  0
  159.6911  134.8669  157.7047 H   0  0  0  0  0  0  0  0  0  0  0  0
  158.5999  136.5826  159.5665 H   0  0  0  0  0  0  0  0  0  0  0  0
  158.7722  136.3747  152.7020 H   0  0  0  0  0  0  0  0  0  0  0  0
  157.0947  137.8415  151.6025 H   0  0  0  0  0  0  0  0  0  0  0  0
  155.3560  138.9947  152.9545 H   0  0  0  0  0  0  0  0  0  0  0  0
  155.2881  138.6847  155.4257 H   0  0  0  0  0  0  0  0  0  0  0  0
  153.4796  142.0983  158.4610 H   0  0  0  0  0  0  0  0  0  0  0  0
  1  2  1  0  0  0  0
  1 26  1  0  0  0  0
  1 27  1  0  0  0  0
  1 28  1  0  0  0  0
  2  3  2  0  0  0  0
  2  4  1  0  0  0  0
  4 25  1  0  0  0  0
  4  5  2  0  0  0  0
  5  6  1  0  0  0  0
  5 29  1  0  0  0  0
  6  7  2  0  0  0  0
  6 30  1  0  0  0  0
  7  8  1  0  0  0  0
  7 31  1  0  0  0  0
  8  9  1  0  0  0  0
  8 25  2  0  0  0  0
  9 10  1  0  0  0  0
 10 11  1  0  0  0  0
 10 32  1  0  0  0  0
 10 33  1  0  0  0  0
 11 12  1  0  0  0  0
 11 13  1  0  0  0  0
 11 34  1  0  0  0  0
 12 35  1  0  0  0  0
 13 14  1  0  0  0  0
 13 36  1  0  0  0  0
 13 37  1  0  0  0  0
 14 24  1  0  0  0  0
 14 15  1  0  0  0  0
 15 16  1  0  0  0  0
 15 18  2  0  0  0  0
 16 17  1  0  0  0  0
 16 38  1  0  0  0  0
 16 39  1  0  0  0  0
 17 40  1  0  0  0  0
 18 19  1  0  0  0  0
 19 24  2  0  0  0  0
 19 20  1  0  0  0  0
 20 21  2  0  0  0  0
 20 41  1  0  0  0  0
 21 22  1  0  0  0  0
 21 42  1  0  0  0  0
 22 23  2  0  0  0  0
 22 43  1  0  0  0  0
 23 24  1  0  0  0  0
 23 44  1  0  0  0  0
 25 45  1  0  0  0  0
M  END
> <s_m_source_file>
AV-unprocessed.smi

> <i_m_source_file_index>
1518

> <i_lp_mmshare_version>
43012

> <i_f3d_flags>
0

> <s_epik_input>
W0NIM11DKD1PKWMxW2NIXVtjSF1bY0hdYyhbY0hdMSlPW0NIMl1bQ0BIXShbT0hdKVtDSDJdbihjKG4yKVtDSDJdW09IXSljKGMyMylbY0hdW2NIXVtjSF1bY0hdMw==

> <s_epik_cmdline>
J2VwaWtfcHl0aG9uJywgJy1waCcsICc3LjAnLCAnLXRuJywgJzgnLCAnLW1hJywgJzIwMCcsICctbWV0YWxfYmluZGluZycsICctaW1hZScsICc8aW5maWxlLm1hZT4nLCAnLW9tYWUnLCAnPG91dGZpbGUubWFlPic=

> <r_lp_tautomer_probability>
0.99995

> <r_epik_Ionization_Penalty>
0.0583159

> <r_epik_Ionization_Penalty_Charging>
0

> <r_epik_Ionization_Penalty_Neutral>
0.0583159

> <r_epik_State_Penalty>
0.0503525

> <r_epik_Charging_Adjusted_Penalty>
0.0503525

> <i_epik_Tot_Q>
0

> <i_epik_Tot_abs_Q>
0

> <r_epik_Metal_State_Penalty>
5.25517e-05

> <b_epik_Metal_Only>
0

> <s_lp_Force_Field>
OPLS_2005

> <r_lp_Energy>
22.7276

> <b_lp_Chiralities_Consistent>
1

> <s_lp_Variant>
AV-unprocessed.smi:1518-1

> <Gold.Version>
5.8.1

> <Gold.Id.Protein>
6NUR|6NUR_protein|mol2

> <Gold.PLP.Fitness>
50.8103

> <Gold.PLP.PLP>
-49.0048

> <Gold.PLP.part.hbond>
-3.0324

> <Gold.PLP.part.metal>
0.0000

> <Gold.PLP.part.buried>
-3.0079

> <Gold.PLP.part.nonpolar>
-43.2021

> <Gold.PLP.part.repulsive>
0.2415

> <Gold.PLP.ligand.clash>
0.1491

> <Gold.PLP.ligand.torsion>
1.0353

> <Gold.PLP.Chemscore.Hbond>
1.2960

> <Gold.PLP.Chemscore.CHOScore>
0.0000

> <Gold.PLP.Chemscore.Metal>
0.0000

> <Gold.Chemscore.Hbonds>
donor molecule, donor type, donor heavy atom, donor atom, acceptor molecule, acceptor atom, score
      P1  H  7997  8008       L1    12  0.39
      P1  H  7997  8009       L1     9  0.82

> <Gold.PLP.Chemscore.Internal.Correction>
0.1373

> <Gold.Rescore>
     Score         DG    S(hbond)    S(metal)    S(lipo)     H(rot)  DE(clash)    DE(int)     intcor
     15.93     -17.32       1.15        0.00     139.35       3.25       0.34       1.05       ----

> <Gold.Chemscore.Fitness>
15.9268

> <Gold.Chemscore.DG>
-17.3188

> <Gold.Chemscore.ZeroCoef>
-5.4800

> <Gold.Chemscore.Hbond>
1.1529

> <Gold.Chemscore.Metal>
0.0000

> <Gold.Chemscore.Lipo>
139.3468

> <Gold.Chemscore.Internal_Hbond>
0.0000

> <Gold.Chemscore.DEClash>
0.3371

> <Gold.Chemscore.DEInternal>
1.0549

> <Gold.Chemscore.Rot>
3.2482

> <Gold.Chemscore.Internal.Correction>
   9.000000E+99

> <Gold.Chemscore.Hbonds>
donor molecule, donor type, donor heavy atom, donor atom, acceptor molecule, acceptor atom, score
      P1  H  7997  8008       L1    12  0.29
      P1  H  7997  8009       L1     9  0.72

> <Gold.Chemscore.Hbond.Weighted>
-3.8507

> <Gold.Chemscore.Metal.Weighted>
-0.0000

> <Gold.Chemscore.Lipo.Weighted>
-16.3036

> <Gold.Chemscore.Internal_Hbond.Weighted>
0.0000

> <Gold.Chemscore.DEClash.Weighted>
0.3371

> <Gold.Chemscore.DEInternal.Weighted>
1.0549

> <Gold.Chemscore.Rot.Weighted>
8.3155

> <Gold.Chemscore.Internal.Correction.Weighted>
   9.000000E+99

> <Gold.Protein.RotatedTorsions>
[ 6907 6896 6895 6894 ] final   34.25 input  -60.11 | X-H torsion
[ 7974 7965 7964 7962 ] final -178.43 input  175.53 | X-H torsion
[ 8008 7997 7996 7995 ] final  134.42 input   59.86 | X-H torsion
[ 10167 10162 10161 10158 ] final  -51.95 input  -65.29 | X-H torsion
[ 10718 10713 10712 10709 ] final -151.98 input   66.30 | X-H torsion
[ 10763 10752 10751 10750 ] final  116.93 input  -60.55 | X-H torsion
[ 11005 11000 10999 10996 ] final  -10.93 input  -57.11 | X-H torsion

> <Gold.Protein.ActiveResidues>
 VAL166  LYS551  ARG553  GLY616  TRP617  ASP618  TYR619  PRO620  LYS621  CYS622 
 ASP623  PHE694  ASN695  SER759  ASP760  ASP761  ALA762  ILE779  LEU786  VAL792 
 PHE793  MET794  SER795  GLU796  ALA797  LYS798  CYS799  TRP800  GLU811  SER814 

> <Gold.Protein.RotatedAtoms>
  152.0998  134.9349  160.0569 H   0  0  0  0  0  0  0  0  0  0  0  0  # atno 6907 bound_to 6896
  152.0568  133.4039  159.4409 H   0  0  0  0  0  0  0  0  0  0  0  0  # atno 6908 bound_to 6896
  150.6839  134.3166  159.4812 H   0  0  0  0  0  0  0  0  0  0  0  0  # atno 6909 bound_to 6896
  144.7131  140.0870  143.6423 H   0  0  0  0  0  0  0  0  0  0  0  0  # atno 7974 bound_to 7965
  156.2999  140.2496  156.3414 H   0  0  0  0  0  0  0  0  0  0  0  0  # atno 8008 bound_to 7997
  154.9051  140.0405  157.1934 H   0  0  0  0  0  0  0  0  0  0  0  0  # atno 8009 bound_to 7997
  154.8461  140.2898  155.5632 H   0  0  0  0  0  0  0  0  0  0  0  0  # atno 8010 bound_to 7997
  140.6562  143.2601  151.4578 H   0  0  0  0  0  0  0  0  0  0  0  0  # atno 10167 bound_to 10162
  156.4664  130.8237  151.2468 H   0  0  0  0  0  0  0  0  0  0  0  0  # atno 10718 bound_to 10713
  153.5447  135.3551  155.2733 H   0  0  0  0  0  0  0  0  0  0  0  0  # atno 10763 bound_to 10752
  154.8713  135.4099  154.3004 H   0  0  0  0  0  0  0  0  0  0  0  0  # atno 10764 bound_to 10752
  153.3718  135.7064  153.6700 H   0  0  0  0  0  0  0  0  0  0  0  0  # atno 10765 bound_to 10752
  140.7499  133.8601  155.9036 H   0  0  0  0  0  0  0  0  0  0  0  0  # atno 11005 bound_to 11000
  145.9653  139.2830  143.1131 LP  0  0  0  0  0  0  0  0  0  0  0  0  # atno 17320 bound_to 7965
  145.9176  140.9137  143.0421 LP  0  0  0  0  0  0  0  0  0  0  0  0  # atno 17321 bound_to 7965
  139.5785  144.1763  152.1936 LP  0  0  0  0  0  0  0  0  0  0  0  0  # atno 17342 bound_to 10162
  140.1081  144.5481  150.6943 LP  0  0  0  0  0  0  0  0  0  0  0  0  # atno 17343 bound_to 10162
  157.7494  131.0090  150.3252 LP  0  0  0  0  0  0  0  0  0  0  0  0  # atno 17370 bound_to 10713
  156.3664  130.3856  149.7210 LP  0  0  0  0  0  0  0  0  0  0  0  0  # atno 17371 bound_to 10713
  140.9760  134.1468  157.4535 LP  0  0  0  0  0  0  0  0  0  0  0  0  # atno 17394 bound_to 11000
  139.8789  134.9995  156.5956 LP  0  0  0  0  0  0  0  0  0  0  0  0  # atno 17395 bound_to 11000

$$$$
