AV-unprocessed.smi:3253|AV-procd|sdf|12446|dock1
  -GOLD-   2272018343D 1   1.00000     0.00000
 Structure written by MMmdl.
 37 38  0  0  0  0  0  0  0  0  2 V2000
  151.6992  139.1865  155.7420 C   0  0  0  0  0  0  0  0  0  0  0  0
  150.1783  139.2048  155.5396 C   0  0  1  0  0  0  0  0  0  0  0  0
  149.8080  139.6744  154.1152 C   0  0  0  0  0  0  0  0  0  0  0  0
  148.5299  140.3923  154.0596 N   0  0  0  0  0  0  0  0  0  0  0  0
  148.2627  141.6546  154.5250 C   0  0  0  0  0  0  0  0  0  0  0  0
  146.9468  141.9073  154.2353 C   0  0  0  0  0  0  0  0  0  0  0  0
  146.4645  140.7865  153.6140 N   0  3  0  0  0  0  0  0  0  0  0  0
  147.4274  139.8646  153.5124 C   0  0  0  0  0  0  0  0  0  0  0  0
  149.6489  137.8678  155.8065 N   0  0  0  0  0  0  0  0  0  0  0  0
  150.1389  136.7190  155.3135 C   0  0  0  0  0  0  0  0  0  0  0  0
  151.1038  136.6684  154.5494 O   0  0  0  0  0  0  0  0  0  0  0  0
  149.4487  135.4261  155.7732 C   0  0  2  0  0  0  0  0  0  0  0  0
  150.4726  134.4241  156.3442 C   0  0  0  0  0  0  0  0  0  0  0  0
  150.4842  133.2925  155.3302 C   0  0  0  0  0  0  0  0  0  0  0  0
  151.2720  132.3501  155.3911 O   0  0  0  0  0  0  0  0  0  0  0  0
  149.5506  133.4808  154.3935 N   0  0  0  0  0  0  0  0  0  0  0  0
  149.2908  132.6038  153.2600 C   0  0  0  0  0  0  0  0  0  0  0  0
  148.7564  134.6775  154.6129 C   0  0  0  0  0  0  0  0  0  0  0  0
  152.1280  140.1765  155.5837 H   0  0  0  0  0  0  0  0  0  0  0  0
  152.1854  138.4992  155.0486 H   0  0  0  0  0  0  0  0  0  0  0  0
  151.9574  138.8765  156.7553 H   0  0  0  0  0  0  0  0  0  0  0  0
  149.7686  139.9127  156.2625 H   0  0  0  0  0  0  0  0  0  0  0  0
  150.5744  140.3456  153.7248 H   0  0  0  0  0  0  0  0  0  0  0  0
  149.7518  138.8274  153.4296 H   0  0  0  0  0  0  0  0  0  0  0  0
  149.0116  142.2673  155.0056 H   0  0  0  0  0  0  0  0  0  0  0  0
  146.3336  142.7776  154.4190 H   0  0  0  0  0  0  0  0  0  0  0  0
  147.3357  138.8909  153.0650 H   0  0  0  0  0  0  0  0  0  0  0  0
  148.8509  137.8116  156.4228 H   0  0  0  0  0  0  0  0  0  0  0  0
  148.7087  135.6712  156.5372 H   0  0  0  0  0  0  0  0  0  0  0  0
  151.4752  134.8387  156.4635 H   0  0  0  0  0  0  0  0  0  0  0  0
  150.1497  134.0405  157.3125 H   0  0  0  0  0  0  0  0  0  0  0  0
  149.1870  131.5684  153.5867 H   0  0  0  0  0  0  0  0  0  0  0  0
  150.1105  132.6583  152.5427 H   0  0  0  0  0  0  0  0  0  0  0  0
  148.3714  132.8882  152.7473 H   0  0  0  0  0  0  0  0  0  0  0  0
  147.7406  134.3907  154.8884 H   0  0  0  0  0  0  0  0  0  0  0  0
  148.6939  135.2683  153.6971 H   0  0  0  0  0  0  0  0  0  0  0  0
  145.5177  140.6710  153.2750 H   0  0  0  0  0  0  0  0  0  0  0  0
  1  2  1  0  0  0  0
  1 19  1  0  0  0  0
  1 20  1  0  0  0  0
  1 21  1  0  0  0  0
  2  3  1  0  0  0  0
  2  9  1  0  0  0  0
  2 22  1  0  0  0  0
  3  4  1  0  0  0  0
  3 23  1  0  0  0  0
  3 24  1  0  0  0  0
  4  8  1  0  0  0  0
  4  5  1  0  0  0  0
  5  6  2  0  0  0  0
  5 25  1  0  0  0  0
  6  7  1  0  0  0  0
  6 26  1  0  0  0  0
  7  8  2  0  0  0  0
  7 37  1  0  0  0  0
  8 27  1  0  0  0  0
  9 10  1  0  0  0  0
  9 28  1  0  0  0  0
 10 11  2  0  0  0  0
 10 12  1  0  0  0  0
 12 18  1  0  0  0  0
 12 13  1  0  0  0  0
 12 29  1  0  0  0  0
 13 14  1  0  0  0  0
 13 30  1  0  0  0  0
 13 31  1  0  0  0  0
 14 15  2  0  0  0  0
 14 16  1  0  0  0  0
 16 17  1  0  0  0  0
 16 18  1  0  0  0  0
 17 32  1  0  0  0  0
 17 33  1  0  0  0  0
 17 34  1  0  0  0  0
 18 35  1  0  0  0  0
 18 36  1  0  0  0  0
M  CHG  1   7   1
M  END
> <s_m_source_file>
AV-unprocessed.smi

> <i_m_source_file_index>
3253

> <i_lp_mmshare_version>
43012

> <i_f3d_flags>
0

> <s_epik_input>
W2NIXTFuW2NIXVtjSF1uMVtDSDJdW0NAQEhdKFtDSDNdKVtOSF1DKD1PKVtDQEBIXTJbQ0gyXUMoPU8pTihbQ0gzXSlbQ0gyXTI=

> <s_epik_cmdline>
J2VwaWtfcHl0aG9uJywgJy1waCcsICc3LjAnLCAnLXRuJywgJzgnLCAnLW1hJywgJzIwMCcsICctbWV0YWxfYmluZGluZycsICctaW1hZScsICc8aW5maWxlLm1hZT4nLCAnLW9tYWUnLCAnPG91dGZpbGUubWFlPic=

> <r_lp_tautomer_probability>
1

> <r_epik_Ionization_Penalty>
0.251561

> <r_epik_Ionization_Penalty_Charging>
0

> <r_epik_Ionization_Penalty_Neutral>
0.251561

> <r_epik_State_Penalty>
0.242926

> <r_epik_Charging_Adjusted_Penalty>
0.242926

> <i_epik_Tot_Q>
1

> <i_epik_Tot_abs_Q>
1

> <r_epik_Metal_State_Penalty>
0.533885

> <b_epik_Metal_Only>
0

> <s_lp_Force_Field>
OPLS_2005

> <r_lp_Energy>
13.6979

> <b_lp_Chiralities_Consistent>
1

> <s_lp_Variant>
AV-unprocessed.smi:3253-2

> <Gold.Version>
5.8.1

> <Gold.Id.Protein>
6NUR|6NUR_protein|mol2

> <Gold.PLP.Fitness>
39.6525

> <Gold.PLP.PLP>
-29.8832

> <Gold.PLP.part.hbond>
-1.6840

> <Gold.PLP.part.metal>
0.0000

> <Gold.PLP.part.buried>
1.3025

> <Gold.PLP.part.nonpolar>
-28.0454

> <Gold.PLP.part.repulsive>
0.1966

> <Gold.PLP.ligand.clash>
0.0000

> <Gold.PLP.ligand.torsion>
0.7482

> <Gold.PLP.Chemscore.Hbond>
2.7963

> <Gold.PLP.Chemscore.CHOScore>
0.9452

> <Gold.PLP.Chemscore.Metal>
0.0000

> <Gold.Chemscore.Hbonds>
donor molecule, donor type, donor heavy atom, donor atom, acceptor molecule, acceptor atom, score
      L1  H     7    37       P1 10175  2.00
      P1  H 10752 10765       L1    11  0.81
      L1  C     5    25       P1  8028  0.96

> <Gold.PLP.Chemscore.Internal.Correction>
0.0415

> <Gold.Rescore>
     Score         DG    S(hbond)    S(metal)    S(lipo)     H(rot)  DE(clash)    DE(int)     intcor
     10.41     -12.58       1.94        0.00      49.68       2.03       0.19       1.97       ----

> <Gold.Chemscore.Fitness>
10.4119

> <Gold.Chemscore.DG>
-12.5811

> <Gold.Chemscore.ZeroCoef>
-5.4800

> <Gold.Chemscore.Hbond>
1.9449

> <Gold.Chemscore.Metal>
0.0000

> <Gold.Chemscore.Lipo>
49.6769

> <Gold.Chemscore.Internal_Hbond>
0.0000

> <Gold.Chemscore.DEClash>
0.1946

> <Gold.Chemscore.DEInternal>
1.9747

> <Gold.Chemscore.Rot>
2.0341

> <Gold.Chemscore.Internal.Correction>
   9.000000E+99

> <Gold.Chemscore.Hbonds>
donor molecule, donor type, donor heavy atom, donor atom, acceptor molecule, acceptor atom, score
      L1  H     7    37       P1 10175  0.82
      P1  H 10752 10765       L1    11  0.80

> <Gold.Chemscore.Hbond.Weighted>
-6.4961

> <Gold.Chemscore.Metal.Weighted>
-0.0000

> <Gold.Chemscore.Lipo.Weighted>
-5.8122

> <Gold.Chemscore.Internal_Hbond.Weighted>
0.0000

> <Gold.Chemscore.DEClash.Weighted>
0.1946

> <Gold.Chemscore.DEInternal.Weighted>
1.9747

> <Gold.Chemscore.Rot.Weighted>
5.2072

> <Gold.Chemscore.Internal.Correction.Weighted>
   9.000000E+99

> <Gold.Protein.RotatedTorsions>
[ 6907 6896 6895 6894 ] final   43.82 input  -60.11 | X-H torsion
[ 7974 7965 7964 7962 ] final   30.07 input  175.53 | X-H torsion
[ 8008 7997 7996 7995 ] final  175.99 input   59.86 | X-H torsion
[ 10167 10162 10161 10158 ] final  121.97 input  -65.29 | X-H torsion
[ 10718 10713 10712 10709 ] final -149.22 input   66.30 | X-H torsion
[ 10763 10752 10751 10750 ] final  174.36 input  -60.55 | X-H torsion
[ 11005 11000 10999 10996 ] final  -66.13 input  -57.11 | X-H torsion

> <Gold.Protein.ActiveResidues>
 VAL166  LYS551  ARG553  GLY616  TRP617  ASP618  TYR619  PRO620  LYS621  CYS622 
 ASP623  PHE694  ASN695  SER759  ASP760  ASP761  ALA762  ILE779  LEU786  VAL792 
 PHE793  MET794  SER795  GLU796  ALA797  LYS798  CYS799  TRP800  GLU811  SER814 

> <Gold.Protein.RotatedAtoms>
  152.2249  134.8377  160.0480 H   0  0  0  0  0  0  0  0  0  0  0  0  # atno 6907 bound_to 6896
  151.9147  133.3565  159.3884 H   0  0  0  0  0  0  0  0  0  0  0  0  # atno 6908 bound_to 6896
  150.7010  134.4621  159.5430 H   0  0  0  0  0  0  0  0  0  0  0  0  # atno 6909 bound_to 6896
  146.1634  139.6837  142.9018 H   0  0  0  0  0  0  0  0  0  0  0  0  # atno 7974 bound_to 7965
  156.0812  140.1395  156.9709 H   0  0  0  0  0  0  0  0  0  0  0  0  # atno 8008 bound_to 7997
  154.4586  140.0951  156.6879 H   0  0  0  0  0  0  0  0  0  0  0  0  # atno 8009 bound_to 7997
  155.5072  140.3452  155.4384 H   0  0  0  0  0  0  0  0  0  0  0  0  # atno 8010 bound_to 7997
  139.5887  144.7017  151.3344 H   0  0  0  0  0  0  0  0  0  0  0  0  # atno 10167 bound_to 10162
  156.4304  130.8072  151.2299 H   0  0  0  0  0  0  0  0  0  0  0  0  # atno 10718 bound_to 10713
  154.4528  135.2765  155.1769 H   0  0  0  0  0  0  0  0  0  0  0  0  # atno 10763 bound_to 10752
  154.3589  135.6134  153.5684 H   0  0  0  0  0  0  0  0  0  0  0  0  # atno 10764 bound_to 10752
  152.9848  135.5829  154.4876 H   0  0  0  0  0  0  0  0  0  0  0  0  # atno 10765 bound_to 10752
  141.1474  133.6694  156.6092 H   0  0  0  0  0  0  0  0  0  0  0  0  # atno 11005 bound_to 11000
  145.4531  141.0429  143.2793 LP  0  0  0  0  0  0  0  0  0  0  0  0  # atno 17320 bound_to 7965
  144.8058  139.6054  143.7051 LP  0  0  0  0  0  0  0  0  0  0  0  0  # atno 17321 bound_to 7965
  140.7154  143.7280  150.7645 LP  0  0  0  0  0  0  0  0  0  0  0  0  # atno 17342 bound_to 10162
  140.0830  143.4950  152.2520 LP  0  0  0  0  0  0  0  0  0  0  0  0  # atno 17343 bound_to 10162
  157.7508  131.0200  150.3691 LP  0  0  0  0  0  0  0  0  0  0  0  0  # atno 17370 bound_to 10713
  156.4027  130.3919  149.6948 LP  0  0  0  0  0  0  0  0  0  0  0  0  # atno 17371 bound_to 10713
  140.3628  134.7673  157.4545 LP  0  0  0  0  0  0  0  0  0  0  0  0  # atno 17394 bound_to 11000
  140.0772  134.5781  155.8579 LP  0  0  0  0  0  0  0  0  0  0  0  0  # atno 17395 bound_to 11000

$$$$
