AV-unprocessed.smi:1167|AV-procd|sdf|4938|dock4
  -GOLD-   22720 3523D 1   1.00000     0.00000
 Structure written by MMmdl.
 41 42  0  0  0  0  0  0  0  0  1 V2000
  145.3337  132.2698  150.5813 C   0  0  0  0  0  0  0  0  0  0  0  0
  144.1862  132.9406  151.0903 O   0  0  0  0  0  0  0  0  0  0  0  0
  144.3393  134.2216  151.5799 C   0  0  0  0  0  0  0  0  0  0  0  0
  143.1989  134.9075  152.0416 C   0  0  0  0  0  0  0  0  0  0  0  0
  143.3446  136.2163  152.5409 C   0  0  0  0  0  0  0  0  0  0  0  0
  144.6343  136.8016  152.5632 C   0  0  0  0  0  0  0  0  0  0  0  0
  144.9320  138.1097  153.0375 N   0  0  0  0  0  0  0  0  0  0  0  0
  145.9871  138.5461  153.7476 C   0  0  0  0  0  0  0  0  0  0  0  0
  146.9311  137.8563  154.1304 O   0  0  0  0  0  0  0  0  0  0  0  0
  145.8872  139.8596  153.9971 N   0  0  0  0  0  0  0  0  0  0  0  0
  146.8594  140.6522  154.7441 C   0  0  0  0  0  0  0  0  0  0  0  0
  148.0748  140.9628  153.8442 C   0  0  0  0  0  0  0  0  0  0  0  0
  149.2078  141.6307  154.6437 C   0  0  0  0  0  0  0  0  0  0  0  0
  149.5660  140.7638  155.7723 N   0  0  0  0  0  0  0  0  0  0  0  0
  150.7331  140.0782  155.8280 C   0  0  0  0  0  0  0  0  0  0  0  0
  150.9963  139.1426  157.0102 C   0  0  0  0  0  0  0  0  0  0  0  0
  151.6021  140.1725  154.9610 O   0  0  0  0  0  0  0  0  0  0  0  0
  148.4584  140.6359  156.7276 C   0  0  0  0  0  0  0  0  0  0  0  0
  147.2867  139.9166  156.0357 C   0  0  0  0  0  0  0  0  0  0  0  0
  145.7099  136.0276  152.0800 C   0  0  0  0  0  0  0  0  0  0  0  0
  145.5774  134.7734  151.5994 N   0  0  0  0  0  0  0  0  0  0  0  0
  145.0466  131.2771  150.2349 H   0  0  0  0  0  0  0  0  0  0  0  0
  146.0966  132.1434  151.3510 H   0  0  0  0  0  0  0  0  0  0  0  0
  145.7650  132.8042  149.7335 H   0  0  0  0  0  0  0  0  0  0  0  0
  142.2265  134.4383  152.0129 H   0  0  0  0  0  0  0  0  0  0  0  0
  142.4643  136.7291  152.8919 H   0  0  0  0  0  0  0  0  0  0  0  0
  144.2412  138.8099  152.8103 H   0  0  0  0  0  0  0  0  0  0  0  0
  145.0780  140.3498  153.6447 H   0  0  0  0  0  0  0  0  0  0  0  0
  146.4050  141.6046  155.0240 H   0  0  0  0  0  0  0  0  0  0  0  0
  148.4510  140.0409  153.3978 H   0  0  0  0  0  0  0  0  0  0  0  0
  147.7742  141.6068  153.0171 H   0  0  0  0  0  0  0  0  0  0  0  0
  150.0527  141.8396  153.9862 H   0  0  0  0  0  0  0  0  0  0  0  0
  148.8799  142.6002  155.0215 H   0  0  0  0  0  0  0  0  0  0  0  0
  150.2305  138.3686  157.0699 H   0  0  0  0  0  0  0  0  0  0  0  0
  151.0129  139.6998  157.9474 H   0  0  0  0  0  0  0  0  0  0  0  0
  151.9619  138.6475  156.9007 H   0  0  0  0  0  0  0  0  0  0  0  0
  148.7276  140.1095  157.6420 H   0  0  0  0  0  0  0  0  0  0  0  0
  148.1455  141.6306  157.0478 H   0  0  0  0  0  0  0  0  0  0  0  0
  146.4434  139.8403  156.7229 H   0  0  0  0  0  0  0  0  0  0  0  0
  147.5852  138.8942  155.7984 H   0  0  0  0  0  0  0  0  0  0  0  0
  146.7138  136.4271  152.0771 H   0  0  0  0  0  0  0  0  0  0  0  0
  1  2  1  0  0  0  0
  1 22  1  0  0  0  0
  1 23  1  0  0  0  0
  1 24  1  0  0  0  0
  2  3  1  0  0  0  0
  3 21  1  0  0  0  0
  3  4  2  0  0  0  0
  4  5  1  0  0  0  0
  4 25  1  0  0  0  0
  5  6  2  0  0  0  0
  5 26  1  0  0  0  0
  6  7  1  0  0  0  0
  6 20  1  0  0  0  0
  7  8  1  0  0  0  0
  7 27  1  0  0  0  0
  8  9  2  0  0  0  0
  8 10  1  0  0  0  0
 10 11  1  0  0  0  0
 10 28  1  0  0  0  0
 11 19  1  0  0  0  0
 11 12  1  0  0  0  0
 11 29  1  0  0  0  0
 12 13  1  0  0  0  0
 12 30  1  0  0  0  0
 12 31  1  0  0  0  0
 13 14  1  0  0  0  0
 13 32  1  0  0  0  0
 13 33  1  0  0  0  0
 14 15  1  0  0  0  0
 14 18  1  0  0  0  0
 15 16  1  0  0  0  0
 15 17  2  0  0  0  0
 16 34  1  0  0  0  0
 16 35  1  0  0  0  0
 16 36  1  0  0  0  0
 18 19  1  0  0  0  0
 18 37  1  0  0  0  0
 18 38  1  0  0  0  0
 19 39  1  0  0  0  0
 19 40  1  0  0  0  0
 20 21  2  0  0  0  0
 20 41  1  0  0  0  0
M  END
> <s_m_source_file>
AV-unprocessed.smi

> <i_m_source_file_index>
1167

> <i_lp_mmshare_version>
43012

> <i_f3d_flags>
0

> <s_epik_input>
W0NIM11PYzFbY0hdW2NIXWMoW2NIXW4xKVtOSF1DKD1PKVtOSF1bQ0hdMltDSDJdW0NIMl1OKEMoPU8pW0NIM10pW0NIMl1bQ0gyXTI=

> <s_epik_cmdline>
J2VwaWtfcHl0aG9uJywgJy1waCcsICc3LjAnLCAnLXRuJywgJzgnLCAnLW1hJywgJzIwMCcsICctbWV0YWxfYmluZGluZycsICctaW1hZScsICc8aW5maWxlLm1hZT4nLCAnLW9tYWUnLCAnPG91dGZpbGUubWFlPic=

> <r_lp_tautomer_probability>
1

> <r_epik_Ionization_Penalty>
9.6092e-05

> <r_epik_Ionization_Penalty_Charging>
0

> <r_epik_Ionization_Penalty_Neutral>
9.6092e-05

> <r_epik_State_Penalty>
-0

> <r_epik_Charging_Adjusted_Penalty>
0

> <i_epik_Tot_Q>
0

> <i_epik_Tot_abs_Q>
0

> <r_epik_Metal_State_Penalty>
-0

> <b_epik_Metal_Only>
0

> <s_lp_Force_Field>
OPLS_2005

> <r_lp_Energy>
24.5609

> <b_lp_Chiralities_Consistent>
1

> <s_lp_Variant>
AV-unprocessed.smi:1167-1

> <Gold.Version>
5.8.1

> <Gold.Id.Protein>
6NUR|6NUR_protein|mol2

> <Gold.PLP.Fitness>
39.3938

> <Gold.PLP.PLP>
-28.4275

> <Gold.PLP.part.hbond>
-3.0000

> <Gold.PLP.part.metal>
0.0000

> <Gold.PLP.part.buried>
-4.0264

> <Gold.PLP.part.nonpolar>
-22.0498

> <Gold.PLP.part.repulsive>
0.4691

> <Gold.PLP.ligand.clash>
0.0000

> <Gold.PLP.ligand.torsion>
0.5133

> <Gold.PLP.Chemscore.Hbond>
2.9920

> <Gold.PLP.Chemscore.CHOScore>
1.0000

> <Gold.PLP.Chemscore.Metal>
0.0000

> <Gold.Chemscore.Hbonds>
donor molecule, donor type, donor heavy atom, donor atom, acceptor molecule, acceptor atom, score
      L1  H     7    27       P1 10175  1.00
      L1  H    10    28       P1 10175  1.00
      P1  H  7989  7998       L1    17  1.00
      L1  C    20    41       P1  7948  1.00

> <Gold.PLP.Chemscore.Internal.Correction>
0.0168

> <Gold.Rescore>
     Score         DG    S(hbond)    S(metal)    S(lipo)     H(rot)  DE(clash)    DE(int)     intcor
     15.59     -18.58       2.92        0.00      56.45       1.27       0.15       2.84       ----

> <Gold.Chemscore.Fitness>
15.5939

> <Gold.Chemscore.DG>
-18.5834

> <Gold.Chemscore.ZeroCoef>
-5.4800

> <Gold.Chemscore.Hbond>
2.9228

> <Gold.Chemscore.Metal>
0.0000

> <Gold.Chemscore.Lipo>
56.4469

> <Gold.Chemscore.Internal_Hbond>
0.0000

> <Gold.Chemscore.DEClash>
0.1543

> <Gold.Chemscore.DEInternal>
2.8353

> <Gold.Chemscore.Rot>
1.2746

> <Gold.Chemscore.Internal.Correction>
   9.000000E+99

> <Gold.Chemscore.Hbonds>
donor molecule, donor type, donor heavy atom, donor atom, acceptor molecule, acceptor atom, score
      L1  H     7    27       P1 10175  0.99
      L1  H    10    28       P1 10175  0.95
      P1  H  7989  7998       L1    17  0.94

> <Gold.Chemscore.Hbond.Weighted>
-9.7621

> <Gold.Chemscore.Metal.Weighted>
-0.0000

> <Gold.Chemscore.Lipo.Weighted>
-6.6043

> <Gold.Chemscore.Internal_Hbond.Weighted>
0.0000

> <Gold.Chemscore.DEClash.Weighted>
0.1543

> <Gold.Chemscore.DEInternal.Weighted>
2.8353

> <Gold.Chemscore.Rot.Weighted>
3.2630

> <Gold.Chemscore.Internal.Correction.Weighted>
   9.000000E+99

> <Gold.Protein.RotatedTorsions>
[ 6907 6896 6895 6894 ] final   17.67 input  -60.11 | X-H torsion
[ 7974 7965 7964 7962 ] final   50.87 input  175.53 | X-H torsion
[ 8008 7997 7996 7995 ] final  -25.70 input   59.86 | X-H torsion
[ 10167 10162 10161 10158 ] final  113.30 input  -65.29 | X-H torsion
[ 10718 10713 10712 10709 ] final  160.07 input   66.30 | X-H torsion
[ 10763 10752 10751 10750 ] final  158.14 input  -60.55 | X-H torsion
[ 11005 11000 10999 10996 ] final -144.15 input  -57.11 | X-H torsion

> <Gold.Protein.ActiveResidues>
 VAL166  LYS551  ARG553  GLY616  TRP617  ASP618  TYR619  PRO620  LYS621  CYS622 
 ASP623  PHE694  ASN695  SER759  ASP760  ASP761  ALA762  ILE779  LEU786  VAL792 
 PHE793  MET794  SER795  GLU796  ALA797  LYS798  CYS799  TRP800  GLU811  SER814 

> <Gold.Protein.RotatedAtoms>
  151.8533  135.0550  160.0461 H   0  0  0  0  0  0  0  0  0  0  0  0  # atno 6907 bound_to 6896
  152.2720  133.5386  159.5453 H   0  0  0  0  0  0  0  0  0  0  0  0  # atno 6908 bound_to 6896
  150.7155  134.0601  159.3870 H   0  0  0  0  0  0  0  0  0  0  0  0  # atno 6909 bound_to 6896
  145.9969  139.4397  143.0039 H   0  0  0  0  0  0  0  0  0  0  0  0  # atno 7974 bound_to 7965
  154.4462  140.1919  156.0660 H   0  0  0  0  0  0  0  0  0  0  0  0  # atno 8008 bound_to 7997
  156.0547  140.3304  155.7365 H   0  0  0  0  0  0  0  0  0  0  0  0  # atno 8009 bound_to 7997
  155.5503  140.0594  157.2842 H   0  0  0  0  0  0  0  0  0  0  0  0  # atno 8010 bound_to 7997
  139.6472  144.7127  151.2120 H   0  0  0  0  0  0  0  0  0  0  0  0  # atno 10167 bound_to 10162
  157.1554  131.0574  151.2259 H   0  0  0  0  0  0  0  0  0  0  0  0  # atno 10718 bound_to 10713
  154.2114  135.2786  155.2957 H   0  0  0  0  0  0  0  0  0  0  0  0  # atno 10763 bound_to 10752
  154.5775  135.5599  153.7157 H   0  0  0  0  0  0  0  0  0  0  0  0  # atno 10764 bound_to 10752
  153.0063  135.6336  154.2253 H   0  0  0  0  0  0  0  0  0  0  0  0  # atno 10765 bound_to 10752
  140.8054  134.2808  157.4962 H   0  0  0  0  0  0  0  0  0  0  0  0  # atno 11005 bound_to 11000
  145.7546  140.9959  143.1232 LP  0  0  0  0  0  0  0  0  0  0  0  0  # atno 17320 bound_to 7965
  144.6906  139.9256  143.7469 LP  0  0  0  0  0  0  0  0  0  0  0  0  # atno 17321 bound_to 7965
  140.7520  143.6211  150.8512 LP  0  0  0  0  0  0  0  0  0  0  0  0  # atno 17342 bound_to 10162
  139.9855  143.5904  152.2928 LP  0  0  0  0  0  0  0  0  0  0  0  0  # atno 17343 bound_to 10162
  157.4182  130.7422  149.6892 LP  0  0  0  0  0  0  0  0  0  0  0  0  # atno 17370 bound_to 10713
  155.9763  130.4077  150.3789 LP  0  0  0  0  0  0  0  0  0  0  0  0  # atno 17371 bound_to 10713
  139.8718  134.9453  156.3905 LP  0  0  0  0  0  0  0  0  0  0  0  0  # atno 17394 bound_to 11000
  140.9253  133.7617  155.9956 LP  0  0  0  0  0  0  0  0  0  0  0  0  # atno 17395 bound_to 11000

$$$$
