AV-unprocessed.smi:2377|AV-procd|sdf|9448|dock1
  -GOLD-   2272013 73D 1   1.00000     0.00000
 Structure written by MMmdl.
 23 23  0  0  0  0  0  0  0  0  1 V2000
  151.3245  138.7649  154.8430 C   0  0  0  0  0  0  0  0  0  0  0  0
  150.9691  140.1679  155.0130 N   0  0  0  0  0  0  0  0  0  0  0  0
  151.3601  140.7071  156.3131 C   0  0  0  0  0  0  0  0  0  0  0  0
  150.9499  142.1835  156.4643 C   0  0  1  0  0  0  0  0  0  0  0  0
  149.5399  142.2525  156.4259 O   0  0  0  0  0  0  0  0  0  0  0  0
  151.5153  142.8200  157.7256 C   0  0  0  0  0  0  0  0  0  0  0  0
  152.2065  142.0432  158.6791 C   0  0  0  0  0  0  0  0  0  0  0  0
  152.7072  142.6711  159.8357 C   0  0  0  0  0  0  0  0  0  0  0  0
  152.4936  144.0547  159.9931 C   0  0  0  0  0  0  0  0  0  0  0  0
  151.8321  144.8099  159.0906 N   0  0  0  0  0  0  0  0  0  0  0  0
  151.3550  144.1995  157.9843 C   0  0  0  0  0  0  0  0  0  0  0  0
  151.0278  138.4104  153.8560 H   0  0  0  0  0  0  0  0  0  0  0  0
  150.8274  138.1408  155.5862 H   0  0  0  0  0  0  0  0  0  0  0  0
  152.4004  138.6178  154.9409 H   0  0  0  0  0  0  0  0  0  0  0  0
  149.9683  140.2825  154.8890 H   0  0  0  0  0  0  0  0  0  0  0  0
  150.8892  140.1225  157.1047 H   0  0  0  0  0  0  0  0  0  0  0  0
  152.4372  140.6035  156.4512 H   0  0  0  0  0  0  0  0  0  0  0  0
  151.3134  142.7399  155.5990 H   0  0  0  0  0  0  0  0  0  0  0  0
  149.2905  143.0131  155.9233 H   0  0  0  0  0  0  0  0  0  0  0  0
  152.3511  140.9833  158.5305 H   0  0  0  0  0  0  0  0  0  0  0  0
  153.2408  142.1059  160.5855 H   0  0  0  0  0  0  0  0  0  0  0  0
  152.8635  144.5681  160.8682 H   0  0  0  0  0  0  0  0  0  0  0  0
  150.8283  144.8318  157.2847 H   0  0  0  0  0  0  0  0  0  0  0  0
  1  2  1  0  0  0  0
  1 12  1  0  0  0  0
  1 13  1  0  0  0  0
  1 14  1  0  0  0  0
  2  3  1  0  0  0  0
  2 15  1  0  0  0  0
  3  4  1  0  0  0  0
  3 16  1  0  0  0  0
  3 17  1  0  0  0  0
  4  5  1  0  0  0  0
  4  6  1  0  0  0  0
  4 18  1  0  0  0  0
  5 19  1  0  0  0  0
  6 11  1  0  0  0  0
  6  7  2  0  0  0  0
  7  8  1  0  0  0  0
  7 20  1  0  0  0  0
  8  9  2  0  0  0  0
  8 21  1  0  0  0  0
  9 10  1  0  0  0  0
  9 22  1  0  0  0  0
 10 11  2  0  0  0  0
 11 23  1  0  0  0  0
M  END
> <s_m_source_file>
AV-unprocessed.smi

> <i_m_source_file_index>
2377

> <i_lp_mmshare_version>
43012

> <i_f3d_flags>
0

> <s_epik_input>
W0NIM11bTkhdW0NIMl1bQ0BIXShbT0hdKWMxW2NIXVtjSF1bY0hdbltjSF0x

> <s_epik_cmdline>
J2VwaWtfcHl0aG9uJywgJy1waCcsICc3LjAnLCAnLXRuJywgJzgnLCAnLW1hJywgJzIwMCcsICctbWV0YWxfYmluZGluZycsICctaW1hZScsICc8aW5maWxlLm1hZT4nLCAnLW9tYWUnLCAnPG91dGZpbGUubWFlPic=

> <r_epik_Ionization_Penalty>
2.4626

> <r_epik_Ionization_Penalty_Charging>
0

> <r_epik_Ionization_Penalty_Neutral>
2.4626

> <r_epik_State_Penalty>
2.6219

> <r_epik_Charging_Adjusted_Penalty>
2.6219

> <i_epik_Tot_Q>
0

> <i_epik_Tot_abs_Q>
0

> <r_epik_Metal_State_Penalty>
2.61964

> <b_epik_Metal_Only>
0

> <s_lp_Force_Field>
OPLS_2005

> <r_lp_Energy>
6.69751

> <b_lp_Chiralities_Consistent>
1

> <s_lp_Variant>
AV-unprocessed.smi:2377-4

> <Gold.Version>
5.8.1

> <Gold.Id.Protein>
6NUR|6NUR_protein|mol2

> <Gold.PLP.Fitness>
37.2979

> <Gold.PLP.PLP>
-28.4400

> <Gold.PLP.part.hbond>
-2.0000

> <Gold.PLP.part.metal>
0.0000

> <Gold.PLP.part.buried>
-5.2250

> <Gold.PLP.part.nonpolar>
-21.0369

> <Gold.PLP.part.repulsive>
0.0640

> <Gold.PLP.ligand.clash>
0.0000

> <Gold.PLP.ligand.torsion>
0.0761

> <Gold.PLP.Chemscore.Hbond>
2.0000

> <Gold.PLP.Chemscore.CHOScore>
1.0000

> <Gold.PLP.Chemscore.Metal>
0.0000

> <Gold.Chemscore.Hbonds>
donor molecule, donor type, donor heavy atom, donor atom, acceptor molecule, acceptor atom, score
      L1  H     5    19       P1  8028  1.00
      P1  H  7989  7998       L1     2  1.00
      L1  C    11    23       P1  8028  1.00

> <Gold.PLP.Chemscore.Internal.Correction>
0.0101

> <Gold.Rescore>
     Score         DG    S(hbond)    S(metal)    S(lipo)     H(rot)  DE(clash)    DE(int)     intcor
     14.02     -14.04       1.27        0.00      79.15       1.94       0.00       0.02       ----

> <Gold.Chemscore.Fitness>
14.0175

> <Gold.Chemscore.DG>
-14.0369

> <Gold.Chemscore.ZeroCoef>
-5.4800

> <Gold.Chemscore.Hbond>
1.2734

> <Gold.Chemscore.Metal>
0.0000

> <Gold.Chemscore.Lipo>
79.1504

> <Gold.Chemscore.Internal_Hbond>
0.0000

> <Gold.Chemscore.DEClash>
0.0015

> <Gold.Chemscore.DEInternal>
0.0179

> <Gold.Chemscore.Rot>
1.9363

> <Gold.Chemscore.Internal.Correction>
   9.000000E+99

> <Gold.Chemscore.Hbonds>
donor molecule, donor type, donor heavy atom, donor atom, acceptor molecule, acceptor atom, score
      L1  H     5    19       P1  8028  0.99
      P1  H  7989  7998       L1     2  0.12

> <Gold.Chemscore.Hbond.Weighted>
-4.2533

> <Gold.Chemscore.Metal.Weighted>
-0.0000

> <Gold.Chemscore.Lipo.Weighted>
-9.2606

> <Gold.Chemscore.Internal_Hbond.Weighted>
0.0000

> <Gold.Chemscore.DEClash.Weighted>
0.0015

> <Gold.Chemscore.DEInternal.Weighted>
0.0179

> <Gold.Chemscore.Rot.Weighted>
4.9570

> <Gold.Chemscore.Internal.Correction.Weighted>
   9.000000E+99

> <Gold.Protein.RotatedTorsions>
[ 6907 6896 6895 6894 ] final   23.40 input  -60.11 | X-H torsion
[ 7974 7965 7964 7962 ] final  103.66 input  175.53 | X-H torsion
[ 8008 7997 7996 7995 ] final  -66.30 input   59.86 | X-H torsion
[ 10167 10162 10161 10158 ] final   78.04 input  -65.29 | X-H torsion
[ 10718 10713 10712 10709 ] final  -80.97 input   66.30 | X-H torsion
[ 10763 10752 10751 10750 ] final -179.39 input  -60.55 | X-H torsion
[ 11005 11000 10999 10996 ] final  132.52 input  -57.11 | X-H torsion

> <Gold.Protein.ActiveResidues>
 VAL166  LYS551  ARG553  GLY616  TRP617  ASP618  TYR619  PRO620  LYS621  CYS622 
 ASP623  PHE694  ASN695  SER759  ASP760  ASP761  ALA762  ILE779  LEU786  VAL792 
 PHE793  MET794  SER795  GLU796  ALA797  LYS798  CYS799  TRP800  GLU811  SER814 

> <Gold.Protein.RotatedAtoms>
  151.9417  135.0210  160.0536 H   0  0  0  0  0  0  0  0  0  0  0  0  # atno 6907 bound_to 6896
  152.2030  133.4850  159.5077 H   0  0  0  0  0  0  0  0  0  0  0  0  # atno 6908 bound_to 6896
  150.6959  134.1482  159.4173 H   0  0  0  0  0  0  0  0  0  0  0  0  # atno 6909 bound_to 6896
  145.3429  139.2458  143.3599 H   0  0  0  0  0  0  0  0  0  0  0  0  # atno 7974 bound_to 7965
  154.4725  140.0915  156.7181 H   0  0  0  0  0  0  0  0  0  0  0  0  # atno 8008 bound_to 7997
  155.4684  140.3463  155.4304 H   0  0  0  0  0  0  0  0  0  0  0  0  # atno 8009 bound_to 7997
  156.1063  140.1435  156.9388 H   0  0  0  0  0  0  0  0  0  0  0  0  # atno 8010 bound_to 7997
  139.9751  144.5866  150.7950 H   0  0  0  0  0  0  0  0  0  0  0  0  # atno 10167 bound_to 10162
  156.0059  130.4590  150.3881 H   0  0  0  0  0  0  0  0  0  0  0  0  # atno 10718 bound_to 10713
  154.5357  135.2802  155.1140 H   0  0  0  0  0  0  0  0  0  0  0  0  # atno 10763 bound_to 10752
  154.2643  135.6316  153.5290 H   0  0  0  0  0  0  0  0  0  0  0  0  # atno 10764 bound_to 10752
  152.9967  135.5613  154.5883 H   0  0  0  0  0  0  0  0  0  0  0  0  # atno 10765 bound_to 10752
  139.9795  134.9552  156.9594 H   0  0  0  0  0  0  0  0  0  0  0  0  # atno 11005 bound_to 11000
  146.3000  140.4030  142.8707 LP  0  0  0  0  0  0  0  0  0  0  0  0  # atno 17320 bound_to 7965
  144.8776  140.7357  143.6007 LP  0  0  0  0  0  0  0  0  0  0  0  0  # atno 17321 bound_to 7965
  140.7508  143.2962  151.3198 LP  0  0  0  0  0  0  0  0  0  0  0  0  # atno 17342 bound_to 10162
  139.6452  144.0465  152.2585 LP  0  0  0  0  0  0  0  0  0  0  0  0  # atno 17343 bound_to 10162
  157.1957  131.0426  151.2677 LP  0  0  0  0  0  0  0  0  0  0  0  0  # atno 17370 bound_to 10713
  157.4021  130.7339  149.6775 LP  0  0  0  0  0  0  0  0  0  0  0  0  # atno 17371 bound_to 10713
  140.5125  134.0988  155.7273 LP  0  0  0  0  0  0  0  0  0  0  0  0  # atno 17394 bound_to 11000
  141.1469  133.9039  157.2194 LP  0  0  0  0  0  0  0  0  0  0  0  0  # atno 17395 bound_to 11000

$$$$
