AV-unprocessed.smi:1165|AV-procd|sdf|4932|dock3
  -GOLD-   22720 3513D 1   1.00000     0.00000
 Structure written by MMmdl.
 40 41  0  0  0  0  0  0  0  0  2 V2000
  153.3402  142.6688  162.4259 C   0  0  0  0  0  0  0  0  0  0  0  0
  153.3469  142.5553  160.8976 C   0  0  1  0  0  0  0  0  0  0  0  0
  152.8937  141.1638  160.4196 C   0  0  0  0  0  0  0  0  0  0  0  0
  152.7841  141.1076  158.9525 N   0  0  0  0  0  0  0  0  0  0  0  0
  152.5084  139.5402  158.2572 S   0  0  0  0  0  0  0  0  0  0  0  0
  151.1482  139.1391  158.6515 O   0  0  0  0  0  0  0  0  0  0  0  0
  152.7864  139.6900  156.8191 O   0  0  0  0  0  0  0  0  0  0  0  0
  153.6538  138.7381  159.0810 N   0  5  0  0  0  0  0  0  0  0  0  0
  153.2815  137.9712  160.2595 C   0  0  0  0  0  0  0  0  0  0  0  0
  154.4175  137.0026  160.6630 C   0  0  0  0  0  0  0  0  0  0  0  0
  154.3410  136.4692  162.0898 C   0  0  0  0  0  0  0  0  0  0  0  0
  153.9653  137.3021  163.1667 C   0  0  0  0  0  0  0  0  0  0  0  0
  153.9060  136.7541  164.4622 C   0  0  0  0  0  0  0  0  0  0  0  0
  154.2286  135.3928  164.6292 C   0  0  0  0  0  0  0  0  0  0  0  0
  154.6008  134.5871  163.6119 N   0  0  0  0  0  0  0  0  0  0  0  0
  154.6549  135.1212  162.3730 C   0  0  0  0  0  0  0  0  0  0  0  0
  152.0231  142.2404  158.3886 C   0  0  0  0  0  0  0  0  0  0  0  0
  152.5050  143.5862  158.9578 C   0  0  1  0  0  0  0  0  0  0  0  0
  151.6250  144.7516  158.4925 C   0  0  0  0  0  0  0  0  0  0  0  0
  152.4718  143.5449  160.3769 O   0  0  0  0  0  0  0  0  0  0  0  0
  154.0122  141.9377  162.8764 H   0  0  0  0  0  0  0  0  0  0  0  0
  152.3420  142.4995  162.8301 H   0  0  0  0  0  0  0  0  0  0  0  0
  153.6652  143.6594  162.7440 H   0  0  0  0  0  0  0  0  0  0  0  0
  154.3611  142.7499  160.5439 H   0  0  0  0  0  0  0  0  0  0  0  0
  153.6046  140.4128  160.7638 H   0  0  0  0  0  0  0  0  0  0  0  0
  151.9248  140.9096  160.8513 H   0  0  0  0  0  0  0  0  0  0  0  0
  153.0806  138.6327  161.1022 H   0  0  0  0  0  0  0  0  0  0  0  0
  152.3618  137.4037  160.1126 H   0  0  0  0  0  0  0  0  0  0  0  0
  154.4421  136.1593  159.9714 H   0  0  0  0  0  0  0  0  0  0  0  0
  155.3752  137.5099  160.5439 H   0  0  0  0  0  0  0  0  0  0  0  0
  153.7193  138.3406  163.0014 H   0  0  0  0  0  0  0  0  0  0  0  0
  153.6165  137.3617  165.3064 H   0  0  0  0  0  0  0  0  0  0  0  0
  154.1914  134.9394  165.6087 H   0  0  0  0  0  0  0  0  0  0  0  0
  154.9550  134.4505  161.5817 H   0  0  0  0  0  0  0  0  0  0  0  0
  152.1203  142.2568  157.3042 H   0  0  0  0  0  0  0  0  0  0  0  0
  150.9648  142.0939  158.6091 H   0  0  0  0  0  0  0  0  0  0  0  0
  153.5279  143.7753  158.6275 H   0  0  0  0  0  0  0  0  0  0  0  0
  151.6258  144.8334  157.4054 H   0  0  0  0  0  0  0  0  0  0  0  0
  151.9839  145.6978  158.8977 H   0  0  0  0  0  0  0  0  0  0  0  0
  150.5923  144.6199  158.8171 H   0  0  0  0  0  0  0  0  0  0  0  0
  1  2  1  0  0  0  0
  1 21  1  0  0  0  0
  1 22  1  0  0  0  0
  1 23  1  0  0  0  0
  2 20  1  0  0  0  0
  2  3  1  0  0  0  0
  2 24  1  0  0  0  0
  3  4  1  0  0  0  0
  3 25  1  0  0  0  0
  3 26  1  0  0  0  0
  4  5  1  0  0  0  0
  4 17  1  0  0  0  0
  5  6  2  0  0  0  0
  5  7  2  0  0  0  0
  5  8  1  0  0  0  0
  8  9  1  0  0  0  0
  9 10  1  0  0  0  0
  9 27  1  0  0  0  0
  9 28  1  0  0  0  0
 10 11  1  0  0  0  0
 10 29  1  0  0  0  0
 10 30  1  0  0  0  0
 11 16  1  0  0  0  0
 11 12  2  0  0  0  0
 12 13  1  0  0  0  0
 12 31  1  0  0  0  0
 13 14  2  0  0  0  0
 13 32  1  0  0  0  0
 14 15  1  0  0  0  0
 14 33  1  0  0  0  0
 15 16  2  0  0  0  0
 16 34  1  0  0  0  0
 17 18  1  0  0  0  0
 17 35  1  0  0  0  0
 17 36  1  0  0  0  0
 18 19  1  0  0  0  0
 18 20  1  0  0  0  0
 18 37  1  0  0  0  0
 19 38  1  0  0  0  0
 19 39  1  0  0  0  0
 19 40  1  0  0  0  0
M  CHG  1   8  -1
M  END
> <s_m_source_file>
AV-unprocessed.smi

> <i_m_source_file_index>
1165

> <i_lp_mmshare_version>
43012

> <i_f3d_flags>
0

> <s_epik_input>
W0NIM11bQ0BASF0xW0NIMl1OKFtDSDJdW0NASF0oTzEpW0NIM10pUyg9TykoPU8pW05IXVtDSDJdW0NIMl1jMltjSF1bY0hdW2NIXW5bY0hdMg==

> <s_epik_cmdline>
J2VwaWtfcHl0aG9uJywgJy1waCcsICc3LjAnLCAnLXRuJywgJzgnLCAnLW1hJywgJzIwMCcsICctbWV0YWxfYmluZGluZycsICctaW1hZScsICc8aW5maWxlLm1hZT4nLCAnLW9tYWUnLCAnPG91dGZpbGUubWFlPic=

> <r_epik_Ionization_Penalty>
1.23471

> <r_epik_Ionization_Penalty_Charging>
1.20871

> <r_epik_Ionization_Penalty_Neutral>
0.025996

> <r_epik_State_Penalty>
1.46261

> <r_epik_Charging_Adjusted_Penalty>
2.67132

> <i_epik_Tot_Q>
-1

> <i_epik_Tot_abs_Q>
1

> <r_epik_Metal_State_Penalty>
0.521406

> <b_epik_Metal_Only>
0

> <s_lp_Force_Field>
OPLS_2005

> <r_lp_Energy>
1.53282

> <b_lp_Chiralities_Consistent>
1

> <s_lp_Variant>
AV-unprocessed.smi:1165-5

> <Gold.Version>
5.8.1

> <Gold.Id.Protein>
6NUR|6NUR_protein|mol2

> <Gold.PLP.Fitness>
45.4650

> <Gold.PLP.PLP>
-43.3565

> <Gold.PLP.part.hbond>
-1.0000

> <Gold.PLP.part.metal>
0.0000

> <Gold.PLP.part.buried>
-5.8079

> <Gold.PLP.part.nonpolar>
-35.8571

> <Gold.PLP.part.repulsive>
0.0527

> <Gold.PLP.ligand.clash>
0.0000

> <Gold.PLP.ligand.torsion>
1.1836

> <Gold.PLP.Chemscore.Hbond>
1.0000

> <Gold.PLP.Chemscore.CHOScore>
0.0000

> <Gold.PLP.Chemscore.Metal>
0.0000

> <Gold.Chemscore.Hbonds>
donor molecule, donor type, donor heavy atom, donor atom, acceptor molecule, acceptor atom, score
      P1  H  7997  8010       L1     7  1.00

> <Gold.PLP.Chemscore.Internal.Correction>
1.4757

> <Gold.Rescore>
     Score         DG    S(hbond)    S(metal)    S(lipo)     H(rot)  DE(clash)    DE(int)     intcor
     17.90     -19.09       0.99        0.00     120.21       1.47       0.00       1.19       ----

> <Gold.Chemscore.Fitness>
17.9014

> <Gold.Chemscore.DG>
-19.0925

> <Gold.Chemscore.ZeroCoef>
-5.4800

> <Gold.Chemscore.Hbond>
0.9938

> <Gold.Chemscore.Metal>
0.0000

> <Gold.Chemscore.Lipo>
120.2086

> <Gold.Chemscore.Internal_Hbond>
0.0000

> <Gold.Chemscore.DEClash>
0.0029

> <Gold.Chemscore.DEInternal>
1.1882

> <Gold.Chemscore.Rot>
1.4731

> <Gold.Chemscore.Internal.Correction>
   9.000000E+99

> <Gold.Chemscore.Hbonds>
donor molecule, donor type, donor heavy atom, donor atom, acceptor molecule, acceptor atom, score
      P1  H  7997  8010       L1     7  0.60

> <Gold.Chemscore.Hbond.Weighted>
-3.3192

> <Gold.Chemscore.Metal.Weighted>
-0.0000

> <Gold.Chemscore.Lipo.Weighted>
-14.0644

> <Gold.Chemscore.Internal_Hbond.Weighted>
0.0000

> <Gold.Chemscore.DEClash.Weighted>
0.0029

> <Gold.Chemscore.DEInternal.Weighted>
1.1882

> <Gold.Chemscore.Rot.Weighted>
3.7712

> <Gold.Chemscore.Internal.Correction.Weighted>
   9.000000E+99

> <Gold.Protein.RotatedTorsions>
[ 6907 6896 6895 6894 ] final  147.39 input  -60.11 | X-H torsion
[ 7974 7965 7964 7962 ] final   74.77 input  175.53 | X-H torsion
[ 8008 7997 7996 7995 ] final   57.08 input   59.86 | X-H torsion
[ 10167 10162 10161 10158 ] final -114.21 input  -65.29 | X-H torsion
[ 10718 10713 10712 10709 ] final  131.58 input   66.30 | X-H torsion
[ 10763 10752 10751 10750 ] final  119.62 input  -60.55 | X-H torsion
[ 11005 11000 10999 10996 ] final    7.69 input  -57.11 | X-H torsion

> <Gold.Protein.ActiveResidues>
 VAL166  LYS551  ARG553  GLY616  TRP617  ASP618  TYR619  PRO620  LYS621  CYS622 
 ASP623  PHE694  ASN695  SER759  ASP760  ASP761  ALA762  ILE779  LEU786  VAL792 
 PHE793  MET794  SER795  GLU796  ALA797  LYS798  CYS799  TRP800  GLU811  SER814 

> <Gold.Protein.RotatedAtoms>
  152.1554  133.4548  159.4834 H   0  0  0  0  0  0  0  0  0  0  0  0  # atno 6907 bound_to 6896
  150.6900  134.2137  159.4378 H   0  0  0  0  0  0  0  0  0  0  0  0  # atno 6908 bound_to 6896
  152.0036  134.9914  160.0616 H   0  0  0  0  0  0  0  0  0  0  0  0  # atno 6909 bound_to 6896
  145.7241  139.2659  143.1579 H   0  0  0  0  0  0  0  0  0  0  0  0  # atno 7974 bound_to 7965
  155.5280  140.3481  155.4420 H   0  0  0  0  0  0  0  0  0  0  0  0  # atno 8008 bound_to 7997
  156.0738  140.1369  156.9823 H   0  0  0  0  0  0  0  0  0  0  0  0  # atno 8009 bound_to 7997
  154.4542  140.0960  156.6685 H   0  0  0  0  0  0  0  0  0  0  0  0  # atno 8010 bound_to 7997
  140.1035  143.4592  152.1797 H   0  0  0  0  0  0  0  0  0  0  0  0  # atno 10167 bound_to 10162
  157.4954  131.1092  150.9500 H   0  0  0  0  0  0  0  0  0  0  0  0  # atno 10718 bound_to 10713
  153.5858  135.3475  155.2892 H   0  0  0  0  0  0  0  0  0  0  0  0  # atno 10763 bound_to 10752
  154.8660  135.4193  154.2570 H   0  0  0  0  0  0  0  0  0  0  0  0  # atno 10764 bound_to 10752
  153.3366  135.7047  153.6973 H   0  0  0  0  0  0  0  0  0  0  0  0  # atno 10765 bound_to 10752
  140.5453  134.0335  155.7918 H   0  0  0  0  0  0  0  0  0  0  0  0  # atno 11005 bound_to 11000
  146.0598  140.7982  142.9740 LP  0  0  0  0  0  0  0  0  0  0  0  0  # atno 17320 bound_to 7965
  144.6909  140.3180  143.7237 LP  0  0  0  0  0  0  0  0  0  0  0  0  # atno 17321 bound_to 7965
  139.5658  144.7434  151.4026 LP  0  0  0  0  0  0  0  0  0  0  0  0  # atno 17342 bound_to 10162
  140.6965  143.7736  150.7335 LP  0  0  0  0  0  0  0  0  0  0  0  0  # atno 17343 bound_to 10162
  157.0188  130.5665  149.5329 LP  0  0  0  0  0  0  0  0  0  0  0  0  # atno 17370 bound_to 10713
  156.0197  130.5292  150.8241 LP  0  0  0  0  0  0  0  0  0  0  0  0  # atno 17371 bound_to 10713
  141.1203  133.9472  157.2742 LP  0  0  0  0  0  0  0  0  0  0  0  0  # atno 17394 bound_to 11000
  139.9483  135.0180  156.8917 LP  0  0  0  0  0  0  0  0  0  0  0  0  # atno 17395 bound_to 11000

$$$$
