AV-unprocessed.smi:1075|AV-procd|sdf|4696|dock7
  -GOLD-   22720 3213D 1   1.00000     0.00000
 Structure written by MMmdl.
 50 51  0  0  0  0  0  0  0  0  1 V2000
  146.4708  140.3932  157.6769 C   0  0  0  0  0  0  0  0  0  0  0  0
  146.0868  141.4566  156.6878 C   0  0  0  0  0  0  0  0  0  0  0  0
  145.2770  142.4294  157.0687 N   0  0  0  0  0  0  0  0  0  0  0  0
  145.1376  143.2076  155.9781 N   0  0  0  0  0  0  0  0  0  0  0  0
  144.2991  144.3885  156.0546 C   0  0  0  0  0  0  0  0  0  0  0  0
  145.8644  142.7281  154.9049 C   0  0  0  0  0  0  0  0  0  0  0  0
  145.8769  143.4282  153.5820 C   0  0  0  0  0  0  0  0  0  0  0  0
  146.4922  141.5820  155.3257 C   0  0  0  0  0  0  0  0  0  0  0  0
  147.4185  140.6490  154.5711 C   0  0  1  0  0  0  0  0  0  0  0  0
  147.1048  140.6158  153.0632 C   0  0  0  0  0  0  0  0  0  0  0  0
  148.8779  141.0179  154.8817 C   0  0  0  0  0  0  0  0  0  0  0  0
  149.6460  141.3578  153.9812 O   0  0  0  0  0  0  0  0  0  0  0  0
  149.2307  140.9506  156.1788 N   0  0  0  0  0  0  0  0  0  0  0  0
  150.5083  141.3093  156.8056 C   0  0  1  0  0  0  0  0  0  0  0  0
  151.6679  140.5799  156.0869 C   0  0  0  0  0  0  0  0  0  0  0  0
  150.6888  142.8520  156.7748 C   0  0  0  0  0  0  0  0  0  0  0  0
  151.8190  143.3582  157.6879 C   0  0  0  0  0  0  0  0  0  0  0  0
  151.6363  142.8851  159.1393 C   0  0  2  0  0  0  0  0  0  0  0  0
  152.7630  143.3992  160.0466 C   0  0  0  0  0  0  0  0  0  0  0  0
  151.5326  141.3520  159.1826 C   0  0  0  0  0  0  0  0  0  0  0  0
  150.4009  140.8355  158.2772 C   0  0  0  0  0  0  0  0  0  0  0  0
  147.5527  140.2611  157.7066 H   0  0  0  0  0  0  0  0  0  0  0  0
  146.0250  139.4349  157.4098 H   0  0  0  0  0  0  0  0  0  0  0  0
  146.1429  140.6418  158.6870 H   0  0  0  0  0  0  0  0  0  0  0  0
  144.9218  145.2821  156.0080 H   0  0  0  0  0  0  0  0  0  0  0  0
  143.7329  144.4005  156.9872 H   0  0  0  0  0  0  0  0  0  0  0  0
  143.5987  144.3977  155.2194 H   0  0  0  0  0  0  0  0  0  0  0  0
  146.7951  143.2226  153.0334 H   0  0  0  0  0  0  0  0  0  0  0  0
  145.8088  144.5093  153.7024 H   0  0  0  0  0  0  0  0  0  0  0  0
  145.0375  143.1025  152.9673 H   0  0  0  0  0  0  0  0  0  0  0  0
  147.2874  139.6283  154.9319 H   0  0  0  0  0  0  0  0  0  0  0  0
  147.2248  141.5928  152.5955 H   0  0  0  0  0  0  0  0  0  0  0  0
  146.0781  140.2924  152.8898 H   0  0  0  0  0  0  0  0  0  0  0  0
  147.7577  139.9169  152.5393 H   0  0  0  0  0  0  0  0  0  0  0  0
  148.5085  140.6525  156.8186 H   0  0  0  0  0  0  0  0  0  0  0  0
  152.6248  140.7527  156.5777 H   0  0  0  0  0  0  0  0  0  0  0  0
  151.7823  140.9124  155.0554 H   0  0  0  0  0  0  0  0  0  0  0  0
  151.5044  139.5020  156.0677 H   0  0  0  0  0  0  0  0  0  0  0  0
  150.8747  143.1981  155.7578 H   0  0  0  0  0  0  0  0  0  0  0  0
  149.7585  143.3297  157.0876 H   0  0  0  0  0  0  0  0  0  0  0  0
  152.7827  143.0206  157.3049 H   0  0  0  0  0  0  0  0  0  0  0  0
  151.8462  144.4479  157.6557 H   0  0  0  0  0  0  0  0  0  0  0  0
  150.6981  143.2978  159.5135 H   0  0  0  0  0  0  0  0  0  0  0  0
  153.7345  143.0209  159.7268 H   0  0  0  0  0  0  0  0  0  0  0  0
  152.6079  143.0875  161.0797 H   0  0  0  0  0  0  0  0  0  0  0  0
  152.8097  144.4883  160.0352 H   0  0  0  0  0  0  0  0  0  0  0  0
  152.4821  140.9056  158.8859 H   0  0  0  0  0  0  0  0  0  0  0  0
  151.3520  141.0229  160.2065 H   0  0  0  0  0  0  0  0  0  0  0  0
  149.4540  141.1787  158.6981 H   0  0  0  0  0  0  0  0  0  0  0  0
  150.3669  139.7459  158.3208 H   0  0  0  0  0  0  0  0  0  0  0  0
  1  2  1  0  0  0  0
  1 22  1  0  0  0  0
  1 23  1  0  0  0  0
  1 24  1  0  0  0  0
  2  8  1  0  0  0  0
  2  3  2  0  0  0  0
  3  4  1  0  0  0  0
  4  5  1  0  0  0  0
  4  6  1  0  0  0  0
  5 25  1  0  0  0  0
  5 26  1  0  0  0  0
  5 27  1  0  0  0  0
  6  7  1  0  0  0  0
  6  8  2  0  0  0  0
  7 28  1  0  0  0  0
  7 29  1  0  0  0  0
  7 30  1  0  0  0  0
  8  9  1  0  0  0  0
  9 10  1  0  0  0  0
  9 11  1  0  0  0  0
  9 31  1  0  0  0  0
 10 32  1  0  0  0  0
 10 33  1  0  0  0  0
 10 34  1  0  0  0  0
 11 12  2  0  0  0  0
 11 13  1  0  0  0  0
 13 14  1  0  0  0  0
 13 35  1  0  0  0  0
 14 21  1  0  0  0  0
 14 15  1  0  0  0  0
 14 16  1  0  0  0  0
 15 36  1  0  0  0  0
 15 37  1  0  0  0  0
 15 38  1  0  0  0  0
 16 17  1  0  0  0  0
 16 39  1  0  0  0  0
 16 40  1  0  0  0  0
 17 18  1  0  0  0  0
 17 41  1  0  0  0  0
 17 42  1  0  0  0  0
 18 19  1  0  0  0  0
 18 20  1  0  0  0  0
 18 43  1  0  0  0  0
 19 44  1  0  0  0  0
 19 45  1  0  0  0  0
 19 46  1  0  0  0  0
 20 21  1  0  0  0  0
 20 47  1  0  0  0  0
 20 48  1  0  0  0  0
 21 49  1  0  0  0  0
 21 50  1  0  0  0  0
M  END
> <s_m_source_file>
AV-unprocessed.smi

> <i_m_source_file_index>
1075

> <i_lp_mmshare_version>
43012

> <i_f3d_flags>
0

> <s_epik_input>
W0NIM11jMW5uKFtDSDNdKWMoW0NIM10pYzFbQ0BIXShbQ0gzXSlDKD1PKVtOSF1bQ0BAXTIoW0NIM10pW0NIMl1bQ0gyXVtDQEBIXShbQ0gzXSlbQ0gyXVtDSDJdMg==

> <s_epik_cmdline>
J2VwaWtfcHl0aG9uJywgJy1waCcsICc3LjAnLCAnLXRuJywgJzgnLCAnLW1hJywgJzIwMCcsICctbWV0YWxfYmluZGluZycsICctaW1hZScsICc8aW5maWxlLm1hZT4nLCAnLW9tYWUnLCAnPG91dGZpbGUubWFlPic=

> <r_lp_tautomer_probability>
1

> <r_epik_Ionization_Penalty>
0.00502928

> <r_epik_Ionization_Penalty_Charging>
0

> <r_epik_Ionization_Penalty_Neutral>
0.00502928

> <r_epik_State_Penalty>
0.0036576

> <r_epik_Charging_Adjusted_Penalty>
0.0036576

> <i_epik_Tot_Q>
0

> <i_epik_Tot_abs_Q>
0

> <r_epik_Metal_State_Penalty>
-0

> <b_epik_Metal_Only>
0

> <s_lp_Force_Field>
OPLS_2005

> <r_lp_Energy>
7.42101

> <b_lp_Chiralities_Consistent>
1

> <s_lp_Variant>
AV-unprocessed.smi:1075-4

> <Gold.Version>
5.8.1

> <Gold.Id.Protein>
6NUR|6NUR_protein|mol2

> <Gold.PLP.Fitness>
36.7084

> <Gold.PLP.PLP>
-35.2175

> <Gold.PLP.part.hbond>
-2.0000

> <Gold.PLP.part.metal>
0.0000

> <Gold.PLP.part.buried>
-1.3130

> <Gold.PLP.part.nonpolar>
-31.8601

> <Gold.PLP.part.repulsive>
0.5990

> <Gold.PLP.ligand.clash>
0.0000

> <Gold.PLP.ligand.torsion>
0.8338

> <Gold.PLP.Chemscore.Hbond>
1.0234

> <Gold.PLP.Chemscore.CHOScore>
0.0000

> <Gold.PLP.Chemscore.Metal>
0.0000

> <Gold.Chemscore.Hbonds>
donor molecule, donor type, donor heavy atom, donor atom, acceptor molecule, acceptor atom, score
      P1  H  7989  7998       L1    12  0.25
      P1  H  8011  8017       L1    12  0.74

> <Gold.PLP.Chemscore.Internal.Correction>
0.0881

> <Gold.Rescore>
     Score         DG    S(hbond)    S(metal)    S(lipo)     H(rot)  DE(clash)    DE(int)     intcor
     13.98     -18.06       1.09        0.00     103.35       1.23       2.16       1.92       ----

> <Gold.Chemscore.Fitness>
13.9791

> <Gold.Chemscore.DG>
-18.0572

> <Gold.Chemscore.ZeroCoef>
-5.4800

> <Gold.Chemscore.Hbond>
1.0898

> <Gold.Chemscore.Metal>
0.0000

> <Gold.Chemscore.Lipo>
103.3454

> <Gold.Chemscore.Internal_Hbond>
0.0000

> <Gold.Chemscore.DEClash>
2.1632

> <Gold.Chemscore.DEInternal>
1.9150

> <Gold.Chemscore.Rot>
1.2321

> <Gold.Chemscore.Internal.Correction>
   9.000000E+99

> <Gold.Chemscore.Hbonds>
donor molecule, donor type, donor heavy atom, donor atom, acceptor molecule, acceptor atom, score
      P1  H  7989  7998       L1    12  0.24
      P1  H  8011  8017       L1    12  0.73

> <Gold.Chemscore.Hbond.Weighted>
-3.6399

> <Gold.Chemscore.Metal.Weighted>
-0.0000

> <Gold.Chemscore.Lipo.Weighted>
-12.0914

> <Gold.Chemscore.Internal_Hbond.Weighted>
0.0000

> <Gold.Chemscore.DEClash.Weighted>
2.1632

> <Gold.Chemscore.DEInternal.Weighted>
1.9150

> <Gold.Chemscore.Rot.Weighted>
3.1541

> <Gold.Chemscore.Internal.Correction.Weighted>
   9.000000E+99

> <Gold.Protein.RotatedTorsions>
[ 6907 6896 6895 6894 ] final   43.03 input  -60.11 | X-H torsion
[ 7974 7965 7964 7962 ] final  141.85 input  175.53 | X-H torsion
[ 8008 7997 7996 7995 ] final   56.60 input   59.86 | X-H torsion
[ 10167 10162 10161 10158 ] final  -94.61 input  -65.29 | X-H torsion
[ 10718 10713 10712 10709 ] final  -28.46 input   66.30 | X-H torsion
[ 10763 10752 10751 10750 ] final   64.15 input  -60.55 | X-H torsion
[ 11005 11000 10999 10996 ] final  -39.38 input  -57.11 | X-H torsion

> <Gold.Protein.ActiveResidues>
 VAL166  LYS551  ARG553  GLY616  TRP617  ASP618  TYR619  PRO620  LYS621  CYS622 
 ASP623  PHE694  ASN695  SER759  ASP760  ASP761  ALA762  ILE779  LEU786  VAL792 
 PHE793  MET794  SER795  GLU796  ALA797  LYS798  CYS799  TRP800  GLU811  SER814 

> <Gold.Protein.RotatedAtoms>
  152.2152  134.8464  160.0492 H   0  0  0  0  0  0  0  0  0  0  0  0  # atno 6907 bound_to 6896
  151.9268  133.3595  159.3925 H   0  0  0  0  0  0  0  0  0  0  0  0  # atno 6908 bound_to 6896
  150.6986  134.4503  159.5377 H   0  0  0  0  0  0  0  0  0  0  0  0  # atno 6909 bound_to 6896
  144.9059  139.5359  143.5731 H   0  0  0  0  0  0  0  0  0  0  0  0  # atno 7974 bound_to 7965
  155.5202  140.3479  155.4405 H   0  0  0  0  0  0  0  0  0  0  0  0  # atno 8008 bound_to 7997
  156.0790  140.1381  156.9763 H   0  0  0  0  0  0  0  0  0  0  0  0  # atno 8009 bound_to 7997
  154.4569  140.0950  156.6758 H   0  0  0  0  0  0  0  0  0  0  0  0  # atno 8010 bound_to 7997
  140.3127  143.3095  152.0131 H   0  0  0  0  0  0  0  0  0  0  0  0  # atno 10167 bound_to 10162
  156.4250  130.4434  149.7157 H   0  0  0  0  0  0  0  0  0  0  0  0  # atno 10718 bound_to 10713
  153.0045  135.5403  154.6465 H   0  0  0  0  0  0  0  0  0  0  0  0  # atno 10763 bound_to 10752
  154.5707  135.2841  155.0832 H   0  0  0  0  0  0  0  0  0  0  0  0  # atno 10764 bound_to 10752
  154.1998  135.6486  153.5136 H   0  0  0  0  0  0  0  0  0  0  0  0  # atno 10765 bound_to 10752
  141.0097  133.6914  156.2178 H   0  0  0  0  0  0  0  0  0  0  0  0  # atno 11005 bound_to 11000
  146.3133  139.7827  142.9003 LP  0  0  0  0  0  0  0  0  0  0  0  0  # atno 17320 bound_to 7965
  145.3536  141.0312  143.3324 LP  0  0  0  0  0  0  0  0  0  0  0  0  # atno 17321 bound_to 7965
  139.4890  144.6372  151.6951 LP  0  0  0  0  0  0  0  0  0  0  0  0  # atno 17342 bound_to 10162
  140.5554  144.0357  150.6145 LP  0  0  0  0  0  0  0  0  0  0  0  0  # atno 17343 bound_to 10162
  156.4083  130.7709  151.2721 LP  0  0  0  0  0  0  0  0  0  0  0  0  # atno 17370 bound_to 10713
  157.7508  131.0219  150.3770 LP  0  0  0  0  0  0  0  0  0  0  0  0  # atno 17371 bound_to 10713
  140.6754  134.4824  157.5588 LP  0  0  0  0  0  0  0  0  0  0  0  0  # atno 17394 bound_to 11000
  139.9083  134.8400  156.1623 LP  0  0  0  0  0  0  0  0  0  0  0  0  # atno 17395 bound_to 11000

$$$$
