AV-unprocessed.smi:1767|AV-procd|sdf|7141|dock7
  -GOLD-   22720 8383D 1   1.00000     0.00000
 Structure written by MMmdl.
 33 35  0  0  0  0  0  0  0  0  2 V2000
  152.3359  139.3373  157.7031 O   0  0  0  0  0  0  0  0  0  0  0  0
  151.5141  140.3215  157.1103 C   0  0  2  0  0  0  0  0  0  0  0  0
  151.8484  140.3846  155.6060 C   0  0  0  0  0  0  0  0  0  0  0  0
  150.8750  139.6530  154.7823 N   0  0  0  0  0  0  0  0  0  0  0  0
  151.0025  138.4534  154.1528 C   0  0  0  0  0  0  0  0  0  0  0  0
  149.8205  138.1862  153.5316 N   0  3  0  0  0  0  0  0  0  0  0  0
  148.9242  139.2309  153.7654 C   0  0  0  0  0  0  0  0  0  0  0  0
  147.6083  139.4106  153.3500 C   0  0  0  0  0  0  0  0  0  0  0  0
  146.9685  140.5959  153.7682 C   0  0  0  0  0  0  0  0  0  0  0  0
  147.6356  141.5483  154.5655 C   0  0  0  0  0  0  0  0  0  0  0  0
  148.9703  141.3568  154.9783 C   0  0  0  0  0  0  0  0  0  0  0  0
  149.5961  140.1808  154.5640 C   0  0  0  0  0  0  0  0  0  0  0  0
  151.6468  141.6756  157.7948 C   0  0  0  0  0  0  0  0  0  0  0  0
  150.9895  142.8023  157.2551 C   0  0  0  0  0  0  0  0  0  0  0  0
  151.1316  144.0658  157.8604 C   0  0  0  0  0  0  0  0  0  0  0  0
  151.9302  144.2102  159.0109 C   0  0  0  0  0  0  0  0  0  0  0  0
  152.0705  145.4260  159.5896 F   0  0  0  0  0  0  0  0  0  0  0  0
  152.5850  143.0898  159.5571 C   0  0  0  0  0  0  0  0  0  0  0  0
  152.4445  141.8261  158.9511 C   0  0  0  0  0  0  0  0  0  0  0  0
  152.6821  138.7835  157.0197 H   0  0  0  0  0  0  0  0  0  0  0  0
  150.4869  139.9733  157.2285 H   0  0  0  0  0  0  0  0  0  0  0  0
  151.9315  141.4131  155.2541 H   0  0  0  0  0  0  0  0  0  0  0  0
  152.8194  139.9215  155.4236 H   0  0  0  0  0  0  0  0  0  0  0  0
  151.8807  137.8237  154.1521 H   0  0  0  0  0  0  0  0  0  0  0  0
  147.0947  138.6822  152.7397 H   0  0  0  0  0  0  0  0  0  0  0  0
  145.9456  140.7779  153.4718 H   0  0  0  0  0  0  0  0  0  0  0  0
  147.1127  142.4442  154.8681 H   0  0  0  0  0  0  0  0  0  0  0  0
  149.4673  142.0929  155.5921 H   0  0  0  0  0  0  0  0  0  0  0  0
  150.3823  142.7033  156.3673 H   0  0  0  0  0  0  0  0  0  0  0  0
  150.6299  144.9251  157.4402 H   0  0  0  0  0  0  0  0  0  0  0  0
  153.1984  143.2000  160.4393 H   0  0  0  0  0  0  0  0  0  0  0  0
  152.9600  140.9751  159.3716 H   0  0  0  0  0  0  0  0  0  0  0  0
  149.6412  137.3503  152.9898 H   0  0  0  0  0  0  0  0  0  0  0  0
  1  2  1  0  0  0  0
  1 20  1  0  0  0  0
  2  3  1  0  0  0  0
  2 13  1  0  0  0  0
  2 21  1  0  0  0  0
  3  4  1  0  0  0  0
  3 22  1  0  0  0  0
  3 23  1  0  0  0  0
  4 12  1  0  0  0  0
  4  5  1  0  0  0  0
  5  6  2  0  0  0  0
  5 24  1  0  0  0  0
  6  7  1  0  0  0  0
  6 33  1  0  0  0  0
  7 12  2  0  0  0  0
  7  8  1  0  0  0  0
  8  9  2  0  0  0  0
  8 25  1  0  0  0  0
  9 10  1  0  0  0  0
  9 26  1  0  0  0  0
 10 11  2  0  0  0  0
 10 27  1  0  0  0  0
 11 12  1  0  0  0  0
 11 28  1  0  0  0  0
 13 19  1  0  0  0  0
 13 14  2  0  0  0  0
 14 15  1  0  0  0  0
 14 29  1  0  0  0  0
 15 16  2  0  0  0  0
 15 30  1  0  0  0  0
 16 17  1  0  0  0  0
 16 18  1  0  0  0  0
 18 19  2  0  0  0  0
 18 31  1  0  0  0  0
 19 32  1  0  0  0  0
M  CHG  1   6   1
M  END
> <s_m_source_file>
AV-unprocessed.smi

> <i_m_source_file_index>
1767

> <i_lp_mmshare_version>
43012

> <i_f3d_flags>
0

> <s_epik_input>
W2NIXTFbY0hdYyhGKVtjSF1bY0hdYzFbQ0BIXShbT0hdKVtDSDJdbihbY0hdbjIpYyhjMjMpW2NIXVtjSF1bY0hdW2NIXTM=

> <s_epik_cmdline>
J2VwaWtfcHl0aG9uJywgJy1waCcsICc3LjAnLCAnLXRuJywgJzgnLCAnLW1hJywgJzIwMCcsICctbWV0YWxfYmluZGluZycsICctaW1hZScsICc8aW5maWxlLm1hZT4nLCAnLW9tYWUnLCAnPG91dGZpbGUubWFlPic=

> <r_epik_Ionization_Penalty>
1.3029

> <r_epik_Ionization_Penalty_Charging>
1.3029

> <r_epik_Ionization_Penalty_Neutral>
1.79538e-06

> <r_epik_State_Penalty>
1.377

> <r_epik_Charging_Adjusted_Penalty>
2.6799

> <i_epik_Tot_Q>
1

> <i_epik_Tot_abs_Q>
1

> <r_epik_Metal_State_Penalty>
5.40879

> <b_epik_Metal_Only>
0

> <s_lp_Force_Field>
OPLS_2005

> <r_lp_Energy>
17.7516

> <b_lp_Chiralities_Consistent>
1

> <s_lp_Variant>
AV-unprocessed.smi:1767-3

> <Gold.Version>
5.8.1

> <Gold.Id.Protein>
6NUR|6NUR_protein|mol2

> <Gold.PLP.Fitness>
51.1934

> <Gold.PLP.PLP>
-46.8848

> <Gold.PLP.part.hbond>
-1.2170

> <Gold.PLP.part.metal>
0.0000

> <Gold.PLP.part.buried>
0.3487

> <Gold.PLP.part.nonpolar>
-46.7501

> <Gold.PLP.part.repulsive>
0.0452

> <Gold.PLP.ligand.clash>
0.0000

> <Gold.PLP.ligand.torsion>
0.8531

> <Gold.PLP.Chemscore.Hbond>
2.0000

> <Gold.PLP.Chemscore.CHOScore>
0.0000

> <Gold.PLP.Chemscore.Metal>
0.0000

> <Gold.Chemscore.Hbonds>
donor molecule, donor type, donor heavy atom, donor atom, acceptor molecule, acceptor atom, score
      L1  H     6    33       P1  7948  2.00

> <Gold.PLP.Chemscore.Internal.Correction>
0.0148

> <Gold.Rescore>
     Score         DG    S(hbond)    S(metal)    S(lipo)     H(rot)  DE(clash)    DE(int)     intcor
     16.36     -17.25       0.99        0.00     115.40       1.97       0.24       0.65       ----

> <Gold.Chemscore.Fitness>
16.3591

> <Gold.Chemscore.DG>
-17.2475

> <Gold.Chemscore.ZeroCoef>
-5.4800

> <Gold.Chemscore.Hbond>
0.9890

> <Gold.Chemscore.Metal>
0.0000

> <Gold.Chemscore.Lipo>
115.3964

> <Gold.Chemscore.Internal_Hbond>
0.0000

> <Gold.Chemscore.DEClash>
0.2422

> <Gold.Chemscore.DEInternal>
0.6463

> <Gold.Chemscore.Rot>
1.9677

> <Gold.Chemscore.Internal.Correction>
   9.000000E+99

> <Gold.Chemscore.Hbonds>
donor molecule, donor type, donor heavy atom, donor atom, acceptor molecule, acceptor atom, score
      L1  H     6    33       P1  7948  0.60

> <Gold.Chemscore.Hbond.Weighted>
-3.3034

> <Gold.Chemscore.Metal.Weighted>
-0.0000

> <Gold.Chemscore.Lipo.Weighted>
-13.5014

> <Gold.Chemscore.Internal_Hbond.Weighted>
0.0000

> <Gold.Chemscore.DEClash.Weighted>
0.2422

> <Gold.Chemscore.DEInternal.Weighted>
0.6463

> <Gold.Chemscore.Rot.Weighted>
5.0372

> <Gold.Chemscore.Internal.Correction.Weighted>
   9.000000E+99

> <Gold.Protein.RotatedTorsions>
[ 6907 6896 6895 6894 ] final -126.39 input  -60.11 | X-H torsion
[ 7974 7965 7964 7962 ] final  -45.43 input  175.53 | X-H torsion
[ 8008 7997 7996 7995 ] final  -18.25 input   59.86 | X-H torsion
[ 10167 10162 10161 10158 ] final -100.08 input  -65.29 | X-H torsion
[ 10718 10713 10712 10709 ] final  -75.23 input   66.30 | X-H torsion
[ 10763 10752 10751 10750 ] final   99.06 input  -60.55 | X-H torsion
[ 11005 11000 10999 10996 ] final  137.35 input  -57.11 | X-H torsion

> <Gold.Protein.ActiveResidues>
 VAL166  LYS551  ARG553  GLY616  TRP617  ASP618  TYR619  PRO620  LYS621  CYS622 
 ASP623  PHE694  ASN695  SER759  ASP760  ASP761  ALA762  ILE779  LEU786  VAL792 
 PHE793  MET794  SER795  GLU796  ALA797  LYS798  CYS799  TRP800  GLU811  SER814 

> <Gold.Protein.RotatedAtoms>
  150.8965  133.7174  159.2890 H   0  0  0  0  0  0  0  0  0  0  0  0  # atno 6907 bound_to 6896
  151.4707  135.1044  159.9760 H   0  0  0  0  0  0  0  0  0  0  0  0  # atno 6908 bound_to 6896
  152.4851  133.8305  159.7156 H   0  0  0  0  0  0  0  0  0  0  0  0  # atno 6909 bound_to 6896
  145.9821  140.7272  142.9358 H   0  0  0  0  0  0  0  0  0  0  0  0  # atno 7974 bound_to 7965
  154.4919  140.2121  155.9529 H   0  0  0  0  0  0  0  0  0  0  0  0  # atno 8008 bound_to 7997
  156.1318  140.3195  155.8328 H   0  0  0  0  0  0  0  0  0  0  0  0  # atno 8009 bound_to 7997
  155.4283  140.0501  157.3011 H   0  0  0  0  0  0  0  0  0  0  0  0  # atno 8010 bound_to 7997
  140.2557  143.3442  152.0673 H   0  0  0  0  0  0  0  0  0  0  0  0  # atno 10167 bound_to 10162
  156.0215  130.4435  150.3011 H   0  0  0  0  0  0  0  0  0  0  0  0  # atno 10718 bound_to 10713
  153.2967  135.4126  155.1216 H   0  0  0  0  0  0  0  0  0  0  0  0  # atno 10763 bound_to 10752
  154.8537  135.3531  154.5907 H   0  0  0  0  0  0  0  0  0  0  0  0  # atno 10764 bound_to 10752
  153.6331  135.7060  153.5326 H   0  0  0  0  0  0  0  0  0  0  0  0  # atno 10765 bound_to 10752
  140.0108  134.9440  157.0273 H   0  0  0  0  0  0  0  0  0  0  0  0  # atno 11005 bound_to 11000
  144.6864  140.2926  143.7275 LP  0  0  0  0  0  0  0  0  0  0  0  0  # atno 17320 bound_to 7965
  145.7754  139.1872  143.2188 LP  0  0  0  0  0  0  0  0  0  0  0  0  # atno 17321 bound_to 7965
  139.5032  144.6751  151.6148 LP  0  0  0  0  0  0  0  0  0  0  0  0  # atno 17342 bound_to 10162
  140.6006  143.9617  150.6383 LP  0  0  0  0  0  0  0  0  0  0  0  0  # atno 17343 bound_to 10162
  157.1114  131.0222  151.3046 LP  0  0  0  0  0  0  0  0  0  0  0  0  # atno 17370 bound_to 10713
  157.4702  130.7704  149.7316 LP  0  0  0  0  0  0  0  0  0  0  0  0  # atno 17371 bound_to 10713
  140.4558  134.1535  155.7186 LP  0  0  0  0  0  0  0  0  0  0  0  0  # atno 17394 bound_to 11000
  141.1709  133.8610  157.1572 LP  0  0  0  0  0  0  0  0  0  0  0  0  # atno 17395 bound_to 11000

$$$$
