AV-unprocessed.smi:2849|AV-procd|sdf|10963|dock3
  -GOLD-   2272015413D 1   1.00000     0.00000
 Structure written by MMmdl.
 56 59  0  0  0  0  0  0  0  0  3 V2000
  146.2431  133.4221  151.0328 C   0  0  0  0  0  0  0  0  0  0  0  0
  146.3794  134.8149  151.5222 N   0  3  2  0  0  0  0  0  0  0  0  0
  146.1797  134.9845  152.9821 C   0  0  2  0  0  0  0  0  0  0  0  0
  144.6960  134.7701  153.3767 C   0  0  0  0  0  0  0  0  0  0  0  0
  143.6995  135.6050  152.5498 C   0  0  0  0  0  0  0  0  0  0  0  0
  144.0644  135.6473  151.0536 C   0  0  0  0  0  0  0  0  0  0  0  0
  145.5800  135.8187  150.7783 C   0  0  1  0  0  0  0  0  0  0  0  0
  146.1388  137.2279  151.0829 C   0  0  0  0  0  0  0  0  0  0  0  0
  146.2670  137.5557  152.5931 C   0  0  2  0  0  0  0  0  0  0  0  0
  147.1747  138.6838  152.7928 N   0  0  0  0  0  0  0  0  0  0  0  0
  147.7008  139.0535  153.9700 C   0  0  0  0  0  0  0  0  0  0  0  0
  147.4516  138.4835  155.0319 O   0  0  0  0  0  0  0  0  0  0  0  0
  148.5335  140.0989  153.8257 N   0  0  0  0  0  0  0  0  0  0  0  0
  149.2952  140.7641  154.8243 C   0  0  0  0  0  0  0  0  0  0  0  0
  149.9364  139.9725  155.8003 C   0  0  0  0  0  0  0  0  0  0  0  0
  150.7093  140.5881  156.8060 C   0  0  0  0  0  0  0  0  0  0  0  0
  150.8463  141.9961  156.8209 C   0  0  0  0  0  0  0  0  0  0  0  0
  151.5919  142.6815  157.7984 N   0  0  0  0  0  0  0  0  0  0  0  0
  151.5339  144.1270  157.9361 C   0  0  0  0  0  0  0  0  0  0  0  0
  152.3704  144.4301  159.1789 C   0  0  0  0  0  0  0  0  0  0  0  0
  152.1591  143.1931  160.0527 C   0  0  0  0  0  0  0  0  0  0  0  0
  151.9980  142.0480  159.0460 C   0  0  0  0  0  0  0  0  0  0  0  0
  150.2239  142.7157  155.8570 N   0  3  0  0  0  0  0  0  0  0  0  0
  149.4729  142.1675  154.8774 C   0  0  0  0  0  0  0  0  0  0  0  0
  146.7750  136.3454  153.4131 C   0  0  0  0  0  0  0  0  0  0  0  0
  145.2354  133.0312  151.1691 H   0  0  0  0  0  0  0  0  0  0  0  0
  146.9338  132.7654  151.5621 H   0  0  0  0  0  0  0  0  0  0  0  0
  146.4852  133.3669  149.9712 H   0  0  0  0  0  0  0  0  0  0  0  0
  146.7644  134.2161  153.4902 H   0  0  0  0  0  0  0  0  0  0  0  0
  144.4482  133.7159  153.2511 H   0  0  0  0  0  0  0  0  0  0  0  0
  144.5562  134.9741  154.4389 H   0  0  0  0  0  0  0  0  0  0  0  0
  142.6965  135.1932  152.6668 H   0  0  0  0  0  0  0  0  0  0  0  0
  143.6248  136.6125  152.9499 H   0  0  0  0  0  0  0  0  0  0  0  0
  143.7260  134.7197  150.5913 H   0  0  0  0  0  0  0  0  0  0  0  0
  143.5008  136.4390  150.5587 H   0  0  0  0  0  0  0  0  0  0  0  0
  145.7370  135.6476  149.7124 H   0  0  0  0  0  0  0  0  0  0  0  0
  147.1292  137.2928  150.6291 H   0  0  0  0  0  0  0  0  0  0  0  0
  145.5355  137.9863  150.5824 H   0  0  0  0  0  0  0  0  0  0  0  0
  145.2975  137.8550  152.9835 H   0  0  0  0  0  0  0  0  0  0  0  0
  147.4368  139.2080  151.9706 H   0  0  0  0  0  0  0  0  0  0  0  0
  148.6911  140.4129  152.8793 H   0  0  0  0  0  0  0  0  0  0  0  0
  149.8321  138.8972  155.7880 H   0  0  0  0  0  0  0  0  0  0  0  0
  151.1848  139.9711  157.5538 H   0  0  0  0  0  0  0  0  0  0  0  0
  151.9281  144.6337  157.0546 H   0  0  0  0  0  0  0  0  0  0  0  0
  150.4985  144.4375  158.0826 H   0  0  0  0  0  0  0  0  0  0  0  0
  153.4232  144.5109  158.9048 H   0  0  0  0  0  0  0  0  0  0  0  0
  152.0789  145.3579  159.6718 H   0  0  0  0  0  0  0  0  0  0  0  0
  152.9738  143.0252  160.7578 H   0  0  0  0  0  0  0  0  0  0  0  0
  151.2387  143.3070  160.6269 H   0  0  0  0  0  0  0  0  0  0  0  0
  151.2692  141.3169  159.3978 H   0  0  0  0  0  0  0  0  0  0  0  0
  152.9479  141.5365  158.8872 H   0  0  0  0  0  0  0  0  0  0  0  0
  149.0564  142.8753  154.1768 H   0  0  0  0  0  0  0  0  0  0  0  0
  146.5994  136.5140  154.4764 H   0  0  0  0  0  0  0  0  0  0  0  0
  147.8584  136.2779  153.2997 H   0  0  0  0  0  0  0  0  0  0  0  0
  147.3454  135.0524  151.3478 H   0  0  0  0  0  0  0  0  0  0  0  0
  150.3268  143.7307  155.8705 H   0  0  0  0  0  0  0  0  0  0  0  0
  1  2  1  0  0  0  0
  1 26  1  0  0  0  0
  1 27  1  0  0  0  0
  1 28  1  0  0  0  0
  2  7  1  0  0  0  0
  2  3  1  0  0  0  0
  2 55  1  0  0  0  0
  3 25  1  0  0  0  0
  3  4  1  0  0  0  0
  3 29  1  0  0  0  0
  4  5  1  0  0  0  0
  4 30  1  0  0  0  0
  4 31  1  0  0  0  0
  5  6  1  0  0  0  0
  5 32  1  0  0  0  0
  5 33  1  0  0  0  0
  6  7  1  0  0  0  0
  6 34  1  0  0  0  0
  6 35  1  0  0  0  0
  7  8  1  0  0  0  0
  7 36  1  0  0  0  0
  8  9  1  0  0  0  0
  8 37  1  0  0  0  0
  8 38  1  0  0  0  0
  9 10  1  0  0  0  0
  9 25  1  0  0  0  0
  9 39  1  0  0  0  0
 10 11  1  0  0  0  0
 10 40  1  0  0  0  0
 11 12  2  0  0  0  0
 11 13  1  0  0  0  0
 13 14  1  0  0  0  0
 13 41  1  0  0  0  0
 14 24  1  0  0  0  0
 14 15  2  0  0  0  0
 15 16  1  0  0  0  0
 15 42  1  0  0  0  0
 16 17  2  0  0  0  0
 16 43  1  0  0  0  0
 17 18  1  0  0  0  0
 17 23  1  0  0  0  0
 18 22  1  0  0  0  0
 18 19  1  0  0  0  0
 19 20  1  0  0  0  0
 19 44  1  0  0  0  0
 19 45  1  0  0  0  0
 20 21  1  0  0  0  0
 20 46  1  0  0  0  0
 20 47  1  0  0  0  0
 21 22  1  0  0  0  0
 21 48  1  0  0  0  0
 21 49  1  0  0  0  0
 22 50  1  0  0  0  0
 22 51  1  0  0  0  0
 23 24  2  0  0  0  0
 23 56  1  0  0  0  0
 24 52  1  0  0  0  0
 25 53  1  0  0  0  0
 25 54  1  0  0  0  0
M  CHG  1   2   1
M  CHG  1  23   1
M  END
> <s_m_source_file>
AV-unprocessed.smi

> <i_m_source_file_index>
2849

> <i_lp_mmshare_version>
43012

> <i_f3d_flags>
0

> <s_epik_input>
W0NIMl0xW0NIMl1bQ0gyXVtDQEhdKE4oW0NIM10pW0NIXTEyKVtDSDJdW0NASF0oW0NIMl0yKVtOSF1DKD1PKVtOSF1jM1tjSF1bY0hdYyhuW2NIXTMpTjRbQ0gyXVtDSDJdW0NIMl1bQ0gyXTQ=

> <s_epik_cmdline>
J2VwaWtfcHl0aG9uJywgJy1waCcsICc3LjAnLCAnLXRuJywgJzgnLCAnLW1hJywgJzIwMCcsICctbWV0YWxfYmluZGluZycsICctaW1hZScsICc8aW5maWxlLm1hZT4nLCAnLW9tYWUnLCAnPG91dGZpbGUubWFlPic=

> <r_lp_tautomer_probability>
0.999994

> <r_epik_Ionization_Penalty>
1.2404

> <r_epik_Ionization_Penalty_Charging>
1.24038

> <r_epik_Ionization_Penalty_Neutral>
1.86921e-05

> <r_epik_State_Penalty>
1.30821

> <r_epik_Charging_Adjusted_Penalty>
2.54859

> <i_epik_Tot_Q>
2

> <i_epik_Tot_abs_Q>
2

> <r_epik_Metal_State_Penalty>
1.37823

> <b_epik_Metal_Only>
0

> <s_lp_Force_Field>
OPLS_2005

> <r_lp_Energy>
67.6381

> <b_lp_Chiralities_Consistent>
1

> <s_lp_Variant>
AV-unprocessed.smi:2849-7

> <Gold.Version>
5.8.1

> <Gold.Id.Protein>
6NUR|6NUR_protein|mol2

> <Gold.PLP.Fitness>
49.8779

> <Gold.PLP.PLP>
-39.4982

> <Gold.PLP.part.hbond>
-3.9681

> <Gold.PLP.part.metal>
0.0000

> <Gold.PLP.part.buried>
7.4283

> <Gold.PLP.part.nonpolar>
-41.9086

> <Gold.PLP.part.repulsive>
0.4279

> <Gold.PLP.ligand.clash>
0.0000

> <Gold.PLP.ligand.torsion>
0.5972

> <Gold.PLP.Chemscore.Hbond>
3.8019

> <Gold.PLP.Chemscore.CHOScore>
0.0000

> <Gold.PLP.Chemscore.Metal>
0.0000

> <Gold.Chemscore.Hbonds>
donor molecule, donor type, donor heavy atom, donor atom, acceptor molecule, acceptor atom, score
      L1  H     2    55       P1  7948  1.95
      L1  H    13    41       P1  7957  0.93
      L1  H    23    56       P1  8028  0.77

> <Gold.PLP.Chemscore.Internal.Correction>
0.1683

> <Gold.Rescore>
     Score         DG    S(hbond)    S(metal)    S(lipo)     H(rot)  DE(clash)    DE(int)     intcor
     15.95     -23.71       2.09        0.00     117.96       1.00       4.80       2.97       ----

> <Gold.Chemscore.Fitness>
15.9468

> <Gold.Chemscore.DG>
-23.7108

> <Gold.Chemscore.ZeroCoef>
-5.4800

> <Gold.Chemscore.Hbond>
2.0927

> <Gold.Chemscore.Metal>
0.0000

> <Gold.Chemscore.Lipo>
117.9574

> <Gold.Chemscore.Internal_Hbond>
0.0000

> <Gold.Chemscore.DEClash>
4.7960

> <Gold.Chemscore.DEInternal>
2.9680

> <Gold.Chemscore.Rot>
1.0000

> <Gold.Chemscore.Internal.Correction>
   9.000000E+99

> <Gold.Chemscore.Hbonds>
donor molecule, donor type, donor heavy atom, donor atom, acceptor molecule, acceptor atom, score
      L1  H     2    55       P1  7948  0.54
      L1  H    10    40       P1  7957  0.05
      L1  H    13    41       P1  7957  0.88
      L1  H    23    56       P1  8028  0.40

> <Gold.Chemscore.Hbond.Weighted>
-6.9897

> <Gold.Chemscore.Metal.Weighted>
-0.0000

> <Gold.Chemscore.Lipo.Weighted>
-13.8010

> <Gold.Chemscore.Internal_Hbond.Weighted>
0.0000

> <Gold.Chemscore.DEClash.Weighted>
4.7960

> <Gold.Chemscore.DEInternal.Weighted>
2.9680

> <Gold.Chemscore.Rot.Weighted>
2.5600

> <Gold.Chemscore.Internal.Correction.Weighted>
   9.000000E+99

> <Gold.Protein.RotatedTorsions>
[ 6907 6896 6895 6894 ] final  -20.76 input  -60.11 | X-H torsion
[ 7974 7965 7964 7962 ] final  163.43 input  175.53 | X-H torsion
[ 8008 7997 7996 7995 ] final  -43.59 input   59.86 | X-H torsion
[ 10167 10162 10161 10158 ] final  132.95 input  -65.29 | X-H torsion
[ 10718 10713 10712 10709 ] final  -17.87 input   66.30 | X-H torsion
[ 10763 10752 10751 10750 ] final   99.82 input  -60.55 | X-H torsion
[ 11005 11000 10999 10996 ] final   58.04 input  -57.11 | X-H torsion

> <Gold.Protein.ActiveResidues>
 VAL166  LYS551  ARG553  GLY616  TRP617  ASP618  TYR619  PRO620  LYS621  CYS622 
 ASP623  PHE694  ASN695  SER759  ASP760  ASP761  ALA762  ILE779  LEU786  VAL792 
 PHE793  MET794  SER795  GLU796  ALA797  LYS798  CYS799  TRP800  GLU811  SER814 

> <Gold.Protein.RotatedAtoms>
  151.2434  135.0597  159.9033 H   0  0  0  0  0  0  0  0  0  0  0  0  # atno 6907 bound_to 6896
  152.5390  134.0410  159.8078 H   0  0  0  0  0  0  0  0  0  0  0  0  # atno 6908 bound_to 6896
  151.0607  133.5497  159.2666 H   0  0  0  0  0  0  0  0  0  0  0  0  # atno 6909 bound_to 6896
  144.7590  139.8182  143.6339 H   0  0  0  0  0  0  0  0  0  0  0  0  # atno 7974 bound_to 7965
  154.3997  140.1444  156.3545 H   0  0  0  0  0  0  0  0  0  0  0  0  # atno 8008 bound_to 7997
  155.8239  140.3468  155.5510 H   0  0  0  0  0  0  0  0  0  0  0  0  # atno 8009 bound_to 7997
  155.8259  140.0905  157.1812 H   0  0  0  0  0  0  0  0  0  0  0  0  # atno 8010 bound_to 7997
  139.5318  144.6639  151.4925 H   0  0  0  0  0  0  0  0  0  0  0  0  # atno 10167 bound_to 10162
  156.5675  130.4741  149.6378 H   0  0  0  0  0  0  0  0  0  0  0  0  # atno 10718 bound_to 10713
  153.3062  135.4100  155.1296 H   0  0  0  0  0  0  0  0  0  0  0  0  # atno 10763 bound_to 10752
  154.8563  135.3553  154.5785 H   0  0  0  0  0  0  0  0  0  0  0  0  # atno 10764 bound_to 10752
  153.6212  135.7064  153.5368 H   0  0  0  0  0  0  0  0  0  0  0  0  # atno 10765 bound_to 10752
  140.0407  134.5877  155.9385 H   0  0  0  0  0  0  0  0  0  0  0  0  # atno 11005 bound_to 11000
  146.1632  139.4754  142.9975 LP  0  0  0  0  0  0  0  0  0  0  0  0  # atno 17320 bound_to 7965
  145.6682  141.0223  143.1672 LP  0  0  0  0  0  0  0  0  0  0  0  0  # atno 17321 bound_to 7965
  140.6500  143.8715  150.6776 LP  0  0  0  0  0  0  0  0  0  0  0  0  # atno 17342 bound_to 10162
  140.2077  143.3908  152.1742 LP  0  0  0  0  0  0  0  0  0  0  0  0  # atno 17343 bound_to 10162
  156.2744  130.7035  151.1842 LP  0  0  0  0  0  0  0  0  0  0  0  0  # atno 17370 bound_to 10713
  157.7355  131.0571  150.5464 LP  0  0  0  0  0  0  0  0  0  0  0  0  # atno 17371 bound_to 10713
  141.1881  133.6561  156.5312 LP  0  0  0  0  0  0  0  0  0  0  0  0  # atno 17394 bound_to 11000
  140.4073  134.7303  157.4815 LP  0  0  0  0  0  0  0  0  0  0  0  0  # atno 17395 bound_to 11000

$$$$
