AV-unprocessed.smi:2494|AV-procd|sdf|9822|dock9
  -GOLD-   2272013453D 1   1.00000     0.00000
 Structure written by MMmdl.
 30 31  0  0  0  0  0  0  0  0  1 V2000
  149.2265  141.2710  153.1817 O   0  0  0  0  0  0  0  0  0  0  0  0
  148.9866  140.8526  154.5081 C   0  0  0  0  0  0  0  0  0  0  0  0
  150.2438  141.0864  155.3620 C   0  0  0  0  0  0  0  0  0  0  0  0
  150.4555  140.0322  156.4816 C   0  0  1  0  0  0  0  0  0  0  0  0
  150.7491  138.6415  155.8651 C   0  0  0  0  0  0  0  0  0  0  0  0
  151.0150  137.6780  156.8756 O   0  0  0  0  0  0  0  0  0  0  0  0
  152.1610  138.0262  157.6363 C   0  0  0  0  0  0  0  0  0  0  0  0
  151.8872  139.3527  158.3539 C   0  0  0  0  0  0  0  0  0  0  0  0
  151.5424  140.4047  157.4017 N   0  0  0  0  0  0  0  0  0  0  0  0
  151.5736  141.6699  157.9744 C   0  0  0  0  0  0  0  0  0  0  0  0
  150.5575  142.5028  157.7101 N   0  0  0  0  0  0  0  0  0  0  0  0
  150.5884  143.7180  158.2989 C   0  0  0  0  0  0  0  0  0  0  0  0
  151.6373  144.0924  159.1618 C   0  0  0  0  0  0  0  0  0  0  0  0
  151.6809  145.6422  159.9182 Cl  0  0  0  0  0  0  0  0  0  0  0  0
  152.6473  143.1337  159.3768 C   0  0  0  0  0  0  0  0  0  0  0  0
  152.6084  141.9206  158.7841 N   0  0  0  0  0  0  0  0  0  0  0  0
  149.4417  140.5122  152.6610 H   0  0  0  0  0  0  0  0  0  0  0  0
  148.1404  141.4116  154.9083 H   0  0  0  0  0  0  0  0  0  0  0  0
  148.7076  139.7997  154.4876 H   0  0  0  0  0  0  0  0  0  0  0  0
  151.1234  141.1163  154.7173 H   0  0  0  0  0  0  0  0  0  0  0  0
  150.1575  142.0839  155.7913 H   0  0  0  0  0  0  0  0  0  0  0  0
  149.5404  139.9601  157.0714 H   0  0  0  0  0  0  0  0  0  0  0  0
  149.8929  138.2836  155.2949 H   0  0  0  0  0  0  0  0  0  0  0  0
  151.5915  138.6905  155.1727 H   0  0  0  0  0  0  0  0  0  0  0  0
  152.3579  137.2388  158.3637 H   0  0  0  0  0  0  0  0  0  0  0  0
  153.0407  138.0981  156.9944 H   0  0  0  0  0  0  0  0  0  0  0  0
  151.0666  139.2308  159.0623 H   0  0  0  0  0  0  0  0  0  0  0  0
  152.7663  139.6403  158.9322 H   0  0  0  0  0  0  0  0  0  0  0  0
  149.7719  144.3908  158.0821 H   0  0  0  0  0  0  0  0  0  0  0  0
  153.4860  143.3373  160.0260 H   0  0  0  0  0  0  0  0  0  0  0  0
  1  2  1  0  0  0  0
  1 17  1  0  0  0  0
  2  3  1  0  0  0  0
  2 18  1  0  0  0  0
  2 19  1  0  0  0  0
  3  4  1  0  0  0  0
  3 20  1  0  0  0  0
  3 21  1  0  0  0  0
  4  9  1  0  0  0  0
  4  5  1  0  0  0  0
  4 22  1  0  0  0  0
  5  6  1  0  0  0  0
  5 23  1  0  0  0  0
  5 24  1  0  0  0  0
  6  7  1  0  0  0  0
  7  8  1  0  0  0  0
  7 25  1  0  0  0  0
  7 26  1  0  0  0  0
  8  9  1  0  0  0  0
  8 27  1  0  0  0  0
  8 28  1  0  0  0  0
  9 10  1  0  0  0  0
 10 16  1  0  0  0  0
 10 11  2  0  0  0  0
 11 12  1  0  0  0  0
 12 13  2  0  0  0  0
 12 29  1  0  0  0  0
 13 14  1  0  0  0  0
 13 15  1  0  0  0  0
 15 16  2  0  0  0  0
 15 30  1  0  0  0  0
M  END
> <s_m_source_file>
AV-unprocessed.smi

> <i_m_source_file_index>
2494

> <i_lp_mmshare_version>
43012

> <i_f3d_flags>
0

> <s_epik_input>
W09IXVtDSDJdW0NIMl1bQ0BASF0xW0NIMl1PW0NIMl1bQ0gyXU4xYzJuW2NIXWMoQ2wpW2NIXW4y

> <s_epik_cmdline>
J2VwaWtfcHl0aG9uJywgJy1waCcsICc3LjAnLCAnLXRuJywgJzgnLCAnLW1hJywgJzIwMCcsICctbWV0YWxfYmluZGluZycsICctaW1hZScsICc8aW5maWxlLm1hZT4nLCAnLW9tYWUnLCAnPG91dGZpbGUubWFlPic=

> <r_lp_tautomer_probability>
1

> <r_epik_Ionization_Penalty>
3.66811e-07

> <r_epik_Ionization_Penalty_Charging>
0

> <r_epik_Ionization_Penalty_Neutral>
3.66811e-07

> <r_epik_State_Penalty>
-0

> <r_epik_Charging_Adjusted_Penalty>
0

> <i_epik_Tot_Q>
0

> <i_epik_Tot_abs_Q>
0

> <r_epik_Metal_State_Penalty>
-0

> <b_epik_Metal_Only>
0

> <s_lp_Force_Field>
OPLS_2005

> <r_lp_Energy>
15.3646

> <b_lp_Chiralities_Consistent>
1

> <s_lp_Variant>
AV-unprocessed.smi:2494-2

> <Gold.Version>
5.8.1

> <Gold.Id.Protein>
6NUR|6NUR_protein|mol2

> <Gold.PLP.Fitness>
37.4861

> <Gold.PLP.PLP>
-29.4214

> <Gold.PLP.part.hbond>
-2.4844

> <Gold.PLP.part.metal>
0.0000

> <Gold.PLP.part.buried>
-3.2620

> <Gold.PLP.part.nonpolar>
-23.5873

> <Gold.PLP.part.repulsive>
0.1137

> <Gold.PLP.ligand.clash>
0.0000

> <Gold.PLP.ligand.torsion>
0.4644

> <Gold.PLP.Chemscore.Hbond>
1.8640

> <Gold.PLP.Chemscore.CHOScore>
1.0292

> <Gold.PLP.Chemscore.Metal>
0.0000

> <Gold.Chemscore.Hbonds>
donor molecule, donor type, donor heavy atom, donor atom, acceptor molecule, acceptor atom, score
      L1  H     1    17       P1  7957  0.82
      P1  H  8011  8017       L1     1  1.00
      L1  C    12    29       P1  8028  0.48
      L1  C    12    29       P1  8029  0.59

> <Gold.PLP.Chemscore.Internal.Correction>
0.3140

> <Gold.Rescore>
     Score         DG    S(hbond)    S(metal)    S(lipo)     H(rot)  DE(clash)    DE(int)     intcor
     12.42     -14.30       1.45        0.00      78.80       2.04       0.07       1.81       ----

> <Gold.Chemscore.Fitness>
12.4172

> <Gold.Chemscore.DG>
-14.2998

> <Gold.Chemscore.ZeroCoef>
-5.4800

> <Gold.Chemscore.Hbond>
1.4456

> <Gold.Chemscore.Metal>
0.0000

> <Gold.Chemscore.Lipo>
78.8014

> <Gold.Chemscore.Internal_Hbond>
0.0000

> <Gold.Chemscore.DEClash>
0.0689

> <Gold.Chemscore.DEInternal>
1.8137

> <Gold.Chemscore.Rot>
2.0424

> <Gold.Chemscore.Internal.Correction>
   9.000000E+99

> <Gold.Chemscore.Hbonds>
donor molecule, donor type, donor heavy atom, donor atom, acceptor molecule, acceptor atom, score
      L1  H     1    17       P1  7957  0.79
      P1  H  8011  8017       L1     1  0.32

> <Gold.Chemscore.Hbond.Weighted>
-4.8285

> <Gold.Chemscore.Metal.Weighted>
-0.0000

> <Gold.Chemscore.Lipo.Weighted>
-9.2198

> <Gold.Chemscore.Internal_Hbond.Weighted>
0.0000

> <Gold.Chemscore.DEClash.Weighted>
0.0689

> <Gold.Chemscore.DEInternal.Weighted>
1.8137

> <Gold.Chemscore.Rot.Weighted>
5.2285

> <Gold.Chemscore.Internal.Correction.Weighted>
   9.000000E+99

> <Gold.Protein.RotatedTorsions>
[ 6907 6896 6895 6894 ] final  155.09 input  -60.11 | X-H torsion
[ 7974 7965 7964 7962 ] final -116.52 input  175.53 | X-H torsion
[ 8008 7997 7996 7995 ] final  155.07 input   59.86 | X-H torsion
[ 10167 10162 10161 10158 ] final -160.59 input  -65.29 | X-H torsion
[ 10718 10713 10712 10709 ] final -108.85 input   66.30 | X-H torsion
[ 10763 10752 10751 10750 ] final -176.03 input  -60.55 | X-H torsion
[ 11005 11000 10999 10996 ] final -150.50 input  -57.11 | X-H torsion

> <Gold.Protein.ActiveResidues>
 VAL166  LYS551  ARG553  GLY616  TRP617  ASP618  TYR619  PRO620  LYS621  CYS622 
 ASP623  PHE694  ASN695  SER759  ASP760  ASP761  ALA762  ILE779  LEU786  VAL792 
 PHE793  MET794  SER795  GLU796  ALA797  LYS798  CYS799  TRP800  GLU811  SER814 

> <Gold.Protein.RotatedAtoms>
  152.0491  133.4011  159.4369 H   0  0  0  0  0  0  0  0  0  0  0  0  # atno 6907 bound_to 6896
  150.6871  134.3328  159.4844 H   0  0  0  0  0  0  0  0  0  0  0  0  # atno 6908 bound_to 6896
  152.1136  134.9256  160.0616 H   0  0  0  0  0  0  0  0  0  0  0  0  # atno 6909 bound_to 6896
  145.0958  140.8519  143.3955 H   0  0  0  0  0  0  0  0  0  0  0  0  # atno 7974 bound_to 7965
  156.2498  140.1949  156.6745 H   0  0  0  0  0  0  0  0  0  0  0  0  # atno 8008 bound_to 7997
  154.6368  140.0588  156.9824 H   0  0  0  0  0  0  0  0  0  0  0  0  # atno 8009 bound_to 7997
  155.1625  140.3261  155.4411 H   0  0  0  0  0  0  0  0  0  0  0  0  # atno 8010 bound_to 7997
  139.6528  144.0053  152.2173 H   0  0  0  0  0  0  0  0  0  0  0  0  # atno 10167 bound_to 10162
  156.0506  130.5734  150.8018 H   0  0  0  0  0  0  0  0  0  0  0  0  # atno 10718 bound_to 10713
  154.5772  135.2833  155.0768 H   0  0  0  0  0  0  0  0  0  0  0  0  # atno 10763 bound_to 10752
  154.2118  135.6406  153.5121 H   0  0  0  0  0  0  0  0  0  0  0  0  # atno 10764 bound_to 10752
  153.0076  135.5493  154.6415 H   0  0  0  0  0  0  0  0  0  0  0  0  # atno 10765 bound_to 10752
  140.7396  134.3530  157.5150 H   0  0  0  0  0  0  0  0  0  0  0  0  # atno 11005 bound_to 11000
  145.1013  139.2821  143.5685 LP  0  0  0  0  0  0  0  0  0  0  0  0  # atno 17320 bound_to 7965
  146.3531  140.0581  142.8631 LP  0  0  0  0  0  0  0  0  0  0  0  0  # atno 17321 bound_to 7965
  139.9772  144.6453  150.7934 LP  0  0  0  0  0  0  0  0  0  0  0  0  # atno 17342 bound_to 10162
  140.7545  143.3029  151.3035 LP  0  0  0  0  0  0  0  0  0  0  0  0  # atno 17343 bound_to 10162
  157.5429  131.0941  150.9803 LP  0  0  0  0  0  0  0  0  0  0  0  0  # atno 17370 bound_to 10713
  157.0081  130.5626  149.5318 LP  0  0  0  0  0  0  0  0  0  0  0  0  # atno 17371 bound_to 10713
  139.8809  134.9072  156.2939 LP  0  0  0  0  0  0  0  0  0  0  0  0  # atno 17394 bound_to 11000
  140.9849  133.7244  156.0726 LP  0  0  0  0  0  0  0  0  0  0  0  0  # atno 17395 bound_to 11000

$$$$
