AV-unprocessed.smi:397|AV-procd|sdf|2488|dock7
  -GOLD-   2262022433D 1   1.00000     0.00000
 Structure written by MMmdl.
 37 38  0  0  0  0  0  0  0  0  1 V2000
  146.0024  142.2427  155.1931 C   0  0  0  0  0  0  0  0  0  0  0  0
  147.4048  142.1414  155.0223 O   0  0  0  0  0  0  0  0  0  0  0  0
  147.7698  141.1301  154.0973 C   0  0  0  0  0  0  0  0  0  0  0  0
  149.2998  141.0156  154.0272 C   0  0  0  0  0  0  0  0  0  0  0  0
  149.8510  140.4505  155.2538 N   0  0  0  0  0  0  0  0  0  0  0  0
  150.5279  141.1360  156.1871 C   0  0  0  0  0  0  0  0  0  0  0  0
  150.7848  142.3369  156.0890 O   0  0  0  0  0  0  0  0  0  0  0  0
  150.9822  140.3269  157.4114 C   0  0  0  0  0  0  0  0  0  0  0  0
  151.7174  141.1334  158.4113 N   0  0  0  0  0  0  0  0  0  0  0  0
  152.9694  140.6544  158.8717 C   0  0  0  0  0  0  0  0  0  0  0  0
  153.4412  139.5980  158.4469 O   0  0  0  0  0  0  0  0  0  0  0  0
  153.6328  141.4893  159.8678 C   0  0  0  0  0  0  0  0  0  0  0  0
  154.8981  141.0439  160.3506 C   0  0  0  0  0  0  0  0  0  0  0  0
  155.9139  140.6695  160.7598 N   0  0  0  0  0  0  0  0  0  0  0  0
  153.0672  142.6323  160.3065 C   0  0  0  0  0  0  0  0  0  0  0  0
  151.8398  143.0832  159.8561 N   0  0  0  0  0  0  0  0  0  0  0  0
  151.2245  144.3072  160.3295 C   0  0  0  0  0  0  0  0  0  0  0  0
  150.7190  145.3310  159.3351 C   0  0  0  0  0  0  0  0  0  0  0  0
  151.9451  145.6293  160.1684 C   0  0  0  0  0  0  0  0  0  0  0  0
  151.1292  142.3298  158.8910 C   0  0  0  0  0  0  0  0  0  0  0  0
  150.0266  142.6928  158.4738 O   0  0  0  0  0  0  0  0  0  0  0  0
  145.7779  143.0323  155.9101 H   0  0  0  0  0  0  0  0  0  0  0  0
  145.5841  141.3110  155.5764 H   0  0  0  0  0  0  0  0  0  0  0  0
  145.5064  142.4890  154.2537 H   0  0  0  0  0  0  0  0  0  0  0  0
  147.3314  140.1725  154.3825 H   0  0  0  0  0  0  0  0  0  0  0  0
  147.3790  141.3856  153.1113 H   0  0  0  0  0  0  0  0  0  0  0  0
  149.5729  140.3478  153.2102 H   0  0  0  0  0  0  0  0  0  0  0  0
  149.7505  141.9827  153.7973 H   0  0  0  0  0  0  0  0  0  0  0  0
  149.6903  139.4666  155.4137 H   0  0  0  0  0  0  0  0  0  0  0  0
  150.1080  139.8573  157.8659 H   0  0  0  0  0  0  0  0  0  0  0  0
  151.5788  139.4832  157.0614 H   0  0  0  0  0  0  0  0  0  0  0  0
  153.6072  143.2084  161.0426 H   0  0  0  0  0  0  0  0  0  0  0  0
  150.6249  144.2505  161.2362 H   0  0  0  0  0  0  0  0  0  0  0  0
  150.8611  145.1427  158.2732 H   0  0  0  0  0  0  0  0  0  0  0  0
  149.8023  145.8598  159.5884 H   0  0  0  0  0  0  0  0  0  0  0  0
  151.8379  146.3547  160.9723 H   0  0  0  0  0  0  0  0  0  0  0  0
  152.9086  145.6443  159.6640 H   0  0  0  0  0  0  0  0  0  0  0  0
  1  2  1  0  0  0  0
  1 22  1  0  0  0  0
  1 23  1  0  0  0  0
  1 24  1  0  0  0  0
  2  3  1  0  0  0  0
  3  4  1  0  0  0  0
  3 25  1  0  0  0  0
  3 26  1  0  0  0  0
  4  5  1  0  0  0  0
  4 27  1  0  0  0  0
  4 28  1  0  0  0  0
  5  6  1  0  0  0  0
  5 29  1  0  0  0  0
  6  7  2  0  0  0  0
  6  8  1  0  0  0  0
  8  9  1  0  0  0  0
  8 30  1  0  0  0  0
  8 31  1  0  0  0  0
  9 20  1  0  0  0  0
  9 10  1  0  0  0  0
 10 11  2  0  0  0  0
 10 12  1  0  0  0  0
 12 13  1  0  0  0  0
 12 15  2  0  0  0  0
 13 14  3  0  0  0  0
 15 16  1  0  0  0  0
 15 32  1  0  0  0  0
 16 17  1  0  0  0  0
 16 20  1  0  0  0  0
 17 19  1  0  0  0  0
 17 18  1  0  0  0  0
 17 33  1  0  0  0  0
 18 19  1  0  0  0  0
 18 34  1  0  0  0  0
 18 35  1  0  0  0  0
 19 36  1  0  0  0  0
 19 37  1  0  0  0  0
 20 21  2  0  0  0  0
M  END
> <s_m_source_file>
AV-unprocessed.smi

> <i_m_source_file_index>
397

> <i_lp_mmshare_version>
43012

> <i_f3d_flags>
0

> <s_epik_input>
W0NIM11PW0NIMl1bQ0gyXVtOSF1DKD1PKVtDSDJdbjFjKD1PKWMoQyNOKVtjSF1uKGMxPU8pW0NIXTJbQ0gyXVtDSDJdMg==

> <s_epik_cmdline>
J2VwaWtfcHl0aG9uJywgJy1waCcsICc3LjAnLCAnLXRuJywgJzgnLCAnLW1hJywgJzIwMCcsICctbWV0YWxfYmluZGluZycsICctaW1hZScsICc8aW5maWxlLm1hZT4nLCAnLW9tYWUnLCAnPG91dGZpbGUubWFlPic=

> <r_lp_tautomer_probability>
1

> <r_epik_Ionization_Penalty>
2.64697e-08

> <r_epik_Ionization_Penalty_Charging>
8.39351e-11

> <r_epik_Ionization_Penalty_Neutral>
2.63858e-08

> <r_epik_State_Penalty>
-0

> <r_epik_Charging_Adjusted_Penalty>
8.39351e-11

> <i_epik_Tot_Q>
0

> <i_epik_Tot_abs_Q>
0

> <r_epik_Metal_State_Penalty>
-0

> <b_epik_Metal_Only>
0

> <s_lp_Force_Field>
OPLS_2005

> <r_lp_Energy>
30.955

> <b_lp_Chiralities_Consistent>
1

> <s_lp_Variant>
AV-unprocessed.smi:397-1

> <Gold.Version>
5.8.1

> <Gold.Id.Protein>
6NUR|6NUR_protein|mol2

> <Gold.PLP.Fitness>
45.0000

> <Gold.PLP.PLP>
-42.3379

> <Gold.PLP.part.hbond>
-2.0000

> <Gold.PLP.part.metal>
0.0000

> <Gold.PLP.part.buried>
-4.2898

> <Gold.PLP.part.nonpolar>
-35.9376

> <Gold.PLP.part.repulsive>
0.6235

> <Gold.PLP.ligand.clash>
0.0000

> <Gold.PLP.ligand.torsion>
0.2501

> <Gold.PLP.Chemscore.Hbond>
1.0000

> <Gold.PLP.Chemscore.CHOScore>
0.0000

> <Gold.PLP.Chemscore.Metal>
0.0000

> <Gold.Chemscore.Hbonds>
donor molecule, donor type, donor heavy atom, donor atom, acceptor molecule, acceptor atom, score
      P1  H  7997  8009       L1    11  1.00

> <Gold.PLP.Chemscore.Internal.Correction>
0.1623

> <Gold.Rescore>
     Score         DG    S(hbond)    S(metal)    S(lipo)     H(rot)  DE(clash)    DE(int)     intcor
      5.41     -11.06       0.88        0.00      76.49       2.46       0.81       4.84       ----

> <Gold.Chemscore.Fitness>
5.4131

> <Gold.Chemscore.DG>
-11.0639

> <Gold.Chemscore.ZeroCoef>
-5.4800

> <Gold.Chemscore.Hbond>
0.8800

> <Gold.Chemscore.Metal>
0.0000

> <Gold.Chemscore.Lipo>
76.4878

> <Gold.Chemscore.Internal_Hbond>
0.0000

> <Gold.Chemscore.DEClash>
0.8088

> <Gold.Chemscore.DEInternal>
4.8420

> <Gold.Chemscore.Rot>
2.4626

> <Gold.Chemscore.Internal.Correction>
   9.000000E+99

> <Gold.Chemscore.Hbonds>
donor molecule, donor type, donor heavy atom, donor atom, acceptor molecule, acceptor atom, score
      P1  H  7997  8009       L1    11  0.60

> <Gold.Chemscore.Hbond.Weighted>
-2.9392

> <Gold.Chemscore.Metal.Weighted>
-0.0000

> <Gold.Chemscore.Lipo.Weighted>
-8.9491

> <Gold.Chemscore.Internal_Hbond.Weighted>
0.0000

> <Gold.Chemscore.DEClash.Weighted>
0.8088

> <Gold.Chemscore.DEInternal.Weighted>
4.8420

> <Gold.Chemscore.Rot.Weighted>
6.3043

> <Gold.Chemscore.Internal.Correction.Weighted>
   9.000000E+99

> <Gold.Protein.RotatedTorsions>
[ 6907 6896 6895 6894 ] final  -97.76 input  -60.11 | X-H torsion
[ 7974 7965 7964 7962 ] final  -25.68 input  175.53 | X-H torsion
[ 8008 7997 7996 7995 ] final  149.69 input   59.86 | X-H torsion
[ 10167 10162 10161 10158 ] final -156.54 input  -65.29 | X-H torsion
[ 10718 10713 10712 10709 ] final   62.88 input   66.30 | X-H torsion
[ 10763 10752 10751 10750 ] final  -51.44 input  -60.55 | X-H torsion
[ 11005 11000 10999 10996 ] final -104.07 input  -57.11 | X-H torsion

> <Gold.Protein.ActiveResidues>
 VAL166  LYS551  ARG553  GLY616  TRP617  ASP618  TYR619  PRO620  LYS621  CYS622 
 ASP623  PHE694  ASN695  SER759  ASP760  ASP761  ALA762  ILE779  LEU786  VAL792 
 PHE793  MET794  SER795  GLU796  ALA797  LYS798  CYS799  TRP800  GLU811  SER814 

> <Gold.Protein.RotatedAtoms>
  150.7026  134.1299  159.4065 H   0  0  0  0  0  0  0  0  0  0  0  0  # atno 6907 bound_to 6896
  151.9285  135.0265  160.0536 H   0  0  0  0  0  0  0  0  0  0  0  0  # atno 6908 bound_to 6896
  152.2196  133.4938  159.5192 H   0  0  0  0  0  0  0  0  0  0  0  0  # atno 6909 bound_to 6896
  146.1475  140.4918  142.8625 H   0  0  0  0  0  0  0  0  0  0  0  0  # atno 7974 bound_to 7965
  156.2745  140.2095  156.5897 H   0  0  0  0  0  0  0  0  0  0  0  0  # atno 8008 bound_to 7997
  154.6992  140.0522  157.0464 H   0  0  0  0  0  0  0  0  0  0  0  0  # atno 8009 bound_to 7997
  155.0759  140.3181  155.4619 H   0  0  0  0  0  0  0  0  0  0  0  0  # atno 8010 bound_to 7997
  139.6842  143.9529  152.2352 H   0  0  0  0  0  0  0  0  0  0  0  0  # atno 10167 bound_to 10162
  157.5932  130.9074  149.9644 H   0  0  0  0  0  0  0  0  0  0  0  0  # atno 10718 bound_to 10713
  154.1266  135.6526  153.4913 H   0  0  0  0  0  0  0  0  0  0  0  0  # atno 10763 bound_to 10752
  153.0208  135.5283  154.7043 H   0  0  0  0  0  0  0  0  0  0  0  0  # atno 10764 bound_to 10752
  154.6266  135.2971  155.0235 H   0  0  0  0  0  0  0  0  0  0  0  0  # atno 10765 bound_to 10752
  141.1117  133.8692  157.1565 H   0  0  0  0  0  0  0  0  0  0  0  0  # atno 11005 bound_to 11000
  144.7864  140.5945  143.6571 LP  0  0  0  0  0  0  0  0  0  0  0  0  # atno 17320 bound_to 7965
  145.4902  139.1489  143.3714 LP  0  0  0  0  0  0  0  0  0  0  0  0  # atno 17321 bound_to 7965
  139.9328  144.6731  150.8346 LP  0  0  0  0  0  0  0  0  0  0  0  0  # atno 17342 bound_to 10162
  140.7662  143.3297  151.2437 LP  0  0  0  0  0  0  0  0  0  0  0  0  # atno 17343 bound_to 10162
  156.0990  130.3657  150.0253 LP  0  0  0  0  0  0  0  0  0  0  0  0  # atno 17370 bound_to 10713
  156.8372  130.9413  151.3634 LP  0  0  0  0  0  0  0  0  0  0  0  0  # atno 17371 bound_to 10713
  140.0015  135.0026  157.0200 LP  0  0  0  0  0  0  0  0  0  0  0  0  # atno 17394 bound_to 11000
  140.4756  134.1342  155.7209 LP  0  0  0  0  0  0  0  0  0  0  0  0  # atno 17395 bound_to 11000

$$$$
