AV-unprocessed.smi:180|AV-procd|sdf|1451|dock8
  -GOLD-   2262019253D 1   1.00000     0.00000
 Structure written by MMmdl.
 54 57  0  0  0  0  0  0  0  0  1 V2000
  151.9330  144.9538  158.0113 C   0  0  0  0  0  0  0  0  0  0  0  0
  151.6568  143.4730  158.2506 C   0  0  0  0  0  0  0  0  0  0  0  0
  152.4414  142.8055  158.9235 O   0  0  0  0  0  0  0  0  0  0  0  0
  150.5424  142.9735  157.6947 N   0  0  0  0  0  0  0  0  0  0  0  0
  150.0840  141.5922  157.8169 C   0  0  0  0  0  0  0  0  0  0  0  0
  150.0744  140.8423  156.4705 C   0  0  2  0  0  0  0  0  0  0  0  0
  149.3194  139.4976  156.5198 C   0  0  0  0  0  0  0  0  0  0  0  0
  149.4031  138.8243  155.2261 N   0  0  0  0  0  0  0  0  0  0  0  0
  148.5927  137.7564  155.0095 C   0  0  0  0  0  0  0  0  0  0  0  0
  148.8707  136.5630  155.6002 N   0  0  0  0  0  0  0  0  0  0  0  0
  148.0824  135.5045  155.3923 C   0  0  0  0  0  0  0  0  0  0  0  0
  146.9791  135.4200  154.6474 N   0  0  0  0  0  0  0  0  0  0  0  0
  146.6866  136.6153  154.0601 C   0  0  0  0  0  0  0  0  0  0  0  0
  147.4343  137.8211  154.1834 C   0  0  0  0  0  0  0  0  0  0  0  0
  146.8244  138.8298  153.4465 N   0  0  0  0  0  0  0  0  0  0  0  0
  145.7853  138.2512  152.9100 C   0  0  0  0  0  0  0  0  0  0  0  0
  145.6169  136.9249  153.2381 N   0  0  0  0  0  0  0  0  0  0  0  0
  144.5495  136.0440  152.7897 C   0  0  0  0  0  0  0  0  0  0  0  0
  144.9437  135.0940  151.6298 C   0  0  0  0  0  0  0  0  0  0  0  0
  144.9197  135.8978  150.4639 O   0  0  0  0  0  0  0  0  0  0  0  0
  146.3627  134.5047  151.7851 C   0  0  0  0  0  0  0  0  0  0  0  0
  146.6903  133.4949  150.6702 C   0  0  0  0  0  0  0  0  0  0  0  0
  145.7064  132.4673  150.6388 O   0  0  0  0  0  0  0  0  0  0  0  0
  144.4035  132.9558  150.3411 C   0  0  0  0  0  0  0  0  0  0  0  0
  143.9437  133.9334  151.4378 C   0  0  0  0  0  0  0  0  0  0  0  0
  150.7737  138.6720  154.7487 C   0  0  0  0  0  0  0  0  0  0  0  0
  151.4870  140.0338  154.7485 C   0  0  0  0  0  0  0  0  0  0  0  0
  151.4164  140.6148  156.0463 O   0  0  0  0  0  0  0  0  0  0  0  0
  151.0465  145.4714  157.6422 H   0  0  0  0  0  0  0  0  0  0  0  0
  152.7307  145.0727  157.2781 H   0  0  0  0  0  0  0  0  0  0  0  0
  152.2448  145.4348  158.9388 H   0  0  0  0  0  0  0  0  0  0  0  0
  149.9612  143.5992  157.1560 H   0  0  0  0  0  0  0  0  0  0  0  0
  150.7603  141.0845  158.5048 H   0  0  0  0  0  0  0  0  0  0  0  0
  149.0966  141.5532  158.2801 H   0  0  0  0  0  0  0  0  0  0  0  0
  149.5926  141.4911  155.7367 H   0  0  0  0  0  0  0  0  0  0  0  0
  149.7453  138.8476  157.2854 H   0  0  0  0  0  0  0  0  0  0  0  0
  148.2756  139.6738  156.7834 H   0  0  0  0  0  0  0  0  0  0  0  0
  148.3777  134.5959  155.8959 H   0  0  0  0  0  0  0  0  0  0  0  0
  145.1020  138.7826  152.2632 H   0  0  0  0  0  0  0  0  0  0  0  0
  144.2099  135.4644  153.6495 H   0  0  0  0  0  0  0  0  0  0  0  0
  143.7034  136.6657  152.4930 H   0  0  0  0  0  0  0  0  0  0  0  0
  144.4528  136.6957  150.6592 H   0  0  0  0  0  0  0  0  0  0  0  0
  147.1087  135.3001  151.8047 H   0  0  0  0  0  0  0  0  0  0  0  0
  146.4452  133.9832  152.7386 H   0  0  0  0  0  0  0  0  0  0  0  0
  146.7521  133.9853  149.6976 H   0  0  0  0  0  0  0  0  0  0  0  0
  147.6636  133.0403  150.8553 H   0  0  0  0  0  0  0  0  0  0  0  0
  144.3964  133.4312  149.3591 H   0  0  0  0  0  0  0  0  0  0  0  0
  143.7178  132.1103  150.2855 H   0  0  0  0  0  0  0  0  0  0  0  0
  143.8467  133.3695  152.3652 H   0  0  0  0  0  0  0  0  0  0  0  0
  142.9496  134.3180  151.2062 H   0  0  0  0  0  0  0  0  0  0  0  0
  151.3006  137.9771  155.4040 H   0  0  0  0  0  0  0  0  0  0  0  0
  150.8068  138.2474  153.7465 H   0  0  0  0  0  0  0  0  0  0  0  0
  152.5343  139.9085  154.4733 H   0  0  0  0  0  0  0  0  0  0  0  0
  151.0424  140.7053  154.0123 H   0  0  0  0  0  0  0  0  0  0  0  0
  1  2  1  0  0  0  0
  1 29  1  0  0  0  0
  1 30  1  0  0  0  0
  1 31  1  0  0  0  0
  2  3  2  0  0  0  0
  2  4  1  0  0  0  0
  4  5  1  0  0  0  0
  4 32  1  0  0  0  0
  5  6  1  0  0  0  0
  5 33  1  0  0  0  0
  5 34  1  0  0  0  0
  6 28  1  0  0  0  0
  6  7  1  0  0  0  0
  6 35  1  0  0  0  0
  7  8  1  0  0  0  0
  7 36  1  0  0  0  0
  7 37  1  0  0  0  0
  8  9  1  0  0  0  0
  8 26  1  0  0  0  0
  9 14  1  0  0  0  0
  9 10  2  0  0  0  0
 10 11  1  0  0  0  0
 11 12  2  0  0  0  0
 11 38  1  0  0  0  0
 12 13  1  0  0  0  0
 13 17  1  0  0  0  0
 13 14  2  0  0  0  0
 14 15  1  0  0  0  0
 15 16  2  0  0  0  0
 16 17  1  0  0  0  0
 16 39  1  0  0  0  0
 17 18  1  0  0  0  0
 18 19  1  0  0  0  0
 18 40  1  0  0  0  0
 18 41  1  0  0  0  0
 19 25  1  0  0  0  0
 19 20  1  0  0  0  0
 19 21  1  0  0  0  0
 20 42  1  0  0  0  0
 21 22  1  0  0  0  0
 21 43  1  0  0  0  0
 21 44  1  0  0  0  0
 22 23  1  0  0  0  0
 22 45  1  0  0  0  0
 22 46  1  0  0  0  0
 23 24  1  0  0  0  0
 24 25  1  0  0  0  0
 24 47  1  0  0  0  0
 24 48  1  0  0  0  0
 25 49  1  0  0  0  0
 25 50  1  0  0  0  0
 26 27  1  0  0  0  0
 26 51  1  0  0  0  0
 26 52  1  0  0  0  0
 27 28  1  0  0  0  0
 27 53  1  0  0  0  0
 27 54  1  0  0  0  0
M  END
> <s_m_source_file>
AV-unprocessed.smi

> <i_m_source_file_index>
180

> <i_lp_mmshare_version>
43012

> <i_f3d_flags>
0

> <s_epik_input>
W0NIM11DKD1PKVtOSF1bQ0gyXVtDQEBIXTFbQ0gyXU4oW0NIMl1bQ0gyXU8xKWMobltjSF1uMiljKGMyMyluW2NIXW4zW0NIMl1DNChbT0hdKVtDSDJdW0NIMl1PW0NIMl1bQ0gyXTQ=

> <s_epik_cmdline>
J2VwaWtfcHl0aG9uJywgJy1waCcsICc3LjAnLCAnLXRuJywgJzgnLCAnLW1hJywgJzIwMCcsICctbWV0YWxfYmluZGluZycsICctaW1hZScsICc8aW5maWxlLm1hZT4nLCAnLW9tYWUnLCAnPG91dGZpbGUubWFlPic=

> <r_lp_tautomer_probability>
1

> <r_epik_Ionization_Penalty>
7.38871e-05

> <r_epik_Ionization_Penalty_Charging>
0

> <r_epik_Ionization_Penalty_Neutral>
7.38871e-05

> <r_epik_State_Penalty>
-0

> <r_epik_Charging_Adjusted_Penalty>
0

> <i_epik_Tot_Q>
0

> <i_epik_Tot_abs_Q>
0

> <r_epik_Metal_State_Penalty>
-0

> <b_epik_Metal_Only>
0

> <s_lp_Force_Field>
OPLS_2005

> <r_lp_Energy>
31.1245

> <b_lp_Chiralities_Consistent>
1

> <s_lp_Variant>
AV-unprocessed.smi:180-1

> <Gold.Version>
5.8.1

> <Gold.Id.Protein>
6NUR|6NUR_protein|mol2

> <Gold.PLP.Fitness>
46.6373

> <Gold.PLP.PLP>
-37.4301

> <Gold.PLP.part.hbond>
-3.0000

> <Gold.PLP.part.metal>
0.0000

> <Gold.PLP.part.buried>
-3.5849

> <Gold.PLP.part.nonpolar>
-31.9778

> <Gold.PLP.part.repulsive>
0.5549

> <Gold.PLP.ligand.clash>
0.0000

> <Gold.PLP.ligand.torsion>
0.7565

> <Gold.PLP.Chemscore.Hbond>
2.0000

> <Gold.PLP.Chemscore.CHOScore>
1.4533

> <Gold.PLP.Chemscore.Metal>
0.0000

> <Gold.Chemscore.Hbonds>
donor molecule, donor type, donor heavy atom, donor atom, acceptor molecule, acceptor atom, score
      L1  H     4    32       P1  8028  0.71
      L1  H    20    42       P1 10171  0.61
      L1  C    16    39       P1 10171  0.48
      L1  C    16    39       P1 10175  1.00

> <Gold.PLP.Chemscore.Internal.Correction>
0.3603

> <Gold.Rescore>
     Score         DG    S(hbond)    S(metal)    S(lipo)     H(rot)  DE(clash)    DE(int)     intcor
      8.84     -10.56       1.00        0.00      80.30       2.99       0.34       1.37       ----

> <Gold.Chemscore.Fitness>
8.8387

> <Gold.Chemscore.DG>
-10.5550

> <Gold.Chemscore.ZeroCoef>
-5.4800

> <Gold.Chemscore.Hbond>
0.9973

> <Gold.Chemscore.Metal>
0.0000

> <Gold.Chemscore.Lipo>
80.2956

> <Gold.Chemscore.Internal_Hbond>
0.0000

> <Gold.Chemscore.DEClash>
0.3419

> <Gold.Chemscore.DEInternal>
1.3745

> <Gold.Chemscore.Rot>
2.9885

> <Gold.Chemscore.Internal.Correction>
   9.000000E+99

> <Gold.Chemscore.Hbonds>
donor molecule, donor type, donor heavy atom, donor atom, acceptor molecule, acceptor atom, score
      L1  H     4    32       P1  8028  0.69
      L1  H    20    42       P1 10171  0.59

> <Gold.Chemscore.Hbond.Weighted>
-3.3310

> <Gold.Chemscore.Metal.Weighted>
-0.0000

> <Gold.Chemscore.Lipo.Weighted>
-9.3946

> <Gold.Chemscore.Internal_Hbond.Weighted>
0.0000

> <Gold.Chemscore.DEClash.Weighted>
0.3419

> <Gold.Chemscore.DEInternal.Weighted>
1.3745

> <Gold.Chemscore.Rot.Weighted>
7.6506

> <Gold.Chemscore.Internal.Correction.Weighted>
   9.000000E+99

> <Gold.Protein.RotatedTorsions>
[ 6907 6896 6895 6894 ] final -122.12 input  -60.11 | X-H torsion
[ 7974 7965 7964 7962 ] final -140.22 input  175.53 | X-H torsion
[ 8008 7997 7996 7995 ] final   81.73 input   59.86 | X-H torsion
[ 10167 10162 10161 10158 ] final  154.06 input  -65.29 | X-H torsion
[ 10718 10713 10712 10709 ] final -137.96 input   66.30 | X-H torsion
[ 10763 10752 10751 10750 ] final   -8.98 input  -60.55 | X-H torsion
[ 11005 11000 10999 10996 ] final  -85.65 input  -57.11 | X-H torsion

> <Gold.Protein.ActiveResidues>
 VAL166  LYS551  ARG553  GLY616  TRP617  ASP618  TYR619  PRO620  LYS621  CYS622 
 ASP623  PHE694  ASN695  SER759  ASP760  ASP761  ALA762  ILE779  LEU786  VAL792 
 PHE793  MET794  SER795  GLU796  ALA797  LYS798  CYS799  TRP800  GLU811  SER814 

> <Gold.Protein.RotatedAtoms>
  150.8547  133.7734  159.3012 H   0  0  0  0  0  0  0  0  0  0  0  0  # atno 6907 bound_to 6896
  151.5395  135.1067  159.9932 H   0  0  0  0  0  0  0  0  0  0  0  0  # atno 6908 bound_to 6896
  152.4580  133.7719  159.6859 H   0  0  0  0  0  0  0  0  0  0  0  0  # atno 6909 bound_to 6896
  144.8614  140.6225  143.5326 H   0  0  0  0  0  0  0  0  0  0  0  0  # atno 7974 bound_to 7965
  155.9011  140.3433  155.6027 H   0  0  0  0  0  0  0  0  0  0  0  0  # atno 8008 bound_to 7997
  155.7499  140.0818  157.2225 H   0  0  0  0  0  0  0  0  0  0  0  0  # atno 8009 bound_to 7997
  154.4044  140.1555  156.2699 H   0  0  0  0  0  0  0  0  0  0  0  0  # atno 8010 bound_to 7997
  139.4824  144.5219  151.7862 H   0  0  0  0  0  0  0  0  0  0  0  0  # atno 10167 bound_to 10162
  156.2940  130.7391  151.1424 H   0  0  0  0  0  0  0  0  0  0  0  0  # atno 10718 bound_to 10713
  153.4482  135.7014  153.6126 H   0  0  0  0  0  0  0  0  0  0  0  0  # atno 10763 bound_to 10752
  153.4472  135.3766  155.2263 H   0  0  0  0  0  0  0  0  0  0  0  0  # atno 10764 bound_to 10752
  154.8728  135.3988  154.3890 H   0  0  0  0  0  0  0  0  0  0  0  0  # atno 10765 bound_to 10752
  141.1639  133.7411  156.9045 H   0  0  0  0  0  0  0  0  0  0  0  0  # atno 11005 bound_to 11000
  145.4305  139.1550  143.4025 LP  0  0  0  0  0  0  0  0  0  0  0  0  # atno 17320 bound_to 7965
  146.2863  140.4421  142.8756 LP  0  0  0  0  0  0  0  0  0  0  0  0  # atno 17321 bound_to 7965
  140.4734  144.1554  150.5921 LP  0  0  0  0  0  0  0  0  0  0  0  0  # atno 17342 bound_to 10162
  140.4357  143.2548  151.9538 LP  0  0  0  0  0  0  0  0  0  0  0  0  # atno 17343 bound_to 10162
  157.7350  131.0576  150.5493 LP  0  0  0  0  0  0  0  0  0  0  0  0  # atno 17370 bound_to 10713
  156.5613  130.4256  149.6062 LP  0  0  0  0  0  0  0  0  0  0  0  0  # atno 17371 bound_to 10713
  140.1559  134.9198  157.2653 LP  0  0  0  0  0  0  0  0  0  0  0  0  # atno 17394 bound_to 11000
  140.2668  134.3507  155.7387 LP  0  0  0  0  0  0  0  0  0  0  0  0  # atno 17395 bound_to 11000

$$$$
