AV-unprocessed.smi:1594|AV-procd|sdf|6414|dock9
  -GOLD-   22720 7 53D 1   1.00000     0.00000
 Structure written by MMmdl.
 35 36  0  0  0  0  0  0  0  0  1 V2000
  147.5308  130.0175  153.3907 C   0  0  0  0  0  0  0  0  0  0  0  0
  148.3457  130.6686  154.4709 C   0  0  0  0  0  0  0  0  0  0  0  0
  148.4710  130.0734  155.6452 N   0  0  0  0  0  0  0  0  0  0  0  0
  149.2792  130.9146  156.4162 O   0  0  0  0  0  0  0  0  0  0  0  0
  149.6116  131.9963  155.6668 C   0  0  0  0  0  0  0  0  0  0  0  0
  150.4817  133.0189  156.3152 C   0  0  0  0  0  0  0  0  0  0  0  0
  149.0488  131.9064  154.4236 C   0  0  0  0  0  0  0  0  0  0  0  0
  149.1465  132.8764  153.2714 C   0  0  0  0  0  0  0  0  0  0  0  0
  147.7629  133.2939  152.7579 C   0  0  0  0  0  0  0  0  0  0  0  0
  147.0952  134.1498  153.3409 O   0  0  0  0  0  0  0  0  0  0  0  0
  147.3432  132.6701  151.6467 N   0  0  0  0  0  0  0  0  0  0  0  0
  146.0701  132.9129  150.9746 C   0  0  0  0  0  0  0  0  0  0  0  0
  144.9167  132.3516  151.8195 C   0  0  0  0  0  0  0  0  0  0  0  0
  143.5831  132.4661  151.0627 C   0  0  0  0  0  0  0  0  0  0  0  0
  143.6769  131.8012  149.8075 O   0  0  0  0  0  0  0  0  0  0  0  0
  144.6555  132.3752  148.9476 C   0  0  0  0  0  0  0  0  0  0  0  0
  146.0500  132.2564  149.5833 C   0  0  0  0  0  0  0  0  0  0  0  0
  148.0462  130.0651  152.4313 H   0  0  0  0  0  0  0  0  0  0  0  0
  146.5685  130.5165  153.2757 H   0  0  0  0  0  0  0  0  0  0  0  0
  147.3371  128.9664  153.6089 H   0  0  0  0  0  0  0  0  0  0  0  0
  151.1710  133.4553  155.5921 H   0  0  0  0  0  0  0  0  0  0  0  0
  151.0720  132.5781  157.1186 H   0  0  0  0  0  0  0  0  0  0  0  0
  149.8803  133.8236  156.7380 H   0  0  0  0  0  0  0  0  0  0  0  0
  149.6933  133.7728  153.5671 H   0  0  0  0  0  0  0  0  0  0  0  0
  149.7032  132.4428  152.4399 H   0  0  0  0  0  0  0  0  0  0  0  0
  147.9518  131.9786  151.2330 H   0  0  0  0  0  0  0  0  0  0  0  0
  145.9197  133.9887  150.8636 H   0  0  0  0  0  0  0  0  0  0  0  0
  145.1041  131.3030  152.0556 H   0  0  0  0  0  0  0  0  0  0  0  0
  144.8525  132.8800  152.7713 H   0  0  0  0  0  0  0  0  0  0  0  0
  142.7828  132.0082  151.6441 H   0  0  0  0  0  0  0  0  0  0  0  0
  143.3090  133.5114  150.9128 H   0  0  0  0  0  0  0  0  0  0  0  0
  144.6348  131.8520  147.9915 H   0  0  0  0  0  0  0  0  0  0  0  0
  144.4091  133.4185  148.7441 H   0  0  0  0  0  0  0  0  0  0  0  0
  146.7942  132.7168  148.9326 H   0  0  0  0  0  0  0  0  0  0  0  0
  146.3170  131.2019  149.6661 H   0  0  0  0  0  0  0  0  0  0  0  0
  1  2  1  0  0  0  0
  1 18  1  0  0  0  0
  1 19  1  0  0  0  0
  1 20  1  0  0  0  0
  2  7  1  0  0  0  0
  2  3  2  0  0  0  0
  3  4  1  0  0  0  0
  4  5  1  0  0  0  0
  5  6  1  0  0  0  0
  5  7  2  0  0  0  0
  6 21  1  0  0  0  0
  6 22  1  0  0  0  0
  6 23  1  0  0  0  0
  7  8  1  0  0  0  0
  8  9  1  0  0  0  0
  8 24  1  0  0  0  0
  8 25  1  0  0  0  0
  9 10  2  0  0  0  0
  9 11  1  0  0  0  0
 11 12  1  0  0  0  0
 11 26  1  0  0  0  0
 12 17  1  0  0  0  0
 12 13  1  0  0  0  0
 12 27  1  0  0  0  0
 13 14  1  0  0  0  0
 13 28  1  0  0  0  0
 13 29  1  0  0  0  0
 14 15  1  0  0  0  0
 14 30  1  0  0  0  0
 14 31  1  0  0  0  0
 15 16  1  0  0  0  0
 16 17  1  0  0  0  0
 16 32  1  0  0  0  0
 16 33  1  0  0  0  0
 17 34  1  0  0  0  0
 17 35  1  0  0  0  0
M  END
> <s_m_source_file>
AV-unprocessed.smi

> <i_m_source_file_index>
1594

> <i_lp_mmshare_version>
43012

> <i_f3d_flags>
0

> <s_epik_input>
W0NIM11jMW5vYyhbQ0gzXSljMVtDSDJdQyg9TylbTkhdW0NIXTJbQ0gyXVtDSDJdT1tDSDJdW0NIMl0y

> <s_epik_cmdline>
J2VwaWtfcHl0aG9uJywgJy1waCcsICc3LjAnLCAnLXRuJywgJzgnLCAnLW1hJywgJzIwMCcsICctbWV0YWxfYmluZGluZycsICctaW1hZScsICc8aW5maWxlLm1hZT4nLCAnLW9tYWUnLCAnPG91dGZpbGUubWFlPic=

> <r_lp_tautomer_probability>
1

> <r_epik_Ionization_Penalty>
2.34123e-08

> <r_epik_Ionization_Penalty_Charging>
0

> <r_epik_Ionization_Penalty_Neutral>
2.34123e-08

> <r_epik_State_Penalty>
-0

> <r_epik_Charging_Adjusted_Penalty>
0

> <i_epik_Tot_Q>
0

> <i_epik_Tot_abs_Q>
0

> <r_epik_Metal_State_Penalty>
-0

> <b_epik_Metal_Only>
0

> <s_lp_Force_Field>
OPLS_2005

> <r_lp_Energy>
1.65601

> <b_lp_Chiralities_Consistent>
1

> <s_lp_Variant>
AV-unprocessed.smi:1594-1

> <Gold.Version>
5.8.1

> <Gold.Id.Protein>
6NUR|6NUR_protein|mol2

> <Gold.PLP.Fitness>
34.5894

> <Gold.PLP.PLP>
-29.6729

> <Gold.PLP.part.hbond>
-2.0000

> <Gold.PLP.part.metal>
0.0000

> <Gold.PLP.part.buried>
-3.0995

> <Gold.PLP.part.nonpolar>
-24.5196

> <Gold.PLP.part.repulsive>
0.4073

> <Gold.PLP.ligand.clash>
0.0000

> <Gold.PLP.ligand.torsion>
0.4345

> <Gold.PLP.Chemscore.Hbond>
1.9280

> <Gold.PLP.Chemscore.CHOScore>
0.0000

> <Gold.PLP.Chemscore.Metal>
0.0000

> <Gold.Chemscore.Hbonds>
donor molecule, donor type, donor heavy atom, donor atom, acceptor molecule, acceptor atom, score
      L1  H    11    26       P1 10747  1.00
      P1  H 10785 10796       L1    15  0.93

> <Gold.PLP.Chemscore.Internal.Correction>
0.0016

> <Gold.Rescore>
     Score         DG    S(hbond)    S(metal)    S(lipo)     H(rot)  DE(clash)    DE(int)     intcor
     16.36     -16.97       1.68        0.00      80.42       1.38       0.20       0.41       ----

> <Gold.Chemscore.Fitness>
16.3588

> <Gold.Chemscore.DG>
-16.9656

> <Gold.Chemscore.ZeroCoef>
-5.4800

> <Gold.Chemscore.Hbond>
1.6783

> <Gold.Chemscore.Metal>
0.0000

> <Gold.Chemscore.Lipo>
80.4221

> <Gold.Chemscore.Internal_Hbond>
0.0000

> <Gold.Chemscore.DEClash>
0.1953

> <Gold.Chemscore.DEInternal>
0.4115

> <Gold.Chemscore.Rot>
1.3786

> <Gold.Chemscore.Internal.Correction>
   9.000000E+99

> <Gold.Chemscore.Hbonds>
donor molecule, donor type, donor heavy atom, donor atom, acceptor molecule, acceptor atom, score
      L1  H    11    26       P1 10747  1.00
      P1  H 10785 10796       L1    15  0.21

> <Gold.Chemscore.Hbond.Weighted>
-5.6055

> <Gold.Chemscore.Metal.Weighted>
-0.0000

> <Gold.Chemscore.Lipo.Weighted>
-9.4094

> <Gold.Chemscore.Internal_Hbond.Weighted>
0.0000

> <Gold.Chemscore.DEClash.Weighted>
0.1953

> <Gold.Chemscore.DEInternal.Weighted>
0.4115

> <Gold.Chemscore.Rot.Weighted>
3.5293

> <Gold.Chemscore.Internal.Correction.Weighted>
   9.000000E+99

> <Gold.Protein.RotatedTorsions>
[ 6907 6896 6895 6894 ] final  108.44 input  -60.11 | X-H torsion
[ 7974 7965 7964 7962 ] final  158.34 input  175.53 | X-H torsion
[ 8008 7997 7996 7995 ] final   33.86 input   59.86 | X-H torsion
[ 10167 10162 10161 10158 ] final    1.22 input  -65.29 | X-H torsion
[ 10718 10713 10712 10709 ] final -116.69 input   66.30 | X-H torsion
[ 10763 10752 10751 10750 ] final   94.50 input  -60.55 | X-H torsion
[ 11005 11000 10999 10996 ] final  -37.37 input  -57.11 | X-H torsion

> <Gold.Protein.ActiveResidues>
 VAL166  LYS551  ARG553  GLY616  TRP617  ASP618  TYR619  PRO620  LYS621  CYS622 
 ASP623  PHE694  ASN695  SER759  ASP760  ASP761  ALA762  ILE779  LEU786  VAL792 
 PHE793  MET794  SER795  GLU796  ALA797  LYS798  CYS799  TRP800  GLU811  SER814 

> <Gold.Protein.RotatedAtoms>
  152.5112  133.9088  159.7477 H   0  0  0  0  0  0  0  0  0  0  0  0  # atno 6907 bound_to 6896
  150.9486  133.6566  159.2783 H   0  0  0  0  0  0  0  0  0  0  0  0  # atno 6908 bound_to 6896
  151.3852  135.0952  159.9561 H   0  0  0  0  0  0  0  0  0  0  0  0  # atno 6909 bound_to 6896
  144.7851  139.7465  143.6244 H   0  0  0  0  0  0  0  0  0  0  0  0  # atno 7974 bound_to 7965
  155.1455  140.3270  155.4442 H   0  0  0  0  0  0  0  0  0  0  0  0  # atno 8008 bound_to 7997
  156.2591  140.1986  156.6519 H   0  0  0  0  0  0  0  0  0  0  0  0  # atno 8009 bound_to 7997
  154.6511  140.0558  156.9943 H   0  0  0  0  0  0  0  0  0  0  0  0  # atno 8010 bound_to 7997
  140.6693  143.7094  150.7889 H   0  0  0  0  0  0  0  0  0  0  0  0  # atno 10167 bound_to 10162
  156.0981  130.6149  150.9068 H   0  0  0  0  0  0  0  0  0  0  0  0  # atno 10718 bound_to 10713
  153.2424  135.4287  155.0712 H   0  0  0  0  0  0  0  0  0  0  0  0  # atno 10763 bound_to 10752
  154.8346  135.3406  154.6630 H   0  0  0  0  0  0  0  0  0  0  0  0  # atno 10764 bound_to 10752
  153.7054  135.7026  153.5108 H   0  0  0  0  0  0  0  0  0  0  0  0  # atno 10765 bound_to 10752
  140.9946  133.6987  156.1912 H   0  0  0  0  0  0  0  0  0  0  0  0  # atno 11005 bound_to 11000
  146.2079  139.5416  142.9700 LP  0  0  0  0  0  0  0  0  0  0  0  0  # atno 17320 bound_to 7965
  145.5943  141.0365  143.2053 LP  0  0  0  0  0  0  0  0  0  0  0  0  # atno 17321 bound_to 7965
  140.0777  143.4999  152.2547 LP  0  0  0  0  0  0  0  0  0  0  0  0  # atno 17342 bound_to 10162
  139.5954  144.7565  151.3299 LP  0  0  0  0  0  0  0  0  0  0  0  0  # atno 17343 bound_to 10162
  157.6146  131.0934  150.8734 LP  0  0  0  0  0  0  0  0  0  0  0  0  # atno 17370 bound_to 10713
  156.8867  130.5198  149.5288 LP  0  0  0  0  0  0  0  0  0  0  0  0  # atno 17371 bound_to 10713
  140.6986  134.4589  157.5587 LP  0  0  0  0  0  0  0  0  0  0  0  0  # atno 17394 bound_to 11000
  139.9008  134.8559  156.1902 LP  0  0  0  0  0  0  0  0  0  0  0  0  # atno 17395 bound_to 11000

$$$$
