AV-unprocessed.smi:1242|AV-procd|sdf|5216|dock9
  -GOLD-   22720 4313D 1   1.00000     0.00000
 Structure written by MMmdl.
 39 40  0  0  0  0  0  0  0  0  1 V2000
  152.5938  139.9810  155.6923 O   0  0  0  0  0  0  0  0  0  0  0  0
  151.9238  139.6591  156.6748 C   0  0  0  0  0  0  0  0  0  0  0  0
  152.5927  139.2961  158.0085 C   0  0  0  0  0  0  0  0  0  0  0  0
  152.8194  140.4515  158.8932 N   0  0  0  0  0  0  0  0  0  0  0  0
  152.1755  141.6569  158.5505 C   0  0  0  0  0  0  0  0  0  0  0  0
  152.2935  142.7839  159.2782 C   0  0  0  0  0  0  0  0  0  0  0  0
  151.6295  144.0830  158.8490 C   0  0  0  0  0  0  0  0  0  0  0  0
  150.3037  143.9514  158.7941 F   0  0  0  0  0  0  0  0  0  0  0  0
  151.9170  145.0707  159.6976 F   0  0  0  0  0  0  0  0  0  0  0  0
  152.0630  144.4365  157.6397 F   0  0  0  0  0  0  0  0  0  0  0  0
  153.1566  142.7134  160.4412 C   0  0  0  0  0  0  0  0  0  0  0  0
  153.7840  141.5702  160.7801 C   0  0  0  0  0  0  0  0  0  0  0  0
  153.6278  140.3465  159.9906 C   0  0  0  0  0  0  0  0  0  0  0  0
  154.1892  139.2939  160.2952 O   0  0  0  0  0  0  0  0  0  0  0  0
  150.5838  139.5934  156.6619 N   0  0  0  0  0  0  0  0  0  0  0  0
  149.7205  139.8854  155.5175 C   0  0  2  0  0  0  0  0  0  0  0  0
  148.4672  140.6802  155.9702 C   0  0  0  0  0  0  0  0  0  0  0  0
  147.2041  140.5171  155.0987 C   0  0  0  0  0  0  0  0  0  0  0  0
  147.3847  140.8309  153.5998 C   0  0  0  0  0  0  0  0  0  0  0  0
  148.5248  140.0839  152.8690 C   0  0  0  0  0  0  0  0  0  0  0  0
  148.8736  138.7952  153.4652 N   0  0  0  0  0  0  0  0  0  0  0  0
  149.4416  138.6265  154.6718 C   0  0  0  0  0  0  0  0  0  0  0  0
  149.7141  137.5059  155.1007 O   0  0  0  0  0  0  0  0  0  0  0  0
  151.9837  138.5470  158.5182 H   0  0  0  0  0  0  0  0  0  0  0  0
  153.5355  138.7925  157.7899 H   0  0  0  0  0  0  0  0  0  0  0  0
  151.5740  141.6070  157.6544 H   0  0  0  0  0  0  0  0  0  0  0  0
  153.3000  143.5909  161.0544 H   0  0  0  0  0  0  0  0  0  0  0  0
  154.4178  141.5539  161.6546 H   0  0  0  0  0  0  0  0  0  0  0  0
  150.1170  139.3099  157.5116 H   0  0  0  0  0  0  0  0  0  0  0  0
  150.2996  140.5378  154.8628 H   0  0  0  0  0  0  0  0  0  0  0  0
  148.1995  140.3831  156.9853 H   0  0  0  0  0  0  0  0  0  0  0  0
  148.7252  141.7380  156.0349 H   0  0  0  0  0  0  0  0  0  0  0  0
  146.8175  139.5030  155.2102 H   0  0  0  0  0  0  0  0  0  0  0  0
  146.4200  141.1613  155.4976 H   0  0  0  0  0  0  0  0  0  0  0  0
  146.4446  140.5949  153.1001 H   0  0  0  0  0  0  0  0  0  0  0  0
  147.5238  141.9040  153.4659 H   0  0  0  0  0  0  0  0  0  0  0  0
  148.2417  139.9171  151.8294 H   0  0  0  0  0  0  0  0  0  0  0  0
  149.4155  140.7115  152.8253 H   0  0  0  0  0  0  0  0  0  0  0  0
  148.6788  137.9701  152.9164 H   0  0  0  0  0  0  0  0  0  0  0  0
  1  2  2  0  0  0  0
  2  3  1  0  0  0  0
  2 15  1  0  0  0  0
  3  4  1  0  0  0  0
  3 24  1  0  0  0  0
  3 25  1  0  0  0  0
  4 13  1  0  0  0  0
  4  5  1  0  0  0  0
  5  6  2  0  0  0  0
  5 26  1  0  0  0  0
  6  7  1  0  0  0  0
  6 11  1  0  0  0  0
  7  8  1  0  0  0  0
  7  9  1  0  0  0  0
  7 10  1  0  0  0  0
 11 12  2  0  0  0  0
 11 27  1  0  0  0  0
 12 13  1  0  0  0  0
 12 28  1  0  0  0  0
 13 14  2  0  0  0  0
 15 16  1  0  0  0  0
 15 29  1  0  0  0  0
 16 22  1  0  0  0  0
 16 17  1  0  0  0  0
 16 30  1  0  0  0  0
 17 18  1  0  0  0  0
 17 31  1  0  0  0  0
 17 32  1  0  0  0  0
 18 19  1  0  0  0  0
 18 33  1  0  0  0  0
 18 34  1  0  0  0  0
 19 20  1  0  0  0  0
 19 35  1  0  0  0  0
 19 36  1  0  0  0  0
 20 21  1  0  0  0  0
 20 37  1  0  0  0  0
 20 38  1  0  0  0  0
 21 22  1  0  0  0  0
 21 39  1  0  0  0  0
 22 23  2  0  0  0  0
M  END
> <s_m_source_file>
AV-unprocessed.smi

> <i_m_source_file_index>
1242

> <i_lp_mmshare_version>
43012

> <i_f3d_flags>
0

> <s_epik_input>
Tz1jMVtjSF1bY0hdYyhDKEYpKEYpRilbY0hdbjFbQ0gyXUMoPU8pW05IXVtDQEBIXTJbQ0gyXVtDSDJdW0NIMl1bQ0gyXVtOSF1DMj1P

> <s_epik_cmdline>
J2VwaWtfcHl0aG9uJywgJy1waCcsICc3LjAnLCAnLXRuJywgJzgnLCAnLW1hJywgJzIwMCcsICctbWV0YWxfYmluZGluZycsICctaW1hZScsICc8aW5maWxlLm1hZT4nLCAnLW9tYWUnLCAnPG91dGZpbGUubWFlPic=

> <r_lp_tautomer_probability>
1

> <r_epik_Ionization_Penalty>
6.92876e-08

> <r_epik_Ionization_Penalty_Charging>
1.59659e-08

> <r_epik_Ionization_Penalty_Neutral>
5.33217e-08

> <r_epik_State_Penalty>
-0

> <r_epik_Charging_Adjusted_Penalty>
1.59659e-08

> <i_epik_Tot_Q>
0

> <i_epik_Tot_abs_Q>
0

> <r_epik_Metal_State_Penalty>
-0

> <b_epik_Metal_Only>
0

> <s_lp_Force_Field>
OPLS_2005

> <r_lp_Energy>
26.9049

> <b_lp_Chiralities_Consistent>
1

> <s_lp_Variant>
AV-unprocessed.smi:1242-1

> <Gold.Version>
5.8.1

> <Gold.Id.Protein>
6NUR|6NUR_protein|mol2

> <Gold.PLP.Fitness>
47.0583

> <Gold.PLP.PLP>
-42.7904

> <Gold.PLP.part.hbond>
-3.0000

> <Gold.PLP.part.metal>
0.0000

> <Gold.PLP.part.buried>
0.4727

> <Gold.PLP.part.nonpolar>
-40.5293

> <Gold.PLP.part.repulsive>
0.2038

> <Gold.PLP.ligand.clash>
0.0000

> <Gold.PLP.ligand.torsion>
0.8457

> <Gold.PLP.Chemscore.Hbond>
1.9588

> <Gold.PLP.Chemscore.CHOScore>
0.0000

> <Gold.PLP.Chemscore.Metal>
0.0000

> <Gold.Chemscore.Hbonds>
donor molecule, donor type, donor heavy atom, donor atom, acceptor molecule, acceptor atom, score
      L1  H    21    39       P1  7948  1.00
      P1  H  7997  8010       L1     1  0.98

> <Gold.PLP.Chemscore.Internal.Correction>
0.0830

> <Gold.Rescore>
     Score         DG    S(hbond)    S(metal)    S(lipo)     H(rot)  DE(clash)    DE(int)     intcor
     14.76     -17.67       1.97        0.00      85.73       1.72       2.04       0.87       ----

> <Gold.Chemscore.Fitness>
14.7591

> <Gold.Chemscore.DG>
-17.6741

> <Gold.Chemscore.ZeroCoef>
-5.4800

> <Gold.Chemscore.Hbond>
1.9670

> <Gold.Chemscore.Metal>
0.0000

> <Gold.Chemscore.Lipo>
85.7308

> <Gold.Chemscore.Internal_Hbond>
0.0000

> <Gold.Chemscore.DEClash>
2.0440

> <Gold.Chemscore.DEInternal>
0.8710

> <Gold.Chemscore.Rot>
1.7212

> <Gold.Chemscore.Internal.Correction>
   9.000000E+99

> <Gold.Chemscore.Hbonds>
donor molecule, donor type, donor heavy atom, donor atom, acceptor molecule, acceptor atom, score
      L1  H    21    39       P1  7948  0.93
      P1  H  7997  8010       L1     1  0.32

> <Gold.Chemscore.Hbond.Weighted>
-6.5699

> <Gold.Chemscore.Metal.Weighted>
-0.0000

> <Gold.Chemscore.Lipo.Weighted>
-10.0305

> <Gold.Chemscore.Internal_Hbond.Weighted>
0.0000

> <Gold.Chemscore.DEClash.Weighted>
2.0440

> <Gold.Chemscore.DEInternal.Weighted>
0.8710

> <Gold.Chemscore.Rot.Weighted>
4.4062

> <Gold.Chemscore.Internal.Correction.Weighted>
   9.000000E+99

> <Gold.Protein.RotatedTorsions>
[ 6907 6896 6895 6894 ] final  -89.43 input  -60.11 | X-H torsion
[ 7974 7965 7964 7962 ] final   45.71 input  175.53 | X-H torsion
[ 8008 7997 7996 7995 ] final   70.35 input   59.86 | X-H torsion
[ 10167 10162 10161 10158 ] final -163.54 input  -65.29 | X-H torsion
[ 10718 10713 10712 10709 ] final   -4.83 input   66.30 | X-H torsion
[ 10763 10752 10751 10750 ] final  -87.43 input  -60.55 | X-H torsion
[ 11005 11000 10999 10996 ] final -169.87 input  -57.11 | X-H torsion

> <Gold.Protein.ActiveResidues>
 VAL166  LYS551  ARG553  GLY616  TRP617  ASP618  TYR619  PRO620  LYS621  CYS622 
 ASP623  PHE694  ASN695  SER759  ASP760  ASP761  ALA762  ILE779  LEU786  VAL792 
 PHE793  MET794  SER795  GLU796  ALA797  LYS798  CYS799  TRP800  GLU811  SER814 

> <Gold.Protein.RotatedAtoms>
  150.6874  134.2588  159.4540 H   0  0  0  0  0  0  0  0  0  0  0  0  # atno 6907 bound_to 6896
  152.0519  134.9645  160.0584 H   0  0  0  0  0  0  0  0  0  0  0  0  # atno 6908 bound_to 6896
  152.1106  133.4264  159.4666 H   0  0  0  0  0  0  0  0  0  0  0  0  # atno 6909 bound_to 6896
  146.0455  139.4934  142.9751 H   0  0  0  0  0  0  0  0  0  0  0  0  # atno 7974 bound_to 7965
  155.7374  140.3491  155.5088 H   0  0  0  0  0  0  0  0  0  0  0  0  # atno 8008 bound_to 7997
  155.9126  140.1053  157.1289 H   0  0  0  0  0  0  0  0  0  0  0  0  # atno 8009 bound_to 7997
  154.4058  140.1265  156.4563 H   0  0  0  0  0  0  0  0  0  0  0  0  # atno 8010 bound_to 7997
  139.6314  144.0433  152.2018 H   0  0  0  0  0  0  0  0  0  0  0  0  # atno 10167 bound_to 10162
  156.7556  130.5253  149.5795 H   0  0  0  0  0  0  0  0  0  0  0  0  # atno 10718 bound_to 10713
  154.6336  135.5413  153.7708 H   0  0  0  0  0  0  0  0  0  0  0  0  # atno 10763 bound_to 10752
  153.0297  135.6442  154.1265 H   0  0  0  0  0  0  0  0  0  0  0  0  # atno 10764 bound_to 10752
  154.1194  135.2921  155.3192 H   0  0  0  0  0  0  0  0  0  0  0  0  # atno 10765 bound_to 10752
  140.5259  134.5663  157.5061 H   0  0  0  0  0  0  0  0  0  0  0  0  # atno 11005 bound_to 11000
  145.6813  141.0190  143.1605 LP  0  0  0  0  0  0  0  0  0  0  0  0  # atno 17320 bound_to 7965
  144.7096  139.8424  143.7419 LP  0  0  0  0  0  0  0  0  0  0  0  0  # atno 17321 bound_to 7965
  140.0099  144.6231  150.7656 LP  0  0  0  0  0  0  0  0  0  0  0  0  # atno 17342 bound_to 10162
  140.7441  143.2855  151.3475 LP  0  0  0  0  0  0  0  0  0  0  0  0  # atno 17343 bound_to 10162
  156.1373  130.6220  151.0418 LP  0  0  0  0  0  0  0  0  0  0  0  0  # atno 17370 bound_to 10713
  157.6758  131.0851  150.7499 LP  0  0  0  0  0  0  0  0  0  0  0  0  # atno 17371 bound_to 10713
  139.9580  134.7501  156.0298 LP  0  0  0  0  0  0  0  0  0  0  0  0  # atno 17394 bound_to 11000
  141.1308  133.6587  156.3460 LP  0  0  0  0  0  0  0  0  0  0  0  0  # atno 17395 bound_to 11000

$$$$
