AV-unprocessed.smi:2825|AV-procd|sdf|10888|dock1
  -GOLD-   2272015333D 1   1.00000     0.00000
 Structure written by MMmdl.
 48 49  0  0  0  0  0  0  0  0  1 V2000
  148.9687  133.0169  153.7512 C   0  0  0  0  0  0  0  0  0  0  0  0
  149.8598  134.1195  154.3318 C   0  0  0  0  0  0  0  0  0  0  0  0
  149.7805  134.1997  155.8632 C   0  0  0  0  0  0  0  0  0  0  0  0
  150.6226  135.7104  156.5179 S   0  0  0  0  0  0  0  0  0  0  0  0
  150.2442  135.8582  157.9317 O   0  0  0  0  0  0  0  0  0  0  0  0
  152.0433  135.6827  156.1359 O   0  0  0  0  0  0  0  0  0  0  0  0
  149.8639  137.0089  155.6497 N   0  0  0  0  0  0  0  0  0  0  0  0
  148.4828  136.8425  155.1800 C   0  0  0  0  0  0  0  0  0  0  0  0
  150.6717  138.0719  155.0180 C   0  0  0  0  0  0  0  0  0  0  0  0
  150.4653  139.4728  155.6350 C   0  0  2  0  0  0  0  0  0  0  0  0
  150.2636  140.3691  154.5598 O   0  0  0  0  0  0  0  0  0  0  0  0
  151.6622  139.9703  156.4764 C   0  0  0  0  0  0  0  0  0  0  0  0
  151.3387  141.1293  157.2913 N   0  0  0  0  0  0  0  0  0  0  0  0
  150.4315  142.0880  157.0199 C   0  0  0  0  0  0  0  0  0  0  0  0
  150.2860  143.0604  157.9150 N   0  0  0  0  0  0  0  0  0  0  0  0
  151.2157  142.6977  158.8741 C   0  0  0  0  0  0  0  0  0  0  0  0
  151.5627  143.3175  160.0944 C   0  0  0  0  0  0  0  0  0  0  0  0
  152.5601  142.7661  160.9299 C   0  0  0  0  0  0  0  0  0  0  0  0
  152.8992  143.4639  162.2354 C   0  0  0  0  0  0  0  0  0  0  0  0
  153.2306  141.5775  160.5454 C   0  0  0  0  0  0  0  0  0  0  0  0
  154.3056  140.9648  161.4256 C   0  0  0  0  0  0  0  0  0  0  0  0
  152.8976  140.9473  159.3286 C   0  0  0  0  0  0  0  0  0  0  0  0
  151.8970  141.4995  158.5100 C   0  0  0  0  0  0  0  0  0  0  0  0
  149.0716  132.9662  152.6671 H   0  0  0  0  0  0  0  0  0  0  0  0
  147.9187  133.2016  153.9742 H   0  0  0  0  0  0  0  0  0  0  0  0
  149.2330  132.0400  154.1569 H   0  0  0  0  0  0  0  0  0  0  0  0
  150.8929  133.9401  154.0319 H   0  0  0  0  0  0  0  0  0  0  0  0
  149.5728  135.0764  153.8951 H   0  0  0  0  0  0  0  0  0  0  0  0
  148.7468  134.2029  156.2005 H   0  0  0  0  0  0  0  0  0  0  0  0
  150.2584  133.3309  156.3164 H   0  0  0  0  0  0  0  0  0  0  0  0
  148.4146  136.0047  154.4867 H   0  0  0  0  0  0  0  0  0  0  0  0
  148.1198  137.7421  154.6824 H   0  0  0  0  0  0  0  0  0  0  0  0
  147.8256  136.6370  156.0248 H   0  0  0  0  0  0  0  0  0  0  0  0
  151.7269  137.7973  155.0460 H   0  0  0  0  0  0  0  0  0  0  0  0
  150.4125  138.1008  153.9589 H   0  0  0  0  0  0  0  0  0  0  0  0
  149.5541  139.4916  156.2300 H   0  0  0  0  0  0  0  0  0  0  0  0
  149.4792  140.1122  154.0994 H   0  0  0  0  0  0  0  0  0  0  0  0
  152.0156  139.1869  157.1440 H   0  0  0  0  0  0  0  0  0  0  0  0
  152.5019  140.2282  155.8295 H   0  0  0  0  0  0  0  0  0  0  0  0
  149.8376  142.0649  156.1177 H   0  0  0  0  0  0  0  0  0  0  0  0
  151.0539  144.2250  160.3848 H   0  0  0  0  0  0  0  0  0  0  0  0
  153.9518  143.7464  162.2560 H   0  0  0  0  0  0  0  0  0  0  0  0
  152.6999  142.8072  163.0824 H   0  0  0  0  0  0  0  0  0  0  0  0
  152.3078  144.3701  162.3682 H   0  0  0  0  0  0  0  0  0  0  0  0
  154.7001  140.0460  160.9906 H   0  0  0  0  0  0  0  0  0  0  0  0
  153.9015  140.7210  162.4084 H   0  0  0  0  0  0  0  0  0  0  0  0
  155.1366  141.6589  161.5535 H   0  0  0  0  0  0  0  0  0  0  0  0
  153.4061  140.0459  159.0242 H   0  0  0  0  0  0  0  0  0  0  0  0
  1  2  1  0  0  0  0
  1 24  1  0  0  0  0
  1 25  1  0  0  0  0
  1 26  1  0  0  0  0
  2  3  1  0  0  0  0
  2 27  1  0  0  0  0
  2 28  1  0  0  0  0
  3  4  1  0  0  0  0
  3 29  1  0  0  0  0
  3 30  1  0  0  0  0
  4  5  2  0  0  0  0
  4  6  2  0  0  0  0
  4  7  1  0  0  0  0
  7  8  1  0  0  0  0
  7  9  1  0  0  0  0
  8 31  1  0  0  0  0
  8 32  1  0  0  0  0
  8 33  1  0  0  0  0
  9 10  1  0  0  0  0
  9 34  1  0  0  0  0
  9 35  1  0  0  0  0
 10 11  1  0  0  0  0
 10 12  1  0  0  0  0
 10 36  1  0  0  0  0
 11 37  1  0  0  0  0
 12 13  1  0  0  0  0
 12 38  1  0  0  0  0
 12 39  1  0  0  0  0
 13 23  1  0  0  0  0
 13 14  1  0  0  0  0
 14 15  2  0  0  0  0
 14 40  1  0  0  0  0
 15 16  1  0  0  0  0
 16 23  2  0  0  0  0
 16 17  1  0  0  0  0
 17 18  2  0  0  0  0
 17 41  1  0  0  0  0
 18 19  1  0  0  0  0
 18 20  1  0  0  0  0
 19 42  1  0  0  0  0
 19 43  1  0  0  0  0
 19 44  1  0  0  0  0
 20 21  1  0  0  0  0
 20 22  2  0  0  0  0
 21 45  1  0  0  0  0
 21 46  1  0  0  0  0
 21 47  1  0  0  0  0
 22 23  1  0  0  0  0
 22 48  1  0  0  0  0
M  END
> <s_m_source_file>
AV-unprocessed.smi

> <i_m_source_file_index>
2825

> <i_lp_mmshare_version>
43012

> <i_f3d_flags>
0

> <s_epik_input>
W0NIM11bQ0gyXVtDSDJdUyg9TykoPU8pTihbQ0gzXSlbQ0gyXVtDQEhdKFtPSF0pW0NIMl1uKFtjSF1uMSljKGMxMilbY0hdYyhbQ0gzXSljKFtjSF0yKVtDSDNd

> <s_epik_cmdline>
J2VwaWtfcHl0aG9uJywgJy1waCcsICc3LjAnLCAnLXRuJywgJzgnLCAnLW1hJywgJzIwMCcsICctbWV0YWxfYmluZGluZycsICctaW1hZScsICc8aW5maWxlLm1hZT4nLCAnLW9tYWUnLCAnPG91dGZpbGUubWFlPic=

> <r_epik_Ionization_Penalty>
0.104931

> <r_epik_Ionization_Penalty_Charging>
0

> <r_epik_Ionization_Penalty_Neutral>
0.104931

> <r_epik_State_Penalty>
0.0948201

> <r_epik_Charging_Adjusted_Penalty>
0.0948201

> <i_epik_Tot_Q>
0

> <i_epik_Tot_abs_Q>
0

> <r_epik_Metal_State_Penalty>
0.00010282

> <b_epik_Metal_Only>
0

> <s_lp_Force_Field>
OPLS_2005

> <r_lp_Energy>
0.666552

> <b_lp_Chiralities_Consistent>
1

> <s_lp_Variant>
AV-unprocessed.smi:2825-1

> <Gold.Version>
5.8.1

> <Gold.Id.Protein>
6NUR|6NUR_protein|mol2

> <Gold.PLP.Fitness>
50.7469

> <Gold.PLP.PLP>
-44.6920

> <Gold.PLP.part.hbond>
-3.0000

> <Gold.PLP.part.metal>
0.0000

> <Gold.PLP.part.buried>
-6.9898

> <Gold.PLP.part.nonpolar>
-36.2932

> <Gold.PLP.part.repulsive>
0.4766

> <Gold.PLP.ligand.clash>
0.0000

> <Gold.PLP.ligand.torsion>
2.5737

> <Gold.PLP.Chemscore.Hbond>
2.7426

> <Gold.PLP.Chemscore.CHOScore>
0.1063

> <Gold.PLP.Chemscore.Metal>
0.0000

> <Gold.Chemscore.Hbonds>
donor molecule, donor type, donor heavy atom, donor atom, acceptor molecule, acceptor atom, score
      P1  H  6896  6908       L1     5  0.69
      P1  H  7989  7998       L1    11  1.00
      P1  H 10752 10765       L1     6  1.00
      L1  C    14    40       P1  8028  0.10

> <Gold.PLP.Chemscore.Internal.Correction>
2.6558

> <Gold.Rescore>
     Score         DG    S(hbond)    S(metal)    S(lipo)     H(rot)  DE(clash)    DE(int)     intcor
     18.33     -21.21       2.76        0.00     108.78       2.43       0.22       2.66       ----

> <Gold.Chemscore.Fitness>
18.3309

> <Gold.Chemscore.DG>
-21.2096

> <Gold.Chemscore.ZeroCoef>
-5.4800

> <Gold.Chemscore.Hbond>
2.7639

> <Gold.Chemscore.Metal>
0.0000

> <Gold.Chemscore.Lipo>
108.7789

> <Gold.Chemscore.Internal_Hbond>
0.0000

> <Gold.Chemscore.DEClash>
0.2222

> <Gold.Chemscore.DEInternal>
2.6565

> <Gold.Chemscore.Rot>
2.4332

> <Gold.Chemscore.Internal.Correction>
   9.000000E+99

> <Gold.Chemscore.Hbonds>
donor molecule, donor type, donor heavy atom, donor atom, acceptor molecule, acceptor atom, score
      P1  H  6896  6908       L1     5  0.66
      P1  H  7989  7998       L1    11  0.83
      P1  H 10752 10765       L1     6  0.96

> <Gold.Chemscore.Hbond.Weighted>
-9.2314

> <Gold.Chemscore.Metal.Weighted>
-0.0000

> <Gold.Chemscore.Lipo.Weighted>
-12.7271

> <Gold.Chemscore.Internal_Hbond.Weighted>
0.0000

> <Gold.Chemscore.DEClash.Weighted>
0.2222

> <Gold.Chemscore.DEInternal.Weighted>
2.6565

> <Gold.Chemscore.Rot.Weighted>
6.2289

> <Gold.Chemscore.Internal.Correction.Weighted>
   9.000000E+99

> <Gold.Protein.RotatedTorsions>
[ 6907 6896 6895 6894 ] final  174.62 input  -60.11 | X-H torsion
[ 7974 7965 7964 7962 ] final  -65.67 input  175.53 | X-H torsion
[ 8008 7997 7996 7995 ] final  -46.04 input   59.86 | X-H torsion
[ 10167 10162 10161 10158 ] final  -21.58 input  -65.29 | X-H torsion
[ 10718 10713 10712 10709 ] final   54.09 input   66.30 | X-H torsion
[ 10763 10752 10751 10750 ] final -165.19 input  -60.55 | X-H torsion
[ 11005 11000 10999 10996 ] final   29.78 input  -57.11 | X-H torsion

> <Gold.Protein.ActiveResidues>
 VAL166  LYS551  ARG553  GLY616  TRP617  ASP618  TYR619  PRO620  LYS621  CYS622 
 ASP623  PHE694  ASN695  SER759  ASP760  ASP761  ALA762  ILE779  LEU786  VAL792 
 PHE793  MET794  SER795  GLU796  ALA797  LYS798  CYS799  TRP800  GLU811  SER814 

> <Gold.Protein.RotatedAtoms>
  151.7493  133.3326  159.3386 H   0  0  0  0  0  0  0  0  0  0  0  0  # atno 6907 bound_to 6896
  150.7541  134.6206  159.6143 H   0  0  0  0  0  0  0  0  0  0  0  0  # atno 6908 bound_to 6896
  152.3479  134.7048  160.0296 H   0  0  0  0  0  0  0  0  0  0  0  0  # atno 6909 bound_to 6896
  145.7514  140.8906  143.0478 H   0  0  0  0  0  0  0  0  0  0  0  0  # atno 7974 bound_to 7965
  154.4004  140.1381  156.3947 H   0  0  0  0  0  0  0  0  0  0  0  0  # atno 8008 bound_to 7997
  155.7881  140.3479  155.5314 H   0  0  0  0  0  0  0  0  0  0  0  0  # atno 8009 bound_to 7997
  155.8607  140.0956  157.1606 H   0  0  0  0  0  0  0  0  0  0  0  0  # atno 8010 bound_to 7997
  140.7282  143.4615  151.0373 H   0  0  0  0  0  0  0  0  0  0  0  0  # atno 10167 bound_to 10162
  157.5225  130.8575  149.8578 H   0  0  0  0  0  0  0  0  0  0  0  0  # atno 10718 bound_to 10713
  154.6956  135.2978  154.9416 H   0  0  0  0  0  0  0  0  0  0  0  0  # atno 10763 bound_to 10752
  154.0365  135.6663  153.4790 H   0  0  0  0  0  0  0  0  0  0  0  0  # atno 10764 bound_to 10752
  153.0643  135.5097  154.8072 H   0  0  0  0  0  0  0  0  0  0  0  0  # atno 10765 bound_to 10752
  140.3013  134.2753  155.7753 H   0  0  0  0  0  0  0  0  0  0  0  0  # atno 11005 bound_to 11000
  144.6849  139.9596  143.7480 LP  0  0  0  0  0  0  0  0  0  0  0  0  # atno 17320 bound_to 7965
  146.0353  139.3372  143.0730 LP  0  0  0  0  0  0  0  0  0  0  0  0  # atno 17321 bound_to 7965
  139.8300  143.7704  152.3179 LP  0  0  0  0  0  0  0  0  0  0  0  0  # atno 17342 bound_to 10162
  139.7817  144.7442  151.0079 LP  0  0  0  0  0  0  0  0  0  0  0  0  # atno 17343 bound_to 10162
  156.0364  130.3750  150.1550 LP  0  0  0  0  0  0  0  0  0  0  0  0  # atno 17370 bound_to 10713
  156.9738  130.9843  151.3453 LP  0  0  0  0  0  0  0  0  0  0  0  0  # atno 17371 bound_to 10713
  141.2127  133.7648  156.9771 LP  0  0  0  0  0  0  0  0  0  0  0  0  # atno 17394 bound_to 11000
  140.1107  134.9479  157.2060 LP  0  0  0  0  0  0  0  0  0  0  0  0  # atno 17395 bound_to 11000

$$$$
