AV-unprocessed.smi:1308|AV-procd|sdf|5438|dock9
  -GOLD-   22720 5 03D 1   1.00000     0.00000
 Structure written by MMmdl.
 45 45  0  0  0  0  0  0  0  0  1 V2000
  146.3097  138.2183  152.2765 C   0  0  0  0  0  0  0  0  0  0  0  0
  147.0638  139.3072  153.0090 C   0  0  0  0  0  0  0  0  0  0  0  0
  146.5559  140.4551  153.3147 N   0  0  0  0  0  0  0  0  0  0  0  0
  147.3495  141.3810  154.0053 C   0  0  0  0  0  0  0  0  0  0  0  0
  146.6651  142.6897  154.3591 C   0  0  0  0  0  0  0  0  0  0  0  0
  148.6401  141.1003  154.3533 C   0  0  0  0  0  0  0  0  0  0  0  0
  149.5143  142.0671  155.1541 C   0  0  0  0  0  0  0  0  0  0  0  0
  149.8753  141.5751  156.5559 C   0  0  0  0  0  0  0  0  0  0  0  0
  148.9900  141.3435  157.3784 O   0  0  0  0  0  0  0  0  0  0  0  0
  151.1819  141.3699  156.7838 N   0  0  0  0  0  0  0  0  0  0  0  0
  151.7516  140.6244  157.9022 C   0  0  2  0  0  0  0  0  0  0  0  0
  151.2228  139.1839  157.8811 C   0  0  0  0  0  0  0  0  0  0  0  0
  151.4113  141.3442  159.2233 C   0  0  0  0  0  0  0  0  0  0  0  0
  152.0779  142.7295  159.3613 C   0  0  0  0  0  0  0  0  0  0  0  0
  151.7538  143.4700  160.6732 C   0  0  0  0  0  0  0  0  0  0  0  0
  151.8880  144.9960  160.5321 C   0  0  0  0  0  0  0  0  0  0  0  0
  152.6538  142.9631  161.8105 C   0  0  0  0  0  0  0  0  0  0  0  0
  149.2121  139.7888  153.9903 C   0  0  0  0  0  0  0  0  0  0  0  0
  150.3569  139.4293  154.2600 O   0  0  0  0  0  0  0  0  0  0  0  0
  148.3736  138.9580  153.3316 N   0  0  0  0  0  0  0  0  0  0  0  0
  148.7165  138.0464  153.0658 H   0  0  0  0  0  0  0  0  0  0  0  0
  145.4497  137.8979  152.8650 H   0  0  0  0  0  0  0  0  0  0  0  0
  146.9399  137.3478  152.0895 H   0  0  0  0  0  0  0  0  0  0  0  0
  145.9497  138.5913  151.3174 H   0  0  0  0  0  0  0  0  0  0  0  0
  147.2209  143.5379  153.9597 H   0  0  0  0  0  0  0  0  0  0  0  0
  146.5876  142.8003  155.4407 H   0  0  0  0  0  0  0  0  0  0  0  0
  145.6557  142.7315  153.9479 H   0  0  0  0  0  0  0  0  0  0  0  0
  150.4356  142.2967  154.6177 H   0  0  0  0  0  0  0  0  0  0  0  0
  148.9971  143.0227  155.2414 H   0  0  0  0  0  0  0  0  0  0  0  0
  151.8245  141.6269  156.0481 H   0  0  0  0  0  0  0  0  0  0  0  0
  152.8382  140.5796  157.8124 H   0  0  0  0  0  0  0  0  0  0  0  0
  151.6464  138.5991  158.6980 H   0  0  0  0  0  0  0  0  0  0  0  0
  151.4846  138.6832  156.9483 H   0  0  0  0  0  0  0  0  0  0  0  0
  150.1371  139.1568  157.9805 H   0  0  0  0  0  0  0  0  0  0  0  0
  150.3284  141.4445  159.2995 H   0  0  0  0  0  0  0  0  0  0  0  0
  151.7183  140.7176  160.0613 H   0  0  0  0  0  0  0  0  0  0  0  0
  153.1576  142.5951  159.2835 H   0  0  0  0  0  0  0  0  0  0  0  0
  151.7971  143.3704  158.5263 H   0  0  0  0  0  0  0  0  0  0  0  0
  150.7224  143.2440  160.9469 H   0  0  0  0  0  0  0  0  0  0  0  0
  152.8923  145.2775  160.2141 H   0  0  0  0  0  0  0  0  0  0  0  0
  151.6895  145.4950  161.4810 H   0  0  0  0  0  0  0  0  0  0  0  0
  151.1825  145.3992  159.8065 H   0  0  0  0  0  0  0  0  0  0  0  0
  153.7063  143.1531  161.5964 H   0  0  0  0  0  0  0  0  0  0  0  0
  152.5335  141.8897  161.9603 H   0  0  0  0  0  0  0  0  0  0  0  0
  152.4118  143.4540  162.7536 H   0  0  0  0  0  0  0  0  0  0  0  0
  1  2  1  0  0  0  0
  1 22  1  0  0  0  0
  1 23  1  0  0  0  0
  1 24  1  0  0  0  0
  2 20  1  0  0  0  0
  2  3  2  0  0  0  0
  3  4  1  0  0  0  0
  4  5  1  0  0  0  0
  4  6  2  0  0  0  0
  5 25  1  0  0  0  0
  5 26  1  0  0  0  0
  5 27  1  0  0  0  0
  6  7  1  0  0  0  0
  6 18  1  0  0  0  0
  7  8  1  0  0  0  0
  7 28  1  0  0  0  0
  7 29  1  0  0  0  0
  8  9  2  0  0  0  0
  8 10  1  0  0  0  0
 10 11  1  0  0  0  0
 10 30  1  0  0  0  0
 11 12  1  0  0  0  0
 11 13  1  0  0  0  0
 11 31  1  0  0  0  0
 12 32  1  0  0  0  0
 12 33  1  0  0  0  0
 12 34  1  0  0  0  0
 13 14  1  0  0  0  0
 13 35  1  0  0  0  0
 13 36  1  0  0  0  0
 14 15  1  0  0  0  0
 14 37  1  0  0  0  0
 14 38  1  0  0  0  0
 15 16  1  0  0  0  0
 15 17  1  0  0  0  0
 15 39  1  0  0  0  0
 16 40  1  0  0  0  0
 16 41  1  0  0  0  0
 16 42  1  0  0  0  0
 17 43  1  0  0  0  0
 17 44  1  0  0  0  0
 17 45  1  0  0  0  0
 18 19  2  0  0  0  0
 18 20  1  0  0  0  0
 20 21  1  0  0  0  0
M  END
> <s_m_source_file>
AV-unprocessed.smi

> <i_m_source_file_index>
1308

> <i_lp_mmshare_version>
43012

> <i_f3d_flags>
0

> <s_epik_input>
W0NIM11jMW5jKFtDSDNdKWMoYyg9TylbbkhdMSlbQ0gyXUMoPU8pW05IXVtDQEhdKFtDSDNdKVtDSDJdW0NIMl1bQ0hdKFtDSDNdKVtDSDNd

> <s_epik_cmdline>
J2VwaWtfcHl0aG9uJywgJy1waCcsICc3LjAnLCAnLXRuJywgJzgnLCAnLW1hJywgJzIwMCcsICctbWV0YWxfYmluZGluZycsICctaW1hZScsICc8aW5maWxlLm1hZT4nLCAnLW9tYWUnLCAnPG91dGZpbGUubWFlPic=

> <r_lp_tautomer_probability>
0.839158

> <r_epik_Ionization_Penalty>
0.000390633

> <r_epik_Ionization_Penalty_Charging>
0.00035831

> <r_epik_Ionization_Penalty_Neutral>
3.23235e-05

> <r_epik_State_Penalty>
0.0470222

> <r_epik_Charging_Adjusted_Penalty>
0.0473805

> <i_epik_Tot_Q>
0

> <i_epik_Tot_abs_Q>
0

> <r_epik_Metal_State_Penalty>
0.223807

> <b_epik_Metal_Only>
0

> <s_lp_Force_Field>
OPLS_2005

> <r_lp_Energy>
5.21456

> <b_lp_Chiralities_Consistent>
1

> <s_lp_Variant>
AV-unprocessed.smi:1308-1

> <Gold.Version>
5.8.1

> <Gold.Id.Protein>
6NUR|6NUR_protein|mol2

> <Gold.PLP.Fitness>
45.6926

> <Gold.PLP.PLP>
-40.2998

> <Gold.PLP.part.hbond>
-3.0000

> <Gold.PLP.part.metal>
0.0000

> <Gold.PLP.part.buried>
2.3831

> <Gold.PLP.part.nonpolar>
-39.3811

> <Gold.PLP.part.repulsive>
0.7309

> <Gold.PLP.ligand.clash>
0.0000

> <Gold.PLP.ligand.torsion>
0.3189

> <Gold.PLP.Chemscore.Hbond>
1.9913

> <Gold.PLP.Chemscore.CHOScore>
0.0000

> <Gold.PLP.Chemscore.Metal>
0.0000

> <Gold.Chemscore.Hbonds>
donor molecule, donor type, donor heavy atom, donor atom, acceptor molecule, acceptor atom, score
      L1  H    20    21       P1  7948  0.65
      P1  H  7989  7998       L1    19  0.93

> <Gold.PLP.Chemscore.Internal.Correction>
0.0568

> <Gold.Rescore>
     Score         DG    S(hbond)    S(metal)    S(lipo)     H(rot)  DE(clash)    DE(int)     intcor
     13.66     -17.80       1.75        0.00      98.66       1.98       2.67       1.47       ----

> <Gold.Chemscore.Fitness>
13.6565

> <Gold.Chemscore.DG>
-17.7991

> <Gold.Chemscore.ZeroCoef>
-5.4800

> <Gold.Chemscore.Hbond>
1.7527

> <Gold.Chemscore.Metal>
0.0000

> <Gold.Chemscore.Lipo>
98.6550

> <Gold.Chemscore.Internal_Hbond>
0.0000

> <Gold.Chemscore.DEClash>
2.6701

> <Gold.Chemscore.DEInternal>
1.4725

> <Gold.Chemscore.Rot>
1.9835

> <Gold.Chemscore.Internal.Correction>
   9.000000E+99

> <Gold.Chemscore.Hbonds>
donor molecule, donor type, donor heavy atom, donor atom, acceptor molecule, acceptor atom, score
      L1  H    20    21       P1  7948  0.64
      P1  H  7989  7998       L1    19  0.53

> <Gold.Chemscore.Hbond.Weighted>
-5.8542

> <Gold.Chemscore.Metal.Weighted>
-0.0000

> <Gold.Chemscore.Lipo.Weighted>
-11.5426

> <Gold.Chemscore.Internal_Hbond.Weighted>
0.0000

> <Gold.Chemscore.DEClash.Weighted>
2.6701

> <Gold.Chemscore.DEInternal.Weighted>
1.4725

> <Gold.Chemscore.Rot.Weighted>
5.0778

> <Gold.Chemscore.Internal.Correction.Weighted>
   9.000000E+99

> <Gold.Protein.RotatedTorsions>
[ 6907 6896 6895 6894 ] final -162.77 input  -60.11 | X-H torsion
[ 7974 7965 7964 7962 ] final  -82.82 input  175.53 | X-H torsion
[ 8008 7997 7996 7995 ] final  169.66 input   59.86 | X-H torsion
[ 10167 10162 10161 10158 ] final  -99.70 input  -65.29 | X-H torsion
[ 10718 10713 10712 10709 ] final   86.48 input   66.30 | X-H torsion
[ 10763 10752 10751 10750 ] final  -12.75 input  -60.55 | X-H torsion
[ 11005 11000 10999 10996 ] final  109.96 input  -57.11 | X-H torsion

> <Gold.Protein.ActiveResidues>
 VAL166  LYS551  ARG553  GLY616  TRP617  ASP618  TYR619  PRO620  LYS621  CYS622 
 ASP623  PHE694  ASN695  SER759  ASP760  ASP761  ALA762  ILE779  LEU786  VAL792 
 PHE793  MET794  SER795  GLU796  ALA797  LYS798  CYS799  TRP800  GLU811  SER814 

> <Gold.Protein.RotatedAtoms>
  151.3855  133.3806  159.2714 H   0  0  0  0  0  0  0  0  0  0  0  0  # atno 6907 bound_to 6896
  150.9545  134.8942  159.7703 H   0  0  0  0  0  0  0  0  0  0  0  0  # atno 6908 bound_to 6896
  152.5125  134.3812  159.9404 H   0  0  0  0  0  0  0  0  0  0  0  0  # atno 6909 bound_to 6896
  145.5282  140.9524  143.1618 H   0  0  0  0  0  0  0  0  0  0  0  0  # atno 7974 bound_to 7965
  156.1437  140.1558  156.8880 H   0  0  0  0  0  0  0  0  0  0  0  0  # atno 8008 bound_to 7997
  154.5009  140.0825  156.7834 H   0  0  0  0  0  0  0  0  0  0  0  0  # atno 8009 bound_to 7997
  155.4030  140.3415  155.4260 H   0  0  0  0  0  0  0  0  0  0  0  0  # atno 8010 bound_to 7997
  140.2597  143.3416  152.0637 H   0  0  0  0  0  0  0  0  0  0  0  0  # atno 10167 bound_to 10162
  157.6929  131.0217  150.2979 H   0  0  0  0  0  0  0  0  0  0  0  0  # atno 10718 bound_to 10713
  153.5030  135.7017  153.5821 H   0  0  0  0  0  0  0  0  0  0  0  0  # atno 10763 bound_to 10752
  153.3944  135.3887  155.1945 H   0  0  0  0  0  0  0  0  0  0  0  0  # atno 10764 bound_to 10752
  154.8709  135.3866  154.4503 H   0  0  0  0  0  0  0  0  0  0  0  0  # atno 10765 bound_to 10752
  139.8872  134.9472  156.6206 H   0  0  0  0  0  0  0  0  0  0  0  0  # atno 11005 bound_to 11000
  144.7640  139.6889  143.7222 LP  0  0  0  0  0  0  0  0  0  0  0  0  # atno 17320 bound_to 7965
  146.2062  139.5387  142.9711 LP  0  0  0  0  0  0  0  0  0  0  0  0  # atno 17321 bound_to 7965
  139.5020  144.6727  151.6204 LP  0  0  0  0  0  0  0  0  0  0  0  0  # atno 17342 bound_to 10162
  140.5976  143.9668  150.6364 LP  0  0  0  0  0  0  0  0  0  0  0  0  # atno 17343 bound_to 10162
  156.3499  130.3829  149.7337 LP  0  0  0  0  0  0  0  0  0  0  0  0  # atno 17370 bound_to 10713
  156.4818  130.8045  151.3058 LP  0  0  0  0  0  0  0  0  0  0  0  0  # atno 17371 bound_to 10713
  140.7742  133.8713  155.8516 LP  0  0  0  0  0  0  0  0  0  0  0  0  # atno 17394 bound_to 11000
  140.9816  134.1398  157.4489 LP  0  0  0  0  0  0  0  0  0  0  0  0  # atno 17395 bound_to 11000

$$$$
