AV-unprocessed.smi:1331|AV-procd|sdf|5488|dock1
  -GOLD-   22720 5 63D 1   1.00000     0.00000
 Structure written by MMmdl.
 38 39  0  0  0  0  0  0  0  0  1 V2000
  147.1880  141.6833  155.7965 C   0  0  0  0  0  0  0  0  0  0  0  0
  148.5842  141.0515  155.8778 C   0  0  1  0  0  0  0  0  0  0  0  0
  149.1108  140.6708  154.4773 C   0  0  0  0  0  0  0  0  0  0  0  0
  150.2106  139.7237  154.5285 N   0  0  0  0  0  0  0  0  0  0  0  0
  150.2372  138.4162  154.0904 C   0  0  0  0  0  0  0  0  0  0  0  0
  151.4907  137.9325  154.3322 C   0  0  0  0  0  0  0  0  0  0  0  0
  152.1668  139.0314  154.9324 C   0  0  0  0  0  0  0  0  0  0  0  0
  151.3968  140.1008  155.0522 N   0  0  0  0  0  0  0  0  0  0  0  0
  149.4916  141.9914  156.5350 N   0  0  0  0  0  0  0  0  0  0  0  0
  150.2598  141.7254  157.6038 C   0  0  0  0  0  0  0  0  0  0  0  0
  150.2684  140.6363  158.1785 O   0  0  0  0  0  0  0  0  0  0  0  0
  151.1722  142.8602  158.0865 C   0  0  0  0  0  0  0  0  0  0  0  0
  152.1478  142.3549  159.1708 C   0  0  0  0  0  0  0  0  0  0  0  0
  153.0612  143.4860  159.6712 C   0  0  0  0  0  0  0  0  0  0  0  0
  152.2400  144.6780  160.1890 C   0  0  0  0  0  0  0  0  0  0  0  0
  151.2580  145.1834  159.1204 C   0  0  0  0  0  0  0  0  0  0  0  0
  150.3465  144.0502  158.6209 C   0  0  0  0  0  0  0  0  0  0  0  0
  146.4741  140.9980  155.3388 H   0  0  0  0  0  0  0  0  0  0  0  0
  147.1981  142.5980  155.2028 H   0  0  0  0  0  0  0  0  0  0  0  0
  146.8116  141.9337  156.7890 H   0  0  0  0  0  0  0  0  0  0  0  0
  148.4910  140.1440  156.4771 H   0  0  0  0  0  0  0  0  0  0  0  0
  148.3110  140.2259  153.8836 H   0  0  0  0  0  0  0  0  0  0  0  0
  149.4397  141.5595  153.9367 H   0  0  0  0  0  0  0  0  0  0  0  0
  149.3744  137.9479  153.6402 H   0  0  0  0  0  0  0  0  0  0  0  0
  151.8681  136.9449  154.1120 H   0  0  0  0  0  0  0  0  0  0  0  0
  153.1871  139.0836  155.2827 H   0  0  0  0  0  0  0  0  0  0  0  0
  149.5533  142.9152  156.1326 H   0  0  0  0  0  0  0  0  0  0  0  0
  151.7611  143.2116  157.2372 H   0  0  0  0  0  0  0  0  0  0  0  0
  151.5928  141.9424  160.0151 H   0  0  0  0  0  0  0  0  0  0  0  0
  152.7581  141.5408  158.7775 H   0  0  0  0  0  0  0  0  0  0  0  0
  153.7145  143.1143  160.4607 H   0  0  0  0  0  0  0  0  0  0  0  0
  153.7120  143.8152  158.8603 H   0  0  0  0  0  0  0  0  0  0  0  0
  151.6870  144.3806  161.0808 H   0  0  0  0  0  0  0  0  0  0  0  0
  152.9063  145.4857  160.4932 H   0  0  0  0  0  0  0  0  0  0  0  0
  150.6538  145.9952  159.5259 H   0  0  0  0  0  0  0  0  0  0  0  0
  151.8144  145.6017  158.2809 H   0  0  0  0  0  0  0  0  0  0  0  0
  149.6874  144.4307  157.8395 H   0  0  0  0  0  0  0  0  0  0  0  0
  149.7006  143.7248  159.4380 H   0  0  0  0  0  0  0  0  0  0  0  0
  1  2  1  0  0  0  0
  1 18  1  0  0  0  0
  1 19  1  0  0  0  0
  1 20  1  0  0  0  0
  2  3  1  0  0  0  0
  2  9  1  0  0  0  0
  2 21  1  0  0  0  0
  3  4  1  0  0  0  0
  3 22  1  0  0  0  0
  3 23  1  0  0  0  0
  4  8  1  0  0  0  0
  4  5  1  0  0  0  0
  5  6  2  0  0  0  0
  5 24  1  0  0  0  0
  6  7  1  0  0  0  0
  6 25  1  0  0  0  0
  7  8  2  0  0  0  0
  7 26  1  0  0  0  0
  9 10  1  0  0  0  0
  9 27  1  0  0  0  0
 10 11  2  0  0  0  0
 10 12  1  0  0  0  0
 12 17  1  0  0  0  0
 12 13  1  0  0  0  0
 12 28  1  0  0  0  0
 13 14  1  0  0  0  0
 13 29  1  0  0  0  0
 13 30  1  0  0  0  0
 14 15  1  0  0  0  0
 14 31  1  0  0  0  0
 14 32  1  0  0  0  0
 15 16  1  0  0  0  0
 15 33  1  0  0  0  0
 15 34  1  0  0  0  0
 16 17  1  0  0  0  0
 16 35  1  0  0  0  0
 16 36  1  0  0  0  0
 17 37  1  0  0  0  0
 17 38  1  0  0  0  0
M  END
> <s_m_source_file>
AV-unprocessed.smi

> <i_m_source_file_index>
1331

> <i_lp_mmshare_version>
43012

> <i_f3d_flags>
0

> <s_epik_input>
bjFbY0hdW2NIXVtjSF1uMVtDSDJdW0NAQEhdKFtDSDNdKVtOSF1DKD1PKVtDSF0yW0NIMl1bQ0gyXVtDSDJdW0NIMl1bQ0gyXTI=

> <s_epik_cmdline>
J2VwaWtfcHl0aG9uJywgJy1waCcsICc3LjAnLCAnLXRuJywgJzgnLCAnLW1hJywgJzIwMCcsICctbWV0YWxfYmluZGluZycsICctaW1hZScsICc8aW5maWxlLm1hZT4nLCAnLW9tYWUnLCAnPG91dGZpbGUubWFlPic=

> <r_lp_tautomer_probability>
1

> <r_epik_Ionization_Penalty>
0.000326658

> <r_epik_Ionization_Penalty_Charging>
0

> <r_epik_Ionization_Penalty_Neutral>
0.000326658

> <r_epik_State_Penalty>
-0

> <r_epik_Charging_Adjusted_Penalty>
0

> <i_epik_Tot_Q>
0

> <i_epik_Tot_abs_Q>
0

> <r_epik_Metal_State_Penalty>
-0

> <b_epik_Metal_Only>
0

> <s_lp_Force_Field>
OPLS_2005

> <r_lp_Energy>
10.1956

> <b_lp_Chiralities_Consistent>
1

> <s_lp_Variant>
AV-unprocessed.smi:1331-2

> <Gold.Version>
5.8.1

> <Gold.Id.Protein>
6NUR|6NUR_protein|mol2

> <Gold.PLP.Fitness>
46.2568

> <Gold.PLP.PLP>
-40.1166

> <Gold.PLP.part.hbond>
-2.0000

> <Gold.PLP.part.metal>
0.0000

> <Gold.PLP.part.buried>
-5.0902

> <Gold.PLP.part.nonpolar>
-34.1758

> <Gold.PLP.part.repulsive>
0.0792

> <Gold.PLP.ligand.clash>
0.0000

> <Gold.PLP.ligand.torsion>
0.3366

> <Gold.PLP.Chemscore.Hbond>
1.2500

> <Gold.PLP.Chemscore.CHOScore>
1.0000

> <Gold.PLP.Chemscore.Metal>
0.0000

> <Gold.Chemscore.Hbonds>
donor molecule, donor type, donor heavy atom, donor atom, acceptor molecule, acceptor atom, score
      L1  H     9    27       P1  8028  1.00
      P1  H  7989  7998       L1     8  0.25
      L1  C     5    24       P1  7948  1.00

> <Gold.PLP.Chemscore.Internal.Correction>
0.0634

> <Gold.Rescore>
     Score         DG    S(hbond)    S(metal)    S(lipo)     H(rot)  DE(clash)    DE(int)     intcor
     16.84     -17.24       0.99        0.00     104.87       1.49       0.05       0.35       ----

> <Gold.Chemscore.Fitness>
16.8364

> <Gold.Chemscore.DG>
-17.2404

> <Gold.Chemscore.ZeroCoef>
-5.4800

> <Gold.Chemscore.Hbond>
0.9896

> <Gold.Chemscore.Metal>
0.0000

> <Gold.Chemscore.Lipo>
104.8725

> <Gold.Chemscore.Internal_Hbond>
0.0000

> <Gold.Chemscore.DEClash>
0.0492

> <Gold.Chemscore.DEInternal>
0.3548

> <Gold.Chemscore.Rot>
1.4902

> <Gold.Chemscore.Internal.Correction>
   9.000000E+99

> <Gold.Chemscore.Hbonds>
donor molecule, donor type, donor heavy atom, donor atom, acceptor molecule, acceptor atom, score
      L1  H     9    27       P1  8028  0.95

> <Gold.Chemscore.Hbond.Weighted>
-3.3051

> <Gold.Chemscore.Metal.Weighted>
-0.0000

> <Gold.Chemscore.Lipo.Weighted>
-12.2701

> <Gold.Chemscore.Internal_Hbond.Weighted>
0.0000

> <Gold.Chemscore.DEClash.Weighted>
0.0492

> <Gold.Chemscore.DEInternal.Weighted>
0.3548

> <Gold.Chemscore.Rot.Weighted>
3.8149

> <Gold.Chemscore.Internal.Correction.Weighted>
   9.000000E+99

> <Gold.Protein.RotatedTorsions>
[ 6907 6896 6895 6894 ] final  -81.93 input  -60.11 | X-H torsion
[ 7974 7965 7964 7962 ] final   15.39 input  175.53 | X-H torsion
[ 8008 7997 7996 7995 ] final -134.37 input   59.86 | X-H torsion
[ 10167 10162 10161 10158 ] final  -70.60 input  -65.29 | X-H torsion
[ 10718 10713 10712 10709 ] final   27.33 input   66.30 | X-H torsion
[ 10763 10752 10751 10750 ] final  123.98 input  -60.55 | X-H torsion
[ 11005 11000 10999 10996 ] final   79.96 input  -57.11 | X-H torsion

> <Gold.Protein.ActiveResidues>
 VAL166  LYS551  ARG553  GLY616  TRP617  ASP618  TYR619  PRO620  LYS621  CYS622 
 ASP623  PHE694  ASN695  SER759  ASP760  ASP761  ALA762  ILE779  LEU786  VAL792 
 PHE793  MET794  SER795  GLU796  ALA797  LYS798  CYS799  TRP800  GLU811  SER814 

> <Gold.Protein.RotatedAtoms>
  150.6904  134.3742  159.5005 H   0  0  0  0  0  0  0  0  0  0  0  0  # atno 6907 bound_to 6896
  152.1554  134.8952  160.0554 H   0  0  0  0  0  0  0  0  0  0  0  0  # atno 6908 bound_to 6896
  152.0034  133.3799  159.4228 H   0  0  0  0  0  0  0  0  0  0  0  0  # atno 6909 bound_to 6896
  146.2280  139.8901  142.8556 H   0  0  0  0  0  0  0  0  0  0  0  0  # atno 7974 bound_to 7965
  155.3610  140.0483  157.3046 H   0  0  0  0  0  0  0  0  0  0  0  0  # atno 8008 bound_to 7997
  154.5178  140.2214  155.8996 H   0  0  0  0  0  0  0  0  0  0  0  0  # atno 8009 bound_to 7997
  156.1656  140.3107  155.8888 H   0  0  0  0  0  0  0  0  0  0  0  0  # atno 8010 bound_to 7997
  140.5340  143.2319  151.7211 H   0  0  0  0  0  0  0  0  0  0  0  0  # atno 10167 bound_to 10162
  157.2188  130.6969  149.6261 H   0  0  0  0  0  0  0  0  0  0  0  0  # atno 10718 bound_to 10713
  153.6541  135.3357  155.3108 H   0  0  0  0  0  0  0  0  0  0  0  0  # atno 10763 bound_to 10752
  154.8530  135.4348  154.1873 H   0  0  0  0  0  0  0  0  0  0  0  0  # atno 10764 bound_to 10752
  153.2823  135.7010  153.7448 H   0  0  0  0  0  0  0  0  0  0  0  0  # atno 10765 bound_to 10752
  139.9152  134.7883  156.1847 H   0  0  0  0  0  0  0  0  0  0  0  0  # atno 11005 bound_to 11000
  145.2426  141.0014  143.3927 LP  0  0  0  0  0  0  0  0  0  0  0  0  # atno 17320 bound_to 7965
  144.9440  139.4157  143.6435 LP  0  0  0  0  0  0  0  0  0  0  0  0  # atno 17321 bound_to 7965
  139.4964  144.4071  152.0120 LP  0  0  0  0  0  0  0  0  0  0  0  0  # atno 17342 bound_to 10162
  140.3175  144.3466  150.6018 LP  0  0  0  0  0  0  0  0  0  0  0  0  # atno 17343 bound_to 10162
  155.9684  130.4527  150.5782 LP  0  0  0  0  0  0  0  0  0  0  0  0  # atno 17370 bound_to 10713
  157.3597  131.0747  151.1646 LP  0  0  0  0  0  0  0  0  0  0  0  0  # atno 17371 bound_to 10713
  141.0621  133.6837  156.1972 LP  0  0  0  0  0  0  0  0  0  0  0  0  # atno 17394 bound_to 11000
  140.6644  134.4933  157.5585 LP  0  0  0  0  0  0  0  0  0  0  0  0  # atno 17395 bound_to 11000

$$$$
