AV-unprocessed.smi:1971|AV-procd|sdf|7965|dock5
  -GOLD-   2272010133D 1   1.00000     0.00000
 Structure written by MMmdl.
 44 45  0  0  0  0  0  0  0  0  2 V2000
  151.0699  141.4735  156.3157 C   0  0  0  0  0  0  0  0  0  0  0  0
  151.7055  140.1132  155.9946 C   0  0  0  0  0  0  0  0  0  0  0  0
  151.1918  139.5497  154.7437 N   0  0  0  0  0  0  0  0  0  0  0  0
  151.8103  138.2831  154.3348 C   0  0  0  0  0  0  0  0  0  0  0  0
  151.4085  137.1116  155.2555 C   0  0  0  0  0  0  0  0  0  0  0  0
  149.9325  136.9682  155.2884 N   0  3  0  0  0  0  0  0  0  0  0  0
  149.4555  135.7485  156.0038 C   0  0  1  0  0  0  0  0  0  0  0  0
  148.0444  135.8990  156.6051 C   0  0  0  0  0  0  0  0  0  0  0  0
  149.5618  134.4795  155.1244 C   0  0  0  0  0  0  0  0  0  0  0  0
  148.8266  134.5775  153.8649 N   0  0  0  0  0  0  0  0  0  0  0  0
  147.7360  133.8639  153.5500 C   0  0  0  0  0  0  0  0  0  0  0  0
  147.2478  133.0124  154.2930 O   0  0  0  0  0  0  0  0  0  0  0  0
  147.2673  134.1987  152.3353 N   0  0  0  0  0  0  0  0  0  0  0  0
  146.1441  133.6639  151.6511 C   0  0  0  0  0  0  0  0  0  0  0  0
  145.8282  132.3639  151.6200 N   0  0  0  0  0  0  0  0  0  0  0  0
  144.6721  132.1234  150.8731 C   0  0  0  0  0  0  0  0  0  0  0  0
  144.1187  133.2595  150.3371 C   0  0  0  0  0  0  0  0  0  0  0  0
  145.0326  134.6852  150.7511 S   0  0  0  0  0  0  0  0  0  0  0  0
  149.2936  138.2434  155.7001 C   0  0  0  0  0  0  0  0  0  0  0  0
  149.7356  139.3853  154.7613 C   0  0  0  0  0  0  0  0  0  0  0  0
  151.3719  141.8094  157.3078 H   0  0  0  0  0  0  0  0  0  0  0  0
  149.9811  141.4137  156.3069 H   0  0  0  0  0  0  0  0  0  0  0  0
  151.3738  142.2459  155.6096 H   0  0  0  0  0  0  0  0  0  0  0  0
  152.7914  140.1983  155.9840 H   0  0  0  0  0  0  0  0  0  0  0  0
  151.4587  139.4287  156.8074 H   0  0  0  0  0  0  0  0  0  0  0  0
  151.4946  138.0622  153.3142 H   0  0  0  0  0  0  0  0  0  0  0  0
  152.8945  138.3801  154.2952 H   0  0  0  0  0  0  0  0  0  0  0  0
  151.8532  136.1931  154.8708 H   0  0  0  0  0  0  0  0  0  0  0  0
  151.8054  137.2514  156.2606 H   0  0  0  0  0  0  0  0  0  0  0  0
  150.1369  135.5984  156.8420 H   0  0  0  0  0  0  0  0  0  0  0  0
  147.7922  135.0281  157.2109 H   0  0  0  0  0  0  0  0  0  0  0  0
  147.2793  135.9847  155.8336 H   0  0  0  0  0  0  0  0  0  0  0  0
  147.9686  136.7722  157.2528 H   0  0  0  0  0  0  0  0  0  0  0  0
  150.6089  134.2536  154.9162 H   0  0  0  0  0  0  0  0  0  0  0  0
  149.1715  133.6159  155.6631 H   0  0  0  0  0  0  0  0  0  0  0  0
  149.1538  135.2627  153.1991 H   0  0  0  0  0  0  0  0  0  0  0  0
  147.7677  134.9234  151.8421 H   0  0  0  0  0  0  0  0  0  0  0  0
  144.3121  131.1099  150.7745 H   0  0  0  0  0  0  0  0  0  0  0  0
  143.2319  133.3435  149.7266 H   0  0  0  0  0  0  0  0  0  0  0  0
  148.2093  138.1460  155.6508 H   0  0  0  0  0  0  0  0  0  0  0  0
  149.5399  138.4832  156.7345 H   0  0  0  0  0  0  0  0  0  0  0  0
  149.2622  140.3232  155.0542 H   0  0  0  0  0  0  0  0  0  0  0  0
  149.3955  139.1759  153.7461 H   0  0  0  0  0  0  0  0  0  0  0  0
  149.6643  136.8259  154.3251 H   0  0  0  0  0  0  0  0  0  0  0  0
  1  2  1  0  0  0  0
  1 21  1  0  0  0  0
  1 22  1  0  0  0  0
  1 23  1  0  0  0  0
  2  3  1  0  0  0  0
  2 24  1  0  0  0  0
  2 25  1  0  0  0  0
  3 20  1  0  0  0  0
  3  4  1  0  0  0  0
  4  5  1  0  0  0  0
  4 26  1  0  0  0  0
  4 27  1  0  0  0  0
  5  6  1  0  0  0  0
  5 28  1  0  0  0  0
  5 29  1  0  0  0  0
  6  7  1  0  0  0  0
  6 19  1  0  0  0  0
  6 44  1  0  0  0  0
  7  8  1  0  0  0  0
  7  9  1  0  0  0  0
  7 30  1  0  0  0  0
  8 31  1  0  0  0  0
  8 32  1  0  0  0  0
  8 33  1  0  0  0  0
  9 10  1  0  0  0  0
  9 34  1  0  0  0  0
  9 35  1  0  0  0  0
 10 11  1  0  0  0  0
 10 36  1  0  0  0  0
 11 12  2  0  0  0  0
 11 13  1  0  0  0  0
 13 14  1  0  0  0  0
 13 37  1  0  0  0  0
 14 18  1  0  0  0  0
 14 15  2  0  0  0  0
 15 16  1  0  0  0  0
 16 17  2  0  0  0  0
 16 38  1  0  0  0  0
 17 18  1  0  0  0  0
 17 39  1  0  0  0  0
 19 20  1  0  0  0  0
 19 40  1  0  0  0  0
 19 41  1  0  0  0  0
 20 42  1  0  0  0  0
 20 43  1  0  0  0  0
M  CHG  1   6   1
M  END
> <s_m_source_file>
AV-unprocessed.smi

> <i_m_source_file_index>
1971

> <i_lp_mmshare_version>
43012

> <i_f3d_flags>
0

> <s_epik_input>
W0NIM11bQ0gyXU4xW0NIMl1bQ0gyXU4oW0NIMl1bQ0gyXTEpW0NASF0oW0NIM10pW0NIMl1bTkhdQyg9TylbTkhdYzJuW2NIXVtjSF1zMg==

> <s_epik_cmdline>
J2VwaWtfcHl0aG9uJywgJy1waCcsICc3LjAnLCAnLXRuJywgJzgnLCAnLW1hJywgJzIwMCcsICctbWV0YWxfYmluZGluZycsICctaW1hZScsICc8aW5maWxlLm1hZT4nLCAnLW9tYWUnLCAnPG91dGZpbGUubWFlPic=

> <r_epik_Ionization_Penalty>
0.150098

> <r_epik_Ionization_Penalty_Charging>
0.148467

> <r_epik_Ionization_Penalty_Neutral>
0.00163072

> <r_epik_State_Penalty>
0.974087

> <r_epik_Charging_Adjusted_Penalty>
1.12255

> <i_epik_Tot_Q>
1

> <i_epik_Tot_abs_Q>
1

> <r_epik_Metal_State_Penalty>
1.00741

> <b_epik_Metal_Only>
0

> <s_lp_Force_Field>
OPLS_2005

> <r_lp_Energy>
24.0056

> <b_lp_Chiralities_Consistent>
1

> <s_lp_Variant>
AV-unprocessed.smi:1971-4

> <Gold.Version>
5.8.1

> <Gold.Id.Protein>
6NUR|6NUR_protein|mol2

> <Gold.PLP.Fitness>
41.8742

> <Gold.PLP.PLP>
-31.8826

> <Gold.PLP.part.hbond>
-3.0000

> <Gold.PLP.part.metal>
0.0000

> <Gold.PLP.part.buried>
-5.8359

> <Gold.PLP.part.nonpolar>
-23.0555

> <Gold.PLP.part.repulsive>
0.2671

> <Gold.PLP.ligand.clash>
0.0000

> <Gold.PLP.ligand.torsion>
1.0673

> <Gold.PLP.Chemscore.Hbond>
3.0000

> <Gold.PLP.Chemscore.CHOScore>
1.0000

> <Gold.PLP.Chemscore.Metal>
0.0000

> <Gold.Chemscore.Hbonds>
donor molecule, donor type, donor heavy atom, donor atom, acceptor molecule, acceptor atom, score
      L1  H    10    36       P1  7948  0.95
      L1  H    13    37       P1  7948  1.00
      P1  H  7989  7998       L1     3  1.00
      L1  C    17    39       P1 10186  1.00

> <Gold.PLP.Chemscore.Internal.Correction>
0.1261

> <Gold.Rescore>
     Score         DG    S(hbond)    S(metal)    S(lipo)     H(rot)  DE(clash)    DE(int)     intcor
     13.63     -14.85       1.89        0.00      65.38       1.79       0.01       1.21       ----

> <Gold.Chemscore.Fitness>
13.6275

> <Gold.Chemscore.DG>
-14.8547

> <Gold.Chemscore.ZeroCoef>
-5.4800

> <Gold.Chemscore.Hbond>
1.8914

> <Gold.Chemscore.Metal>
0.0000

> <Gold.Chemscore.Lipo>
65.3797

> <Gold.Chemscore.Internal_Hbond>
0.0000

> <Gold.Chemscore.DEClash>
0.0135

> <Gold.Chemscore.DEInternal>
1.2137

> <Gold.Chemscore.Rot>
1.7937

> <Gold.Chemscore.Internal.Correction>
   9.000000E+99

> <Gold.Chemscore.Hbonds>
donor molecule, donor type, donor heavy atom, donor atom, acceptor molecule, acceptor atom, score
      L1  H    10    36       P1  7948  0.21
      L1  H    13    37       P1  7948  0.53
      P1  H  7989  7998       L1     3  0.18

> <Gold.Chemscore.Hbond.Weighted>
-6.3172

> <Gold.Chemscore.Metal.Weighted>
-0.0000

> <Gold.Chemscore.Lipo.Weighted>
-7.6494

> <Gold.Chemscore.Internal_Hbond.Weighted>
0.0000

> <Gold.Chemscore.DEClash.Weighted>
0.0135

> <Gold.Chemscore.DEInternal.Weighted>
1.2137

> <Gold.Chemscore.Rot.Weighted>
4.5919

> <Gold.Chemscore.Internal.Correction.Weighted>
   9.000000E+99

> <Gold.Protein.RotatedTorsions>
[ 6907 6896 6895 6894 ] final   94.80 input  -60.11 | X-H torsion
[ 7974 7965 7964 7962 ] final  -33.54 input  175.53 | X-H torsion
[ 8008 7997 7996 7995 ] final  -82.81 input   59.86 | X-H torsion
[ 10167 10162 10161 10158 ] final   51.52 input  -65.29 | X-H torsion
[ 10718 10713 10712 10709 ] final   21.60 input   66.30 | X-H torsion
[ 10763 10752 10751 10750 ] final   95.16 input  -60.55 | X-H torsion
[ 11005 11000 10999 10996 ] final   46.88 input  -57.11 | X-H torsion

> <Gold.Protein.ActiveResidues>
 VAL166  LYS551  ARG553  GLY616  TRP617  ASP618  TYR619  PRO620  LYS621  CYS622 
 ASP623  PHE694  ASN695  SER759  ASP760  ASP761  ALA762  ILE779  LEU786  VAL792 
 PHE793  MET794  SER795  GLU796  ALA797  LYS798  CYS799  TRP800  GLU811  SER814 

> <Gold.Protein.RotatedAtoms>
  152.5447  134.1138  159.8369 H   0  0  0  0  0  0  0  0  0  0  0  0  # atno 6907 bound_to 6896
  151.1201  133.5103  159.2610 H   0  0  0  0  0  0  0  0  0  0  0  0  # atno 6908 bound_to 6896
  151.1788  135.0361  159.8838 H   0  0  0  0  0  0  0  0  0  0  0  0  # atno 6909 bound_to 6896
  146.0902  140.5929  142.8868 H   0  0  0  0  0  0  0  0  0  0  0  0  # atno 7974 bound_to 7965
  154.6125  140.0628  156.9512 H   0  0  0  0  0  0  0  0  0  0  0  0  # atno 8008 bound_to 7997
  155.1949  140.3310  155.4334 H   0  0  0  0  0  0  0  0  0  0  0  0  # atno 8009 bound_to 7997
  156.2385  140.1874  156.7037 H   0  0  0  0  0  0  0  0  0  0  0  0  # atno 8010 bound_to 7997
  140.2610  144.3373  150.6318 H   0  0  0  0  0  0  0  0  0  0  0  0  # atno 10167 bound_to 10162
  157.1407  130.6631  149.5980 H   0  0  0  0  0  0  0  0  0  0  0  0  # atno 10718 bound_to 10713
  153.2500  135.4264  155.0787 H   0  0  0  0  0  0  0  0  0  0  0  0  # atno 10763 bound_to 10752
  154.8377  135.3423  154.6526 H   0  0  0  0  0  0  0  0  0  0  0  0  # atno 10764 bound_to 10752
  153.6948  135.7031  153.5136 H   0  0  0  0  0  0  0  0  0  0  0  0  # atno 10765 bound_to 10752
  140.1329  134.4682  155.8508 H   0  0  0  0  0  0  0  0  0  0  0  0  # atno 11005 bound_to 11000
  144.7355  140.4795  143.6907 LP  0  0  0  0  0  0  0  0  0  0  0  0  # atno 17320 bound_to 7965
  145.6053  139.1508  143.3106 LP  0  0  0  0  0  0  0  0  0  0  0  0  # atno 17321 bound_to 7965
  140.5966  143.2167  151.7153 LP  0  0  0  0  0  0  0  0  0  0  0  0  # atno 17342 bound_to 10162
  139.5017  144.3858  152.0330 LP  0  0  0  0  0  0  0  0  0  0  0  0  # atno 17343 bound_to 10162
  155.9789  130.4778  150.6684 LP  0  0  0  0  0  0  0  0  0  0  0  0  # atno 17370 bound_to 10713
  157.4309  131.0849  151.1039 LP  0  0  0  0  0  0  0  0  0  0  0  0  # atno 17371 bound_to 10713
  141.2173  133.6803  156.7103 LP  0  0  0  0  0  0  0  0  0  0  0  0  # atno 17394 bound_to 11000
  140.2819  134.8310  157.3941 LP  0  0  0  0  0  0  0  0  0  0  0  0  # atno 17395 bound_to 11000

$$$$
