AV-unprocessed.smi:200|AV-procd|sdf|1578|dock8
  -GOLD-   2262019463D 1   1.00000     0.00000
 Structure written by MMmdl.
 56 59  0  0  0  0  0  0  0  0  1 V2000
  147.8782  140.6630  154.3803 C   0  0  0  0  0  0  0  0  0  0  0  0
  149.2866  140.5815  154.2296 O   0  0  0  0  0  0  0  0  0  0  0  0
  149.8694  139.4083  154.7821 C   0  0  0  0  0  0  0  0  0  0  0  0
  151.0368  139.7276  155.7403 C   0  0  0  0  0  0  0  0  0  0  0  0
  150.6218  139.8866  157.1356 N   0  0  0  0  0  0  0  0  0  0  0  0
  151.0328  138.9124  157.9837 C   0  0  0  0  0  0  0  0  0  0  0  0
  152.3126  138.9003  158.4406 N   0  0  0  0  0  0  0  0  0  0  0  0
  152.7112  137.9430  159.2833 C   0  0  0  0  0  0  0  0  0  0  0  0
  152.0067  136.9264  159.7855 N   0  0  0  0  0  0  0  0  0  0  0  0
  150.7234  136.9332  159.3234 C   0  0  0  0  0  0  0  0  0  0  0  0
  150.1637  137.8759  158.4171 C   0  0  0  0  0  0  0  0  0  0  0  0
  148.8393  137.5557  158.1509 N   0  0  0  0  0  0  0  0  0  0  0  0
  148.6261  136.4835  158.8634 C   0  0  0  0  0  0  0  0  0  0  0  0
  149.6953  136.0539  159.6191 N   0  0  0  0  0  0  0  0  0  0  0  0
  149.7273  134.8995  160.5060 C   0  0  0  0  0  0  0  0  0  0  0  0
  149.0403  135.1218  161.8726 C   0  0  0  0  0  0  0  0  0  0  0  0
  149.0667  133.8361  162.7163 C   0  0  0  0  0  0  0  0  0  0  0  0
  148.4141  134.0166  163.9567 O   0  0  0  0  0  0  0  0  0  0  0  0
  149.4697  136.3977  162.6097 C   0  0  0  0  0  0  0  0  0  0  0  0
  148.2102  137.0542  162.3554 O   0  0  0  0  0  0  0  0  0  0  0  0
  147.6758  135.8249  161.8218 C   0  0  0  0  0  0  0  0  0  0  0  0
  150.6351  141.2593  157.6591 C   0  0  2  0  0  0  0  0  0  0  0  0
  150.7381  142.3683  156.6000 C   0  0  0  0  0  0  0  0  0  0  0  0
  151.3155  143.5897  157.3352 C   0  0  0  0  0  0  0  0  0  0  0  0
  151.6557  143.1260  158.7628 C   0  0  2  0  0  0  0  0  0  0  0  0
  152.9157  143.7791  159.3466 C   0  0  0  0  0  0  0  0  0  0  0  0
  151.7415  141.6014  158.6657 C   0  0  0  0  0  0  0  0  0  0  0  0
  147.5294  141.6202  153.9931 H   0  0  0  0  0  0  0  0  0  0  0  0
  147.5866  140.6015  155.4294 H   0  0  0  0  0  0  0  0  0  0  0  0
  147.3651  139.8782  153.8251 H   0  0  0  0  0  0  0  0  0  0  0  0
  149.0876  138.8595  155.3074 H   0  0  0  0  0  0  0  0  0  0  0  0
  150.2079  138.7483  153.9822 H   0  0  0  0  0  0  0  0  0  0  0  0
  151.7829  138.9347  155.6774 H   0  0  0  0  0  0  0  0  0  0  0  0
  151.5461  140.6348  155.4155 H   0  0  0  0  0  0  0  0  0  0  0  0
  153.7411  138.0010  159.6033 H   0  0  0  0  0  0  0  0  0  0  0  0
  147.6709  135.9789  158.8668 H   0  0  0  0  0  0  0  0  0  0  0  0
  149.2749  134.0579  159.9802 H   0  0  0  0  0  0  0  0  0  0  0  0
  150.7716  134.6192  160.6499 H   0  0  0  0  0  0  0  0  0  0  0  0
  148.5605  133.0242  162.1931 H   0  0  0  0  0  0  0  0  0  0  0  0
  150.0844  133.4879  162.8894 H   0  0  0  0  0  0  0  0  0  0  0  0
  148.3630  134.9429  164.1373 H   0  0  0  0  0  0  0  0  0  0  0  0
  149.6450  136.2571  163.6774 H   0  0  0  0  0  0  0  0  0  0  0  0
  150.3092  136.9166  162.1454 H   0  0  0  0  0  0  0  0  0  0  0  0
  147.2699  135.9570  160.8205 H   0  0  0  0  0  0  0  0  0  0  0  0
  146.9269  135.3880  162.4840 H   0  0  0  0  0  0  0  0  0  0  0  0
  149.6880  141.3974  158.1830 H   0  0  0  0  0  0  0  0  0  0  0  0
  151.4185  142.0873  155.7965 H   0  0  0  0  0  0  0  0  0  0  0  0
  149.7704  142.5816  156.1453 H   0  0  0  0  0  0  0  0  0  0  0  0
  152.2076  143.9395  156.8141 H   0  0  0  0  0  0  0  0  0  0  0  0
  150.6080  144.4195  157.3538 H   0  0  0  0  0  0  0  0  0  0  0  0
  150.8085  143.3706  159.4059 H   0  0  0  0  0  0  0  0  0  0  0  0
  153.7938  143.5637  158.7371 H   0  0  0  0  0  0  0  0  0  0  0  0
  153.1125  143.4132  160.3546 H   0  0  0  0  0  0  0  0  0  0  0  0
  152.8052  144.8622  159.4018 H   0  0  0  0  0  0  0  0  0  0  0  0
  151.5991  141.1104  159.6288 H   0  0  0  0  0  0  0  0  0  0  0  0
  152.7266  141.3255  158.2876 H   0  0  0  0  0  0  0  0  0  0  0  0
  1  2  1  0  0  0  0
  1 28  1  0  0  0  0
  1 29  1  0  0  0  0
  1 30  1  0  0  0  0
  2  3  1  0  0  0  0
  3  4  1  0  0  0  0
  3 31  1  0  0  0  0
  3 32  1  0  0  0  0
  4  5  1  0  0  0  0
  4 33  1  0  0  0  0
  4 34  1  0  0  0  0
  5  6  1  0  0  0  0
  5 22  1  0  0  0  0
  6 11  1  0  0  0  0
  6  7  2  0  0  0  0
  7  8  1  0  0  0  0
  8  9  2  0  0  0  0
  8 35  1  0  0  0  0
  9 10  1  0  0  0  0
 10 14  1  0  0  0  0
 10 11  2  0  0  0  0
 11 12  1  0  0  0  0
 12 13  2  0  0  0  0
 13 14  1  0  0  0  0
 13 36  1  0  0  0  0
 14 15  1  0  0  0  0
 15 16  1  0  0  0  0
 15 37  1  0  0  0  0
 15 38  1  0  0  0  0
 16 21  1  0  0  0  0
 16 17  1  0  0  0  0
 16 19  1  0  0  0  0
 17 18  1  0  0  0  0
 17 39  1  0  0  0  0
 17 40  1  0  0  0  0
 18 41  1  0  0  0  0
 19 20  1  0  0  0  0
 19 42  1  0  0  0  0
 19 43  1  0  0  0  0
 20 21  1  0  0  0  0
 21 44  1  0  0  0  0
 21 45  1  0  0  0  0
 22 27  1  0  0  0  0
 22 23  1  0  0  0  0
 22 46  1  0  0  0  0
 23 24  1  0  0  0  0
 23 47  1  0  0  0  0
 23 48  1  0  0  0  0
 24 25  1  0  0  0  0
 24 49  1  0  0  0  0
 24 50  1  0  0  0  0
 25 26  1  0  0  0  0
 25 27  1  0  0  0  0
 25 51  1  0  0  0  0
 26 52  1  0  0  0  0
 26 53  1  0  0  0  0
 26 54  1  0  0  0  0
 27 55  1  0  0  0  0
 27 56  1  0  0  0  0
M  END
> <s_m_source_file>
AV-unprocessed.smi

> <i_m_source_file_index>
200

> <i_lp_mmshare_version>
43012

> <i_f3d_flags>
0

> <s_epik_input>
W0NIM11bQ0BASF0oW0NIMl0xKVtDSDJdW0NIMl1bQ0BIXTFOKFtDSDJdW0NIMl1PW0NIM10pYyhuW2NIXW4yKWMoYzIzKW5bY0hdbjNbQ0gyXUM0KFtDSDJdW09IXSlbQ0gyXU9bQ0gyXTQ=

> <s_epik_cmdline>
J2VwaWtfcHl0aG9uJywgJy1waCcsICc3LjAnLCAnLXRuJywgJzgnLCAnLW1hJywgJzIwMCcsICctbWV0YWxfYmluZGluZycsICctaW1hZScsICc8aW5maWxlLm1hZT4nLCAnLW9tYWUnLCAnPG91dGZpbGUubWFlPic=

> <r_lp_tautomer_probability>
1

> <r_epik_Ionization_Penalty>
0.00363087

> <r_epik_Ionization_Penalty_Charging>
0

> <r_epik_Ionization_Penalty_Neutral>
0.00363087

> <r_epik_State_Penalty>
0.0024341

> <r_epik_Charging_Adjusted_Penalty>
0.0024341

> <i_epik_Tot_Q>
0

> <i_epik_Tot_abs_Q>
0

> <r_epik_Metal_State_Penalty>
-0

> <b_epik_Metal_Only>
0

> <s_lp_Force_Field>
OPLS_2005

> <r_lp_Energy>
51.1688

> <b_lp_Chiralities_Consistent>
1

> <s_lp_Variant>
AV-unprocessed.smi:200-3

> <Gold.Version>
5.8.1

> <Gold.Id.Protein>
6NUR|6NUR_protein|mol2

> <Gold.PLP.Fitness>
52.4341

> <Gold.PLP.PLP>
-49.7976

> <Gold.PLP.part.hbond>
-6.0000

> <Gold.PLP.part.metal>
0.0000

> <Gold.PLP.part.buried>
-2.0483

> <Gold.PLP.part.nonpolar>
-39.9200

> <Gold.PLP.part.repulsive>
0.1929

> <Gold.PLP.ligand.clash>
0.0000

> <Gold.PLP.ligand.torsion>
2.8462

> <Gold.PLP.Chemscore.Hbond>
2.3359

> <Gold.PLP.Chemscore.CHOScore>
0.0000

> <Gold.PLP.Chemscore.Metal>
0.0000

> <Gold.Chemscore.Hbonds>
donor molecule, donor type, donor heavy atom, donor atom, acceptor molecule, acceptor atom, score
      P1  H  6931  6943       L1    20  0.28

> <Gold.PLP.Chemscore.Internal.Correction>
1.3213

> <Gold.Rescore>
     Score         DG    S(hbond)    S(metal)    S(lipo)     H(rot)  DE(clash)    DE(int)     intcor
     13.15     -16.77       1.93        0.00     113.17       3.28       0.10       3.51       ----

> <Gold.Chemscore.Fitness>
13.1504

> <Gold.Chemscore.DG>
-16.7651

> <Gold.Chemscore.ZeroCoef>
-5.4800

> <Gold.Chemscore.Hbond>
1.9255

> <Gold.Chemscore.Metal>
0.0000

> <Gold.Chemscore.Lipo>
113.1695

> <Gold.Chemscore.Internal_Hbond>
0.0000

> <Gold.Chemscore.DEClash>
0.1009

> <Gold.Chemscore.DEInternal>
3.5138

> <Gold.Chemscore.Rot>
3.2761

> <Gold.Chemscore.Internal.Correction>
   9.000000E+99

> <Gold.Chemscore.Hbond.Weighted>
-6.4311

> <Gold.Chemscore.Metal.Weighted>
-0.0000

> <Gold.Chemscore.Lipo.Weighted>
-13.2408

> <Gold.Chemscore.Internal_Hbond.Weighted>
0.0000

> <Gold.Chemscore.DEClash.Weighted>
0.1009

> <Gold.Chemscore.DEInternal.Weighted>
3.5138

> <Gold.Chemscore.Rot.Weighted>
8.3868

> <Gold.Chemscore.Internal.Correction.Weighted>
   9.000000E+99

> <Gold.Protein.RotatedTorsions>
[ 6907 6896 6895 6894 ] final  -18.41 input  -60.11 | X-H torsion
[ 7974 7965 7964 7962 ] final -179.53 input  175.53 | X-H torsion
[ 8008 7997 7996 7995 ] final  -30.96 input   59.86 | X-H torsion
[ 10167 10162 10161 10158 ] final -159.42 input  -65.29 | X-H torsion
[ 10718 10713 10712 10709 ] final -149.54 input   66.30 | X-H torsion
[ 10763 10752 10751 10750 ] final -159.27 input  -60.55 | X-H torsion
[ 11005 11000 10999 10996 ] final  -67.69 input  -57.11 | X-H torsion

> <Gold.Protein.ActiveResidues>
 VAL166  LYS551  ARG553  GLY616  TRP617  ASP618  TYR619  PRO620  LYS621  CYS622 
 ASP623  PHE694  ASN695  SER759  ASP760  ASP761  ALA762  ILE779  LEU786  VAL792 
 PHE793  MET794  SER795  GLU796  ALA797  LYS798  CYS799  TRP800  GLU811  SER814 

> <Gold.Protein.RotatedAtoms>
  151.2787  135.0707  159.9160 H   0  0  0  0  0  0  0  0  0  0  0  0  # atno 6907 bound_to 6896
  152.5338  134.0054  159.7924 H   0  0  0  0  0  0  0  0  0  0  0  0  # atno 6908 bound_to 6896
  151.0304  133.5745  159.2692 H   0  0  0  0  0  0  0  0  0  0  0  0  # atno 6909 bound_to 6896
  144.7137  140.0704  143.6429 H   0  0  0  0  0  0  0  0  0  0  0  0  # atno 7974 bound_to 7965
  154.4231  140.1777  156.1491 H   0  0  0  0  0  0  0  0  0  0  0  0  # atno 8008 bound_to 7997
  155.9930  140.3367  155.6746 H   0  0  0  0  0  0  0  0  0  0  0  0  # atno 8009 bound_to 7997
  155.6347  140.0673  157.2628 H   0  0  0  0  0  0  0  0  0  0  0  0  # atno 8010 bound_to 7997
  139.6616  143.9902  152.2229 H   0  0  0  0  0  0  0  0  0  0  0  0  # atno 10167 bound_to 10162
  156.4345  130.8092  151.2320 H   0  0  0  0  0  0  0  0  0  0  0  0  # atno 10718 bound_to 10713
  154.7488  135.3087  154.8595 H   0  0  0  0  0  0  0  0  0  0  0  0  # atno 10763 bound_to 10752
  153.9388  135.6777  153.4748 H   0  0  0  0  0  0  0  0  0  0  0  0  # atno 10764 bound_to 10752
  153.1084  135.4878  154.8920 H   0  0  0  0  0  0  0  0  0  0  0  0  # atno 10765 bound_to 10752
  141.1514  133.6724  156.6332 H   0  0  0  0  0  0  0  0  0  0  0  0  # atno 11005 bound_to 11000
  145.9788  139.2925  143.1054 LP  0  0  0  0  0  0  0  0  0  0  0  0  # atno 17320 bound_to 7965
  145.9034  140.9228  143.0491 LP  0  0  0  0  0  0  0  0  0  0  0  0  # atno 17321 bound_to 7965
  139.9643  144.6537  150.8049 LP  0  0  0  0  0  0  0  0  0  0  0  0  # atno 17342 bound_to 10162
  140.7582  143.3103  151.2862 LP  0  0  0  0  0  0  0  0  0  0  0  0  # atno 17343 bound_to 10162
  157.7507  131.0188  150.3640 LP  0  0  0  0  0  0  0  0  0  0  0  0  # atno 17370 bound_to 10713
  156.3984  130.3911  149.6978 LP  0  0  0  0  0  0  0  0  0  0  0  0  # atno 17371 bound_to 10713
  140.3451  134.7816  157.4426 LP  0  0  0  0  0  0  0  0  0  0  0  0  # atno 17394 bound_to 11000
  140.0906  134.5606  155.8448 LP  0  0  0  0  0  0  0  0  0  0  0  0  # atno 17395 bound_to 11000

$$$$
