AV-unprocessed.smi:2786|AV-procd|sdf|10752|dock1
  -GOLD-   2272015183D 1   1.00000     0.00000
 Structure written by MMmdl.
 27 28  0  0  0  0  0  0  0  0  2 V2000
  152.3496  141.2282  159.1144 C   0  0  0  0  0  0  0  0  0  0  0  0
  152.1241  142.5298  158.4828 N   0  0  0  0  0  0  0  0  0  0  0  0
  152.7077  143.7198  158.8351 C   0  0  0  0  0  0  0  0  0  0  0  0
  152.2171  144.6680  157.9762 C   0  0  0  0  0  0  0  0  0  0  0  0
  151.3537  144.0181  157.1371 N   0  3  0  0  0  0  0  0  0  0  0  0
  151.2876  142.7171  157.4479 C   0  0  0  0  0  0  0  0  0  0  0  0
  150.4568  141.6866  156.7415 C   0  0  2  0  0  0  0  0  0  0  0  0
  151.3047  140.4507  156.3683 C   0  0  0  0  0  0  0  0  0  0  0  0
  150.4880  139.4403  155.6940 N   0  0  0  0  0  0  0  0  0  0  0  0
  149.8442  139.9953  154.5028 C   0  0  0  0  0  0  0  0  0  0  0  0
  148.9900  141.2216  154.8717 C   0  0  0  0  0  0  0  0  0  0  0  0
  149.8013  142.2362  155.5483 N   0  0  0  0  0  0  0  0  0  0  0  0
  153.1511  141.3123  159.8489 H   0  0  0  0  0  0  0  0  0  0  0  0
  152.6338  140.4995  158.3547 H   0  0  0  0  0  0  0  0  0  0  0  0
  151.4345  140.9071  159.6127 H   0  0  0  0  0  0  0  0  0  0  0  0
  153.4135  143.8018  159.6490 H   0  0  0  0  0  0  0  0  0  0  0  0
  152.4132  145.7276  157.9002 H   0  0  0  0  0  0  0  0  0  0  0  0
  149.6881  141.3832  157.4531 H   0  0  0  0  0  0  0  0  0  0  0  0
  152.1325  140.7489  155.7232 H   0  0  0  0  0  0  0  0  0  0  0  0
  151.7506  140.0203  157.2652 H   0  0  0  0  0  0  0  0  0  0  0  0
  151.0726  138.6544  155.4264 H   0  0  0  0  0  0  0  0  0  0  0  0
  150.5986  140.2771  153.7670 H   0  0  0  0  0  0  0  0  0  0  0  0
  149.2188  139.2371  154.0310 H   0  0  0  0  0  0  0  0  0  0  0  0
  148.5420  141.6441  153.9723 H   0  0  0  0  0  0  0  0  0  0  0  0
  148.1641  140.9150  155.5152 H   0  0  0  0  0  0  0  0  0  0  0  0
  149.2004  143.0074  155.8213 H   0  0  0  0  0  0  0  0  0  0  0  0
  150.8315  144.4535  156.3869 H   0  0  0  0  0  0  0  0  0  0  0  0
  1  2  1  0  0  0  0
  1 13  1  0  0  0  0
  1 14  1  0  0  0  0
  1 15  1  0  0  0  0
  2  6  1  0  0  0  0
  2  3  1  0  0  0  0
  3  4  2  0  0  0  0
  3 16  1  0  0  0  0
  4  5  1  0  0  0  0
  4 17  1  0  0  0  0
  5  6  2  0  0  0  0
  5 27  1  0  0  0  0
  6  7  1  0  0  0  0
  7 12  1  0  0  0  0
  7  8  1  0  0  0  0
  7 18  1  0  0  0  0
  8  9  1  0  0  0  0
  8 19  1  0  0  0  0
  8 20  1  0  0  0  0
  9 10  1  0  0  0  0
  9 21  1  0  0  0  0
 10 11  1  0  0  0  0
 10 22  1  0  0  0  0
 10 23  1  0  0  0  0
 11 12  1  0  0  0  0
 11 24  1  0  0  0  0
 11 25  1  0  0  0  0
 12 26  1  0  0  0  0
M  CHG  1   5   1
M  END
> <s_m_source_file>
AV-unprocessed.smi

> <i_m_source_file_index>
2786

> <i_lp_mmshare_version>
43012

> <i_f3d_flags>
0

> <s_epik_input>
W0NIM11uMVtjSF1bY0hdbmMxW0NAQEhdMltDSDJdW05IXVtDSDJdW0NIMl1bTkhdMg==

> <s_epik_cmdline>
J2VwaWtfcHl0aG9uJywgJy1waCcsICc3LjAnLCAnLXRuJywgJzgnLCAnLW1hJywgJzIwMCcsICctbWV0YWxfYmluZGluZycsICctaW1hZScsICc8aW5maWxlLm1hZT4nLCAnLW9tYWUnLCAnPG91dGZpbGUubWFlPic=

> <r_epik_Ionization_Penalty>
1.38811

> <r_epik_Ionization_Penalty_Charging>
0

> <r_epik_Ionization_Penalty_Neutral>
1.38811

> <r_epik_State_Penalty>
1.49833

> <r_epik_Charging_Adjusted_Penalty>
1.49833

> <i_epik_Tot_Q>
1

> <i_epik_Tot_abs_Q>
1

> <r_epik_Metal_State_Penalty>
3.89997

> <b_epik_Metal_Only>
0

> <s_lp_Force_Field>
OPLS_2005

> <r_lp_Energy>
24.8343

> <b_lp_Chiralities_Consistent>
1

> <s_lp_Variant>
AV-unprocessed.smi:2786-5

> <Gold.Version>
5.8.1

> <Gold.Id.Protein>
6NUR|6NUR_protein|mol2

> <Gold.PLP.Fitness>
37.5905

> <Gold.PLP.PLP>
-29.6144

> <Gold.PLP.part.hbond>
-2.0000

> <Gold.PLP.part.metal>
0.0000

> <Gold.PLP.part.buried>
-3.0058

> <Gold.PLP.part.nonpolar>
-23.7590

> <Gold.PLP.part.repulsive>
0.0167

> <Gold.PLP.ligand.clash>
0.0000

> <Gold.PLP.ligand.torsion>
0.1487

> <Gold.PLP.Chemscore.Hbond>
2.7520

> <Gold.PLP.Chemscore.CHOScore>
0.0000

> <Gold.PLP.Chemscore.Metal>
0.0000

> <Gold.Chemscore.Hbonds>
donor molecule, donor type, donor heavy atom, donor atom, acceptor molecule, acceptor atom, score
      L1  H     5    27       P1  8028  1.60
      L1  H    12    26       P1  8028  0.91

> <Gold.PLP.Chemscore.Internal.Correction>
0.0174

> <Gold.Rescore>
     Score         DG    S(hbond)    S(metal)    S(lipo)     H(rot)  DE(clash)    DE(int)     intcor
     15.35     -15.39       1.47        0.00      64.62       1.00       0.03       0.01       ----

> <Gold.Chemscore.Fitness>
15.3501

> <Gold.Chemscore.DG>
-15.3939

> <Gold.Chemscore.ZeroCoef>
-5.4800

> <Gold.Chemscore.Hbond>
1.4710

> <Gold.Chemscore.Metal>
0.0000

> <Gold.Chemscore.Lipo>
64.6212

> <Gold.Chemscore.Internal_Hbond>
0.0000

> <Gold.Chemscore.DEClash>
0.0297

> <Gold.Chemscore.DEInternal>
0.0141

> <Gold.Chemscore.Rot>
1.0000

> <Gold.Chemscore.Internal.Correction>
   9.000000E+99

> <Gold.Chemscore.Hbonds>
donor molecule, donor type, donor heavy atom, donor atom, acceptor molecule, acceptor atom, score
      L1  H     5    27       P1  8028  0.75
      L1  H    12    26       P1  8028  0.90

> <Gold.Chemscore.Hbond.Weighted>
-4.9132

> <Gold.Chemscore.Metal.Weighted>
-0.0000

> <Gold.Chemscore.Lipo.Weighted>
-7.5607

> <Gold.Chemscore.Internal_Hbond.Weighted>
0.0000

> <Gold.Chemscore.DEClash.Weighted>
0.0297

> <Gold.Chemscore.DEInternal.Weighted>
0.0141

> <Gold.Chemscore.Rot.Weighted>
2.5600

> <Gold.Chemscore.Internal.Correction.Weighted>
   9.000000E+99

> <Gold.Protein.RotatedTorsions>
[ 6907 6896 6895 6894 ] final  -92.98 input  -60.11 | X-H torsion
[ 7974 7965 7964 7962 ] final -132.17 input  175.53 | X-H torsion
[ 8008 7997 7996 7995 ] final  178.80 input   59.86 | X-H torsion
[ 10167 10162 10161 10158 ] final  -85.86 input  -65.29 | X-H torsion
[ 10718 10713 10712 10709 ] final  -67.05 input   66.30 | X-H torsion
[ 10763 10752 10751 10750 ] final   35.70 input  -60.55 | X-H torsion
[ 11005 11000 10999 10996 ] final  -82.63 input  -57.11 | X-H torsion

> <Gold.Protein.ActiveResidues>
 VAL166  LYS551  ARG553  GLY616  TRP617  ASP618  TYR619  PRO620  LYS621  CYS622 
 ASP623  PHE694  ASN695  SER759  ASP760  ASP761  ALA762  ILE779  LEU786  VAL792 
 PHE793  MET794  SER795  GLU796  ALA797  LYS798  CYS799  TRP800  GLU811  SER814 

> <Gold.Protein.RotatedAtoms>
  150.6915  134.2038  159.4332 H   0  0  0  0  0  0  0  0  0  0  0  0  # atno 6907 bound_to 6896
  152.0003  134.9929  160.0574 H   0  0  0  0  0  0  0  0  0  0  0  0  # atno 6908 bound_to 6896
  152.1585  133.4531  159.4886 H   0  0  0  0  0  0  0  0  0  0  0  0  # atno 6909 bound_to 6896
  144.9311  140.7129  143.4905 H   0  0  0  0  0  0  0  0  0  0  0  0  # atno 7974 bound_to 7965
  156.0505  140.1324  157.0055 H   0  0  0  0  0  0  0  0  0  0  0  0  # atno 8008 bound_to 7997
  154.4433  140.1012  156.6440 H   0  0  0  0  0  0  0  0  0  0  0  0  # atno 8009 bound_to 7997
  155.5530  140.3463  155.4475 H   0  0  0  0  0  0  0  0  0  0  0  0  # atno 8010 bound_to 7997
  140.3997  143.2668  151.9158 H   0  0  0  0  0  0  0  0  0  0  0  0  # atno 10167 bound_to 10162
  156.0579  130.4271  150.1797 H   0  0  0  0  0  0  0  0  0  0  0  0  # atno 10718 bound_to 10713
  153.0108  135.6326  154.1868 H   0  0  0  0  0  0  0  0  0  0  0  0  # atno 10763 bound_to 10752
  154.1611  135.2823  155.3110 H   0  0  0  0  0  0  0  0  0  0  0  0  # atno 10764 bound_to 10752
  154.5981  135.5596  153.7407 H   0  0  0  0  0  0  0  0  0  0  0  0  # atno 10765 bound_to 10752
  141.1662  133.7254  156.8601 H   0  0  0  0  0  0  0  0  0  0  0  0  # atno 11005 bound_to 11000
  145.3141  139.1809  143.4623 LP  0  0  0  0  0  0  0  0  0  0  0  0  # atno 17320 bound_to 7965
  146.3247  140.3149  142.8629 LP  0  0  0  0  0  0  0  0  0  0  0  0  # atno 17321 bound_to 7965
  139.4785  144.5646  151.8186 LP  0  0  0  0  0  0  0  0  0  0  0  0  # atno 17342 bound_to 10162
  140.4753  144.1528  150.5924 LP  0  0  0  0  0  0  0  0  0  0  0  0  # atno 17343 bound_to 10162
  156.9871  130.9882  151.3424 LP  0  0  0  0  0  0  0  0  0  0  0  0  # atno 17370 bound_to 10713
  157.5564  130.8216  149.8209 LP  0  0  0  0  0  0  0  0  0  0  0  0  # atno 17371 bound_to 10713
  140.1855  134.9003  157.2998 LP  0  0  0  0  0  0  0  0  0  0  0  0  # atno 17394 bound_to 11000
  140.2348  134.3866  155.7506 LP  0  0  0  0  0  0  0  0  0  0  0  0  # atno 17395 bound_to 11000

$$$$
