AV-unprocessed.smi:955|AV-procd|sdf|4261|dock4
  -GOLD-   22720 2173D 1   1.00000     0.00000
 Structure written by MMmdl.
 29 29  0  0  0  0  0  0  0  0  1 V2000
  148.9847  140.5231  157.5224 C   0  0  0  0  0  0  0  0  0  0  0  0
  150.3183  140.7184  156.7823 C   0  0  2  0  0  0  0  0  0  0  0  0
  151.0366  141.8137  157.4304 N   0  0  0  0  0  0  0  0  0  0  0  0
  151.5199  141.7932  158.6836 C   0  0  0  0  0  0  0  0  0  0  0  0
  151.3576  140.8427  159.4505 O   0  0  0  0  0  0  0  0  0  0  0  0
  152.3091  143.0362  159.1237 C   0  0  1  0  0  0  0  0  0  0  0  0
  151.4773  144.3334  159.0507 C   0  0  0  0  0  0  0  0  0  0  0  0
  152.8851  142.8223  160.4469 N   0  0  0  0  0  0  0  0  0  0  0  0
  153.7405  141.8153  160.8462 C   0  0  0  0  0  0  0  0  0  0  0  0
  153.9809  141.9839  162.1796 C   0  0  0  0  0  0  0  0  0  0  0  0
  153.2080  143.1283  162.5196 C   0  0  0  0  0  0  0  0  0  0  0  0
  152.5485  143.6228  161.4852 N   0  0  0  0  0  0  0  0  0  0  0  0
  150.0022  141.0780  155.3210 C   0  0  0  0  0  0  0  0  0  0  0  0
  149.3241  142.2088  155.1124 N   0  0  0  0  0  0  0  0  0  0  0  0
  150.3754  140.3595  154.3941 O   0  0  0  0  0  0  0  0  0  0  0  0
  148.4021  139.7129  157.0821 H   0  0  0  0  0  0  0  0  0  0  0  0
  148.3705  141.4249  157.5002 H   0  0  0  0  0  0  0  0  0  0  0  0
  149.1549  140.2670  158.5685 H   0  0  0  0  0  0  0  0  0  0  0  0
  150.9054  139.7991  156.8309 H   0  0  0  0  0  0  0  0  0  0  0  0
  151.2194  142.6308  156.8666 H   0  0  0  0  0  0  0  0  0  0  0  0
  153.1413  143.1505  158.4272 H   0  0  0  0  0  0  0  0  0  0  0  0
  151.1080  144.5067  158.0394 H   0  0  0  0  0  0  0  0  0  0  0  0
  152.0812  145.1972  159.3296 H   0  0  0  0  0  0  0  0  0  0  0  0
  150.6138  144.3063  159.7167 H   0  0  0  0  0  0  0  0  0  0  0  0
  154.1022  141.0684  160.1553 H   0  0  0  0  0  0  0  0  0  0  0  0
  154.6080  141.3780  162.8164 H   0  0  0  0  0  0  0  0  0  0  0  0
  153.1035  143.6085  163.4813 H   0  0  0  0  0  0  0  0  0  0  0  0
  149.0995  142.4965  154.1709 H   0  0  0  0  0  0  0  0  0  0  0  0
  149.0468  142.7781  155.8989 H   0  0  0  0  0  0  0  0  0  0  0  0
  1  2  1  0  0  0  0
  1 16  1  0  0  0  0
  1 17  1  0  0  0  0
  1 18  1  0  0  0  0
  2  3  1  0  0  0  0
  2 13  1  0  0  0  0
  2 19  1  0  0  0  0
  3  4  1  0  0  0  0
  3 20  1  0  0  0  0
  4  5  2  0  0  0  0
  4  6  1  0  0  0  0
  6  7  1  0  0  0  0
  6  8  1  0  0  0  0
  6 21  1  0  0  0  0
  7 22  1  0  0  0  0
  7 23  1  0  0  0  0
  7 24  1  0  0  0  0
  8 12  1  0  0  0  0
  8  9  1  0  0  0  0
  9 10  2  0  0  0  0
  9 25  1  0  0  0  0
 10 11  1  0  0  0  0
 10 26  1  0  0  0  0
 11 12  2  0  0  0  0
 11 27  1  0  0  0  0
 13 14  1  0  0  0  0
 13 15  2  0  0  0  0
 14 28  1  0  0  0  0
 14 29  1  0  0  0  0
M  END
> <s_m_source_file>
AV-unprocessed.smi

> <i_m_source_file_index>
955

> <i_lp_mmshare_version>
43012

> <i_f3d_flags>
0

> <s_epik_input>
W05IMl1DKD1PKVtDQEhdKFtDSDNdKVtOSF1DKD1PKVtDQEhdKFtDSDNdKW4xW2NIXVtjSF1bY0hdbjE=

> <s_epik_cmdline>
J2VwaWtfcHl0aG9uJywgJy1waCcsICc3LjAnLCAnLXRuJywgJzgnLCAnLW1hJywgJzIwMCcsICctbWV0YWxfYmluZGluZycsICctaW1hZScsICc8aW5maWxlLm1hZT4nLCAnLW9tYWUnLCAnPG91dGZpbGUubWFlPic=

> <r_lp_tautomer_probability>
1

> <r_epik_Ionization_Penalty>
2.8146e-05

> <r_epik_Ionization_Penalty_Charging>
0

> <r_epik_Ionization_Penalty_Neutral>
2.8146e-05

> <r_epik_State_Penalty>
-0

> <r_epik_Charging_Adjusted_Penalty>
0

> <i_epik_Tot_Q>
0

> <i_epik_Tot_abs_Q>
0

> <r_epik_Metal_State_Penalty>
-0

> <b_epik_Metal_Only>
0

> <s_lp_Force_Field>
OPLS_2005

> <r_lp_Energy>
4.42999

> <b_lp_Chiralities_Consistent>
1

> <s_lp_Variant>
AV-unprocessed.smi:955-3

> <Gold.Version>
5.8.1

> <Gold.Id.Protein>
6NUR|6NUR_protein|mol2

> <Gold.PLP.Fitness>
38.7788

> <Gold.PLP.PLP>
-34.2603

> <Gold.PLP.part.hbond>
-2.8719

> <Gold.PLP.part.metal>
0.0000

> <Gold.PLP.part.buried>
-4.1226

> <Gold.PLP.part.nonpolar>
-27.4727

> <Gold.PLP.part.repulsive>
0.5258

> <Gold.PLP.ligand.clash>
0.0000

> <Gold.PLP.ligand.torsion>
0.1121

> <Gold.PLP.Chemscore.Hbond>
1.5440

> <Gold.PLP.Chemscore.CHOScore>
0.0000

> <Gold.PLP.Chemscore.Metal>
0.0000

> <Gold.Chemscore.Hbonds>
donor molecule, donor type, donor heavy atom, donor atom, acceptor molecule, acceptor atom, score
      L1  H    14    29       P1  8028  0.38
      P1  H  7989  7998       L1    15  1.00

> <Gold.PLP.Chemscore.Internal.Correction>
0.1107

> <Gold.Rescore>
     Score         DG    S(hbond)    S(metal)    S(lipo)     H(rot)  DE(clash)    DE(int)     intcor
     11.02     -11.68       1.45        0.00      61.88       2.30       0.09       0.57       ----

> <Gold.Chemscore.Fitness>
11.0229

> <Gold.Chemscore.DG>
-11.6844

> <Gold.Chemscore.ZeroCoef>
-5.4800

> <Gold.Chemscore.Hbond>
1.4508

> <Gold.Chemscore.Metal>
0.0000

> <Gold.Chemscore.Lipo>
61.8785

> <Gold.Chemscore.Internal_Hbond>
0.0000

> <Gold.Chemscore.DEClash>
0.0889

> <Gold.Chemscore.DEInternal>
0.5726

> <Gold.Chemscore.Rot>
2.2972

> <Gold.Chemscore.Internal.Correction>
   9.000000E+99

> <Gold.Chemscore.Hbonds>
donor molecule, donor type, donor heavy atom, donor atom, acceptor molecule, acceptor atom, score
      L1  H    14    29       P1  8028  0.37
      P1  H  7989  7998       L1    15  0.91

> <Gold.Chemscore.Hbond.Weighted>
-4.8455

> <Gold.Chemscore.Metal.Weighted>
-0.0000

> <Gold.Chemscore.Lipo.Weighted>
-7.2398

> <Gold.Chemscore.Internal_Hbond.Weighted>
0.0000

> <Gold.Chemscore.DEClash.Weighted>
0.0889

> <Gold.Chemscore.DEInternal.Weighted>
0.5726

> <Gold.Chemscore.Rot.Weighted>
5.8809

> <Gold.Chemscore.Internal.Correction.Weighted>
   9.000000E+99

> <Gold.Protein.RotatedTorsions>
[ 6907 6896 6895 6894 ] final  106.75 input  -60.11 | X-H torsion
[ 7974 7965 7964 7962 ] final -105.04 input  175.53 | X-H torsion
[ 8008 7997 7996 7995 ] final   27.31 input   59.86 | X-H torsion
[ 10167 10162 10161 10158 ] final  110.78 input  -65.29 | X-H torsion
[ 10718 10713 10712 10709 ] final  -31.24 input   66.30 | X-H torsion
[ 10763 10752 10751 10750 ] final   84.37 input  -60.55 | X-H torsion
[ 11005 11000 10999 10996 ] final  -39.19 input  -57.11 | X-H torsion

> <Gold.Protein.ActiveResidues>
 VAL166  LYS551  ARG553  GLY616  TRP617  ASP618  TYR619  PRO620  LYS621  CYS622 
 ASP623  PHE694  ASN695  SER759  ASP760  ASP761  ALA762  ILE779  LEU786  VAL792 
 PHE793  MET794  SER795  GLU796  ALA797  LYS798  CYS799  TRP800  GLU811  SER814 

> <Gold.Protein.RotatedAtoms>
  152.5182  133.9336  159.7591 H   0  0  0  0  0  0  0  0  0  0  0  0  # atno 6907 bound_to 6896
  150.9681  133.6365  159.2749 H   0  0  0  0  0  0  0  0  0  0  0  0  # atno 6908 bound_to 6896
  151.3586  135.0905  159.9480 H   0  0  0  0  0  0  0  0  0  0  0  0  # atno 6909 bound_to 6896
  145.2355  140.9186  143.3180 H   0  0  0  0  0  0  0  0  0  0  0  0  # atno 7974 bound_to 7965
  155.0408  140.3169  155.4725 H   0  0  0  0  0  0  0  0  0  0  0  0  # atno 8008 bound_to 7997
  156.2855  140.2163  156.5475 H   0  0  0  0  0  0  0  0  0  0  0  0  # atno 8009 bound_to 7997
  154.7291  140.0483  157.0698 H   0  0  0  0  0  0  0  0  0  0  0  0  # atno 8010 bound_to 7997
  139.6661  144.7127  151.1773 H   0  0  0  0  0  0  0  0  0  0  0  0  # atno 10167 bound_to 10162
  156.3897  130.4371  149.7404 H   0  0  0  0  0  0  0  0  0  0  0  0  # atno 10718 bound_to 10713
  153.1376  135.4656  154.9445 H   0  0  0  0  0  0  0  0  0  0  0  0  # atno 10763 bound_to 10752
  154.7719  135.3161  154.8174 H   0  0  0  0  0  0  0  0  0  0  0  0  # atno 10764 bound_to 10752
  153.8704  135.6904  153.4829 H   0  0  0  0  0  0  0  0  0  0  0  0  # atno 10765 bound_to 10752
  141.0083  133.6920  156.2153 H   0  0  0  0  0  0  0  0  0  0  0  0  # atno 11005 bound_to 11000
  144.9637  139.3953  143.6343 LP  0  0  0  0  0  0  0  0  0  0  0  0  # atno 17320 bound_to 7965
  146.3342  139.8702  142.8841 LP  0  0  0  0  0  0  0  0  0  0  0  0  # atno 17321 bound_to 7965
  140.7600  143.5916  150.8790 LP  0  0  0  0  0  0  0  0  0  0  0  0  # atno 17342 bound_to 10162
  139.9578  143.6198  152.3011 LP  0  0  0  0  0  0  0  0  0  0  0  0  # atno 17343 bound_to 10162
  156.4462  130.7885  151.2906 LP  0  0  0  0  0  0  0  0  0  0  0  0  # atno 17370 bound_to 10713
  157.7498  131.0109  150.3326 LP  0  0  0  0  0  0  0  0  0  0  0  0  # atno 17371 bound_to 10713
  140.6776  134.4802  157.5588 LP  0  0  0  0  0  0  0  0  0  0  0  0  # atno 17394 bound_to 11000
  139.9076  134.8416  156.1649 LP  0  0  0  0  0  0  0  0  0  0  0  0  # atno 17395 bound_to 11000

$$$$
