AV-unprocessed.smi:1929|AV-procd|sdf|7802|dock5
  -GOLD-   22720 9543D 1   1.00000     0.00000
 Structure written by MMmdl.
 43 44  0  0  0  0  0  0  0  0  2 V2000
  155.4690  132.9580  157.4977 C   0  0  0  0  0  0  0  0  0  0  0  0
  154.5926  131.8407  157.1823 N   0  0  0  0  0  0  0  0  0  0  0  0
  153.2625  131.8550  157.3497 C   0  0  0  0  0  0  0  0  0  0  0  0
  152.6469  132.8251  157.7914 O   0  0  0  0  0  0  0  0  0  0  0  0
  152.5055  130.5823  156.9509 C   0  0  0  0  0  0  0  0  0  0  0  0
  151.6372  130.7313  155.7605 N   0  0  0  0  0  0  0  0  0  0  0  0
  150.5991  131.7277  156.0443 C   0  0  0  0  0  0  0  0  0  0  0  0
  149.7568  132.0071  154.7878 C   0  0  0  0  0  0  0  0  0  0  0  0
  149.1005  130.7215  154.2662 C   0  0  0  0  0  0  0  0  0  0  0  0
  148.3974  130.9942  153.0160 N   0  0  0  0  0  0  0  0  0  0  0  0
  147.1547  131.4883  152.9206 C   0  0  0  0  0  0  0  0  0  0  0  0
  146.4552  131.7580  153.8967 O   0  0  0  0  0  0  0  0  0  0  0  0
  146.7833  131.6259  151.6356 N   0  0  0  0  0  0  0  0  0  0  0  0
  145.5601  132.1263  151.1112 C   0  0  0  0  0  0  0  0  0  0  0  0
  145.4238  132.1702  149.7058 C   0  0  0  0  0  0  0  0  0  0  0  0
  144.2359  132.6720  149.1361 C   0  0  0  0  0  0  0  0  0  0  0  0
  143.2421  133.1149  149.9352 N   0  3  0  0  0  0  0  0  0  0  0  0
  143.3305  133.1060  151.2825 C   0  0  0  0  0  0  0  0  0  0  0  0
  144.4945  132.6160  151.9093 C   0  0  0  0  0  0  0  0  0  0  0  0
  150.1889  129.6542  154.0661 C   0  0  0  0  0  0  0  0  0  0  0  0
  151.0237  129.4611  155.3448 C   0  0  0  0  0  0  0  0  0  0  0  0
  156.4995  132.7033  157.2503 H   0  0  0  0  0  0  0  0  0  0  0  0
  155.4226  133.1999  158.5602 H   0  0  0  0  0  0  0  0  0  0  0  0
  155.1900  133.8436  156.9256 H   0  0  0  0  0  0  0  0  0  0  0  0
  155.0217  131.0059  156.8103 H   0  0  0  0  0  0  0  0  0  0  0  0
  153.2136  129.7669  156.7894 H   0  0  0  0  0  0  0  0  0  0  0  0
  151.8959  130.2948  157.8089 H   0  0  0  0  0  0  0  0  0  0  0  0
  149.9591  131.3885  156.8610 H   0  0  0  0  0  0  0  0  0  0  0  0
  151.0614  132.6604  156.3704 H   0  0  0  0  0  0  0  0  0  0  0  0
  148.9925  132.7512  155.0156 H   0  0  0  0  0  0  0  0  0  0  0  0
  150.3931  132.4431  154.0157 H   0  0  0  0  0  0  0  0  0  0  0  0
  148.3869  130.3710  155.0145 H   0  0  0  0  0  0  0  0  0  0  0  0
  148.8980  130.7915  152.1629 H   0  0  0  0  0  0  0  0  0  0  0  0
  147.4406  131.2856  150.9489 H   0  0  0  0  0  0  0  0  0  0  0  0
  146.2199  131.8181  149.0655 H   0  0  0  0  0  0  0  0  0  0  0  0
  144.0533  132.7331  148.0729 H   0  0  0  0  0  0  0  0  0  0  0  0
  142.4753  133.4938  151.8164 H   0  0  0  0  0  0  0  0  0  0  0  0
  144.5482  132.6374  152.9866 H   0  0  0  0  0  0  0  0  0  0  0  0
  149.7361  128.7043  153.7794 H   0  0  0  0  0  0  0  0  0  0  0  0
  150.8473  129.9422  153.2449 H   0  0  0  0  0  0  0  0  0  0  0  0
  151.7853  128.7094  155.1375 H   0  0  0  0  0  0  0  0  0  0  0  0
  150.3996  129.0644  156.1476 H   0  0  0  0  0  0  0  0  0  0  0  0
  142.3906  133.4754  149.5033 H   0  0  0  0  0  0  0  0  0  0  0  0
  1  2  1  0  0  0  0
  1 22  1  0  0  0  0
  1 23  1  0  0  0  0
  1 24  1  0  0  0  0
  2  3  1  0  0  0  0
  2 25  1  0  0  0  0
  3  4  2  0  0  0  0
  3  5  1  0  0  0  0
  5  6  1  0  0  0  0
  5 26  1  0  0  0  0
  5 27  1  0  0  0  0
  6 21  1  0  0  0  0
  6  7  1  0  0  0  0
  7  8  1  0  0  0  0
  7 28  1  0  0  0  0
  7 29  1  0  0  0  0
  8  9  1  0  0  0  0
  8 30  1  0  0  0  0
  8 31  1  0  0  0  0
  9 10  1  0  0  0  0
  9 20  1  0  0  0  0
  9 32  1  0  0  0  0
 10 11  1  0  0  0  0
 10 33  1  0  0  0  0
 11 12  2  0  0  0  0
 11 13  1  0  0  0  0
 13 14  1  0  0  0  0
 13 34  1  0  0  0  0
 14 19  1  0  0  0  0
 14 15  2  0  0  0  0
 15 16  1  0  0  0  0
 15 35  1  0  0  0  0
 16 17  2  0  0  0  0
 16 36  1  0  0  0  0
 17 18  1  0  0  0  0
 17 43  1  0  0  0  0
 18 19  2  0  0  0  0
 18 37  1  0  0  0  0
 19 38  1  0  0  0  0
 20 21  1  0  0  0  0
 20 39  1  0  0  0  0
 20 40  1  0  0  0  0
 21 41  1  0  0  0  0
 21 42  1  0  0  0  0
M  CHG  1  17   1
M  END
> <s_m_source_file>
AV-unprocessed.smi

> <i_m_source_file_index>
1929

> <i_lp_mmshare_version>
43012

> <i_f3d_flags>
0

> <s_epik_input>
W0NIM11bTkhdQyg9TylbQ0gyXU4xW0NIMl1bQ0gyXVtDSF0oW0NIMl1bQ0gyXTEpW05IXUMoPU8pW05IXWMyW2NIXVtjSF1uW2NIXVtjSF0y

> <s_epik_cmdline>
J2VwaWtfcHl0aG9uJywgJy1waCcsICc3LjAnLCAnLXRuJywgJzgnLCAnLW1hJywgJzIwMCcsICctbWV0YWxfYmluZGluZycsICctaW1hZScsICc8aW5maWxlLm1hZT4nLCAnLW9tYWUnLCAnPG91dGZpbGUubWFlPic=

> <r_epik_Ionization_Penalty>
1.15133

> <r_epik_Ionization_Penalty_Charging>
0.995513

> <r_epik_Ionization_Penalty_Neutral>
0.155816

> <r_epik_State_Penalty>
1.22166

> <r_epik_Charging_Adjusted_Penalty>
2.21717

> <i_epik_Tot_Q>
1

> <i_epik_Tot_abs_Q>
1

> <r_epik_Metal_State_Penalty>
1.32497

> <b_epik_Metal_Only>
0

> <s_lp_Force_Field>
OPLS_2005

> <r_lp_Energy>
25.1405

> <b_lp_Chiralities_Consistent>
1

> <s_lp_Variant>
AV-unprocessed.smi:1929-4

> <Gold.Version>
5.8.1

> <Gold.Id.Protein>
6NUR|6NUR_protein|mol2

> <Gold.PLP.Fitness>
48.4900

> <Gold.PLP.PLP>
-34.7261

> <Gold.PLP.part.hbond>
-4.0000

> <Gold.PLP.part.metal>
0.0000

> <Gold.PLP.part.buried>
-5.6101

> <Gold.PLP.part.nonpolar>
-25.5994

> <Gold.PLP.part.repulsive>
0.2576

> <Gold.PLP.ligand.clash>
0.0000

> <Gold.PLP.ligand.torsion>
0.4171

> <Gold.PLP.Chemscore.Hbond>
4.8640

> <Gold.PLP.Chemscore.CHOScore>
0.0000

> <Gold.PLP.Chemscore.Metal>
0.0000

> <Gold.Chemscore.Hbonds>
donor molecule, donor type, donor heavy atom, donor atom, acceptor molecule, acceptor atom, score
      L1  H    10    33       P1 10747  1.00
      L1  H    13    34       P1 10747  1.00
      L1  H    17    43       P1 10186  2.00
      P1  H  6896  6908       L1     4  0.96

> <Gold.PLP.Chemscore.Internal.Correction>
0.0060

> <Gold.Rescore>
     Score         DG    S(hbond)    S(metal)    S(lipo)     H(rot)  DE(clash)    DE(int)     intcor
     20.26     -22.23       3.61        0.00      77.13       1.69       0.01       1.96       ----

> <Gold.Chemscore.Fitness>
20.2592

> <Gold.Chemscore.DG>
-22.2309

> <Gold.Chemscore.ZeroCoef>
-5.4800

> <Gold.Chemscore.Hbond>
3.6074

> <Gold.Chemscore.Metal>
0.0000

> <Gold.Chemscore.Lipo>
77.1308

> <Gold.Chemscore.Internal_Hbond>
0.0000

> <Gold.Chemscore.DEClash>
0.0143

> <Gold.Chemscore.DEInternal>
1.9574

> <Gold.Chemscore.Rot>
1.6883

> <Gold.Chemscore.Internal.Correction>
   9.000000E+99

> <Gold.Chemscore.Hbonds>
donor molecule, donor type, donor heavy atom, donor atom, acceptor molecule, acceptor atom, score
      L1  H    10    33       P1 10747  0.48
      L1  H    13    34       P1 10747  0.99
      L1  H    17    43       P1 10186  0.96
      P1  H  6896  6908       L1     4  0.92

> <Gold.Chemscore.Hbond.Weighted>
-12.0487

> <Gold.Chemscore.Metal.Weighted>
-0.0000

> <Gold.Chemscore.Lipo.Weighted>
-9.0243

> <Gold.Chemscore.Internal_Hbond.Weighted>
0.0000

> <Gold.Chemscore.DEClash.Weighted>
0.0143

> <Gold.Chemscore.DEInternal.Weighted>
1.9574

> <Gold.Chemscore.Rot.Weighted>
4.3221

> <Gold.Chemscore.Internal.Correction.Weighted>
   9.000000E+99

> <Gold.Protein.RotatedTorsions>
[ 6907 6896 6895 6894 ] final   37.18 input  -60.11 | X-H torsion
[ 7974 7965 7964 7962 ] final  -87.20 input  175.53 | X-H torsion
[ 8008 7997 7996 7995 ] final  -74.97 input   59.86 | X-H torsion
[ 10167 10162 10161 10158 ] final  -56.02 input  -65.29 | X-H torsion
[ 10718 10713 10712 10709 ] final   71.18 input   66.30 | X-H torsion
[ 10763 10752 10751 10750 ] final  -51.27 input  -60.55 | X-H torsion
[ 11005 11000 10999 10996 ] final   40.65 input  -57.11 | X-H torsion

> <Gold.Protein.ActiveResidues>
 VAL166  LYS551  ARG553  GLY616  TRP617  ASP618  TYR619  PRO620  LYS621  CYS622 
 ASP623  PHE694  ASN695  SER759  ASP760  ASP761  ALA762  ILE779  LEU786  VAL792 
 PHE793  MET794  SER795  GLU796  ALA797  LYS798  CYS799  TRP800  GLU811  SER814 

> <Gold.Protein.RotatedAtoms>
  152.1397  134.9072  160.0554 H   0  0  0  0  0  0  0  0  0  0  0  0  # atno 6907 bound_to 6896
  152.0145  133.3869  159.4241 H   0  0  0  0  0  0  0  0  0  0  0  0  # atno 6908 bound_to 6896
  150.6864  134.3616  159.4996 H   0  0  0  0  0  0  0  0  0  0  0  0  # atno 6909 bound_to 6896
  145.4697  140.9560  143.1924 H   0  0  0  0  0  0  0  0  0  0  0  0  # atno 7974 bound_to 7965
  154.5376  140.0752  156.8455 H   0  0  0  0  0  0  0  0  0  0  0  0  # atno 8008 bound_to 7997
  155.3245  140.3398  155.4222 H   0  0  0  0  0  0  0  0  0  0  0  0  # atno 8009 bound_to 7997
  156.1844  140.1663  156.8200 H   0  0  0  0  0  0  0  0  0  0  0  0  # atno 8010 bound_to 7997
  140.6341  143.2473  151.5163 H   0  0  0  0  0  0  0  0  0  0  0  0  # atno 10167 bound_to 10162
  157.6438  130.9515  150.0753 H   0  0  0  0  0  0  0  0  0  0  0  0  # atno 10718 bound_to 10713
  154.1239  135.6530  153.4908 H   0  0  0  0  0  0  0  0  0  0  0  0  # atno 10763 bound_to 10752
  153.0216  135.5277  154.7069 H   0  0  0  0  0  0  0  0  0  0  0  0  # atno 10764 bound_to 10752
  154.6284  135.2973  155.0215 H   0  0  0  0  0  0  0  0  0  0  0  0  # atno 10765 bound_to 10752
  140.1910  134.3986  155.8146 H   0  0  0  0  0  0  0  0  0  0  0  0  # atno 11005 bound_to 11000
  144.7953  139.6247  143.7095 LP  0  0  0  0  0  0  0  0  0  0  0  0  # atno 17320 bound_to 7965
  146.2404  139.5989  142.9495 LP  0  0  0  0  0  0  0  0  0  0  0  0  # atno 17321 bound_to 7965
  139.5553  144.2292  152.1601 LP  0  0  0  0  0  0  0  0  0  0  0  0  # atno 17342 bound_to 10162
  140.1543  144.5085  150.6669 LP  0  0  0  0  0  0  0  0  0  0  0  0  # atno 17343 bound_to 10162
  156.1745  130.3647  149.9119 LP  0  0  0  0  0  0  0  0  0  0  0  0  # atno 17370 bound_to 10713
  156.7087  130.8961  151.3607 LP  0  0  0  0  0  0  0  0  0  0  0  0  # atno 17371 bound_to 10713
  141.2226  133.7046  156.8096 LP  0  0  0  0  0  0  0  0  0  0  0  0  # atno 17394 bound_to 11000
  140.2159  134.8793  157.3325 LP  0  0  0  0  0  0  0  0  0  0  0  0  # atno 17395 bound_to 11000

$$$$
