AV-unprocessed.smi:2889|AV-procd|sdf|11114|dock1
  -GOLD-   2272015583D 1   1.00000     0.00000
 Structure written by MMmdl.
 35 36  0  0  0  0  0  0  0  0  2 V2000
  153.4339  142.6921  162.7745 C   0  0  0  0  0  0  0  0  0  0  0  0
  153.7492  142.0313  161.1135 S   0  0  0  0  0  0  0  0  0  0  0  0
  153.1103  143.3729  160.0527 C   0  0  2  0  0  0  0  0  0  0  0  0
  152.1275  144.2758  160.8478 C   0  0  0  0  0  0  0  0  0  0  0  0
  151.6139  145.4742  160.0225 C   0  0  0  0  0  0  0  0  0  0  0  0
  151.0043  144.9725  158.6977 C   0  0  0  0  0  0  0  0  0  0  0  0
  151.9755  144.0657  157.8977 C   0  0  0  0  0  0  0  0  0  0  0  0
  152.5233  142.8590  158.7032 C   0  0  2  0  0  0  0  0  0  0  0  0
  151.4584  141.8906  158.9352 N   0  5  0  0  0  0  0  0  0  0  0  0
  151.3945  140.5309  158.0553 S   0  0  0  0  0  0  0  0  0  0  0  0
  152.7241  139.9516  157.8000 O   0  0  0  0  0  0  0  0  0  0  0  0
  150.3450  139.6145  158.5301 O   0  0  0  0  0  0  0  0  0  0  0  0
  150.7896  141.1955  156.4416 C   0  0  0  0  0  0  0  0  0  0  0  0
  150.4611  140.0739  155.4946 C   0  0  0  0  0  0  0  0  0  0  0  0
  149.1870  139.5194  155.1899 C   0  0  0  0  0  0  0  0  0  0  0  0
  149.4731  138.5423  154.2810 C   0  0  0  0  0  0  0  0  0  0  0  0
  150.8060  138.4999  154.0320 O   0  0  0  0  0  0  0  0  0  0  0  0
  151.4280  139.4852  154.8069 N   0  0  0  0  0  0  0  0  0  0  0  0
  153.7267  141.9607  163.5274 H   0  0  0  0  0  0  0  0  0  0  0  0
  152.3744  142.9131  162.9029 H   0  0  0  0  0  0  0  0  0  0  0  0
  154.0054  143.6041  162.9460 H   0  0  0  0  0  0  0  0  0  0  0  0
  153.9720  143.9976  159.8143 H   0  0  0  0  0  0  0  0  0  0  0  0
  151.2775  143.6905  161.2045 H   0  0  0  0  0  0  0  0  0  0  0  0
  152.6237  144.6501  161.7435 H   0  0  0  0  0  0  0  0  0  0  0  0
  150.8753  146.0394  160.5914 H   0  0  0  0  0  0  0  0  0  0  0  0
  152.4390  146.1555  159.8122 H   0  0  0  0  0  0  0  0  0  0  0  0
  150.0754  144.4373  158.9051 H   0  0  0  0  0  0  0  0  0  0  0  0
  150.7205  145.8277  158.0841 H   0  0  0  0  0  0  0  0  0  0  0  0
  151.4903  143.7238  156.9829 H   0  0  0  0  0  0  0  0  0  0  0  0
  152.8201  144.6734  157.5709 H   0  0  0  0  0  0  0  0  0  0  0  0
  153.3379  142.4121  158.1321 H   0  0  0  0  0  0  0  0  0  0  0  0
  149.8976  141.7870  156.6442 H   0  0  0  0  0  0  0  0  0  0  0  0
  151.5436  141.8702  156.0356 H   0  0  0  0  0  0  0  0  0  0  0  0
  148.2194  139.7907  155.5847 H   0  0  0  0  0  0  0  0  0  0  0  0
  148.8666  137.8286  153.7437 H   0  0  0  0  0  0  0  0  0  0  0  0
  1  2  1  0  0  0  0
  1 19  1  0  0  0  0
  1 20  1  0  0  0  0
  1 21  1  0  0  0  0
  2  3  1  0  0  0  0
  3  8  1  0  0  0  0
  3  4  1  0  0  0  0
  3 22  1  0  0  0  0
  4  5  1  0  0  0  0
  4 23  1  0  0  0  0
  4 24  1  0  0  0  0
  5  6  1  0  0  0  0
  5 25  1  0  0  0  0
  5 26  1  0  0  0  0
  6  7  1  0  0  0  0
  6 27  1  0  0  0  0
  6 28  1  0  0  0  0
  7  8  1  0  0  0  0
  7 29  1  0  0  0  0
  7 30  1  0  0  0  0
  8  9  1  0  0  0  0
  8 31  1  0  0  0  0
  9 10  1  0  0  0  0
 10 11  2  0  0  0  0
 10 12  2  0  0  0  0
 10 13  1  0  0  0  0
 13 14  1  0  0  0  0
 13 32  1  0  0  0  0
 13 33  1  0  0  0  0
 14 18  2  0  0  0  0
 14 15  1  0  0  0  0
 15 16  2  0  0  0  0
 15 34  1  0  0  0  0
 16 17  1  0  0  0  0
 16 35  1  0  0  0  0
 17 18  1  0  0  0  0
M  CHG  1   9  -1
M  END
> <s_m_source_file>
AV-unprocessed.smi

> <i_m_source_file_index>
2889

> <i_lp_mmshare_version>
43012

> <i_f3d_flags>
0

> <s_epik_input>
W0NIM11TW0NAQEhdMVtDSDJdW0NIMl1bQ0gyXVtDSDJdW0NASF0xW05IXVMoPU8pKD1PKVtDSDJdYzJbY0hdW2NIXW9uMg==

> <s_epik_cmdline>
J2VwaWtfcHl0aG9uJywgJy1waCcsICc3LjAnLCAnLXRuJywgJzgnLCAnLW1hJywgJzIwMCcsICctbWV0YWxfYmluZGluZycsICctaW1hZScsICc8aW5maWxlLm1hZT4nLCAnLW9tYWUnLCAnPG91dGZpbGUubWFlPic=

> <r_lp_tautomer_probability>
1

> <r_epik_Ionization_Penalty>
4.65467

> <r_epik_Ionization_Penalty_Charging>
4.65467

> <r_epik_Ionization_Penalty_Neutral>
2.71476e-10

> <r_epik_State_Penalty>
4.65444

> <r_epik_Charging_Adjusted_Penalty>
9.30911

> <i_epik_Tot_Q>
-1

> <i_epik_Tot_abs_Q>
1

> <r_epik_Metal_State_Penalty>
0.901484

> <b_epik_Metal_Only>
1

> <s_lp_Force_Field>
OPLS_2005

> <r_lp_Energy>
12.0464

> <b_lp_Chiralities_Consistent>
1

> <s_lp_Variant>
AV-unprocessed.smi:2889-7

> <Gold.Version>
5.8.1

> <Gold.Id.Protein>
6NUR|6NUR_protein|mol2

> <Gold.PLP.Fitness>
51.6386

> <Gold.PLP.PLP>
-44.7114

> <Gold.PLP.part.hbond>
-2.0000

> <Gold.PLP.part.metal>
0.0000

> <Gold.PLP.part.buried>
-5.6759

> <Gold.PLP.part.nonpolar>
-37.8979

> <Gold.PLP.part.repulsive>
0.3082

> <Gold.PLP.ligand.clash>
0.0000

> <Gold.PLP.ligand.torsion>
1.5888

> <Gold.PLP.Chemscore.Hbond>
2.0000

> <Gold.PLP.Chemscore.CHOScore>
1.0000

> <Gold.PLP.Chemscore.Metal>
0.0000

> <Gold.Chemscore.Hbonds>
donor molecule, donor type, donor heavy atom, donor atom, acceptor molecule, acceptor atom, score
      P1  H  7989  7998       L1    18  0.85
      P1  H  7997  8009       L1    11  1.00
      L1  C    16    35       P1  7948  1.00

> <Gold.PLP.Chemscore.Internal.Correction>
1.1047

> <Gold.Rescore>
     Score         DG    S(hbond)    S(metal)    S(lipo)     H(rot)  DE(clash)    DE(int)     intcor
     19.80     -20.94       1.63        0.00     119.26       1.53       0.12       1.02       ----

> <Gold.Chemscore.Fitness>
19.7972

> <Gold.Chemscore.DG>
-20.9427

> <Gold.Chemscore.ZeroCoef>
-5.4800

> <Gold.Chemscore.Hbond>
1.6256

> <Gold.Chemscore.Metal>
0.0000

> <Gold.Chemscore.Lipo>
119.2609

> <Gold.Chemscore.Internal_Hbond>
0.0000

> <Gold.Chemscore.DEClash>
0.1250

> <Gold.Chemscore.DEInternal>
1.0206

> <Gold.Chemscore.Rot>
1.5314

> <Gold.Chemscore.Internal.Correction>
   9.000000E+99

> <Gold.Chemscore.Hbonds>
donor molecule, donor type, donor heavy atom, donor atom, acceptor molecule, acceptor atom, score
      P1  H  7989  7998       L1    18  0.04
      P1  H  7997  8009       L1    11  0.96

> <Gold.Chemscore.Hbond.Weighted>
-5.4297

> <Gold.Chemscore.Metal.Weighted>
-0.0000

> <Gold.Chemscore.Lipo.Weighted>
-13.9535

> <Gold.Chemscore.Internal_Hbond.Weighted>
0.0000

> <Gold.Chemscore.DEClash.Weighted>
0.1250

> <Gold.Chemscore.DEInternal.Weighted>
1.0206

> <Gold.Chemscore.Rot.Weighted>
3.9205

> <Gold.Chemscore.Internal.Correction.Weighted>
   9.000000E+99

> <Gold.Protein.RotatedTorsions>
[ 6907 6896 6895 6894 ] final   31.90 input  -60.11 | X-H torsion
[ 7974 7965 7964 7962 ] final  -13.39 input  175.53 | X-H torsion
[ 8008 7997 7996 7995 ] final  173.64 input   59.86 | X-H torsion
[ 10167 10162 10161 10158 ] final -106.28 input  -65.29 | X-H torsion
[ 10718 10713 10712 10709 ] final   65.34 input   66.30 | X-H torsion
[ 10763 10752 10751 10750 ] final  156.97 input  -60.55 | X-H torsion
[ 11005 11000 10999 10996 ] final   11.88 input  -57.11 | X-H torsion

> <Gold.Protein.ActiveResidues>
 VAL166  LYS551  ARG553  GLY616  TRP617  ASP618  TYR619  PRO620  LYS621  CYS622 
 ASP623  PHE694  ASN695  SER759  ASP760  ASP761  ALA762  ILE779  LEU786  VAL792 
 PHE793  MET794  SER795  GLU796  ALA797  LYS798  CYS799  TRP800  GLU811  SER814 

> <Gold.Protein.RotatedAtoms>
  152.0669  134.9558  160.0574 H   0  0  0  0  0  0  0  0  0  0  0  0  # atno 6907 bound_to 6896
  152.0900  133.4191  159.4547 H   0  0  0  0  0  0  0  0  0  0  0  0  # atno 6908 bound_to 6896
  150.6837  134.2802  159.4668 H   0  0  0  0  0  0  0  0  0  0  0  0  # atno 6909 bound_to 6896
  146.2116  140.3196  142.8389 H   0  0  0  0  0  0  0  0  0  0  0  0  # atno 7974 bound_to 7965
  156.1055  140.1455  156.9409 H   0  0  0  0  0  0  0  0  0  0  0  0  # atno 8008 bound_to 7997
  154.4731  140.0903  156.7239 H   0  0  0  0  0  0  0  0  0  0  0  0  # atno 8009 bound_to 7997
  155.4686  140.3441  155.4325 H   0  0  0  0  0  0  0  0  0  0  0  0  # atno 8010 bound_to 7997
  140.1895  143.3903  152.1218 H   0  0  0  0  0  0  0  0  0  0  0  0  # atno 10167 bound_to 10162
  157.6099  130.9209  149.9964 H   0  0  0  0  0  0  0  0  0  0  0  0  # atno 10718 bound_to 10713
  154.1928  135.2794  155.3016 H   0  0  0  0  0  0  0  0  0  0  0  0  # atno 10763 bound_to 10752
  154.5915  135.5558  153.7287 H   0  0  0  0  0  0  0  0  0  0  0  0  # atno 10764 bound_to 10752
  153.0108  135.6369  154.2067 H   0  0  0  0  0  0  0  0  0  0  0  0  # atno 10765 bound_to 10752
  140.4982  134.0772  155.7787 H   0  0  0  0  0  0  0  0  0  0  0  0  # atno 11005 bound_to 11000
  144.8930  140.7547  143.5915 LP  0  0  0  0  0  0  0  0  0  0  0  0  # atno 17320 bound_to 7965
  145.3119  139.1816  143.4634 LP  0  0  0  0  0  0  0  0  0  0  0  0  # atno 17321 bound_to 7965
  139.5262  144.7105  151.5221 LP  0  0  0  0  0  0  0  0  0  0  0  0  # atno 17342 bound_to 10162
  140.6466  143.8783  150.6743 LP  0  0  0  0  0  0  0  0  0  0  0  0  # atno 17343 bound_to 10162
  156.1198  130.3646  149.9906 LP  0  0  0  0  0  0  0  0  0  0  0  0  # atno 17370 bound_to 10713
  156.7988  130.9283  151.3646 LP  0  0  0  0  0  0  0  0  0  0  0  0  # atno 17371 bound_to 10713
  141.1449  133.9073  157.2239 LP  0  0  0  0  0  0  0  0  0  0  0  0  # atno 17394 bound_to 11000
  139.9729  135.0123  156.9557 LP  0  0  0  0  0  0  0  0  0  0  0  0  # atno 17395 bound_to 11000

$$$$
