AV-unprocessed.smi:1093|AV-procd|sdf|4745|dock10
  -GOLD-   22720 3283D 1   1.00000     0.00000
 Structure written by MMmdl.
 47 48  0  0  0  0  0  0  0  0  2 V2000
  145.8580  136.9499  155.1858 C   0  0  0  0  0  0  0  0  0  0  0  0
  144.9056  137.9357  154.4935 C   0  0  0  0  0  0  0  0  0  0  0  0
  145.6239  139.0488  153.8227 N   0  3  2  0  0  0  0  0  0  0  0  0
  146.4441  138.5744  152.6776 C   0  0  0  0  0  0  0  0  0  0  0  0
  147.0703  139.7529  151.9137 C   0  0  0  0  0  0  0  0  0  0  0  0
  147.9038  140.6362  152.8506 C   0  0  0  0  0  0  0  0  0  0  0  0
  147.0447  141.0959  154.0383 C   0  0  2  0  0  0  0  0  0  0  0  0
  147.8525  141.8923  154.9572 N   0  0  0  0  0  0  0  0  0  0  0  0
  148.7847  141.4010  155.7862 C   0  0  0  0  0  0  0  0  0  0  0  0
  149.0789  140.2071  155.8423 O   0  0  0  0  0  0  0  0  0  0  0  0
  149.3571  142.3771  156.5106 N   0  0  0  0  0  0  0  0  0  0  0  0
  150.3369  142.2540  157.5319 C   0  0  0  0  0  0  0  0  0  0  0  0
  151.1475  141.1113  157.7204 C   0  0  0  0  0  0  0  0  0  0  0  0
  152.0665  141.0937  158.7871 C   0  0  0  0  0  0  0  0  0  0  0  0
  152.1541  142.2160  159.6483 C   0  0  0  0  0  0  0  0  0  0  0  0
  153.0605  142.2454  160.7329 N   0  0  0  0  0  0  0  0  0  0  0  0
  152.7710  143.0566  161.9088 C   0  0  0  0  0  0  0  0  0  0  0  0
  154.2564  141.4098  160.7025 C   0  0  0  0  0  0  0  0  0  0  0  0
  151.3656  143.3037  159.4671 N   0  0  0  0  0  0  0  0  0  0  0  0
  150.4838  143.3151  158.4461 C   0  0  0  0  0  0  0  0  0  0  0  0
  146.4256  139.8803  154.7602 C   0  0  0  0  0  0  0  0  0  0  0  0
  145.2940  136.2069  155.7501 H   0  0  0  0  0  0  0  0  0  0  0  0
  146.5171  137.4642  155.8857 H   0  0  0  0  0  0  0  0  0  0  0  0
  146.4790  136.4078  154.4734 H   0  0  0  0  0  0  0  0  0  0  0  0
  144.2659  137.4166  153.7784 H   0  0  0  0  0  0  0  0  0  0  0  0
  144.2442  138.3463  155.2575 H   0  0  0  0  0  0  0  0  0  0  0  0
  147.2246  137.9037  153.0409 H   0  0  0  0  0  0  0  0  0  0  0  0
  145.8232  137.9961  151.9924 H   0  0  0  0  0  0  0  0  0  0  0  0
  147.6937  139.3807  151.1002 H   0  0  0  0  0  0  0  0  0  0  0  0
  146.2828  140.3498  151.4511 H   0  0  0  0  0  0  0  0  0  0  0  0
  148.7696  140.0763  153.2077 H   0  0  0  0  0  0  0  0  0  0  0  0
  148.2906  141.4978  152.3049 H   0  0  0  0  0  0  0  0  0  0  0  0
  146.2391  141.7221  153.6492 H   0  0  0  0  0  0  0  0  0  0  0  0
  147.6797  142.8869  154.9732 H   0  0  0  0  0  0  0  0  0  0  0  0
  149.0887  143.3228  156.2803 H   0  0  0  0  0  0  0  0  0  0  0  0
  151.0719  140.2452  157.0813 H   0  0  0  0  0  0  0  0  0  0  0  0
  152.6810  140.2172  158.9248 H   0  0  0  0  0  0  0  0  0  0  0  0
  151.8434  142.7311  162.3804 H   0  0  0  0  0  0  0  0  0  0  0  0
  152.6748  144.1075  161.6347 H   0  0  0  0  0  0  0  0  0  0  0  0
  153.5661  142.9795  162.6506 H   0  0  0  0  0  0  0  0  0  0  0  0
  153.9838  140.3568  160.6258 H   0  0  0  0  0  0  0  0  0  0  0  0
  154.8525  141.5350  161.6064 H   0  0  0  0  0  0  0  0  0  0  0  0
  154.8856  141.6685  159.8500 H   0  0  0  0  0  0  0  0  0  0  0  0
  149.8788  144.2055  158.3556 H   0  0  0  0  0  0  0  0  0  0  0  0
  145.7941  140.2325  155.5751 H   0  0  0  0  0  0  0  0  0  0  0  0
  147.2082  139.2674  155.2111 H   0  0  0  0  0  0  0  0  0  0  0  0
  144.9141  139.6507  153.4298 H   0  0  0  0  0  0  0  0  0  0  0  0
  1  2  1  0  0  0  0
  1 22  1  0  0  0  0
  1 23  1  0  0  0  0
  1 24  1  0  0  0  0
  2  3  1  0  0  0  0
  2 25  1  0  0  0  0
  2 26  1  0  0  0  0
  3 21  1  0  0  0  0
  3  4  1  0  0  0  0
  3 47  1  0  0  0  0
  4  5  1  0  0  0  0
  4 27  1  0  0  0  0
  4 28  1  0  0  0  0
  5  6  1  0  0  0  0
  5 29  1  0  0  0  0
  5 30  1  0  0  0  0
  6  7  1  0  0  0  0
  6 31  1  0  0  0  0
  6 32  1  0  0  0  0
  7  8  1  0  0  0  0
  7 21  1  0  0  0  0
  7 33  1  0  0  0  0
  8  9  1  0  0  0  0
  8 34  1  0  0  0  0
  9 10  2  0  0  0  0
  9 11  1  0  0  0  0
 11 12  1  0  0  0  0
 11 35  1  0  0  0  0
 12 20  1  0  0  0  0
 12 13  2  0  0  0  0
 13 14  1  0  0  0  0
 13 36  1  0  0  0  0
 14 15  2  0  0  0  0
 14 37  1  0  0  0  0
 15 16  1  0  0  0  0
 15 19  1  0  0  0  0
 16 17  1  0  0  0  0
 16 18  1  0  0  0  0
 17 38  1  0  0  0  0
 17 39  1  0  0  0  0
 17 40  1  0  0  0  0
 18 41  1  0  0  0  0
 18 42  1  0  0  0  0
 18 43  1  0  0  0  0
 19 20  2  0  0  0  0
 20 44  1  0  0  0  0
 21 45  1  0  0  0  0
 21 46  1  0  0  0  0
M  CHG  1   3   1
M  END
> <s_m_source_file>
AV-unprocessed.smi

> <i_m_source_file_index>
1093

> <i_lp_mmshare_version>
43012

> <i_f3d_flags>
0

> <s_epik_input>
W0NIM11bQ0gyXU4xW0NIMl1bQ0gyXVtDSDJdW0NASF0oW0NIMl0xKVtOSF1DKD1PKVtOSF1jMltjSF1bY0hdYyhOKFtDSDNdKVtDSDNdKW5bY0hdMg==

> <s_epik_cmdline>
J2VwaWtfcHl0aG9uJywgJy1waCcsICc3LjAnLCAnLXRuJywgJzgnLCAnLW1hJywgJzIwMCcsICctbWV0YWxfYmluZGluZycsICctaW1hZScsICc8aW5maWxlLm1hZT4nLCAnLW9tYWUnLCAnPG91dGZpbGUubWFlPic=

> <r_lp_tautomer_probability>
1

> <r_epik_Ionization_Penalty>
0.489418

> <r_epik_Ionization_Penalty_Charging>
0.00268196

> <r_epik_Ionization_Penalty_Neutral>
0.486736

> <r_epik_State_Penalty>
0.491157

> <r_epik_Charging_Adjusted_Penalty>
0.493839

> <i_epik_Tot_Q>
1

> <i_epik_Tot_abs_Q>
1

> <r_epik_Metal_State_Penalty>
0.266953

> <b_epik_Metal_Only>
0

> <s_lp_Force_Field>
OPLS_2005

> <r_lp_Energy>
20.183

> <b_lp_Chiralities_Consistent>
1

> <s_lp_Variant>
AV-unprocessed.smi:1093-8

> <Gold.Version>
5.8.1

> <Gold.Id.Protein>
6NUR|6NUR_protein|mol2

> <Gold.PLP.Fitness>
44.3727

> <Gold.PLP.PLP>
-34.3373

> <Gold.PLP.part.hbond>
-2.8922

> <Gold.PLP.part.metal>
0.0000

> <Gold.PLP.part.buried>
2.7116

> <Gold.PLP.part.nonpolar>
-34.4966

> <Gold.PLP.part.repulsive>
0.2406

> <Gold.PLP.ligand.clash>
0.0000

> <Gold.PLP.ligand.torsion>
0.5050

> <Gold.PLP.Chemscore.Hbond>
3.3295

> <Gold.PLP.Chemscore.CHOScore>
0.3444

> <Gold.PLP.Chemscore.Metal>
0.0000

> <Gold.Chemscore.Hbonds>
donor molecule, donor type, donor heavy atom, donor atom, acceptor molecule, acceptor atom, score
      L1  H     3    47       P1 10175  2.00
      L1  H     8    34       P1  8028  0.30
      L1  H    11    35       P1  8028  1.00
      L1  C    20    44       P1  8028  0.06
      L1  C    20    44       P1  8029  0.18

> <Gold.PLP.Chemscore.Internal.Correction>
0.0237

> <Gold.Rescore>
     Score         DG    S(hbond)    S(metal)    S(lipo)     H(rot)  DE(clash)    DE(int)     intcor
     15.85     -22.57       2.89        0.00      89.42       1.18       3.59       3.13       ----

> <Gold.Chemscore.Fitness>
15.8512

> <Gold.Chemscore.DG>
-22.5706

> <Gold.Chemscore.ZeroCoef>
-5.4800

> <Gold.Chemscore.Hbond>
2.8923

> <Gold.Chemscore.Metal>
0.0000

> <Gold.Chemscore.Lipo>
89.4171

> <Gold.Chemscore.Internal_Hbond>
0.0000

> <Gold.Chemscore.DEClash>
3.5940

> <Gold.Chemscore.DEInternal>
3.1253

> <Gold.Chemscore.Rot>
1.1842

> <Gold.Chemscore.Internal.Correction>
   9.000000E+99

> <Gold.Chemscore.Hbonds>
donor molecule, donor type, donor heavy atom, donor atom, acceptor molecule, acceptor atom, score
      L1  H     3    47       P1 10175  1.00
      L1  H     8    34       P1  8028  0.21
      L1  H    11    35       P1  8028  0.94

> <Gold.Chemscore.Hbond.Weighted>
-9.6604

> <Gold.Chemscore.Metal.Weighted>
-0.0000

> <Gold.Chemscore.Lipo.Weighted>
-10.4618

> <Gold.Chemscore.Internal_Hbond.Weighted>
0.0000

> <Gold.Chemscore.DEClash.Weighted>
3.5940

> <Gold.Chemscore.DEInternal.Weighted>
3.1253

> <Gold.Chemscore.Rot.Weighted>
3.0317

> <Gold.Chemscore.Internal.Correction.Weighted>
   9.000000E+99

> <Gold.Protein.RotatedTorsions>
[ 6907 6896 6895 6894 ] final -118.59 input  -60.11 | X-H torsion
[ 7974 7965 7964 7962 ] final   55.26 input  175.53 | X-H torsion
[ 8008 7997 7996 7995 ] final  152.38 input   59.86 | X-H torsion
[ 10167 10162 10161 10158 ] final  103.05 input  -65.29 | X-H torsion
[ 10718 10713 10712 10709 ] final  -29.51 input   66.30 | X-H torsion
[ 10763 10752 10751 10750 ] final   81.16 input  -60.55 | X-H torsion
[ 11005 11000 10999 10996 ] final -118.17 input  -57.11 | X-H torsion

> <Gold.Protein.ActiveResidues>
 VAL166  LYS551  ARG553  GLY616  TRP617  ASP618  TYR619  PRO620  LYS621  CYS622 
 ASP623  PHE694  ASN695  SER759  ASP760  ASP761  ALA762  ILE779  LEU786  VAL792 
 PHE793  MET794  SER795  GLU796  ALA797  LYS798  CYS799  TRP800  GLU811  SER814 

> <Gold.Protein.RotatedAtoms>
  150.8232  133.8216  159.3129 H   0  0  0  0  0  0  0  0  0  0  0  0  # atno 6907 bound_to 6896
  151.5968  135.1048  160.0061 H   0  0  0  0  0  0  0  0  0  0  0  0  # atno 6908 bound_to 6896
  152.4320  133.7253  159.6613 H   0  0  0  0  0  0  0  0  0  0  0  0  # atno 6909 bound_to 6896
  145.9522  139.3983  143.0299 H   0  0  0  0  0  0  0  0  0  0  0  0  # atno 7974 bound_to 7965
  156.2631  140.2022  156.6324 H   0  0  0  0  0  0  0  0  0  0  0  0  # atno 8008 bound_to 7997
  154.6672  140.0554  157.0151 H   0  0  0  0  0  0  0  0  0  0  0  0  # atno 8009 bound_to 7997
  155.1189  140.3223  155.4505 H   0  0  0  0  0  0  0  0  0  0  0  0  # atno 8010 bound_to 7997
  139.7297  144.7039  151.0742 H   0  0  0  0  0  0  0  0  0  0  0  0  # atno 10167 bound_to 10162
  156.4115  130.4409  149.7249 H   0  0  0  0  0  0  0  0  0  0  0  0  # atno 10718 bound_to 10713
  153.1094  135.4775  154.9008 H   0  0  0  0  0  0  0  0  0  0  0  0  # atno 10763 bound_to 10752
  154.7464  135.3095  154.8639 H   0  0  0  0  0  0  0  0  0  0  0  0  # atno 10764 bound_to 10752
  153.9232  135.6852  153.4800 H   0  0  0  0  0  0  0  0  0  0  0  0  # atno 10765 bound_to 10752
  141.0304  133.9990  157.3151 H   0  0  0  0  0  0  0  0  0  0  0  0  # atno 11005 bound_to 11000
  145.8155  140.9705  143.0926 LP  0  0  0  0  0  0  0  0  0  0  0  0  # atno 17320 bound_to 7965
  144.6798  139.9975  143.7484 LP  0  0  0  0  0  0  0  0  0  0  0  0  # atno 17321 bound_to 7965
  140.7769  143.5060  150.9712 LP  0  0  0  0  0  0  0  0  0  0  0  0  # atno 17342 bound_to 10162
  139.8747  143.7147  152.3163 LP  0  0  0  0  0  0  0  0  0  0  0  0  # atno 17343 bound_to 10162
  156.4226  130.7776  151.2793 LP  0  0  0  0  0  0  0  0  0  0  0  0  # atno 17370 bound_to 10713
  157.7507  131.0178  150.3601 LP  0  0  0  0  0  0  0  0  0  0  0  0  # atno 17371 bound_to 10713
  139.9204  135.0200  156.8042 LP  0  0  0  0  0  0  0  0  0  0  0  0  # atno 17394 bound_to 11000
  140.6417  133.9812  155.7711 LP  0  0  0  0  0  0  0  0  0  0  0  0  # atno 17395 bound_to 11000

$$$$
