AV-unprocessed.smi:90|AV-procd|sdf|830|dock10
  -GOLD-   2262017253D 1   1.00000     0.00000
 Structure written by MMmdl.
 64 67  0  0  0  0  0  0  0  0  2 V2000
  148.7010  133.8815  154.1520 C   0  0  0  0  0  0  0  0  0  0  0  0
  148.5380  132.4383  153.9994 N   0  0  0  0  0  0  0  0  0  0  0  0
  147.5849  131.9770  152.9917 C   0  0  0  0  0  0  0  0  0  0  0  0
  146.4437  132.9844  152.7508 C   0  0  0  0  0  0  0  0  0  0  0  0
  146.1087  133.2008  151.2515 C   0  0  1  0  0  0  0  0  0  0  0  0
  145.8280  131.8872  150.4857 C   0  0  0  0  0  0  0  0  0  0  0  0
  144.4838  131.2612  150.8896 C   0  0  0  0  0  0  0  0  0  0  0  0
  143.3516  132.2816  150.7101 C   0  0  0  0  0  0  0  0  0  0  0  0
  143.6568  133.5952  151.4495 C   0  0  0  0  0  0  0  0  0  0  0  0
  144.9721  134.1445  151.0311 N   0  3  1  0  0  0  0  0  0  0  0  0
  145.2067  135.5221  151.5216 C   0  0  0  0  0  0  0  0  0  0  0  0
  149.6199  131.6472  154.2358 C   0  0  0  0  0  0  0  0  0  0  0  0
  149.7577  130.4862  153.5402 N   0  0  0  0  0  0  0  0  0  0  0  0
  150.7945  129.6760  153.7687 C   0  0  0  0  0  0  0  0  0  0  0  0
  151.7989  129.8325  154.6310 N   0  0  0  0  0  0  0  0  0  0  0  0
  151.6820  131.0014  155.3221 C   0  0  0  0  0  0  0  0  0  0  0  0
  150.6315  131.9554  155.1928 C   0  0  0  0  0  0  0  0  0  0  0  0
  150.8561  133.0163  156.0628 N   0  0  0  0  0  0  0  0  0  0  0  0
  151.9643  132.7033  156.6753 C   0  0  0  0  0  0  0  0  0  0  0  0
  152.5392  131.5169  156.2800 N   0  0  0  0  0  0  0  0  0  0  0  0
  153.7706  130.9324  156.7948 C   0  0  0  0  0  0  0  0  0  0  0  0
  154.9808  130.9750  155.8134 C   0  0  0  0  0  0  0  0  0  0  0  0
  156.0808  129.9676  156.2540 C   0  0  0  0  0  0  0  0  0  0  0  0
  155.6135  128.6336  156.2598 O   0  0  0  0  0  0  0  0  0  0  0  0
  154.5108  130.6307  154.3765 C   0  0  0  0  0  0  0  0  0  0  0  0
  155.5587  130.9664  153.2984 C   0  0  0  0  0  0  0  0  0  0  0  0
  155.9382  132.3331  153.3896 O   0  0  0  0  0  0  0  0  0  0  0  0
  156.5372  132.6555  154.6376 C   0  0  0  0  0  0  0  0  0  0  0  0
  155.5262  132.4252  155.7741 C   0  0  0  0  0  0  0  0  0  0  0  0
  149.1709  134.1203  155.1070 H   0  0  0  0  0  0  0  0  0  0  0  0
  147.7320  134.3805  154.1259 H   0  0  0  0  0  0  0  0  0  0  0  0
  149.3152  134.2927  153.3500 H   0  0  0  0  0  0  0  0  0  0  0  0
  148.0870  131.7495  152.0538 H   0  0  0  0  0  0  0  0  0  0  0  0
  147.1751  131.0289  153.3384 H   0  0  0  0  0  0  0  0  0  0  0  0
  145.5596  132.6662  153.3020 H   0  0  0  0  0  0  0  0  0  0  0  0
  146.7442  133.9334  153.1927 H   0  0  0  0  0  0  0  0  0  0  0  0
  146.9850  133.6579  150.7897 H   0  0  0  0  0  0  0  0  0  0  0  0
  145.8074  132.1001  149.4159 H   0  0  0  0  0  0  0  0  0  0  0  0
  146.6345  131.1679  150.6228 H   0  0  0  0  0  0  0  0  0  0  0  0
  144.2871  130.3758  150.2844 H   0  0  0  0  0  0  0  0  0  0  0  0
  144.5211  130.9230  151.9253 H   0  0  0  0  0  0  0  0  0  0  0  0
  143.2156  132.4879  149.6477 H   0  0  0  0  0  0  0  0  0  0  0  0
  142.4101  131.8619  151.0654 H   0  0  0  0  0  0  0  0  0  0  0  0
  142.8739  134.3207  151.2253 H   0  0  0  0  0  0  0  0  0  0  0  0
  143.6366  133.4422  152.5290 H   0  0  0  0  0  0  0  0  0  0  0  0
  145.1606  135.5784  152.6093 H   0  0  0  0  0  0  0  0  0  0  0  0
  144.4482  136.1964  151.1232 H   0  0  0  0  0  0  0  0  0  0  0  0
  146.1795  135.8911  151.1953 H   0  0  0  0  0  0  0  0  0  0  0  0
  150.8230  128.7729  153.1771 H   0  0  0  0  0  0  0  0  0  0  0  0
  152.4002  133.3388  157.4325 H   0  0  0  0  0  0  0  0  0  0  0  0
  154.0197  131.4592  157.7170 H   0  0  0  0  0  0  0  0  0  0  0  0
  153.5607  129.9053  157.0955 H   0  0  0  0  0  0  0  0  0  0  0  0
  156.9486  130.0280  155.5971 H   0  0  0  0  0  0  0  0  0  0  0  0
  156.4500  130.1851  157.2547 H   0  0  0  0  0  0  0  0  0  0  0  0
  155.7283  128.2784  157.1278 H   0  0  0  0  0  0  0  0  0  0  0  0
  154.2454  129.5759  154.3004 H   0  0  0  0  0  0  0  0  0  0  0  0
  153.6024  131.1905  154.1497 H   0  0  0  0  0  0  0  0  0  0  0  0
  156.4378  130.3262  153.3772 H   0  0  0  0  0  0  0  0  0  0  0  0
  155.1375  130.7906  152.3085 H   0  0  0  0  0  0  0  0  0  0  0  0
  157.4479  132.0739  154.7845 H   0  0  0  0  0  0  0  0  0  0  0  0
  156.8374  133.7032  154.6169 H   0  0  0  0  0  0  0  0  0  0  0  0
  154.6976  133.1198  155.6289 H   0  0  0  0  0  0  0  0  0  0  0  0
  155.9740  132.6985  156.7299 H   0  0  0  0  0  0  0  0  0  0  0  0
  144.9093  134.2373  150.0272 H   0  0  0  0  0  0  0  0  0  0  0  0
  1  2  1  0  0  0  0
  1 30  1  0  0  0  0
  1 31  1  0  0  0  0
  1 32  1  0  0  0  0
  2  3  1  0  0  0  0
  2 12  1  0  0  0  0
  3  4  1  0  0  0  0
  3 33  1  0  0  0  0
  3 34  1  0  0  0  0
  4  5  1  0  0  0  0
  4 35  1  0  0  0  0
  4 36  1  0  0  0  0
  5 10  1  0  0  0  0
  5  6  1  0  0  0  0
  5 37  1  0  0  0  0
  6  7  1  0  0  0  0
  6 38  1  0  0  0  0
  6 39  1  0  0  0  0
  7  8  1  0  0  0  0
  7 40  1  0  0  0  0
  7 41  1  0  0  0  0
  8  9  1  0  0  0  0
  8 42  1  0  0  0  0
  8 43  1  0  0  0  0
  9 10  1  0  0  0  0
  9 44  1  0  0  0  0
  9 45  1  0  0  0  0
 10 11  1  0  0  0  0
 10 64  1  0  0  0  0
 11 46  1  0  0  0  0
 11 47  1  0  0  0  0
 11 48  1  0  0  0  0
 12 17  1  0  0  0  0
 12 13  2  0  0  0  0
 13 14  1  0  0  0  0
 14 15  2  0  0  0  0
 14 49  1  0  0  0  0
 15 16  1  0  0  0  0
 16 20  1  0  0  0  0
 16 17  2  0  0  0  0
 17 18  1  0  0  0  0
 18 19  2  0  0  0  0
 19 20  1  0  0  0  0
 19 50  1  0  0  0  0
 20 21  1  0  0  0  0
 21 22  1  0  0  0  0
 21 51  1  0  0  0  0
 21 52  1  0  0  0  0
 22 29  1  0  0  0  0
 22 23  1  0  0  0  0
 22 25  1  0  0  0  0
 23 24  1  0  0  0  0
 23 53  1  0  0  0  0
 23 54  1  0  0  0  0
 24 55  1  0  0  0  0
 25 26  1  0  0  0  0
 25 56  1  0  0  0  0
 25 57  1  0  0  0  0
 26 27  1  0  0  0  0
 26 58  1  0  0  0  0
 26 59  1  0  0  0  0
 27 28  1  0  0  0  0
 28 29  1  0  0  0  0
 28 60  1  0  0  0  0
 28 61  1  0  0  0  0
 29 62  1  0  0  0  0
 29 63  1  0  0  0  0
M  CHG  1  10   1
M  END
> <s_m_source_file>
AV-unprocessed.smi

> <i_m_source_file_index>
90

> <i_lp_mmshare_version>
43012

> <i_f3d_flags>
0

> <s_epik_input>
W0NIM11OMVtDSDJdW0NIMl1bQ0gyXVtDSDJdW0NASF0xW0NIMl1bQ0gyXU4oW0NIM10pYyhuW2NIXW4yKWMoYzIzKW5bY0hdbjNbQ0gyXUM0KFtDSDJdW09IXSlbQ0gyXVtDSDJdT1tDSDJdW0NIMl00

> <s_epik_cmdline>
J2VwaWtfcHl0aG9uJywgJy1waCcsICc3LjAnLCAnLXRuJywgJzgnLCAnLW1hJywgJzIwMCcsICctbWV0YWxfYmluZGluZycsICctaW1hZScsICc8aW5maWxlLm1hZT4nLCAnLW9tYWUnLCAnPG91dGZpbGUubWFlPic=

> <r_lp_tautomer_probability>
1

> <r_epik_Ionization_Penalty>
0.00234895

> <r_epik_Ionization_Penalty_Charging>
0.00106647

> <r_epik_Ionization_Penalty_Neutral>
0.00128248

> <r_epik_State_Penalty>
-0

> <r_epik_Charging_Adjusted_Penalty>
0.00106647

> <i_epik_Tot_Q>
1

> <i_epik_Tot_abs_Q>
1

> <r_epik_Metal_State_Penalty>
-0

> <b_epik_Metal_Only>
0

> <s_lp_Force_Field>
OPLS_2005

> <r_lp_Energy>
42.9862

> <b_lp_Chiralities_Consistent>
1

> <s_lp_Variant>
AV-unprocessed.smi:90-2

> <Gold.Version>
5.8.1

> <Gold.Id.Protein>
6NUR|6NUR_protein|mol2

> <Gold.PLP.Fitness>
48.9208

> <Gold.PLP.PLP>
-45.4454

> <Gold.PLP.part.hbond>
-1.0000

> <Gold.PLP.part.metal>
0.0000

> <Gold.PLP.part.buried>
-0.9870

> <Gold.PLP.part.nonpolar>
-41.6978

> <Gold.PLP.part.repulsive>
0.2518

> <Gold.PLP.ligand.clash>
0.0000

> <Gold.PLP.ligand.torsion>
1.0760

> <Gold.PLP.Chemscore.Hbond>
1.0000

> <Gold.PLP.Chemscore.CHOScore>
0.6236

> <Gold.PLP.Chemscore.Metal>
0.0000

> <Gold.Chemscore.Hbonds>
donor molecule, donor type, donor heavy atom, donor atom, acceptor molecule, acceptor atom, score
      L1  C    14    49       P1 10737  1.00

> <Gold.PLP.Chemscore.Internal.Correction>
0.7567

> <Gold.Rescore>
     Score         DG    S(hbond)    S(metal)    S(lipo)     H(rot)  DE(clash)    DE(int)     intcor
     10.14     -12.47       0.64        0.00     101.33       2.73       0.49       1.83       ----

> <Gold.Chemscore.Fitness>
10.1389

> <Gold.Chemscore.DG>
-12.4664

> <Gold.Chemscore.ZeroCoef>
-5.4800

> <Gold.Chemscore.Hbond>
0.6382

> <Gold.Chemscore.Metal>
0.0000

> <Gold.Chemscore.Lipo>
101.3318

> <Gold.Chemscore.Internal_Hbond>
0.0000

> <Gold.Chemscore.DEClash>
0.4941

> <Gold.Chemscore.DEInternal>
1.8334

> <Gold.Chemscore.Rot>
2.7347

> <Gold.Chemscore.Internal.Correction>
   9.000000E+99

> <Gold.Chemscore.Hbond.Weighted>
-2.1315

> <Gold.Chemscore.Metal.Weighted>
-0.0000

> <Gold.Chemscore.Lipo.Weighted>
-11.8558

> <Gold.Chemscore.Internal_Hbond.Weighted>
0.0000

> <Gold.Chemscore.DEClash.Weighted>
0.4941

> <Gold.Chemscore.DEInternal.Weighted>
1.8334

> <Gold.Chemscore.Rot.Weighted>
7.0009

> <Gold.Chemscore.Internal.Correction.Weighted>
   9.000000E+99

> <Gold.Protein.RotatedTorsions>
[ 6907 6896 6895 6894 ] final  -22.10 input  -60.11 | X-H torsion
[ 7974 7965 7964 7962 ] final   89.93 input  175.53 | X-H torsion
[ 8008 7997 7996 7995 ] final    1.67 input   59.86 | X-H torsion
[ 10167 10162 10161 10158 ] final   70.51 input  -65.29 | X-H torsion
[ 10718 10713 10712 10709 ] final -110.64 input   66.30 | X-H torsion
[ 10763 10752 10751 10750 ] final   41.48 input  -60.55 | X-H torsion
[ 11005 11000 10999 10996 ] final  -88.07 input  -57.11 | X-H torsion

> <Gold.Protein.ActiveResidues>
 VAL166  LYS551  ARG553  GLY616  TRP617  ASP618  TYR619  PRO620  LYS621  CYS622 
 ASP623  PHE694  ASN695  SER759  ASP760  ASP761  ALA762  ILE779  LEU786  VAL792 
 PHE793  MET794  SER795  GLU796  ALA797  LYS798  CYS799  TRP800  GLU811  SER814 

> <Gold.Protein.RotatedAtoms>
  151.2236  135.0528  159.8959 H   0  0  0  0  0  0  0  0  0  0  0  0  # atno 6907 bound_to 6896
  152.5413  134.0613  159.8164 H   0  0  0  0  0  0  0  0  0  0  0  0  # atno 6908 bound_to 6896
  151.0783  133.5362  159.2654 H   0  0  0  0  0  0  0  0  0  0  0  0  # atno 6909 bound_to 6896
  145.5258  139.2281  143.2646 H   0  0  0  0  0  0  0  0  0  0  0  0  # atno 7974 bound_to 7965
  154.6825  140.2636  155.6893 H   0  0  0  0  0  0  0  0  0  0  0  0  # atno 8008 bound_to 7997
  156.2702  140.2807  156.1298 H   0  0  0  0  0  0  0  0  0  0  0  0  # atno 8009 bound_to 7997
  155.1011  140.0374  157.2687 H   0  0  0  0  0  0  0  0  0  0  0  0  # atno 8010 bound_to 7997
  140.0562  144.5271  150.7327 H   0  0  0  0  0  0  0  0  0  0  0  0  # atno 10167 bound_to 10162
  156.0602  130.5826  150.8265 H   0  0  0  0  0  0  0  0  0  0  0  0  # atno 10718 bound_to 10713
  152.9907  135.6160  154.2794 H   0  0  0  0  0  0  0  0  0  0  0  0  # atno 10763 bound_to 10752
  154.2524  135.2785  155.2813 H   0  0  0  0  0  0  0  0  0  0  0  0  # atno 10764 bound_to 10752
  154.5276  135.5797  153.6790 H   0  0  0  0  0  0  0  0  0  0  0  0  # atno 10765 bound_to 10752
  141.1607  133.7548  156.9398 H   0  0  0  0  0  0  0  0  0  0  0  0  # atno 11005 bound_to 11000
  146.2076  140.6072  142.9074 LP  0  0  0  0  0  0  0  0  0  0  0  0  # atno 17320 bound_to 7965
  144.7652  140.5513  143.6708 LP  0  0  0  0  0  0  0  0  0  0  0  0  # atno 17321 bound_to 7965
  140.7193  143.2574  151.4330 LP  0  0  0  0  0  0  0  0  0  0  0  0  # atno 17342 bound_to 10162
  139.5922  144.1474  152.2102 LP  0  0  0  0  0  0  0  0  0  0  0  0  # atno 17343 bound_to 10162
  157.5605  131.0946  150.9566 LP  0  0  0  0  0  0  0  0  0  0  0  0  # atno 17370 bound_to 10713
  156.9805  130.5525  149.5296 LP  0  0  0  0  0  0  0  0  0  0  0  0  # atno 17371 bound_to 10713
  140.1329  134.9344  157.2362 LP  0  0  0  0  0  0  0  0  0  0  0  0  # atno 17394 bound_to 11000
  140.2930  134.3218  155.7310 LP  0  0  0  0  0  0  0  0  0  0  0  0  # atno 17395 bound_to 11000

$$$$
