AV-unprocessed.smi:2644|AV-procd|sdf|10277|dock6
  -GOLD-   2272014293D 1   1.00000     0.00000
 Structure written by MMmdl.
 42 44  0  0  0  0  0  0  0  0  1 V2000
  146.9209  139.0035  153.0377 C   0  0  0  0  0  0  0  0  0  0  0  0
  147.3454  140.1689  153.7297 O   0  0  0  0  0  0  0  0  0  0  0  0
  148.5721  140.1378  154.3572 C   0  0  0  0  0  0  0  0  0  0  0  0
  148.9742  141.3038  155.0394 C   0  0  0  0  0  0  0  0  0  0  0  0
  150.2216  141.3637  155.6883 C   0  0  0  0  0  0  0  0  0  0  0  0
  151.0844  140.2531  155.6598 C   0  0  0  0  0  0  0  0  0  0  0  0
  150.6976  139.0738  154.9887 C   0  0  0  0  0  0  0  0  0  0  0  0
  151.6476  137.8853  154.8948 C   0  0  2  0  0  0  0  0  0  0  0  0
  151.1325  136.7293  155.5241 O   0  0  0  0  0  0  0  0  0  0  0  0
  153.0412  138.1921  155.4929 C   0  0  0  0  0  0  0  0  0  0  0  0
  153.0412  138.1615  156.9620 N   0  0  0  0  0  0  0  0  0  0  0  0
  152.8901  139.4034  157.5539 N   0  0  0  0  0  0  0  0  0  0  0  0
  152.9687  139.5491  158.8358 C   0  0  0  0  0  0  0  0  0  0  0  0
  152.8607  140.9062  159.3401 C   0  0  0  0  0  0  0  0  0  0  0  0
  153.3820  141.2599  160.5597 C   0  0  0  0  0  0  0  0  0  0  0  0
  153.1732  142.6430  160.8431 C   0  0  0  0  0  0  0  0  0  0  0  0
  152.5087  143.3127  159.8445 C   0  0  0  0  0  0  0  0  0  0  0  0
  152.1290  144.7542  159.8105 C   0  0  0  0  0  0  0  0  0  0  0  0
  152.1181  142.2515  158.5138 S   0  0  0  0  0  0  0  0  0  0  0  0
  153.1671  138.3769  159.6761 C   0  0  0  0  0  0  0  0  0  0  0  0
  153.2999  137.1656  159.0935 C   0  0  0  0  0  0  0  0  0  0  0  0
  153.2543  136.9981  157.6425 C   0  0  0  0  0  0  0  0  0  0  0  0
  153.4112  135.9134  157.0827 O   0  0  0  0  0  0  0  0  0  0  0  0
  149.4415  139.0186  154.3465 C   0  0  0  0  0  0  0  0  0  0  0  0
  145.9582  139.1961  152.5646 H   0  0  0  0  0  0  0  0  0  0  0  0
  146.7907  138.1611  153.7184 H   0  0  0  0  0  0  0  0  0  0  0  0
  147.6253  138.7283  152.2511 H   0  0  0  0  0  0  0  0  0  0  0  0
  148.3227  142.1651  155.0583 H   0  0  0  0  0  0  0  0  0  0  0  0
  150.5207  142.2668  156.1994 H   0  0  0  0  0  0  0  0  0  0  0  0
  152.0488  140.3152  156.1424 H   0  0  0  0  0  0  0  0  0  0  0  0
  151.7677  137.6302  153.8413 H   0  0  0  0  0  0  0  0  0  0  0  0
  150.6497  136.2306  154.8828 H   0  0  0  0  0  0  0  0  0  0  0  0
  153.7631  137.4621  155.1210 H   0  0  0  0  0  0  0  0  0  0  0  0
  153.4014  139.1583  155.1348 H   0  0  0  0  0  0  0  0  0  0  0  0
  153.8934  140.6156  161.2584 H   0  0  0  0  0  0  0  0  0  0  0  0
  153.5158  143.0955  161.7621 H   0  0  0  0  0  0  0  0  0  0  0  0
  152.3629  145.2448  160.7557 H   0  0  0  0  0  0  0  0  0  0  0  0
  151.0605  144.8690  159.6279 H   0  0  0  0  0  0  0  0  0  0  0  0
  152.6657  145.2762  159.0181 H   0  0  0  0  0  0  0  0  0  0  0  0
  153.2109  138.4596  160.7505 H   0  0  0  0  0  0  0  0  0  0  0  0
  153.4482  136.2953  159.7158 H   0  0  0  0  0  0  0  0  0  0  0  0
  149.1753  138.1111  153.8262 H   0  0  0  0  0  0  0  0  0  0  0  0
  1  2  1  0  0  0  0
  1 25  1  0  0  0  0
  1 26  1  0  0  0  0
  1 27  1  0  0  0  0
  2  3  1  0  0  0  0
  3 24  1  0  0  0  0
  3  4  2  0  0  0  0
  4  5  1  0  0  0  0
  4 28  1  0  0  0  0
  5  6  2  0  0  0  0
  5 29  1  0  0  0  0
  6  7  1  0  0  0  0
  6 30  1  0  0  0  0
  7  8  1  0  0  0  0
  7 24  2  0  0  0  0
  8  9  1  0  0  0  0
  8 10  1  0  0  0  0
  8 31  1  0  0  0  0
  9 32  1  0  0  0  0
 10 11  1  0  0  0  0
 10 33  1  0  0  0  0
 10 34  1  0  0  0  0
 11 22  1  0  0  0  0
 11 12  1  0  0  0  0
 12 13  2  0  0  0  0
 13 14  1  0  0  0  0
 13 20  1  0  0  0  0
 14 19  1  0  0  0  0
 14 15  2  0  0  0  0
 15 16  1  0  0  0  0
 15 35  1  0  0  0  0
 16 17  2  0  0  0  0
 16 36  1  0  0  0  0
 17 18  1  0  0  0  0
 17 19  1  0  0  0  0
 18 37  1  0  0  0  0
 18 38  1  0  0  0  0
 18 39  1  0  0  0  0
 20 21  2  0  0  0  0
 20 40  1  0  0  0  0
 21 22  1  0  0  0  0
 21 41  1  0  0  0  0
 22 23  2  0  0  0  0
 24 42  1  0  0  0  0
M  END
> <s_m_source_file>
AV-unprocessed.smi

> <i_m_source_file_index>
2644

> <i_lp_mmshare_version>
43012

> <i_f3d_flags>
0

> <s_epik_input>
W0NIM11PYzFbY0hdW2NIXVtjSF1jKFtjSF0xKVtDQEhdKFtPSF0pW0NIMl1uMm5jKFtjSF1bY0hdYzI9TyktYzNbY0hdW2NIXWMoczMpW0NIM10=

> <s_epik_cmdline>
J2VwaWtfcHl0aG9uJywgJy1waCcsICc3LjAnLCAnLXRuJywgJzgnLCAnLW1hJywgJzIwMCcsICctbWV0YWxfYmluZGluZycsICctaW1hZScsICc8aW5maWxlLm1hZT4nLCAnLW9tYWUnLCAnPG91dGZpbGUubWFlPic=

> <r_lp_tautomer_probability>
1

> <r_epik_Ionization_Penalty>
1.30631e-07

> <r_epik_Ionization_Penalty_Charging>
5.89185e-08

> <r_epik_Ionization_Penalty_Neutral>
7.1713e-08

> <r_epik_State_Penalty>
-0

> <r_epik_Charging_Adjusted_Penalty>
5.89185e-08

> <i_epik_Tot_Q>
0

> <i_epik_Tot_abs_Q>
0

> <r_epik_Metal_State_Penalty>
-0

> <b_epik_Metal_Only>
0

> <s_lp_Force_Field>
OPLS_2005

> <r_lp_Energy>
28.4714

> <b_lp_Chiralities_Consistent>
1

> <s_lp_Variant>
AV-unprocessed.smi:2644-1

> <Gold.Version>
5.8.1

> <Gold.Id.Protein>
6NUR|6NUR_protein|mol2

> <Gold.PLP.Fitness>
54.8294

> <Gold.PLP.PLP>
-50.8222

> <Gold.PLP.part.hbond>
-2.0885

> <Gold.PLP.part.metal>
0.0000

> <Gold.PLP.part.buried>
-2.9752

> <Gold.PLP.part.nonpolar>
-45.6448

> <Gold.PLP.part.repulsive>
0.1666

> <Gold.PLP.ligand.clash>
0.0000

> <Gold.PLP.ligand.torsion>
0.7296

> <Gold.PLP.Chemscore.Hbond>
1.8000

> <Gold.PLP.Chemscore.CHOScore>
0.0000

> <Gold.PLP.Chemscore.Metal>
0.0000

> <Gold.Chemscore.Hbonds>
donor molecule, donor type, donor heavy atom, donor atom, acceptor molecule, acceptor atom, score
      P1  H  7997  8009       L1    12  0.75
      P1  H 10752 10765       L1    23  1.00

> <Gold.PLP.Chemscore.Internal.Correction>
0.0664

> <Gold.Rescore>
     Score         DG    S(hbond)    S(metal)    S(lipo)     H(rot)  DE(clash)    DE(int)     intcor
     18.37     -20.67       1.02        0.00     144.04       1.98       0.11       2.18       ----

> <Gold.Chemscore.Fitness>
18.3721

> <Gold.Chemscore.DG>
-20.6686

> <Gold.Chemscore.ZeroCoef>
-5.4800

> <Gold.Chemscore.Hbond>
1.0174

> <Gold.Chemscore.Metal>
0.0000

> <Gold.Chemscore.Lipo>
144.0445

> <Gold.Chemscore.Internal_Hbond>
0.0000

> <Gold.Chemscore.DEClash>
0.1138

> <Gold.Chemscore.DEInternal>
2.1827

> <Gold.Chemscore.Rot>
1.9777

> <Gold.Chemscore.Internal.Correction>
   9.000000E+99

> <Gold.Chemscore.Hbonds>
donor molecule, donor type, donor heavy atom, donor atom, acceptor molecule, acceptor atom, score
      P1  H  7997  8009       L1    12  0.03
      P1  H 10752 10765       L1    23  1.00

> <Gold.Chemscore.Hbond.Weighted>
-3.3983

> <Gold.Chemscore.Metal.Weighted>
-0.0000

> <Gold.Chemscore.Lipo.Weighted>
-16.8532

> <Gold.Chemscore.Internal_Hbond.Weighted>
0.0000

> <Gold.Chemscore.DEClash.Weighted>
0.1138

> <Gold.Chemscore.DEInternal.Weighted>
2.1827

> <Gold.Chemscore.Rot.Weighted>
5.0629

> <Gold.Chemscore.Internal.Correction.Weighted>
   9.000000E+99

> <Gold.Protein.RotatedTorsions>
[ 6907 6896 6895 6894 ] final  -44.86 input  -60.11 | X-H torsion
[ 7974 7965 7964 7962 ] final  -24.97 input  175.53 | X-H torsion
[ 8008 7997 7996 7995 ] final  154.52 input   59.86 | X-H torsion
[ 10167 10162 10161 10158 ] final  -84.21 input  -65.29 | X-H torsion
[ 10718 10713 10712 10709 ] final  174.13 input   66.30 | X-H torsion
[ 10763 10752 10751 10750 ] final -111.24 input  -60.55 | X-H torsion
[ 11005 11000 10999 10996 ] final -159.44 input  -57.11 | X-H torsion

> <Gold.Protein.ActiveResidues>
 VAL166  LYS551  ARG553  GLY616  TRP617  ASP618  TYR619  PRO620  LYS621  CYS622 
 ASP623  PHE694  ASN695  SER759  ASP760  ASP761  ALA762  ILE779  LEU786  VAL792 
 PHE793  MET794  SER795  GLU796  ALA797  LYS798  CYS799  TRP800  GLU811  SER814 

> <Gold.Protein.RotatedAtoms>
  150.9282  134.8698  159.7533 H   0  0  0  0  0  0  0  0  0  0  0  0  # atno 6907 bound_to 6896
  152.5025  134.4117  159.9461 H   0  0  0  0  0  0  0  0  0  0  0  0  # atno 6908 bound_to 6896
  151.4146  133.3677  159.2783 H   0  0  0  0  0  0  0  0  0  0  0  0  # atno 6909 bound_to 6896
  146.1521  140.4823  142.8607 H   0  0  0  0  0  0  0  0  0  0  0  0  # atno 7974 bound_to 7965
  156.2527  140.1964  156.6659 H   0  0  0  0  0  0  0  0  0  0  0  0  # atno 8008 bound_to 7997
  154.6429  140.0581  156.9892 H   0  0  0  0  0  0  0  0  0  0  0  0  # atno 8009 bound_to 7997
  155.1534  140.3253  155.4429 H   0  0  0  0  0  0  0  0  0  0  0  0  # atno 8010 bound_to 7997
  140.4153  143.2606  151.8962 H   0  0  0  0  0  0  0  0  0  0  0  0  # atno 10167 bound_to 10162
  156.9541  131.0040  151.2942 H   0  0  0  0  0  0  0  0  0  0  0  0  # atno 10718 bound_to 10713
  154.8290  135.4535  154.1008 H   0  0  0  0  0  0  0  0  0  0  0  0  # atno 10763 bound_to 10752
  153.2298  135.6904  153.7910 H   0  0  0  0  0  0  0  0  0  0  0  0  # atno 10764 bound_to 10752
  153.7296  135.3329  155.3259 H   0  0  0  0  0  0  0  0  0  0  0  0  # atno 10765 bound_to 10752
  140.6425  134.4536  157.5233 H   0  0  0  0  0  0  0  0  0  0  0  0  # atno 11005 bound_to 11000
  144.7917  140.6044  143.6537 LP  0  0  0  0  0  0  0  0  0  0  0  0  # atno 17320 bound_to 7965
  145.4798  139.1496  143.3768 LP  0  0  0  0  0  0  0  0  0  0  0  0  # atno 17321 bound_to 7965
  139.4782  144.5494  151.8409 LP  0  0  0  0  0  0  0  0  0  0  0  0  # atno 17342 bound_to 10162
  140.4593  144.1745  150.5904 LP  0  0  0  0  0  0  0  0  0  0  0  0  # atno 17343 bound_to 10162
  157.5702  130.8305  149.8381 LP  0  0  0  0  0  0  0  0  0  0  0  0  # atno 17370 bound_to 10713
  156.0350  130.3754  150.1584 LP  0  0  0  0  0  0  0  0  0  0  0  0  # atno 17371 bound_to 10713
  139.9075  134.8417  156.1651 LP  0  0  0  0  0  0  0  0  0  0  0  0  # atno 17394 bound_to 11000
  141.0596  133.6848  156.1927 LP  0  0  0  0  0  0  0  0  0  0  0  0  # atno 17395 bound_to 11000

$$$$
