AV-unprocessed.smi:2962|AV-procd|sdf|11317|dock3
  -GOLD-   2272016223D 1   1.00000     0.00000
 Structure written by MMmdl.
 37 38  0  0  0  0  0  0  0  0  2 V2000
  152.3350  138.5065  154.7113 C   0  0  0  0  0  0  0  0  0  0  0  0
  152.7665  139.3840  155.7359 O   0  0  0  0  0  0  0  0  0  0  0  0
  152.3480  138.9642  157.0244 C   0  0  0  0  0  0  0  0  0  0  0  0
  150.9291  139.4832  157.2962 C   0  0  0  0  0  0  0  0  0  0  0  0
  150.8475  140.9485  157.2140 N   0  0  0  0  0  0  0  0  0  0  0  0
  150.1359  141.7563  156.3778 C   0  0  0  0  0  0  0  0  0  0  0  0
  149.0240  141.2543  155.1046 S   0  0  0  0  0  0  0  0  0  0  0  0
  147.4332  142.0380  155.5050 C   0  0  2  0  0  0  0  0  0  0  0  0
  146.8390  141.4174  156.7783 C   0  0  0  0  0  0  0  0  0  0  0  0
  146.4461  141.9533  154.3345 C   0  0  0  0  0  0  0  0  0  0  0  0
  146.0895  140.7331  153.9246 N   0  0  0  0  0  0  0  0  0  0  0  0
  145.9939  142.9735  153.8185 O   0  0  0  0  0  0  0  0  0  0  0  0
  150.4291  143.0460  156.6973 N   0  3  0  0  0  0  0  0  0  0  0  0
  151.3397  143.0680  157.7546 C   0  0  0  0  0  0  0  0  0  0  0  0
  151.9315  144.1339  158.4253 C   0  0  0  0  0  0  0  0  0  0  0  0
  152.8282  143.8083  159.4642 C   0  0  0  0  0  0  0  0  0  0  0  0
  153.1064  142.4677  159.8013 C   0  0  0  0  0  0  0  0  0  0  0  0
  152.5000  141.3949  159.1149 C   0  0  0  0  0  0  0  0  0  0  0  0
  151.6140  141.7250  158.0901 C   0  0  0  0  0  0  0  0  0  0  0  0
  152.6928  138.8663  153.7466 H   0  0  0  0  0  0  0  0  0  0  0  0
  151.2463  138.4560  154.6689 H   0  0  0  0  0  0  0  0  0  0  0  0
  152.7271  137.4998  154.8622 H   0  0  0  0  0  0  0  0  0  0  0  0
  152.3605  137.8752  157.0878 H   0  0  0  0  0  0  0  0  0  0  0  0
  153.0382  139.3426  157.7801 H   0  0  0  0  0  0  0  0  0  0  0  0
  150.2398  139.0655  156.5639 H   0  0  0  0  0  0  0  0  0  0  0  0
  150.5722  139.1625  158.2753 H   0  0  0  0  0  0  0  0  0  0  0  0
  147.6330  143.0903  155.7090 H   0  0  0  0  0  0  0  0  0  0  0  0
  145.8779  141.8683  157.0291 H   0  0  0  0  0  0  0  0  0  0  0  0
  147.5031  141.5694  157.6297 H   0  0  0  0  0  0  0  0  0  0  0  0
  146.6855  140.3428  156.6679 H   0  0  0  0  0  0  0  0  0  0  0  0
  145.4277  140.6263  153.1696 H   0  0  0  0  0  0  0  0  0  0  0  0
  146.4705  139.9193  154.3857 H   0  0  0  0  0  0  0  0  0  0  0  0
  151.7218  145.1617  158.1679 H   0  0  0  0  0  0  0  0  0  0  0  0
  153.3136  144.6029  160.0124 H   0  0  0  0  0  0  0  0  0  0  0  0
  153.8004  142.2574  160.6023 H   0  0  0  0  0  0  0  0  0  0  0  0
  152.7218  140.3715  159.3791 H   0  0  0  0  0  0  0  0  0  0  0  0
  150.0315  143.8486  156.2261 H   0  0  0  0  0  0  0  0  0  0  0  0
  1  2  1  0  0  0  0
  1 20  1  0  0  0  0
  1 21  1  0  0  0  0
  1 22  1  0  0  0  0
  2  3  1  0  0  0  0
  3  4  1  0  0  0  0
  3 23  1  0  0  0  0
  3 24  1  0  0  0  0
  4  5  1  0  0  0  0
  4 25  1  0  0  0  0
  4 26  1  0  0  0  0
  5 19  1  0  0  0  0
  5  6  1  0  0  0  0
  6  7  1  0  0  0  0
  6 13  2  0  0  0  0
  7  8  1  0  0  0  0
  8  9  1  0  0  0  0
  8 10  1  0  0  0  0
  8 27  1  0  0  0  0
  9 28  1  0  0  0  0
  9 29  1  0  0  0  0
  9 30  1  0  0  0  0
 10 11  1  0  0  0  0
 10 12  2  0  0  0  0
 11 31  1  0  0  0  0
 11 32  1  0  0  0  0
 13 14  1  0  0  0  0
 13 37  1  0  0  0  0
 14 19  2  0  0  0  0
 14 15  1  0  0  0  0
 15 16  2  0  0  0  0
 15 33  1  0  0  0  0
 16 17  1  0  0  0  0
 16 34  1  0  0  0  0
 17 18  2  0  0  0  0
 17 35  1  0  0  0  0
 18 19  1  0  0  0  0
 18 36  1  0  0  0  0
M  CHG  1  13   1
M  END
> <s_m_source_file>
AV-unprocessed.smi

> <i_m_source_file_index>
2962

> <i_lp_mmshare_version>
43012

> <i_f3d_flags>
0

> <s_epik_input>
W2NIXTFbY0hdW2NIXVtjSF1jKGMxMiluKFtDSDJdW0NIMl1PW0NIM10pYyhuMilTW0NASF0oW0NIM10pQyg9TylbTkgyXQ==

> <s_epik_cmdline>
J2VwaWtfcHl0aG9uJywgJy1waCcsICc3LjAnLCAnLXRuJywgJzgnLCAnLW1hJywgJzIwMCcsICctbWV0YWxfYmluZGluZycsICctaW1hZScsICc8aW5maWxlLm1hZT4nLCAnLW9tYWUnLCAnPG91dGZpbGUubWFlPic=

> <r_epik_Ionization_Penalty>
2.01771

> <r_epik_Ionization_Penalty_Charging>
2.01771

> <r_epik_Ionization_Penalty_Neutral>
3.318e-07

> <r_epik_State_Penalty>
2.14773

> <r_epik_Charging_Adjusted_Penalty>
4.16544

> <i_epik_Tot_Q>
1

> <i_epik_Tot_abs_Q>
1

> <r_epik_Metal_State_Penalty>
2.1675

> <b_epik_Metal_Only>
0

> <s_lp_Force_Field>
OPLS_2005

> <r_lp_Energy>
8.01651

> <b_lp_Chiralities_Consistent>
1

> <s_lp_Variant>
AV-unprocessed.smi:2962-3

> <Gold.Version>
5.8.1

> <Gold.Id.Protein>
6NUR|6NUR_protein|mol2

> <Gold.PLP.Fitness>
52.5624

> <Gold.PLP.PLP>
-40.8483

> <Gold.PLP.part.hbond>
-2.9345

> <Gold.PLP.part.metal>
0.0000

> <Gold.PLP.part.buried>
-5.6490

> <Gold.PLP.part.nonpolar>
-33.8916

> <Gold.PLP.part.repulsive>
0.2552

> <Gold.PLP.ligand.clash>
0.0000

> <Gold.PLP.ligand.torsion>
0.2198

> <Gold.PLP.Chemscore.Hbond>
3.9920

> <Gold.PLP.Chemscore.CHOScore>
0.0000

> <Gold.PLP.Chemscore.Metal>
0.0000

> <Gold.Chemscore.Hbonds>
donor molecule, donor type, donor heavy atom, donor atom, acceptor molecule, acceptor atom, score
      L1  H    11    31       P1 10175  1.00
      L1  H    13    37       P1  8028  2.00
      P1  H  7997  8008       L1     2  1.00

> <Gold.PLP.Chemscore.Internal.Correction>
0.1778

> <Gold.Rescore>
     Score         DG    S(hbond)    S(metal)    S(lipo)     H(rot)  DE(clash)    DE(int)     intcor
     19.55     -19.82       2.85        0.00      97.59       2.57       0.01       0.25       ----

> <Gold.Chemscore.Fitness>
19.5534

> <Gold.Chemscore.DG>
-19.8193

> <Gold.Chemscore.ZeroCoef>
-5.4800

> <Gold.Chemscore.Hbond>
2.8462

> <Gold.Chemscore.Metal>
0.0000

> <Gold.Chemscore.Lipo>
97.5887

> <Gold.Chemscore.Internal_Hbond>
0.0000

> <Gold.Chemscore.DEClash>
0.0149

> <Gold.Chemscore.DEInternal>
0.2511

> <Gold.Chemscore.Rot>
2.5723

> <Gold.Chemscore.Internal.Correction>
   9.000000E+99

> <Gold.Chemscore.Hbonds>
donor molecule, donor type, donor heavy atom, donor atom, acceptor molecule, acceptor atom, score
      L1  H    11    31       P1 10175  0.83
      L1  H    13    37       P1  8028  0.92
      P1  H  7997  8008       L1     2  0.45

> <Gold.Chemscore.Hbond.Weighted>
-9.5064

> <Gold.Chemscore.Metal.Weighted>
-0.0000

> <Gold.Chemscore.Lipo.Weighted>
-11.4179

> <Gold.Chemscore.Internal_Hbond.Weighted>
0.0000

> <Gold.Chemscore.DEClash.Weighted>
0.0149

> <Gold.Chemscore.DEInternal.Weighted>
0.2511

> <Gold.Chemscore.Rot.Weighted>
6.5850

> <Gold.Chemscore.Internal.Correction.Weighted>
   9.000000E+99

> <Gold.Protein.RotatedTorsions>
[ 6907 6896 6895 6894 ] final -108.79 input  -60.11 | X-H torsion
[ 7974 7965 7964 7962 ] final  160.22 input  175.53 | X-H torsion
[ 8008 7997 7996 7995 ] final  -23.38 input   59.86 | X-H torsion
[ 10167 10162 10161 10158 ] final   -5.83 input  -65.29 | X-H torsion
[ 10718 10713 10712 10709 ] final  174.60 input   66.30 | X-H torsion
[ 10763 10752 10751 10750 ] final  167.07 input  -60.55 | X-H torsion
[ 11005 11000 10999 10996 ] final  -63.16 input  -57.11 | X-H torsion

> <Gold.Protein.ActiveResidues>
 VAL166  LYS551  ARG553  GLY616  TRP617  ASP618  TYR619  PRO620  LYS621  CYS622 
 ASP623  PHE694  ASN695  SER759  ASP760  ASP761  ALA762  ILE779  LEU786  VAL792 
 PHE793  MET794  SER795  GLU796  ALA797  LYS798  CYS799  TRP800  GLU811  SER814 

> <Gold.Protein.RotatedAtoms>
  150.7523  133.9625  159.3519 H   0  0  0  0  0  0  0  0  0  0  0  0  # atno 6907 bound_to 6896
  151.7552  135.0821  160.0346 H   0  0  0  0  0  0  0  0  0  0  0  0  # atno 6908 bound_to 6896
  152.3440  133.6063  159.5932 H   0  0  0  0  0  0  0  0  0  0  0  0  # atno 6909 bound_to 6896
  144.7748  139.7727  143.6283 H   0  0  0  0  0  0  0  0  0  0  0  0  # atno 7974 bound_to 7965
  154.4589  140.1982  156.0301 H   0  0  0  0  0  0  0  0  0  0  0  0  # atno 8008 bound_to 7997
  156.0801  140.3273  155.7654 H   0  0  0  0  0  0  0  0  0  0  0  0  # atno 8009 bound_to 7997
  155.5126  140.0563  157.2911 H   0  0  0  0  0  0  0  0  0  0  0  0  # atno 8010 bound_to 7997
  140.6976  143.6263  150.8565 H   0  0  0  0  0  0  0  0  0  0  0  0  # atno 10167 bound_to 10162
  156.9472  131.0020  151.2956 H   0  0  0  0  0  0  0  0  0  0  0  0  # atno 10718 bound_to 10713
  154.3484  135.2753  155.2385 H   0  0  0  0  0  0  0  0  0  0  0  0  # atno 10763 bound_to 10752
  154.4625  135.5903  153.6269 H   0  0  0  0  0  0  0  0  0  0  0  0  # atno 10764 bound_to 10752
  152.9852  135.6068  154.3692 H   0  0  0  0  0  0  0  0  0  0  0  0  # atno 10765 bound_to 10752
  141.1384  133.6648  156.5637 H   0  0  0  0  0  0  0  0  0  0  0  0  # atno 11005 bound_to 11000
  146.1920  139.5166  142.9799 LP  0  0  0  0  0  0  0  0  0  0  0  0  # atno 17320 bound_to 7965
  145.6217  141.0321  143.1911 LP  0  0  0  0  0  0  0  0  0  0  0  0  # atno 17321 bound_to 7965
  139.9982  143.5772  152.2885 LP  0  0  0  0  0  0  0  0  0  0  0  0  # atno 17342 bound_to 10162
  139.6452  144.7657  151.2258 LP  0  0  0  0  0  0  0  0  0  0  0  0  # atno 17343 bound_to 10162
  157.5746  130.8334  149.8438 LP  0  0  0  0  0  0  0  0  0  0  0  0  # atno 17370 bound_to 10713
  156.0378  130.3746  150.1513 LP  0  0  0  0  0  0  0  0  0  0  0  0  # atno 17371 bound_to 10713
  140.3967  134.7392  157.4755 LP  0  0  0  0  0  0  0  0  0  0  0  0  # atno 17394 bound_to 11000
  140.0526  134.6109  155.8844 LP  0  0  0  0  0  0  0  0  0  0  0  0  # atno 17395 bound_to 11000

$$$$
