AV-unprocessed.smi:1231|AV-procd|sdf|5163|dock6
  -GOLD-   22720 4233D 1   1.00000     0.00000
 Structure written by MMmdl.
 43 44  0  0  0  0  0  0  0  0  2 V2000
  146.3106  136.8360  151.2365 C   0  0  0  0  0  0  0  0  0  0  0  0
  145.8097  137.7968  152.3203 C   0  0  2  0  0  0  0  0  0  0  0  0
  146.7622  138.9896  152.5184 C   0  0  0  0  0  0  0  0  0  0  0  0
  146.2946  139.8471  153.6316 N   0  3  2  0  0  0  0  0  0  0  0  0
  147.1223  141.0681  153.7913 C   0  0  0  0  0  0  0  0  0  0  0  0
  148.5603  140.7484  154.2450 C   0  0  0  0  0  0  0  0  0  0  0  0
  149.1036  141.8023  155.0942 N   0  0  0  0  0  0  0  0  0  0  0  0
  149.8939  141.5965  156.1579 C   0  0  0  0  0  0  0  0  0  0  0  0
  150.2519  140.4771  156.5262 O   0  0  0  0  0  0  0  0  0  0  0  0
  150.2300  142.7563  156.7495 N   0  0  0  0  0  0  0  0  0  0  0  0
  151.0698  142.9541  157.8779 C   0  0  0  0  0  0  0  0  0  0  0  0
  151.3913  144.3019  158.1559 C   0  0  0  0  0  0  0  0  0  0  0  0
  152.2213  144.6040  159.2530 C   0  0  0  0  0  0  0  0  0  0  0  0
  152.7104  143.5488  160.0436 C   0  0  0  0  0  0  0  0  0  0  0  0
  152.3431  142.2355  159.6975 C   0  0  0  0  0  0  0  0  0  0  0  0
  151.5473  141.9437  158.6468 N   0  0  0  0  0  0  0  0  0  0  0  0
  146.1691  139.0478  154.8756 C   0  0  0  0  0  0  0  0  0  0  0  0
  145.2551  137.8261  154.6598 C   0  0  1  0  0  0  0  0  0  0  0  0
  143.7624  138.1881  154.5600 C   0  0  0  0  0  0  0  0  0  0  0  0
  145.7048  137.0651  153.5387 O   0  0  0  0  0  0  0  0  0  0  0  0
  146.3947  137.3391  150.2730 H   0  0  0  0  0  0  0  0  0  0  0  0
  145.6259  135.9965  151.1141 H   0  0  0  0  0  0  0  0  0  0  0  0
  147.2910  136.4312  151.4898 H   0  0  0  0  0  0  0  0  0  0  0  0
  144.8256  138.1587  152.0218 H   0  0  0  0  0  0  0  0  0  0  0  0
  147.7740  138.6387  152.7295 H   0  0  0  0  0  0  0  0  0  0  0  0
  146.8114  139.5727  151.5978 H   0  0  0  0  0  0  0  0  0  0  0  0
  147.1181  141.6339  152.8585 H   0  0  0  0  0  0  0  0  0  0  0  0
  146.6662  141.7125  154.5444 H   0  0  0  0  0  0  0  0  0  0  0  0
  148.5730  139.8167  154.8110 H   0  0  0  0  0  0  0  0  0  0  0  0
  149.2262  140.6036  153.3940 H   0  0  0  0  0  0  0  0  0  0  0  0
  148.8537  142.7524  154.8614 H   0  0  0  0  0  0  0  0  0  0  0  0
  149.8460  143.5964  156.3430 H   0  0  0  0  0  0  0  0  0  0  0  0
  151.0078  145.1002  157.5374 H   0  0  0  0  0  0  0  0  0  0  0  0
  152.4784  145.6276  159.4825 H   0  0  0  0  0  0  0  0  0  0  0  0
  153.3496  143.7404  160.8927 H   0  0  0  0  0  0  0  0  0  0  0  0
  152.6973  141.3968  160.2784 H   0  0  0  0  0  0  0  0  0  0  0  0
  147.1604  138.7123  155.1846 H   0  0  0  0  0  0  0  0  0  0  0  0
  145.7768  139.6535  155.6918 H   0  0  0  0  0  0  0  0  0  0  0  0
  145.3623  137.1747  155.5275 H   0  0  0  0  0  0  0  0  0  0  0  0
  143.4148  138.6476  155.4856 H   0  0  0  0  0  0  0  0  0  0  0  0
  143.1573  137.2980  154.3875 H   0  0  0  0  0  0  0  0  0  0  0  0
  143.5590  138.8928  153.7541 H   0  0  0  0  0  0  0  0  0  0  0  0
  145.3667  140.1574  153.3814 H   0  0  0  0  0  0  0  0  0  0  0  0
  1  2  1  0  0  0  0
  1 21  1  0  0  0  0
  1 22  1  0  0  0  0
  1 23  1  0  0  0  0
  2 20  1  0  0  0  0
  2  3  1  0  0  0  0
  2 24  1  0  0  0  0
  3  4  1  0  0  0  0
  3 25  1  0  0  0  0
  3 26  1  0  0  0  0
  4  5  1  0  0  0  0
  4 17  1  0  0  0  0
  4 43  1  0  0  0  0
  5  6  1  0  0  0  0
  5 27  1  0  0  0  0
  5 28  1  0  0  0  0
  6  7  1  0  0  0  0
  6 29  1  0  0  0  0
  6 30  1  0  0  0  0
  7  8  1  0  0  0  0
  7 31  1  0  0  0  0
  8  9  2  0  0  0  0
  8 10  1  0  0  0  0
 10 11  1  0  0  0  0
 10 32  1  0  0  0  0
 11 16  1  0  0  0  0
 11 12  2  0  0  0  0
 12 13  1  0  0  0  0
 12 33  1  0  0  0  0
 13 14  2  0  0  0  0
 13 34  1  0  0  0  0
 14 15  1  0  0  0  0
 14 35  1  0  0  0  0
 15 16  2  0  0  0  0
 15 36  1  0  0  0  0
 17 18  1  0  0  0  0
 17 37  1  0  0  0  0
 17 38  1  0  0  0  0
 18 19  1  0  0  0  0
 18 20  1  0  0  0  0
 18 39  1  0  0  0  0
 19 40  1  0  0  0  0
 19 41  1  0  0  0  0
 19 42  1  0  0  0  0
M  CHG  1   4   1
M  END
> <s_m_source_file>
AV-unprocessed.smi

> <i_m_source_file_index>
1231

> <i_lp_mmshare_version>
43012

> <i_f3d_flags>
0

> <s_epik_input>
W0NIM11bQ0BASF0xW0NIMl1OKFtDSDJdW0NASF0oTzEpW0NIM10pW0NIMl1bQ0gyXVtOSF1DKD1PKVtOSF1jMltjSF1bY0hdW2NIXVtjSF1uMg==

> <s_epik_cmdline>
J2VwaWtfcHl0aG9uJywgJy1waCcsICc3LjAnLCAnLXRuJywgJzgnLCAnLW1hJywgJzIwMCcsICctbWV0YWxfYmluZGluZycsICctaW1hZScsICc8aW5maWxlLm1hZT4nLCAnLW9tYWUnLCAnPG91dGZpbGUubWFlPic=

> <r_epik_Ionization_Penalty>
0.602565

> <r_epik_Ionization_Penalty_Charging>
0.602531

> <r_epik_Ionization_Penalty_Neutral>
3.43186e-05

> <r_epik_State_Penalty>
0.617039

> <r_epik_Charging_Adjusted_Penalty>
1.21957

> <i_epik_Tot_Q>
1

> <i_epik_Tot_abs_Q>
1

> <r_epik_Metal_State_Penalty>
0.617041

> <b_epik_Metal_Only>
0

> <s_lp_Force_Field>
OPLS_2005

> <r_lp_Energy>
18.1203

> <b_lp_Chiralities_Consistent>
1

> <s_lp_Variant>
AV-unprocessed.smi:1231-4

> <Gold.Version>
5.8.1

> <Gold.Id.Protein>
6NUR|6NUR_protein|mol2

> <Gold.PLP.Fitness>
48.9637

> <Gold.PLP.PLP>
-38.1513

> <Gold.PLP.part.hbond>
-3.0000

> <Gold.PLP.part.metal>
0.0000

> <Gold.PLP.part.buried>
-0.2615

> <Gold.PLP.part.nonpolar>
-35.2438

> <Gold.PLP.part.repulsive>
0.4491

> <Gold.PLP.ligand.clash>
0.0000

> <Gold.PLP.ligand.torsion>
0.3986

> <Gold.PLP.Chemscore.Hbond>
3.8640

> <Gold.PLP.Chemscore.CHOScore>
0.0000

> <Gold.PLP.Chemscore.Metal>
0.0000

> <Gold.Chemscore.Hbonds>
donor molecule, donor type, donor heavy atom, donor atom, acceptor molecule, acceptor atom, score
      L1  H     4    43       P1 10175  2.00
      L1  H     7    31       P1  8028  0.69
      L1  H    10    32       P1  8028  1.00

> <Gold.PLP.Chemscore.Internal.Correction>
0.0177

> <Gold.Rescore>
     Score         DG    S(hbond)    S(metal)    S(lipo)     H(rot)  DE(clash)    DE(int)     intcor
     19.11     -22.00       2.86        0.00      93.68       1.55       1.20       1.69       ----

> <Gold.Chemscore.Fitness>
19.1110

> <Gold.Chemscore.DG>
-22.0023

> <Gold.Chemscore.ZeroCoef>
-5.4800

> <Gold.Chemscore.Hbond>
2.8568

> <Gold.Chemscore.Metal>
0.0000

> <Gold.Chemscore.Lipo>
93.6771

> <Gold.Chemscore.Internal_Hbond>
0.0000

> <Gold.Chemscore.DEClash>
1.1986

> <Gold.Chemscore.DEInternal>
1.6927

> <Gold.Chemscore.Rot>
1.5546

> <Gold.Chemscore.Internal.Correction>
   9.000000E+99

> <Gold.Chemscore.Hbonds>
donor molecule, donor type, donor heavy atom, donor atom, acceptor molecule, acceptor atom, score
      L1  H     4    43       P1 10175  0.99
      L1  H     7    31       P1  8028  0.68
      L1  H    10    32       P1  8028  0.99

> <Gold.Chemscore.Hbond.Weighted>
-9.5417

> <Gold.Chemscore.Metal.Weighted>
-0.0000

> <Gold.Chemscore.Lipo.Weighted>
-10.9602

> <Gold.Chemscore.Internal_Hbond.Weighted>
0.0000

> <Gold.Chemscore.DEClash.Weighted>
1.1986

> <Gold.Chemscore.DEInternal.Weighted>
1.6927

> <Gold.Chemscore.Rot.Weighted>
3.9797

> <Gold.Chemscore.Internal.Correction.Weighted>
   9.000000E+99

> <Gold.Protein.RotatedTorsions>
[ 6907 6896 6895 6894 ] final  -35.63 input  -60.11 | X-H torsion
[ 7974 7965 7964 7962 ] final  -57.93 input  175.53 | X-H torsion
[ 8008 7997 7996 7995 ] final  107.19 input   59.86 | X-H torsion
[ 10167 10162 10161 10158 ] final  173.79 input  -65.29 | X-H torsion
[ 10718 10713 10712 10709 ] final -151.82 input   66.30 | X-H torsion
[ 10763 10752 10751 10750 ] final  -44.68 input  -60.55 | X-H torsion
[ 11005 11000 10999 10996 ] final  168.61 input  -57.11 | X-H torsion

> <Gold.Protein.ActiveResidues>
 VAL166  LYS551  ARG553  GLY616  TRP617  ASP618  TYR619  PRO620  LYS621  CYS622 
 ASP623  PHE694  ASN695  SER759  ASP760  ASP761  ALA762  ILE779  LEU786  VAL792 
 PHE793  MET794  SER795  GLU796  ALA797  LYS798  CYS799  TRP800  GLU811  SER814 

> <Gold.Protein.RotatedAtoms>
  151.0373  134.9582  159.8142 H   0  0  0  0  0  0  0  0  0  0  0  0  # atno 6907 bound_to 6896
  152.5357  134.2703  159.8979 H   0  0  0  0  0  0  0  0  0  0  0  0  # atno 6908 bound_to 6896
  151.2714  133.4211  159.2655 H   0  0  0  0  0  0  0  0  0  0  0  0  # atno 6909 bound_to 6896
  145.8453  140.8390  143.0014 H   0  0  0  0  0  0  0  0  0  0  0  0  # atno 7974 bound_to 7965
  156.1804  140.3099  155.9138 H   0  0  0  0  0  0  0  0  0  0  0  0  # atno 8008 bound_to 7997
  155.3396  140.0465  157.3061 H   0  0  0  0  0  0  0  0  0  0  0  0  # atno 8009 bound_to 7997
  154.5337  140.2239  155.8770 H   0  0  0  0  0  0  0  0  0  0  0  0  # atno 8010 bound_to 7997
  139.5120  144.3221  152.0193 H   0  0  0  0  0  0  0  0  0  0  0  0  # atno 10167 bound_to 10162
  156.4643  130.8228  151.2459 H   0  0  0  0  0  0  0  0  0  0  0  0  # atno 10718 bound_to 10713
  154.0161  135.6675  153.4769 H   0  0  0  0  0  0  0  0  0  0  0  0  # atno 10763 bound_to 10752
  153.0600  135.5033  154.8067 H   0  0  0  0  0  0  0  0  0  0  0  0  # atno 10764 bound_to 10752
  154.6966  135.3071  154.9366 H   0  0  0  0  0  0  0  0  0  0  0  0  # atno 10765 bound_to 10752
  140.2891  134.7688  157.3823 H   0  0  0  0  0  0  0  0  0  0  0  0  # atno 11005 bound_to 11000
  144.6731  140.0872  143.7467 LP  0  0  0  0  0  0  0  0  0  0  0  0  # atno 17320 bound_to 7965
  145.9419  139.2675  143.1263 LP  0  0  0  0  0  0  0  0  0  0  0  0  # atno 17321 bound_to 7965
  140.2662  144.4013  150.6167 LP  0  0  0  0  0  0  0  0  0  0  0  0  # atno 17342 bound_to 10162
  140.6121  143.2170  151.6865 LP  0  0  0  0  0  0  0  0  0  0  0  0  # atno 17343 bound_to 10162
  157.7496  131.0097  150.3277 LP  0  0  0  0  0  0  0  0  0  0  0  0  # atno 17370 bound_to 10713
  156.3684  130.3859  149.7195 LP  0  0  0  0  0  0  0  0  0  0  0  0  # atno 17371 bound_to 10713
  140.1212  134.5217  155.8182 LP  0  0  0  0  0  0  0  0  0  0  0  0  # atno 17394 bound_to 11000
  141.2149  133.6757  156.6869 LP  0  0  0  0  0  0  0  0  0  0  0  0  # atno 17395 bound_to 11000

$$$$
