AV-unprocessed.smi:1929|AV-procd|sdf|7799|dock3
  -GOLD-   22720 9543D 1   1.00000     0.00000
 Structure written by MMmdl.
 42 43  0  0  0  0  0  0  0  0  1 V2000
  142.7167  136.8385  152.8501 C   0  0  0  0  0  0  0  0  0  0  0  0
  143.8891  137.5724  152.3995 N   0  0  0  0  0  0  0  0  0  0  0  0
  145.1093  137.4507  152.9420 C   0  0  0  0  0  0  0  0  0  0  0  0
  145.3578  136.7002  153.8856 O   0  0  0  0  0  0  0  0  0  0  0  0
  146.2263  138.2985  152.3216 C   0  0  0  0  0  0  0  0  0  0  0  0
  146.8709  139.2456  153.2600 N   0  0  0  0  0  0  0  0  0  0  0  0
  147.1246  140.5134  152.5680 C   0  0  0  0  0  0  0  0  0  0  0  0
  147.6714  141.5666  153.5474 C   0  0  0  0  0  0  0  0  0  0  0  0
  148.9661  141.0813  154.2134 C   0  0  0  0  0  0  0  0  0  0  0  0
  149.4023  142.0476  155.2171 N   0  0  0  0  0  0  0  0  0  0  0  0
  150.2871  141.8012  156.1940 C   0  0  0  0  0  0  0  0  0  0  0  0
  150.8319  140.7092  156.3546 O   0  0  0  0  0  0  0  0  0  0  0  0
  150.4723  142.8869  156.9653 N   0  0  0  0  0  0  0  0  0  0  0  0
  151.3305  143.0476  158.0873 C   0  0  0  0  0  0  0  0  0  0  0  0
  151.9443  141.8919  158.6135 C   0  0  0  0  0  0  0  0  0  0  0  0
  152.7866  142.0206  159.7358 C   0  0  0  0  0  0  0  0  0  0  0  0
  153.0338  143.1985  160.3465 N   0  0  0  0  0  0  0  0  0  0  0  0
  152.4350  144.3019  159.8504 C   0  0  0  0  0  0  0  0  0  0  0  0
  151.5759  144.2837  158.7331 C   0  0  0  0  0  0  0  0  0  0  0  0
  148.7131  139.7044  154.8488 C   0  0  0  0  0  0  0  0  0  0  0  0
  148.1203  138.7171  153.8276 C   0  0  0  0  0  0  0  0  0  0  0  0
  141.8539  137.1063  152.2404 H   0  0  0  0  0  0  0  0  0  0  0  0
  142.4867  137.0742  153.8898 H   0  0  0  0  0  0  0  0  0  0  0  0
  142.8751  135.7629  152.7629 H   0  0  0  0  0  0  0  0  0  0  0  0
  143.7677  138.2089  151.6251 H   0  0  0  0  0  0  0  0  0  0  0  0
  146.9829  137.6470  151.8794 H   0  0  0  0  0  0  0  0  0  0  0  0
  145.7797  138.8553  151.4966 H   0  0  0  0  0  0  0  0  0  0  0  0
  147.8248  140.3641  151.7439 H   0  0  0  0  0  0  0  0  0  0  0  0
  146.1976  140.8885  152.1321 H   0  0  0  0  0  0  0  0  0  0  0  0
  147.8523  142.5027  153.0179 H   0  0  0  0  0  0  0  0  0  0  0  0
  146.9170  141.7807  154.3062 H   0  0  0  0  0  0  0  0  0  0  0  0
  149.7346  140.9860  153.4435 H   0  0  0  0  0  0  0  0  0  0  0  0
  148.9971  142.9705  155.1636 H   0  0  0  0  0  0  0  0  0  0  0  0
  149.8907  143.6837  156.7517 H   0  0  0  0  0  0  0  0  0  0  0  0
  151.7802  140.9226  158.1657 H   0  0  0  0  0  0  0  0  0  0  0  0
  153.2734  141.1524  160.1552 H   0  0  0  0  0  0  0  0  0  0  0  0
  152.6413  145.2294  160.3638 H   0  0  0  0  0  0  0  0  0  0  0  0
  151.1201  145.2060  158.4082 H   0  0  0  0  0  0  0  0  0  0  0  0
  149.6426  139.2996  155.2508 H   0  0  0  0  0  0  0  0  0  0  0  0
  148.0293  139.8039  155.6935 H   0  0  0  0  0  0  0  0  0  0  0  0
  147.9469  137.7705  154.3393 H   0  0  0  0  0  0  0  0  0  0  0  0
  148.8400  138.5180  153.0319 H   0  0  0  0  0  0  0  0  0  0  0  0
  1  2  1  0  0  0  0
  1 22  1  0  0  0  0
  1 23  1  0  0  0  0
  1 24  1  0  0  0  0
  2  3  1  0  0  0  0
  2 25  1  0  0  0  0
  3  4  2  0  0  0  0
  3  5  1  0  0  0  0
  5  6  1  0  0  0  0
  5 26  1  0  0  0  0
  5 27  1  0  0  0  0
  6 21  1  0  0  0  0
  6  7  1  0  0  0  0
  7  8  1  0  0  0  0
  7 28  1  0  0  0  0
  7 29  1  0  0  0  0
  8  9  1  0  0  0  0
  8 30  1  0  0  0  0
  8 31  1  0  0  0  0
  9 10  1  0  0  0  0
  9 20  1  0  0  0  0
  9 32  1  0  0  0  0
 10 11  1  0  0  0  0
 10 33  1  0  0  0  0
 11 12  2  0  0  0  0
 11 13  1  0  0  0  0
 13 14  1  0  0  0  0
 13 34  1  0  0  0  0
 14 19  1  0  0  0  0
 14 15  2  0  0  0  0
 15 16  1  0  0  0  0
 15 35  1  0  0  0  0
 16 17  2  0  0  0  0
 16 36  1  0  0  0  0
 17 18  1  0  0  0  0
 18 19  2  0  0  0  0
 18 37  1  0  0  0  0
 19 38  1  0  0  0  0
 20 21  1  0  0  0  0
 20 39  1  0  0  0  0
 20 40  1  0  0  0  0
 21 41  1  0  0  0  0
 21 42  1  0  0  0  0
M  END
> <s_m_source_file>
AV-unprocessed.smi

> <i_m_source_file_index>
1929

> <i_lp_mmshare_version>
43012

> <i_f3d_flags>
0

> <s_epik_input>
W0NIM11bTkhdQyg9TylbQ0gyXU4xW0NIMl1bQ0gyXVtDSF0oW0NIMl1bQ0gyXTEpW05IXUMoPU8pW05IXWMyW2NIXVtjSF1uW2NIXVtjSF0y

> <s_epik_cmdline>
J2VwaWtfcHl0aG9uJywgJy1waCcsICc3LjAnLCAnLXRuJywgJzgnLCAnLW1hJywgJzIwMCcsICctbWV0YWxfYmluZGluZycsICctaW1hZScsICc8aW5maWxlLm1hZT4nLCAnLW9tYWUnLCAnPG91dGZpbGUubWFlPic=

> <r_epik_Ionization_Penalty>
0.286942

> <r_epik_Ionization_Penalty_Charging>
0

> <r_epik_Ionization_Penalty_Neutral>
0.286942

> <r_epik_State_Penalty>
0.264061

> <r_epik_Charging_Adjusted_Penalty>
0.264061

> <i_epik_Tot_Q>
0

> <i_epik_Tot_abs_Q>
0

> <r_epik_Metal_State_Penalty>
0.245324

> <b_epik_Metal_Only>
0

> <s_lp_Force_Field>
OPLS_2005

> <r_lp_Energy>
20.0656

> <b_lp_Chiralities_Consistent>
1

> <s_lp_Variant>
AV-unprocessed.smi:1929-1

> <Gold.Version>
5.8.1

> <Gold.Id.Protein>
6NUR|6NUR_protein|mol2

> <Gold.PLP.Fitness>
47.3661

> <Gold.PLP.PLP>
-39.9268

> <Gold.PLP.part.hbond>
-4.0000

> <Gold.PLP.part.metal>
0.0000

> <Gold.PLP.part.buried>
-4.7957

> <Gold.PLP.part.nonpolar>
-32.0374

> <Gold.PLP.part.repulsive>
0.5916

> <Gold.PLP.ligand.clash>
0.0000

> <Gold.PLP.ligand.torsion>
0.7923

> <Gold.PLP.Chemscore.Hbond>
3.0000

> <Gold.PLP.Chemscore.CHOScore>
0.0000

> <Gold.PLP.Chemscore.Metal>
0.0000

> <Gold.Chemscore.Hbonds>
donor molecule, donor type, donor heavy atom, donor atom, acceptor molecule, acceptor atom, score
      L1  H     2    25       P1 10171  1.00
      L1  H    10    33       P1  8028  1.00
      L1  H    13    34       P1  8028  1.00

> <Gold.PLP.Chemscore.Internal.Correction>
0.0238

> <Gold.Rescore>
     Score         DG    S(hbond)    S(metal)    S(lipo)     H(rot)  DE(clash)    DE(int)     intcor
     18.55     -23.22       2.93        0.00     104.37       1.66       1.11       3.56       ----

> <Gold.Chemscore.Fitness>
18.5494

> <Gold.Chemscore.DG>
-23.2209

> <Gold.Chemscore.ZeroCoef>
-5.4800

> <Gold.Chemscore.Hbond>
2.9296

> <Gold.Chemscore.Metal>
0.0000

> <Gold.Chemscore.Lipo>
104.3720

> <Gold.Chemscore.Internal_Hbond>
0.0000

> <Gold.Chemscore.DEClash>
1.1133

> <Gold.Chemscore.DEInternal>
3.5582

> <Gold.Chemscore.Rot>
1.6623

> <Gold.Chemscore.Internal.Correction>
   9.000000E+99

> <Gold.Chemscore.Hbonds>
donor molecule, donor type, donor heavy atom, donor atom, acceptor molecule, acceptor atom, score
      L1  H     2    25       P1 10171  0.93
      L1  H    10    33       P1  8028  0.98
      L1  H    13    34       P1  8028  0.98

> <Gold.Chemscore.Hbond.Weighted>
-9.7848

> <Gold.Chemscore.Metal.Weighted>
-0.0000

> <Gold.Chemscore.Lipo.Weighted>
-12.2115

> <Gold.Chemscore.Internal_Hbond.Weighted>
0.0000

> <Gold.Chemscore.DEClash.Weighted>
1.1133

> <Gold.Chemscore.DEInternal.Weighted>
3.5582

> <Gold.Chemscore.Rot.Weighted>
4.2554

> <Gold.Chemscore.Internal.Correction.Weighted>
   9.000000E+99

> <Gold.Protein.RotatedTorsions>
[ 6907 6896 6895 6894 ] final -139.45 input  -60.11 | X-H torsion
[ 7974 7965 7964 7962 ] final -135.95 input  175.53 | X-H torsion
[ 8008 7997 7996 7995 ] final -138.57 input   59.86 | X-H torsion
[ 10167 10162 10161 10158 ] final   95.92 input  -65.29 | X-H torsion
[ 10718 10713 10712 10709 ] final -130.56 input   66.30 | X-H torsion
[ 10763 10752 10751 10750 ] final   78.36 input  -60.55 | X-H torsion
[ 11005 11000 10999 10996 ] final   70.43 input  -57.11 | X-H torsion

> <Gold.Protein.ActiveResidues>
 VAL166  LYS551  ARG553  GLY616  TRP617  ASP618  TYR619  PRO620  LYS621  CYS622 
 ASP623  PHE694  ASN695  SER759  ASP760  ASP761  ALA762  ILE779  LEU786  VAL792 
 PHE793  MET794  SER795  GLU796  ALA797  LYS798  CYS799  TRP800  GLU811  SER814 

> <Gold.Protein.RotatedAtoms>
  151.0479  133.5649  159.2644 H   0  0  0  0  0  0  0  0  0  0  0  0  # atno 6907 bound_to 6896
  151.2671  135.0672  159.9130 H   0  0  0  0  0  0  0  0  0  0  0  0  # atno 6908 bound_to 6896
  152.5376  134.0215  159.8038 H   0  0  0  0  0  0  0  0  0  0  0  0  # atno 6909 bound_to 6896
  144.8969  140.6719  143.5109 H   0  0  0  0  0  0  0  0  0  0  0  0  # atno 7974 bound_to 7965
  155.4305  140.0525  157.3019 H   0  0  0  0  0  0  0  0  0  0  0  0  # atno 8008 bound_to 7997
  154.4862  140.2101  155.9608 H   0  0  0  0  0  0  0  0  0  0  0  0  # atno 8009 bound_to 7997
  156.1278  140.3177  155.8308 H   0  0  0  0  0  0  0  0  0  0  0  0  # atno 8010 bound_to 7997
  139.7943  144.6839  150.9850 H   0  0  0  0  0  0  0  0  0  0  0  0  # atno 10167 bound_to 10162
  156.2156  130.6946  151.0699 H   0  0  0  0  0  0  0  0  0  0  0  0  # atno 10718 bound_to 10713
  153.0868  135.4880  154.8613 H   0  0  0  0  0  0  0  0  0  0  0  0  # atno 10763 bound_to 10752
  154.7221  135.3041  154.9033 H   0  0  0  0  0  0  0  0  0  0  0  0  # atno 10764 bound_to 10752
  153.9694  135.6803  153.4800 H   0  0  0  0  0  0  0  0  0  0  0  0  # atno 10765 bound_to 10752
  139.9598  134.7080  156.0671 H   0  0  0  0  0  0  0  0  0  0  0  0  # atno 11005 bound_to 11000
  145.3684  139.1664  143.4345 LP  0  0  0  0  0  0  0  0  0  0  0  0  # atno 17320 bound_to 7965
  146.3086  140.3753  142.8678 LP  0  0  0  0  0  0  0  0  0  0  0  0  # atno 17321 bound_to 7965
  140.7820  143.4348  151.0640 LP  0  0  0  0  0  0  0  0  0  0  0  0  # atno 17342 bound_to 10162
  139.8023  143.8066  152.3164 LP  0  0  0  0  0  0  0  0  0  0  0  0  # atno 17343 bound_to 10162
  157.7061  131.0755  150.6660 LP  0  0  0  0  0  0  0  0  0  0  0  0  # atno 17370 bound_to 10713
  156.6722  130.4542  149.5654 LP  0  0  0  0  0  0  0  0  0  0  0  0  # atno 17371 bound_to 10713
  141.1274  133.6595  156.3373 LP  0  0  0  0  0  0  0  0  0  0  0  0  # atno 17394 bound_to 11000
  140.5525  134.6013  157.5412 LP  0  0  0  0  0  0  0  0  0  0  0  0  # atno 17395 bound_to 11000

$$$$
