AV-unprocessed.smi:456|AV-procd|sdf|2616|dock7
  -GOLD-   2262023 13D 1   1.00000     0.00000
 Structure written by MMmdl.
 32 34  0  0  0  0  0  0  0  0  1 V2000
  149.9733  139.8886  154.0413 O   0  0  0  0  0  0  0  0  0  0  0  0
  149.4831  140.4941  155.2200 C   0  0  1  0  0  0  0  0  0  0  0  0
  150.4644  141.6076  155.6367 C   0  0  0  0  0  0  0  0  0  0  0  0
  151.3352  141.1944  156.7231 N   0  0  0  0  0  0  0  0  0  0  0  0
  152.0353  140.0467  156.8049 C   0  0  0  0  0  0  0  0  0  0  0  0
  152.7677  139.8560  157.8985 N   0  0  0  0  0  0  0  0  0  0  0  0
  152.5140  141.0156  158.6105 C   0  0  0  0  0  0  0  0  0  0  0  0
  152.9875  141.4374  159.8734 C   0  0  0  0  0  0  0  0  0  0  0  0
  152.5834  142.6772  160.4109 C   0  0  0  0  0  0  0  0  0  0  0  0
  153.0458  143.0654  161.6231 F   0  0  0  0  0  0  0  0  0  0  0  0
  151.7019  143.5133  159.6939 C   0  0  0  0  0  0  0  0  0  0  0  0
  151.3170  144.7012  160.2178 F   0  0  0  0  0  0  0  0  0  0  0  0
  151.2197  143.1157  158.4322 C   0  0  0  0  0  0  0  0  0  0  0  0
  151.6237  141.8767  157.9009 C   0  0  0  0  0  0  0  0  0  0  0  0
  148.0607  141.0107  155.0531 C   0  0  0  0  0  0  0  0  0  0  0  0
  147.0670  140.6527  155.9897 C   0  0  0  0  0  0  0  0  0  0  0  0
  145.7564  141.1517  155.8606 C   0  0  0  0  0  0  0  0  0  0  0  0
  145.4312  142.0109  154.7936 C   0  0  0  0  0  0  0  0  0  0  0  0
  146.4173  142.3700  153.8550 C   0  0  0  0  0  0  0  0  0  0  0  0
  147.7282  141.8721  153.9839 C   0  0  0  0  0  0  0  0  0  0  0  0
  149.3787  140.0873  153.3342 H   0  0  0  0  0  0  0  0  0  0  0  0
  149.4845  139.7172  155.9860 H   0  0  0  0  0  0  0  0  0  0  0  0
  151.0964  141.8851  154.7917 H   0  0  0  0  0  0  0  0  0  0  0  0
  149.9280  142.5101  155.9328 H   0  0  0  0  0  0  0  0  0  0  0  0
  152.0020  139.3074  156.0179 H   0  0  0  0  0  0  0  0  0  0  0  0
  153.6618  140.8054  160.4319 H   0  0  0  0  0  0  0  0  0  0  0  0
  150.5428  143.7532  157.8837 H   0  0  0  0  0  0  0  0  0  0  0  0
  147.3097  140.0032  156.8179 H   0  0  0  0  0  0  0  0  0  0  0  0
  145.0014  140.8781  156.5828 H   0  0  0  0  0  0  0  0  0  0  0  0
  144.4267  142.3957  154.6961 H   0  0  0  0  0  0  0  0  0  0  0  0
  146.1690  143.0309  153.0378 H   0  0  0  0  0  0  0  0  0  0  0  0
  148.4800  142.1620  153.2642 H   0  0  0  0  0  0  0  0  0  0  0  0
  1  2  1  0  0  0  0
  1 21  1  0  0  0  0
  2  3  1  0  0  0  0
  2 15  1  0  0  0  0
  2 22  1  0  0  0  0
  3  4  1  0  0  0  0
  3 23  1  0  0  0  0
  3 24  1  0  0  0  0
  4 14  1  0  0  0  0
  4  5  1  0  0  0  0
  5  6  2  0  0  0  0
  5 25  1  0  0  0  0
  6  7  1  0  0  0  0
  7 14  2  0  0  0  0
  7  8  1  0  0  0  0
  8  9  2  0  0  0  0
  8 26  1  0  0  0  0
  9 10  1  0  0  0  0
  9 11  1  0  0  0  0
 11 12  1  0  0  0  0
 11 13  2  0  0  0  0
 13 14  1  0  0  0  0
 13 27  1  0  0  0  0
 15 20  1  0  0  0  0
 15 16  2  0  0  0  0
 16 17  1  0  0  0  0
 16 28  1  0  0  0  0
 17 18  2  0  0  0  0
 17 29  1  0  0  0  0
 18 19  1  0  0  0  0
 18 30  1  0  0  0  0
 19 20  2  0  0  0  0
 19 31  1  0  0  0  0
 20 32  1  0  0  0  0
M  END
> <s_m_source_file>
AV-unprocessed.smi

> <i_m_source_file_index>
456

> <i_lp_mmshare_version>
43012

> <i_f3d_flags>
0

> <s_epik_input>
W2NIXTFbY0hdW2NIXVtjSF1bY0hdYzFbQ0BIXShbT0hdKVtDSDJdbihbY0hdbjIpYyhjMjMpW2NIXWMoRiljKEYpW2NIXTM=

> <s_epik_cmdline>
J2VwaWtfcHl0aG9uJywgJy1waCcsICc3LjAnLCAnLXRuJywgJzgnLCAnLW1hJywgJzIwMCcsICctbWV0YWxfYmluZGluZycsICctaW1hZScsICc8aW5maWxlLm1hZT4nLCAnLW9tYWUnLCAnPG91dGZpbGUubWFlPic=

> <r_epik_Ionization_Penalty>
0.0156354

> <r_epik_Ionization_Penalty_Charging>
0

> <r_epik_Ionization_Penalty_Neutral>
0.0156354

> <r_epik_State_Penalty>
0.0122974

> <r_epik_Charging_Adjusted_Penalty>
0.0122974

> <i_epik_Tot_Q>
0

> <i_epik_Tot_abs_Q>
0

> <r_epik_Metal_State_Penalty>
1.24258e-05

> <b_epik_Metal_Only>
0

> <s_lp_Force_Field>
OPLS_2005

> <r_lp_Energy>
11.2187

> <b_lp_Chiralities_Consistent>
1

> <s_lp_Variant>
AV-unprocessed.smi:456-2

> <Gold.Version>
5.8.1

> <Gold.Id.Protein>
6NUR|6NUR_protein|mol2

> <Gold.PLP.Fitness>
50.2793

> <Gold.PLP.PLP>
-45.8596

> <Gold.PLP.part.hbond>
-3.0000

> <Gold.PLP.part.metal>
0.0000

> <Gold.PLP.part.buried>
-5.6077

> <Gold.PLP.part.nonpolar>
-36.3149

> <Gold.PLP.part.repulsive>
0.0000

> <Gold.PLP.ligand.clash>
0.0000

> <Gold.PLP.ligand.torsion>
0.8995

> <Gold.PLP.Chemscore.Hbond>
2.0672

> <Gold.PLP.Chemscore.CHOScore>
0.0000

> <Gold.PLP.Chemscore.Metal>
0.0000

> <Gold.Chemscore.Hbonds>
donor molecule, donor type, donor heavy atom, donor atom, acceptor molecule, acceptor atom, score
      L1  H     1    21       P1  7957  0.40
      P1  H  7989  7998       L1     1  0.94
      P1  H  7997  8010       L1     6  0.55

> <Gold.PLP.Chemscore.Internal.Correction>
0.0170

> <Gold.Rescore>
     Score         DG    S(hbond)    S(metal)    S(lipo)     H(rot)  DE(clash)    DE(int)     intcor
     15.01     -16.84       1.32        0.00     102.57       1.98       0.95       0.89       ----

> <Gold.Chemscore.Fitness>
15.0079

> <Gold.Chemscore.DG>
-16.8389

> <Gold.Chemscore.ZeroCoef>
-5.4800

> <Gold.Chemscore.Hbond>
1.3235

> <Gold.Chemscore.Metal>
0.0000

> <Gold.Chemscore.Lipo>
102.5719

> <Gold.Chemscore.Internal_Hbond>
0.0000

> <Gold.Chemscore.DEClash>
0.9451

> <Gold.Chemscore.DEInternal>
0.8859

> <Gold.Chemscore.Rot>
1.9776

> <Gold.Chemscore.Internal.Correction>
   9.000000E+99

> <Gold.Chemscore.Hbonds>
donor molecule, donor type, donor heavy atom, donor atom, acceptor molecule, acceptor atom, score
      L1  H     1    21       P1  7957  0.39
      P1  H  7989  7998       L1     1  0.17
      P1  H  7997  8010       L1     6  0.02

> <Gold.Chemscore.Hbond.Weighted>
-4.4206

> <Gold.Chemscore.Metal.Weighted>
-0.0000

> <Gold.Chemscore.Lipo.Weighted>
-12.0009

> <Gold.Chemscore.Internal_Hbond.Weighted>
0.0000

> <Gold.Chemscore.DEClash.Weighted>
0.9451

> <Gold.Chemscore.DEInternal.Weighted>
0.8859

> <Gold.Chemscore.Rot.Weighted>
5.0626

> <Gold.Chemscore.Internal.Correction.Weighted>
   9.000000E+99

> <Gold.Protein.RotatedTorsions>
[ 6907 6896 6895 6894 ] final   16.09 input  -60.11 | X-H torsion
[ 7974 7965 7964 7962 ] final -142.27 input  175.53 | X-H torsion
[ 8008 7997 7996 7995 ] final   46.84 input   59.86 | X-H torsion
[ 10167 10162 10161 10158 ] final  135.26 input  -65.29 | X-H torsion
[ 10718 10713 10712 10709 ] final   71.50 input   66.30 | X-H torsion
[ 10763 10752 10751 10750 ] final -130.89 input  -60.55 | X-H torsion
[ 11005 11000 10999 10996 ] final  130.58 input  -57.11 | X-H torsion

> <Gold.Protein.ActiveResidues>
 VAL166  LYS551  ARG553  GLY616  TRP617  ASP618  TYR619  PRO620  LYS621  CYS622 
 ASP623  PHE694  ASN695  SER759  ASP760  ASP761  ALA762  ILE779  LEU786  VAL792 
 PHE793  MET794  SER795  GLU796  ALA797  LYS798  CYS799  TRP800  GLU811  SER814 

> <Gold.Protein.RotatedAtoms>
  151.8283  135.0629  160.0433 H   0  0  0  0  0  0  0  0  0  0  0  0  # atno 6907 bound_to 6896
  152.2899  133.5547  159.5559 H   0  0  0  0  0  0  0  0  0  0  0  0  # atno 6908 bound_to 6896
  150.7225  134.0359  159.3791 H   0  0  0  0  0  0  0  0  0  0  0  0  # atno 6909 bound_to 6896
  144.8456  140.5979  143.5423 H   0  0  0  0  0  0  0  0  0  0  0  0  # atno 7974 bound_to 7965
  155.3591  140.3417  155.4240 H   0  0  0  0  0  0  0  0  0  0  0  0  # atno 8008 bound_to 7997
  156.1723  140.1636  156.8460 H   0  0  0  0  0  0  0  0  0  0  0  0  # atno 8009 bound_to 7997
  154.5246  140.0759  156.8217 H   0  0  0  0  0  0  0  0  0  0  0  0  # atno 8010 bound_to 7997
  139.5224  144.6526  151.5258 H   0  0  0  0  0  0  0  0  0  0  0  0  # atno 10167 bound_to 10162
  157.6455  130.9531  150.0798 H   0  0  0  0  0  0  0  0  0  0  0  0  # atno 10718 bound_to 10713
  154.8753  135.3848  154.4157 H   0  0  0  0  0  0  0  0  0  0  0  0  # atno 10763 bound_to 10752
  153.4866  135.7030  153.5913 H   0  0  0  0  0  0  0  0  0  0  0  0  # atno 10764 bound_to 10752
  153.4305  135.3880  155.2134 H   0  0  0  0  0  0  0  0  0  0  0  0  # atno 10765 bound_to 10752
  139.9680  134.9585  156.9314 H   0  0  0  0  0  0  0  0  0  0  0  0  # atno 11005 bound_to 11000
  145.4603  139.1513  143.3870 LP  0  0  0  0  0  0  0  0  0  0  0  0  # atno 17320 bound_to 7965
  146.2741  140.4733  142.8802 LP  0  0  0  0  0  0  0  0  0  0  0  0  # atno 17321 bound_to 7965
  140.6337  143.9026  150.6628 LP  0  0  0  0  0  0  0  0  0  0  0  0  # atno 17342 bound_to 10162
  140.2338  143.3715  152.1543 LP  0  0  0  0  0  0  0  0  0  0  0  0  # atno 17343 bound_to 10162
  156.1778  130.3649  149.9077 LP  0  0  0  0  0  0  0  0  0  0  0  0  # atno 17370 bound_to 10713
  156.7037  130.8943  151.3602 LP  0  0  0  0  0  0  0  0  0  0  0  0  # atno 17371 bound_to 10713
  140.5355  134.0772  155.7327 LP  0  0  0  0  0  0  0  0  0  0  0  0  # atno 17394 bound_to 11000
  141.1360  133.9221  157.2433 LP  0  0  0  0  0  0  0  0  0  0  0  0  # atno 17395 bound_to 11000

$$$$
