AV-unprocessed.smi:1563|AV-procd|sdf|6292|dock6
  -GOLD-   22720 6493D 1   1.00000     0.00000
 Structure written by MMmdl.
 44 45  0  0  0  0  0  0  0  0  2 V2000
  150.7057  142.0033  155.7483 C   0  0  0  0  0  0  0  0  0  0  0  0
  150.3201  140.6549  155.1503 C   0  0  0  0  0  0  0  0  0  0  0  0
  151.1936  139.8810  154.7580 O   0  0  0  0  0  0  0  0  0  0  0  0
  149.0067  140.3886  155.0832 N   0  0  0  0  0  0  0  0  0  0  0  0
  148.4294  139.1622  154.5451 C   0  0  1  0  0  0  0  0  0  0  0  0
  148.6236  137.9820  155.5255 C   0  0  0  0  0  0  0  0  0  0  0  0
  147.8710  136.7163  155.0650 C   0  0  0  0  0  0  0  0  0  0  0  0
  146.4145  137.0411  154.6835 C   0  0  0  0  0  0  0  0  0  0  0  0
  146.4264  138.1084  153.6706 N   0  0  0  0  0  0  0  0  0  0  0  0
  146.2849  137.9453  152.3317 C   0  0  0  0  0  0  0  0  0  0  0  0
  146.4498  138.8587  151.5217 O   0  0  0  0  0  0  0  0  0  0  0  0
  146.0396  136.6810  151.9429 N   0  0  0  0  0  0  0  0  0  0  0  0
  146.0711  136.1987  150.5633 C   0  0  0  0  0  0  0  0  0  0  0  0
  144.7742  135.4581  150.1718 C   0  0  0  0  0  0  0  0  0  0  0  0
  144.7713  133.9800  150.5285 C   0  0  0  0  0  0  0  0  0  0  0  0
  145.8499  133.3671  151.2039 C   0  0  0  0  0  0  0  0  0  0  0  0
  145.8018  131.9825  151.4683 C   0  0  0  0  0  0  0  0  0  0  0  0
  144.6777  131.2399  151.0531 C   0  0  0  0  0  0  0  0  0  0  0  0
  143.6244  131.9035  150.3914 C   0  0  0  0  0  0  0  0  0  0  0  0
  143.7063  133.2322  150.1591 N   0  3  0  0  0  0  0  0  0  0  0  0
  146.9323  139.3635  154.2366 C   0  0  0  0  0  0  0  0  0  0  0  0
  150.1431  142.1954  156.6621 H   0  0  0  0  0  0  0  0  0  0  0  0
  150.4971  142.8045  155.0391 H   0  0  0  0  0  0  0  0  0  0  0  0
  151.7683  142.0291  155.9917 H   0  0  0  0  0  0  0  0  0  0  0  0
  148.3621  141.0848  155.4290 H   0  0  0  0  0  0  0  0  0  0  0  0
  148.9276  138.9210  153.6051 H   0  0  0  0  0  0  0  0  0  0  0  0
  149.6840  137.7595  155.6486 H   0  0  0  0  0  0  0  0  0  0  0  0
  148.2533  138.2695  156.5107 H   0  0  0  0  0  0  0  0  0  0  0  0
  148.3819  136.2825  154.2052 H   0  0  0  0  0  0  0  0  0  0  0  0
  147.8952  135.9611  155.8509 H   0  0  0  0  0  0  0  0  0  0  0  0
  145.8925  136.1406  154.3583 H   0  0  0  0  0  0  0  0  0  0  0  0
  145.8695  137.3859  155.5636 H   0  0  0  0  0  0  0  0  0  0  0  0
  145.9109  135.9859  152.6639 H   0  0  0  0  0  0  0  0  0  0  0  0
  146.2190  137.0527  149.9021 H   0  0  0  0  0  0  0  0  0  0  0  0
  146.9323  135.5469  150.4081 H   0  0  0  0  0  0  0  0  0  0  0  0
  143.9257  135.9358  150.6633 H   0  0  0  0  0  0  0  0  0  0  0  0
  144.5994  135.5639  149.1005 H   0  0  0  0  0  0  0  0  0  0  0  0
  146.7109  133.9455  151.5053 H   0  0  0  0  0  0  0  0  0  0  0  0
  146.6219  131.4931  151.9730 H   0  0  0  0  0  0  0  0  0  0  0  0
  144.6270  130.1765  151.2370 H   0  0  0  0  0  0  0  0  0  0  0  0
  142.7290  131.4144  150.0372 H   0  0  0  0  0  0  0  0  0  0  0  0
  146.3807  139.6108  155.1452 H   0  0  0  0  0  0  0  0  0  0  0  0
  146.7921  140.2123  153.5652 H   0  0  0  0  0  0  0  0  0  0  0  0
  142.9377  133.6879  149.6667 H   0  0  0  0  0  0  0  0  0  0  0  0
  1  2  1  0  0  0  0
  1 22  1  0  0  0  0
  1 23  1  0  0  0  0
  1 24  1  0  0  0  0
  2  3  2  0  0  0  0
  2  4  1  0  0  0  0
  4  5  1  0  0  0  0
  4 25  1  0  0  0  0
  5 21  1  0  0  0  0
  5  6  1  0  0  0  0
  5 26  1  0  0  0  0
  6  7  1  0  0  0  0
  6 27  1  0  0  0  0
  6 28  1  0  0  0  0
  7  8  1  0  0  0  0
  7 29  1  0  0  0  0
  7 30  1  0  0  0  0
  8  9  1  0  0  0  0
  8 31  1  0  0  0  0
  8 32  1  0  0  0  0
  9 10  1  0  0  0  0
  9 21  1  0  0  0  0
 10 11  2  0  0  0  0
 10 12  1  0  0  0  0
 12 13  1  0  0  0  0
 12 33  1  0  0  0  0
 13 14  1  0  0  0  0
 13 34  1  0  0  0  0
 13 35  1  0  0  0  0
 14 15  1  0  0  0  0
 14 36  1  0  0  0  0
 14 37  1  0  0  0  0
 15 20  1  0  0  0  0
 15 16  2  0  0  0  0
 16 17  1  0  0  0  0
 16 38  1  0  0  0  0
 17 18  2  0  0  0  0
 17 39  1  0  0  0  0
 18 19  1  0  0  0  0
 18 40  1  0  0  0  0
 19 20  2  0  0  0  0
 19 41  1  0  0  0  0
 20 44  1  0  0  0  0
 21 42  1  0  0  0  0
 21 43  1  0  0  0  0
M  CHG  1  20   1
M  END
> <s_m_source_file>
AV-unprocessed.smi

> <i_m_source_file_index>
1563

> <i_lp_mmshare_version>
43012

> <i_f3d_flags>
0

> <s_epik_input>
W0NIM11DKD1PKVtOSF1bQ0BASF0xW0NIMl1bQ0gyXVtDSDJdTihbQ0gyXTEpQyg9TylbTkhdW0NIMl1bQ0gyXWMyW2NIXVtjSF1bY0hdW2NIXW4y

> <s_epik_cmdline>
J2VwaWtfcHl0aG9uJywgJy1waCcsICc3LjAnLCAnLXRuJywgJzgnLCAnLW1hJywgJzIwMCcsICctbWV0YWxfYmluZGluZycsICctaW1hZScsICc8aW5maWxlLm1hZT4nLCAnLW9tYWUnLCAnPG91dGZpbGUubWFlPic=

> <r_epik_Ionization_Penalty>
1.56048

> <r_epik_Ionization_Penalty_Charging>
1.56043

> <r_epik_Ionization_Penalty_Neutral>
4.90601e-05

> <r_epik_State_Penalty>
1.65539

> <r_epik_Charging_Adjusted_Penalty>
3.21583

> <i_epik_Tot_Q>
1

> <i_epik_Tot_abs_Q>
1

> <r_epik_Metal_State_Penalty>
1.6969

> <b_epik_Metal_Only>
0

> <s_lp_Force_Field>
OPLS_2005

> <r_lp_Energy>
29.938

> <b_lp_Chiralities_Consistent>
1

> <s_lp_Variant>
AV-unprocessed.smi:1563-4

> <Gold.Version>
5.8.1

> <Gold.Id.Protein>
6NUR|6NUR_protein|mol2

> <Gold.PLP.Fitness>
39.5341

> <Gold.PLP.PLP>
-31.2838

> <Gold.PLP.part.hbond>
-3.0000

> <Gold.PLP.part.metal>
0.0000

> <Gold.PLP.part.buried>
-6.0138

> <Gold.PLP.part.nonpolar>
-24.6641

> <Gold.PLP.part.repulsive>
0.8845

> <Gold.PLP.ligand.clash>
0.0000

> <Gold.PLP.ligand.torsion>
0.4153

> <Gold.PLP.Chemscore.Hbond>
3.0000

> <Gold.PLP.Chemscore.CHOScore>
0.0000

> <Gold.PLP.Chemscore.Metal>
0.0000

> <Gold.Chemscore.Hbonds>
donor molecule, donor type, donor heavy atom, donor atom, acceptor molecule, acceptor atom, score
      L1  H    20    44       P1 10186  1.82
      P1  H  7989  7998       L1     3  0.70

> <Gold.PLP.Chemscore.Internal.Correction>
0.0808

> <Gold.Rescore>
     Score         DG    S(hbond)    S(metal)    S(lipo)     H(rot)  DE(clash)    DE(int)     intcor
     15.39     -16.44       1.97        0.00      75.97       1.77       0.53       0.51       ----

> <Gold.Chemscore.Fitness>
15.3907

> <Gold.Chemscore.DG>
-16.4397

> <Gold.Chemscore.ZeroCoef>
-5.4800

> <Gold.Chemscore.Hbond>
1.9737

> <Gold.Chemscore.Metal>
0.0000

> <Gold.Chemscore.Lipo>
75.9727

> <Gold.Chemscore.Internal_Hbond>
0.0000

> <Gold.Chemscore.DEClash>
0.5344

> <Gold.Chemscore.DEInternal>
0.5147

> <Gold.Chemscore.Rot>
1.7661

> <Gold.Chemscore.Internal.Correction>
   9.000000E+99

> <Gold.Chemscore.Hbonds>
donor molecule, donor type, donor heavy atom, donor atom, acceptor molecule, acceptor atom, score
      L1  H    20    44       P1 10186  0.84
      P1  H  7989  7998       L1     3  0.07

> <Gold.Chemscore.Hbond.Weighted>
-6.5921

> <Gold.Chemscore.Metal.Weighted>
-0.0000

> <Gold.Chemscore.Lipo.Weighted>
-8.8888

> <Gold.Chemscore.Internal_Hbond.Weighted>
0.0000

> <Gold.Chemscore.DEClash.Weighted>
0.5344

> <Gold.Chemscore.DEInternal.Weighted>
0.5147

> <Gold.Chemscore.Rot.Weighted>
4.5211

> <Gold.Chemscore.Internal.Correction.Weighted>
   9.000000E+99

> <Gold.Protein.RotatedTorsions>
[ 6907 6896 6895 6894 ] final   58.94 input  -60.11 | X-H torsion
[ 7974 7965 7964 7962 ] final -151.22 input  175.53 | X-H torsion
[ 8008 7997 7996 7995 ] final  135.30 input   59.86 | X-H torsion
[ 10167 10162 10161 10158 ] final -178.62 input  -65.29 | X-H torsion
[ 10718 10713 10712 10709 ] final   76.45 input   66.30 | X-H torsion
[ 10763 10752 10751 10750 ] final  -70.77 input  -60.55 | X-H torsion
[ 11005 11000 10999 10996 ] final  174.88 input  -57.11 | X-H torsion

> <Gold.Protein.ActiveResidues>
 VAL166  LYS551  ARG553  GLY616  TRP617  ASP618  TYR619  PRO620  LYS621  CYS622 
 ASP623  PHE694  ASN695  SER759  ASP760  ASP761  ALA762  ILE779  LEU786  VAL792 
 PHE793  MET794  SER795  GLU796  ALA797  LYS798  CYS799  TRP800  GLU811  SER814 

> <Gold.Protein.RotatedAtoms>
  152.3870  134.6502  160.0121 H   0  0  0  0  0  0  0  0  0  0  0  0  # atno 6907 bound_to 6896
  151.6747  133.3307  159.3213 H   0  0  0  0  0  0  0  0  0  0  0  0  # atno 6908 bound_to 6896
  150.7794  134.6769  159.6467 H   0  0  0  0  0  0  0  0  0  0  0  0  # atno 6909 bound_to 6896
  144.7862  140.4827  143.5804 H   0  0  0  0  0  0  0  0  0  0  0  0  # atno 7974 bound_to 7965
  156.3002  140.2474  156.3559 H   0  0  0  0  0  0  0  0  0  0  0  0  # atno 8008 bound_to 7997
  154.8922  140.0409  157.1864 H   0  0  0  0  0  0  0  0  0  0  0  0  # atno 8009 bound_to 7997
  154.8586  140.2917  155.5557 H   0  0  0  0  0  0  0  0  0  0  0  0  # atno 8010 bound_to 7997
  139.5424  144.2327  152.0921 H   0  0  0  0  0  0  0  0  0  0  0  0  # atno 10167 bound_to 10162
  157.6674  130.9775  150.1499 H   0  0  0  0  0  0  0  0  0  0  0  0  # atno 10718 bound_to 10713
  154.4223  135.5983  153.6017 H   0  0  0  0  0  0  0  0  0  0  0  0  # atno 10763 bound_to 10752
  152.9794  135.5955  154.3940 H   0  0  0  0  0  0  0  0  0  0  0  0  # atno 10764 bound_to 10752
  154.3767  135.2841  155.2214 H   0  0  0  0  0  0  0  0  0  0  0  0  # atno 10765 bound_to 10752
  140.3562  134.7152  157.4301 H   0  0  0  0  0  0  0  0  0  0  0  0  # atno 11005 bound_to 11000
  145.5915  139.1496  143.3179 LP  0  0  0  0  0  0  0  0  0  0  0  0  # atno 17320 bound_to 7965
  146.2095  140.6041  142.9066 LP  0  0  0  0  0  0  0  0  0  0  0  0  # atno 17321 bound_to 7965
  140.1808  144.4846  150.6529 LP  0  0  0  0  0  0  0  0  0  0  0  0  # atno 17342 bound_to 10162
  140.6659  143.2268  151.5744 LP  0  0  0  0  0  0  0  0  0  0  0  0  # atno 17343 bound_to 10162
  156.2301  130.3681  149.8455 LP  0  0  0  0  0  0  0  0  0  0  0  0  # atno 17370 bound_to 10713
  156.6284  130.8655  151.3490 LP  0  0  0  0  0  0  0  0  0  0  0  0  # atno 17371 bound_to 10713
  140.0663  134.5924  155.8691 LP  0  0  0  0  0  0  0  0  0  0  0  0  # atno 17394 bound_to 11000
  141.1998  133.6608  156.5861 LP  0  0  0  0  0  0  0  0  0  0  0  0  # atno 17395 bound_to 11000

$$$$
