AV-unprocessed.smi:333|AV-procd|sdf|2361|dock7
  -GOLD-   2262022273D 1   1.00000     0.00000
 Structure written by MMmdl.
 26 26  0  0  0  0  0  0  0  0  1 V2000
  142.2224  138.3423  154.5393 N   0  0  0  0  0  0  0  0  0  0  0  0
  142.0239  137.0382  154.7683 C   0  0  0  0  0  0  0  0  0  0  0  0
  141.3306  136.6999  155.7274 O   0  0  0  0  0  0  0  0  0  0  0  0
  142.6937  136.1436  153.8002 C   0  0  0  0  0  0  0  0  0  0  0  0
  143.7670  136.5170  153.0575 C   0  0  0  0  0  0  0  0  0  0  0  0
  144.4054  135.6153  152.1147 C   0  0  0  0  0  0  0  0  0  0  0  0
  145.6044  136.1005  151.3098 C   0  0  0  0  0  0  0  0  0  0  0  0
  145.9929  137.5547  151.6248 C   0  0  0  0  0  0  0  0  0  0  0  0
  147.2105  137.8969  150.9974 O   0  0  0  0  0  0  0  0  0  0  0  0
  143.8725  134.3782  151.9849 C   0  0  0  0  0  0  0  0  0  0  0  0
  144.3718  133.2780  151.0501 C   0  0  0  0  0  0  0  0  0  0  0  0
  144.2663  133.6659  149.7793 F   0  0  0  0  0  0  0  0  0  0  0  0
  145.6486  132.9896  151.2989 F   0  0  0  0  0  0  0  0  0  0  0  0
  143.6686  132.1517  151.1891 F   0  0  0  0  0  0  0  0  0  0  0  0
  142.7654  134.0012  152.7585 N   0  0  0  0  0  0  0  0  0  0  0  0
  142.1302  134.7806  153.6614 C   0  0  0  0  0  0  0  0  0  0  0  0
  141.1695  134.3161  154.2754 O   0  0  0  0  0  0  0  0  0  0  0  0
  142.4236  133.0609  152.6196 H   0  0  0  0  0  0  0  0  0  0  0  0
  141.8043  139.0259  155.1537 H   0  0  0  0  0  0  0  0  0  0  0  0
  142.7893  138.6388  153.7587 H   0  0  0  0  0  0  0  0  0  0  0  0
  144.1861  137.5086  153.1427 H   0  0  0  0  0  0  0  0  0  0  0  0
  146.4675  135.4513  151.4477 H   0  0  0  0  0  0  0  0  0  0  0  0
  145.3460  136.0221  150.2533 H   0  0  0  0  0  0  0  0  0  0  0  0
  145.2174  138.2335  151.2692 H   0  0  0  0  0  0  0  0  0  0  0  0
  146.0860  137.7115  152.6997 H   0  0  0  0  0  0  0  0  0  0  0  0
  147.9200  137.5007  151.4799 H   0  0  0  0  0  0  0  0  0  0  0  0
  1  2  1  0  0  0  0
  1 19  1  0  0  0  0
  1 20  1  0  0  0  0
  2  3  2  0  0  0  0
  2  4  1  0  0  0  0
  4 16  1  0  0  0  0
  4  5  2  0  0  0  0
  5  6  1  0  0  0  0
  5 21  1  0  0  0  0
  6  7  1  0  0  0  0
  6 10  2  0  0  0  0
  7  8  1  0  0  0  0
  7 22  1  0  0  0  0
  7 23  1  0  0  0  0
  8  9  1  0  0  0  0
  8 24  1  0  0  0  0
  8 25  1  0  0  0  0
  9 26  1  0  0  0  0
 10 11  1  0  0  0  0
 10 15  1  0  0  0  0
 11 12  1  0  0  0  0
 11 13  1  0  0  0  0
 11 14  1  0  0  0  0
 15 18  1  0  0  0  0
 15 16  1  0  0  0  0
 16 17  2  0  0  0  0
M  END
> <s_m_source_file>
AV-unprocessed.smi

> <i_m_source_file_index>
333

> <i_lp_mmshare_version>
43012

> <i_f3d_flags>
0

> <s_epik_input>
W05IMl1DKD1PKWMxW2NIXWMoW0NIMl1bQ0gyXVtPSF0pYyhDKEYpKEYpRilbbkhdYzE9Tw==

> <s_epik_cmdline>
J2VwaWtfcHl0aG9uJywgJy1waCcsICc3LjAnLCAnLXRuJywgJzgnLCAnLW1hJywgJzIwMCcsICctbWV0YWxfYmluZGluZycsICctaW1hZScsICc8aW5maWxlLm1hZT4nLCAnLW9tYWUnLCAnPG91dGZpbGUubWFlPic=

> <r_lp_tautomer_probability>
0.999

> <r_epik_Ionization_Penalty>
1.33848

> <r_epik_Ionization_Penalty_Charging>
1.33848

> <r_epik_Ionization_Penalty_Neutral>
1.5599e-06

> <r_epik_State_Penalty>
1.41551

> <r_epik_Charging_Adjusted_Penalty>
2.75399

> <i_epik_Tot_Q>
0

> <i_epik_Tot_abs_Q>
0

> <r_epik_Metal_State_Penalty>
1.47649

> <b_epik_Metal_Only>
0

> <s_lp_Force_Field>
OPLS_2005

> <r_lp_Energy>
21.6261

> <b_lp_Chiralities_Consistent>
1

> <s_lp_Variant>
AV-unprocessed.smi:333-2

> <Gold.Version>
5.8.1

> <Gold.Id.Protein>
6NUR|6NUR_protein|mol2

> <Gold.PLP.Fitness>
42.9316

> <Gold.PLP.PLP>
-33.0007

> <Gold.PLP.part.hbond>
-5.6786

> <Gold.PLP.part.metal>
0.0000

> <Gold.PLP.part.buried>
-3.6250

> <Gold.PLP.part.nonpolar>
-24.9002

> <Gold.PLP.part.repulsive>
0.2372

> <Gold.PLP.ligand.clash>
0.0000

> <Gold.PLP.ligand.torsion>
0.2557

> <Gold.PLP.Chemscore.Hbond>
3.4765

> <Gold.PLP.Chemscore.CHOScore>
0.0000

> <Gold.PLP.Chemscore.Metal>
0.0000

> <Gold.Chemscore.Hbonds>
donor molecule, donor type, donor heavy atom, donor atom, acceptor molecule, acceptor atom, score
      L1  H     1    20       P1 10175  0.17
      L1  H     9    26       P1  7948  1.00
      P1  H  7954  7966       L1     9  0.12
      P1  H 11000 11005       L1    17  1.00

> <Gold.PLP.Chemscore.Internal.Correction>
0.0130

> <Gold.Rescore>
     Score         DG    S(hbond)    S(metal)    S(lipo)     H(rot)  DE(clash)    DE(int)     intcor
     11.07     -13.77       2.78        0.00      38.20       2.13       1.05       1.65       ----

> <Gold.Chemscore.Fitness>
11.0684

> <Gold.Chemscore.DG>
-13.7729

> <Gold.Chemscore.ZeroCoef>
-5.4800

> <Gold.Chemscore.Hbond>
2.7769

> <Gold.Chemscore.Metal>
0.0000

> <Gold.Chemscore.Lipo>
38.1986

> <Gold.Chemscore.Internal_Hbond>
0.0000

> <Gold.Chemscore.DEClash>
1.0510

> <Gold.Chemscore.DEInternal>
1.6535

> <Gold.Chemscore.Rot>
2.1294

> <Gold.Chemscore.Internal.Correction>
   9.000000E+99

> <Gold.Chemscore.Hbonds>
donor molecule, donor type, donor heavy atom, donor atom, acceptor molecule, acceptor atom, score
      L1  H     1    20       P1 10175  0.18
      L1  H     9    26       P1  7948  0.96
      P1  H 11000 11005       L1    17  0.96

> <Gold.Chemscore.Hbond.Weighted>
-9.2748

> <Gold.Chemscore.Metal.Weighted>
-0.0000

> <Gold.Chemscore.Lipo.Weighted>
-4.4692

> <Gold.Chemscore.Internal_Hbond.Weighted>
0.0000

> <Gold.Chemscore.DEClash.Weighted>
1.0510

> <Gold.Chemscore.DEInternal.Weighted>
1.6535

> <Gold.Chemscore.Rot.Weighted>
5.4512

> <Gold.Chemscore.Internal.Correction.Weighted>
   9.000000E+99

> <Gold.Protein.RotatedTorsions>
[ 6907 6896 6895 6894 ] final -125.50 input  -60.11 | X-H torsion
[ 7974 7965 7964 7962 ] final  114.26 input  175.53 | X-H torsion
[ 8008 7997 7996 7995 ] final -133.07 input   59.86 | X-H torsion
[ 10167 10162 10161 10158 ] final  103.11 input  -65.29 | X-H torsion
[ 10718 10713 10712 10709 ] final  147.47 input   66.30 | X-H torsion
[ 10763 10752 10751 10750 ] final -177.47 input  -60.55 | X-H torsion
[ 11005 11000 10999 10996 ] final   26.64 input  -57.11 | X-H torsion

> <Gold.Protein.ActiveResidues>
 VAL166  LYS551  ARG553  GLY616  TRP617  ASP618  TYR619  PRO620  LYS621  CYS622 
 ASP623  PHE694  ASN695  SER759  ASP760  ASP761  ALA762  ILE779  LEU786  VAL792 
 PHE793  MET794  SER795  GLU796  ALA797  LYS798  CYS799  TRP800  GLU811  SER814 

> <Gold.Protein.RotatedAtoms>
  150.8874  133.7289  159.2914 H   0  0  0  0  0  0  0  0  0  0  0  0  # atno 6907 bound_to 6896
  151.4850  135.1053  159.9798 H   0  0  0  0  0  0  0  0  0  0  0  0  # atno 6908 bound_to 6896
  152.4799  133.8181  159.7094 H   0  0  0  0  0  0  0  0  0  0  0  0  # atno 6909 bound_to 6896
  145.2066  139.2926  143.4290 H   0  0  0  0  0  0  0  0  0  0  0  0  # atno 7974 bound_to 7965
  155.3394  140.0471  157.3044 H   0  0  0  0  0  0  0  0  0  0  0  0  # atno 8008 bound_to 7997
  154.5285  140.2249  155.8811 H   0  0  0  0  0  0  0  0  0  0  0  0  # atno 8009 bound_to 7997
  156.1764  140.3084  155.9074 H   0  0  0  0  0  0  0  0  0  0  0  0  # atno 8010 bound_to 7997
  139.7291  144.7040  151.0751 H   0  0  0  0  0  0  0  0  0  0  0  0  # atno 10167 bound_to 10162
  157.3205  131.0903  151.1244 H   0  0  0  0  0  0  0  0  0  0  0  0  # atno 10718 bound_to 10713
  154.5597  135.2819  155.0931 H   0  0  0  0  0  0  0  0  0  0  0  0  # atno 10763 bound_to 10752
  154.2345  135.6368  153.5190 H   0  0  0  0  0  0  0  0  0  0  0  0  # atno 10764 bound_to 10752
  153.0025  135.5545  154.6187 H   0  0  0  0  0  0  0  0  0  0  0  0  # atno 10765 bound_to 10752
  140.3349  134.2397  155.7697 H   0  0  0  0  0  0  0  0  0  0  0  0  # atno 11005 bound_to 11000
  146.3406  140.2328  142.8593 LP  0  0  0  0  0  0  0  0  0  0  0  0  # atno 17320 bound_to 7965
  144.9896  140.8534  143.5347 LP  0  0  0  0  0  0  0  0  0  0  0  0  # atno 17321 bound_to 7965
  140.7768  143.5067  150.9704 LP  0  0  0  0  0  0  0  0  0  0  0  0  # atno 17342 bound_to 10162
  139.8754  143.7139  152.3162 LP  0  0  0  0  0  0  0  0  0  0  0  0  # atno 17343 bound_to 10162
  157.2531  130.6623  149.5940 LP  0  0  0  0  0  0  0  0  0  0  0  0  # atno 17370 bound_to 10713
  155.9685  130.4532  150.5803 LP  0  0  0  0  0  0  0  0  0  0  0  0  # atno 17371 bound_to 10713
  141.2054  133.7861  157.0236 LP  0  0  0  0  0  0  0  0  0  0  0  0  # atno 17394 bound_to 11000
  140.0830  134.9637  157.1654 LP  0  0  0  0  0  0  0  0  0  0  0  0  # atno 17395 bound_to 11000

$$$$
