AV-unprocessed.smi:2718|AV-procd|sdf|10491|dock1
  -GOLD-   2272014533D 1   1.00000     0.00000
 Structure written by MMmdl.
 47 48  0  0  0  0  0  0  0  0  1 V2000
  145.0971  143.0619  156.0749 C   0  0  0  0  0  0  0  0  0  0  0  0
  145.7386  142.5655  154.7945 C   0  0  0  0  0  0  0  0  0  0  0  0
  145.5375  143.4716  153.5923 C   0  0  0  0  0  0  0  0  0  0  0  0
  146.4284  141.4092  154.7515 C   0  0  0  0  0  0  0  0  0  0  0  0
  147.0955  140.8161  153.5551 C   0  0  1  0  0  0  0  0  0  0  0  0
  148.4046  140.0381  153.6162 C   0  0  1  0  0  0  0  0  0  0  0  0
  149.0705  139.7656  154.9280 C   0  0  0  0  0  0  0  0  0  0  0  0
  148.5717  139.0374  155.7863 O   0  0  0  0  0  0  0  0  0  0  0  0
  150.2879  140.3149  155.0535 N   0  0  0  0  0  0  0  0  0  0  0  0
  151.1544  140.1765  156.2190 C   0  0  0  0  0  0  0  0  0  0  0  0
  151.1144  141.4179  157.1347 C   0  0  1  0  0  0  0  0  0  0  0  0
  149.7164  141.6926  157.7166 C   0  0  0  0  0  0  0  0  0  0  0  0
  152.1483  141.3190  158.2215 C   0  0  0  0  0  0  0  0  0  0  0  0
  152.9891  140.2837  158.3526 N   0  0  0  0  0  0  0  0  0  0  0  0
  153.7793  140.5785  159.4451 N   0  0  0  0  0  0  0  0  0  0  0  0
  153.3424  141.7651  159.8634 C   0  0  0  0  0  0  0  0  0  0  0  0
  152.3338  142.2839  159.1474 N   0  0  0  0  0  0  0  0  0  0  0  0
  151.6504  143.5476  159.3396 C   0  0  0  0  0  0  0  0  0  0  0  0
  147.0987  139.3224  153.2775 C   0  0  0  0  0  0  0  0  0  0  0  0
  146.4079  138.3523  154.2341 C   0  0  0  0  0  0  0  0  0  0  0  0
  146.8988  138.8410  151.8510 C   0  0  0  0  0  0  0  0  0  0  0  0
  144.0206  143.1699  155.9405 H   0  0  0  0  0  0  0  0  0  0  0  0
  145.5078  144.0330  156.3512 H   0  0  0  0  0  0  0  0  0  0  0  0
  145.2682  142.3739  156.9032 H   0  0  0  0  0  0  0  0  0  0  0  0
  145.9367  144.4647  153.8012 H   0  0  0  0  0  0  0  0  0  0  0  0
  144.4746  143.5715  153.3718 H   0  0  0  0  0  0  0  0  0  0  0  0
  146.0326  143.0963  152.6971 H   0  0  0  0  0  0  0  0  0  0  0  0
  146.5092  140.8365  155.6633 H   0  0  0  0  0  0  0  0  0  0  0  0
  146.9777  141.4664  152.6902 H   0  0  0  0  0  0  0  0  0  0  0  0
  149.0966  140.1694  152.7866 H   0  0  0  0  0  0  0  0  0  0  0  0
  150.6344  140.8796  154.2913 H   0  0  0  0  0  0  0  0  0  0  0  0
  150.8423  139.2899  156.7717 H   0  0  0  0  0  0  0  0  0  0  0  0
  152.1769  139.9851  155.8884 H   0  0  0  0  0  0  0  0  0  0  0  0
  151.3608  142.2804  156.5162 H   0  0  0  0  0  0  0  0  0  0  0  0
  149.7205  142.5954  158.3282 H   0  0  0  0  0  0  0  0  0  0  0  0
  149.3779  140.8674  158.3440 H   0  0  0  0  0  0  0  0  0  0  0  0
  148.9754  141.8369  156.9304 H   0  0  0  0  0  0  0  0  0  0  0  0
  153.7736  142.2712  160.7148 H   0  0  0  0  0  0  0  0  0  0  0  0
  152.0806  144.0825  160.1866 H   0  0  0  0  0  0  0  0  0  0  0  0
  150.5927  143.3688  159.5347 H   0  0  0  0  0  0  0  0  0  0  0  0
  151.7531  144.1617  158.4444 H   0  0  0  0  0  0  0  0  0  0  0  0
  146.8383  137.3554  154.1349 H   0  0  0  0  0  0  0  0  0  0  0  0
  145.3434  138.2919  154.0063 H   0  0  0  0  0  0  0  0  0  0  0  0
  146.5099  138.6593  155.2747 H   0  0  0  0  0  0  0  0  0  0  0  0
  147.3247  137.8455  151.7229 H   0  0  0  0  0  0  0  0  0  0  0  0
  147.3836  139.5138  151.1429 H   0  0  0  0  0  0  0  0  0  0  0  0
  145.8364  138.8003  151.6087 H   0  0  0  0  0  0  0  0  0  0  0  0
  1  2  1  0  0  0  0
  1 22  1  0  0  0  0
  1 23  1  0  0  0  0
  1 24  1  0  0  0  0
  2  3  1  0  0  0  0
  2  4  2  0  0  0  0
  3 25  1  0  0  0  0
  3 26  1  0  0  0  0
  3 27  1  0  0  0  0
  4  5  1  0  0  0  0
  4 28  1  0  0  0  0
  5 19  1  0  0  0  0
  5  6  1  0  0  0  0
  5 29  1  0  0  0  0
  6  7  1  0  0  0  0
  6 19  1  0  0  0  0
  6 30  1  0  0  0  0
  7  8  2  0  0  0  0
  7  9  1  0  0  0  0
  9 10  1  0  0  0  0
  9 31  1  0  0  0  0
 10 11  1  0  0  0  0
 10 32  1  0  0  0  0
 10 33  1  0  0  0  0
 11 12  1  0  0  0  0
 11 13  1  0  0  0  0
 11 34  1  0  0  0  0
 12 35  1  0  0  0  0
 12 36  1  0  0  0  0
 12 37  1  0  0  0  0
 13 17  1  0  0  0  0
 13 14  2  0  0  0  0
 14 15  1  0  0  0  0
 15 16  2  0  0  0  0
 16 17  1  0  0  0  0
 16 38  1  0  0  0  0
 17 18  1  0  0  0  0
 18 39  1  0  0  0  0
 18 40  1  0  0  0  0
 18 41  1  0  0  0  0
 19 20  1  0  0  0  0
 19 21  1  0  0  0  0
 20 42  1  0  0  0  0
 20 43  1  0  0  0  0
 20 44  1  0  0  0  0
 21 45  1  0  0  0  0
 21 46  1  0  0  0  0
 21 47  1  0  0  0  0
M  END
> <s_m_source_file>
AV-unprocessed.smi

> <i_m_source_file_index>
2718

> <i_lp_mmshare_version>
43012

> <i_f3d_flags>
0

> <s_epik_input>
W0NIM11DKFtDSDNdKT1bQ0hdW0NAQEhdKEMxKFtDSDNdKVtDSDNdKVtDQEhdMUMoPU8pW05IXVtDSDJdW0NASF0oW0NIM10pYzJubltjSF1uMltDSDNd

> <s_epik_cmdline>
J2VwaWtfcHl0aG9uJywgJy1waCcsICc3LjAnLCAnLXRuJywgJzgnLCAnLW1hJywgJzIwMCcsICctbWV0YWxfYmluZGluZycsICctaW1hZScsICc8aW5maWxlLm1hZT4nLCAnLW9tYWUnLCAnPG91dGZpbGUubWFlPic=

> <r_lp_tautomer_probability>
1

> <r_epik_Ionization_Penalty>
0.000449586

> <r_epik_Ionization_Penalty_Charging>
0

> <r_epik_Ionization_Penalty_Neutral>
0.000449586

> <r_epik_State_Penalty>
0.000243372

> <r_epik_Charging_Adjusted_Penalty>
0.000243372

> <i_epik_Tot_Q>
0

> <i_epik_Tot_abs_Q>
0

> <r_epik_Metal_State_Penalty>
-0

> <b_epik_Metal_Only>
0

> <s_lp_Force_Field>
OPLS_2005

> <r_lp_Energy>
17.9129

> <b_lp_Chiralities_Consistent>
1

> <s_lp_Variant>
AV-unprocessed.smi:2718-6

> <Gold.Version>
5.8.1

> <Gold.Id.Protein>
6NUR|6NUR_protein|mol2

> <Gold.PLP.Fitness>
41.4558

> <Gold.PLP.PLP>
-39.6668

> <Gold.PLP.part.hbond>
-1.3619

> <Gold.PLP.part.metal>
0.0000

> <Gold.PLP.part.buried>
-1.9729

> <Gold.PLP.part.nonpolar>
-37.3087

> <Gold.PLP.part.repulsive>
0.6381

> <Gold.PLP.ligand.clash>
0.0113

> <Gold.PLP.ligand.torsion>
0.5776

> <Gold.PLP.Chemscore.Hbond>
0.8800

> <Gold.PLP.Chemscore.CHOScore>
0.0000

> <Gold.PLP.Chemscore.Metal>
0.0000

> <Gold.Chemscore.Hbonds>
donor molecule, donor type, donor heavy atom, donor atom, acceptor molecule, acceptor atom, score
      P1  H  7997  8008       L1    14  0.64

> <Gold.PLP.Chemscore.Internal.Correction>
0.3154

> <Gold.Rescore>
     Score         DG    S(hbond)    S(metal)    S(lipo)     H(rot)  DE(clash)    DE(int)     intcor
      7.82      -9.92       0.20        0.00      75.12       1.95       0.05       2.06       ----

> <Gold.Chemscore.Fitness>
7.8205

> <Gold.Chemscore.DG>
-9.9224

> <Gold.Chemscore.ZeroCoef>
-5.4800

> <Gold.Chemscore.Hbond>
0.1957

> <Gold.Chemscore.Metal>
0.0000

> <Gold.Chemscore.Lipo>
75.1214

> <Gold.Chemscore.Internal_Hbond>
0.0000

> <Gold.Chemscore.DEClash>
0.0452

> <Gold.Chemscore.DEInternal>
2.0567

> <Gold.Chemscore.Rot>
1.9533

> <Gold.Chemscore.Internal.Correction>
   9.000000E+99

> <Gold.Chemscore.Hbonds>
donor molecule, donor type, donor heavy atom, donor atom, acceptor molecule, acceptor atom, score
      P1  H  7997  8008       L1    14  0.17

> <Gold.Chemscore.Hbond.Weighted>
-0.6537

> <Gold.Chemscore.Metal.Weighted>
-0.0000

> <Gold.Chemscore.Lipo.Weighted>
-8.7892

> <Gold.Chemscore.Internal_Hbond.Weighted>
0.0000

> <Gold.Chemscore.DEClash.Weighted>
0.0452

> <Gold.Chemscore.DEInternal.Weighted>
2.0567

> <Gold.Chemscore.Rot.Weighted>
5.0005

> <Gold.Chemscore.Internal.Correction.Weighted>
   9.000000E+99

> <Gold.Protein.RotatedTorsions>
[ 6907 6896 6895 6894 ] final   58.14 input  -60.11 | X-H torsion
[ 7974 7965 7964 7962 ] final  -96.65 input  175.53 | X-H torsion
[ 8008 7997 7996 7995 ] final  -69.61 input   59.86 | X-H torsion
[ 10167 10162 10161 10158 ] final   74.22 input  -65.29 | X-H torsion
[ 10718 10713 10712 10709 ] final   24.02 input   66.30 | X-H torsion
[ 10763 10752 10751 10750 ] final  132.56 input  -60.55 | X-H torsion
[ 11005 11000 10999 10996 ] final -140.07 input  -57.11 | X-H torsion

> <Gold.Protein.ActiveResidues>
 VAL166  LYS551  ARG553  GLY616  TRP617  ASP618  TYR619  PRO620  LYS621  CYS622 
 ASP623  PHE694  ASN695  SER759  ASP760  ASP761  ALA762  ILE779  LEU786  VAL792 
 PHE793  MET794  SER795  GLU796  ALA797  LYS798  CYS799  TRP800  GLU811  SER814 

> <Gold.Protein.RotatedAtoms>
  152.3797  134.6609  160.0147 H   0  0  0  0  0  0  0  0  0  0  0  0  # atno 6907 bound_to 6896
  151.6877  133.3306  159.3243 H   0  0  0  0  0  0  0  0  0  0  0  0  # atno 6908 bound_to 6896
  150.7737  134.6662  159.6411 H   0  0  0  0  0  0  0  0  0  0  0  0  # atno 6909 bound_to 6896
  145.3441  140.9465  143.2591 H   0  0  0  0  0  0  0  0  0  0  0  0  # atno 7974 bound_to 7965
  154.4951  140.0850  156.7679 H   0  0  0  0  0  0  0  0  0  0  0  0  # atno 8008 bound_to 7997
  155.4136  140.3442  155.4247 H   0  0  0  0  0  0  0  0  0  0  0  0  # atno 8009 bound_to 7997
  156.1383  140.1521  156.8948 H   0  0  0  0  0  0  0  0  0  0  0  0  # atno 8010 bound_to 7997
  140.0160  144.5577  150.7620 H   0  0  0  0  0  0  0  0  0  0  0  0  # atno 10167 bound_to 10162
  157.1740  130.6772  149.6088 H   0  0  0  0  0  0  0  0  0  0  0  0  # atno 10718 bound_to 10713
  153.7928  135.3153  155.3380 H   0  0  0  0  0  0  0  0  0  0  0  0  # atno 10763 bound_to 10752
  154.8119  135.4661  154.0542 H   0  0  0  0  0  0  0  0  0  0  0  0  # atno 10764 bound_to 10752
  153.1866  135.6902  153.8494 H   0  0  0  0  0  0  0  0  0  0  0  0  # atno 10765 bound_to 10752
  140.8458  134.2346  157.4786 H   0  0  0  0  0  0  0  0  0  0  0  0  # atno 11005 bound_to 11000
  144.8767  139.4961  143.6742 LP  0  0  0  0  0  0  0  0  0  0  0  0  # atno 17320 bound_to 7965
  146.2995  139.7382  142.9102 LP  0  0  0  0  0  0  0  0  0  0  0  0  # atno 17321 bound_to 7965
  140.7362  143.2750  151.3770 LP  0  0  0  0  0  0  0  0  0  0  0  0  # atno 17342 bound_to 10162
  139.6172  144.0979  152.2357 LP  0  0  0  0  0  0  0  0  0  0  0  0  # atno 17343 bound_to 10162
  155.9734  130.4669  150.6306 LP  0  0  0  0  0  0  0  0  0  0  0  0  # atno 17370 bound_to 10713
  157.4016  131.0810  151.1303 LP  0  0  0  0  0  0  0  0  0  0  0  0  # atno 17371 bound_to 10713
  139.8703  134.9658  156.4542 LP  0  0  0  0  0  0  0  0  0  0  0  0  # atno 17394 bound_to 11000
  140.8845  133.7893  155.9503 LP  0  0  0  0  0  0  0  0  0  0  0  0  # atno 17395 bound_to 11000

$$$$
