AV-unprocessed.smi:1410|AV-procd|sdf|5734|dock7
  -GOLD-   22720 5363D 1   1.00000     0.00000
 Structure written by MMmdl.
 41 42  0  0  0  0  0  0  0  0  3 V2000
  142.3411  140.8812  154.7884 N   0  0  0  0  0  0  0  0  0  0  0  0
  142.8277  141.8026  155.6228 C   0  0  0  0  0  0  0  0  0  0  0  0
  142.4610  141.8857  156.7938 O   0  0  0  0  0  0  0  0  0  0  0  0
  143.8911  142.7520  155.0607 C   0  0  0  0  0  0  0  0  0  0  0  0
  145.1046  142.0432  154.5788 N   0  3  2  0  0  0  0  0  0  0  0  0
  145.8020  141.2837  155.6507 C   0  0  0  0  0  0  0  0  0  0  0  0
  146.9584  140.4486  155.0740 C   0  0  0  0  0  0  0  0  0  0  0  0
  147.9591  141.3132  154.2808 C   0  0  2  0  0  0  0  0  0  0  0  0
  148.7555  142.1755  155.1546 N   0  0  0  0  0  0  0  0  0  0  0  0
  149.6198  141.7462  156.0864 C   0  0  0  0  0  0  0  0  0  0  0  0
  149.8131  140.5563  156.3322 O   0  0  0  0  0  0  0  0  0  0  0  0
  150.2174  142.7770  156.7098 N   0  0  0  0  0  0  0  0  0  0  0  0
  151.1808  142.7470  157.7558 C   0  0  0  0  0  0  0  0  0  0  0  0
  151.8165  143.9637  158.0905 C   0  0  0  0  0  0  0  0  0  0  0  0
  152.7872  143.9849  159.1126 C   0  0  0  0  0  0  0  0  0  0  0  0
  153.1088  142.8434  159.7579 N   0  3  0  0  0  0  0  0  0  0  0  0
  152.5399  141.6546  159.4649 C   0  0  0  0  0  0  0  0  0  0  0  0
  151.5633  141.5711  158.4514 C   0  0  0  0  0  0  0  0  0  0  0  0
  147.2054  142.1527  153.2343 C   0  0  0  0  0  0  0  0  0  0  0  0
  146.0373  142.9425  153.8534 C   0  0  0  0  0  0  0  0  0  0  0  0
  141.6405  140.2303  155.1147 H   0  0  0  0  0  0  0  0  0  0  0  0
  142.6731  140.8310  153.8360 H   0  0  0  0  0  0  0  0  0  0  0  0
  143.4231  143.2842  154.2315 H   0  0  0  0  0  0  0  0  0  0  0  0
  144.1651  143.5053  155.8014 H   0  0  0  0  0  0  0  0  0  0  0  0
  146.1757  141.9753  156.4072 H   0  0  0  0  0  0  0  0  0  0  0  0
  145.1012  140.6180  156.1554 H   0  0  0  0  0  0  0  0  0  0  0  0
  147.4641  139.9066  155.8740 H   0  0  0  0  0  0  0  0  0  0  0  0
  146.5459  139.6856  154.4123 H   0  0  0  0  0  0  0  0  0  0  0  0
  148.6471  140.6532  153.7491 H   0  0  0  0  0  0  0  0  0  0  0  0
  148.6601  143.1716  155.0202 H   0  0  0  0  0  0  0  0  0  0  0  0
  149.9031  143.6977  156.4403 H   0  0  0  0  0  0  0  0  0  0  0  0
  151.5613  144.8779  157.5741 H   0  0  0  0  0  0  0  0  0  0  0  0
  153.3129  144.8736  159.4299 H   0  0  0  0  0  0  0  0  0  0  0  0
  152.8843  140.8091  160.0425 H   0  0  0  0  0  0  0  0  0  0  0  0
  151.1388  140.6057  158.2236 H   0  0  0  0  0  0  0  0  0  0  0  0
  147.8914  142.8325  152.7272 H   0  0  0  0  0  0  0  0  0  0  0  0
  146.8129  141.4896  152.4621 H   0  0  0  0  0  0  0  0  0  0  0  0
  145.5020  143.4640  153.0590 H   0  0  0  0  0  0  0  0  0  0  0  0
  146.4118  143.7070  154.5358 H   0  0  0  0  0  0  0  0  0  0  0  0
  144.7792  141.3661  153.9028 H   0  0  0  0  0  0  0  0  0  0  0  0
  153.8141  142.8798  160.4943 H   0  0  0  0  0  0  0  0  0  0  0  0
  1  2  1  0  0  0  0
  1 21  1  0  0  0  0
  1 22  1  0  0  0  0
  2  3  2  0  0  0  0
  2  4  1  0  0  0  0
  4  5  1  0  0  0  0
  4 23  1  0  0  0  0
  4 24  1  0  0  0  0
  5 20  1  0  0  0  0
  5  6  1  0  0  0  0
  5 40  1  0  0  0  0
  6  7  1  0  0  0  0
  6 25  1  0  0  0  0
  6 26  1  0  0  0  0
  7  8  1  0  0  0  0
  7 27  1  0  0  0  0
  7 28  1  0  0  0  0
  8  9  1  0  0  0  0
  8 19  1  0  0  0  0
  8 29  1  0  0  0  0
  9 10  1  0  0  0  0
  9 30  1  0  0  0  0
 10 11  2  0  0  0  0
 10 12  1  0  0  0  0
 12 13  1  0  0  0  0
 12 31  1  0  0  0  0
 13 18  1  0  0  0  0
 13 14  2  0  0  0  0
 14 15  1  0  0  0  0
 14 32  1  0  0  0  0
 15 16  2  0  0  0  0
 15 33  1  0  0  0  0
 16 17  1  0  0  0  0
 16 41  1  0  0  0  0
 17 18  2  0  0  0  0
 17 34  1  0  0  0  0
 18 35  1  0  0  0  0
 19 20  1  0  0  0  0
 19 36  1  0  0  0  0
 19 37  1  0  0  0  0
 20 38  1  0  0  0  0
 20 39  1  0  0  0  0
M  CHG  1   5   1
M  CHG  1  16   1
M  END
> <s_m_source_file>
AV-unprocessed.smi

> <i_m_source_file_index>
1410

> <i_lp_mmshare_version>
43012

> <i_f3d_flags>
0

> <s_epik_input>
W05IMl1DKD1PKVtDSDJdTjFbQ0gyXVtDSDJdW0NIXShbQ0gyXVtDSDJdMSlbTkhdQyg9TylbTkhdYzJbY0hdW2NIXW5bY0hdW2NIXTI=

> <s_epik_cmdline>
J2VwaWtfcHl0aG9uJywgJy1waCcsICc3LjAnLCAnLXRuJywgJzgnLCAnLW1hJywgJzIwMCcsICctbWV0YWxfYmluZGluZycsICctaW1hZScsICc8aW5maWxlLm1hZT4nLCAnLW9tYWUnLCAnPG91dGZpbGUubWFlPic=

> <r_epik_Ionization_Penalty>
1.97414

> <r_epik_Ionization_Penalty_Charging>
1.97408

> <r_epik_Ionization_Penalty_Neutral>
5.94508e-05

> <r_epik_State_Penalty>
2.00676

> <r_epik_Charging_Adjusted_Penalty>
3.98084

> <i_epik_Tot_Q>
2

> <i_epik_Tot_abs_Q>
2

> <r_epik_Metal_State_Penalty>
2.12108

> <b_epik_Metal_Only>
0

> <s_lp_Force_Field>
OPLS_2005

> <r_lp_Energy>
26.1476

> <b_lp_Chiralities_Consistent>
1

> <s_lp_Variant>
AV-unprocessed.smi:1410-6

> <Gold.Version>
5.8.1

> <Gold.Id.Protein>
6NUR|6NUR_protein|mol2

> <Gold.PLP.Fitness>
47.8493

> <Gold.PLP.PLP>
-32.9567

> <Gold.PLP.part.hbond>
-4.0000

> <Gold.PLP.part.metal>
0.0000

> <Gold.PLP.part.buried>
-5.8502

> <Gold.PLP.part.nonpolar>
-23.9980

> <Gold.PLP.part.repulsive>
0.3234

> <Gold.PLP.ligand.clash>
0.0000

> <Gold.PLP.ligand.torsion>
0.0664

> <Gold.PLP.Chemscore.Hbond>
5.0000

> <Gold.PLP.Chemscore.CHOScore>
0.0000

> <Gold.PLP.Chemscore.Metal>
0.0000

> <Gold.Chemscore.Hbonds>
donor molecule, donor type, donor heavy atom, donor atom, acceptor molecule, acceptor atom, score
      L1  H     1    22       P1 10175  1.00
      L1  H     5    40       P1 10175  2.00
      L1  H     9    30       P1  8028  0.98
      L1  H    12    31       P1  8028  1.00

> <Gold.PLP.Chemscore.Internal.Correction>
0.0255

> <Gold.Rescore>
     Score         DG    S(hbond)    S(metal)    S(lipo)     H(rot)  DE(clash)    DE(int)     intcor
     19.90     -22.33       3.79        0.00      79.38       1.99       1.14       1.29       ----

> <Gold.Chemscore.Fitness>
19.8966

> <Gold.Chemscore.DG>
-22.3264

> <Gold.Chemscore.ZeroCoef>
-5.4800

> <Gold.Chemscore.Hbond>
3.7878

> <Gold.Chemscore.Metal>
0.0000

> <Gold.Chemscore.Lipo>
79.3847

> <Gold.Chemscore.Internal_Hbond>
0.0000

> <Gold.Chemscore.DEClash>
1.1418

> <Gold.Chemscore.DEInternal>
1.2880

> <Gold.Chemscore.Rot>
1.9894

> <Gold.Chemscore.Internal.Correction>
   9.000000E+99

> <Gold.Chemscore.Hbonds>
donor molecule, donor type, donor heavy atom, donor atom, acceptor molecule, acceptor atom, score
      L1  H     1    22       P1 10175  0.30
      L1  H     5    40       P1 10175  0.38
      L1  H     9    30       P1  8028  0.93
      L1  H    12    31       P1  8028  0.97

> <Gold.Chemscore.Hbond.Weighted>
-12.6511

> <Gold.Chemscore.Metal.Weighted>
-0.0000

> <Gold.Chemscore.Lipo.Weighted>
-9.2880

> <Gold.Chemscore.Internal_Hbond.Weighted>
0.0000

> <Gold.Chemscore.DEClash.Weighted>
1.1418

> <Gold.Chemscore.DEInternal.Weighted>
1.2880

> <Gold.Chemscore.Rot.Weighted>
5.0927

> <Gold.Chemscore.Internal.Correction.Weighted>
   9.000000E+99

> <Gold.Protein.RotatedTorsions>
[ 6907 6896 6895 6894 ] final    3.97 input  -60.11 | X-H torsion
[ 7974 7965 7964 7962 ] final   12.45 input  175.53 | X-H torsion
[ 8008 7997 7996 7995 ] final   37.98 input   59.86 | X-H torsion
[ 10167 10162 10161 10158 ] final    3.74 input  -65.29 | X-H torsion
[ 10718 10713 10712 10709 ] final   74.69 input   66.30 | X-H torsion
[ 10763 10752 10751 10750 ] final -107.72 input  -60.55 | X-H torsion
[ 11005 11000 10999 10996 ] final -171.36 input  -57.11 | X-H torsion

> <Gold.Protein.ActiveResidues>
 VAL166  LYS551  ARG553  GLY616  TRP617  ASP618  TYR619  PRO620  LYS621  CYS622 
 ASP623  PHE694  ASN695  SER759  ASP760  ASP761  ALA762  ILE779  LEU786  VAL792 
 PHE793  MET794  SER795  GLU796  ALA797  LYS798  CYS799  TRP800  GLU811  SER814 

> <Gold.Protein.RotatedAtoms>
  151.6337  135.1020  160.0126 H   0  0  0  0  0  0  0  0  0  0  0  0  # atno 6907 bound_to 6896
  152.4092  133.6933  159.6392 H   0  0  0  0  0  0  0  0  0  0  0  0  # atno 6908 bound_to 6896
  150.7984  133.8571  159.3262 H   0  0  0  0  0  0  0  0  0  0  0  0  # atno 6909 bound_to 6896
  146.2351  139.9335  142.8493 H   0  0  0  0  0  0  0  0  0  0  0  0  # atno 7974 bound_to 7965
  155.2127  140.3324  155.4326 H   0  0  0  0  0  0  0  0  0  0  0  0  # atno 8008 bound_to 7997
  156.2364  140.1874  156.7156 H   0  0  0  0  0  0  0  0  0  0  0  0  # atno 8009 bound_to 7997
  154.6067  140.0615  156.9426 H   0  0  0  0  0  0  0  0  0  0  0  0  # atno 8010 bound_to 7997
  140.6571  143.7400  150.7672 H   0  0  0  0  0  0  0  0  0  0  0  0  # atno 10167 bound_to 10162
  157.6603  130.9690  150.1247 H   0  0  0  0  0  0  0  0  0  0  0  0  # atno 10718 bound_to 10713
  154.8092  135.4664  154.0472 H   0  0  0  0  0  0  0  0  0  0  0  0  # atno 10763 bound_to 10752
  153.1916  135.6856  153.8351 H   0  0  0  0  0  0  0  0  0  0  0  0  # atno 10764 bound_to 10752
  153.7867  135.3249  155.3350 H   0  0  0  0  0  0  0  0  0  0  0  0  # atno 10765 bound_to 10752
  140.5091  134.5819  157.5013 H   0  0  0  0  0  0  0  0  0  0  0  0  # atno 11005 bound_to 11000
  145.2021  140.9859  143.4150 LP  0  0  0  0  0  0  0  0  0  0  0  0  # atno 17320 bound_to 7965
  144.9765  139.3827  143.6283 LP  0  0  0  0  0  0  0  0  0  0  0  0  # atno 17321 bound_to 7965
  140.1062  143.4742  152.2397 LP  0  0  0  0  0  0  0  0  0  0  0  0  # atno 17342 bound_to 10162
  139.5795  144.7504  151.3676 LP  0  0  0  0  0  0  0  0  0  0  0  0  # atno 17343 bound_to 10162
  156.2109  130.3666  149.8672 LP  0  0  0  0  0  0  0  0  0  0  0  0  # atno 17370 bound_to 10713
  156.6550  130.8759  151.3538 LP  0  0  0  0  0  0  0  0  0  0  0  0  # atno 17371 bound_to 10713
  139.9669  134.7358  156.0120 LP  0  0  0  0  0  0  0  0  0  0  0  0  # atno 17394 bound_to 11000
  141.1395  133.6568  156.3688 LP  0  0  0  0  0  0  0  0  0  0  0  0  # atno 17395 bound_to 11000

$$$$
