AV-unprocessed.smi:2217|AV-procd|sdf|8968|dock6
  -GOLD-   2272012183D 1   1.00000     0.00000
 Structure written by MMmdl.
 45 48  0  0  0  0  0  0  0  0  1 V2000
  143.8643  132.5199  151.0224 C   0  0  0  0  0  0  0  0  0  0  0  0
  144.1938  133.9570  151.3681 C   0  0  0  0  0  0  0  0  0  0  0  0
  143.3424  134.7198  152.1888 C   0  0  0  0  0  0  0  0  0  0  0  0
  143.6962  136.0507  152.4826 C   0  0  0  0  0  0  0  0  0  0  0  0
  144.8894  136.5911  151.9521 C   0  0  0  0  0  0  0  0  0  0  0  0
  145.1407  137.9447  152.3253 N   0  0  0  0  0  0  0  0  0  0  0  0
  146.2854  138.5885  152.6391 C   0  0  0  0  0  0  0  0  0  0  0  0
  147.3660  138.0016  152.6321 O   0  0  0  0  0  0  0  0  0  0  0  0
  146.1689  139.8884  152.9499 N   0  0  0  0  0  0  0  0  0  0  0  0
  147.2805  140.7836  153.2425 C   0  0  2  0  0  0  0  0  0  0  0  0
  148.2720  140.1760  154.2346 C   0  0  1  0  0  0  0  0  0  0  0  0
  149.6810  139.7102  154.1420 C   0  0  0  0  0  0  0  0  0  0  0  0
  150.2257  140.4169  155.4109 C   0  0  0  0  0  0  0  0  0  0  0  0
  149.1805  141.3215  155.8418 O   0  0  0  0  0  0  0  0  0  0  0  0
  148.4764  141.6184  154.6529 C   0  0  2  0  0  0  0  0  0  0  0  0
  146.9710  141.8231  154.3867 C   0  0  0  0  0  0  0  0  0  0  0  0
  146.5287  143.2236  153.9401 C   0  0  0  0  0  0  0  0  0  0  0  0
  145.3483  143.6629  154.8096 C   0  0  0  0  0  0  0  0  0  0  0  0
  144.7622  142.3665  155.3498 C   0  0  0  0  0  0  0  0  0  0  0  0
  145.9780  141.4602  155.5110 C   0  0  0  0  0  0  0  0  0  0  0  0
  145.7045  135.8432  151.1650 N   0  0  0  0  0  0  0  0  0  0  0  0
  145.3657  134.5677  150.8830 C   0  0  0  0  0  0  0  0  0  0  0  0
  142.7878  132.3490  151.0532 H   0  0  0  0  0  0  0  0  0  0  0  0
  144.3411  131.8440  151.7324 H   0  0  0  0  0  0  0  0  0  0  0  0
  144.2179  132.2724  150.0211 H   0  0  0  0  0  0  0  0  0  0  0  0
  142.4329  134.2958  152.5889 H   0  0  0  0  0  0  0  0  0  0  0  0
  143.0524  136.6483  153.1119 H   0  0  0  0  0  0  0  0  0  0  0  0
  144.3102  138.5123  152.4086 H   0  0  0  0  0  0  0  0  0  0  0  0
  145.2438  140.2950  152.9380 H   0  0  0  0  0  0  0  0  0  0  0  0
  147.7587  141.2122  152.3566 H   0  0  0  0  0  0  0  0  0  0  0  0
  147.7430  139.5908  154.9933 H   0  0  0  0  0  0  0  0  0  0  0  0
  149.7729  138.6251  154.1945 H   0  0  0  0  0  0  0  0  0  0  0  0
  150.1697  140.0667  153.2342 H   0  0  0  0  0  0  0  0  0  0  0  0
  150.4467  139.7080  156.2093 H   0  0  0  0  0  0  0  0  0  0  0  0
  151.1387  140.9696  155.1855 H   0  0  0  0  0  0  0  0  0  0  0  0
  149.1033  142.1981  153.9655 H   0  0  0  0  0  0  0  0  0  0  0  0
  147.3404  143.9487  154.0046 H   0  0  0  0  0  0  0  0  0  0  0  0
  146.2176  143.2035  152.8955 H   0  0  0  0  0  0  0  0  0  0  0  0
  145.7134  144.2694  155.6395 H   0  0  0  0  0  0  0  0  0  0  0  0
  144.6183  144.2575  154.2596 H   0  0  0  0  0  0  0  0  0  0  0  0
  144.2103  142.5054  156.2794 H   0  0  0  0  0  0  0  0  0  0  0  0
  144.0804  141.9366  154.6148 H   0  0  0  0  0  0  0  0  0  0  0  0
  145.6759  140.4128  155.5086 H   0  0  0  0  0  0  0  0  0  0  0  0
  146.4371  141.6478  156.4825 H   0  0  0  0  0  0  0  0  0  0  0  0
  146.0518  134.0210  150.2525 H   0  0  0  0  0  0  0  0  0  0  0  0
  1  2  1  0  0  0  0
  1 23  1  0  0  0  0
  1 24  1  0  0  0  0
  1 25  1  0  0  0  0
  2 22  1  0  0  0  0
  2  3  2  0  0  0  0
  3  4  1  0  0  0  0
  3 26  1  0  0  0  0
  4  5  2  0  0  0  0
  4 27  1  0  0  0  0
  5  6  1  0  0  0  0
  5 21  1  0  0  0  0
  6  7  1  0  0  0  0
  6 28  1  0  0  0  0
  7  8  2  0  0  0  0
  7  9  1  0  0  0  0
  9 10  1  0  0  0  0
  9 29  1  0  0  0  0
 10 16  1  0  0  0  0
 10 11  1  0  0  0  0
 10 30  1  0  0  0  0
 11 15  1  0  0  0  0
 11 12  1  0  0  0  0
 11 31  1  0  0  0  0
 12 13  1  0  0  0  0
 12 32  1  0  0  0  0
 12 33  1  0  0  0  0
 13 14  1  0  0  0  0
 13 34  1  0  0  0  0
 13 35  1  0  0  0  0
 14 15  1  0  0  0  0
 15 16  1  0  0  0  0
 15 36  1  0  0  0  0
 16 20  1  0  0  0  0
 16 17  1  0  0  0  0
 17 18  1  0  0  0  0
 17 37  1  0  0  0  0
 17 38  1  0  0  0  0
 18 19  1  0  0  0  0
 18 39  1  0  0  0  0
 18 40  1  0  0  0  0
 19 20  1  0  0  0  0
 19 41  1  0  0  0  0
 19 42  1  0  0  0  0
 20 43  1  0  0  0  0
 20 44  1  0  0  0  0
 21 22  2  0  0  0  0
 22 45  1  0  0  0  0
M  END
> <s_m_source_file>
AV-unprocessed.smi

> <i_m_source_file_index>
2217

> <i_lp_mmshare_version>
43012

> <i_f3d_flags>
0

> <s_epik_input>
W0NIM11jMVtjSF1bY0hdYyhuW2NIXTEpW05IXUMoPU8pW05IXVtDQEBIXTJbQ0BASF0oW0NIMl1bQ0gyXU8zKVtDQEhdM0MyNFtDSDJdW0NIMl1bQ0gyXVtDSDJdNA==

> <s_epik_cmdline>
J2VwaWtfcHl0aG9uJywgJy1waCcsICc3LjAnLCAnLXRuJywgJzgnLCAnLW1hJywgJzIwMCcsICctbWV0YWxfYmluZGluZycsICctaW1hZScsICc8aW5maWxlLm1hZT4nLCAnLW9tYWUnLCAnPG91dGZpbGUubWFlPic=

> <r_lp_tautomer_probability>
1

> <r_epik_Ionization_Penalty>
6.14796e-05

> <r_epik_Ionization_Penalty_Charging>
0

> <r_epik_Ionization_Penalty_Neutral>
6.14796e-05

> <r_epik_State_Penalty>
-0

> <r_epik_Charging_Adjusted_Penalty>
0

> <i_epik_Tot_Q>
0

> <i_epik_Tot_abs_Q>
0

> <r_epik_Metal_State_Penalty>
-0

> <b_epik_Metal_Only>
0

> <s_lp_Force_Field>
OPLS_2005

> <r_lp_Energy>
79.4862

> <b_lp_Chiralities_Consistent>
1

> <s_lp_Variant>
AV-unprocessed.smi:2217-1

> <Gold.Version>
5.8.1

> <Gold.Id.Protein>
6NUR|6NUR_protein|mol2

> <Gold.PLP.Fitness>
43.5881

> <Gold.PLP.PLP>
-36.4195

> <Gold.PLP.part.hbond>
-3.0000

> <Gold.PLP.part.metal>
0.0000

> <Gold.PLP.part.buried>
-1.1231

> <Gold.PLP.part.nonpolar>
-35.9480

> <Gold.PLP.part.repulsive>
4.5917

> <Gold.PLP.ligand.clash>
0.0000

> <Gold.PLP.ligand.torsion>
0.5095

> <Gold.PLP.Chemscore.Hbond>
1.8480

> <Gold.PLP.Chemscore.CHOScore>
0.7874

> <Gold.PLP.Chemscore.Metal>
0.0000

> <Gold.Chemscore.Hbonds>
donor molecule, donor type, donor heavy atom, donor atom, acceptor molecule, acceptor atom, score
      L1  H     6    28       P1 10175  0.86
      L1  H     9    29       P1 10175  1.00
      L1  C    22    45       P1  7921  0.36

> <Gold.PLP.Chemscore.Internal.Correction>
0.2814

> <Gold.Rescore>
     Score         DG    S(hbond)    S(metal)    S(lipo)     H(rot)  DE(clash)    DE(int)     intcor
     14.55     -19.10       1.83        0.00      86.04       1.00       2.11       2.44       ----

> <Gold.Chemscore.Fitness>
14.5491

> <Gold.Chemscore.DG>
-19.0988

> <Gold.Chemscore.ZeroCoef>
-5.4800

> <Gold.Chemscore.Hbond>
1.8298

> <Gold.Chemscore.Metal>
0.0000

> <Gold.Chemscore.Lipo>
86.0448

> <Gold.Chemscore.Internal_Hbond>
0.0000

> <Gold.Chemscore.DEClash>
2.1063

> <Gold.Chemscore.DEInternal>
2.4434

> <Gold.Chemscore.Rot>
1.0000

> <Gold.Chemscore.Internal.Correction>
   9.000000E+99

> <Gold.Chemscore.Hbonds>
donor molecule, donor type, donor heavy atom, donor atom, acceptor molecule, acceptor atom, score
      L1  H     6    28       P1 10175  0.78
      L1  H     9    29       P1 10175  0.95

> <Gold.Chemscore.Hbond.Weighted>
-6.1115

> <Gold.Chemscore.Metal.Weighted>
-0.0000

> <Gold.Chemscore.Lipo.Weighted>
-10.0672

> <Gold.Chemscore.Internal_Hbond.Weighted>
0.0000

> <Gold.Chemscore.DEClash.Weighted>
2.1063

> <Gold.Chemscore.DEInternal.Weighted>
2.4434

> <Gold.Chemscore.Rot.Weighted>
2.5600

> <Gold.Chemscore.Internal.Correction.Weighted>
   9.000000E+99

> <Gold.Protein.RotatedTorsions>
[ 6907 6896 6895 6894 ] final -178.28 input  -60.11 | X-H torsion
[ 7974 7965 7964 7962 ] final  154.41 input  175.53 | X-H torsion
[ 8008 7997 7996 7995 ] final  178.22 input   59.86 | X-H torsion
[ 10167 10162 10161 10158 ] final -136.35 input  -65.29 | X-H torsion
[ 10718 10713 10712 10709 ] final  153.16 input   66.30 | X-H torsion
[ 10763 10752 10751 10750 ] final  -92.69 input  -60.55 | X-H torsion
[ 11005 11000 10999 10996 ] final -151.66 input  -57.11 | X-H torsion

> <Gold.Protein.ActiveResidues>
 VAL166  LYS551  ARG553  GLY616  TRP617  ASP618  TYR619  PRO620  LYS621  CYS622 
 ASP623  PHE694  ASN695  SER759  ASP760  ASP761  ALA762  ILE779  LEU786  VAL792 
 PHE793  MET794  SER795  GLU796  ALA797  LYS798  CYS799  TRP800  GLU811  SER814 

> <Gold.Protein.RotatedAtoms>
  151.6346  133.3330  159.3116 H   0  0  0  0  0  0  0  0  0  0  0  0  # atno 6907 bound_to 6896
  150.8039  134.7155  159.6637 H   0  0  0  0  0  0  0  0  0  0  0  0  # atno 6908 bound_to 6896
  152.4133  134.6090  160.0072 H   0  0  0  0  0  0  0  0  0  0  0  0  # atno 6909 bound_to 6896
  144.8090  139.6930  143.6149 H   0  0  0  0  0  0  0  0  0  0  0  0  # atno 7974 bound_to 7965
  156.0570  140.1339  156.9985 H   0  0  0  0  0  0  0  0  0  0  0  0  # atno 8008 bound_to 7997
  154.4463  140.0999  156.6531 H   0  0  0  0  0  0  0  0  0  0  0  0  # atno 8009 bound_to 7997
  155.5436  140.3461  155.4454 H   0  0  0  0  0  0  0  0  0  0  0  0  # atno 8010 bound_to 7997
  139.8686  143.6985  152.2642 H   0  0  0  0  0  0  0  0  0  0  0  0  # atno 10167 bound_to 10162
  157.2484  131.0773  151.1746 H   0  0  0  0  0  0  0  0  0  0  0  0  # atno 10718 bound_to 10713
  154.6886  135.5222  153.8361 H   0  0  0  0  0  0  0  0  0  0  0  0  # atno 10763 bound_to 10752
  153.0616  135.6570  154.0460 H   0  0  0  0  0  0  0  0  0  0  0  0  # atno 10764 bound_to 10752
  154.0337  135.2983  155.3344 H   0  0  0  0  0  0  0  0  0  0  0  0  # atno 10765 bound_to 10752
  140.7272  134.3661  157.5173 H   0  0  0  0  0  0  0  0  0  0  0  0  # atno 11005 bound_to 11000
  146.2386  139.5956  142.9506 LP  0  0  0  0  0  0  0  0  0  0  0  0  # atno 17320 bound_to 7965
  145.5368  141.0423  143.2352 LP  0  0  0  0  0  0  0  0  0  0  0  0  # atno 17321 bound_to 7965
  139.7305  144.7583  151.0810 LP  0  0  0  0  0  0  0  0  0  0  0  0  # atno 17342 bound_to 10162
  140.7764  143.5094  150.9671 LP  0  0  0  0  0  0  0  0  0  0  0  0  # atno 17343 bound_to 10162
  157.3304  130.6982  149.6321 LP  0  0  0  0  0  0  0  0  0  0  0  0  # atno 17370 bound_to 10713
  155.9667  130.4309  150.4896 LP  0  0  0  0  0  0  0  0  0  0  0  0  # atno 17371 bound_to 10713
  139.8834  134.8994  156.2767 LP  0  0  0  0  0  0  0  0  0  0  0  0  # atno 17394 bound_to 11000
  140.9952  133.7184  156.0875 LP  0  0  0  0  0  0  0  0  0  0  0  0  # atno 17395 bound_to 11000

$$$$
