AV-unprocessed.smi:2204|AV-procd|sdf|8937|dock5
  -GOLD-   2272012153D 1   1.00000     0.00000
 Structure written by MMmdl.
 39 40  0  0  0  0  0  0  0  0  1 V2000
  153.9747  141.3485  160.8275 C   0  0  0  0  0  0  0  0  0  0  0  0
  153.0607  142.3285  160.1536 C   0  0  0  0  0  0  0  0  0  0  0  0
  152.4925  143.5170  160.6913 C   0  0  0  0  0  0  0  0  0  0  0  0
  151.7408  144.0245  159.6693 C   0  0  0  0  0  0  0  0  0  0  0  0
  150.8969  145.2555  159.6142 C   0  0  0  0  0  0  0  0  0  0  0  0
  151.8839  143.1594  158.5982 N   0  0  0  0  0  0  0  0  0  0  0  0
  151.2947  143.2344  157.2697 C   0  0  0  0  0  0  0  0  0  0  0  0
  150.6992  141.8932  156.8294 C   0  0  0  0  0  0  0  0  0  0  0  0
  151.2394  140.8350  157.1530 O   0  0  0  0  0  0  0  0  0  0  0  0
  149.5726  141.9561  156.1016 N   0  0  0  0  0  0  0  0  0  0  0  0
  148.8234  140.8155  155.5764 C   0  0  2  0  0  0  0  0  0  0  0  0
  149.6469  140.1592  154.4582 C   0  0  0  0  0  0  0  0  0  0  0  0
  147.4323  141.2602  155.0760 C   0  0  2  0  0  0  0  0  0  0  0  0
  147.4444  142.3132  153.9650 C   0  0  0  0  0  0  0  0  0  0  0  0
  146.0808  142.9433  154.1238 C   0  0  0  0  0  0  0  0  0  0  0  0
  145.9273  142.9672  155.6411 C   0  0  0  0  0  0  0  0  0  0  0  0
  146.6905  141.8677  156.1321 O   0  0  0  0  0  0  0  0  0  0  0  0
  152.6944  142.1212  158.8994 N   0  0  0  0  0  0  0  0  0  0  0  0
  154.2471  141.6872  161.8273 H   0  0  0  0  0  0  0  0  0  0  0  0
  154.8964  141.2152  160.2603 H   0  0  0  0  0  0  0  0  0  0  0  0
  153.4984  140.3729  160.9261 H   0  0  0  0  0  0  0  0  0  0  0  0
  152.6157  143.9331  161.6802 H   0  0  0  0  0  0  0  0  0  0  0  0
  150.8517  145.7404  160.5895 H   0  0  0  0  0  0  0  0  0  0  0  0
  149.8771  145.0166  159.3128 H   0  0  0  0  0  0  0  0  0  0  0  0
  151.3034  145.9730  158.9015 H   0  0  0  0  0  0  0  0  0  0  0  0
  150.5119  143.9929  157.2663 H   0  0  0  0  0  0  0  0  0  0  0  0
  152.0579  143.5659  156.5636 H   0  0  0  0  0  0  0  0  0  0  0  0
  149.2044  142.8717  155.8886 H   0  0  0  0  0  0  0  0  0  0  0  0
  148.6873  140.0713  156.3631 H   0  0  0  0  0  0  0  0  0  0  0  0
  149.1396  139.2816  154.0571 H   0  0  0  0  0  0  0  0  0  0  0  0
  150.6201  139.8330  154.8267 H   0  0  0  0  0  0  0  0  0  0  0  0
  149.8179  140.8502  153.6318 H   0  0  0  0  0  0  0  0  0  0  0  0
  146.8644  140.3941  154.7318 H   0  0  0  0  0  0  0  0  0  0  0  0
  148.2201  143.0585  154.1477 H   0  0  0  0  0  0  0  0  0  0  0  0
  147.6047  141.8868  152.9743 H   0  0  0  0  0  0  0  0  0  0  0  0
  146.0083  143.9329  153.6716 H   0  0  0  0  0  0  0  0  0  0  0  0
  145.3184  142.3039  153.6769 H   0  0  0  0  0  0  0  0  0  0  0  0
  146.3450  143.8871  156.0517 H   0  0  0  0  0  0  0  0  0  0  0  0
  144.8847  142.8996  155.9529 H   0  0  0  0  0  0  0  0  0  0  0  0
  1  2  1  0  0  0  0
  1 19  1  0  0  0  0
  1 20  1  0  0  0  0
  1 21  1  0  0  0  0
  2 18  2  0  0  0  0
  2  3  1  0  0  0  0
  3  4  2  0  0  0  0
  3 22  1  0  0  0  0
  4  5  1  0  0  0  0
  4  6  1  0  0  0  0
  5 23  1  0  0  0  0
  5 24  1  0  0  0  0
  5 25  1  0  0  0  0
  6  7  1  0  0  0  0
  6 18  1  0  0  0  0
  7  8  1  0  0  0  0
  7 26  1  0  0  0  0
  7 27  1  0  0  0  0
  8  9  2  0  0  0  0
  8 10  1  0  0  0  0
 10 11  1  0  0  0  0
 10 28  1  0  0  0  0
 11 12  1  0  0  0  0
 11 13  1  0  0  0  0
 11 29  1  0  0  0  0
 12 30  1  0  0  0  0
 12 31  1  0  0  0  0
 12 32  1  0  0  0  0
 13 17  1  0  0  0  0
 13 14  1  0  0  0  0
 13 33  1  0  0  0  0
 14 15  1  0  0  0  0
 14 34  1  0  0  0  0
 14 35  1  0  0  0  0
 15 16  1  0  0  0  0
 15 36  1  0  0  0  0
 15 37  1  0  0  0  0
 16 17  1  0  0  0  0
 16 38  1  0  0  0  0
 16 39  1  0  0  0  0
M  END
> <s_m_source_file>
AV-unprocessed.smi

> <i_m_source_file_index>
2204

> <i_lp_mmshare_version>
43012

> <i_f3d_flags>
0

> <s_epik_input>
W0NIM11jMVtjSF1jKFtDSDNdKW4objEpW0NIMl1DKD1PKVtOSF1bQ0BIXShbQ0gzXSlbQ0BASF0yW0NIMl1bQ0gyXVtDSDJdTzI=

> <s_epik_cmdline>
J2VwaWtfcHl0aG9uJywgJy1waCcsICc3LjAnLCAnLXRuJywgJzgnLCAnLW1hJywgJzIwMCcsICctbWV0YWxfYmluZGluZycsICctaW1hZScsICc8aW5maWxlLm1hZT4nLCAnLW9tYWUnLCAnPG91dGZpbGUubWFlPic=

> <r_lp_tautomer_probability>
1

> <r_epik_Ionization_Penalty>
0.000433354

> <r_epik_Ionization_Penalty_Charging>
0

> <r_epik_Ionization_Penalty_Neutral>
0.000433354

> <r_epik_State_Penalty>
-0

> <r_epik_Charging_Adjusted_Penalty>
0

> <i_epik_Tot_Q>
0

> <i_epik_Tot_abs_Q>
0

> <r_epik_Metal_State_Penalty>
-0

> <b_epik_Metal_Only>
0

> <s_lp_Force_Field>
OPLS_2005

> <r_lp_Energy>
17.0674

> <b_lp_Chiralities_Consistent>
1

> <s_lp_Variant>
AV-unprocessed.smi:2204-1

> <Gold.Version>
5.8.1

> <Gold.Id.Protein>
6NUR|6NUR_protein|mol2

> <Gold.PLP.Fitness>
44.0875

> <Gold.PLP.PLP>
-42.3090

> <Gold.PLP.part.hbond>
-1.0000

> <Gold.PLP.part.metal>
0.0000

> <Gold.PLP.part.buried>
-5.4152

> <Gold.PLP.part.nonpolar>
-36.4043

> <Gold.PLP.part.repulsive>
0.2022

> <Gold.PLP.ligand.clash>
0.0000

> <Gold.PLP.ligand.torsion>
0.6190

> <Gold.PLP.Chemscore.Hbond>
1.0000

> <Gold.PLP.Chemscore.CHOScore>
0.0000

> <Gold.PLP.Chemscore.Metal>
0.0000

> <Gold.Chemscore.Hbonds>
donor molecule, donor type, donor heavy atom, donor atom, acceptor molecule, acceptor atom, score
      L1  H    10    28       P1  8028  1.00

> <Gold.PLP.Chemscore.Internal.Correction>
0.0165

> <Gold.Rescore>
     Score         DG    S(hbond)    S(metal)    S(lipo)     H(rot)  DE(clash)    DE(int)     intcor
     14.77     -16.99       1.00        0.00     102.73       1.50       0.05       2.17       ----

> <Gold.Chemscore.Fitness>
14.7688

> <Gold.Chemscore.DG>
-16.9886

> <Gold.Chemscore.ZeroCoef>
-5.4800

> <Gold.Chemscore.Hbond>
0.9972

> <Gold.Chemscore.Metal>
0.0000

> <Gold.Chemscore.Lipo>
102.7272

> <Gold.Chemscore.Internal_Hbond>
0.0000

> <Gold.Chemscore.DEClash>
0.0471

> <Gold.Chemscore.DEInternal>
2.1727

> <Gold.Chemscore.Rot>
1.5005

> <Gold.Chemscore.Internal.Correction>
   9.000000E+99

> <Gold.Chemscore.Hbonds>
donor molecule, donor type, donor heavy atom, donor atom, acceptor molecule, acceptor atom, score
      L1  H    10    28       P1  8028  1.00

> <Gold.Chemscore.Hbond.Weighted>
-3.3307

> <Gold.Chemscore.Metal.Weighted>
-0.0000

> <Gold.Chemscore.Lipo.Weighted>
-12.0191

> <Gold.Chemscore.Internal_Hbond.Weighted>
0.0000

> <Gold.Chemscore.DEClash.Weighted>
0.0471

> <Gold.Chemscore.DEInternal.Weighted>
2.1727

> <Gold.Chemscore.Rot.Weighted>
3.8412

> <Gold.Chemscore.Internal.Correction.Weighted>
   9.000000E+99

> <Gold.Protein.RotatedTorsions>
[ 6907 6896 6895 6894 ] final   43.01 input  -60.11 | X-H torsion
[ 7974 7965 7964 7962 ] final   18.78 input  175.53 | X-H torsion
[ 8008 7997 7996 7995 ] final  151.42 input   59.86 | X-H torsion
[ 10167 10162 10161 10158 ] final  160.03 input  -65.29 | X-H torsion
[ 10718 10713 10712 10709 ] final  -79.49 input   66.30 | X-H torsion
[ 10763 10752 10751 10750 ] final  128.47 input  -60.55 | X-H torsion
[ 11005 11000 10999 10996 ] final  -90.22 input  -57.11 | X-H torsion

> <Gold.Protein.ActiveResidues>
 VAL166  LYS551  ARG553  GLY616  TRP617  ASP618  TYR619  PRO620  LYS621  CYS622 
 ASP623  PHE694  ASN695  SER759  ASP760  ASP761  ALA762  ILE779  LEU786  VAL792 
 PHE793  MET794  SER795  GLU796  ALA797  LYS798  CYS799  TRP800  GLU811  SER814 

> <Gold.Protein.RotatedAtoms>
  152.2150  134.8466  160.0492 H   0  0  0  0  0  0  0  0  0  0  0  0  # atno 6907 bound_to 6896
  151.9271  133.3596  159.3926 H   0  0  0  0  0  0  0  0  0  0  0  0  # atno 6908 bound_to 6896
  150.6985  134.4500  159.5376 H   0  0  0  0  0  0  0  0  0  0  0  0  # atno 6909 bound_to 6896
  146.2173  139.8408  142.8641 H   0  0  0  0  0  0  0  0  0  0  0  0  # atno 7974 bound_to 7965
  156.2674  140.2048  156.6173 H   0  0  0  0  0  0  0  0  0  0  0  0  # atno 8008 bound_to 7997
  154.6784  140.0542  157.0264 H   0  0  0  0  0  0  0  0  0  0  0  0  # atno 8009 bound_to 7997
  155.1035  140.3208  155.4543 H   0  0  0  0  0  0  0  0  0  0  0  0  # atno 8010 bound_to 7997
  139.4836  144.4674  151.8623 H   0  0  0  0  0  0  0  0  0  0  0  0  # atno 10167 bound_to 10162
  156.0091  130.4547  150.3656 H   0  0  0  0  0  0  0  0  0  0  0  0  # atno 10718 bound_to 10713
  153.7262  135.3246  155.3276 H   0  0  0  0  0  0  0  0  0  0  0  0  # atno 10763 bound_to 10752
  154.8340  135.4511  154.1168 H   0  0  0  0  0  0  0  0  0  0  0  0  # atno 10764 bound_to 10752
  153.2302  135.6959  153.7979 H   0  0  0  0  0  0  0  0  0  0  0  0  # atno 10765 bound_to 10752
  141.1570  133.7678  156.9707 H   0  0  0  0  0  0  0  0  0  0  0  0  # atno 11005 bound_to 11000
  145.2900  141.0164  143.3668 LP  0  0  0  0  0  0  0  0  0  0  0  0  # atno 17320 bound_to 7965
  144.9084  139.4560  143.6599 LP  0  0  0  0  0  0  0  0  0  0  0  0  # atno 17321 bound_to 7965
  140.4140  144.2331  150.5888 LP  0  0  0  0  0  0  0  0  0  0  0  0  # atno 17342 bound_to 10162
  140.4939  143.2339  151.8779 LP  0  0  0  0  0  0  0  0  0  0  0  0  # atno 17343 bound_to 10162
  157.1743  131.0376  151.2780 LP  0  0  0  0  0  0  0  0  0  0  0  0  # atno 17370 bound_to 10713
  157.4202  130.7433  149.6907 LP  0  0  0  0  0  0  0  0  0  0  0  0  # atno 17371 bound_to 10713
  140.1131  134.9464  157.2095 LP  0  0  0  0  0  0  0  0  0  0  0  0  # atno 17394 bound_to 11000
  140.3168  134.2962  155.7255 LP  0  0  0  0  0  0  0  0  0  0  0  0  # atno 17395 bound_to 11000

$$$$
