AV-unprocessed.smi:1806|AV-procd|sdf|7300|dock8
  -GOLD-   22720 8553D 1   1.00000     0.00000
 Structure written by MMmdl.
 27 28  0  0  0  0  0  0  0  0  2 V2000
  151.7041  143.9906  160.5436 C   0  0  0  0  0  0  0  0  0  0  0  0
  152.4760  142.6960  160.3999 C   0  0  0  0  0  0  0  0  0  0  0  0
  153.2621  142.2043  161.4603 C   0  0  0  0  0  0  0  0  0  0  0  0
  153.9550  140.9966  161.2636 C   0  0  0  0  0  0  0  0  0  0  0  0
  153.8366  140.3396  160.0240 C   0  0  0  0  0  0  0  0  0  0  0  0
  153.0336  140.9057  159.0063 C   0  0  0  0  0  0  0  0  0  0  0  0
  152.9032  140.2817  157.8258 N   0  5  0  0  0  0  0  0  0  0  0  0
  151.7752  140.4253  157.0828 C   0  0  0  0  0  0  0  0  0  0  0  0
  150.9158  141.2876  157.2883 O   0  0  0  0  0  0  0  0  0  0  0  0
  151.6215  139.4759  155.9833 C   0  0  0  0  0  0  0  0  0  0  0  0
  152.2322  138.2681  156.0381 C   0  0  0  0  0  0  0  0  0  0  0  0
  152.1677  137.3327  155.0355 O   0  0  0  0  0  0  0  0  0  0  0  0
  151.6156  137.8087  153.8140 C   0  0  0  0  0  0  0  0  0  0  0  0
  150.4159  138.7258  154.0902 C   0  0  0  0  0  0  0  0  0  0  0  0
  150.8096  139.8109  154.9215 O   0  0  0  0  0  0  0  0  0  0  0  0
  152.3635  142.0653  159.2105 N   0  0  0  0  0  0  0  0  0  0  0  0
  151.4986  144.2075  161.5923 H   0  0  0  0  0  0  0  0  0  0  0  0
  150.7503  143.9345  160.0173 H   0  0  0  0  0  0  0  0  0  0  0  0
  152.2787  144.8183  160.1277 H   0  0  0  0  0  0  0  0  0  0  0  0
  153.3322  142.7350  162.3982 H   0  0  0  0  0  0  0  0  0  0  0  0
  154.5668  140.5793  162.0494 H   0  0  0  0  0  0  0  0  0  0  0  0
  154.3608  139.4104  159.8547 H   0  0  0  0  0  0  0  0  0  0  0  0
  152.8603  137.9307  156.8501 H   0  0  0  0  0  0  0  0  0  0  0  0
  152.3845  138.3459  153.2572 H   0  0  0  0  0  0  0  0  0  0  0  0
  151.3126  136.9577  153.2039 H   0  0  0  0  0  0  0  0  0  0  0  0
  150.0127  139.1192  153.1569 H   0  0  0  0  0  0  0  0  0  0  0  0
  149.6138  138.1707  154.5787 H   0  0  0  0  0  0  0  0  0  0  0  0
  1  2  1  0  0  0  0
  1 17  1  0  0  0  0
  1 18  1  0  0  0  0
  1 19  1  0  0  0  0
  2 16  1  0  0  0  0
  2  3  2  0  0  0  0
  3  4  1  0  0  0  0
  3 20  1  0  0  0  0
  4  5  2  0  0  0  0
  4 21  1  0  0  0  0
  5  6  1  0  0  0  0
  5 22  1  0  0  0  0
  6  7  1  0  0  0  0
  6 16  2  0  0  0  0
  7  8  1  0  0  0  0
  8  9  2  0  0  0  0
  8 10  1  0  0  0  0
 10 15  1  0  0  0  0
 10 11  2  0  0  0  0
 11 12  1  0  0  0  0
 11 23  1  0  0  0  0
 12 13  1  0  0  0  0
 13 14  1  0  0  0  0
 13 24  1  0  0  0  0
 13 25  1  0  0  0  0
 14 15  1  0  0  0  0
 14 26  1  0  0  0  0
 14 27  1  0  0  0  0
M  CHG  1   7  -1
M  END
> <s_m_source_file>
AV-unprocessed.smi

> <i_m_source_file_index>
1806

> <i_lp_mmshare_version>
43012

> <i_f3d_flags>
0

> <s_epik_input>
W0NIM11jMVtjSF1bY0hdW2NIXWMobjEpW05IXUMoPU8pQzI9W0NIXU9bQ0gyXVtDSDJdTzI=

> <s_epik_cmdline>
J2VwaWtfcHl0aG9uJywgJy1waCcsICc3LjAnLCAnLXRuJywgJzgnLCAnLW1hJywgJzIwMCcsICctbWV0YWxfYmluZGluZycsICctaW1hZScsICc8aW5maWxlLm1hZT4nLCAnLW9tYWUnLCAnPG91dGZpbGUubWFlPic=

> <r_lp_tautomer_probability>
1

> <r_epik_Ionization_Penalty>
11.2807

> <r_epik_Ionization_Penalty_Charging>
5.82682

> <r_epik_Ionization_Penalty_Neutral>
5.45386

> <r_epik_State_Penalty>
5.82679

> <r_epik_Charging_Adjusted_Penalty>
11.6536

> <i_epik_Tot_Q>
-1

> <i_epik_Tot_abs_Q>
1

> <r_epik_Metal_State_Penalty>
1.79445

> <b_epik_Metal_Only>
1

> <s_lp_Force_Field>
OPLS_2005

> <r_lp_Energy>
4.64637

> <b_lp_Chiralities_Consistent>
1

> <s_lp_Variant>
AV-unprocessed.smi:1806-2

> <Gold.Version>
5.8.1

> <Gold.Id.Protein>
6NUR|6NUR_protein|mol2

> <Gold.PLP.Fitness>
43.6739

> <Gold.PLP.PLP>
-32.6573

> <Gold.PLP.part.hbond>
-3.0000

> <Gold.PLP.part.metal>
0.0000

> <Gold.PLP.part.buried>
-3.1447

> <Gold.PLP.part.nonpolar>
-27.2507

> <Gold.PLP.part.repulsive>
0.1557

> <Gold.PLP.ligand.clash>
0.0000

> <Gold.PLP.ligand.torsion>
0.4546

> <Gold.PLP.Chemscore.Hbond>
3.9280

> <Gold.PLP.Chemscore.CHOScore>
0.0000

> <Gold.PLP.Chemscore.Metal>
0.0000

> <Gold.Chemscore.Hbonds>
donor molecule, donor type, donor heavy atom, donor atom, acceptor molecule, acceptor atom, score
      P1  H  7989  7998       L1    15  0.80
      P1  H  7997  8009       L1     7  1.89
      P1  H 10752 10763       L1    12  0.74

> <Gold.PLP.Chemscore.Internal.Correction>
0.1418

> <Gold.Rescore>
     Score         DG    S(hbond)    S(metal)    S(lipo)     H(rot)  DE(clash)    DE(int)     intcor
     16.65     -19.06       1.21        0.00      81.55       0.00       0.15       2.26       ----

> <Gold.Chemscore.Fitness>
16.6508

> <Gold.Chemscore.DG>
-19.0565

> <Gold.Chemscore.ZeroCoef>
-5.4800

> <Gold.Chemscore.Hbond>
1.2080

> <Gold.Chemscore.Metal>
0.0000

> <Gold.Chemscore.Lipo>
81.5536

> <Gold.Chemscore.Internal_Hbond>
0.0000

> <Gold.Chemscore.DEClash>
0.1460

> <Gold.Chemscore.DEInternal>
2.2597

> <Gold.Chemscore.Rot>
0.0000

> <Gold.Chemscore.Internal.Correction>
   9.000000E+99

> <Gold.Chemscore.Hbonds>
donor molecule, donor type, donor heavy atom, donor atom, acceptor molecule, acceptor atom, score
      P1  H  7989  7998       L1    15  0.11
      P1  H  7997  8009       L1     7  0.76
      P1  H 10752 10763       L1    12  0.54

> <Gold.Chemscore.Hbond.Weighted>
-4.0347

> <Gold.Chemscore.Metal.Weighted>
-0.0000

> <Gold.Chemscore.Lipo.Weighted>
-9.5418

> <Gold.Chemscore.Internal_Hbond.Weighted>
0.0000

> <Gold.Chemscore.DEClash.Weighted>
0.1460

> <Gold.Chemscore.DEInternal.Weighted>
2.2597

> <Gold.Chemscore.Rot.Weighted>
0.0000

> <Gold.Chemscore.Internal.Correction.Weighted>
   9.000000E+99

> <Gold.Protein.RotatedTorsions>
[ 6907 6896 6895 6894 ] final   24.40 input  -60.11 | X-H torsion
[ 7974 7965 7964 7962 ] final  -31.96 input  175.53 | X-H torsion
[ 8008 7997 7996 7995 ] final  167.84 input   59.86 | X-H torsion
[ 10167 10162 10161 10158 ] final  -89.89 input  -65.29 | X-H torsion
[ 10718 10713 10712 10709 ] final   84.21 input   66.30 | X-H torsion
[ 10763 10752 10751 10750 ] final   70.39 input  -60.55 | X-H torsion
[ 11005 11000 10999 10996 ] final   13.72 input  -57.11 | X-H torsion

> <Gold.Protein.ActiveResidues>
 VAL166  LYS551  ARG553  GLY616  TRP617  ASP618  TYR619  PRO620  LYS621  CYS622 
 ASP623  PHE694  ASN695  SER759  ASP760  ASP761  ALA762  ILE779  LEU786  VAL792 
 PHE793  MET794  SER795  GLU796  ALA797  LYS798  CYS799  TRP800  GLU811  SER814 

> <Gold.Protein.RotatedAtoms>
  151.9569  135.0142  160.0545 H   0  0  0  0  0  0  0  0  0  0  0  0  # atno 6907 bound_to 6896
  152.1903  133.4764  159.5013 H   0  0  0  0  0  0  0  0  0  0  0  0  # atno 6908 bound_to 6896
  150.6934  134.1638  159.4229 H   0  0  0  0  0  0  0  0  0  0  0  0  # atno 6909 bound_to 6896
  146.1027  140.5733  142.8813 H   0  0  0  0  0  0  0  0  0  0  0  0  # atno 7974 bound_to 7965
  156.1599  140.1606  156.8629 H   0  0  0  0  0  0  0  0  0  0  0  0  # atno 8008 bound_to 7997
  154.5151  140.0791  156.8101 H   0  0  0  0  0  0  0  0  0  0  0  0  # atno 8009 bound_to 7997
  155.3728  140.3401  155.4246 H   0  0  0  0  0  0  0  0  0  0  0  0  # atno 8010 bound_to 7997
  140.3604  143.2845  151.9622 H   0  0  0  0  0  0  0  0  0  0  0  0  # atno 10167 bound_to 10162
  157.6894  131.0123  150.2639 H   0  0  0  0  0  0  0  0  0  0  0  0  # atno 10718 bound_to 10713
  153.0339  135.5175  154.7434 H   0  0  0  0  0  0  0  0  0  0  0  0  # atno 10763 bound_to 10752
  154.6426  135.2914  155.0087 H   0  0  0  0  0  0  0  0  0  0  0  0  # atno 10764 bound_to 10752
  154.0999  135.6638  153.4919 H   0  0  0  0  0  0  0  0  0  0  0  0  # atno 10765 bound_to 10752
  140.4775  134.0969  155.7744 H   0  0  0  0  0  0  0  0  0  0  0  0  # atno 11005 bound_to 11000
  144.7446  140.5033  143.6845 LP  0  0  0  0  0  0  0  0  0  0  0  0  # atno 17320 bound_to 7965
  145.5822  139.1489  143.3229 LP  0  0  0  0  0  0  0  0  0  0  0  0  # atno 17321 bound_to 7965
  139.4815  144.5998  151.7626 LP  0  0  0  0  0  0  0  0  0  0  0  0  # atno 17342 bound_to 10162
  140.5133  144.0992  150.6001 LP  0  0  0  0  0  0  0  0  0  0  0  0  # atno 17343 bound_to 10162
  156.3213  130.3786  149.7572 LP  0  0  0  0  0  0  0  0  0  0  0  0  # atno 17370 bound_to 10713
  156.5141  130.8185  151.3180 LP  0  0  0  0  0  0  0  0  0  0  0  0  # atno 17371 bound_to 10713
  141.1547  133.8904  157.2008 LP  0  0  0  0  0  0  0  0  0  0  0  0  # atno 17394 bound_to 11000
  139.9847  135.0086  156.9833 LP  0  0  0  0  0  0  0  0  0  0  0  0  # atno 17395 bound_to 11000

$$$$
