AV-unprocessed.smi:109|AV-procd|sdf|1031|dock10
  -GOLD-   2262018 33D 1   1.00000     0.00000
 Structure written by MMmdl.
 58 61  0  0  0  0  0  0  0  0  1 V2000
  150.2745  140.1263  153.8263 O   0  0  0  0  0  0  0  0  0  0  0  0
  149.4800  140.5703  154.9048 C   0  0  0  0  0  0  0  0  0  0  0  0
  150.3768  141.1559  156.0092 C   0  0  0  0  0  0  0  0  0  0  0  0
  149.6569  141.3701  157.3635 C   0  0  2  0  0  0  0  0  0  0  0  0
  148.3416  141.9696  157.1262 N   0  0  0  0  0  0  0  0  0  0  0  0
  147.2253  141.5375  157.7554 C   0  0  0  0  0  0  0  0  0  0  0  0
  147.2448  141.1614  159.0606 N   0  0  0  0  0  0  0  0  0  0  0  0
  146.1250  140.7363  159.6520 C   0  0  0  0  0  0  0  0  0  0  0  0
  144.9029  140.6111  159.1306 N   0  0  0  0  0  0  0  0  0  0  0  0
  144.8761  140.9868  157.8191 C   0  0  0  0  0  0  0  0  0  0  0  0
  145.9876  141.4584  157.0664 C   0  0  0  0  0  0  0  0  0  0  0  0
  145.5885  141.7466  155.7680 N   0  0  0  0  0  0  0  0  0  0  0  0
  144.3137  141.4622  155.7592 C   0  0  0  0  0  0  0  0  0  0  0  0
  143.8037  140.9954  156.9504 N   0  0  0  0  0  0  0  0  0  0  0  0
  142.3947  140.5914  157.2420 C   0  0  2  0  0  0  0  0  0  0  0  0
  142.1430  139.3902  156.5799 O   0  0  0  0  0  0  0  0  0  0  0  0
  140.8438  139.4250  156.0013 C   0  0  2  0  0  0  0  0  0  0  0  0
  140.7712  138.4368  154.8271 C   0  0  0  0  0  0  0  0  0  0  0  0
  139.4900  138.4813  154.2360 O   0  0  0  0  0  0  0  0  0  0  0  0
  140.7109  140.8891  155.5787 C   0  0  1  0  0  0  0  0  0  0  0  0
  139.3663  141.2830  155.3770 O   0  0  0  0  0  0  0  0  0  0  0  0
  141.4006  141.6403  156.7161 C   0  0  1  0  0  0  0  0  0  0  0  0
  140.4927  142.0258  157.7321 O   0  0  0  0  0  0  0  0  0  0  0  0
  150.4573  142.2565  158.3610 C   0  0  0  0  0  0  0  0  0  0  0  0
  150.8700  143.6248  157.7618 C   0  0  0  0  0  0  0  0  0  0  0  0
  151.6997  144.4712  158.7418 C   0  0  0  0  0  0  0  0  0  0  0  0
  152.9435  143.7145  159.2227 C   0  0  0  0  0  0  0  0  0  0  0  0
  152.5472  142.3729  159.8496 C   0  0  0  0  0  0  0  0  0  0  0  0
  151.7277  141.5235  158.8659 C   0  0  0  0  0  0  0  0  0  0  0  0
  142.3607  140.4545  158.3240 H   0  0  0  0  0  0  0  0  0  0  0  0
  140.1000  139.1924  156.7664 H   0  0  0  0  0  0  0  0  0  0  0  0
  141.2614  141.0553  154.6527 H   0  0  0  0  0  0  0  0  0  0  0  0
  141.9183  142.5300  156.3544 H   0  0  0  0  0  0  0  0  0  0  0  0
  150.7471  139.3549  154.0990 H   0  0  0  0  0  0  0  0  0  0  0  0
  148.7749  141.3128  154.5312 H   0  0  0  0  0  0  0  0  0  0  0  0
  148.9001  139.7294  155.2865 H   0  0  0  0  0  0  0  0  0  0  0  0
  151.2076  140.4642  156.1372 H   0  0  0  0  0  0  0  0  0  0  0  0
  150.8103  142.0978  155.6701 H   0  0  0  0  0  0  0  0  0  0  0  0
  149.5537  140.3944  157.8377 H   0  0  0  0  0  0  0  0  0  0  0  0
  148.3324  142.7498  156.4847 H   0  0  0  0  0  0  0  0  0  0  0  0
  146.2216  140.4570  160.6907 H   0  0  0  0  0  0  0  0  0  0  0  0
  143.7063  141.5834  154.8741 H   0  0  0  0  0  0  0  0  0  0  0  0
  141.4944  138.7119  154.0589 H   0  0  0  0  0  0  0  0  0  0  0  0
  141.0094  137.4221  155.1471 H   0  0  0  0  0  0  0  0  0  0  0  0
  139.5933  138.5627  153.3003 H   0  0  0  0  0  0  0  0  0  0  0  0
  138.8253  140.8328  156.0077 H   0  0  0  0  0  0  0  0  0  0  0  0
  140.9504  142.5788  158.3469 H   0  0  0  0  0  0  0  0  0  0  0  0
  149.8188  142.4525  159.2240 H   0  0  0  0  0  0  0  0  0  0  0  0
  151.4393  143.4677  156.8445 H   0  0  0  0  0  0  0  0  0  0  0  0
  149.9938  144.2101  157.4875 H   0  0  0  0  0  0  0  0  0  0  0  0
  151.9966  145.4054  158.2643 H   0  0  0  0  0  0  0  0  0  0  0  0
  151.0842  144.7454  159.5996 H   0  0  0  0  0  0  0  0  0  0  0  0
  153.6185  143.5437  158.3830 H   0  0  0  0  0  0  0  0  0  0  0  0
  153.4928  144.3174  159.9462 H   0  0  0  0  0  0  0  0  0  0  0  0
  153.4409  141.8280  160.1550 H   0  0  0  0  0  0  0  0  0  0  0  0
  151.9659  142.5474  160.7558 H   0  0  0  0  0  0  0  0  0  0  0  0
  151.4650  140.5891  159.3622 H   0  0  0  0  0  0  0  0  0  0  0  0
  152.3544  141.2504  158.0155 H   0  0  0  0  0  0  0  0  0  0  0  0
  1  2  1  0  0  0  0
  1 34  1  0  0  0  0
  2  3  1  0  0  0  0
  2 35  1  0  0  0  0
  2 36  1  0  0  0  0
  3  4  1  0  0  0  0
  3 37  1  0  0  0  0
  3 38  1  0  0  0  0
  4  5  1  0  0  0  0
  4 24  1  0  0  0  0
  4 39  1  0  0  0  0
  5  6  1  0  0  0  0
  5 40  1  0  0  0  0
  6 11  1  0  0  0  0
  6  7  2  0  0  0  0
  7  8  1  0  0  0  0
  8  9  2  0  0  0  0
  8 41  1  0  0  0  0
  9 10  1  0  0  0  0
 10 14  1  0  0  0  0
 10 11  2  0  0  0  0
 11 12  1  0  0  0  0
 12 13  2  0  0  0  0
 13 14  1  0  0  0  0
 13 42  1  0  0  0  0
 14 15  1  0  0  0  0
 15 30  1  0  0  0  0
 15 22  1  0  0  0  0
 15 16  1  0  0  0  0
 16 17  1  0  0  0  0
 17 31  1  0  0  0  0
 17 18  1  0  0  0  0
 17 20  1  0  0  0  0
 18 19  1  0  0  0  0
 18 43  1  0  0  0  0
 18 44  1  0  0  0  0
 19 45  1  0  0  0  0
 20 32  1  0  0  0  0
 20 21  1  0  0  0  0
 20 22  1  0  0  0  0
 21 46  1  0  0  0  0
 22 33  1  0  0  0  0
 22 23  1  0  0  0  0
 23 47  1  0  0  0  0
 24 29  1  0  0  0  0
 24 25  1  0  0  0  0
 24 48  1  0  0  0  0
 25 26  1  0  0  0  0
 25 49  1  0  0  0  0
 25 50  1  0  0  0  0
 26 27  1  0  0  0  0
 26 51  1  0  0  0  0
 26 52  1  0  0  0  0
 27 28  1  0  0  0  0
 27 53  1  0  0  0  0
 27 54  1  0  0  0  0
 28 29  1  0  0  0  0
 28 55  1  0  0  0  0
 28 56  1  0  0  0  0
 29 57  1  0  0  0  0
 29 58  1  0  0  0  0
M  END
> <s_m_source_file>
AV-unprocessed.smi

> <i_m_source_file_index>
109

> <i_lp_mmshare_version>
43012

> <i_f3d_flags>
0

> <s_epik_input>
W0NIMl0xW0NIMl1bQ0gyXVtDSDJdW0NIMl1bQ0hdMVtDQEhdKFtDSDJdW0NIMl1bT0hdKVtOSF1jKG5bY0hdbjIpYyhjMjMpbltjSF1uM1tDQEBIXTRPW0NASF0oW0NIMl1bT0hdKVtDQEBIXShbT0hdKVtDQEhdNFtPSF0=

> <s_epik_cmdline>
J2VwaWtfcHl0aG9uJywgJy1waCcsICc3LjAnLCAnLXRuJywgJzgnLCAnLW1hJywgJzIwMCcsICctbWV0YWxfYmluZGluZycsICctaW1hZScsICc8aW5maWxlLm1hZT4nLCAnLW9tYWUnLCAnPG91dGZpbGUubWFlPic=

> <r_lp_tautomer_probability>
1

> <r_epik_Ionization_Penalty>
0.000793976

> <r_epik_Ionization_Penalty_Charging>
0

> <r_epik_Ionization_Penalty_Neutral>
0.000793976

> <r_epik_State_Penalty>
-0

> <r_epik_Charging_Adjusted_Penalty>
0

> <i_epik_Tot_Q>
0

> <i_epik_Tot_abs_Q>
0

> <r_epik_Metal_State_Penalty>
-0

> <b_epik_Metal_Only>
0

> <s_epik_Chemistry_Notes>
This compound contains an acetal/aminal-like group ( X-CH(R)-Y where X, Y are N, S, or O) that may be acid/base labile, releasing an aldehyde.

> <s_lp_Force_Field>
OPLS_2005

> <r_lp_Energy>
54.5538

> <b_lp_Chiralities_Consistent>
1

> <s_lp_Variant>
AV-unprocessed.smi:109-1

> <Gold.Version>
5.8.1

> <Gold.Id.Protein>
6NUR|6NUR_protein|mol2

> <Gold.PLP.Fitness>
52.6811

> <Gold.PLP.PLP>
-40.3702

> <Gold.PLP.part.hbond>
-5.0204

> <Gold.PLP.part.metal>
0.0000

> <Gold.PLP.part.buried>
-4.0342

> <Gold.PLP.part.nonpolar>
-32.6531

> <Gold.PLP.part.repulsive>
0.3884

> <Gold.PLP.ligand.clash>
0.0000

> <Gold.PLP.ligand.torsion>
1.0450

> <Gold.PLP.Chemscore.Hbond>
3.9273

> <Gold.PLP.Chemscore.CHOScore>
0.8136

> <Gold.PLP.Chemscore.Metal>
0.0000

> <Gold.Chemscore.Hbonds>
donor molecule, donor type, donor heavy atom, donor atom, acceptor molecule, acceptor atom, score
      L1  H     5    40       P1  8028  0.59
      P1  H  7989  7998       L1     1  0.53
      L1  C    13    42       P1 10175  0.84

> <Gold.PLP.Chemscore.Internal.Correction>
0.1783

> <Gold.Rescore>
     Score         DG    S(hbond)    S(metal)    S(lipo)     H(rot)  DE(clash)    DE(int)     intcor
     13.23     -14.85       3.83        0.00      90.23       5.47       0.48       1.15       ----

> <Gold.Chemscore.Fitness>
13.2253

> <Gold.Chemscore.DG>
-14.8473

> <Gold.Chemscore.ZeroCoef>
-5.4800

> <Gold.Chemscore.Hbond>
3.8335

> <Gold.Chemscore.Metal>
0.0000

> <Gold.Chemscore.Lipo>
90.2300

> <Gold.Chemscore.Internal_Hbond>
0.0000

> <Gold.Chemscore.DEClash>
0.4767

> <Gold.Chemscore.DEInternal>
1.1453

> <Gold.Chemscore.Rot>
5.4662

> <Gold.Chemscore.Internal.Correction>
   9.000000E+99

> <Gold.Chemscore.Hbonds>
donor molecule, donor type, donor heavy atom, donor atom, acceptor molecule, acceptor atom, score
      L1  H     5    40       P1  8028  0.45
      P1  H  7989  7998       L1     1  0.03

> <Gold.Chemscore.Hbond.Weighted>
-12.8039

> <Gold.Chemscore.Metal.Weighted>
-0.0000

> <Gold.Chemscore.Lipo.Weighted>
-10.5569

> <Gold.Chemscore.Internal_Hbond.Weighted>
0.0000

> <Gold.Chemscore.DEClash.Weighted>
0.4767

> <Gold.Chemscore.DEInternal.Weighted>
1.1453

> <Gold.Chemscore.Rot.Weighted>
13.9935

> <Gold.Chemscore.Internal.Correction.Weighted>
   9.000000E+99

> <Gold.Protein.RotatedTorsions>
[ 6907 6896 6895 6894 ] final  -91.90 input  -60.11 | X-H torsion
[ 7974 7965 7964 7962 ] final   26.98 input  175.53 | X-H torsion
[ 8008 7997 7996 7995 ] final   -9.68 input   59.86 | X-H torsion
[ 10167 10162 10161 10158 ] final -135.94 input  -65.29 | X-H torsion
[ 10718 10713 10712 10709 ] final  129.74 input   66.30 | X-H torsion
[ 10763 10752 10751 10750 ] final  129.99 input  -60.55 | X-H torsion
[ 11005 11000 10999 10996 ] final  -58.86 input  -57.11 | X-H torsion

> <Gold.Protein.ActiveResidues>
 VAL166  LYS551  ARG553  GLY616  TRP617  ASP618  TYR619  PRO620  LYS621  CYS622 
 ASP623  PHE694  ASN695  SER759  ASP760  ASP761  ALA762  ILE779  LEU786  VAL792 
 PHE793  MET794  SER795  GLU796  ALA797  LYS798  CYS799  TRP800  GLU811  SER814 

> <Gold.Protein.RotatedAtoms>
  150.6898  134.2205  159.4394 H   0  0  0  0  0  0  0  0  0  0  0  0  # atno 6907 bound_to 6896
  152.0162  134.9846  160.0578 H   0  0  0  0  0  0  0  0  0  0  0  0  # atno 6908 bound_to 6896
  152.1441  133.4447  159.4818 H   0  0  0  0  0  0  0  0  0  0  0  0  # atno 6909 bound_to 6896
  146.1809  139.7254  142.8901 H   0  0  0  0  0  0  0  0  0  0  0  0  # atno 7974 bound_to 7965
  154.5624  140.2348  155.8315 H   0  0  0  0  0  0  0  0  0  0  0  0  # atno 8008 bound_to 7997
  156.2040  140.3044  155.9546 H   0  0  0  0  0  0  0  0  0  0  0  0  # atno 8009 bound_to 7997
  155.2864  140.0425  157.3010 H   0  0  0  0  0  0  0  0  0  0  0  0  # atno 8010 bound_to 7997
  139.8728  143.6936  152.2637 H   0  0  0  0  0  0  0  0  0  0  0  0  # atno 10167 bound_to 10162
  157.5127  131.1097  150.9270 H   0  0  0  0  0  0  0  0  0  0  0  0  # atno 10718 bound_to 10713
  153.7508  135.3210  155.3321 H   0  0  0  0  0  0  0  0  0  0  0  0  # atno 10763 bound_to 10752
  154.8263  135.4567  154.0934 H   0  0  0  0  0  0  0  0  0  0  0  0  # atno 10764 bound_to 10752
  153.2136  135.6939  153.8167 H   0  0  0  0  0  0  0  0  0  0  0  0  # atno 10765 bound_to 10752
  141.1225  133.6614  156.4984 H   0  0  0  0  0  0  0  0  0  0  0  0  # atno 11005 bound_to 11000
  145.4080  141.0393  143.3033 LP  0  0  0  0  0  0  0  0  0  0  0  0  # atno 17320 bound_to 7965
  144.8313  139.5624  143.6942 LP  0  0  0  0  0  0  0  0  0  0  0  0  # atno 17321 bound_to 7965
  139.7268  144.7591  151.0866 LP  0  0  0  0  0  0  0  0  0  0  0  0  # atno 17342 bound_to 10162
  140.7758  143.5138  150.9619 LP  0  0  0  0  0  0  0  0  0  0  0  0  # atno 17343 bound_to 10162
  156.9905  130.5561  149.5303 LP  0  0  0  0  0  0  0  0  0  0  0  0  # atno 17370 bound_to 10713
  156.0299  130.5391  150.8508 LP  0  0  0  0  0  0  0  0  0  0  0  0  # atno 17371 bound_to 10713
  140.4466  134.6967  157.5019 LP  0  0  0  0  0  0  0  0  0  0  0  0  # atno 17394 bound_to 11000
  140.0193  134.6571  155.9263 LP  0  0  0  0  0  0  0  0  0  0  0  0  # atno 17395 bound_to 11000

$$$$
