AV-unprocessed.smi:3219|AV-procd|sdf|12295|dock1
  -GOLD-   2272018133D 1   1.00000     0.00000
 Structure written by MMmdl.
 41 42  0  0  0  0  0  0  0  0  2 V2000
  146.7729  141.8375  154.3794 C   0  0  0  0  0  0  0  0  0  0  0  0
  147.8595  140.8198  154.2424 C   0  0  0  0  0  0  0  0  0  0  0  0
  147.8378  139.5453  153.7407 C   0  0  0  0  0  0  0  0  0  0  0  0
  146.6853  138.7664  153.1615 C   0  0  0  0  0  0  0  0  0  0  0  0
  146.8002  138.6074  151.6381 C   0  0  0  0  0  0  0  0  0  0  0  0
  146.5069  137.2241  151.2134 N   0  3  0  0  0  0  0  0  0  0  0  0
  145.3212  136.6308  151.8619 C   0  0  0  0  0  0  0  0  0  0  0  0
  144.9645  135.2661  151.2454 C   0  0  2  0  0  0  0  0  0  0  0  0
  143.7098  134.6441  151.9036 C   0  0  0  0  0  0  0  0  0  0  0  0
  143.5082  133.1880  151.5231 C   0  0  0  0  0  0  0  0  0  0  0  0
  144.4608  132.4341  150.9500 C   0  0  0  0  0  0  0  0  0  0  0  0
  145.8490  132.9519  150.6246 C   0  0  0  0  0  0  0  0  0  0  0  0
  146.1522  134.2876  151.3289 C   0  0  0  0  0  0  0  0  0  0  0  0
  149.1825  139.1025  153.8887 C   0  0  0  0  0  0  0  0  0  0  0  0
  149.9682  140.0176  154.4265 N   0  0  0  0  0  0  0  0  0  0  0  0
  149.1568  141.0718  154.6481 N   0  0  0  0  0  0  0  0  0  0  0  0
  149.7015  142.2740  155.2487 C   0  0  0  0  0  0  0  0  0  0  0  0
  145.8499  141.4997  153.9091 H   0  0  0  0  0  0  0  0  0  0  0  0
  147.0596  142.7784  153.9094 H   0  0  0  0  0  0  0  0  0  0  0  0
  146.5599  142.0354  155.4300 H   0  0  0  0  0  0  0  0  0  0  0  0
  146.6394  137.7744  153.6121 H   0  0  0  0  0  0  0  0  0  0  0  0
  145.7320  139.2362  153.4054 H   0  0  0  0  0  0  0  0  0  0  0  0
  146.1155  139.2943  151.1386 H   0  0  0  0  0  0  0  0  0  0  0  0
  147.8089  138.8709  151.3174 H   0  0  0  0  0  0  0  0  0  0  0  0
  146.3618  137.2189  150.2140 H   0  0  0  0  0  0  0  0  0  0  0  0
  145.5344  136.5126  152.9253 H   0  0  0  0  0  0  0  0  0  0  0  0
  144.4765  137.3163  151.7803 H   0  0  0  0  0  0  0  0  0  0  0  0
  144.7514  135.4215  150.1862 H   0  0  0  0  0  0  0  0  0  0  0  0
  143.7816  134.6947  152.9908 H   0  0  0  0  0  0  0  0  0  0  0  0
  142.8193  135.2050  151.6180 H   0  0  0  0  0  0  0  0  0  0  0  0
  142.5437  132.7552  151.7459 H   0  0  0  0  0  0  0  0  0  0  0  0
  144.2503  131.4068  150.6904 H   0  0  0  0  0  0  0  0  0  0  0  0
  146.5885  132.2045  150.9130 H   0  0  0  0  0  0  0  0  0  0  0  0
  145.9215  133.0694  149.5429 H   0  0  0  0  0  0  0  0  0  0  0  0
  147.0473  134.7318  150.8917 H   0  0  0  0  0  0  0  0  0  0  0  0
  146.3865  134.0970  152.3772 H   0  0  0  0  0  0  0  0  0  0  0  0
  149.6084  138.1474  153.6186 H   0  0  0  0  0  0  0  0  0  0  0  0
  149.1508  142.5104  156.1594 H   0  0  0  0  0  0  0  0  0  0  0  0
  149.6112  143.1062  154.5504 H   0  0  0  0  0  0  0  0  0  0  0  0
  150.7542  142.1376  155.5004 H   0  0  0  0  0  0  0  0  0  0  0  0
  147.3099  136.6494  151.4257 H   0  0  0  0  0  0  0  0  0  0  0  0
  1  2  1  0  0  0  0
  1 18  1  0  0  0  0
  1 19  1  0  0  0  0
  1 20  1  0  0  0  0
  2 16  1  0  0  0  0
  2  3  2  0  0  0  0
  3  4  1  0  0  0  0
  3 14  1  0  0  0  0
  4  5  1  0  0  0  0
  4 21  1  0  0  0  0
  4 22  1  0  0  0  0
  5  6  1  0  0  0  0
  5 23  1  0  0  0  0
  5 24  1  0  0  0  0
  6  7  1  0  0  0  0
  6 25  1  0  0  0  0
  6 41  1  0  0  0  0
  7  8  1  0  0  0  0
  7 26  1  0  0  0  0
  7 27  1  0  0  0  0
  8 13  1  0  0  0  0
  8  9  1  0  0  0  0
  8 28  1  0  0  0  0
  9 10  1  0  0  0  0
  9 29  1  0  0  0  0
  9 30  1  0  0  0  0
 10 11  2  0  0  0  0
 10 31  1  0  0  0  0
 11 12  1  0  0  0  0
 11 32  1  0  0  0  0
 12 13  1  0  0  0  0
 12 33  1  0  0  0  0
 12 34  1  0  0  0  0
 13 35  1  0  0  0  0
 13 36  1  0  0  0  0
 14 15  2  0  0  0  0
 14 37  1  0  0  0  0
 15 16  1  0  0  0  0
 16 17  1  0  0  0  0
 17 38  1  0  0  0  0
 17 39  1  0  0  0  0
 17 40  1  0  0  0  0
M  CHG  1   6   1
M  END
> <s_m_source_file>
AV-unprocessed.smi

> <i_m_source_file_index>
3219

> <i_lp_mmshare_version>
43012

> <i_f3d_flags>
0

> <s_epik_input>
W0NIM11uMW5bY0hdYyhjMVtDSDNdKVtDSDJdW0NIMl1bTkhdW0NIMl1bQ0BASF0yW0NIMl1bQ0hdPVtDSF1bQ0gyXVtDSDJdMg==

> <s_epik_cmdline>
J2VwaWtfcHl0aG9uJywgJy1waCcsICc3LjAnLCAnLXRuJywgJzgnLCAnLW1hJywgJzIwMCcsICctbWV0YWxfYmluZGluZycsICctaW1hZScsICc8aW5maWxlLm1hZT4nLCAnLW9tYWUnLCAnPG91dGZpbGUubWFlPic=

> <r_lp_tautomer_probability>
1

> <r_epik_Ionization_Penalty>
0.000661401

> <r_epik_Ionization_Penalty_Charging>
0.00057791

> <r_epik_Ionization_Penalty_Neutral>
8.34914e-05

> <r_epik_State_Penalty>
-0

> <r_epik_Charging_Adjusted_Penalty>
0.00057791

> <i_epik_Tot_Q>
1

> <i_epik_Tot_abs_Q>
1

> <r_epik_Metal_State_Penalty>
-0

> <b_epik_Metal_Only>
0

> <s_lp_Force_Field>
OPLS_2005

> <r_lp_Energy>
9.86252

> <b_lp_Chiralities_Consistent>
1

> <s_lp_Variant>
AV-unprocessed.smi:3219-1

> <Gold.Version>
5.8.1

> <Gold.Id.Protein>
6NUR|6NUR_protein|mol2

> <Gold.PLP.Fitness>
46.7024

> <Gold.PLP.PLP>
-35.7365

> <Gold.PLP.part.hbond>
-2.3573

> <Gold.PLP.part.metal>
0.0000

> <Gold.PLP.part.buried>
1.0597

> <Gold.PLP.part.nonpolar>
-34.4300

> <Gold.PLP.part.repulsive>
0.2291

> <Gold.PLP.ligand.clash>
0.0000

> <Gold.PLP.ligand.torsion>
0.5268

> <Gold.PLP.Chemscore.Hbond>
3.0000

> <Gold.PLP.Chemscore.CHOScore>
1.0000

> <Gold.PLP.Chemscore.Metal>
0.0000

> <Gold.Chemscore.Hbonds>
donor molecule, donor type, donor heavy atom, donor atom, acceptor molecule, acceptor atom, score
      L1  H     6    41       P1  7948  2.00
      P1  H  7989  7998       L1    15  0.88
      L1  C    14    37       P1  7948  0.71

> <Gold.PLP.Chemscore.Internal.Correction>
0.0194

> <Gold.Rescore>
     Score         DG    S(hbond)    S(metal)    S(lipo)     H(rot)  DE(clash)    DE(int)     intcor
     16.42     -17.46       1.64        0.00      87.39       1.46       0.68       0.36       ----

> <Gold.Chemscore.Fitness>
16.4167

> <Gold.Chemscore.DG>
-17.4553

> <Gold.Chemscore.ZeroCoef>
-5.4800

> <Gold.Chemscore.Hbond>
1.6429

> <Gold.Chemscore.Metal>
0.0000

> <Gold.Chemscore.Lipo>
87.3898

> <Gold.Chemscore.Internal_Hbond>
0.0000

> <Gold.Chemscore.DEClash>
0.6788

> <Gold.Chemscore.DEInternal>
0.3598

> <Gold.Chemscore.Rot>
1.4597

> <Gold.Chemscore.Internal.Correction>
   9.000000E+99

> <Gold.Chemscore.Hbonds>
donor molecule, donor type, donor heavy atom, donor atom, acceptor molecule, acceptor atom, score
      L1  H     6    41       P1  7948  0.99
      P1  H  7989  7998       L1    15  0.33

> <Gold.Chemscore.Hbond.Weighted>
-5.4874

> <Gold.Chemscore.Metal.Weighted>
-0.0000

> <Gold.Chemscore.Lipo.Weighted>
-10.2246

> <Gold.Chemscore.Internal_Hbond.Weighted>
0.0000

> <Gold.Chemscore.DEClash.Weighted>
0.6788

> <Gold.Chemscore.DEInternal.Weighted>
0.3598

> <Gold.Chemscore.Rot.Weighted>
3.7368

> <Gold.Chemscore.Internal.Correction.Weighted>
   9.000000E+99

> <Gold.Protein.RotatedTorsions>
[ 6907 6896 6895 6894 ] final -177.65 input  -60.11 | X-H torsion
[ 7974 7965 7964 7962 ] final   91.50 input  175.53 | X-H torsion
[ 8008 7997 7996 7995 ] final  148.77 input   59.86 | X-H torsion
[ 10167 10162 10161 10158 ] final -162.90 input  -65.29 | X-H torsion
[ 10718 10713 10712 10709 ] final   33.24 input   66.30 | X-H torsion
[ 10763 10752 10751 10750 ] final  179.41 input  -60.55 | X-H torsion
[ 11005 11000 10999 10996 ] final   23.71 input  -57.11 | X-H torsion

> <Gold.Protein.ActiveResidues>
 VAL166  LYS551  ARG553  GLY616  TRP617  ASP618  TYR619  PRO620  LYS621  CYS622 
 ASP623  PHE694  ASN695  SER759  ASP760  ASP761  ALA762  ILE779  LEU786  VAL792 
 PHE793  MET794  SER795  GLU796  ALA797  LYS798  CYS799  TRP800  GLU811  SER814 

> <Gold.Protein.RotatedAtoms>
  151.6245  133.3336  159.3094 H   0  0  0  0  0  0  0  0  0  0  0  0  # atno 6907 bound_to 6896
  150.8089  134.7235  159.6681 H   0  0  0  0  0  0  0  0  0  0  0  0  # atno 6908 bound_to 6896
  152.4185  134.6003  160.0050 H   0  0  0  0  0  0  0  0  0  0  0  0  # atno 6909 bound_to 6896
  145.5049  139.2276  143.2757 H   0  0  0  0  0  0  0  0  0  0  0  0  # atno 7974 bound_to 7965
  156.2779  140.2120  156.5751 H   0  0  0  0  0  0  0  0  0  0  0  0  # atno 8008 bound_to 7997
  154.7104  140.0512  157.0567 H   0  0  0  0  0  0  0  0  0  0  0  0  # atno 8009 bound_to 7997
  155.0613  140.3167  155.4662 H   0  0  0  0  0  0  0  0  0  0  0  0  # atno 8010 bound_to 7997
  139.6359  144.0351  152.2053 H   0  0  0  0  0  0  0  0  0  0  0  0  # atno 10167 bound_to 10162
  157.2954  130.7324  149.6635 H   0  0  0  0  0  0  0  0  0  0  0  0  # atno 10718 bound_to 10713
  154.5204  135.2793  155.1267 H   0  0  0  0  0  0  0  0  0  0  0  0  # atno 10763 bound_to 10752
  154.2827  135.6282  153.5357 H   0  0  0  0  0  0  0  0  0  0  0  0  # atno 10764 bound_to 10752
  152.9935  135.5655  154.5691 H   0  0  0  0  0  0  0  0  0  0  0  0  # atno 10765 bound_to 10752
  140.3667  134.2067  155.7669 H   0  0  0  0  0  0  0  0  0  0  0  0  # atno 11005 bound_to 11000
  146.2203  140.5852  142.9020 LP  0  0  0  0  0  0  0  0  0  0  0  0  # atno 17320 bound_to 7965
  144.7759  140.5739  143.6638 LP  0  0  0  0  0  0  0  0  0  0  0  0  # atno 17321 bound_to 7965
  140.0028  144.6280  150.7714 LP  0  0  0  0  0  0  0  0  0  0  0  0  # atno 17342 bound_to 10162
  140.7465  143.2891  151.3380 LP  0  0  0  0  0  0  0  0  0  0  0  0  # atno 17343 bound_to 10162
  155.9669  130.4296  150.4840 LP  0  0  0  0  0  0  0  0  0  0  0  0  # atno 17370 bound_to 10713
  157.2810  131.0607  151.2197 LP  0  0  0  0  0  0  0  0  0  0  0  0  # atno 17371 bound_to 10713
  141.1967  133.8075  157.0658 LP  0  0  0  0  0  0  0  0  0  0  0  0  # atno 17394 bound_to 11000
  140.0584  134.9768  157.1261 LP  0  0  0  0  0  0  0  0  0  0  0  0  # atno 17395 bound_to 11000

$$$$
