AV-unprocessed.smi:3126|AV-procd|sdf|11910|dock1
  -GOLD-   2272017293D 1   1.00000     0.00000
 Structure written by MMmdl.
 42 43  0  0  0  0  0  0  0  0  2 V2000
  153.5772  141.7702  161.4228 C   0  0  0  0  0  0  0  0  0  0  0  0
  153.8723  142.0467  159.9421 C   0  0  0  0  0  0  0  0  0  0  0  0
  152.7812  142.8674  159.2247 C   0  0  2  0  0  0  0  0  0  0  0  0
  152.5160  144.2234  159.9131 C   0  0  0  0  0  0  0  0  0  0  0  0
  151.4060  145.0147  159.2047 C   0  0  0  0  0  0  0  0  0  0  0  0
  150.1086  144.1968  159.1122 C   0  0  0  0  0  0  0  0  0  0  0  0
  150.3328  142.8325  158.4257 C   0  0  1  0  0  0  0  0  0  0  0  0
  150.6132  142.9676  156.9770 N   0  3  0  0  0  0  0  0  0  0  0  0
  150.3453  141.7634  156.1637 C   0  0  0  0  0  0  0  0  0  0  0  0
  151.5982  140.8850  156.0540 C   0  0  0  0  0  0  0  0  0  0  0  0
  151.2855  139.5229  155.4672 C   0  0  0  0  0  0  0  0  0  0  0  0
  149.9612  139.1569  155.1488 C   0  0  0  0  0  0  0  0  0  0  0  0
  149.7213  137.8761  154.6150 C   0  0  0  0  0  0  0  0  0  0  0  0
  150.8188  137.0135  154.4211 C   0  0  0  0  0  0  0  0  0  0  0  0
  152.0906  137.3535  154.7222 N   0  0  0  0  0  0  0  0  0  0  0  0
  152.3123  138.5835  155.2326 C   0  0  0  0  0  0  0  0  0  0  0  0
  151.4689  142.0582  159.1235 C   0  0  0  0  0  0  0  0  0  0  0  0
  154.4159  141.2549  161.8916 H   0  0  0  0  0  0  0  0  0  0  0  0
  152.6980  141.1391  161.5496 H   0  0  0  0  0  0  0  0  0  0  0  0
  153.4106  142.6971  161.9721 H   0  0  0  0  0  0  0  0  0  0  0  0
  154.8187  142.5858  159.8846 H   0  0  0  0  0  0  0  0  0  0  0  0
  154.0328  141.1030  159.4196 H   0  0  0  0  0  0  0  0  0  0  0  0
  153.1310  143.0650  158.2104 H   0  0  0  0  0  0  0  0  0  0  0  0
  152.2369  144.0596  160.9549 H   0  0  0  0  0  0  0  0  0  0  0  0
  153.4226  144.8278  159.9295 H   0  0  0  0  0  0  0  0  0  0  0  0
  151.2177  145.9452  159.7411 H   0  0  0  0  0  0  0  0  0  0  0  0
  151.7379  145.2992  158.2055 H   0  0  0  0  0  0  0  0  0  0  0  0
  149.7323  144.0246  160.1215 H   0  0  0  0  0  0  0  0  0  0  0  0
  149.3351  144.7741  158.6067 H   0  0  0  0  0  0  0  0  0  0  0  0
  149.4233  142.2382  158.5249 H   0  0  0  0  0  0  0  0  0  0  0  0
  150.0777  143.7427  156.6128 H   0  0  0  0  0  0  0  0  0  0  0  0
  149.5338  141.1943  156.6194 H   0  0  0  0  0  0  0  0  0  0  0  0
  150.0160  142.0547  155.1665 H   0  0  0  0  0  0  0  0  0  0  0  0
  152.3486  141.3763  155.4328 H   0  0  0  0  0  0  0  0  0  0  0  0
  152.0512  140.7512  157.0375 H   0  0  0  0  0  0  0  0  0  0  0  0
  149.1425  139.8421  155.3130 H   0  0  0  0  0  0  0  0  0  0  0  0
  148.7201  137.5608  154.3607 H   0  0  0  0  0  0  0  0  0  0  0  0
  150.6704  136.0240  154.0148 H   0  0  0  0  0  0  0  0  0  0  0  0
  153.3394  138.8230  155.4657 H   0  0  0  0  0  0  0  0  0  0  0  0
  151.6469  141.1170  158.6014 H   0  0  0  0  0  0  0  0  0  0  0  0
  151.1425  141.7850  160.1283 H   0  0  0  0  0  0  0  0  0  0  0  0
  151.5948  143.1832  156.8768 H   0  0  0  0  0  0  0  0  0  0  0  0
  1  2  1  0  0  0  0
  1 18  1  0  0  0  0
  1 19  1  0  0  0  0
  1 20  1  0  0  0  0
  2  3  1  0  0  0  0
  2 21  1  0  0  0  0
  2 22  1  0  0  0  0
  3 17  1  0  0  0  0
  3  4  1  0  0  0  0
  3 23  1  0  0  0  0
  4  5  1  0  0  0  0
  4 24  1  0  0  0  0
  4 25  1  0  0  0  0
  5  6  1  0  0  0  0
  5 26  1  0  0  0  0
  5 27  1  0  0  0  0
  6  7  1  0  0  0  0
  6 28  1  0  0  0  0
  6 29  1  0  0  0  0
  7  8  1  0  0  0  0
  7 17  1  0  0  0  0
  7 30  1  0  0  0  0
  8  9  1  0  0  0  0
  8 31  1  0  0  0  0
  8 42  1  0  0  0  0
  9 10  1  0  0  0  0
  9 32  1  0  0  0  0
  9 33  1  0  0  0  0
 10 11  1  0  0  0  0
 10 34  1  0  0  0  0
 10 35  1  0  0  0  0
 11 16  1  0  0  0  0
 11 12  2  0  0  0  0
 12 13  1  0  0  0  0
 12 36  1  0  0  0  0
 13 14  2  0  0  0  0
 13 37  1  0  0  0  0
 14 15  1  0  0  0  0
 14 38  1  0  0  0  0
 15 16  2  0  0  0  0
 16 39  1  0  0  0  0
 17 40  1  0  0  0  0
 17 41  1  0  0  0  0
M  CHG  1   8   1
M  END
> <s_m_source_file>
AV-unprocessed.smi

> <i_m_source_file_index>
3126

> <i_lp_mmshare_version>
43012

> <i_f3d_flags>
0

> <s_epik_input>
W0NIM11bQ0gyXVtDQEBIXTFbQ0gyXVtDSDJdW0NIMl1bQ0BIXShbQ0gyXTEpW05IXVtDSDJdW0NIMl1jMltjSF1bY0hdW2NIXW5bY0hdMg==

> <s_epik_cmdline>
J2VwaWtfcHl0aG9uJywgJy1waCcsICc3LjAnLCAnLXRuJywgJzgnLCAnLW1hJywgJzIwMCcsICctbWV0YWxfYmluZGluZycsICctaW1hZScsICc8aW5maWxlLm1hZT4nLCAnLW9tYWUnLCAnPG91dGZpbGUubWFlPic=

> <r_lp_tautomer_probability>
1

> <r_epik_Ionization_Penalty>
0.000947364

> <r_epik_Ionization_Penalty_Charging>
0.000286103

> <r_epik_Ionization_Penalty_Neutral>
0.000661261

> <r_epik_State_Penalty>
-0

> <r_epik_Charging_Adjusted_Penalty>
0.000286103

> <i_epik_Tot_Q>
1

> <i_epik_Tot_abs_Q>
1

> <r_epik_Metal_State_Penalty>
-0

> <b_epik_Metal_Only>
0

> <s_lp_Force_Field>
OPLS_2005

> <r_lp_Energy>
17.7549

> <b_lp_Chiralities_Consistent>
1

> <s_lp_Variant>
AV-unprocessed.smi:3126-1

> <Gold.Version>
5.8.1

> <Gold.Id.Protein>
6NUR|6NUR_protein|mol2

> <Gold.PLP.Fitness>
50.0408

> <Gold.PLP.PLP>
-40.9965

> <Gold.PLP.part.hbond>
-2.0000

> <Gold.PLP.part.metal>
0.0000

> <Gold.PLP.part.buried>
-3.8842

> <Gold.PLP.part.nonpolar>
-36.2009

> <Gold.PLP.part.repulsive>
0.1298

> <Gold.PLP.ligand.clash>
0.0000

> <Gold.PLP.ligand.torsion>
0.4413

> <Gold.PLP.Chemscore.Hbond>
2.8480

> <Gold.PLP.Chemscore.CHOScore>
0.4548

> <Gold.PLP.Chemscore.Metal>
0.0000

> <Gold.Chemscore.Hbonds>
donor molecule, donor type, donor heavy atom, donor atom, acceptor molecule, acceptor atom, score
      L1  H     8    31       P1  8028  2.00
      P1  H 10752 10764       L1    15  0.79
      L1  C    14    38       P1  7948  0.09
      L1  C    14    38       P1  7949  0.34

> <Gold.PLP.Chemscore.Internal.Correction>
0.0183

> <Gold.Rescore>
     Score         DG    S(hbond)    S(metal)    S(lipo)     H(rot)  DE(clash)    DE(int)     intcor
     22.49     -23.01       1.91        0.00     125.01       1.35       0.01       0.51       ----

> <Gold.Chemscore.Fitness>
22.4875

> <Gold.Chemscore.DG>
-23.0135

> <Gold.Chemscore.ZeroCoef>
-5.4800

> <Gold.Chemscore.Hbond>
1.9059

> <Gold.Chemscore.Metal>
0.0000

> <Gold.Chemscore.Lipo>
125.0061

> <Gold.Chemscore.Internal_Hbond>
0.0000

> <Gold.Chemscore.DEClash>
0.0110

> <Gold.Chemscore.DEInternal>
0.5149

> <Gold.Chemscore.Rot>
1.3507

> <Gold.Chemscore.Internal.Correction>
   9.000000E+99

> <Gold.Chemscore.Hbonds>
donor molecule, donor type, donor heavy atom, donor atom, acceptor molecule, acceptor atom, score
      L1  H     8    31       P1  8028  1.00
      P1  H 10752 10764       L1    15  0.18

> <Gold.Chemscore.Hbond.Weighted>
-6.3656

> <Gold.Chemscore.Metal.Weighted>
-0.0000

> <Gold.Chemscore.Lipo.Weighted>
-14.6257

> <Gold.Chemscore.Internal_Hbond.Weighted>
0.0000

> <Gold.Chemscore.DEClash.Weighted>
0.0110

> <Gold.Chemscore.DEInternal.Weighted>
0.5149

> <Gold.Chemscore.Rot.Weighted>
3.4579

> <Gold.Chemscore.Internal.Correction.Weighted>
   9.000000E+99

> <Gold.Protein.RotatedTorsions>
[ 6907 6896 6895 6894 ] final   -8.94 input  -60.11 | X-H torsion
[ 7974 7965 7964 7962 ] final -132.24 input  175.53 | X-H torsion
[ 8008 7997 7996 7995 ] final  -47.05 input   59.86 | X-H torsion
[ 10167 10162 10161 10158 ] final  177.48 input  -65.29 | X-H torsion
[ 10718 10713 10712 10709 ] final  160.56 input   66.30 | X-H torsion
[ 10763 10752 10751 10750 ] final  -71.68 input  -60.55 | X-H torsion
[ 11005 11000 10999 10996 ] final -168.80 input  -57.11 | X-H torsion

> <Gold.Protein.ActiveResidues>
 VAL166  LYS551  ARG553  GLY616  TRP617  ASP618  TYR619  PRO620  LYS621  CYS622 
 ASP623  PHE694  ASN695  SER759  ASP760  ASP761  ALA762  ILE779  LEU786  VAL792 
 PHE793  MET794  SER795  GLU796  ALA797  LYS798  CYS799  TRP800  GLU811  SER814 

> <Gold.Protein.RotatedAtoms>
  151.4257  135.1003  159.9626 H   0  0  0  0  0  0  0  0  0  0  0  0  # atno 6907 bound_to 6896
  152.4973  133.8665  159.7287 H   0  0  0  0  0  0  0  0  0  0  0  0  # atno 6908 bound_to 6896
  150.9191  133.6844  159.2864 H   0  0  0  0  0  0  0  0  0  0  0  0  # atno 6909 bound_to 6896
  144.9303  140.7121  143.4910 H   0  0  0  0  0  0  0  0  0  0  0  0  # atno 7974 bound_to 7965
  154.4013  140.1356  156.4112 H   0  0  0  0  0  0  0  0  0  0  0  0  # atno 8008 bound_to 7997
  155.7731  140.3483  155.5237 H   0  0  0  0  0  0  0  0  0  0  0  0  # atno 8009 bound_to 7997
  155.8747  140.0977  157.1517 H   0  0  0  0  0  0  0  0  0  0  0  0  # atno 8010 bound_to 7997
  139.5255  144.2793  152.0560 H   0  0  0  0  0  0  0  0  0  0  0  0  # atno 10167 bound_to 10162
  157.1488  131.0559  151.2290 H   0  0  0  0  0  0  0  0  0  0  0  0  # atno 10718 bound_to 10713
  154.4352  135.5954  153.6094 H   0  0  0  0  0  0  0  0  0  0  0  0  # atno 10763 bound_to 10752
  152.9801  135.5984  154.3790 H   0  0  0  0  0  0  0  0  0  0  0  0  # atno 10764 bound_to 10752
  154.3633  135.2841  155.2286 H   0  0  0  0  0  0  0  0  0  0  0  0  # atno 10765 bound_to 10752
  140.5379  134.5551  157.5092 H   0  0  0  0  0  0  0  0  0  0  0  0  # atno 11005 bound_to 11000
  145.3152  139.1806  143.4617 LP  0  0  0  0  0  0  0  0  0  0  0  0  # atno 17320 bound_to 7965
  146.3244  140.3162  142.8630 LP  0  0  0  0  0  0  0  0  0  0  0  0  # atno 17321 bound_to 7965
  140.2249  144.4428  150.6325 LP  0  0  0  0  0  0  0  0  0  0  0  0  # atno 17342 bound_to 10162
  140.6394  143.2200  151.6324 LP  0  0  0  0  0  0  0  0  0  0  0  0  # atno 17343 bound_to 10162
  157.4240  130.7453  149.6936 LP  0  0  0  0  0  0  0  0  0  0  0  0  # atno 17370 bound_to 10713
  155.9774  130.4063  150.3712 LP  0  0  0  0  0  0  0  0  0  0  0  0  # atno 17371 bound_to 10713
  139.9519  134.7601  156.0428 LP  0  0  0  0  0  0  0  0  0  0  0  0  # atno 17394 bound_to 11000
  141.1244  133.6603  156.3298 LP  0  0  0  0  0  0  0  0  0  0  0  0  # atno 17395 bound_to 11000

$$$$
