AV-unprocessed.smi:281|AV-procd|sdf|2103|dock10
  -GOLD-   2262021393D 1   1.00000     0.00000
 Structure written by MMmdl.
 55 59  0  0  0  0  0  0  0  0  1 V2000
  148.0514  141.6762  154.1153 C   0  0  0  0  0  0  0  0  0  0  0  0
  148.7345  140.3104  154.2371 C   0  0  2  0  0  0  0  0  0  0  0  0
  147.7250  139.1845  154.5082 C   0  0  0  0  0  0  0  0  0  0  0  0
  148.4322  137.9286  154.7194 N   0  0  0  0  0  0  0  0  0  0  0  0
  147.6614  136.8141  154.6432 C   0  0  0  0  0  0  0  0  0  0  0  0
  147.8351  135.8046  155.5383 N   0  0  0  0  0  0  0  0  0  0  0  0
  147.0744  134.7081  155.4764 C   0  0  0  0  0  0  0  0  0  0  0  0
  146.1020  134.4154  154.6115 N   0  0  0  0  0  0  0  0  0  0  0  0
  145.9311  135.4166  153.7014 C   0  0  0  0  0  0  0  0  0  0  0  0
  146.6574  136.6402  153.6488 C   0  0  0  0  0  0  0  0  0  0  0  0
  146.2048  137.4120  152.5849 N   0  0  0  0  0  0  0  0  0  0  0  0
  145.2588  136.6916  152.0477 C   0  0  0  0  0  0  0  0  0  0  0  0
  145.0381  135.4709  152.6449 N   0  0  0  0  0  0  0  0  0  0  0  0
  144.0560  134.4712  152.2514 C   0  0  0  0  0  0  0  0  0  0  0  0
  144.4152  133.7007  150.9547 C   0  0  2  0  0  0  0  0  0  0  0  0
  144.2209  134.5473  149.8369 O   0  0  0  0  0  0  0  0  0  0  0  0
  143.6176  132.4102  150.7477 C   0  0  0  0  0  0  0  0  0  0  0  0
  144.5849  131.3291  151.2077 C   0  0  0  0  0  0  0  0  0  0  0  0
  145.8260  131.8093  150.7239 O   0  0  0  0  0  0  0  0  0  0  0  0
  145.8767  133.2077  150.9770 C   0  0  0  0  0  0  0  0  0  0  0  0
  149.4234  138.0066  155.7887 C   0  0  0  0  0  0  0  0  0  0  0  0
  150.4096  139.1747  155.5552 C   0  0  2  0  0  0  0  0  0  0  0  0
  151.4106  138.9154  154.4198 C   0  0  0  0  0  0  0  0  0  0  0  0
  152.7370  138.6793  155.1296 C   0  0  0  0  0  0  0  0  0  0  0  0
  152.6385  139.5321  156.2545 O   0  0  0  0  0  0  0  0  0  0  0  0
  151.3325  139.3598  156.7844 C   0  0  1  0  0  0  0  0  0  0  0  0
  150.9758  140.5183  157.7270 C   0  0  0  0  0  0  0  0  0  0  0  0
  149.6706  140.3789  155.3132 O   0  0  0  0  0  0  0  0  0  0  0  0
  147.3298  141.6826  153.2980 H   0  0  0  0  0  0  0  0  0  0  0  0
  148.7828  142.4604  153.9187 H   0  0  0  0  0  0  0  0  0  0  0  0
  147.5225  141.9361  155.0325 H   0  0  0  0  0  0  0  0  0  0  0  0
  149.2582  140.1069  153.3024 H   0  0  0  0  0  0  0  0  0  0  0  0
  147.1368  139.4119  155.3984 H   0  0  0  0  0  0  0  0  0  0  0  0
  147.0247  139.1159  153.6767 H   0  0  0  0  0  0  0  0  0  0  0  0
  147.2748  133.9573  156.2264 H   0  0  0  0  0  0  0  0  0  0  0  0
  144.6970  137.0312  151.1897 H   0  0  0  0  0  0  0  0  0  0  0  0
  143.9359  133.7718  153.0800 H   0  0  0  0  0  0  0  0  0  0  0  0
  143.0933  134.9708  152.1351 H   0  0  0  0  0  0  0  0  0  0  0  0
  144.8941  134.3621  149.2002 H   0  0  0  0  0  0  0  0  0  0  0  0
  142.6682  132.3726  151.2793 H   0  0  0  0  0  0  0  0  0  0  0  0
  143.4010  132.2547  149.6894 H   0  0  0  0  0  0  0  0  0  0  0  0
  144.6106  131.2601  152.2965 H   0  0  0  0  0  0  0  0  0  0  0  0
  144.3454  130.3463  150.8014 H   0  0  0  0  0  0  0  0  0  0  0  0
  146.5134  133.7052  150.2440 H   0  0  0  0  0  0  0  0  0  0  0  0
  146.3301  133.3614  151.9574 H   0  0  0  0  0  0  0  0  0  0  0  0
  148.9034  138.1501  156.7371 H   0  0  0  0  0  0  0  0  0  0  0  0
  149.9728  137.0667  155.8620 H   0  0  0  0  0  0  0  0  0  0  0  0
  151.1318  138.0847  153.7708 H   0  0  0  0  0  0  0  0  0  0  0  0
  151.5112  139.8030  153.7940 H   0  0  0  0  0  0  0  0  0  0  0  0
  152.8301  137.6422  155.4562 H   0  0  0  0  0  0  0  0  0  0  0  0
  153.5983  138.9265  154.5087 H   0  0  0  0  0  0  0  0  0  0  0  0
  151.3535  138.4355  157.3651 H   0  0  0  0  0  0  0  0  0  0  0  0
  149.9658  140.4042  158.1217 H   0  0  0  0  0  0  0  0  0  0  0  0
  151.0331  141.4807  157.2176 H   0  0  0  0  0  0  0  0  0  0  0  0
  151.6614  140.5528  158.5735 H   0  0  0  0  0  0  0  0  0  0  0  0
  1  2  1  0  0  0  0
  1 29  1  0  0  0  0
  1 30  1  0  0  0  0
  1 31  1  0  0  0  0
  2 28  1  0  0  0  0
  2  3  1  0  0  0  0
  2 32  1  0  0  0  0
  3  4  1  0  0  0  0
  3 33  1  0  0  0  0
  3 34  1  0  0  0  0
  4  5  1  0  0  0  0
  4 21  1  0  0  0  0
  5 10  1  0  0  0  0
  5  6  2  0  0  0  0
  6  7  1  0  0  0  0
  7  8  2  0  0  0  0
  7 35  1  0  0  0  0
  8  9  1  0  0  0  0
  9 13  1  0  0  0  0
  9 10  2  0  0  0  0
 10 11  1  0  0  0  0
 11 12  2  0  0  0  0
 12 13  1  0  0  0  0
 12 36  1  0  0  0  0
 13 14  1  0  0  0  0
 14 15  1  0  0  0  0
 14 37  1  0  0  0  0
 14 38  1  0  0  0  0
 15 20  1  0  0  0  0
 15 16  1  0  0  0  0
 15 17  1  0  0  0  0
 16 39  1  0  0  0  0
 17 18  1  0  0  0  0
 17 40  1  0  0  0  0
 17 41  1  0  0  0  0
 18 19  1  0  0  0  0
 18 42  1  0  0  0  0
 18 43  1  0  0  0  0
 19 20  1  0  0  0  0
 20 44  1  0  0  0  0
 20 45  1  0  0  0  0
 21 22  1  0  0  0  0
 21 46  1  0  0  0  0
 21 47  1  0  0  0  0
 22 26  1  0  0  0  0
 22 23  1  0  0  0  0
 22 28  1  0  0  0  0
 23 24  1  0  0  0  0
 23 48  1  0  0  0  0
 23 49  1  0  0  0  0
 24 25  1  0  0  0  0
 24 50  1  0  0  0  0
 24 51  1  0  0  0  0
 25 26  1  0  0  0  0
 26 27  1  0  0  0  0
 26 52  1  0  0  0  0
 27 53  1  0  0  0  0
 27 54  1  0  0  0  0
 27 55  1  0  0  0  0
M  END
> <s_m_source_file>
AV-unprocessed.smi

> <i_m_source_file_index>
281

> <i_lp_mmshare_version>
43012

> <i_f3d_flags>
0

> <s_epik_input>
W0NIM11bQ0BASF0xT1tDSDJdW0NIMl1bQ0BAXTEyW0NIMl1OKFtDSDJdW0NASF0oTzIpW0NIM10pYyhuW2NIXW4zKWMoYzM0KW5bY0hdbjRbQ0gyXVtDQEBdNShbT0hdKVtDSDJdW0NIMl1PW0NIMl01

> <s_epik_cmdline>
J2VwaWtfcHl0aG9uJywgJy1waCcsICc3LjAnLCAnLXRuJywgJzgnLCAnLW1hJywgJzIwMCcsICctbWV0YWxfYmluZGluZycsICctaW1hZScsICc8aW5maWxlLm1hZT4nLCAnLW9tYWUnLCAnPG91dGZpbGUubWFlPic=

> <r_lp_tautomer_probability>
1

> <r_epik_Ionization_Penalty>
0.00571331

> <r_epik_Ionization_Penalty_Charging>
0

> <r_epik_Ionization_Penalty_Neutral>
0.00571331

> <r_epik_State_Penalty>
0.00399586

> <r_epik_Charging_Adjusted_Penalty>
0.00399586

> <i_epik_Tot_Q>
0

> <i_epik_Tot_abs_Q>
0

> <r_epik_Metal_State_Penalty>
-0

> <b_epik_Metal_Only>
0

> <s_lp_Force_Field>
OPLS_2005

> <r_lp_Energy>
53.0608

> <b_lp_Chiralities_Consistent>
1

> <s_lp_Variant>
AV-unprocessed.smi:281-3

> <Gold.Version>
5.8.1

> <Gold.Id.Protein>
6NUR|6NUR_protein|mol2

> <Gold.PLP.Fitness>
43.5199

> <Gold.PLP.PLP>
-35.3099

> <Gold.PLP.part.hbond>
-2.7149

> <Gold.PLP.part.metal>
0.0000

> <Gold.PLP.part.buried>
-3.0545

> <Gold.PLP.part.nonpolar>
-30.1366

> <Gold.PLP.part.repulsive>
0.7239

> <Gold.PLP.ligand.clash>
0.0000

> <Gold.PLP.ligand.torsion>
0.5451

> <Gold.PLP.Chemscore.Hbond>
2.0000

> <Gold.PLP.Chemscore.CHOScore>
1.0000

> <Gold.PLP.Chemscore.Metal>
0.0000

> <Gold.Chemscore.Hbonds>
donor molecule, donor type, donor heavy atom, donor atom, acceptor molecule, acceptor atom, score
      L1  H    16    39       P1  7921  0.96
      P1  H  7997  8010       L1    25  0.85
      L1  C    12    36       P1 10171  1.00

> <Gold.PLP.Chemscore.Internal.Correction>
0.3001

> <Gold.Rescore>
     Score         DG    S(hbond)    S(metal)    S(lipo)     H(rot)  DE(clash)    DE(int)     intcor
     13.38     -17.18       1.92        0.00      90.89       2.09       2.18       1.63       ----

> <Gold.Chemscore.Fitness>
13.3762

> <Gold.Chemscore.DG>
-17.1802

> <Gold.Chemscore.ZeroCoef>
-5.4800

> <Gold.Chemscore.Hbond>
1.9231

> <Gold.Chemscore.Metal>
0.0000

> <Gold.Chemscore.Lipo>
90.8911

> <Gold.Chemscore.Internal_Hbond>
0.0000

> <Gold.Chemscore.DEClash>
2.1759

> <Gold.Chemscore.DEInternal>
1.6282

> <Gold.Chemscore.Rot>
2.0927

> <Gold.Chemscore.Internal.Correction>
   9.000000E+99

> <Gold.Chemscore.Hbonds>
donor molecule, donor type, donor heavy atom, donor atom, acceptor molecule, acceptor atom, score
      L1  H    16    39       P1  7921  0.89
      P1  H  7997  8010       L1    25  0.15

> <Gold.Chemscore.Hbond.Weighted>
-6.4233

> <Gold.Chemscore.Metal.Weighted>
-0.0000

> <Gold.Chemscore.Lipo.Weighted>
-10.6343

> <Gold.Chemscore.Internal_Hbond.Weighted>
0.0000

> <Gold.Chemscore.DEClash.Weighted>
2.1759

> <Gold.Chemscore.DEInternal.Weighted>
1.6282

> <Gold.Chemscore.Rot.Weighted>
5.3573

> <Gold.Chemscore.Internal.Correction.Weighted>
   9.000000E+99

> <Gold.Protein.RotatedTorsions>
[ 6907 6896 6895 6894 ] final -160.64 input  -60.11 | X-H torsion
[ 7974 7965 7964 7962 ] final -107.95 input  175.53 | X-H torsion
[ 8008 7997 7996 7995 ] final   83.57 input   59.86 | X-H torsion
[ 10167 10162 10161 10158 ] final  158.94 input  -65.29 | X-H torsion
[ 10718 10713 10712 10709 ] final    2.94 input   66.30 | X-H torsion
[ 10763 10752 10751 10750 ] final  126.34 input  -60.55 | X-H torsion
[ 11005 11000 10999 10996 ] final  -68.00 input  -57.11 | X-H torsion

> <Gold.Protein.ActiveResidues>
 VAL166  LYS551  ARG553  GLY616  TRP617  ASP618  TYR619  PRO620  LYS621  CYS622 
 ASP623  PHE694  ASN695  SER759  ASP760  ASP761  ALA762  ILE779  LEU786  VAL792 
 PHE793  MET794  SER795  GLU796  ALA797  LYS798  CYS799  TRP800  GLU811  SER814 

> <Gold.Protein.RotatedAtoms>
  151.3522  133.3921  159.2681 H   0  0  0  0  0  0  0  0  0  0  0  0  # atno 6907 bound_to 6896
  150.9792  134.9151  159.7844 H   0  0  0  0  0  0  0  0  0  0  0  0  # atno 6908 bound_to 6896
  152.5211  134.3486  159.9295 H   0  0  0  0  0  0  0  0  0  0  0  0  # atno 6909 bound_to 6896
  145.1990  140.9048  143.3381 H   0  0  0  0  0  0  0  0  0  0  0  0  # atno 7974 bound_to 7965
  155.9256  140.3418  155.6208 H   0  0  0  0  0  0  0  0  0  0  0  0  # atno 8008 bound_to 7997
  155.7220  140.0784  157.2345 H   0  0  0  0  0  0  0  0  0  0  0  0  # atno 8009 bound_to 7997
  154.4076  140.1603  156.2400 H   0  0  0  0  0  0  0  0  0  0  0  0  # atno 8010 bound_to 7997
  139.4829  144.4777  151.8488 H   0  0  0  0  0  0  0  0  0  0  0  0  # atno 10167 bound_to 10162
  156.8705  130.5618  149.5657 H   0  0  0  0  0  0  0  0  0  0  0  0  # atno 10718 bound_to 10713
  153.6918  135.3297  155.3204 H   0  0  0  0  0  0  0  0  0  0  0  0  # atno 10763 bound_to 10752
  154.8438  135.4433  154.1501 H   0  0  0  0  0  0  0  0  0  0  0  0  # atno 10764 bound_to 10752
  153.2544  135.6985  153.7722 H   0  0  0  0  0  0  0  0  0  0  0  0  # atno 10765 bound_to 10752
  141.1522  133.6731  156.6380 H   0  0  0  0  0  0  0  0  0  0  0  0  # atno 11005 bound_to 11000
  144.9967  139.3637  143.6188 LP  0  0  0  0  0  0  0  0  0  0  0  0  # atno 17320 bound_to 7965
  146.3421  139.9172  142.8772 LP  0  0  0  0  0  0  0  0  0  0  0  0  # atno 17321 bound_to 7965
  140.4251  144.2191  150.5887 LP  0  0  0  0  0  0  0  0  0  0  0  0  # atno 17342 bound_to 10162
  140.4835  143.2371  151.8921 LP  0  0  0  0  0  0  0  0  0  0  0  0  # atno 17343 bound_to 10162
  156.0729  130.5758  150.9418 LP  0  0  0  0  0  0  0  0  0  0  0  0  # atno 17370 bound_to 10713
  157.6198  131.0930  150.8643 LP  0  0  0  0  0  0  0  0  0  0  0  0  # atno 17371 bound_to 10713
  140.3416  134.7844  157.4401 LP  0  0  0  0  0  0  0  0  0  0  0  0  # atno 17394 bound_to 11000
  140.0934  134.5571  155.8422 LP  0  0  0  0  0  0  0  0  0  0  0  0  # atno 17395 bound_to 11000

$$$$
