AV-unprocessed.smi:1323|AV-procd|sdf|5465|dock6
  -GOLD-   22720 5 33D 1   1.00000     0.00000
 Structure written by MMmdl.
 45 46  0  0  0  0  0  0  0  0  1 V2000
  153.5578  141.3168  160.5453 C   0  0  0  0  0  0  0  0  0  0  0  0
  153.0210  141.8985  159.2273 C   0  0  2  0  0  0  0  0  0  0  0  0
  152.9621  143.4380  159.2978 C   0  0  0  0  0  0  0  0  0  0  0  0
  152.4220  144.0484  157.9960 C   0  0  0  0  0  0  0  0  0  0  0  0
  151.0413  143.4734  157.6514 C   0  0  0  0  0  0  0  0  0  0  0  0
  151.0899  141.9407  157.5651 C   0  0  0  0  0  0  0  0  0  0  0  0
  151.6370  141.3129  158.8650 C   0  0  1  0  0  0  0  0  0  0  0  0
  151.7904  139.9118  158.6760 O   0  0  0  0  0  0  0  0  0  0  0  0
  150.6531  139.1421  159.0374 C   0  0  0  0  0  0  0  0  0  0  0  0
  150.0240  138.5598  157.7674 C   0  0  0  0  0  0  0  0  0  0  0  0
  148.9993  137.5832  158.1092 N   0  0  0  0  0  0  0  0  0  0  0  0
  149.2376  136.4062  158.7037 C   0  0  0  0  0  0  0  0  0  0  0  0
  150.3666  136.0309  159.0236 O   0  0  0  0  0  0  0  0  0  0  0  0
  148.0040  135.5274  158.9577 C   0  0  0  0  0  0  0  0  0  0  0  0
  147.7847  135.2118  160.3792 N   0  0  0  0  0  0  0  0  0  0  0  0
  147.8028  133.8501  160.7412 C   0  0  0  0  0  0  0  0  0  0  0  0
  147.6155  133.4498  162.0087 C   0  0  0  0  0  0  0  0  0  0  0  0
  147.3887  134.4582  163.0165 C   0  0  0  0  0  0  0  0  0  0  0  0
  147.3740  135.7639  162.6818 C   0  0  0  0  0  0  0  0  0  0  0  0
  147.5826  136.2063  161.2980 C   0  0  0  0  0  0  0  0  0  0  0  0
  147.5760  137.3971  160.9846 O   0  0  0  0  0  0  0  0  0  0  0  0
  152.8926  141.5434  161.3791 H   0  0  0  0  0  0  0  0  0  0  0  0
  154.5400  141.7262  160.7829 H   0  0  0  0  0  0  0  0  0  0  0  0
  153.6623  140.2332  160.4884 H   0  0  0  0  0  0  0  0  0  0  0  0
  153.7213  141.6276  158.4357 H   0  0  0  0  0  0  0  0  0  0  0  0
  152.3283  143.7452  160.1310 H   0  0  0  0  0  0  0  0  0  0  0  0
  153.9550  143.8402  159.5023 H   0  0  0  0  0  0  0  0  0  0  0  0
  152.3606  145.1330  158.0904 H   0  0  0  0  0  0  0  0  0  0  0  0
  153.1176  143.8468  157.1805 H   0  0  0  0  0  0  0  0  0  0  0  0
  150.3176  143.7754  158.4094 H   0  0  0  0  0  0  0  0  0  0  0  0
  150.6914  143.8885  156.7059 H   0  0  0  0  0  0  0  0  0  0  0  0
  150.0919  141.5615  157.3461 H   0  0  0  0  0  0  0  0  0  0  0  0
  151.7209  141.6466  156.7254 H   0  0  0  0  0  0  0  0  0  0  0  0
  150.9496  141.5133  159.6896 H   0  0  0  0  0  0  0  0  0  0  0  0
  150.9605  138.3320  159.7003 H   0  0  0  0  0  0  0  0  0  0  0  0
  149.9198  139.7430  159.5764 H   0  0  0  0  0  0  0  0  0  0  0  0
  149.5910  139.3555  157.1594 H   0  0  0  0  0  0  0  0  0  0  0  0
  150.7941  138.0754  157.1653 H   0  0  0  0  0  0  0  0  0  0  0  0
  148.0463  137.8166  157.8702 H   0  0  0  0  0  0  0  0  0  0  0  0
  147.1246  136.0207  158.5390 H   0  0  0  0  0  0  0  0  0  0  0  0
  148.1154  134.6087  158.3796 H   0  0  0  0  0  0  0  0  0  0  0  0
  147.9851  133.1608  159.9296 H   0  0  0  0  0  0  0  0  0  0  0  0
  147.6380  132.4016  162.2679 H   0  0  0  0  0  0  0  0  0  0  0  0
  147.2314  134.1640  164.0438 H   0  0  0  0  0  0  0  0  0  0  0  0
  147.2041  136.5044  163.4496 H   0  0  0  0  0  0  0  0  0  0  0  0
  1  2  1  0  0  0  0
  1 22  1  0  0  0  0
  1 23  1  0  0  0  0
  1 24  1  0  0  0  0
  2  7  1  0  0  0  0
  2  3  1  0  0  0  0
  2 25  1  0  0  0  0
  3  4  1  0  0  0  0
  3 26  1  0  0  0  0
  3 27  1  0  0  0  0
  4  5  1  0  0  0  0
  4 28  1  0  0  0  0
  4 29  1  0  0  0  0
  5  6  1  0  0  0  0
  5 30  1  0  0  0  0
  5 31  1  0  0  0  0
  6  7  1  0  0  0  0
  6 32  1  0  0  0  0
  6 33  1  0  0  0  0
  7  8  1  0  0  0  0
  7 34  1  0  0  0  0
  8  9  1  0  0  0  0
  9 10  1  0  0  0  0
  9 35  1  0  0  0  0
  9 36  1  0  0  0  0
 10 11  1  0  0  0  0
 10 37  1  0  0  0  0
 10 38  1  0  0  0  0
 11 12  1  0  0  0  0
 11 39  1  0  0  0  0
 12 13  2  0  0  0  0
 12 14  1  0  0  0  0
 14 15  1  0  0  0  0
 14 40  1  0  0  0  0
 14 41  1  0  0  0  0
 15 20  1  0  0  0  0
 15 16  1  0  0  0  0
 16 17  2  0  0  0  0
 16 42  1  0  0  0  0
 17 18  1  0  0  0  0
 17 43  1  0  0  0  0
 18 19  2  0  0  0  0
 18 44  1  0  0  0  0
 19 20  1  0  0  0  0
 19 45  1  0  0  0  0
 20 21  2  0  0  0  0
M  END
> <s_m_source_file>
AV-unprocessed.smi

> <i_m_source_file_index>
1323

> <i_lp_mmshare_version>
43012

> <i_f3d_flags>
0

> <s_epik_input>
W0NIM11bQ0BASF0xW0NIMl1bQ0gyXVtDSDJdW0NIMl1bQ0BIXTFPW0NIMl1bQ0gyXVtOSF1DKD1PKVtDSDJdbjJbY0hdW2NIXVtjSF1bY0hdYzI9Tw==

> <s_epik_cmdline>
J2VwaWtfcHl0aG9uJywgJy1waCcsICc3LjAnLCAnLXRuJywgJzgnLCAnLW1hJywgJzIwMCcsICctbWV0YWxfYmluZGluZycsICctaW1hZScsICc8aW5maWxlLm1hZT4nLCAnLW9tYWUnLCAnPG91dGZpbGUubWFlPic=

> <r_lp_tautomer_probability>
1

> <r_epik_Ionization_Penalty>
4.02412e-07

> <r_epik_Ionization_Penalty_Charging>
3.74552e-07

> <r_epik_Ionization_Penalty_Neutral>
2.78599e-08

> <r_epik_State_Penalty>
-0

> <r_epik_Charging_Adjusted_Penalty>
3.74552e-07

> <i_epik_Tot_Q>
0

> <i_epik_Tot_abs_Q>
0

> <r_epik_Metal_State_Penalty>
-0

> <b_epik_Metal_Only>
0

> <s_lp_Force_Field>
OPLS_2005

> <r_lp_Energy>
21.1571

> <b_lp_Chiralities_Consistent>
1

> <s_lp_Variant>
AV-unprocessed.smi:1323-1

> <Gold.Version>
5.8.1

> <Gold.Id.Protein>
6NUR|6NUR_protein|mol2

> <Gold.PLP.Fitness>
49.7918

> <Gold.PLP.PLP>
-43.1047

> <Gold.PLP.part.hbond>
-3.0000

> <Gold.PLP.part.metal>
0.0000

> <Gold.PLP.part.buried>
-3.8976

> <Gold.PLP.part.nonpolar>
-38.3035

> <Gold.PLP.part.repulsive>
0.0973

> <Gold.PLP.ligand.clash>
0.0000

> <Gold.PLP.ligand.torsion>
0.8040

> <Gold.PLP.Chemscore.Hbond>
2.7440

> <Gold.PLP.Chemscore.CHOScore>
0.0000

> <Gold.PLP.Chemscore.Metal>
0.0000

> <Gold.Chemscore.Hbonds>
donor molecule, donor type, donor heavy atom, donor atom, acceptor molecule, acceptor atom, score
      P1  H  6896  6907       L1    13  0.78
      P1  H  6931  6943       L1    21  0.77
      P1  H  6934  6947       L1    21  0.93

> <Gold.PLP.Chemscore.Internal.Correction>
0.0631

> <Gold.Rescore>
     Score         DG    S(hbond)    S(metal)    S(lipo)     H(rot)  DE(clash)    DE(int)     intcor
     20.95     -22.77       2.72        0.00     112.64       1.94       0.06       1.75       ----

> <Gold.Chemscore.Fitness>
20.9537

> <Gold.Chemscore.DG>
-22.7713

> <Gold.Chemscore.ZeroCoef>
-5.4800

> <Gold.Chemscore.Hbond>
2.7181

> <Gold.Chemscore.Metal>
0.0000

> <Gold.Chemscore.Lipo>
112.6405

> <Gold.Chemscore.Internal_Hbond>
0.0000

> <Gold.Chemscore.DEClash>
0.0629

> <Gold.Chemscore.DEInternal>
1.7547

> <Gold.Chemscore.Rot>
1.9398

> <Gold.Chemscore.Internal.Correction>
   9.000000E+99

> <Gold.Chemscore.Hbonds>
donor molecule, donor type, donor heavy atom, donor atom, acceptor molecule, acceptor atom, score
      P1  H  6896  6907       L1    13  0.74
      P1  H  6931  6943       L1    21  0.49
      P1  H  6934  6947       L1    21  0.91

> <Gold.Chemscore.Hbond.Weighted>
-9.0783

> <Gold.Chemscore.Metal.Weighted>
-0.0000

> <Gold.Chemscore.Lipo.Weighted>
-13.1789

> <Gold.Chemscore.Internal_Hbond.Weighted>
0.0000

> <Gold.Chemscore.DEClash.Weighted>
0.0629

> <Gold.Chemscore.DEInternal.Weighted>
1.7547

> <Gold.Chemscore.Rot.Weighted>
4.9659

> <Gold.Chemscore.Internal.Correction.Weighted>
   9.000000E+99

> <Gold.Protein.RotatedTorsions>
[ 6907 6896 6895 6894 ] final  -54.86 input  -60.11 | X-H torsion
[ 7974 7965 7964 7962 ] final -102.99 input  175.53 | X-H torsion
[ 8008 7997 7996 7995 ] final  -10.20 input   59.86 | X-H torsion
[ 10167 10162 10161 10158 ] final   75.61 input  -65.29 | X-H torsion
[ 10718 10713 10712 10709 ] final   68.31 input   66.30 | X-H torsion
[ 10763 10752 10751 10750 ] final  -27.43 input  -60.55 | X-H torsion
[ 11005 11000 10999 10996 ] final -164.56 input  -57.11 | X-H torsion

> <Gold.Protein.ActiveResidues>
 VAL166  LYS551  ARG553  GLY616  TRP617  ASP618  TYR619  PRO620  LYS621  CYS622 
 ASP623  PHE694  ASN695  SER759  ASP760  ASP761  ALA762  ILE779  LEU786  VAL792 
 PHE793  MET794  SER795  GLU796  ALA797  LYS798  CYS799  TRP800  GLU811  SER814 

> <Gold.Protein.RotatedAtoms>
  150.8301  134.7550  159.6845 H   0  0  0  0  0  0  0  0  0  0  0  0  # atno 6907 bound_to 6896
  152.4407  134.5594  159.9899 H   0  0  0  0  0  0  0  0  0  0  0  0  # atno 6908 bound_to 6896
  151.5757  133.3346  159.3034 H   0  0  0  0  0  0  0  0  0  0  0  0  # atno 6909 bound_to 6896
  145.2617  140.9271  143.3037 H   0  0  0  0  0  0  0  0  0  0  0  0  # atno 7974 bound_to 7965
  154.5576  140.2335  155.8385 H   0  0  0  0  0  0  0  0  0  0  0  0  # atno 8008 bound_to 7997
  156.2002  140.3054  155.9471 H   0  0  0  0  0  0  0  0  0  0  0  0  # atno 8009 bound_to 7997
  155.2949  140.0428  157.3016 H   0  0  0  0  0  0  0  0  0  0  0  0  # atno 8010 bound_to 7997
  140.0011  144.5685  150.7736 H   0  0  0  0  0  0  0  0  0  0  0  0  # atno 10167 bound_to 10162
  157.6282  130.9367  150.0361 H   0  0  0  0  0  0  0  0  0  0  0  0  # atno 10718 bound_to 10713
  153.7321  135.6938  153.4987 H   0  0  0  0  0  0  0  0  0  0  0  0  # atno 10763 bound_to 10752
  153.2129  135.4396  155.0399 H   0  0  0  0  0  0  0  0  0  0  0  0  # atno 10764 bound_to 10752
  154.8249  135.3441  154.6850 H   0  0  0  0  0  0  0  0  0  0  0  0  # atno 10765 bound_to 10752
  140.5856  134.5097  157.5185 H   0  0  0  0  0  0  0  0  0  0  0  0  # atno 11005 bound_to 11000
  144.9412  139.4186  143.6448 LP  0  0  0  0  0  0  0  0  0  0  0  0  # atno 17320 bound_to 7965
  146.3273  139.8373  142.8897 LP  0  0  0  0  0  0  0  0  0  0  0  0  # atno 17321 bound_to 7965
  140.7418  143.2823  151.3562 LP  0  0  0  0  0  0  0  0  0  0  0  0  # atno 17342 bound_to 10162
  139.6271  144.0793  152.2444 LP  0  0  0  0  0  0  0  0  0  0  0  0  # atno 17343 bound_to 10162
  156.1468  130.3642  149.9499 LP  0  0  0  0  0  0  0  0  0  0  0  0  # atno 17370 bound_to 10713
  156.7528  130.9121  151.3638 LP  0  0  0  0  0  0  0  0  0  0  0  0  # atno 17371 bound_to 10713
  139.9297  134.7987  156.0965 LP  0  0  0  0  0  0  0  0  0  0  0  0  # atno 17394 bound_to 11000
  141.0968  133.6692  156.2664 LP  0  0  0  0  0  0  0  0  0  0  0  0  # atno 17395 bound_to 11000

$$$$
