AV-unprocessed.smi:893|AV-procd|sdf|4067|dock5
  -GOLD-   22720 1553D 1   1.00000     0.00000
 Structure written by MMmdl.
 27 28  0  0  0  0  0  0  0  0  1 V2000
  147.0301  134.4075  154.0927 C   0  0  0  0  0  0  0  0  0  0  0  0
  145.8476  135.3880  154.1354 C   0  0  0  0  0  0  0  0  0  0  0  0
  145.3604  135.8487  152.7408 C   0  0  2  0  0  0  0  0  0  0  0  0
  144.7656  134.7163  151.9238 C   0  0  0  0  0  0  0  0  0  0  0  0
  143.8258  133.7240  152.3334 C   0  0  0  0  0  0  0  0  0  0  0  0
  143.5099  132.8769  151.3681 N   0  0  0  0  0  0  0  0  0  0  0  0
  144.2319  133.2925  150.3088 N   0  0  0  0  0  0  0  0  0  0  0  0
  144.1326  132.5790  149.0536 C   0  0  0  0  0  0  0  0  0  0  0  0
  144.9949  134.3984  150.6125 C   0  0  0  0  0  0  0  0  0  0  0  0
  146.4101  136.5615  152.0254 N   0  0  0  0  0  0  0  0  0  0  0  0
  146.0759  137.8247  151.7289 C   0  0  0  0  0  0  0  0  0  0  0  0
  146.7718  138.6318  151.1177 O   0  0  0  0  0  0  0  0  0  0  0  0
  144.8551  138.0522  152.2222 N   0  0  0  0  0  0  0  0  0  0  0  0
  144.3517  136.9876  152.8446 C   0  0  0  0  0  0  0  0  0  0  0  0
  143.2626  136.9155  153.4126 O   0  0  0  0  0  0  0  0  0  0  0  0
  147.3300  134.1221  155.1011 H   0  0  0  0  0  0  0  0  0  0  0  0
  147.8980  134.8513  153.6049 H   0  0  0  0  0  0  0  0  0  0  0  0
  146.7734  133.4943  153.5556 H   0  0  0  0  0  0  0  0  0  0  0  0
  145.0241  134.9199  154.6765 H   0  0  0  0  0  0  0  0  0  0  0  0
  146.1380  136.2554  154.7306 H   0  0  0  0  0  0  0  0  0  0  0  0
  143.3647  133.5949  153.3016 H   0  0  0  0  0  0  0  0  0  0  0  0
  144.8128  133.0141  148.3206 H   0  0  0  0  0  0  0  0  0  0  0  0
  143.1128  132.6421  148.6729 H   0  0  0  0  0  0  0  0  0  0  0  0
  144.3959  131.5313  149.2025 H   0  0  0  0  0  0  0  0  0  0  0  0
  145.6361  134.8656  149.8793 H   0  0  0  0  0  0  0  0  0  0  0  0
  147.2872  136.1308  151.7713 H   0  0  0  0  0  0  0  0  0  0  0  0
  144.3738  138.9361  152.1429 H   0  0  0  0  0  0  0  0  0  0  0  0
  1  2  1  0  0  0  0
  1 16  1  0  0  0  0
  1 17  1  0  0  0  0
  1 18  1  0  0  0  0
  2  3  1  0  0  0  0
  2 19  1  0  0  0  0
  2 20  1  0  0  0  0
  3 14  1  0  0  0  0
  3  4  1  0  0  0  0
  3 10  1  0  0  0  0
  4  9  2  0  0  0  0
  4  5  1  0  0  0  0
  5  6  2  0  0  0  0
  5 21  1  0  0  0  0
  6  7  1  0  0  0  0
  7  8  1  0  0  0  0
  7  9  1  0  0  0  0
  8 22  1  0  0  0  0
  8 23  1  0  0  0  0
  8 24  1  0  0  0  0
  9 25  1  0  0  0  0
 10 11  1  0  0  0  0
 10 26  1  0  0  0  0
 11 12  2  0  0  0  0
 11 13  1  0  0  0  0
 13 14  1  0  0  0  0
 13 27  1  0  0  0  0
 14 15  2  0  0  0  0
M  END
> <s_m_source_file>
AV-unprocessed.smi

> <i_m_source_file_index>
893

> <i_lp_mmshare_version>
43012

> <i_f3d_flags>
0

> <s_epik_input>
Tz1DMVtOSF1DKD1PKVtOSF1bQ0BAXTEoW0NIMl1bQ0gzXSljMltjSF1ubihbQ0gzXSlbY0hdMg==

> <s_epik_cmdline>
J2VwaWtfcHl0aG9uJywgJy1waCcsICc3LjAnLCAnLXRuJywgJzgnLCAnLW1hJywgJzIwMCcsICctbWV0YWxfYmluZGluZycsICctaW1hZScsICc8aW5maWxlLm1hZT4nLCAnLW9tYWUnLCAnPG91dGZpbGUubWFlPic=

> <r_lp_tautomer_probability>
1

> <r_epik_Ionization_Penalty>
0.0236181

> <r_epik_Ionization_Penalty_Charging>
0

> <r_epik_Ionization_Penalty_Neutral>
0.0236181

> <r_epik_State_Penalty>
0.0189572

> <r_epik_Charging_Adjusted_Penalty>
0.0189572

> <i_epik_Tot_Q>
0

> <i_epik_Tot_abs_Q>
0

> <r_epik_Metal_State_Penalty>
0.411796

> <b_epik_Metal_Only>
0

> <s_lp_Force_Field>
OPLS_2005

> <r_lp_Energy>
15.567

> <b_lp_Chiralities_Consistent>
1

> <s_lp_Variant>
AV-unprocessed.smi:893-2

> <Gold.Version>
5.8.1

> <Gold.Id.Protein>
6NUR|6NUR_protein|mol2

> <Gold.PLP.Fitness>
37.6885

> <Gold.PLP.PLP>
-23.7488

> <Gold.PLP.part.hbond>
-4.0000

> <Gold.PLP.part.metal>
0.0000

> <Gold.PLP.part.buried>
-3.5070

> <Gold.PLP.part.nonpolar>
-18.2911

> <Gold.PLP.part.repulsive>
1.1265

> <Gold.PLP.ligand.clash>
0.0000

> <Gold.PLP.ligand.torsion>
0.5081

> <Gold.PLP.Chemscore.Hbond>
2.9280

> <Gold.PLP.Chemscore.CHOScore>
2.0000

> <Gold.PLP.Chemscore.Metal>
0.0000

> <Gold.Chemscore.Hbonds>
donor molecule, donor type, donor heavy atom, donor atom, acceptor molecule, acceptor atom, score
      L1  H    10    26       P1  7948  0.94
      L1  H    13    27       P1 10175  1.00
      P1  H  7954  7966       L1    12  1.00
      L1  C     5    21       P1 10957  1.00
      L1  C     9    25       P1  7921  1.00

> <Gold.PLP.Chemscore.Internal.Correction>
0.1718

> <Gold.Rescore>
     Score         DG    S(hbond)    S(metal)    S(lipo)     H(rot)  DE(clash)    DE(int)     intcor
     15.39     -15.77       2.85        0.00      34.98       1.30       0.25       0.12       ----

> <Gold.Chemscore.Fitness>
15.3903

> <Gold.Chemscore.DG>
-15.7685

> <Gold.Chemscore.ZeroCoef>
-5.4800

> <Gold.Chemscore.Hbond>
2.8480

> <Gold.Chemscore.Metal>
0.0000

> <Gold.Chemscore.Lipo>
34.9793

> <Gold.Chemscore.Internal_Hbond>
0.0000

> <Gold.Chemscore.DEClash>
0.2543

> <Gold.Chemscore.DEInternal>
0.1239

> <Gold.Chemscore.Rot>
1.2955

> <Gold.Chemscore.Internal.Correction>
   9.000000E+99

> <Gold.Chemscore.Hbonds>
donor molecule, donor type, donor heavy atom, donor atom, acceptor molecule, acceptor atom, score
      L1  H    10    26       P1  7948  0.91
      L1  H    13    27       P1 10175  1.00
      P1  H  7954  7966       L1    12  0.86

> <Gold.Chemscore.Hbond.Weighted>
-9.5123

> <Gold.Chemscore.Metal.Weighted>
-0.0000

> <Gold.Chemscore.Lipo.Weighted>
-4.0926

> <Gold.Chemscore.Internal_Hbond.Weighted>
0.0000

> <Gold.Chemscore.DEClash.Weighted>
0.2543

> <Gold.Chemscore.DEInternal.Weighted>
0.1239

> <Gold.Chemscore.Rot.Weighted>
3.3164

> <Gold.Chemscore.Internal.Correction.Weighted>
   9.000000E+99

> <Gold.Protein.RotatedTorsions>
[ 6907 6896 6895 6894 ] final  -50.03 input  -60.11 | X-H torsion
[ 7974 7965 7964 7962 ] final  -47.71 input  175.53 | X-H torsion
[ 8008 7997 7996 7995 ] final   88.69 input   59.86 | X-H torsion
[ 10167 10162 10161 10158 ] final  130.80 input  -65.29 | X-H torsion
[ 10718 10713 10712 10709 ] final -133.82 input   66.30 | X-H torsion
[ 10763 10752 10751 10750 ] final  140.34 input  -60.55 | X-H torsion
[ 11005 11000 10999 10996 ] final  159.81 input  -57.11 | X-H torsion

> <Gold.Protein.ActiveResidues>
 VAL166  LYS551  ARG553  GLY616  TRP617  ASP618  TYR619  PRO620  LYS621  CYS622 
 ASP623  PHE694  ASN695  SER759  ASP760  ASP761  ALA762  ILE779  LEU786  VAL792 
 PHE793  MET794  SER795  GLU796  ALA797  LYS798  CYS799  TRP800  GLU811  SER814 

> <Gold.Protein.RotatedAtoms>
  150.8746  134.8127  159.7180 H   0  0  0  0  0  0  0  0  0  0  0  0  # atno 6907 bound_to 6896
  152.4738  134.4892  159.9699 H   0  0  0  0  0  0  0  0  0  0  0  0  # atno 6908 bound_to 6896
  151.4975  133.3473  159.2899 H   0  0  0  0  0  0  0  0  0  0  0  0  # atno 6909 bound_to 6896
  145.9588  140.7500  142.9468 H   0  0  0  0  0  0  0  0  0  0  0  0  # atno 7974 bound_to 7965
  155.9909  140.3369  155.6752 H   0  0  0  0  0  0  0  0  0  0  0  0  # atno 8008 bound_to 7997
  155.6422  140.0696  157.2633 H   0  0  0  0  0  0  0  0  0  0  0  0  # atno 8009 bound_to 7997
  154.4219  140.1740  156.1572 H   0  0  0  0  0  0  0  0  0  0  0  0  # atno 8010 bound_to 7997
  139.5413  144.6733  151.4615 H   0  0  0  0  0  0  0  0  0  0  0  0  # atno 10167 bound_to 10162
  156.2490  130.7141  151.1033 H   0  0  0  0  0  0  0  0  0  0  0  0  # atno 10718 bound_to 10713
  153.9210  135.3000  155.3447 H   0  0  0  0  0  0  0  0  0  0  0  0  # atno 10763 bound_to 10752
  154.7575  135.4950  153.9406 H   0  0  0  0  0  0  0  0  0  0  0  0  # atno 10764 bound_to 10752
  153.1142  135.6766  153.9551 H   0  0  0  0  0  0  0  0  0  0  0  0  # atno 10765 bound_to 10752
  140.1998  134.8346  157.3005 H   0  0  0  0  0  0  0  0  0  0  0  0  # atno 11005 bound_to 11000
  144.6810  140.2556  143.7326 LP  0  0  0  0  0  0  0  0  0  0  0  0  # atno 17320 bound_to 7965
  145.8069  139.1987  143.2015 LP  0  0  0  0  0  0  0  0  0  0  0  0  # atno 17321 bound_to 7965
  140.6644  143.8429  150.6925 LP  0  0  0  0  0  0  0  0  0  0  0  0  # atno 17342 bound_to 10162
  140.1834  143.4096  152.1916 LP  0  0  0  0  0  0  0  0  0  0  0  0  # atno 17343 bound_to 10162
  157.7206  131.0683  150.6149 LP  0  0  0  0  0  0  0  0  0  0  0  0  # atno 17370 bound_to 10713
  156.6227  130.4410  149.5816 LP  0  0  0  0  0  0  0  0  0  0  0  0  # atno 17371 bound_to 10713
  140.2067  134.4188  155.7634 LP  0  0  0  0  0  0  0  0  0  0  0  0  # atno 17394 bound_to 11000
  141.2227  133.7098  156.8272 LP  0  0  0  0  0  0  0  0  0  0  0  0  # atno 17395 bound_to 11000

$$$$
