AV-unprocessed.smi:1956|AV-procd|sdf|7902|dock1
  -GOLD-   2272010 53D 1   1.00000     0.00000
 Structure written by MMmdl.
 46 47  0  0  0  0  0  0  0  0  2 V2000
  150.9977  142.7907  157.3145 C   0  0  0  0  0  0  0  0  0  0  0  0
  151.5608  141.6285  156.7159 O   0  0  0  0  0  0  0  0  0  0  0  0
  150.7568  140.8555  155.9036 C   0  0  0  0  0  0  0  0  0  0  0  0
  149.5474  141.4034  155.4332 C   0  0  0  0  0  0  0  0  0  0  0  0
  148.7209  140.6224  154.6029 C   0  0  0  0  0  0  0  0  0  0  0  0
  149.1313  139.3088  154.2676 C   0  0  0  0  0  0  0  0  0  0  0  0
  148.4040  138.4101  153.4379 N   0  0  0  0  0  0  0  0  0  0  0  0
  147.0770  138.2952  153.2551 C   0  0  0  0  0  0  0  0  0  0  0  0
  146.2125  138.9761  153.8052 O   0  0  0  0  0  0  0  0  0  0  0  0
  146.7927  137.3224  152.3774 N   0  0  0  0  0  0  0  0  0  0  0  0
  145.4472  136.9365  151.9672 C   0  0  0  0  0  0  0  0  0  0  0  0
  145.4314  136.3739  150.5322 C   0  0  0  0  0  0  0  0  0  0  0  0
  145.3498  134.8919  150.5073 N   0  3  1  0  0  0  0  0  0  0  0  0
  146.4601  134.2540  151.2613 C   0  0  0  0  0  0  0  0  0  0  0  0
  146.4463  132.7276  151.0834 C   0  0  0  0  0  0  0  0  0  0  0  0
  145.0899  132.1370  151.4934 C   0  0  0  0  0  0  0  0  0  0  0  0
  143.9303  132.8380  150.7616 C   0  0  2  0  0  0  0  0  0  0  0  0
  143.8245  132.4299  149.2816 C   0  0  0  0  0  0  0  0  0  0  0  0
  144.0251  134.3677  150.9382 C   0  0  0  0  0  0  0  0  0  0  0  0
  150.3616  138.8571  154.7897 C   0  0  0  0  0  0  0  0  0  0  0  0
  151.1582  139.6002  155.5859 N   0  0  0  0  0  0  0  0  0  0  0  0
  151.7547  143.2859  157.9224 H   0  0  0  0  0  0  0  0  0  0  0  0
  150.1613  142.5385  157.9683 H   0  0  0  0  0  0  0  0  0  0  0  0
  150.6607  143.5036  156.5605 H   0  0  0  0  0  0  0  0  0  0  0  0
  149.2579  142.4081  155.7040 H   0  0  0  0  0  0  0  0  0  0  0  0
  147.8007  141.0555  154.2463 H   0  0  0  0  0  0  0  0  0  0  0  0
  148.9742  137.7589  152.9184 H   0  0  0  0  0  0  0  0  0  0  0  0
  147.5604  136.8061  151.9725 H   0  0  0  0  0  0  0  0  0  0  0  0
  145.0938  136.1942  152.6815 H   0  0  0  0  0  0  0  0  0  0  0  0
  144.7736  137.7913  152.0499 H   0  0  0  0  0  0  0  0  0  0  0  0
  144.5632  136.7831  150.0139 H   0  0  0  0  0  0  0  0  0  0  0  0
  146.3070  136.7077  149.9730 H   0  0  0  0  0  0  0  0  0  0  0  0
  147.4176  134.6420  150.9117 H   0  0  0  0  0  0  0  0  0  0  0  0
  146.3797  134.5124  152.3184 H   0  0  0  0  0  0  0  0  0  0  0  0
  146.6652  132.4756  150.0452 H   0  0  0  0  0  0  0  0  0  0  0  0
  147.2409  132.2779  151.6794 H   0  0  0  0  0  0  0  0  0  0  0  0
  145.0709  131.0632  151.3039 H   0  0  0  0  0  0  0  0  0  0  0  0
  144.9599  132.2586  152.5696 H   0  0  0  0  0  0  0  0  0  0  0  0
  143.0038  132.5115  151.2359 H   0  0  0  0  0  0  0  0  0  0  0  0
  144.6992  132.7386  148.7091 H   0  0  0  0  0  0  0  0  0  0  0  0
  142.9498  132.8824  148.8136 H   0  0  0  0  0  0  0  0  0  0  0  0
  143.7265  131.3487  149.1795 H   0  0  0  0  0  0  0  0  0  0  0  0
  143.8646  134.6282  151.9857 H   0  0  0  0  0  0  0  0  0  0  0  0
  143.2210  134.8423  150.3771 H   0  0  0  0  0  0  0  0  0  0  0  0
  150.7215  137.8645  154.5616 H   0  0  0  0  0  0  0  0  0  0  0  0
  145.4752  134.6189  149.5429 H   0  0  0  0  0  0  0  0  0  0  0  0
  1  2  1  0  0  0  0
  1 22  1  0  0  0  0
  1 23  1  0  0  0  0
  1 24  1  0  0  0  0
  2  3  1  0  0  0  0
  3 21  1  0  0  0  0
  3  4  2  0  0  0  0
  4  5  1  0  0  0  0
  4 25  1  0  0  0  0
  5  6  2  0  0  0  0
  5 26  1  0  0  0  0
  6  7  1  0  0  0  0
  6 20  1  0  0  0  0
  7  8  1  0  0  0  0
  7 27  1  0  0  0  0
  8  9  2  0  0  0  0
  8 10  1  0  0  0  0
 10 11  1  0  0  0  0
 10 28  1  0  0  0  0
 11 12  1  0  0  0  0
 11 29  1  0  0  0  0
 11 30  1  0  0  0  0
 12 13  1  0  0  0  0
 12 31  1  0  0  0  0
 12 32  1  0  0  0  0
 13 19  1  0  0  0  0
 13 14  1  0  0  0  0
 13 46  1  0  0  0  0
 14 15  1  0  0  0  0
 14 33  1  0  0  0  0
 14 34  1  0  0  0  0
 15 16  1  0  0  0  0
 15 35  1  0  0  0  0
 15 36  1  0  0  0  0
 16 17  1  0  0  0  0
 16 37  1  0  0  0  0
 16 38  1  0  0  0  0
 17 18  1  0  0  0  0
 17 19  1  0  0  0  0
 17 39  1  0  0  0  0
 18 40  1  0  0  0  0
 18 41  1  0  0  0  0
 18 42  1  0  0  0  0
 19 43  1  0  0  0  0
 19 44  1  0  0  0  0
 20 21  2  0  0  0  0
 20 45  1  0  0  0  0
M  CHG  1  13   1
M  END
> <s_m_source_file>
AV-unprocessed.smi

> <i_m_source_file_index>
1956

> <i_lp_mmshare_version>
43012

> <i_f3d_flags>
0

> <s_epik_input>
W0NIM11PYzFbY0hdW2NIXWMoW2NIXW4xKVtOSF1DKD1PKVtOSF1bQ0gyXVtDSDJdTjJbQ0gyXVtDSDJdW0NIMl1bQ0BASF0oW0NIM10pW0NIMl0y

> <s_epik_cmdline>
J2VwaWtfcHl0aG9uJywgJy1waCcsICc3LjAnLCAnLXRuJywgJzgnLCAnLW1hJywgJzIwMCcsICctbWV0YWxfYmluZGluZycsICctaW1hZScsICc8aW5maWxlLm1hZT4nLCAnLW9tYWUnLCAnPG91dGZpbGUubWFlPic=

> <r_lp_tautomer_probability>
1

> <r_epik_Ionization_Penalty>
0.00179545

> <r_epik_Ionization_Penalty_Charging>
0.00171832

> <r_epik_Ionization_Penalty_Neutral>
7.7124e-05

> <r_epik_State_Penalty>
0.0011618

> <r_epik_Charging_Adjusted_Penalty>
0.00288012

> <i_epik_Tot_Q>
1

> <i_epik_Tot_abs_Q>
1

> <r_epik_Metal_State_Penalty>
-0

> <b_epik_Metal_Only>
0

> <s_lp_Force_Field>
OPLS_2005

> <r_lp_Energy>
22.555

> <b_lp_Chiralities_Consistent>
1

> <s_lp_Variant>
AV-unprocessed.smi:1956-3

> <Gold.Version>
5.8.1

> <Gold.Id.Protein>
6NUR|6NUR_protein|mol2

> <Gold.PLP.Fitness>
43.4540

> <Gold.PLP.PLP>
-36.6931

> <Gold.PLP.part.hbond>
-3.7544

> <Gold.PLP.part.metal>
0.0000

> <Gold.PLP.part.buried>
0.9942

> <Gold.PLP.part.nonpolar>
-35.5868

> <Gold.PLP.part.repulsive>
0.3829

> <Gold.PLP.ligand.clash>
0.0000

> <Gold.PLP.ligand.torsion>
0.9074

> <Gold.PLP.Chemscore.Hbond>
2.8380

> <Gold.PLP.Chemscore.CHOScore>
0.0000

> <Gold.PLP.Chemscore.Metal>
0.0000

> <Gold.Chemscore.Hbonds>
donor molecule, donor type, donor heavy atom, donor atom, acceptor molecule, acceptor atom, score
      L1  H     7    27       P1  7948  0.93
      L1  H    10    28       P1  7948  0.89
      L1  H    13    46       P1  7921  1.00

> <Gold.PLP.Chemscore.Internal.Correction>
0.0617

> <Gold.Rescore>
     Score         DG    S(hbond)    S(metal)    S(lipo)     H(rot)  DE(clash)    DE(int)     intcor
     19.59     -22.11       2.88        0.00      97.39       1.71       1.59       0.92       ----

> <Gold.Chemscore.Fitness>
19.5880

> <Gold.Chemscore.DG>
-22.1054

> <Gold.Chemscore.ZeroCoef>
-5.4800

> <Gold.Chemscore.Hbond>
2.8773

> <Gold.Chemscore.Metal>
0.0000

> <Gold.Chemscore.Lipo>
97.3916

> <Gold.Chemscore.Internal_Hbond>
0.0000

> <Gold.Chemscore.DEClash>
1.5944

> <Gold.Chemscore.DEInternal>
0.9230

> <Gold.Chemscore.Rot>
1.7107

> <Gold.Chemscore.Internal.Correction>
   9.000000E+99

> <Gold.Chemscore.Hbonds>
donor molecule, donor type, donor heavy atom, donor atom, acceptor molecule, acceptor atom, score
      L1  H     7    27       P1  7948  0.89
      L1  H    10    28       P1  7948  0.87
      L1  H    13    46       P1  7921  0.89

> <Gold.Chemscore.Hbond.Weighted>
-9.6100

> <Gold.Chemscore.Metal.Weighted>
-0.0000

> <Gold.Chemscore.Lipo.Weighted>
-11.3948

> <Gold.Chemscore.Internal_Hbond.Weighted>
0.0000

> <Gold.Chemscore.DEClash.Weighted>
1.5944

> <Gold.Chemscore.DEInternal.Weighted>
0.9230

> <Gold.Chemscore.Rot.Weighted>
4.3794

> <Gold.Chemscore.Internal.Correction.Weighted>
   9.000000E+99

> <Gold.Protein.RotatedTorsions>
[ 6907 6896 6895 6894 ] final  150.24 input  -60.11 | X-H torsion
[ 7974 7965 7964 7962 ] final    4.57 input  175.53 | X-H torsion
[ 8008 7997 7996 7995 ] final  -68.75 input   59.86 | X-H torsion
[ 10167 10162 10161 10158 ] final  174.84 input  -65.29 | X-H torsion
[ 10718 10713 10712 10709 ] final  -85.80 input   66.30 | X-H torsion
[ 10763 10752 10751 10750 ] final  -44.72 input  -60.55 | X-H torsion
[ 11005 11000 10999 10996 ] final  108.38 input  -57.11 | X-H torsion

> <Gold.Protein.ActiveResidues>
 VAL166  LYS551  ARG553  GLY616  TRP617  ASP618  TYR619  PRO620  LYS621  CYS622 
 ASP623  PHE694  ASN695  SER759  ASP760  ASP761  ALA762  ILE779  LEU786  VAL792 
 PHE793  MET794  SER795  GLU796  ALA797  LYS798  CYS799  TRP800  GLU811  SER814 

> <Gold.Protein.RotatedAtoms>
  152.1171  133.4333  159.4657 H   0  0  0  0  0  0  0  0  0  0  0  0  # atno 6907 bound_to 6896
  150.6870  134.2579  159.4546 H   0  0  0  0  0  0  0  0  0  0  0  0  # atno 6908 bound_to 6896
  152.0452  134.9686  160.0625 H   0  0  0  0  0  0  0  0  0  0  0  0  # atno 6909 bound_to 6896
  146.2443  140.0515  142.8374 H   0  0  0  0  0  0  0  0  0  0  0  0  # atno 7974 bound_to 7965
  154.4889  140.0867  156.7550 H   0  0  0  0  0  0  0  0  0  0  0  0  # atno 8008 bound_to 7997
  155.4279  140.3448  155.4259 H   0  0  0  0  0  0  0  0  0  0  0  0  # atno 8009 bound_to 7997
  156.1302  140.1499  156.9065 H   0  0  0  0  0  0  0  0  0  0  0  0  # atno 8010 bound_to 7997
  139.5156  144.3100  152.0300 H   0  0  0  0  0  0  0  0  0  0  0  0  # atno 10167 bound_to 10162
  155.9994  130.4743  150.4617 H   0  0  0  0  0  0  0  0  0  0  0  0  # atno 10718 bound_to 10713
  154.0167  135.6674  153.4769 H   0  0  0  0  0  0  0  0  0  0  0  0  # atno 10763 bound_to 10752
  153.0597  135.5035  154.8061 H   0  0  0  0  0  0  0  0  0  0  0  0  # atno 10764 bound_to 10752
  154.6962  135.3070  154.9372 H   0  0  0  0  0  0  0  0  0  0  0  0  # atno 10765 bound_to 10752
  139.8843  134.9428  156.5963 H   0  0  0  0  0  0  0  0  0  0  0  0  # atno 11005 bound_to 11000
  145.0980  140.9327  143.4729 LP  0  0  0  0  0  0  0  0  0  0  0  0  # atno 17320 bound_to 7965
  145.0702  139.3037  143.5836 LP  0  0  0  0  0  0  0  0  0  0  0  0  # atno 17321 bound_to 7965
  140.2545  144.4134  150.6209 LP  0  0  0  0  0  0  0  0  0  0  0  0  # atno 17342 bound_to 10162
  140.6201  143.2175  151.6711 LP  0  0  0  0  0  0  0  0  0  0  0  0  # atno 17343 bound_to 10162
  157.2641  131.0573  151.2302 LP  0  0  0  0  0  0  0  0  0  0  0  0  # atno 17370 bound_to 10713
  157.3406  130.7031  149.6379 LP  0  0  0  0  0  0  0  0  0  0  0  0  # atno 17371 bound_to 10713
  140.7917  133.8576  155.8652 LP  0  0  0  0  0  0  0  0  0  0  0  0  # atno 17394 bound_to 11000
  140.9671  134.1580  157.4607 LP  0  0  0  0  0  0  0  0  0  0  0  0  # atno 17395 bound_to 11000

$$$$
