AV-unprocessed.smi:3232|AV-procd|sdf|12339|dock3
  -GOLD-   2272018203D 1   1.00000     0.00000
 Structure written by MMmdl.
 40 41  0  0  0  0  0  0  0  0  2 V2000
  146.1107  137.7281  152.3741 C   0  0  0  0  0  0  0  0  0  0  0  0
  146.0981  136.6412  153.4572 C   0  0  0  0  0  0  0  0  0  0  0  0
  146.5557  135.3289  152.9397 N   0  3  2  0  0  0  0  0  0  0  0  0
  145.7582  134.7942  151.8161 C   0  0  0  0  0  0  0  0  0  0  0  0
  146.0139  133.2933  151.8336 C   0  0  0  0  0  0  0  0  0  0  0  0
  146.0972  132.9804  153.3234 C   0  0  0  0  0  0  0  0  0  0  0  0
  146.6518  134.2653  153.9719 C   0  0  1  0  0  0  0  0  0  0  0  0
  148.1068  134.1273  154.4663 C   0  0  0  0  0  0  0  0  0  0  0  0
  148.9040  135.3157  154.1812 N   0  0  0  0  0  0  0  0  0  0  0  0
  149.6210  135.9969  155.0898 C   0  0  0  0  0  0  0  0  0  0  0  0
  149.6826  135.6638  156.2741 O   0  0  0  0  0  0  0  0  0  0  0  0
  150.3896  137.2260  154.5731 C   0  0  2  0  0  0  0  0  0  0  0  0
  151.9167  137.1030  154.7517 C   0  0  0  0  0  0  0  0  0  0  0  0
  149.8728  138.4489  155.1763 N   0  0  0  0  0  0  0  0  0  0  0  0
  148.9292  138.6161  156.1054 C   0  0  0  0  0  0  0  0  0  0  0  0
  148.7341  139.8800  156.4534 N   0  0  0  0  0  0  0  0  0  0  0  0
  149.6580  140.4836  155.6485 C   0  0  0  0  0  0  0  0  0  0  0  0
  150.3740  139.6718  154.8707 N   0  0  0  0  0  0  0  0  0  0  0  0
  145.8262  138.6930  152.7941 H   0  0  0  0  0  0  0  0  0  0  0  0
  145.4100  137.5033  151.5698 H   0  0  0  0  0  0  0  0  0  0  0  0
  147.1034  137.8371  151.9365 H   0  0  0  0  0  0  0  0  0  0  0  0
  146.7620  136.9489  154.2662 H   0  0  0  0  0  0  0  0  0  0  0  0
  145.1009  136.5460  153.8894 H   0  0  0  0  0  0  0  0  0  0  0  0
  144.6977  134.9868  151.9876 H   0  0  0  0  0  0  0  0  0  0  0  0
  146.0365  135.2515  150.8661 H   0  0  0  0  0  0  0  0  0  0  0  0
  145.2385  132.7233  151.3210 H   0  0  0  0  0  0  0  0  0  0  0  0
  146.9686  133.0736  151.3537 H   0  0  0  0  0  0  0  0  0  0  0  0
  145.0956  132.7835  153.7083 H   0  0  0  0  0  0  0  0  0  0  0  0
  146.6993  132.0930  153.5205 H   0  0  0  0  0  0  0  0  0  0  0  0
  146.0079  134.5231  154.8150 H   0  0  0  0  0  0  0  0  0  0  0  0
  148.1212  133.9602  155.5439 H   0  0  0  0  0  0  0  0  0  0  0  0
  148.5827  133.2544  154.0157 H   0  0  0  0  0  0  0  0  0  0  0  0
  148.9010  135.6526  153.2291 H   0  0  0  0  0  0  0  0  0  0  0  0
  150.1946  137.2908  153.5014 H   0  0  0  0  0  0  0  0  0  0  0  0
  152.3055  136.2253  154.2341 H   0  0  0  0  0  0  0  0  0  0  0  0
  152.2001  137.0207  155.8019 H   0  0  0  0  0  0  0  0  0  0  0  0
  152.4264  137.9748  154.3408 H   0  0  0  0  0  0  0  0  0  0  0  0
  148.3763  137.7961  156.5402 H   0  0  0  0  0  0  0  0  0  0  0  0
  149.8121  141.5526  155.6406 H   0  0  0  0  0  0  0  0  0  0  0  0
  147.4936  135.4545  152.5865 H   0  0  0  0  0  0  0  0  0  0  0  0
  1  2  1  0  0  0  0
  1 19  1  0  0  0  0
  1 20  1  0  0  0  0
  1 21  1  0  0  0  0
  2  3  1  0  0  0  0
  2 22  1  0  0  0  0
  2 23  1  0  0  0  0
  3  7  1  0  0  0  0
  3  4  1  0  0  0  0
  3 40  1  0  0  0  0
  4  5  1  0  0  0  0
  4 24  1  0  0  0  0
  4 25  1  0  0  0  0
  5  6  1  0  0  0  0
  5 26  1  0  0  0  0
  5 27  1  0  0  0  0
  6  7  1  0  0  0  0
  6 28  1  0  0  0  0
  6 29  1  0  0  0  0
  7  8  1  0  0  0  0
  7 30  1  0  0  0  0
  8  9  1  0  0  0  0
  8 31  1  0  0  0  0
  8 32  1  0  0  0  0
  9 10  1  0  0  0  0
  9 33  1  0  0  0  0
 10 11  2  0  0  0  0
 10 12  1  0  0  0  0
 12 13  1  0  0  0  0
 12 14  1  0  0  0  0
 12 34  1  0  0  0  0
 13 35  1  0  0  0  0
 13 36  1  0  0  0  0
 13 37  1  0  0  0  0
 14 18  1  0  0  0  0
 14 15  1  0  0  0  0
 15 16  2  0  0  0  0
 15 38  1  0  0  0  0
 16 17  1  0  0  0  0
 17 18  2  0  0  0  0
 17 39  1  0  0  0  0
M  CHG  1   3   1
M  END
> <s_m_source_file>
AV-unprocessed.smi

> <i_m_source_file_index>
3232

> <i_lp_mmshare_version>
43012

> <i_f3d_flags>
0

> <s_epik_input>
W0NIM11bQ0gyXU4xW0NIMl1bQ0gyXVtDSDJdW0NASF0xW0NIMl1bTkhdQyg9TylbQ0BIXShbQ0gzXSluMltjSF1uW2NIXW4y

> <s_epik_cmdline>
J2VwaWtfcHl0aG9uJywgJy1waCcsICc3LjAnLCAnLXRuJywgJzgnLCAnLW1hJywgJzIwMCcsICctbWV0YWxfYmluZGluZycsICctaW1hZScsICc8aW5maWxlLm1hZT4nLCAnLW9tYWUnLCAnPG91dGZpbGUubWFlPic=

> <r_lp_tautomer_probability>
1

> <r_epik_Ionization_Penalty>
0.00177695

> <r_epik_Ionization_Penalty_Charging>
0.00176881

> <r_epik_Ionization_Penalty_Neutral>
8.13528e-06

> <r_epik_State_Penalty>
0.00119827

> <r_epik_Charging_Adjusted_Penalty>
0.00296709

> <i_epik_Tot_Q>
1

> <i_epik_Tot_abs_Q>
1

> <r_epik_Metal_State_Penalty>
-0

> <b_epik_Metal_Only>
0

> <s_lp_Force_Field>
OPLS_2005

> <r_lp_Energy>
33.6963

> <b_lp_Chiralities_Consistent>
1

> <s_lp_Variant>
AV-unprocessed.smi:3232-1

> <Gold.Version>
5.8.1

> <Gold.Id.Protein>
6NUR|6NUR_protein|mol2

> <Gold.PLP.Fitness>
37.7951

> <Gold.PLP.PLP>
-24.0952

> <Gold.PLP.part.hbond>
-2.8309

> <Gold.PLP.part.metal>
0.0000

> <Gold.PLP.part.buried>
-1.8193

> <Gold.PLP.part.nonpolar>
-19.0398

> <Gold.PLP.part.repulsive>
0.2123

> <Gold.PLP.ligand.clash>
0.0000

> <Gold.PLP.ligand.torsion>
0.6593

> <Gold.PLP.Chemscore.Hbond>
3.9600

> <Gold.PLP.Chemscore.CHOScore>
0.9967

> <Gold.PLP.Chemscore.Metal>
0.0000

> <Gold.Chemscore.Hbonds>
donor molecule, donor type, donor heavy atom, donor atom, acceptor molecule, acceptor atom, score
      L1  H     3    40       P1  7948  2.00
      L1  H     9    33       P1  7948  0.83
      P1  H  7989  7998       L1    18  0.54

> <Gold.PLP.Chemscore.Internal.Correction>
0.1485

> <Gold.Rescore>
     Score         DG    S(hbond)    S(metal)    S(lipo)     H(rot)  DE(clash)    DE(int)     intcor
     12.69     -13.53       2.93        0.00      39.69       2.49       0.00       0.84       ----

> <Gold.Chemscore.Fitness>
12.6875

> <Gold.Chemscore.DG>
-13.5297

> <Gold.Chemscore.ZeroCoef>
-5.4800

> <Gold.Chemscore.Hbond>
2.9269

> <Gold.Chemscore.Metal>
0.0000

> <Gold.Chemscore.Lipo>
39.6898

> <Gold.Chemscore.Internal_Hbond>
0.0000

> <Gold.Chemscore.DEClash>
0.0038

> <Gold.Chemscore.DEInternal>
0.8384

> <Gold.Chemscore.Rot>
2.4882

> <Gold.Chemscore.Internal.Correction>
   9.000000E+99

> <Gold.Chemscore.Hbonds>
donor molecule, donor type, donor heavy atom, donor atom, acceptor molecule, acceptor atom, score
      L1  H     3    40       P1  7948  1.00
      L1  H     9    33       P1  7948  0.69
      P1  H  7989  7998       L1    18  0.40

> <Gold.Chemscore.Hbond.Weighted>
-9.7758

> <Gold.Chemscore.Metal.Weighted>
-0.0000

> <Gold.Chemscore.Lipo.Weighted>
-4.6437

> <Gold.Chemscore.Internal_Hbond.Weighted>
0.0000

> <Gold.Chemscore.DEClash.Weighted>
0.0038

> <Gold.Chemscore.DEInternal.Weighted>
0.8384

> <Gold.Chemscore.Rot.Weighted>
6.3697

> <Gold.Chemscore.Internal.Correction.Weighted>
   9.000000E+99

> <Gold.Protein.RotatedTorsions>
[ 6907 6896 6895 6894 ] final  -39.29 input  -60.11 | X-H torsion
[ 7974 7965 7964 7962 ] final -118.89 input  175.53 | X-H torsion
[ 8008 7997 7996 7995 ] final   20.93 input   59.86 | X-H torsion
[ 10167 10162 10161 10158 ] final   83.36 input  -65.29 | X-H torsion
[ 10718 10713 10712 10709 ] final   78.35 input   66.30 | X-H torsion
[ 10763 10752 10751 10750 ] final   85.35 input  -60.55 | X-H torsion
[ 11005 11000 10999 10996 ] final   56.55 input  -57.11 | X-H torsion

> <Gold.Protein.ActiveResidues>
 VAL166  LYS551  ARG553  GLY616  TRP617  ASP618  TYR619  PRO620  LYS621  CYS622 
 ASP623  PHE694  ASN695  SER759  ASP760  ASP761  ALA762  ILE779  LEU786  VAL792 
 PHE793  MET794  SER795  GLU796  ALA797  LYS798  CYS799  TRP800  GLU811  SER814 

> <Gold.Protein.RotatedAtoms>
  150.9921  134.9253  159.7905 H   0  0  0  0  0  0  0  0  0  0  0  0  # atno 6907 bound_to 6896
  152.5254  134.3267  159.9178 H   0  0  0  0  0  0  0  0  0  0  0  0  # atno 6908 bound_to 6896
  151.3273  133.3974  159.2694 H   0  0  0  0  0  0  0  0  0  0  0  0  # atno 6909 bound_to 6896
  145.0687  140.8343  143.4108 H   0  0  0  0  0  0  0  0  0  0  0  0  # atno 7974 bound_to 7965
  154.9430  140.3055  155.5111 H   0  0  0  0  0  0  0  0  0  0  0  0  # atno 8008 bound_to 7997
  156.2994  140.2333  156.4438 H   0  0  0  0  0  0  0  0  0  0  0  0  # atno 8009 bound_to 7997
  154.8127  140.0427  157.1343 H   0  0  0  0  0  0  0  0  0  0  0  0  # atno 8010 bound_to 7997
  139.9192  144.6223  150.8457 H   0  0  0  0  0  0  0  0  0  0  0  0  # atno 10167 bound_to 10162
  157.6742  130.9864  150.1773 H   0  0  0  0  0  0  0  0  0  0  0  0  # atno 10718 bound_to 10713
  153.1467  135.4620  154.9576 H   0  0  0  0  0  0  0  0  0  0  0  0  # atno 10763 bound_to 10752
  154.7792  135.3183  154.8029 H   0  0  0  0  0  0  0  0  0  0  0  0  # atno 10764 bound_to 10752
  153.8542  135.6918  153.4843 H   0  0  0  0  0  0  0  0  0  0  0  0  # atno 10765 bound_to 10752
  140.0521  134.5722  155.9251 H   0  0  0  0  0  0  0  0  0  0  0  0  # atno 11005 bound_to 11000
  145.1319  139.2627  143.5535 LP  0  0  0  0  0  0  0  0  0  0  0  0  # atno 17320 bound_to 7965
  146.3528  140.0972  142.8609 LP  0  0  0  0  0  0  0  0  0  0  0  0  # atno 17321 bound_to 7965
  140.7666  143.3309  151.2413 LP  0  0  0  0  0  0  0  0  0  0  0  0  # atno 17342 bound_to 10162
  139.6876  143.9747  152.2842 LP  0  0  0  0  0  0  0  0  0  0  0  0  # atno 17343 bound_to 10162
  156.2514  130.3701  149.8229 LP  0  0  0  0  0  0  0  0  0  0  0  0  # atno 17370 bound_to 10713
  156.6000  130.8543  151.3429 LP  0  0  0  0  0  0  0  0  0  0  0  0  # atno 17371 bound_to 10713
  141.1935  133.6579  156.5551 LP  0  0  0  0  0  0  0  0  0  0  0  0  # atno 17394 bound_to 11000
  140.3902  134.7447  157.4716 LP  0  0  0  0  0  0  0  0  0  0  0  0  # atno 17395 bound_to 11000

$$$$
