AV-unprocessed.smi:2001|AV-procd|sdf|8109|dock10
  -GOLD-   2272010333D 1   1.00000     0.00000
 Structure written by MMmdl.
 50 51  0  0  0  0  0  0  0  0  3 V2000
  152.4341  142.2472  159.7346 C   0  0  0  0  0  0  0  0  0  0  0  0
  151.2182  141.7827  159.1753 O   0  0  0  0  0  0  0  0  0  0  0  0
  151.4245  140.8645  158.1149 C   0  0  0  0  0  0  0  0  0  0  0  0
  150.0689  140.2768  157.6946 C   0  0  0  0  0  0  0  0  0  0  0  0
  150.2326  139.1726  156.7438 N   0  0  0  0  0  0  0  0  0  0  0  0
  149.7549  137.9570  157.2032 N   0  0  0  0  0  0  0  0  0  0  0  0
  149.8321  136.8992  156.4616 C   0  0  0  0  0  0  0  0  0  0  0  0
  149.3156  135.5830  156.9580 C   0  0  0  0  0  0  0  0  0  0  0  0
  149.3949  135.4140  158.1825 O   0  0  0  0  0  0  0  0  0  0  0  0
  148.8097  134.6852  156.0591 N   0  5  0  0  0  0  0  0  0  0  0  0
  148.1149  135.0287  154.8198 C   0  0  0  0  0  0  0  0  0  0  0  0
  148.0028  133.7789  153.9255 C   0  0  0  0  0  0  0  0  0  0  0  0
  147.3150  134.0708  152.6394 N   0  3  1  0  0  0  0  0  0  0  0  0
  147.0729  132.8552  151.8256 C   0  0  0  0  0  0  0  0  0  0  0  0
  146.4467  133.2304  150.4692 C   0  0  1  0  0  0  0  0  0  0  0  0
  146.1093  131.9944  149.6282 C   0  0  0  0  0  0  0  0  0  0  0  0
  145.2431  133.9569  150.6950 O   0  0  0  0  0  0  0  0  0  0  0  0
  145.4616  135.1716  151.4049 C   0  0  1  0  0  0  0  0  0  0  0  0
  144.1248  135.9139  151.5091 C   0  0  0  0  0  0  0  0  0  0  0  0
  146.0539  134.8437  152.7878 C   0  0  0  0  0  0  0  0  0  0  0  0
  150.4217  136.9740  155.1301 C   0  0  0  0  0  0  0  0  0  0  0  0
  150.8776  138.1685  154.6939 C   0  0  0  0  0  0  0  0  0  0  0  0
  150.7966  139.3758  155.5159 C   0  0  0  0  0  0  0  0  0  0  0  0
  151.1962  140.4763  155.1363 O   0  0  0  0  0  0  0  0  0  0  0  0
  152.2218  142.9463  160.5434 H   0  0  0  0  0  0  0  0  0  0  0  0
  153.0371  142.7677  158.9894 H   0  0  0  0  0  0  0  0  0  0  0  0
  153.0192  141.4239  160.1463 H   0  0  0  0  0  0  0  0  0  0  0  0
  151.8920  141.3705  157.2686 H   0  0  0  0  0  0  0  0  0  0  0  0
  152.0995  140.0707  158.4387 H   0  0  0  0  0  0  0  0  0  0  0  0
  149.5166  139.9431  158.5749 H   0  0  0  0  0  0  0  0  0  0  0  0
  149.4559  141.0628  157.2496 H   0  0  0  0  0  0  0  0  0  0  0  0
  147.1132  135.4207  154.9990 H   0  0  0  0  0  0  0  0  0  0  0  0
  148.6443  135.8091  154.2722 H   0  0  0  0  0  0  0  0  0  0  0  0
  149.0135  133.4200  153.7233 H   0  0  0  0  0  0  0  0  0  0  0  0
  147.4938  132.9664  154.4470 H   0  0  0  0  0  0  0  0  0  0  0  0
  148.0150  132.3307  151.6599 H   0  0  0  0  0  0  0  0  0  0  0  0
  146.4174  132.1760  152.3736 H   0  0  0  0  0  0  0  0  0  0  0  0
  147.1411  133.8548  149.9042 H   0  0  0  0  0  0  0  0  0  0  0  0
  147.0041  131.4095  149.4137 H   0  0  0  0  0  0  0  0  0  0  0  0
  145.6638  132.2810  148.6752 H   0  0  0  0  0  0  0  0  0  0  0  0
  145.4013  131.3457  150.1450 H   0  0  0  0  0  0  0  0  0  0  0  0
  146.1608  135.7947  150.8442 H   0  0  0  0  0  0  0  0  0  0  0  0
  144.2429  136.8625  152.0336 H   0  0  0  0  0  0  0  0  0  0  0  0
  143.3847  135.3226  152.0487 H   0  0  0  0  0  0  0  0  0  0  0  0
  143.7217  136.1306  150.5196 H   0  0  0  0  0  0  0  0  0  0  0  0
  145.3396  134.2654  153.3765 H   0  0  0  0  0  0  0  0  0  0  0  0
  146.2394  135.7693  153.3339 H   0  0  0  0  0  0  0  0  0  0  0  0
  150.4982  136.1062  154.4921 H   0  0  0  0  0  0  0  0  0  0  0  0
  151.3143  138.2363  153.7084 H   0  0  0  0  0  0  0  0  0  0  0  0
  147.9551  134.6430  152.1071 H   0  0  0  0  0  0  0  0  0  0  0  0
  1  2  1  0  0  0  0
  1 25  1  0  0  0  0
  1 26  1  0  0  0  0
  1 27  1  0  0  0  0
  2  3  1  0  0  0  0
  3  4  1  0  0  0  0
  3 28  1  0  0  0  0
  3 29  1  0  0  0  0
  4  5  1  0  0  0  0
  4 30  1  0  0  0  0
  4 31  1  0  0  0  0
  5 23  1  0  0  0  0
  5  6  1  0  0  0  0
  6  7  2  0  0  0  0
  7  8  1  0  0  0  0
  7 21  1  0  0  0  0
  8  9  2  0  0  0  0
  8 10  1  0  0  0  0
 10 11  1  0  0  0  0
 11 12  1  0  0  0  0
 11 32  1  0  0  0  0
 11 33  1  0  0  0  0
 12 13  1  0  0  0  0
 12 34  1  0  0  0  0
 12 35  1  0  0  0  0
 13 20  1  0  0  0  0
 13 14  1  0  0  0  0
 13 50  1  0  0  0  0
 14 15  1  0  0  0  0
 14 36  1  0  0  0  0
 14 37  1  0  0  0  0
 15 16  1  0  0  0  0
 15 17  1  0  0  0  0
 15 38  1  0  0  0  0
 16 39  1  0  0  0  0
 16 40  1  0  0  0  0
 16 41  1  0  0  0  0
 17 18  1  0  0  0  0
 18 19  1  0  0  0  0
 18 20  1  0  0  0  0
 18 42  1  0  0  0  0
 19 43  1  0  0  0  0
 19 44  1  0  0  0  0
 19 45  1  0  0  0  0
 20 46  1  0  0  0  0
 20 47  1  0  0  0  0
 21 22  2  0  0  0  0
 21 48  1  0  0  0  0
 22 23  1  0  0  0  0
 22 49  1  0  0  0  0
 23 24  2  0  0  0  0
M  CHG  1  10  -1
M  CHG  1  13   1
M  END
> <s_m_source_file>
AV-unprocessed.smi

> <i_m_source_file_index>
2001

> <i_lp_mmshare_version>
43012

> <i_f3d_flags>
0

> <s_epik_input>
W0NIM11PW0NIMl1bQ0gyXW4xbmMoW2NIXVtjSF1jMT1PKUMoPU8pW05IXVtDSDJdW0NIMl1OMltDSDJdW0NAQEhdKFtDSDNdKU9bQ0BASF0oW0NIM10pW0NIMl0y

> <s_epik_cmdline>
J2VwaWtfcHl0aG9uJywgJy1waCcsICc3LjAnLCAnLXRuJywgJzgnLCAnLW1hJywgJzIwMCcsICctbWV0YWxfYmluZGluZycsICctaW1hZScsICc8aW5maWxlLm1hZT4nLCAnLW9tYWUnLCAnPG91dGZpbGUubWFlPic=

> <r_lp_tautomer_probability>
1

> <r_epik_Ionization_Penalty>
6.90846

> <r_epik_Ionization_Penalty_Charging>
6.90846

> <r_epik_Ionization_Penalty_Neutral>
1.08445e-11

> <r_epik_State_Penalty>
7.54671

> <r_epik_Charging_Adjusted_Penalty>
14.4552

> <i_epik_Tot_Q>
0

> <i_epik_Tot_abs_Q>
2

> <r_epik_Metal_State_Penalty>
3.46181

> <b_epik_Metal_Only>
1

> <s_lp_Force_Field>
OPLS_2005

> <r_lp_Energy>
40.5373

> <b_lp_Chiralities_Consistent>
1

> <s_lp_Variant>
AV-unprocessed.smi:2001-8

> <Gold.Version>
5.8.1

> <Gold.Id.Protein>
6NUR|6NUR_protein|mol2

> <Gold.PLP.Fitness>
47.1623

> <Gold.PLP.PLP>
-37.0832

> <Gold.PLP.part.hbond>
-3.0000

> <Gold.PLP.part.metal>
0.0000

> <Gold.PLP.part.buried>
-4.4862

> <Gold.PLP.part.nonpolar>
-29.2763

> <Gold.PLP.part.repulsive>
0.2282

> <Gold.PLP.ligand.clash>
0.0000

> <Gold.PLP.ligand.torsion>
0.7743

> <Gold.PLP.Chemscore.Hbond>
3.8400

> <Gold.PLP.Chemscore.CHOScore>
0.0000

> <Gold.PLP.Chemscore.Metal>
0.0000

> <Gold.Chemscore.Hbonds>
donor molecule, donor type, donor heavy atom, donor atom, acceptor molecule, acceptor atom, score
      L1  H    13    50       P1  7948  2.00
      P1  H  6896  6909       L1     9  0.89
      P1  H  7989  7998       L1    24  0.98

> <Gold.PLP.Chemscore.Internal.Correction>
0.1077

> <Gold.Rescore>
     Score         DG    S(hbond)    S(metal)    S(lipo)     H(rot)  DE(clash)    DE(int)     intcor
     17.61     -18.78       2.80        0.00      77.86       2.02       0.06       1.11       ----

> <Gold.Chemscore.Fitness>
17.6112

> <Gold.Chemscore.DG>
-18.7829

> <Gold.Chemscore.ZeroCoef>
-5.4800

> <Gold.Chemscore.Hbond>
2.8022

> <Gold.Chemscore.Metal>
0.0000

> <Gold.Chemscore.Lipo>
77.8591

> <Gold.Chemscore.Internal_Hbond>
0.0000

> <Gold.Chemscore.DEClash>
0.0640

> <Gold.Chemscore.DEInternal>
1.1077

> <Gold.Chemscore.Rot>
2.0179

> <Gold.Chemscore.Internal.Correction>
   9.000000E+99

> <Gold.Chemscore.Hbonds>
donor molecule, donor type, donor heavy atom, donor atom, acceptor molecule, acceptor atom, score
      L1  H    13    50       P1  7948  0.34
      P1  H  6896  6909       L1     9  0.85
      P1  H  7989  7998       L1    24  0.93

> <Gold.Chemscore.Hbond.Weighted>
-9.3593

> <Gold.Chemscore.Metal.Weighted>
-0.0000

> <Gold.Chemscore.Lipo.Weighted>
-9.1095

> <Gold.Chemscore.Internal_Hbond.Weighted>
0.0000

> <Gold.Chemscore.DEClash.Weighted>
0.0640

> <Gold.Chemscore.DEInternal.Weighted>
1.1077

> <Gold.Chemscore.Rot.Weighted>
5.1659

> <Gold.Chemscore.Internal.Correction.Weighted>
   9.000000E+99

> <Gold.Protein.RotatedTorsions>
[ 6907 6896 6895 6894 ] final   32.09 input  -60.11 | X-H torsion
[ 7974 7965 7964 7962 ] final  104.08 input  175.53 | X-H torsion
[ 8008 7997 7996 7995 ] final -138.24 input   59.86 | X-H torsion
[ 10167 10162 10161 10158 ] final  -54.54 input  -65.29 | X-H torsion
[ 10718 10713 10712 10709 ] final   86.50 input   66.30 | X-H torsion
[ 10763 10752 10751 10750 ] final -178.65 input  -60.55 | X-H torsion
[ 11005 11000 10999 10996 ] final  134.99 input  -57.11 | X-H torsion

> <Gold.Protein.ActiveResidues>
 VAL166  LYS551  ARG553  GLY616  TRP617  ASP618  TYR619  PRO620  LYS621  CYS622 
 ASP623  PHE694  ASN695  SER759  ASP760  ASP761  ALA762  ILE779  LEU786  VAL792 
 PHE793  MET794  SER795  GLU796  ALA797  LYS798  CYS799  TRP800  GLU811  SER814 

> <Gold.Protein.RotatedAtoms>
  152.0696  134.9542  160.0574 H   0  0  0  0  0  0  0  0  0  0  0  0  # atno 6907 bound_to 6896
  152.0873  133.4178  159.4536 H   0  0  0  0  0  0  0  0  0  0  0  0  # atno 6908 bound_to 6896
  150.6836  134.2832  159.4679 H   0  0  0  0  0  0  0  0  0  0  0  0  # atno 6909 bound_to 6896
  145.3375  139.2470  143.3627 H   0  0  0  0  0  0  0  0  0  0  0  0  # atno 7974 bound_to 7965
  155.4251  140.0521  157.3023 H   0  0  0  0  0  0  0  0  0  0  0  0  # atno 8008 bound_to 7997
  154.4885  140.2110  155.9559 H   0  0  0  0  0  0  0  0  0  0  0  0  # atno 8009 bound_to 7997
  156.1309  140.3172  155.8352 H   0  0  0  0  0  0  0  0  0  0  0  0  # atno 8010 bound_to 7997
  140.6425  143.2516  151.4951 H   0  0  0  0  0  0  0  0  0  0  0  0  # atno 10167 bound_to 10162
  157.6929  131.0218  150.2982 H   0  0  0  0  0  0  0  0  0  0  0  0  # atno 10718 bound_to 10713
  154.5450  135.2809  155.1061 H   0  0  0  0  0  0  0  0  0  0  0  0  # atno 10763 bound_to 10752
  154.2528  135.6336  153.5250 H   0  0  0  0  0  0  0  0  0  0  0  0  # atno 10764 bound_to 10752
  152.9988  135.5587  154.6000 H   0  0  0  0  0  0  0  0  0  0  0  0  # atno 10765 bound_to 10752
  139.9950  134.9500  156.9944 H   0  0  0  0  0  0  0  0  0  0  0  0  # atno 11005 bound_to 11000
  146.3021  140.3966  142.8700 LP  0  0  0  0  0  0  0  0  0  0  0  0  # atno 17320 bound_to 7965
  144.8816  140.7407  143.5983 LP  0  0  0  0  0  0  0  0  0  0  0  0  # atno 17321 bound_to 7965
  139.5634  144.2100  152.1727 LP  0  0  0  0  0  0  0  0  0  0  0  0  # atno 17342 bound_to 10162
  140.1375  144.5232  150.6764 LP  0  0  0  0  0  0  0  0  0  0  0  0  # atno 17343 bound_to 10162
  156.3502  130.3829  149.7336 LP  0  0  0  0  0  0  0  0  0  0  0  0  # atno 17370 bound_to 10713
  156.4816  130.8043  151.3057 LP  0  0  0  0  0  0  0  0  0  0  0  0  # atno 17371 bound_to 10713
  140.4835  134.1266  155.7220 LP  0  0  0  0  0  0  0  0  0  0  0  0  # atno 17394 bound_to 11000
  141.1597  133.8816  157.1881 LP  0  0  0  0  0  0  0  0  0  0  0  0  # atno 17395 bound_to 11000

$$$$
