AV-unprocessed.smi:3155|AV-procd|sdf|12027|dock6
  -GOLD-   2272017443D 1   1.00000     0.00000
 Structure written by MMmdl.
 37 38  0  0  0  0  0  0  0  0  1 V2000
  150.5279  139.0062  154.6305 C   0  0  0  0  0  0  0  0  0  0  0  0
  150.3511  140.0633  155.7297 C   0  0  2  0  0  0  0  0  0  0  0  0
  149.8855  141.4076  155.1218 C   0  0  0  0  0  0  0  0  0  0  0  0
  148.4887  141.4244  154.7234 N   0  0  0  0  0  0  0  0  0  0  0  0
  147.4870  142.2702  155.1515 C   0  0  0  0  0  0  0  0  0  0  0  0
  146.3453  141.9163  154.4920 C   0  0  0  0  0  0  0  0  0  0  0  0
  146.7578  140.8411  153.6564 C   0  0  0  0  0  0  0  0  0  0  0  0
  148.0427  140.5551  153.7903 N   0  0  0  0  0  0  0  0  0  0  0  0
  151.6440  140.2059  156.3937 N   0  0  0  0  0  0  0  0  0  0  0  0
  151.6286  141.1949  157.4792 C   0  0  0  0  0  0  0  0  0  0  0  0
  152.6393  140.8440  158.5762 C   0  0  0  0  0  0  0  0  0  0  0  0
  153.3641  139.8611  158.4198 O   0  0  0  0  0  0  0  0  0  0  0  0
  152.7037  141.6187  159.6802 N   0  0  0  0  0  0  0  0  0  0  0  0
  151.8682  142.8004  159.8838 C   0  0  0  0  0  0  0  0  0  0  0  0
  152.4509  143.5143  161.1034 C   0  0  0  0  0  0  0  0  0  0  0  0
  153.1343  142.4056  161.8910 C   0  0  0  0  0  0  0  0  0  0  0  0
  153.5968  141.4171  160.8208 C   0  0  0  0  0  0  0  0  0  0  0  0
  149.5898  138.8308  154.1031 H   0  0  0  0  0  0  0  0  0  0  0  0
  150.8496  138.0516  155.0487 H   0  0  0  0  0  0  0  0  0  0  0  0
  151.2697  139.3142  153.8926 H   0  0  0  0  0  0  0  0  0  0  0  0
  149.6007  139.6823  156.4247 H   0  0  0  0  0  0  0  0  0  0  0  0
  150.0597  142.2242  155.8241 H   0  0  0  0  0  0  0  0  0  0  0  0
  150.4783  141.6358  154.2349 H   0  0  0  0  0  0  0  0  0  0  0  0
  147.6664  143.0407  155.8869 H   0  0  0  0  0  0  0  0  0  0  0  0
  145.3658  142.3606  154.5879 H   0  0  0  0  0  0  0  0  0  0  0  0
  146.1665  140.2662  152.9591 H   0  0  0  0  0  0  0  0  0  0  0  0
  152.3574  140.4059  155.7077 H   0  0  0  0  0  0  0  0  0  0  0  0
  151.8271  142.1949  157.0973 H   0  0  0  0  0  0  0  0  0  0  0  0
  150.6338  141.2267  157.9264 H   0  0  0  0  0  0  0  0  0  0  0  0
  151.8589  143.4537  159.0098 H   0  0  0  0  0  0  0  0  0  0  0  0
  150.8436  142.4805  160.0792 H   0  0  0  0  0  0  0  0  0  0  0  0
  153.1953  144.2427  160.7789 H   0  0  0  0  0  0  0  0  0  0  0  0
  151.6960  144.0446  161.6847 H   0  0  0  0  0  0  0  0  0  0  0  0
  153.9528  142.7692  162.5127 H   0  0  0  0  0  0  0  0  0  0  0  0
  152.4072  141.9224  162.5449 H   0  0  0  0  0  0  0  0  0  0  0  0
  153.5633  140.3944  161.1969 H   0  0  0  0  0  0  0  0  0  0  0  0
  154.6207  141.6383  160.5162 H   0  0  0  0  0  0  0  0  0  0  0  0
  1  2  1  0  0  0  0
  1 18  1  0  0  0  0
  1 19  1  0  0  0  0
  1 20  1  0  0  0  0
  2  3  1  0  0  0  0
  2  9  1  0  0  0  0
  2 21  1  0  0  0  0
  3  4  1  0  0  0  0
  3 22  1  0  0  0  0
  3 23  1  0  0  0  0
  4  8  1  0  0  0  0
  4  5  1  0  0  0  0
  5  6  2  0  0  0  0
  5 24  1  0  0  0  0
  6  7  1  0  0  0  0
  6 25  1  0  0  0  0
  7  8  2  0  0  0  0
  7 26  1  0  0  0  0
  9 10  1  0  0  0  0
  9 27  1  0  0  0  0
 10 11  1  0  0  0  0
 10 28  1  0  0  0  0
 10 29  1  0  0  0  0
 11 12  2  0  0  0  0
 11 13  1  0  0  0  0
 13 17  1  0  0  0  0
 13 14  1  0  0  0  0
 14 15  1  0  0  0  0
 14 30  1  0  0  0  0
 14 31  1  0  0  0  0
 15 16  1  0  0  0  0
 15 32  1  0  0  0  0
 15 33  1  0  0  0  0
 16 17  1  0  0  0  0
 16 34  1  0  0  0  0
 16 35  1  0  0  0  0
 17 36  1  0  0  0  0
 17 37  1  0  0  0  0
M  END
> <s_m_source_file>
AV-unprocessed.smi

> <i_m_source_file_index>
3155

> <i_lp_mmshare_version>
43012

> <i_f3d_flags>
0

> <s_epik_input>
bjFbY0hdW2NIXVtjSF1uMVtDSDJdW0NAQEhdKFtDSDNdKVtOSF1bQ0gyXUMoPU8pTjJbQ0gyXVtDSDJdW0NIMl1bQ0gyXTI=

> <s_epik_cmdline>
J2VwaWtfcHl0aG9uJywgJy1waCcsICc3LjAnLCAnLXRuJywgJzgnLCAnLW1hJywgJzIwMCcsICctbWV0YWxfYmluZGluZycsICctaW1hZScsICc8aW5maWxlLm1hZT4nLCAnLW9tYWUnLCAnPG91dGZpbGUubWFlPic=

> <r_lp_tautomer_probability>
1

> <r_epik_Ionization_Penalty>
1.00455

> <r_epik_Ionization_Penalty_Charging>
0

> <r_epik_Ionization_Penalty_Neutral>
1.00455

> <r_epik_State_Penalty>
1.05336

> <r_epik_Charging_Adjusted_Penalty>
1.05336

> <i_epik_Tot_Q>
0

> <i_epik_Tot_abs_Q>
0

> <r_epik_Metal_State_Penalty>
1.05331

> <b_epik_Metal_Only>
0

> <s_lp_Force_Field>
OPLS_2005

> <r_lp_Energy>
30.8586

> <b_lp_Chiralities_Consistent>
1

> <s_lp_Variant>
AV-unprocessed.smi:3155-3

> <Gold.Version>
5.8.1

> <Gold.Id.Protein>
6NUR|6NUR_protein|mol2

> <Gold.PLP.Fitness>
45.6607

> <Gold.PLP.PLP>
-37.3903

> <Gold.PLP.part.hbond>
-1.0000

> <Gold.PLP.part.metal>
0.0000

> <Gold.PLP.part.buried>
-2.0476

> <Gold.PLP.part.nonpolar>
-34.7306

> <Gold.PLP.part.repulsive>
0.2833

> <Gold.PLP.ligand.clash>
0.0000

> <Gold.PLP.ligand.torsion>
0.2981

> <Gold.PLP.Chemscore.Hbond>
1.0000

> <Gold.PLP.Chemscore.CHOScore>
1.9303

> <Gold.PLP.Chemscore.Metal>
0.0000

> <Gold.Chemscore.Hbonds>
donor molecule, donor type, donor heavy atom, donor atom, acceptor molecule, acceptor atom, score
      P1  H  7997  8010       L1    12  1.00
      L1  C     5    24       P1  8028  0.94
      L1  C     7    26       P1 10175  0.95

> <Gold.PLP.Chemscore.Internal.Correction>
0.0756

> <Gold.Rescore>
     Score         DG    S(hbond)    S(metal)    S(lipo)     H(rot)  DE(clash)    DE(int)     intcor
     13.92     -14.47       0.92        0.00      89.20       1.77       0.22       0.34       ----

> <Gold.Chemscore.Fitness>
13.9160

> <Gold.Chemscore.DG>
-14.4695

> <Gold.Chemscore.ZeroCoef>
-5.4800

> <Gold.Chemscore.Hbond>
0.9230

> <Gold.Chemscore.Metal>
0.0000

> <Gold.Chemscore.Lipo>
89.1971

> <Gold.Chemscore.Internal_Hbond>
0.0000

> <Gold.Chemscore.DEClash>
0.2184

> <Gold.Chemscore.DEInternal>
0.3352

> <Gold.Chemscore.Rot>
1.7693

> <Gold.Chemscore.Internal.Correction>
   9.000000E+99

> <Gold.Chemscore.Hbonds>
donor molecule, donor type, donor heavy atom, donor atom, acceptor molecule, acceptor atom, score
      P1  H  7997  8010       L1    12  0.90

> <Gold.Chemscore.Hbond.Weighted>
-3.0828

> <Gold.Chemscore.Metal.Weighted>
-0.0000

> <Gold.Chemscore.Lipo.Weighted>
-10.4361

> <Gold.Chemscore.Internal_Hbond.Weighted>
0.0000

> <Gold.Chemscore.DEClash.Weighted>
0.2184

> <Gold.Chemscore.DEInternal.Weighted>
0.3352

> <Gold.Chemscore.Rot.Weighted>
4.5294

> <Gold.Chemscore.Internal.Correction.Weighted>
   9.000000E+99

> <Gold.Protein.RotatedTorsions>
[ 6907 6896 6895 6894 ] final   83.46 input  -60.11 | X-H torsion
[ 7974 7965 7964 7962 ] final  -37.28 input  175.53 | X-H torsion
[ 8008 7997 7996 7995 ] final   17.94 input   59.86 | X-H torsion
[ 10167 10162 10161 10158 ] final  107.95 input  -65.29 | X-H torsion
[ 10718 10713 10712 10709 ] final  165.98 input   66.30 | X-H torsion
[ 10763 10752 10751 10750 ] final  -84.83 input  -60.55 | X-H torsion
[ 11005 11000 10999 10996 ] final -107.72 input  -57.11 | X-H torsion

> <Gold.Protein.ActiveResidues>
 VAL166  LYS551  ARG553  GLY616  TRP617  ASP618  TYR619  PRO620  LYS621  CYS622 
 ASP623  PHE694  ASN695  SER759  ASP760  ASP761  ALA762  ILE779  LEU786  VAL792 
 PHE793  MET794  SER795  GLU796  ALA797  LYS798  CYS799  TRP800  GLU811  SER814 

> <Gold.Protein.RotatedAtoms>
  152.5328  134.2892  159.9036 H   0  0  0  0  0  0  0  0  0  0  0  0  # atno 6907 bound_to 6896
  151.2844  133.4188  159.2636 H   0  0  0  0  0  0  0  0  0  0  0  0  # atno 6908 bound_to 6896
  151.0255  134.9516  159.8140 H   0  0  0  0  0  0  0  0  0  0  0  0  # atno 6909 bound_to 6896
  146.0588  140.6378  142.9007 H   0  0  0  0  0  0  0  0  0  0  0  0  # atno 7974 bound_to 7965
  154.8987  140.2997  155.5329 H   0  0  0  0  0  0  0  0  0  0  0  0  # atno 8008 bound_to 7997
  156.3019  140.2411  156.3947 H   0  0  0  0  0  0  0  0  0  0  0  0  # atno 8009 bound_to 7997
  154.8543  140.0408  157.1613 H   0  0  0  0  0  0  0  0  0  0  0  0  # atno 8010 bound_to 7997
  139.6885  144.7110  151.1389 H   0  0  0  0  0  0  0  0  0  0  0  0  # atno 10167 bound_to 10162
  157.0724  131.0370  151.2606 H   0  0  0  0  0  0  0  0  0  0  0  0  # atno 10718 bound_to 10713
  154.6040  135.5507  153.7404 H   0  0  0  0  0  0  0  0  0  0  0  0  # atno 10763 bound_to 10752
  153.0166  135.6373  154.1673 H   0  0  0  0  0  0  0  0  0  0  0  0  # atno 10764 bound_to 10752
  154.1613  135.2897  155.3088 H   0  0  0  0  0  0  0  0  0  0  0  0  # atno 10765 bound_to 10752
  141.0939  133.9006  157.2010 H   0  0  0  0  0  0  0  0  0  0  0  0  # atno 11005 bound_to 11000
  144.7163  140.4221  143.7042 LP  0  0  0  0  0  0  0  0  0  0  0  0  # atno 17320 bound_to 7965
  145.6596  139.1579  143.2816 LP  0  0  0  0  0  0  0  0  0  0  0  0  # atno 17321 bound_to 7965
  140.7675  143.5594  150.9116 LP  0  0  0  0  0  0  0  0  0  0  0  0  # atno 17342 bound_to 10162
  139.9270  143.6538  152.3085 LP  0  0  0  0  0  0  0  0  0  0  0  0  # atno 17343 bound_to 10162
  157.4867  130.7797  149.7467 LP  0  0  0  0  0  0  0  0  0  0  0  0  # atno 17370 bound_to 10713
  155.9947  130.3916  150.2850 LP  0  0  0  0  0  0  0  0  0  0  0  0  # atno 17371 bound_to 10713
  139.9771  135.0110  156.9658 LP  0  0  0  0  0  0  0  0  0  0  0  0  # atno 17394 bound_to 11000
  140.5187  134.0929  155.7287 LP  0  0  0  0  0  0  0  0  0  0  0  0  # atno 17395 bound_to 11000

$$$$
