AV-unprocessed.smi:910|AV-procd|sdf|4124|dock9
  -GOLD-   22720 2 23D 1   1.00000     0.00000
 Structure written by MMmdl.
 46 47  0  0  0  0  0  0  0  0  1 V2000
  146.1830  135.1998  162.3794 C   0  0  0  0  0  0  0  0  0  0  0  0
  146.3640  136.3459  161.4086 C   0  0  0  0  0  0  0  0  0  0  0  0
  147.4618  136.4454  160.5995 N   0  0  0  0  0  0  0  0  0  0  0  0
  147.3335  137.5991  159.8295 C   0  0  0  0  0  0  0  0  0  0  0  0
  148.0824  138.1425  158.9193 N   0  0  0  0  0  0  0  0  0  0  0  0
  149.2892  137.5521  158.5722 C   0  0  0  0  0  0  0  0  0  0  0  0
  149.5004  136.3865  158.2226 O   0  0  0  0  0  0  0  0  0  0  0  0
  150.2797  138.4537  158.6434 N   0  0  0  0  0  0  0  0  0  0  0  0
  151.6821  138.2034  158.3257 C   0  0  0  0  0  0  0  0  0  0  0  0
  152.2976  139.3539  157.5164 C   0  0  0  0  0  0  0  0  0  0  0  0
  153.2513  140.0248  158.3267 O   0  0  0  0  0  0  0  0  0  0  0  0
  152.7130  141.0623  159.1362 C   0  0  2  0  0  0  0  0  0  0  0  0
  152.2777  142.2405  158.2399 C   0  0  0  0  0  0  0  0  0  0  0  0
  151.8203  143.4461  159.0740 C   0  0  0  0  0  0  0  0  0  0  0  0
  152.9141  143.8812  160.0594 C   0  0  0  0  0  0  0  0  0  0  0  0
  153.3414  142.7123  160.9601 C   0  0  0  0  0  0  0  0  0  0  0  0
  153.8084  141.4954  160.1362 C   0  0  1  0  0  0  0  0  0  0  0  0
  154.2230  140.3388  161.0615 C   0  0  0  0  0  0  0  0  0  0  0  0
  146.1437  138.1743  160.1990 O   0  0  0  0  0  0  0  0  0  0  0  0
  145.5793  137.3912  161.1604 C   0  0  0  0  0  0  0  0  0  0  0  0
  144.2482  137.8041  161.7468 C   0  0  0  0  0  0  0  0  0  0  0  0
  145.2756  134.6445  162.1416 H   0  0  0  0  0  0  0  0  0  0  0  0
  146.0982  135.5783  163.3981 H   0  0  0  0  0  0  0  0  0  0  0  0
  147.0282  134.5122  162.3365 H   0  0  0  0  0  0  0  0  0  0  0  0
  148.2156  135.7734  160.5953 H   0  0  0  0  0  0  0  0  0  0  0  0
  150.0406  139.3929  158.9269 H   0  0  0  0  0  0  0  0  0  0  0  0
  152.2288  138.0740  159.2601 H   0  0  0  0  0  0  0  0  0  0  0  0
  151.7768  137.2641  157.7787 H   0  0  0  0  0  0  0  0  0  0  0  0
  152.7747  138.9564  156.6208 H   0  0  0  0  0  0  0  0  0  0  0  0
  151.5192  140.0449  157.1896 H   0  0  0  0  0  0  0  0  0  0  0  0
  151.8553  140.6966  159.7044 H   0  0  0  0  0  0  0  0  0  0  0  0
  153.1094  142.5382  157.6000 H   0  0  0  0  0  0  0  0  0  0  0  0
  151.4702  141.9371  157.5741 H   0  0  0  0  0  0  0  0  0  0  0  0
  151.5604  144.2760  158.4163 H   0  0  0  0  0  0  0  0  0  0  0  0
  150.9131  143.1891  159.6224 H   0  0  0  0  0  0  0  0  0  0  0  0
  153.7782  144.2532  159.5076 H   0  0  0  0  0  0  0  0  0  0  0  0
  152.5560  144.7104  160.6703 H   0  0  0  0  0  0  0  0  0  0  0  0
  154.1399  143.0399  161.6266 H   0  0  0  0  0  0  0  0  0  0  0  0
  152.5057  142.4251  161.5997 H   0  0  0  0  0  0  0  0  0  0  0  0
  154.6888  141.7953  159.5655 H   0  0  0  0  0  0  0  0  0  0  0  0
  153.3825  139.9912  161.6627 H   0  0  0  0  0  0  0  0  0  0  0  0
  155.0152  140.6483  161.7436 H   0  0  0  0  0  0  0  0  0  0  0  0
  154.5979  139.4872  160.4929 H   0  0  0  0  0  0  0  0  0  0  0  0
  144.2315  137.6204  162.8212 H   0  0  0  0  0  0  0  0  0  0  0  0
  143.4405  137.2363  161.2848 H   0  0  0  0  0  0  0  0  0  0  0  0
  144.0680  138.8657  161.5760 H   0  0  0  0  0  0  0  0  0  0  0  0
  1 22  1  0  0  0  0
  1 23  1  0  0  0  0
  1 24  1  0  0  0  0
  1  2  1  0  0  0  0
  2  3  1  0  0  0  0
  2 20  2  0  0  0  0
  3 25  1  0  0  0  0
  3  4  1  0  0  0  0
  4 19  1  0  0  0  0
  4  5  2  0  0  0  0
  5  6  1  0  0  0  0
  6  8  1  0  0  0  0
  6  7  2  0  0  0  0
  8  9  1  0  0  0  0
  8 26  1  0  0  0  0
  9 10  1  0  0  0  0
  9 27  1  0  0  0  0
  9 28  1  0  0  0  0
 10 11  1  0  0  0  0
 10 29  1  0  0  0  0
 10 30  1  0  0  0  0
 11 12  1  0  0  0  0
 12 17  1  0  0  0  0
 12 13  1  0  0  0  0
 12 31  1  0  0  0  0
 13 14  1  0  0  0  0
 13 32  1  0  0  0  0
 13 33  1  0  0  0  0
 14 15  1  0  0  0  0
 14 34  1  0  0  0  0
 14 35  1  0  0  0  0
 15 16  1  0  0  0  0
 15 36  1  0  0  0  0
 15 37  1  0  0  0  0
 16 17  1  0  0  0  0
 16 38  1  0  0  0  0
 16 39  1  0  0  0  0
 17 18  1  0  0  0  0
 17 40  1  0  0  0  0
 18 41  1  0  0  0  0
 18 42  1  0  0  0  0
 18 43  1  0  0  0  0
 19 20  1  0  0  0  0
 20 21  1  0  0  0  0
 21 44  1  0  0  0  0
 21 45  1  0  0  0  0
 21 46  1  0  0  0  0
M  END
> <s_m_source_file>
AV-unprocessed.smi

> <i_m_source_file_index>
910

> <i_lp_mmshare_version>
43012

> <i_f3d_flags>
0

> <s_epik_input>
W0NIM11jMW5jKG9jMVtDSDNdKVtOSF1DKD1PKVtOSF1bQ0gyXVtDSDJdT1tDQEBIXTJbQ0gyXVtDSDJdW0NIMl1bQ0gyXVtDQEhdMltDSDNd

> <s_epik_cmdline>
J2VwaWtfcHl0aG9uJywgJy1waCcsICc3LjAnLCAnLXRuJywgJzgnLCAnLW1hJywgJzIwMCcsICctbWV0YWxfYmluZGluZycsICctaW1hZScsICc8aW5maWxlLm1hZT4nLCAnLW9tYWUnLCAnPG91dGZpbGUubWFlPic=

> <r_lp_tautomer_probability>
0.107061

> <r_epik_Ionization_Penalty>
0.727192

> <r_epik_Ionization_Penalty_Charging>
0.726719

> <r_epik_Ionization_Penalty_Neutral>
0.000473387

> <r_epik_State_Penalty>
2.53712

> <r_epik_Charging_Adjusted_Penalty>
3.26383

> <i_epik_Tot_Q>
0

> <i_epik_Tot_abs_Q>
0

> <r_epik_Metal_State_Penalty>
3.71015

> <b_epik_Metal_Only>
0

> <s_lp_Force_Field>
OPLS_2005

> <r_lp_Energy>
31.238

> <b_lp_Chiralities_Consistent>
1

> <s_lp_Variant>
AV-unprocessed.smi:910-9

> <Gold.Version>
5.8.1

> <Gold.Id.Protein>
6NUR|6NUR_protein|mol2

> <Gold.PLP.Fitness>
45.5299

> <Gold.PLP.PLP>
-40.1716

> <Gold.PLP.part.hbond>
-3.6825

> <Gold.PLP.part.metal>
0.0000

> <Gold.PLP.part.buried>
-4.9390

> <Gold.PLP.part.nonpolar>
-31.9769

> <Gold.PLP.part.repulsive>
0.3355

> <Gold.PLP.ligand.clash>
0.0000

> <Gold.PLP.ligand.torsion>
1.1622

> <Gold.PLP.Chemscore.Hbond>
2.5500

> <Gold.PLP.Chemscore.CHOScore>
0.0000

> <Gold.PLP.Chemscore.Metal>
0.0000

> <Gold.Chemscore.Hbonds>
donor molecule, donor type, donor heavy atom, donor atom, acceptor molecule, acceptor atom, score
      P1  H  7997  8009       L1    11  0.90

> <Gold.PLP.Chemscore.Internal.Correction>
0.0326

> <Gold.Rescore>
     Score         DG    S(hbond)    S(metal)    S(lipo)     H(rot)  DE(clash)    DE(int)     intcor
     19.23     -20.79       1.91        0.00     112.72       1.66       0.27       1.30       ----

> <Gold.Chemscore.Fitness>
19.2271

> <Gold.Chemscore.DG>
-20.7886

> <Gold.Chemscore.ZeroCoef>
-5.4800

> <Gold.Chemscore.Hbond>
1.9053

> <Gold.Chemscore.Metal>
0.0000

> <Gold.Chemscore.Lipo>
112.7225

> <Gold.Chemscore.Internal_Hbond>
0.0000

> <Gold.Chemscore.DEClash>
0.2660

> <Gold.Chemscore.DEInternal>
1.2955

> <Gold.Chemscore.Rot>
1.6576

> <Gold.Chemscore.Internal.Correction>
   9.000000E+99

> <Gold.Chemscore.Hbonds>
donor molecule, donor type, donor heavy atom, donor atom, acceptor molecule, acceptor atom, score
      P1  H  6896  6907       L1     7  0.01
      P1  H  7997  8009       L1    11  0.17

> <Gold.Chemscore.Hbond.Weighted>
-6.3636

> <Gold.Chemscore.Metal.Weighted>
-0.0000

> <Gold.Chemscore.Lipo.Weighted>
-13.1885

> <Gold.Chemscore.Internal_Hbond.Weighted>
0.0000

> <Gold.Chemscore.DEClash.Weighted>
0.2660

> <Gold.Chemscore.DEInternal.Weighted>
1.2955

> <Gold.Chemscore.Rot.Weighted>
4.2436

> <Gold.Chemscore.Internal.Correction.Weighted>
   9.000000E+99

> <Gold.Protein.RotatedTorsions>
[ 6907 6896 6895 6894 ] final  -68.83 input  -60.11 | X-H torsion
[ 7974 7965 7964 7962 ] final  -78.69 input  175.53 | X-H torsion
[ 8008 7997 7996 7995 ] final  147.74 input   59.86 | X-H torsion
[ 10167 10162 10161 10158 ] final -110.33 input  -65.29 | X-H torsion
[ 10718 10713 10712 10709 ] final  179.73 input   66.30 | X-H torsion
[ 10763 10752 10751 10750 ] final   10.39 input  -60.55 | X-H torsion
[ 11005 11000 10999 10996 ] final   37.11 input  -57.11 | X-H torsion

> <Gold.Protein.ActiveResidues>
 VAL166  LYS551  ARG553  GLY616  TRP617  ASP618  TYR619  PRO620  LYS621  CYS622 
 ASP623  PHE694  ASN695  SER759  ASP760  ASP761  ALA762  ILE779  LEU786  VAL792 
 PHE793  MET794  SER795  GLU796  ALA797  LYS798  CYS799  TRP800  GLU811  SER814 

> <Gold.Protein.RotatedAtoms>
  150.7336  134.5683  159.5877 H   0  0  0  0  0  0  0  0  0  0  0  0  # atno 6907 bound_to 6896
  152.3129  134.7473  160.0341 H   0  0  0  0  0  0  0  0  0  0  0  0  # atno 6908 bound_to 6896
  151.8015  133.3335  159.3565 H   0  0  0  0  0  0  0  0  0  0  0  0  # atno 6909 bound_to 6896
  145.5831  140.9444  143.1333 H   0  0  0  0  0  0  0  0  0  0  0  0  # atno 7974 bound_to 7965
  156.2815  140.2147  156.5586 H   0  0  0  0  0  0  0  0  0  0  0  0  # atno 8008 bound_to 7997
  154.7232  140.0502  157.0681 H   0  0  0  0  0  0  0  0  0  0  0  0  # atno 8009 bound_to 7997
  155.0451  140.3150  155.4714 H   0  0  0  0  0  0  0  0  0  0  0  0  # atno 8010 bound_to 7997
  140.1456  143.4242  152.1531 H   0  0  0  0  0  0  0  0  0  0  0  0  # atno 10167 bound_to 10162
  156.8715  130.9785  151.3072 H   0  0  0  0  0  0  0  0  0  0  0  0  # atno 10718 bound_to 10713
  153.2038  135.6859  153.8198 H   0  0  0  0  0  0  0  0  0  0  0  0  # atno 10763 bound_to 10752
  153.7455  135.3231  155.3313 H   0  0  0  0  0  0  0  0  0  0  0  0  # atno 10764 bound_to 10752
  154.8185  135.4668  154.0815 H   0  0  0  0  0  0  0  0  0  0  0  0  # atno 10765 bound_to 10752
  140.2258  134.3586  155.7985 H   0  0  0  0  0  0  0  0  0  0  0  0  # atno 11005 bound_to 11000
  144.7385  139.7516  143.7320 LP  0  0  0  0  0  0  0  0  0  0  0  0  # atno 17320 bound_to 7965
  146.1702  139.4849  142.9932 LP  0  0  0  0  0  0  0  0  0  0  0  0  # atno 17321 bound_to 7965
  139.5451  144.7291  151.4610 LP  0  0  0  0  0  0  0  0  0  0  0  0  # atno 17342 bound_to 10162
  140.6734  143.8244  150.7027 LP  0  0  0  0  0  0  0  0  0  0  0  0  # atno 17343 bound_to 10162
  157.6193  130.8642  149.9081 LP  0  0  0  0  0  0  0  0  0  0  0  0  # atno 17370 bound_to 10713
  156.0724  130.3683  150.0748 LP  0  0  0  0  0  0  0  0  0  0  0  0  # atno 17371 bound_to 10713
  141.2220  133.7218  156.8651 LP  0  0  0  0  0  0  0  0  0  0  0  0  # atno 17394 bound_to 11000
  140.1802  134.9039  157.2939 LP  0  0  0  0  0  0  0  0  0  0  0  0  # atno 17395 bound_to 11000

$$$$
