AV-unprocessed.smi:72|AV-procd|sdf|681|dock1
  -GOLD-   2262016593D 1   1.00000     0.00000
 Structure written by MMmdl.
 29 30  0  0  0  0  0  0  0  0  1 V2000
  140.7321  134.8324  153.7594 N   0  0  0  0  0  0  0  0  0  0  0  0
  141.8888  135.3278  153.5009 C   0  0  0  0  0  0  0  0  0  0  0  0
  142.1234  136.5742  152.9021 N   0  0  0  0  0  0  0  0  0  0  0  0
  143.3495  136.9398  152.6856 C   0  0  0  0  0  0  0  0  0  0  0  0
  144.4864  136.0915  153.0244 N   0  0  0  0  0  0  0  0  0  0  0  0
  145.9282  136.5108  152.7857 C   0  0  2  0  0  0  0  0  0  0  0  0
  146.5883  136.6691  154.0090 O   0  0  0  0  0  0  0  0  0  0  0  0
  146.6113  138.0470  154.3710 C   0  0  1  0  0  0  0  0  0  0  0  0
  147.6641  138.3228  155.4582 C   0  0  0  0  0  0  0  0  0  0  0  0
  147.6742  139.6972  155.7806 O   0  0  0  0  0  0  0  0  0  0  0  0
  146.8554  138.7215  153.0180 C   0  0  1  0  0  0  0  0  0  0  0  0
  148.2336  138.6772  152.6844 O   0  0  0  0  0  0  0  0  0  0  0  0
  145.9943  137.8811  152.0749 C   0  0  1  0  0  0  0  0  0  0  0  0
  146.5319  137.8127  150.7672 O   0  0  0  0  0  0  0  0  0  0  0  0
  144.2621  134.8482  153.6668 C   0  0  0  0  0  0  0  0  0  0  0  0
  145.1843  134.1112  154.0164 O   0  0  0  0  0  0  0  0  0  0  0  0
  142.9690  134.5172  153.8695 N   0  0  0  0  0  0  0  0  0  0  0  0
  146.3792  135.6871  152.2292 H   0  0  0  0  0  0  0  0  0  0  0  0
  145.6237  138.3480  154.7253 H   0  0  0  0  0  0  0  0  0  0  0  0
  146.5412  139.7657  153.0236 H   0  0  0  0  0  0  0  0  0  0  0  0
  144.9935  138.3137  152.0271 H   0  0  0  0  0  0  0  0  0  0  0  0
  140.0079  135.4725  153.4659 H   0  0  0  0  0  0  0  0  0  0  0  0
  143.5937  137.9036  152.2387 H   0  0  0  0  0  0  0  0  0  0  0  0
  147.4808  137.7262  156.3526 H   0  0  0  0  0  0  0  0  0  0  0  0
  148.6585  138.0659  155.0922 H   0  0  0  0  0  0  0  0  0  0  0  0
  147.3644  140.1831  155.0317 H   0  0  0  0  0  0  0  0  0  0  0  0
  148.4983  137.7707  152.6437 H   0  0  0  0  0  0  0  0  0  0  0  0
  145.8531  138.0513  150.1536 H   0  0  0  0  0  0  0  0  0  0  0  0
  142.7756  133.6333  154.3170 H   0  0  0  0  0  0  0  0  0  0  0  0
  1  2  2  0  0  0  0
  1 22  1  0  0  0  0
  2 17  1  0  0  0  0
  2  3  1  0  0  0  0
  3  4  2  0  0  0  0
  4  5  1  0  0  0  0
  4 23  1  0  0  0  0
  5  6  1  0  0  0  0
  5 15  1  0  0  0  0
  6 18  1  0  0  0  0
  6 13  1  0  0  0  0
  6  7  1  0  0  0  0
  7  8  1  0  0  0  0
  8 19  1  0  0  0  0
  8  9  1  0  0  0  0
  8 11  1  0  0  0  0
  9 10  1  0  0  0  0
  9 24  1  0  0  0  0
  9 25  1  0  0  0  0
 10 26  1  0  0  0  0
 11 20  1  0  0  0  0
 11 12  1  0  0  0  0
 11 13  1  0  0  0  0
 12 27  1  0  0  0  0
 13 21  1  0  0  0  0
 13 14  1  0  0  0  0
 14 28  1  0  0  0  0
 15 16  2  0  0  0  0
 15 17  1  0  0  0  0
 17 29  1  0  0  0  0
M  END
> <s_m_source_file>
AV-unprocessed.smi

> <i_m_source_file_index>
72

> <i_lp_mmshare_version>
43012

> <i_f3d_flags>
0

> <s_epik_input>
W05IMl1jMW5bY0hdbihjKD1PKW4xKVtDQEBIXTJPW0NASF0oW0NIMl1bT0hdKVtDQEBIXShbT0hdKVtDQEhdMltPSF0=

> <s_epik_cmdline>
J2VwaWtfcHl0aG9uJywgJy1waCcsICc3LjAnLCAnLXRuJywgJzgnLCAnLW1hJywgJzIwMCcsICctbWV0YWxfYmluZGluZycsICctaW1hZScsICc8aW5maWxlLm1hZT4nLCAnLW9tYWUnLCAnPG91dGZpbGUubWFlPic=

> <r_lp_tautomer_probability>
7.17554e-07

> <r_epik_Ionization_Penalty>
0.0066451

> <r_epik_Ionization_Penalty_Charging>
0.00663793

> <r_epik_Ionization_Penalty_Neutral>
7.17052e-06

> <r_epik_State_Penalty>
0.419231

> <r_epik_Charging_Adjusted_Penalty>
0.425868

> <i_epik_Tot_Q>
0

> <i_epik_Tot_abs_Q>
0

> <r_epik_Metal_State_Penalty>
1.44144

> <b_epik_Metal_Only>
0

> <s_epik_Chemistry_Notes>
This compound contains an acetal/aminal-like group ( X-CH(R)-Y where X, Y are N, S, or O) that may be acid/base labile, releasing an aldehyde.

> <s_lp_Force_Field>
OPLS_2005

> <r_lp_Energy>
42.1864

> <b_lp_Chiralities_Consistent>
1

> <s_lp_Variant>
AV-unprocessed.smi:72-19

> <Gold.Version>
5.8.1

> <Gold.Id.Protein>
6NUR|6NUR_protein|mol2

> <Gold.PLP.Fitness>
43.3450

> <Gold.PLP.PLP>
-22.3836

> <Gold.PLP.part.hbond>
-7.4220

> <Gold.PLP.part.metal>
0.0000

> <Gold.PLP.part.buried>
-3.1893

> <Gold.PLP.part.nonpolar>
-11.8024

> <Gold.PLP.part.repulsive>
0.3973

> <Gold.PLP.ligand.clash>
0.0000

> <Gold.PLP.ligand.torsion>
0.0309

> <Gold.PLP.Chemscore.Hbond>
5.0000

> <Gold.PLP.Chemscore.CHOScore>
2.0000

> <Gold.PLP.Chemscore.Metal>
0.0000

> <Gold.Chemscore.Hbonds>
donor molecule, donor type, donor heavy atom, donor atom, acceptor molecule, acceptor atom, score
      L1  H    12    27       P1  7948  1.00
      L1  H    14    28       P1 10171  0.92
      L1  H    17    29       P1 10957  1.00
      P1  H  7954  7966       L1    14  1.00
      P1  H 11000 11005       L1     1  0.83
      L1  C     4    23       P1 10171  1.00
      L1  C     4    23       P1 10175  0.99

> <Gold.PLP.Chemscore.Internal.Correction>
0.0232

> <Gold.Rescore>
     Score         DG    S(hbond)    S(metal)    S(lipo)     H(rot)  DE(clash)    DE(int)     intcor
     10.80     -12.16       4.49        0.00      17.71       4.06       0.14       1.23       ----

> <Gold.Chemscore.Fitness>
10.8013

> <Gold.Chemscore.DG>
-12.1624

> <Gold.Chemscore.ZeroCoef>
-5.4800

> <Gold.Chemscore.Hbond>
4.4921

> <Gold.Chemscore.Metal>
0.0000

> <Gold.Chemscore.Lipo>
17.7119

> <Gold.Chemscore.Internal_Hbond>
0.0000

> <Gold.Chemscore.DEClash>
0.1355

> <Gold.Chemscore.DEInternal>
1.2256

> <Gold.Chemscore.Rot>
4.0600

> <Gold.Chemscore.Internal.Correction>
   9.000000E+99

> <Gold.Chemscore.Hbonds>
donor molecule, donor type, donor heavy atom, donor atom, acceptor molecule, acceptor atom, score
      L1  H    12    27       P1  7948  0.98
      L1  H    14    28       P1 10171  0.84
      L1  H    17    29       P1 10957  1.00
      P1  H  7954  7966       L1    14  0.64
      P1  H 11000 11005       L1     1  0.31

> <Gold.Chemscore.Hbond.Weighted>
-15.0037

> <Gold.Chemscore.Metal.Weighted>
-0.0000

> <Gold.Chemscore.Lipo.Weighted>
-2.0723

> <Gold.Chemscore.Internal_Hbond.Weighted>
0.0000

> <Gold.Chemscore.DEClash.Weighted>
0.1355

> <Gold.Chemscore.DEInternal.Weighted>
1.2256

> <Gold.Chemscore.Rot.Weighted>
10.3936

> <Gold.Chemscore.Internal.Correction.Weighted>
   9.000000E+99

> <Gold.Protein.RotatedTorsions>
[ 6907 6896 6895 6894 ] final   98.90 input  -60.11 | X-H torsion
[ 7974 7965 7964 7962 ] final  158.94 input  175.53 | X-H torsion
[ 8008 7997 7996 7995 ] final -107.90 input   59.86 | X-H torsion
[ 10167 10162 10161 10158 ] final  124.07 input  -65.29 | X-H torsion
[ 10718 10713 10712 10709 ] final  152.84 input   66.30 | X-H torsion
[ 10763 10752 10751 10750 ] final  -96.23 input  -60.55 | X-H torsion
[ 11005 11000 10999 10996 ] final   40.28 input  -57.11 | X-H torsion

> <Gold.Protein.ActiveResidues>
 VAL166  LYS551  ARG553  GLY616  TRP617  ASP618  TYR619  PRO620  LYS621  CYS622 
 ASP623  PHE694  ASN695  SER759  ASP760  ASP761  ALA762  ILE779  LEU786  VAL792 
 PHE793  MET794  SER795  GLU796  ALA797  LYS798  CYS799  TRP800  GLU811  SER814 

> <Gold.Protein.RotatedAtoms>
  152.5401  134.0510  159.8109 H   0  0  0  0  0  0  0  0  0  0  0  0  # atno 6907 bound_to 6896
  151.0652  133.5504  159.2638 H   0  0  0  0  0  0  0  0  0  0  0  0  # atno 6908 bound_to 6896
  151.2387  135.0589  159.9070 H   0  0  0  0  0  0  0  0  0  0  0  0  # atno 6909 bound_to 6896
  144.7818  139.7548  143.6257 H   0  0  0  0  0  0  0  0  0  0  0  0  # atno 7974 bound_to 7965
  154.9362  140.0404  157.2073 H   0  0  0  0  0  0  0  0  0  0  0  0  # atno 8008 bound_to 7997
  154.8113  140.2868  155.5830 H   0  0  0  0  0  0  0  0  0  0  0  0  # atno 8009 bound_to 7997
  156.2971  140.2536  156.3001 H   0  0  0  0  0  0  0  0  0  0  0  0  # atno 8010 bound_to 7997
  139.5762  144.6964  151.3646 H   0  0  0  0  0  0  0  0  0  0  0  0  # atno 10167 bound_to 10162
  157.2526  131.0782  151.1720 H   0  0  0  0  0  0  0  0  0  0  0  0  # atno 10718 bound_to 10713
  154.7221  135.5091  153.8828 H   0  0  0  0  0  0  0  0  0  0  0  0  # atno 10763 bound_to 10752
  153.0871  135.6648  153.9935 H   0  0  0  0  0  0  0  0  0  0  0  0  # atno 10764 bound_to 10752
  153.9756  135.3034  155.3403 H   0  0  0  0  0  0  0  0  0  0  0  0  # atno 10765 bound_to 10752
  140.1946  134.3945  155.8128 H   0  0  0  0  0  0  0  0  0  0  0  0  # atno 11005 bound_to 11000
  146.2029  139.5335  142.9731 LP  0  0  0  0  0  0  0  0  0  0  0  0  # atno 17320 bound_to 7965
  145.6030  141.0352  143.2008 LP  0  0  0  0  0  0  0  0  0  0  0  0  # atno 17321 bound_to 7965
  140.7045  143.7549  150.7458 LP  0  0  0  0  0  0  0  0  0  0  0  0  # atno 17342 bound_to 10162
  140.1070  143.4735  152.2392 LP  0  0  0  0  0  0  0  0  0  0  0  0  # atno 17343 bound_to 10162
  157.3262  130.6962  149.6297 LP  0  0  0  0  0  0  0  0  0  0  0  0  # atno 17370 bound_to 10713
  155.9666  130.4321  150.4948 LP  0  0  0  0  0  0  0  0  0  0  0  0  # atno 17371 bound_to 10713
  141.2227  133.7063  156.8153 LP  0  0  0  0  0  0  0  0  0  0  0  0  # atno 17394 bound_to 11000
  140.2122  134.8819  157.3286 LP  0  0  0  0  0  0  0  0  0  0  0  0  # atno 17395 bound_to 11000

$$$$
