AV-unprocessed.smi:47|AV-procd|sdf|432|dock9
  -GOLD-   2262016303D 1   1.00000     0.00000
 Structure written by MMmdl.
 32 34  0  0  0  0  0  0  0  0  2 V2000
  145.5610  141.4748  154.2159 O   0  0  0  0  0  0  0  0  0  0  0  0
  146.9082  141.4547  153.7943 C   0  0  2  0  0  0  0  0  0  0  0  0
  147.4102  140.0310  153.5279 C   0  0  0  0  0  0  0  0  0  0  0  0
  148.8578  140.0449  153.8199 N   0  3  0  0  0  0  0  0  0  0  0  0
  149.1893  141.3368  154.4576 C   0  0  2  0  0  0  0  0  0  0  0  0
  150.1119  140.9978  155.5902 C   0  0  0  0  0  0  0  0  0  0  0  0
  150.6117  139.7674  155.7449 N   0  0  0  0  0  0  0  0  0  0  0  0
  151.4173  139.7402  156.8281 N   0  0  0  0  0  0  0  0  0  0  0  0
  151.3413  141.0009  157.2513 C   0  0  0  0  0  0  0  0  0  0  0  0
  152.0821  141.4697  158.4456 C   0  0  0  0  0  0  0  0  0  0  0  0
  152.8065  140.5630  159.2576 C   0  0  0  0  0  0  0  0  0  0  0  0
  153.5120  141.0042  160.3939 C   0  0  0  0  0  0  0  0  0  0  0  0
  153.5064  142.3667  160.7413 C   0  0  0  0  0  0  0  0  0  0  0  0
  152.7931  143.2835  159.9492 C   0  0  0  0  0  0  0  0  0  0  0  0
  152.0889  142.8374  158.8141 C   0  0  0  0  0  0  0  0  0  0  0  0
  150.5438  141.8422  156.5257 N   0  0  0  0  0  0  0  0  0  0  0  0
  147.8565  141.9621  154.8763 C   0  0  0  0  0  0  0  0  0  0  0  0
  147.0184  142.0612  152.8940 H   0  0  0  0  0  0  0  0  0  0  0  0
  149.6968  141.9675  153.7259 H   0  0  0  0  0  0  0  0  0  0  0  0
  145.0727  140.8456  153.7063 H   0  0  0  0  0  0  0  0  0  0  0  0
  146.9413  139.3220  154.2119 H   0  0  0  0  0  0  0  0  0  0  0  0
  147.2067  139.6999  152.5091 H   0  0  0  0  0  0  0  0  0  0  0  0
  149.0697  139.2927  154.4607 H   0  0  0  0  0  0  0  0  0  0  0  0
  152.8284  139.5103  159.0171 H   0  0  0  0  0  0  0  0  0  0  0  0
  154.0575  140.2952  160.9993 H   0  0  0  0  0  0  0  0  0  0  0  0
  154.0469  142.7073  161.6123 H   0  0  0  0  0  0  0  0  0  0  0  0
  152.7854  144.3312  160.2119 H   0  0  0  0  0  0  0  0  0  0  0  0
  151.5504  143.5652  158.2253 H   0  0  0  0  0  0  0  0  0  0  0  0
  147.8968  143.0491  154.9526 H   0  0  0  0  0  0  0  0  0  0  0  0
  147.5457  141.5676  155.8457 H   0  0  0  0  0  0  0  0  0  0  0  0
  149.3952  139.9333  152.9724 H   0  0  0  0  0  0  0  0  0  0  0  0
  150.4427  138.9569  155.1660 H   0  0  0  0  0  0  0  0  0  0  0  0
  1  2  1  0  0  0  0
  1 20  1  0  0  0  0
  2 18  1  0  0  0  0
  2 17  1  0  0  0  0
  2  3  1  0  0  0  0
  3  4  1  0  0  0  0
  3 21  1  0  0  0  0
  3 22  1  0  0  0  0
  4  5  1  0  0  0  0
  4 23  1  0  0  0  0
  4 31  1  0  0  0  0
  5 19  1  0  0  0  0
  5  6  1  0  0  0  0
  5 17  1  0  0  0  0
  6 16  2  0  0  0  0
  6  7  1  0  0  0  0
  7  8  1  0  0  0  0
  7 32  1  0  0  0  0
  8  9  2  0  0  0  0
  9 10  1  0  0  0  0
  9 16  1  0  0  0  0
 10 15  1  0  0  0  0
 10 11  2  0  0  0  0
 11 12  1  0  0  0  0
 11 24  1  0  0  0  0
 12 13  2  0  0  0  0
 12 25  1  0  0  0  0
 13 14  1  0  0  0  0
 13 26  1  0  0  0  0
 14 15  2  0  0  0  0
 14 27  1  0  0  0  0
 15 28  1  0  0  0  0
 17 29  1  0  0  0  0
 17 30  1  0  0  0  0
M  CHG  1   4   1
M  END
> <s_m_source_file>
AV-unprocessed.smi

> <i_m_source_file_index>
47

> <i_lp_mmshare_version>
43012

> <i_f3d_flags>
0

> <s_epik_input>
W09IXVtDQEhdMVtDSDJdW05IXVtDQEBIXShbQ0gyXTEpYzJuW25IXWMobjIpLWMzW2NIXVtjSF1bY0hdW2NIXVtjSF0z

> <s_epik_cmdline>
J2VwaWtfcHl0aG9uJywgJy1waCcsICc3LjAnLCAnLXRuJywgJzgnLCAnLW1hJywgJzIwMCcsICctbWV0YWxfYmluZGluZycsICctaW1hZScsICc8aW5maWxlLm1hZT4nLCAnLW9tYWUnLCAnPG91dGZpbGUubWFlPic=

> <r_epik_Ionization_Penalty>
1.14296

> <r_epik_Ionization_Penalty_Charging>
0.0688988

> <r_epik_Ionization_Penalty_Neutral>
1.07406

> <r_epik_State_Penalty>
1.72347

> <r_epik_Charging_Adjusted_Penalty>
1.79237

> <i_epik_Tot_Q>
1

> <i_epik_Tot_abs_Q>
1

> <r_epik_Metal_State_Penalty>
2.22085

> <b_epik_Metal_Only>
0

> <s_lp_Force_Field>
OPLS_2005

> <r_lp_Energy>
30.6831

> <b_lp_Chiralities_Consistent>
1

> <s_lp_Variant>
AV-unprocessed.smi:47-10

> <Gold.Version>
5.8.1

> <Gold.Id.Protein>
6NUR|6NUR_protein|mol2

> <Gold.PLP.Fitness>
41.5580

> <Gold.PLP.PLP>
-35.7654

> <Gold.PLP.part.hbond>
-2.0000

> <Gold.PLP.part.metal>
0.0000

> <Gold.PLP.part.buried>
-2.4181

> <Gold.PLP.part.nonpolar>
-30.9409

> <Gold.PLP.part.repulsive>
0.2940

> <Gold.PLP.ligand.clash>
0.0000

> <Gold.PLP.ligand.torsion>
0.1102

> <Gold.PLP.Chemscore.Hbond>
2.0000

> <Gold.PLP.Chemscore.CHOScore>
0.0000

> <Gold.PLP.Chemscore.Metal>
0.0000

> <Gold.Chemscore.Hbonds>
donor molecule, donor type, donor heavy atom, donor atom, acceptor molecule, acceptor atom, score
      L1  H     1    20       P1 10175  0.96
      L1  H     4    31       P1  7957  1.00

> <Gold.PLP.Chemscore.Internal.Correction>
0.0131

> <Gold.Rescore>
     Score         DG    S(hbond)    S(metal)    S(lipo)     H(rot)  DE(clash)    DE(int)     intcor
     18.28     -18.31       1.92        0.00      87.64       1.50       0.02       0.01       ----

> <Gold.Chemscore.Fitness>
18.2758

> <Gold.Chemscore.DG>
-18.3064

> <Gold.Chemscore.ZeroCoef>
-5.4800

> <Gold.Chemscore.Hbond>
1.9173

> <Gold.Chemscore.Metal>
0.0000

> <Gold.Chemscore.Lipo>
87.6394

> <Gold.Chemscore.Internal_Hbond>
0.0000

> <Gold.Chemscore.DEClash>
0.0222

> <Gold.Chemscore.DEInternal>
0.0084

> <Gold.Chemscore.Rot>
1.4966

> <Gold.Chemscore.Internal.Correction>
   9.000000E+99

> <Gold.Chemscore.Hbonds>
donor molecule, donor type, donor heavy atom, donor atom, acceptor molecule, acceptor atom, score
      L1  H     1    20       P1 10175  0.83
      L1  H     4    31       P1  7957  0.97

> <Gold.Chemscore.Hbond.Weighted>
-6.4038

> <Gold.Chemscore.Metal.Weighted>
-0.0000

> <Gold.Chemscore.Lipo.Weighted>
-10.2538

> <Gold.Chemscore.Internal_Hbond.Weighted>
0.0000

> <Gold.Chemscore.DEClash.Weighted>
0.0222

> <Gold.Chemscore.DEInternal.Weighted>
0.0084

> <Gold.Chemscore.Rot.Weighted>
3.8312

> <Gold.Chemscore.Internal.Correction.Weighted>
   9.000000E+99

> <Gold.Protein.RotatedTorsions>
[ 6907 6896 6895 6894 ] final  -78.75 input  -60.11 | X-H torsion
[ 7974 7965 7964 7962 ] final   66.55 input  175.53 | X-H torsion
[ 8008 7997 7996 7995 ] final   76.68 input   59.86 | X-H torsion
[ 10167 10162 10161 10158 ] final   58.39 input  -65.29 | X-H torsion
[ 10718 10713 10712 10709 ] final -161.19 input   66.30 | X-H torsion
[ 10763 10752 10751 10750 ] final   78.52 input  -60.55 | X-H torsion
[ 11005 11000 10999 10996 ] final   57.33 input  -57.11 | X-H torsion

> <Gold.Protein.ActiveResidues>
 VAL166  LYS551  ARG553  GLY616  TRP617  ASP618  TYR619  PRO620  LYS621  CYS622 
 ASP623  PHE694  ASN695  SER759  ASP760  ASP761  ALA762  ILE779  LEU786  VAL792 
 PHE793  MET794  SER795  GLU796  ALA797  LYS798  CYS799  TRP800  GLU811  SER814 

> <Gold.Protein.RotatedAtoms>
  150.6965  134.4225  159.5211 H   0  0  0  0  0  0  0  0  0  0  0  0  # atno 6907 bound_to 6896
  152.1965  134.8623  160.0521 H   0  0  0  0  0  0  0  0  0  0  0  0  # atno 6908 bound_to 6896
  151.9559  133.3645  159.4054 H   0  0  0  0  0  0  0  0  0  0  0  0  # atno 6909 bound_to 6896
  145.8252  139.3107  143.1020 H   0  0  0  0  0  0  0  0  0  0  0  0  # atno 7974 bound_to 7965
  155.8307  140.3466  155.5571 H   0  0  0  0  0  0  0  0  0  0  0  0  # atno 8008 bound_to 7997
  155.8245  140.0918  157.1849 H   0  0  0  0  0  0  0  0  0  0  0  0  # atno 8009 bound_to 7997
  154.4004  140.1424  156.3526 H   0  0  0  0  0  0  0  0  0  0  0  0  # atno 8010 bound_to 7997
  140.1877  144.4117  150.6585 H   0  0  0  0  0  0  0  0  0  0  0  0  # atno 10167 bound_to 10162
  156.5928  130.8777  151.2894 H   0  0  0  0  0  0  0  0  0  0  0  0  # atno 10718 bound_to 10713
  153.0881  135.4874  154.8636 H   0  0  0  0  0  0  0  0  0  0  0  0  # atno 10763 bound_to 10752
  154.7235  135.3044  154.9010 H   0  0  0  0  0  0  0  0  0  0  0  0  # atno 10764 bound_to 10752
  153.9667  135.6806  153.4799 H   0  0  0  0  0  0  0  0  0  0  0  0  # atno 10765 bound_to 10752
  140.0461  134.5804  155.9321 H   0  0  0  0  0  0  0  0  0  0  0  0  # atno 11005 bound_to 11000
  145.9631  140.8820  143.0200 LP  0  0  0  0  0  0  0  0  0  0  0  0  # atno 17320 bound_to 7965
  144.6744  140.1841  143.7403 LP  0  0  0  0  0  0  0  0  0  0  0  0  # atno 17321 bound_to 7965
  140.6477  143.2217  151.6149 LP  0  0  0  0  0  0  0  0  0  0  0  0  # atno 17342 bound_to 10162
  139.5269  144.3033  152.1055 LP  0  0  0  0  0  0  0  0  0  0  0  0  # atno 17343 bound_to 10162
  157.7299  130.9678  150.1810 LP  0  0  0  0  0  0  0  0  0  0  0  0  # atno 17370 bound_to 10713
  156.2535  130.3703  149.8206 LP  0  0  0  0  0  0  0  0  0  0  0  0  # atno 17371 bound_to 10713
  141.1907  133.6569  156.5425 LP  0  0  0  0  0  0  0  0  0  0  0  0  # atno 17394 bound_to 11000
  140.3992  134.7372  157.4769 LP  0  0  0  0  0  0  0  0  0  0  0  0  # atno 17395 bound_to 11000

$$$$
