AV-unprocessed.smi:2062|AV-procd|sdf|8405|dock8
  -GOLD-   2272011 93D 1   1.00000     0.00000
 Structure written by MMmdl.
 42 43  0  0  0  0  0  0  0  0  3 V2000
  144.8551  132.6063  150.4407 C   0  0  0  0  0  0  0  0  0  0  0  0
  145.5271  133.5527  151.4497 C   0  0  0  0  0  0  0  0  0  0  0  0
  145.4758  135.0012  150.9415 C   0  0  0  0  0  0  0  0  0  0  0  0
  146.9828  133.1344  151.7505 C   0  0  0  0  0  0  0  0  0  0  0  0
  147.6136  133.9502  152.8195 N   0  3  2  0  0  0  0  0  0  0  0  0
  148.8345  133.3366  153.3979 C   0  0  0  0  0  0  0  0  0  0  0  0
  149.4466  134.2640  154.4602 C   0  0  0  0  0  0  0  0  0  0  0  0
  148.4755  134.5461  155.4585 O   0  0  0  0  0  0  0  0  0  0  0  0
  147.3404  135.2269  154.9323 C   0  0  2  0  0  0  0  0  0  0  0  0
  146.4041  135.5769  156.0967 C   0  0  0  0  0  0  0  0  0  0  0  0
  147.1739  136.0838  157.2268 N   0  0  0  0  0  0  0  0  0  0  0  0
  146.6842  136.4632  158.4142 C   0  0  0  0  0  0  0  0  0  0  0  0
  145.4698  136.4261  158.6247 O   0  0  0  0  0  0  0  0  0  0  0  0
  147.6382  136.8609  159.2857 N   0  5  0  0  0  0  0  0  0  0  0  0
  147.5055  136.5961  160.5956 C   0  0  0  0  0  0  0  0  0  0  0  0
  147.6343  137.5303  161.5445 N   0  0  0  0  0  0  0  0  0  0  0  0
  147.4639  137.0345  162.8385 C   0  0  0  0  0  0  0  0  0  0  0  0
  147.2076  135.6896  162.8759 C   0  0  0  0  0  0  0  0  0  0  0  0
  147.1736  135.0012  161.2776 S   0  0  0  0  0  0  0  0  0  0  0  0
  146.6603  134.3130  153.8949 C   0  0  0  0  0  0  0  0  0  0  0  0
  145.3962  132.5865  149.4940 H   0  0  0  0  0  0  0  0  0  0  0  0
  143.8320  132.9198  150.2307 H   0  0  0  0  0  0  0  0  0  0  0  0
  144.8086  131.5850  150.8195 H   0  0  0  0  0  0  0  0  0  0  0  0
  144.9485  133.5250  152.3725 H   0  0  0  0  0  0  0  0  0  0  0  0
  146.0263  135.1144  150.0070 H   0  0  0  0  0  0  0  0  0  0  0  0
  145.9084  135.6891  151.6685 H   0  0  0  0  0  0  0  0  0  0  0  0
  144.4484  135.3195  150.7617 H   0  0  0  0  0  0  0  0  0  0  0  0
  146.9807  132.0852  152.0500 H   0  0  0  0  0  0  0  0  0  0  0  0
  147.5942  133.1906  150.8484 H   0  0  0  0  0  0  0  0  0  0  0  0
  148.5841  132.3739  153.8467 H   0  0  0  0  0  0  0  0  0  0  0  0
  149.5741  133.1447  152.6216 H   0  0  0  0  0  0  0  0  0  0  0  0
  150.3053  133.7834  154.9294 H   0  0  0  0  0  0  0  0  0  0  0  0
  149.8062  135.1910  154.0106 H   0  0  0  0  0  0  0  0  0  0  0  0
  147.6615  136.1508  154.4467 H   0  0  0  0  0  0  0  0  0  0  0  0
  145.7013  136.3536  155.7941 H   0  0  0  0  0  0  0  0  0  0  0  0
  145.8114  134.7015  156.3674 H   0  0  0  0  0  0  0  0  0  0  0  0
  148.1747  136.1385  157.1077 H   0  0  0  0  0  0  0  0  0  0  0  0
  147.5438  137.7113  163.6758 H   0  0  0  0  0  0  0  0  0  0  0  0
  147.0394  135.0647  163.7398 H   0  0  0  0  0  0  0  0  0  0  0  0
  145.8001  134.8270  153.4640 H   0  0  0  0  0  0  0  0  0  0  0  0
  146.2864  133.4063  154.3738 H   0  0  0  0  0  0  0  0  0  0  0  0
  147.8941  134.8198  152.3890 H   0  0  0  0  0  0  0  0  0  0  0  0
  1  2  1  0  0  0  0
  1 21  1  0  0  0  0
  1 22  1  0  0  0  0
  1 23  1  0  0  0  0
  2  3  1  0  0  0  0
  2  4  1  0  0  0  0
  2 24  1  0  0  0  0
  3 25  1  0  0  0  0
  3 26  1  0  0  0  0
  3 27  1  0  0  0  0
  4  5  1  0  0  0  0
  4 28  1  0  0  0  0
  4 29  1  0  0  0  0
  5 20  1  0  0  0  0
  5  6  1  0  0  0  0
  5 42  1  0  0  0  0
  6  7  1  0  0  0  0
  6 30  1  0  0  0  0
  6 31  1  0  0  0  0
  7  8  1  0  0  0  0
  7 32  1  0  0  0  0
  7 33  1  0  0  0  0
  8  9  1  0  0  0  0
  9 10  1  0  0  0  0
  9 20  1  0  0  0  0
  9 34  1  0  0  0  0
 10 11  1  0  0  0  0
 10 35  1  0  0  0  0
 10 36  1  0  0  0  0
 11 12  1  0  0  0  0
 11 37  1  0  0  0  0
 12 13  2  0  0  0  0
 12 14  1  0  0  0  0
 14 15  1  0  0  0  0
 15 19  1  0  0  0  0
 15 16  2  0  0  0  0
 16 17  1  0  0  0  0
 17 18  2  0  0  0  0
 17 38  1  0  0  0  0
 18 19  1  0  0  0  0
 18 39  1  0  0  0  0
 20 40  1  0  0  0  0
 20 41  1  0  0  0  0
M  CHG  1   5   1
M  CHG  1  14  -1
M  END
> <s_m_source_file>
AV-unprocessed.smi

> <i_m_source_file_index>
2062

> <i_lp_mmshare_version>
43012

> <i_f3d_flags>
0

> <s_epik_input>
W0NIM11bQ0hdKFtDSDNdKVtDSDJdTjFbQ0gyXVtDSDJdT1tDQEhdKFtDSDJdMSlbQ0gyXVtOSF1DKD1PKVtOSF1jMm5bY0hdW2NIXXMy

> <s_epik_cmdline>
J2VwaWtfcHl0aG9uJywgJy1waCcsICc3LjAnLCAnLXRuJywgJzgnLCAnLW1hJywgJzIwMCcsICctbWV0YWxfYmluZGluZycsICctaW1hZScsICc8aW5maWxlLm1hZT4nLCAnLW9tYWUnLCAnPG91dGZpbGUubWFlPic=

> <r_lp_tautomer_probability>
0.999

> <r_epik_Ionization_Penalty>
6.35835

> <r_epik_Ionization_Penalty_Charging>
5.49938

> <r_epik_Ionization_Penalty_Neutral>
0.858963

> <r_epik_State_Penalty>
5.49328

> <r_epik_Charging_Adjusted_Penalty>
10.9927

> <i_epik_Tot_Q>
0

> <i_epik_Tot_abs_Q>
2

> <r_epik_Metal_State_Penalty>
1.51523

> <b_epik_Metal_Only>
1

> <s_lp_Force_Field>
OPLS_2005

> <r_lp_Energy>
7.82162

> <b_lp_Chiralities_Consistent>
1

> <s_lp_Variant>
AV-unprocessed.smi:2062-10

> <Gold.Version>
5.8.1

> <Gold.Id.Protein>
6NUR|6NUR_protein|mol2

> <Gold.PLP.Fitness>
43.6477

> <Gold.PLP.PLP>
-34.6415

> <Gold.PLP.part.hbond>
-3.0000

> <Gold.PLP.part.metal>
0.0000

> <Gold.PLP.part.buried>
-2.7171

> <Gold.PLP.part.nonpolar>
-27.3649

> <Gold.PLP.part.repulsive>
0.0527

> <Gold.PLP.ligand.clash>
0.0000

> <Gold.PLP.ligand.torsion>
1.0515

> <Gold.PLP.Chemscore.Hbond>
3.6750

> <Gold.PLP.Chemscore.CHOScore>
0.0000

> <Gold.PLP.Chemscore.Metal>
0.0000

> <Gold.Chemscore.Hbonds>
donor molecule, donor type, donor heavy atom, donor atom, acceptor molecule, acceptor atom, score
      L1  H     5    42       P1  7948  2.00
      P1  H  6931  6943       L1    16  0.52
      P1  H  6934  6947       L1    16  0.70

> <Gold.PLP.Chemscore.Internal.Correction>
0.0843

> <Gold.Rescore>
     Score         DG    S(hbond)    S(metal)    S(lipo)     H(rot)  DE(clash)    DE(int)     intcor
     14.50     -15.59       1.92        0.00      69.37       1.72       0.04       1.04       ----

> <Gold.Chemscore.Fitness>
14.5050

> <Gold.Chemscore.DG>
-15.5912

> <Gold.Chemscore.ZeroCoef>
-5.4800

> <Gold.Chemscore.Hbond>
1.9151

> <Gold.Chemscore.Metal>
0.0000

> <Gold.Chemscore.Lipo>
69.3713

> <Gold.Chemscore.Internal_Hbond>
0.0000

> <Gold.Chemscore.DEClash>
0.0446

> <Gold.Chemscore.DEInternal>
1.0417

> <Gold.Chemscore.Rot>
1.7194

> <Gold.Chemscore.Internal.Correction>
   9.000000E+99

> <Gold.Chemscore.Hbonds>
donor molecule, donor type, donor heavy atom, donor atom, acceptor molecule, acceptor atom, score
      L1  H     5    42       P1  7948  0.74
      P1  H  6931  6943       L1    16  0.04
      P1  H  6934  6947       L1    16  0.55

> <Gold.Chemscore.Hbond.Weighted>
-6.3965

> <Gold.Chemscore.Metal.Weighted>
-0.0000

> <Gold.Chemscore.Lipo.Weighted>
-8.1164

> <Gold.Chemscore.Internal_Hbond.Weighted>
0.0000

> <Gold.Chemscore.DEClash.Weighted>
0.0446

> <Gold.Chemscore.DEInternal.Weighted>
1.0417

> <Gold.Chemscore.Rot.Weighted>
4.4017

> <Gold.Chemscore.Internal.Correction.Weighted>
   9.000000E+99

> <Gold.Protein.RotatedTorsions>
[ 6907 6896 6895 6894 ] final -143.06 input  -60.11 | X-H torsion
[ 7974 7965 7964 7962 ] final  132.55 input  175.53 | X-H torsion
[ 8008 7997 7996 7995 ] final -178.98 input   59.86 | X-H torsion
[ 10167 10162 10161 10158 ] final  167.72 input  -65.29 | X-H torsion
[ 10718 10713 10712 10709 ] final  -40.16 input   66.30 | X-H torsion
[ 10763 10752 10751 10750 ] final  -12.98 input  -60.55 | X-H torsion
[ 11005 11000 10999 10996 ] final -163.43 input  -57.11 | X-H torsion

> <Gold.Protein.ActiveResidues>
 VAL166  LYS551  ARG553  GLY616  TRP617  ASP618  TYR619  PRO620  LYS621  CYS622 
 ASP623  PHE694  ASN695  SER759  ASP760  ASP761  ALA762  ILE779  LEU786  VAL792 
 PHE793  MET794  SER795  GLU796  ALA797  LYS798  CYS799  TRP800  GLU811  SER814 

> <Gold.Protein.RotatedAtoms>
  151.0953  133.5284  159.2612 H   0  0  0  0  0  0  0  0  0  0  0  0  # atno 6907 bound_to 6896
  151.2135  135.0490  159.8931 H   0  0  0  0  0  0  0  0  0  0  0  0  # atno 6908 bound_to 6896
  152.5438  134.0766  159.8270 H   0  0  0  0  0  0  0  0  0  0  0  0  # atno 6909 bound_to 6896
  144.9956  139.4362  143.5317 H   0  0  0  0  0  0  0  0  0  0  0  0  # atno 7974 bound_to 7965
  156.0252  140.1270  157.0316 H   0  0  0  0  0  0  0  0  0  0  0  0  # atno 8008 bound_to 7997
  154.4327  140.1060  156.6090 H   0  0  0  0  0  0  0  0  0  0  0  0  # atno 8009 bound_to 7997
  155.5887  140.3469  155.4562 H   0  0  0  0  0  0  0  0  0  0  0  0  # atno 8010 bound_to 7997
  139.4951  144.3891  151.9537 H   0  0  0  0  0  0  0  0  0  0  0  0  # atno 10167 bound_to 10162
  156.2844  130.4221  149.8303 H   0  0  0  0  0  0  0  0  0  0  0  0  # atno 10718 bound_to 10713
  153.5065  135.7017  153.5803 H   0  0  0  0  0  0  0  0  0  0  0  0  # atno 10763 bound_to 10752
  153.3912  135.3895  155.1924 H   0  0  0  0  0  0  0  0  0  0  0  0  # atno 10764 bound_to 10752
  154.8706  135.3859  154.4541 H   0  0  0  0  0  0  0  0  0  0  0  0  # atno 10765 bound_to 10752
  140.5981  134.4975  157.5202 H   0  0  0  0  0  0  0  0  0  0  0  0  # atno 11005 bound_to 11000
  146.3441  139.9314  142.8753 LP  0  0  0  0  0  0  0  0  0  0  0  0  # atno 17320 bound_to 7965
  145.2224  140.9940  143.4038 LP  0  0  0  0  0  0  0  0  0  0  0  0  # atno 17321 bound_to 7965
  140.3328  144.3295  150.5983 LP  0  0  0  0  0  0  0  0  0  0  0  0  # atno 17342 bound_to 10162
  140.5630  143.2189  151.7731 LP  0  0  0  0  0  0  0  0  0  0  0  0  # atno 17343 bound_to 10162
  156.5739  130.8436  151.3364 LP  0  0  0  0  0  0  0  0  0  0  0  0  # atno 17370 bound_to 10713
  157.7324  130.9715  150.1927 LP  0  0  0  0  0  0  0  0  0  0  0  0  # atno 17371 bound_to 10713
  139.9244  134.8084  156.1112 LP  0  0  0  0  0  0  0  0  0  0  0  0  # atno 17394 bound_to 11000
  141.0890  133.6722  156.2499 LP  0  0  0  0  0  0  0  0  0  0  0  0  # atno 17395 bound_to 11000

$$$$
