AV-unprocessed.smi:249|AV-procd|sdf|1909|dock8
  -GOLD-   2262020593D 1   1.00000     0.00000
 Structure written by MMmdl.
 64 67  0  0  0  0  0  0  0  0  2 V2000
  143.7102  132.8174  148.1552 C   0  0  0  0  0  0  0  0  0  0  0  0
  143.9015  132.5118  149.6482 C   0  0  0  0  0  0  0  0  0  0  0  0
  143.5600  133.6583  150.5326 N   0  3  1  0  0  0  0  0  0  0  0  0
  143.2872  133.2261  151.9298 C   0  0  0  0  0  0  0  0  0  0  0  0
  142.6990  134.3720  152.7674 C   0  0  0  0  0  0  0  0  0  0  0  0
  143.6225  135.6055  152.7367 C   0  0  2  0  0  0  0  0  0  0  0  0
  143.1605  136.7137  153.5855 N   0  0  0  0  0  0  0  0  0  0  0  0
  141.8262  137.2499  153.3368 C   0  0  0  0  0  0  0  0  0  0  0  0
  144.0139  137.6049  154.1579 C   0  0  0  0  0  0  0  0  0  0  0  0
  143.7385  138.1326  155.3792 N   0  0  0  0  0  0  0  0  0  0  0  0
  144.5819  138.9958  155.9524 C   0  0  0  0  0  0  0  0  0  0  0  0
  145.7450  139.4559  155.4900 N   0  0  0  0  0  0  0  0  0  0  0  0
  146.0347  138.9253  154.2683 C   0  0  0  0  0  0  0  0  0  0  0  0
  145.2318  138.0043  153.5372 C   0  0  0  0  0  0  0  0  0  0  0  0
  145.8446  137.7038  152.3263 N   0  0  0  0  0  0  0  0  0  0  0  0
  146.9481  138.4000  152.3438 C   0  0  0  0  0  0  0  0  0  0  0  0
  147.1529  139.1453  153.4830 N   0  0  0  0  0  0  0  0  0  0  0  0
  148.2857  140.0104  153.7620 C   0  0  0  0  0  0  0  0  0  0  0  0
  148.2121  140.7704  155.1165 C   0  0  2  0  0  0  0  0  0  0  0  0
  147.1145  141.8584  155.0270 C   0  0  0  0  0  0  0  0  0  0  0  0
  147.4776  142.8836  154.1250 O   0  0  0  0  0  0  0  0  0  0  0  0
  149.5796  141.3754  155.5558 C   0  0  1  0  0  0  0  0  0  0  0  0
  149.6522  141.8144  157.0115 C   0  0  0  0  0  0  0  0  0  0  0  0
  151.1517  141.8953  157.2539 C   0  0  0  0  0  0  0  0  0  0  0  0
  151.6819  140.7914  156.5391 O   0  0  0  0  0  0  0  0  0  0  0  0
  150.7852  140.4203  155.4961 C   0  0  0  0  0  0  0  0  0  0  0  0
  143.9249  136.0112  151.2771 C   0  0  0  0  0  0  0  0  0  0  0  0
  144.4849  134.8327  150.4537 C   0  0  1  0  0  0  0  0  0  0  0  0
  145.9465  134.4995  150.8235 C   0  0  0  0  0  0  0  0  0  0  0  0
  143.8337  131.9112  147.5620 H   0  0  0  0  0  0  0  0  0  0  0  0
  144.4394  133.5398  147.7892 H   0  0  0  0  0  0  0  0  0  0  0  0
  142.7122  133.2084  147.9555 H   0  0  0  0  0  0  0  0  0  0  0  0
  143.2443  131.6784  149.8990 H   0  0  0  0  0  0  0  0  0  0  0  0
  144.9154  132.1616  149.8425 H   0  0  0  0  0  0  0  0  0  0  0  0
  142.5763  132.3990  151.9249 H   0  0  0  0  0  0  0  0  0  0  0  0
  144.1989  132.8452  152.3907 H   0  0  0  0  0  0  0  0  0  0  0  0
  141.7095  134.6148  152.3821 H   0  0  0  0  0  0  0  0  0  0  0  0
  142.5534  134.0325  153.7933 H   0  0  0  0  0  0  0  0  0  0  0  0
  144.5728  135.2992  153.1751 H   0  0  0  0  0  0  0  0  0  0  0  0
  141.2054  137.1528  154.2275 H   0  0  0  0  0  0  0  0  0  0  0  0
  141.3275  136.7138  152.5289 H   0  0  0  0  0  0  0  0  0  0  0  0
  141.8682  138.3042  153.0589 H   0  0  0  0  0  0  0  0  0  0  0  0
  144.2839  139.3693  156.9209 H   0  0  0  0  0  0  0  0  0  0  0  0
  147.6533  138.3783  151.5256 H   0  0  0  0  0  0  0  0  0  0  0  0
  149.1967  139.4120  153.7230 H   0  0  0  0  0  0  0  0  0  0  0  0
  148.3510  140.7139  152.9317 H   0  0  0  0  0  0  0  0  0  0  0  0
  147.8996  140.0700  155.8923 H   0  0  0  0  0  0  0  0  0  0  0  0
  146.1732  141.4497  154.6622 H   0  0  0  0  0  0  0  0  0  0  0  0
  146.9172  142.2926  156.0078 H   0  0  0  0  0  0  0  0  0  0  0  0
  147.8764  143.5876  154.6135 H   0  0  0  0  0  0  0  0  0  0  0  0
  149.7980  142.2472  154.9367 H   0  0  0  0  0  0  0  0  0  0  0  0
  149.1573  142.7672  157.2011 H   0  0  0  0  0  0  0  0  0  0  0  0
  149.2093  141.0591  157.6626 H   0  0  0  0  0  0  0  0  0  0  0  0
  151.5577  142.8175  156.8364 H   0  0  0  0  0  0  0  0  0  0  0  0
  151.4124  141.8527  158.3116 H   0  0  0  0  0  0  0  0  0  0  0  0
  150.4833  139.3867  155.6683 H   0  0  0  0  0  0  0  0  0  0  0  0
  151.2976  140.4681  154.5361 H   0  0  0  0  0  0  0  0  0  0  0  0
  143.0239  136.3661  150.7787 H   0  0  0  0  0  0  0  0  0  0  0  0
  144.6260  136.8465  151.2591 H   0  0  0  0  0  0  0  0  0  0  0  0
  144.4945  135.1771  149.4202 H   0  0  0  0  0  0  0  0  0  0  0  0
  146.5690  135.3927  150.7656 H   0  0  0  0  0  0  0  0  0  0  0  0
  146.3814  133.7716  150.1390 H   0  0  0  0  0  0  0  0  0  0  0  0
  146.0426  134.1048  151.8342 H   0  0  0  0  0  0  0  0  0  0  0  0
  142.6728  133.9979  150.1891 H   0  0  0  0  0  0  0  0  0  0  0  0
  1  2  1  0  0  0  0
  1 30  1  0  0  0  0
  1 31  1  0  0  0  0
  1 32  1  0  0  0  0
  2  3  1  0  0  0  0
  2 33  1  0  0  0  0
  2 34  1  0  0  0  0
  3 28  1  0  0  0  0
  3  4  1  0  0  0  0
  3 64  1  0  0  0  0
  4  5  1  0  0  0  0
  4 35  1  0  0  0  0
  4 36  1  0  0  0  0
  5  6  1  0  0  0  0
  5 37  1  0  0  0  0
  5 38  1  0  0  0  0
  6  7  1  0  0  0  0
  6 27  1  0  0  0  0
  6 39  1  0  0  0  0
  7  8  1  0  0  0  0
  7  9  1  0  0  0  0
  8 40  1  0  0  0  0
  8 41  1  0  0  0  0
  8 42  1  0  0  0  0
  9 14  1  0  0  0  0
  9 10  2  0  0  0  0
 10 11  1  0  0  0  0
 11 12  2  0  0  0  0
 11 43  1  0  0  0  0
 12 13  1  0  0  0  0
 13 17  1  0  0  0  0
 13 14  2  0  0  0  0
 14 15  1  0  0  0  0
 15 16  2  0  0  0  0
 16 17  1  0  0  0  0
 16 44  1  0  0  0  0
 17 18  1  0  0  0  0
 18 19  1  0  0  0  0
 18 45  1  0  0  0  0
 18 46  1  0  0  0  0
 19 20  1  0  0  0  0
 19 22  1  0  0  0  0
 19 47  1  0  0  0  0
 20 21  1  0  0  0  0
 20 48  1  0  0  0  0
 20 49  1  0  0  0  0
 21 50  1  0  0  0  0
 22 26  1  0  0  0  0
 22 23  1  0  0  0  0
 22 51  1  0  0  0  0
 23 24  1  0  0  0  0
 23 52  1  0  0  0  0
 23 53  1  0  0  0  0
 24 25  1  0  0  0  0
 24 54  1  0  0  0  0
 24 55  1  0  0  0  0
 25 26  1  0  0  0  0
 26 56  1  0  0  0  0
 26 57  1  0  0  0  0
 27 28  1  0  0  0  0
 27 58  1  0  0  0  0
 27 59  1  0  0  0  0
 28 29  1  0  0  0  0
 28 60  1  0  0  0  0
 29 61  1  0  0  0  0
 29 62  1  0  0  0  0
 29 63  1  0  0  0  0
M  CHG  1   3   1
M  END
> <s_m_source_file>
AV-unprocessed.smi

> <i_m_source_file_index>
249

> <i_lp_mmshare_version>
43012

> <i_f3d_flags>
0

> <s_epik_input>
W0NIM11bQ0gyXU4xW0NIMl1bQ0gyXVtDQEhdKFtDSDJdW0NASF0xW0NIM10pTihbQ0gzXSljKG5bY0hdbjIpYyhjMjMpbltjSF1uM1tDSDJdW0NASF0oW0NIMl1bT0hdKVtDQEBIXTRbQ0gyXVtDSDJdT1tDSDJdNA==

> <s_epik_cmdline>
J2VwaWtfcHl0aG9uJywgJy1waCcsICc3LjAnLCAnLXRuJywgJzgnLCAnLW1hJywgJzIwMCcsICctbWV0YWxfYmluZGluZycsICctaW1hZScsICc8aW5maWxlLm1hZT4nLCAnLW9tYWUnLCAnPG91dGZpbGUubWFlPic=

> <r_lp_tautomer_probability>
1

> <r_epik_Ionization_Penalty>
0.00294688

> <r_epik_Ionization_Penalty_Charging>
0.00169971

> <r_epik_Ionization_Penalty_Neutral>
0.00124717

> <r_epik_State_Penalty>
-0

> <r_epik_Charging_Adjusted_Penalty>
0.00169971

> <i_epik_Tot_Q>
1

> <i_epik_Tot_abs_Q>
1

> <r_epik_Metal_State_Penalty>
-0

> <b_epik_Metal_Only>
0

> <s_lp_Force_Field>
OPLS_2005

> <r_lp_Energy>
54.5732

> <b_lp_Chiralities_Consistent>
1

> <s_lp_Variant>
AV-unprocessed.smi:249-12

> <Gold.Version>
5.8.1

> <Gold.Id.Protein>
6NUR|6NUR_protein|mol2

> <Gold.PLP.Fitness>
53.9107

> <Gold.PLP.PLP>
-42.3489

> <Gold.PLP.part.hbond>
-3.4707

> <Gold.PLP.part.metal>
0.0000

> <Gold.PLP.part.buried>
4.1933

> <Gold.PLP.part.nonpolar>
-43.2371

> <Gold.PLP.part.repulsive>
0.4240

> <Gold.PLP.ligand.clash>
0.0000

> <Gold.PLP.ligand.torsion>
1.5400

> <Gold.PLP.Chemscore.Hbond>
3.0000

> <Gold.PLP.Chemscore.CHOScore>
1.5184

> <Gold.PLP.Chemscore.Metal>
0.0000

> <Gold.Chemscore.Hbonds>
donor molecule, donor type, donor heavy atom, donor atom, acceptor molecule, acceptor atom, score
      L1  H     3    64       P1 10186  2.00
      L1  H    21    50       P1  8028  1.00
      L1  C    16    44       P1  7948  0.52
      L1  C    16    44       P1  7957  0.91

> <Gold.PLP.Chemscore.Internal.Correction>
1.0865

> <Gold.Rescore>
     Score         DG    S(hbond)    S(metal)    S(lipo)     H(rot)  DE(clash)    DE(int)     intcor
     10.60     -17.41       1.93        0.00     104.83       2.65       1.33       5.48       ----

> <Gold.Chemscore.Fitness>
10.6020

> <Gold.Chemscore.DG>
-17.4093

> <Gold.Chemscore.ZeroCoef>
-5.4800

> <Gold.Chemscore.Hbond>
1.9317

> <Gold.Chemscore.Metal>
0.0000

> <Gold.Chemscore.Lipo>
104.8313

> <Gold.Chemscore.Internal_Hbond>
0.0000

> <Gold.Chemscore.DEClash>
1.3291

> <Gold.Chemscore.DEInternal>
5.4782

> <Gold.Chemscore.Rot>
2.6515

> <Gold.Chemscore.Internal.Correction>
   9.000000E+99

> <Gold.Chemscore.Hbonds>
donor molecule, donor type, donor heavy atom, donor atom, acceptor molecule, acceptor atom, score
      L1  H     3    64       P1 10186  0.98
      L1  H    21    50       P1  8028  0.55

> <Gold.Chemscore.Hbond.Weighted>
-6.4520

> <Gold.Chemscore.Metal.Weighted>
-0.0000

> <Gold.Chemscore.Lipo.Weighted>
-12.2653

> <Gold.Chemscore.Internal_Hbond.Weighted>
0.0000

> <Gold.Chemscore.DEClash.Weighted>
1.3291

> <Gold.Chemscore.DEInternal.Weighted>
5.4782

> <Gold.Chemscore.Rot.Weighted>
6.7880

> <Gold.Chemscore.Internal.Correction.Weighted>
   9.000000E+99

> <Gold.Protein.RotatedTorsions>
[ 6907 6896 6895 6894 ] final  125.26 input  -60.11 | X-H torsion
[ 7974 7965 7964 7962 ] final   11.92 input  175.53 | X-H torsion
[ 8008 7997 7996 7995 ] final    8.52 input   59.86 | X-H torsion
[ 10167 10162 10161 10158 ] final  -87.42 input  -65.29 | X-H torsion
[ 10718 10713 10712 10709 ] final   34.20 input   66.30 | X-H torsion
[ 10763 10752 10751 10750 ] final  153.81 input  -60.55 | X-H torsion
[ 11005 11000 10999 10996 ] final -126.51 input  -57.11 | X-H torsion

> <Gold.Protein.ActiveResidues>
 VAL166  LYS551  ARG553  GLY616  TRP617  ASP618  TYR619  PRO620  LYS621  CYS622 
 ASP623  PHE694  ASN695  SER759  ASP760  ASP761  ALA762  ILE779  LEU786  VAL792 
 PHE793  MET794  SER795  GLU796  ALA797  LYS798  CYS799  TRP800  GLU811  SER814 

> <Gold.Protein.RotatedAtoms>
  152.4007  133.6814  159.6314 H   0  0  0  0  0  0  0  0  0  0  0  0  # atno 6907 bound_to 6896
  150.7899  133.8795  159.3290 H   0  0  0  0  0  0  0  0  0  0  0  0  # atno 6908 bound_to 6896
  151.6561  135.0997  160.0222 H   0  0  0  0  0  0  0  0  0  0  0  0  # atno 6909 bound_to 6896
  146.2362  139.9414  142.8482 H   0  0  0  0  0  0  0  0  0  0  0  0  # atno 7974 bound_to 7965
  154.7680  140.2796  155.6161 H   0  0  0  0  0  0  0  0  0  0  0  0  # atno 8008 bound_to 7997
  156.2928  140.2647  156.2403 H   0  0  0  0  0  0  0  0  0  0  0  0  # atno 8009 bound_to 7997
  154.9935  140.0373  157.2319 H   0  0  0  0  0  0  0  0  0  0  0  0  # atno 8010 bound_to 7997
  140.3846  143.2733  151.9341 H   0  0  0  0  0  0  0  0  0  0  0  0  # atno 10167 bound_to 10162
  157.3074  130.7382  149.6704 H   0  0  0  0  0  0  0  0  0  0  0  0  # atno 10718 bound_to 10713
  154.1421  135.2820  155.3158 H   0  0  0  0  0  0  0  0  0  0  0  0  # atno 10763 bound_to 10752
  154.6279  135.5445  153.7651 H   0  0  0  0  0  0  0  0  0  0  0  0  # atno 10764 bound_to 10752
  153.0247  135.6455  154.1568 H   0  0  0  0  0  0  0  0  0  0  0  0  # atno 10765 bound_to 10752
  140.9676  134.0851  157.3904 H   0  0  0  0  0  0  0  0  0  0  0  0  # atno 11005 bound_to 11000
  145.1949  140.9828  143.4189 LP  0  0  0  0  0  0  0  0  0  0  0  0  # atno 17320 bound_to 7965
  144.9824  139.3770  143.6255 LP  0  0  0  0  0  0  0  0  0  0  0  0  # atno 17321 bound_to 7965
  139.4793  144.5786  151.7970 LP  0  0  0  0  0  0  0  0  0  0  0  0  # atno 17342 bound_to 10162
  140.4903  144.1321  150.5949 LP  0  0  0  0  0  0  0  0  0  0  0  0  # atno 17343 bound_to 10162
  155.9675  130.4261  150.4686 LP  0  0  0  0  0  0  0  0  0  0  0  0  # atno 17370 bound_to 10713
  157.2678  131.0580  151.2279 LP  0  0  0  0  0  0  0  0  0  0  0  0  # atno 17371 bound_to 10713
  139.8900  135.0109  156.6711 LP  0  0  0  0  0  0  0  0  0  0  0  0  # atno 17394 bound_to 11000
  140.7377  133.9005  155.8255 LP  0  0  0  0  0  0  0  0  0  0  0  0  # atno 17395 bound_to 11000

$$$$
