AV-unprocessed.smi:1337|AV-procd|sdf|5498|dock1
  -GOLD-   22720 5 83D 1   1.00000     0.00000
 Structure written by MMmdl.
 38 39  0  0  0  0  0  0  0  0  1 V2000
  152.0705  137.0887  159.5706 O   0  0  0  0  0  0  0  0  0  0  0  0
  152.4471  137.6505  158.5410 C   0  0  0  0  0  0  0  0  0  0  0  0
  152.3627  136.9397  157.1827 C   0  0  0  0  0  0  0  0  0  0  0  0
  151.5175  137.6499  156.2089 N   0  0  0  0  0  0  0  0  0  0  0  0
  150.2997  137.0503  155.8464 C   0  0  0  0  0  0  0  0  0  0  0  0
  149.4747  137.6424  154.9709 C   0  0  0  0  0  0  0  0  0  0  0  0
  149.9175  138.9326  154.4266 C   0  0  0  0  0  0  0  0  0  0  0  0
  151.0255  139.4833  154.7572 N   0  0  0  0  0  0  0  0  0  0  0  0
  151.8883  138.8611  155.6794 C   0  0  0  0  0  0  0  0  0  0  0  0
  152.9520  139.3879  156.0065 O   0  0  0  0  0  0  0  0  0  0  0  0
  152.9672  138.8871  158.5278 N   0  0  0  0  0  0  0  0  0  0  0  0
  153.1381  139.7343  159.7021 C   0  0  0  0  0  0  0  0  0  0  0  0
  153.9173  141.0170  159.3636 C   0  0  0  0  0  0  0  0  0  0  0  0
  153.1969  142.2782  159.8111 C   0  0  0  0  0  0  0  0  0  0  0  0
  153.0814  142.6083  161.1122 C   0  0  0  0  0  0  0  0  0  0  0  0
  152.3595  143.8446  161.6189 C   0  0  0  0  0  0  0  0  0  0  0  0
  151.4796  144.4927  160.5371 C   0  0  0  0  0  0  0  0  0  0  0  0
  152.2126  144.5528  159.1911 C   0  0  0  0  0  0  0  0  0  0  0  0
  152.6094  143.1473  158.7044 C   0  0  0  0  0  0  0  0  0  0  0  0
  153.3670  136.8043  156.7767 H   0  0  0  0  0  0  0  0  0  0  0  0
  151.9836  135.9310  157.3518 H   0  0  0  0  0  0  0  0  0  0  0  0
  150.0849  136.1043  156.3216 H   0  0  0  0  0  0  0  0  0  0  0  0
  148.5250  137.2387  154.6524 H   0  0  0  0  0  0  0  0  0  0  0  0
  149.2332  139.3986  153.7132 H   0  0  0  0  0  0  0  0  0  0  0  0
  153.2586  139.2707  157.6404 H   0  0  0  0  0  0  0  0  0  0  0  0
  152.1467  139.9833  160.0807 H   0  0  0  0  0  0  0  0  0  0  0  0
  153.6423  139.1789  160.4948 H   0  0  0  0  0  0  0  0  0  0  0  0
  154.9009  140.9841  159.8345 H   0  0  0  0  0  0  0  0  0  0  0  0
  154.0945  141.0763  158.2892 H   0  0  0  0  0  0  0  0  0  0  0  0
  153.5264  141.9779  161.8683 H   0  0  0  0  0  0  0  0  0  0  0  0
  151.7492  143.5769  162.4819 H   0  0  0  0  0  0  0  0  0  0  0  0
  153.1105  144.5534  161.9688 H   0  0  0  0  0  0  0  0  0  0  0  0
  150.5620  143.9146  160.4190 H   0  0  0  0  0  0  0  0  0  0  0  0
  151.1771  145.4919  160.8514 H   0  0  0  0  0  0  0  0  0  0  0  0
  151.5903  145.0436  158.4423 H   0  0  0  0  0  0  0  0  0  0  0  0
  153.1077  145.1668  159.2987 H   0  0  0  0  0  0  0  0  0  0  0  0
  153.3264  143.2341  157.8874 H   0  0  0  0  0  0  0  0  0  0  0  0
  151.7327  142.6390  158.3023 H   0  0  0  0  0  0  0  0  0  0  0  0
  1  2  2  0  0  0  0
  2  3  1  0  0  0  0
  2 11  1  0  0  0  0
  3  4  1  0  0  0  0
  3 20  1  0  0  0  0
  3 21  1  0  0  0  0
  4  9  1  0  0  0  0
  4  5  1  0  0  0  0
  5  6  2  0  0  0  0
  5 22  1  0  0  0  0
  6  7  1  0  0  0  0
  6 23  1  0  0  0  0
  7  8  2  0  0  0  0
  7 24  1  0  0  0  0
  8  9  1  0  0  0  0
  9 10  2  0  0  0  0
 11 12  1  0  0  0  0
 11 25  1  0  0  0  0
 12 13  1  0  0  0  0
 12 26  1  0  0  0  0
 12 27  1  0  0  0  0
 13 14  1  0  0  0  0
 13 28  1  0  0  0  0
 13 29  1  0  0  0  0
 14 19  1  0  0  0  0
 14 15  2  0  0  0  0
 15 16  1  0  0  0  0
 15 30  1  0  0  0  0
 16 17  1  0  0  0  0
 16 31  1  0  0  0  0
 16 32  1  0  0  0  0
 17 18  1  0  0  0  0
 17 33  1  0  0  0  0
 17 34  1  0  0  0  0
 18 19  1  0  0  0  0
 18 35  1  0  0  0  0
 18 36  1  0  0  0  0
 19 37  1  0  0  0  0
 19 38  1  0  0  0  0
M  END
> <s_m_source_file>
AV-unprocessed.smi

> <i_m_source_file_index>
1337

> <i_lp_mmshare_version>
43012

> <i_f3d_flags>
0

> <s_epik_input>
Tz1jMW5bY0hdW2NIXVtjSF1uMVtDSDJdQyg9TylbTkhdW0NIMl1bQ0gyXUMyPVtDSF1bQ0gyXVtDSDJdW0NIMl1bQ0gyXTI=

> <s_epik_cmdline>
J2VwaWtfcHl0aG9uJywgJy1waCcsICc3LjAnLCAnLXRuJywgJzgnLCAnLW1hJywgJzIwMCcsICctbWV0YWxfYmluZGluZycsICctaW1hZScsICc8aW5maWxlLm1hZT4nLCAnLW9tYWUnLCAnPG91dGZpbGUubWFlPic=

> <r_lp_tautomer_probability>
1

> <r_epik_Ionization_Penalty>
7.10509e-06

> <r_epik_Ionization_Penalty_Charging>
1.70435e-08

> <r_epik_Ionization_Penalty_Neutral>
7.08805e-06

> <r_epik_State_Penalty>
-0

> <r_epik_Charging_Adjusted_Penalty>
1.70435e-08

> <i_epik_Tot_Q>
0

> <i_epik_Tot_abs_Q>
0

> <r_epik_Metal_State_Penalty>
-0

> <b_epik_Metal_Only>
0

> <s_lp_Force_Field>
OPLS_2005

> <r_lp_Energy>
9.56824

> <b_lp_Chiralities_Consistent>
1

> <s_lp_Variant>
AV-unprocessed.smi:1337-1

> <Gold.Version>
5.8.1

> <Gold.Id.Protein>
6NUR|6NUR_protein|mol2

> <Gold.PLP.Fitness>
53.5606

> <Gold.PLP.PLP>
-42.5968

> <Gold.PLP.part.hbond>
-2.8379

> <Gold.PLP.part.metal>
0.0000

> <Gold.PLP.part.buried>
-6.4871

> <Gold.PLP.part.nonpolar>
-34.3108

> <Gold.PLP.part.repulsive>
0.1609

> <Gold.PLP.ligand.clash>
0.0000

> <Gold.PLP.ligand.torsion>
0.5653

> <Gold.PLP.Chemscore.Hbond>
3.0000

> <Gold.PLP.Chemscore.CHOScore>
1.0000

> <Gold.PLP.Chemscore.Metal>
0.0000

> <Gold.Chemscore.Hbonds>
donor molecule, donor type, donor heavy atom, donor atom, acceptor molecule, acceptor atom, score
      P1  H  6896  6908       L1     1  0.99
      P1  H  7989  7998       L1     8  1.00
      P1  H  7997  8010       L1    10  1.00
      L1  C     7    24       P1  7957  0.68

> <Gold.PLP.Chemscore.Internal.Correction>
0.0945

> <Gold.Rescore>
     Score         DG    S(hbond)    S(metal)    S(lipo)     H(rot)  DE(clash)    DE(int)     intcor
     22.18     -22.74       2.91        0.00     105.84       1.89       0.01       0.54       ----

> <Gold.Chemscore.Fitness>
22.1832

> <Gold.Chemscore.DG>
-22.7411

> <Gold.Chemscore.ZeroCoef>
-5.4800

> <Gold.Chemscore.Hbond>
2.9102

> <Gold.Chemscore.Metal>
0.0000

> <Gold.Chemscore.Lipo>
105.8433

> <Gold.Chemscore.Internal_Hbond>
0.0000

> <Gold.Chemscore.DEClash>
0.0149

> <Gold.Chemscore.DEInternal>
0.5431

> <Gold.Chemscore.Rot>
1.8916

> <Gold.Chemscore.Internal.Correction>
   9.000000E+99

> <Gold.Chemscore.Hbonds>
donor molecule, donor type, donor heavy atom, donor atom, acceptor molecule, acceptor atom, score
      P1  H  6896  6908       L1     1  0.92
      P1  H  7989  7998       L1     8  0.86
      P1  H  7997  8010       L1    10  0.98

> <Gold.Chemscore.Hbond.Weighted>
-9.7199

> <Gold.Chemscore.Metal.Weighted>
-0.0000

> <Gold.Chemscore.Lipo.Weighted>
-12.3837

> <Gold.Chemscore.Internal_Hbond.Weighted>
0.0000

> <Gold.Chemscore.DEClash.Weighted>
0.0149

> <Gold.Chemscore.DEInternal.Weighted>
0.5431

> <Gold.Chemscore.Rot.Weighted>
4.8425

> <Gold.Chemscore.Internal.Correction.Weighted>
   9.000000E+99

> <Gold.Protein.RotatedTorsions>
[ 6907 6896 6895 6894 ] final -123.78 input  -60.11 | X-H torsion
[ 7974 7965 7964 7962 ] final   54.84 input  175.53 | X-H torsion
[ 8008 7997 7996 7995 ] final   98.52 input   59.86 | X-H torsion
[ 10167 10162 10161 10158 ] final -137.43 input  -65.29 | X-H torsion
[ 10718 10713 10712 10709 ] final -109.96 input   66.30 | X-H torsion
[ 10763 10752 10751 10750 ] final  170.74 input  -60.55 | X-H torsion
[ 11005 11000 10999 10996 ] final  -12.57 input  -57.11 | X-H torsion

> <Gold.Protein.ActiveResidues>
 VAL166  LYS551  ARG553  GLY616  TRP617  ASP618  TYR619  PRO620  LYS621  CYS622 
 ASP623  PHE694  ASN695  SER759  ASP760  ASP761  ALA762  ILE779  LEU786  VAL792 
 PHE793  MET794  SER795  GLU796  ALA797  LYS798  CYS799  TRP800  GLU811  SER814 

> <Gold.Protein.RotatedAtoms>
  150.8704  133.7514  159.2962 H   0  0  0  0  0  0  0  0  0  0  0  0  # atno 6907 bound_to 6896
  151.5127  135.1064  159.9868 H   0  0  0  0  0  0  0  0  0  0  0  0  # atno 6908 bound_to 6896
  152.4691  133.7944  159.6975 H   0  0  0  0  0  0  0  0  0  0  0  0  # atno 6909 bound_to 6896
  145.9566  139.4021  143.0273 H   0  0  0  0  0  0  0  0  0  0  0  0  # atno 7974 bound_to 7965
  156.1012  140.3242  155.7945 H   0  0  0  0  0  0  0  0  0  0  0  0  # atno 8008 bound_to 7997
  155.4833  140.0555  157.2981 H   0  0  0  0  0  0  0  0  0  0  0  0  # atno 8009 bound_to 7997
  154.4698  140.2006  156.0039 H   0  0  0  0  0  0  0  0  0  0  0  0  # atno 8010 bound_to 7997
  139.8578  143.7116  152.2653 H   0  0  0  0  0  0  0  0  0  0  0  0  # atno 10167 bound_to 10162
  156.0565  130.5791  150.8172 H   0  0  0  0  0  0  0  0  0  0  0  0  # atno 10718 bound_to 10713
  154.4019  135.2755  155.2091 H   0  0  0  0  0  0  0  0  0  0  0  0  # atno 10763 bound_to 10752
  154.4113  135.6021  153.5958 H   0  0  0  0  0  0  0  0  0  0  0  0  # atno 10764 bound_to 10752
  152.9831  135.5950  154.4288 H   0  0  0  0  0  0  0  0  0  0  0  0  # atno 10765 bound_to 10752
  140.7671  133.8468  155.9175 H   0  0  0  0  0  0  0  0  0  0  0  0  # atno 11005 bound_to 11000
  145.8097  140.9731  143.0955 LP  0  0  0  0  0  0  0  0  0  0  0  0  # atno 17320 bound_to 7965
  144.6806  139.9906  143.7484 LP  0  0  0  0  0  0  0  0  0  0  0  0  # atno 17321 bound_to 7965
  139.7403  144.7561  151.0663 LP  0  0  0  0  0  0  0  0  0  0  0  0  # atno 17342 bound_to 10162
  140.7779  143.4981  150.9807 LP  0  0  0  0  0  0  0  0  0  0  0  0  # atno 17343 bound_to 10162
  157.5539  131.0944  150.9656 LP  0  0  0  0  0  0  0  0  0  0  0  0  # atno 17370 bound_to 10713
  156.9910  130.5563  149.5303 LP  0  0  0  0  0  0  0  0  0  0  0  0  # atno 17371 bound_to 10713
  140.9609  134.1657  157.4655 LP  0  0  0  0  0  0  0  0  0  0  0  0  # atno 17394 bound_to 11000
  139.8761  134.9944  156.5692 LP  0  0  0  0  0  0  0  0  0  0  0  0  # atno 17395 bound_to 11000

$$$$
