AV-unprocessed.smi:1719|AV-procd|sdf|6930|dock6
  -GOLD-   22720 8143D 1   1.00000     0.00000
 Structure written by MMmdl.
 40 41  0  0  0  0  0  0  0  0  1 V2000
  152.1673  144.3115  158.3336 C   0  0  0  0  0  0  0  0  0  0  0  0
  151.2497  143.8213  157.3719 O   0  0  0  0  0  0  0  0  0  0  0  0
  150.5233  142.6968  157.8389 C   0  0  0  0  0  0  0  0  0  0  0  0
  151.2990  141.4196  157.5031 C   0  0  0  0  0  0  0  0  0  0  0  0
  151.1723  141.1546  156.1090 O   0  0  0  0  0  0  0  0  0  0  0  0
  150.8590  139.8719  155.7086 C   0  0  0  0  0  0  0  0  0  0  0  0
  150.9699  138.8266  156.6471 C   0  0  0  0  0  0  0  0  0  0  0  0
  150.6606  137.5132  156.2445 C   0  0  0  0  0  0  0  0  0  0  0  0
  150.2561  137.2853  154.9075 C   0  0  0  0  0  0  0  0  0  0  0  0
  149.9053  136.0121  154.3832 N   0  0  0  0  0  0  0  0  0  0  0  0
  150.1118  134.7966  154.9235 C   0  0  0  0  0  0  0  0  0  0  0  0
  150.6632  134.5993  156.0063 O   0  0  0  0  0  0  0  0  0  0  0  0
  149.6320  133.6037  154.0850 C   0  0  0  0  0  0  0  0  0  0  0  0
  148.1280  133.7027  153.7732 C   0  0  0  0  0  0  0  0  0  0  0  0
  147.6529  132.4536  153.0125 C   0  0  0  0  0  0  0  0  0  0  0  0
  147.9426  131.2824  153.7687 O   0  0  0  0  0  0  0  0  0  0  0  0
  149.3364  131.0943  153.9909 C   0  0  0  0  0  0  0  0  0  0  0  0
  149.9023  132.2699  154.8044 C   0  0  0  0  0  0  0  0  0  0  0  0
  150.1592  138.4020  154.0519 C   0  0  0  0  0  0  0  0  0  0  0  0
  150.4558  139.6629  154.4308 N   0  0  0  0  0  0  0  0  0  0  0  0
  152.6908  145.1788  157.9317 H   0  0  0  0  0  0  0  0  0  0  0  0
  152.9135  143.5573  158.5876 H   0  0  0  0  0  0  0  0  0  0  0  0
  151.6557  144.6201  159.2462 H   0  0  0  0  0  0  0  0  0  0  0  0
  150.4028  142.7721  158.9207 H   0  0  0  0  0  0  0  0  0  0  0  0
  149.5250  142.6648  157.3995 H   0  0  0  0  0  0  0  0  0  0  0  0
  152.3457  141.5257  157.7939 H   0  0  0  0  0  0  0  0  0  0  0  0
  150.8762  140.5881  158.0693 H   0  0  0  0  0  0  0  0  0  0  0  0
  151.2847  139.0291  157.6602 H   0  0  0  0  0  0  0  0  0  0  0  0
  150.7281  136.7155  156.9674 H   0  0  0  0  0  0  0  0  0  0  0  0
  149.5138  136.0203  153.4524 H   0  0  0  0  0  0  0  0  0  0  0  0
  150.1769  133.5984  153.1390 H   0  0  0  0  0  0  0  0  0  0  0  0
  147.5529  133.7984  154.6955 H   0  0  0  0  0  0  0  0  0  0  0  0
  147.9218  134.5961  153.1823 H   0  0  0  0  0  0  0  0  0  0  0  0
  146.5773  132.5055  152.8428 H   0  0  0  0  0  0  0  0  0  0  0  0
  148.1271  132.3918  152.0318 H   0  0  0  0  0  0  0  0  0  0  0  0
  149.4833  130.1594  154.5319 H   0  0  0  0  0  0  0  0  0  0  0  0
  149.8571  130.9949  153.0371 H   0  0  0  0  0  0  0  0  0  0  0  0
  150.9735  132.1316  154.9564 H   0  0  0  0  0  0  0  0  0  0  0  0
  149.4436  132.2712  155.7947 H   0  0  0  0  0  0  0  0  0  0  0  0
  149.8418  138.2808  153.0265 H   0  0  0  0  0  0  0  0  0  0  0  0
  1  2  1  0  0  0  0
  1 21  1  0  0  0  0
  1 22  1  0  0  0  0
  1 23  1  0  0  0  0
  2  3  1  0  0  0  0
  3  4  1  0  0  0  0
  3 24  1  0  0  0  0
  3 25  1  0  0  0  0
  4  5  1  0  0  0  0
  4 26  1  0  0  0  0
  4 27  1  0  0  0  0
  5  6  1  0  0  0  0
  6 20  1  0  0  0  0
  6  7  2  0  0  0  0
  7  8  1  0  0  0  0
  7 28  1  0  0  0  0
  8  9  2  0  0  0  0
  8 29  1  0  0  0  0
  9 10  1  0  0  0  0
  9 19  1  0  0  0  0
 10 11  1  0  0  0  0
 10 30  1  0  0  0  0
 11 12  2  0  0  0  0
 11 13  1  0  0  0  0
 13 18  1  0  0  0  0
 13 14  1  0  0  0  0
 13 31  1  0  0  0  0
 14 15  1  0  0  0  0
 14 32  1  0  0  0  0
 14 33  1  0  0  0  0
 15 16  1  0  0  0  0
 15 34  1  0  0  0  0
 15 35  1  0  0  0  0
 16 17  1  0  0  0  0
 17 18  1  0  0  0  0
 17 36  1  0  0  0  0
 17 37  1  0  0  0  0
 18 38  1  0  0  0  0
 18 39  1  0  0  0  0
 19 20  2  0  0  0  0
 19 40  1  0  0  0  0
M  END
> <s_m_source_file>
AV-unprocessed.smi

> <i_m_source_file_index>
1719

> <i_lp_mmshare_version>
43012

> <i_f3d_flags>
0

> <s_epik_input>
W0NIM11PW0NIMl1bQ0gyXU9jMVtjSF1bY0hdYyhbY0hdbjEpW05IXUMoPU8pW0NIXTJbQ0gyXVtDSDJdT1tDSDJdW0NIMl0y

> <s_epik_cmdline>
J2VwaWtfcHl0aG9uJywgJy1waCcsICc3LjAnLCAnLXRuJywgJzgnLCAnLW1hJywgJzIwMCcsICctbWV0YWxfYmluZGluZycsICctaW1hZScsICc8aW5maWxlLm1hZT4nLCAnLW9tYWUnLCAnPG91dGZpbGUubWFlPic=

> <r_lp_tautomer_probability>
1

> <r_epik_Ionization_Penalty>
2.13501e-05

> <r_epik_Ionization_Penalty_Charging>
0

> <r_epik_Ionization_Penalty_Neutral>
2.13501e-05

> <r_epik_State_Penalty>
-0

> <r_epik_Charging_Adjusted_Penalty>
0

> <i_epik_Tot_Q>
0

> <i_epik_Tot_abs_Q>
0

> <r_epik_Metal_State_Penalty>
-0

> <b_epik_Metal_Only>
0

> <s_lp_Force_Field>
OPLS_2005

> <r_lp_Energy>
15.3527

> <b_lp_Chiralities_Consistent>
1

> <s_lp_Variant>
AV-unprocessed.smi:1719-1

> <Gold.Version>
5.8.1

> <Gold.Id.Protein>
6NUR|6NUR_protein|mol2

> <Gold.PLP.Fitness>
44.4805

> <Gold.PLP.PLP>
-34.1019

> <Gold.PLP.part.hbond>
-2.9496

> <Gold.PLP.part.metal>
0.0000

> <Gold.PLP.part.buried>
-4.5621

> <Gold.PLP.part.nonpolar>
-27.4402

> <Gold.PLP.part.repulsive>
0.5751

> <Gold.PLP.ligand.clash>
0.0000

> <Gold.PLP.ligand.torsion>
0.7718

> <Gold.PLP.Chemscore.Hbond>
2.0000

> <Gold.PLP.Chemscore.CHOScore>
1.9637

> <Gold.PLP.Chemscore.Metal>
0.0000

> <Gold.Chemscore.Hbonds>
donor molecule, donor type, donor heavy atom, donor atom, acceptor molecule, acceptor atom, score
      L1  H    10    30       P1  7948  1.00
      P1  H  7989  7998       L1    20  1.00
      L1  C    19    40       P1  7948  1.00
      L1  C    19    40       P1  7957  0.94

> <Gold.PLP.Chemscore.Internal.Correction>
0.0310

> <Gold.Rescore>
     Score         DG    S(hbond)    S(metal)    S(lipo)     H(rot)  DE(clash)    DE(int)     intcor
     13.50     -15.43       1.79        0.00      73.11       1.79       0.01       1.92       ----

> <Gold.Chemscore.Fitness>
13.5019

> <Gold.Chemscore.DG>
-15.4343

> <Gold.Chemscore.ZeroCoef>
-5.4800

> <Gold.Chemscore.Hbond>
1.7908

> <Gold.Chemscore.Metal>
0.0000

> <Gold.Chemscore.Lipo>
73.1106

> <Gold.Chemscore.Internal_Hbond>
0.0000

> <Gold.Chemscore.DEClash>
0.0127

> <Gold.Chemscore.DEInternal>
1.9197

> <Gold.Chemscore.Rot>
1.7895

> <Gold.Chemscore.Internal.Correction>
   9.000000E+99

> <Gold.Chemscore.Hbonds>
donor molecule, donor type, donor heavy atom, donor atom, acceptor molecule, acceptor atom, score
      L1  H    10    30       P1  7948  0.40
      P1  H  7989  7998       L1    20  0.30

> <Gold.Chemscore.Hbond.Weighted>
-5.9814

> <Gold.Chemscore.Metal.Weighted>
-0.0000

> <Gold.Chemscore.Lipo.Weighted>
-8.5539

> <Gold.Chemscore.Internal_Hbond.Weighted>
0.0000

> <Gold.Chemscore.DEClash.Weighted>
0.0127

> <Gold.Chemscore.DEInternal.Weighted>
1.9197

> <Gold.Chemscore.Rot.Weighted>
4.5810

> <Gold.Chemscore.Internal.Correction.Weighted>
   9.000000E+99

> <Gold.Protein.RotatedTorsions>
[ 6907 6896 6895 6894 ] final  172.48 input  -60.11 | X-H torsion
[ 7974 7965 7964 7962 ] final  136.50 input  175.53 | X-H torsion
[ 8008 7997 7996 7995 ] final  -73.59 input   59.86 | X-H torsion
[ 10167 10162 10161 10158 ] final   37.03 input  -65.29 | X-H torsion
[ 10718 10713 10712 10709 ] final -175.71 input   66.30 | X-H torsion
[ 10763 10752 10751 10750 ] final  170.29 input  -60.55 | X-H torsion
[ 11005 11000 10999 10996 ] final   56.89 input  -57.11 | X-H torsion

> <Gold.Protein.ActiveResidues>
 VAL166  LYS551  ARG553  GLY616  TRP617  ASP618  TYR619  PRO620  LYS621  CYS622 
 ASP623  PHE694  ASN695  SER759  ASP760  ASP761  ALA762  ILE779  LEU786  VAL792 
 PHE793  MET794  SER795  GLU796  ALA797  LYS798  CYS799  TRP800  GLU811  SER814 

> <Gold.Protein.RotatedAtoms>
  151.7836  133.3352  159.3478 H   0  0  0  0  0  0  0  0  0  0  0  0  # atno 6907 bound_to 6896
  150.7417  134.5908  159.5996 H   0  0  0  0  0  0  0  0  0  0  0  0  # atno 6908 bound_to 6896
  152.3259  134.7323  160.0353 H   0  0  0  0  0  0  0  0  0  0  0  0  # atno 6909 bound_to 6896
  144.9559  139.4765  143.5503 H   0  0  0  0  0  0  0  0  0  0  0  0  # atno 7974 bound_to 7965
  154.5260  140.0776  156.8259 H   0  0  0  0  0  0  0  0  0  0  0  0  # atno 8008 bound_to 7997
  155.3475  140.3411  155.4221 H   0  0  0  0  0  0  0  0  0  0  0  0  # atno 8009 bound_to 7997
  156.1732  140.1627  156.8397 H   0  0  0  0  0  0  0  0  0  0  0  0  # atno 8010 bound_to 7997
  140.4072  144.1643  150.6137 H   0  0  0  0  0  0  0  0  0  0  0  0  # atno 10167 bound_to 10162
  156.8039  130.9562  151.3118 H   0  0  0  0  0  0  0  0  0  0  0  0  # atno 10718 bound_to 10713
  154.3954  135.2754  155.2129 H   0  0  0  0  0  0  0  0  0  0  0  0  # atno 10763 bound_to 10752
  154.4178  135.6007  153.5995 H   0  0  0  0  0  0  0  0  0  0  0  0  # atno 10764 bound_to 10752
  152.9831  135.5965  154.4214 H   0  0  0  0  0  0  0  0  0  0  0  0  # atno 10765 bound_to 10752
  140.0495  134.5758  155.9282 H   0  0  0  0  0  0  0  0  0  0  0  0  # atno 11005 bound_to 11000
  146.3337  139.8676  142.8845 LP  0  0  0  0  0  0  0  0  0  0  0  0  # atno 17320 bound_to 7965
  145.2773  141.0127  143.3737 LP  0  0  0  0  0  0  0  0  0  0  0  0  # atno 17321 bound_to 7965
  140.4677  143.2424  151.9132 LP  0  0  0  0  0  0  0  0  0  0  0  0  # atno 17342 bound_to 10162
  139.4783  144.5402  151.8539 LP  0  0  0  0  0  0  0  0  0  0  0  0  # atno 17343 bound_to 10162
  157.6540  130.8908  149.9691 LP  0  0  0  0  0  0  0  0  0  0  0  0  # atno 17370 bound_to 10713
  156.1085  130.3651  150.0091 LP  0  0  0  0  0  0  0  0  0  0  0  0  # atno 17371 bound_to 10713
  141.1923  133.6575  156.5496 LP  0  0  0  0  0  0  0  0  0  0  0  0  # atno 17394 bound_to 11000
  140.3941  134.7415  157.4739 LP  0  0  0  0  0  0  0  0  0  0  0  0  # atno 17395 bound_to 11000

$$$$
