AV-unprocessed.smi:2727|AV-procd|sdf|10523|dock10
  -GOLD-   2272014563D 1   1.00000     0.00000
 Structure written by MMmdl.
 40 41  0  0  0  0  0  0  0  0  1 V2000
  148.9627  138.0023  154.2107 O   0  0  0  0  0  0  0  0  0  0  0  0
  149.6110  138.0212  155.2623 C   0  0  0  0  0  0  0  0  0  0  0  0
  150.1113  139.1644  155.7554 N   0  0  0  0  0  0  0  0  0  0  0  0
  149.9576  140.4832  155.1497 C   0  0  0  0  0  0  0  0  0  0  0  0
  150.6142  141.5820  156.0101 C   0  0  0  0  0  0  0  0  0  0  0  0
  151.4835  141.0330  157.1556 C   0  0  0  0  0  0  0  0  0  0  0  0
  152.3150  140.1572  156.9093 O   0  0  0  0  0  0  0  0  0  0  0  0
  151.3054  141.5195  158.4087 N   0  0  0  0  0  0  0  0  0  0  0  0
  150.3600  142.6096  158.6793 C   0  0  0  0  0  0  0  0  0  0  0  0
  150.9697  143.9933  158.3751 C   0  0  0  0  0  0  0  0  0  0  0  0
  152.4762  144.1474  158.6797 C   0  0  0  0  0  0  0  0  0  0  0  0
  152.9541  143.4904  159.9897 C   0  0  0  0  0  0  0  0  0  0  0  0
  153.2816  141.9886  159.8472 C   0  0  0  0  0  0  0  0  0  0  0  0
  152.0576  141.0876  159.5955 C   0  0  0  0  0  0  0  0  0  0  0  0
  149.9325  136.9603  156.0977 N   0  0  0  0  0  0  0  0  0  0  0  0
  149.8644  135.7410  155.6570 C   0  0  0  0  0  0  0  0  0  0  0  0
  149.5095  135.1942  154.4263 N   0  0  0  0  0  0  0  0  0  0  0  0
  149.6115  133.8343  154.5181 C   0  0  0  0  0  0  0  0  0  0  0  0
  150.0128  133.5341  155.7496 C   0  0  0  0  0  0  0  0  0  0  0  0
  150.1765  134.6799  156.4689 O   0  0  0  0  0  0  0  0  0  0  0  0
  150.6311  139.1174  156.6198 H   0  0  0  0  0  0  0  0  0  0  0  0
  150.3752  140.4743  154.1410 H   0  0  0  0  0  0  0  0  0  0  0  0
  148.8904  140.6805  155.0423 H   0  0  0  0  0  0  0  0  0  0  0  0
  151.2282  142.2222  155.3757 H   0  0  0  0  0  0  0  0  0  0  0  0
  149.8323  142.2097  156.4370 H   0  0  0  0  0  0  0  0  0  0  0  0
  149.4356  142.4747  158.1151 H   0  0  0  0  0  0  0  0  0  0  0  0
  150.0480  142.5888  159.7239 H   0  0  0  0  0  0  0  0  0  0  0  0
  150.8099  144.2321  157.3230 H   0  0  0  0  0  0  0  0  0  0  0  0
  150.4100  144.7443  158.9338 H   0  0  0  0  0  0  0  0  0  0  0  0
  153.0614  143.7546  157.8470 H   0  0  0  0  0  0  0  0  0  0  0  0
  152.7042  145.2132  158.7130 H   0  0  0  0  0  0  0  0  0  0  0  0
  153.8659  143.9969  160.3077 H   0  0  0  0  0  0  0  0  0  0  0  0
  152.2293  143.6548  160.7878 H   0  0  0  0  0  0  0  0  0  0  0  0
  154.0136  141.8532  159.0507 H   0  0  0  0  0  0  0  0  0  0  0  0
  153.7744  141.6504  160.7591 H   0  0  0  0  0  0  0  0  0  0  0  0
  151.4138  141.0997  160.4757 H   0  0  0  0  0  0  0  0  0  0  0  0
  152.3751  140.0482  159.5144 H   0  0  0  0  0  0  0  0  0  0  0  0
  149.2202  135.6772  153.5879 H   0  0  0  0  0  0  0  0  0  0  0  0
  149.3789  133.2097  153.6682 H   0  0  0  0  0  0  0  0  0  0  0  0
  150.2180  132.5972  156.2460 H   0  0  0  0  0  0  0  0  0  0  0  0
  1  2  2  0  0  0  0
  2 15  1  0  0  0  0
  2  3  1  0  0  0  0
  3  4  1  0  0  0  0
  3 21  1  0  0  0  0
  4  5  1  0  0  0  0
  4 22  1  0  0  0  0
  4 23  1  0  0  0  0
  5  6  1  0  0  0  0
  5 24  1  0  0  0  0
  5 25  1  0  0  0  0
  6  7  2  0  0  0  0
  6  8  1  0  0  0  0
  8 14  1  0  0  0  0
  8  9  1  0  0  0  0
  9 10  1  0  0  0  0
  9 26  1  0  0  0  0
  9 27  1  0  0  0  0
 10 11  1  0  0  0  0
 10 28  1  0  0  0  0
 10 29  1  0  0  0  0
 11 12  1  0  0  0  0
 11 30  1  0  0  0  0
 11 31  1  0  0  0  0
 12 13  1  0  0  0  0
 12 32  1  0  0  0  0
 12 33  1  0  0  0  0
 13 14  1  0  0  0  0
 13 34  1  0  0  0  0
 13 35  1  0  0  0  0
 14 36  1  0  0  0  0
 14 37  1  0  0  0  0
 15 16  2  0  0  0  0
 16 20  1  0  0  0  0
 16 17  1  0  0  0  0
 17 38  1  0  0  0  0
 17 18  1  0  0  0  0
 18 39  1  0  0  0  0
 18 19  2  0  0  0  0
 19 40  1  0  0  0  0
 19 20  1  0  0  0  0
M  END
> <s_m_source_file>
AV-unprocessed.smi

> <i_m_source_file_index>
2727

> <i_lp_mmshare_version>
43012

> <i_f3d_flags>
0

> <s_epik_input>
bzFbY0hdW2NIXW5jMVtOSF1DKD1PKVtOSF1bQ0gyXVtDSDJdQyg9TylOMltDSDJdW0NIMl1bQ0gyXVtDSDJdW0NIMl1bQ0gyXTI=

> <s_epik_cmdline>
J2VwaWtfcHl0aG9uJywgJy1waCcsICc3LjAnLCAnLXRuJywgJzgnLCAnLW1hJywgJzIwMCcsICctbWV0YWxfYmluZGluZycsICctaW1hZScsICc8aW5maWxlLm1hZT4nLCAnLW9tYWUnLCAnPG91dGZpbGUubWFlPic=

> <r_lp_tautomer_probability>
0.107061

> <r_epik_Ionization_Penalty>
0.376272

> <r_epik_Ionization_Penalty_Charging>
0.375918

> <r_epik_Ionization_Penalty_Neutral>
0.000353756

> <r_epik_State_Penalty>
2.48665

> <r_epik_Charging_Adjusted_Penalty>
2.86256

> <i_epik_Tot_Q>
0

> <i_epik_Tot_abs_Q>
0

> <r_epik_Metal_State_Penalty>
4.1171

> <b_epik_Metal_Only>
0

> <s_lp_Force_Field>
OPLS_2005

> <r_lp_Energy>
47.9019

> <b_lp_Chiralities_Consistent>
1

> <s_lp_Variant>
AV-unprocessed.smi:2727-3

> <Gold.Version>
5.8.1

> <Gold.Id.Protein>
6NUR|6NUR_protein|mol2

> <Gold.PLP.Fitness>
39.3764

> <Gold.PLP.PLP>
-35.9335

> <Gold.PLP.part.hbond>
-2.0000

> <Gold.PLP.part.metal>
0.0000

> <Gold.PLP.part.buried>
-3.7842

> <Gold.PLP.part.nonpolar>
-30.2277

> <Gold.PLP.part.repulsive>
1.5375

> <Gold.PLP.ligand.clash>
1.5007

> <Gold.PLP.ligand.torsion>
0.5347

> <Gold.PLP.Chemscore.Hbond>
2.0000

> <Gold.PLP.Chemscore.CHOScore>
0.0000

> <Gold.PLP.Chemscore.Metal>
0.0000

> <Gold.Chemscore.Hbonds>
donor molecule, donor type, donor heavy atom, donor atom, acceptor molecule, acceptor atom, score
      L1  H    17    38       P1  7948  1.00
      P1  H  7997  8009       L1     7  0.91

> <Gold.PLP.Chemscore.Internal.Correction>
0.0131

> <Gold.Rescore>
     Score         DG    S(hbond)    S(metal)    S(lipo)     H(rot)  DE(clash)    DE(int)     intcor
     15.79     -17.72       1.94        0.00      86.39       1.70       0.02       1.91       ----

> <Gold.Chemscore.Fitness>
15.7876

> <Gold.Chemscore.DG>
-17.7224

> <Gold.Chemscore.ZeroCoef>
-5.4800

> <Gold.Chemscore.Hbond>
1.9439

> <Gold.Chemscore.Metal>
0.0000

> <Gold.Chemscore.Lipo>
86.3933

> <Gold.Chemscore.Internal_Hbond>
0.0000

> <Gold.Chemscore.DEClash>
0.0199

> <Gold.Chemscore.DEInternal>
1.9149

> <Gold.Chemscore.Rot>
1.7025

> <Gold.Chemscore.Internal.Correction>
   9.000000E+99

> <Gold.Chemscore.Hbonds>
donor molecule, donor type, donor heavy atom, donor atom, acceptor molecule, acceptor atom, score
      L1  H    17    38       P1  7948  0.60
      P1  H  7997  8009       L1     7  0.85

> <Gold.Chemscore.Hbond.Weighted>
-6.4927

> <Gold.Chemscore.Metal.Weighted>
-0.0000

> <Gold.Chemscore.Lipo.Weighted>
-10.1080

> <Gold.Chemscore.Internal_Hbond.Weighted>
0.0000

> <Gold.Chemscore.DEClash.Weighted>
0.0199

> <Gold.Chemscore.DEInternal.Weighted>
1.9149

> <Gold.Chemscore.Rot.Weighted>
4.3584

> <Gold.Chemscore.Internal.Correction.Weighted>
   9.000000E+99

> <Gold.Protein.RotatedTorsions>
[ 6907 6896 6895 6894 ] final   19.46 input  -60.11 | X-H torsion
[ 7974 7965 7964 7962 ] final -171.11 input  175.53 | X-H torsion
[ 8008 7997 7996 7995 ] final -178.82 input   59.86 | X-H torsion
[ 10167 10162 10161 10158 ] final -125.75 input  -65.29 | X-H torsion
[ 10718 10713 10712 10709 ] final   87.36 input   66.30 | X-H torsion
[ 10763 10752 10751 10750 ] final  -74.97 input  -60.55 | X-H torsion
[ 11005 11000 10999 10996 ] final  -31.50 input  -57.11 | X-H torsion

> <Gold.Protein.ActiveResidues>
 VAL166  LYS551  ARG553  GLY616  TRP617  ASP618  TYR619  PRO620  LYS621  CYS622 
 ASP623  PHE694  ASN695  SER759  ASP760  ASP761  ALA762  ILE779  LEU786  VAL792 
 PHE793  MET794  SER795  GLU796  ALA797  LYS798  CYS799  TRP800  GLU811  SER814 

> <Gold.Protein.RotatedAtoms>
  151.8812  135.0453  160.0488 H   0  0  0  0  0  0  0  0  0  0  0  0  # atno 6907 bound_to 6896
  152.2511  133.5211  159.5334 H   0  0  0  0  0  0  0  0  0  0  0  0  # atno 6908 bound_to 6896
  150.7084  134.0875  159.3962 H   0  0  0  0  0  0  0  0  0  0  0  0  # atno 6909 bound_to 6896
  144.7161  140.1972  143.6342 H   0  0  0  0  0  0  0  0  0  0  0  0  # atno 7974 bound_to 7965
  156.0233  140.1266  157.0335 H   0  0  0  0  0  0  0  0  0  0  0  0  # atno 8008 bound_to 7997
  154.4320  140.1064  156.6065 H   0  0  0  0  0  0  0  0  0  0  0  0  # atno 8009 bound_to 7997
  155.5913  140.3469  155.4569 H   0  0  0  0  0  0  0  0  0  0  0  0  # atno 8010 bound_to 7997
  139.9787  143.5766  152.2386 H   0  0  0  0  0  0  0  0  0  0  0  0  # atno 10167 bound_to 10162
  157.6939  131.0252  150.3112 H   0  0  0  0  0  0  0  0  0  0  0  0  # atno 10718 bound_to 10713
  154.4803  135.5846  153.6385 H   0  0  0  0  0  0  0  0  0  0  0  0  # atno 10763 bound_to 10752
  152.9846  135.6088  154.3254 H   0  0  0  0  0  0  0  0  0  0  0  0  # atno 10764 bound_to 10752
  154.3145  135.2844  155.2529 H   0  0  0  0  0  0  0  0  0  0  0  0  # atno 10765 bound_to 10752
  140.9473  133.7242  156.1166 H   0  0  0  0  0  0  0  0  0  0  0  0  # atno 11005 bound_to 11000
  145.8714  139.2274  143.1659 LP  0  0  0  0  0  0  0  0  0  0  0  0  # atno 17320 bound_to 7965
  146.0081  140.8460  142.9984 LP  0  0  0  0  0  0  0  0  0  0  0  0  # atno 17321 bound_to 7965
  139.6426  144.7656  151.2309 LP  0  0  0  0  0  0  0  0  0  0  0  0  # atno 17342 bound_to 10162
  140.7496  143.6292  150.8439 LP  0  0  0  0  0  0  0  0  0  0  0  0  # atno 17343 bound_to 10162
  156.3613  130.3847  149.7249 LP  0  0  0  0  0  0  0  0  0  0  0  0  # atno 17370 bound_to 10713
  156.4694  130.7989  151.3008 LP  0  0  0  0  0  0  0  0  0  0  0  0  # atno 17371 bound_to 10713
  140.7651  134.3895  157.5518 LP  0  0  0  0  0  0  0  0  0  0  0  0  # atno 17394 bound_to 11000
  139.8837  134.8986  156.2749 LP  0  0  0  0  0  0  0  0  0  0  0  0  # atno 17395 bound_to 11000

$$$$
