AV-unprocessed.smi:1875|AV-procd|sdf|7618|dock8
  -GOLD-   22720 9343D 1   1.00000     0.00000
 Structure written by MMmdl.
 48 50  0  0  0  0  0  0  0  0  2 V2000
  151.2579  131.1260  155.7550 C   0  0  0  0  0  0  0  0  0  0  0  0
  150.3597  132.0143  154.9191 C   0  0  0  0  0  0  0  0  0  0  0  0
  149.6789  131.4292  153.9285 N   0  0  0  0  0  0  0  0  0  0  0  0
  148.8793  132.2244  153.1844 C   0  0  0  0  0  0  0  0  0  0  0  0
  148.7642  133.6066  153.4369 C   0  0  0  0  0  0  0  0  0  0  0  0
  149.5310  134.1094  154.5095 C   0  0  0  0  0  0  0  0  0  0  0  0
  149.5001  135.5788  154.8789 C   0  0  0  0  0  0  0  0  0  0  0  0
  150.6478  136.3039  154.3428 N   0  0  0  0  0  0  0  0  0  0  0  0
  151.3270  137.1250  155.3412 C   0  0  0  0  0  0  0  0  0  0  0  0
  150.9140  138.6017  155.2278 C   0  0  2  0  0  0  0  0  0  0  0  0
  151.0007  138.9871  153.8699 O   0  0  0  0  0  0  0  0  0  0  0  0
  151.8348  139.5144  156.0616 C   0  0  0  0  0  0  0  0  0  0  0  0
  151.2042  140.7924  156.4191 N   0  0  0  0  0  0  0  0  0  0  0  0
  150.2469  141.5071  155.7675 C   0  0  0  0  0  0  0  0  0  0  0  0
  149.9967  142.6246  156.5045 N   0  3  0  0  0  0  0  0  0  0  0  0
  150.8072  142.6236  157.6418 C   0  0  0  0  0  0  0  0  0  0  0  0
  150.9187  143.5386  158.6820 C   0  0  0  0  0  0  0  0  0  0  0  0
  151.8488  143.2429  159.7041 C   0  0  0  0  0  0  0  0  0  0  0  0
  151.9983  144.2246  160.8542 C   0  0  0  0  0  0  0  0  0  0  0  0
  152.6280  142.0575  159.6620 C   0  0  0  0  0  0  0  0  0  0  0  0
  153.6241  141.7498  160.7672 C   0  0  0  0  0  0  0  0  0  0  0  0
  152.4993  141.1387  158.5957 C   0  0  0  0  0  0  0  0  0  0  0  0
  151.5817  141.4482  157.5950 C   0  0  0  0  0  0  0  0  0  0  0  0
  150.3293  133.3086  155.2500 N   0  0  0  0  0  0  0  0  0  0  0  0
  151.2188  130.0883  155.4211 H   0  0  0  0  0  0  0  0  0  0  0  0
  150.9529  131.1575  156.8014 H   0  0  0  0  0  0  0  0  0  0  0  0
  152.2922  131.4650  155.6891 H   0  0  0  0  0  0  0  0  0  0  0  0
  148.3281  131.7555  152.3828 H   0  0  0  0  0  0  0  0  0  0  0  0
  148.1249  134.2413  152.8415 H   0  0  0  0  0  0  0  0  0  0  0  0
  148.5722  136.0101  154.5016 H   0  0  0  0  0  0  0  0  0  0  0  0
  149.4698  135.6741  155.9655 H   0  0  0  0  0  0  0  0  0  0  0  0
  150.3416  136.8929  153.5751 H   0  0  0  0  0  0  0  0  0  0  0  0
  151.0627  136.7599  156.3347 H   0  0  0  0  0  0  0  0  0  0  0  0
  152.4099  137.0243  155.2547 H   0  0  0  0  0  0  0  0  0  0  0  0
  149.8838  138.7279  155.5644 H   0  0  0  0  0  0  0  0  0  0  0  0
  151.3815  138.2719  153.3825 H   0  0  0  0  0  0  0  0  0  0  0  0
  152.1541  139.0179  156.9786 H   0  0  0  0  0  0  0  0  0  0  0  0
  152.7440  139.7449  155.5042 H   0  0  0  0  0  0  0  0  0  0  0  0
  149.7702  141.2353  154.8365 H   0  0  0  0  0  0  0  0  0  0  0  0
  150.3211  144.4382  158.7080 H   0  0  0  0  0  0  0  0  0  0  0  0
  153.0172  144.6094  160.8989 H   0  0  0  0  0  0  0  0  0  0  0  0
  151.7685  143.7408  161.8035 H   0  0  0  0  0  0  0  0  0  0  0  0
  151.3256  145.0753  160.7430 H   0  0  0  0  0  0  0  0  0  0  0  0
  154.1375  140.8044  160.5903 H   0  0  0  0  0  0  0  0  0  0  0  0
  153.1188  141.6787  161.7307 H   0  0  0  0  0  0  0  0  0  0  0  0
  154.3805  142.5325  160.8291 H   0  0  0  0  0  0  0  0  0  0  0  0
  153.0916  140.2362  158.5622 H   0  0  0  0  0  0  0  0  0  0  0  0
  149.3213  143.3331  156.2477 H   0  0  0  0  0  0  0  0  0  0  0  0
  1  2  1  0  0  0  0
  1 25  1  0  0  0  0
  1 26  1  0  0  0  0
  1 27  1  0  0  0  0
  2 24  1  0  0  0  0
  2  3  2  0  0  0  0
  3  4  1  0  0  0  0
  4  5  2  0  0  0  0
  4 28  1  0  0  0  0
  5  6  1  0  0  0  0
  5 29  1  0  0  0  0
  6  7  1  0  0  0  0
  6 24  2  0  0  0  0
  7  8  1  0  0  0  0
  7 30  1  0  0  0  0
  7 31  1  0  0  0  0
  8  9  1  0  0  0  0
  8 32  1  0  0  0  0
  9 10  1  0  0  0  0
  9 33  1  0  0  0  0
  9 34  1  0  0  0  0
 10 11  1  0  0  0  0
 10 12  1  0  0  0  0
 10 35  1  0  0  0  0
 11 36  1  0  0  0  0
 12 13  1  0  0  0  0
 12 37  1  0  0  0  0
 12 38  1  0  0  0  0
 13 23  1  0  0  0  0
 13 14  1  0  0  0  0
 14 15  2  0  0  0  0
 14 39  1  0  0  0  0
 15 16  1  0  0  0  0
 15 48  1  0  0  0  0
 16 23  2  0  0  0  0
 16 17  1  0  0  0  0
 17 18  2  0  0  0  0
 17 40  1  0  0  0  0
 18 19  1  0  0  0  0
 18 20  1  0  0  0  0
 19 41  1  0  0  0  0
 19 42  1  0  0  0  0
 19 43  1  0  0  0  0
 20 21  1  0  0  0  0
 20 22  2  0  0  0  0
 21 44  1  0  0  0  0
 21 45  1  0  0  0  0
 21 46  1  0  0  0  0
 22 23  1  0  0  0  0
 22 47  1  0  0  0  0
M  CHG  1  15   1
M  END
> <s_m_source_file>
AV-unprocessed.smi

> <i_m_source_file_index>
1875

> <i_lp_mmshare_version>
43012

> <i_f3d_flags>
0

> <s_epik_input>
W0NIM11jMW5bY0hdW2NIXWMobjEpW0NIMl1bTkhdW0NIMl1bQ0BIXShbT0hdKVtDSDJdbihbY0hdbjIpYyhjMjMpW2NIXWMoW0NIM10pYyhbY0hdMylbQ0gzXQ==

> <s_epik_cmdline>
J2VwaWtfcHl0aG9uJywgJy1waCcsICc3LjAnLCAnLXRuJywgJzgnLCAnLW1hJywgJzIwMCcsICctbWV0YWxfYmluZGluZycsICctaW1hZScsICc8aW5maWxlLm1hZT4nLCAnLW9tYWUnLCAnPG91dGZpbGUubWFlPic=

> <r_epik_Ionization_Penalty>
2.02862

> <r_epik_Ionization_Penalty_Charging>
1.0004

> <r_epik_Ionization_Penalty_Neutral>
1.02823

> <r_epik_State_Penalty>
2.23022

> <r_epik_Charging_Adjusted_Penalty>
3.23062

> <i_epik_Tot_Q>
1

> <i_epik_Tot_abs_Q>
1

> <r_epik_Metal_State_Penalty>
2.31249

> <b_epik_Metal_Only>
0

> <s_epik_Chemistry_Notes>
This compound contains an electron-poor aromatic ring that is susceptible to covalent hydrolysis at low pH, typically resulting in measured values for nitrogen ring protonation that are around two units higher than predicted values.

> <s_lp_Force_Field>
OPLS_2005

> <r_lp_Energy>
18.1078

> <b_lp_Chiralities_Consistent>
1

> <s_lp_Variant>
AV-unprocessed.smi:1875-7

> <Gold.Version>
5.8.1

> <Gold.Id.Protein>
6NUR|6NUR_protein|mol2

> <Gold.PLP.Fitness>
59.3647

> <Gold.PLP.PLP>
-49.9815

> <Gold.PLP.part.hbond>
-4.2643

> <Gold.PLP.part.metal>
0.0000

> <Gold.PLP.part.buried>
-2.3833

> <Gold.PLP.part.nonpolar>
-42.5668

> <Gold.PLP.part.repulsive>
0.1564

> <Gold.PLP.ligand.clash>
0.0000

> <Gold.PLP.ligand.torsion>
1.6025

> <Gold.PLP.Chemscore.Hbond>
3.1593

> <Gold.PLP.Chemscore.CHOScore>
1.0000

> <Gold.PLP.Chemscore.Metal>
0.0000

> <Gold.Chemscore.Hbonds>
donor molecule, donor type, donor heavy atom, donor atom, acceptor molecule, acceptor atom, score
      L1  H     8    32       P1  7948  0.15
      L1  H    15    48       P1  8028  2.00
      P1  H  7989  7998       L1    11  1.00
      L1  C     4    28       P1 10747  1.00

> <Gold.PLP.Chemscore.Internal.Correction>
0.1105

> <Gold.Rescore>
     Score         DG    S(hbond)    S(metal)    S(lipo)     H(rot)  DE(clash)    DE(int)     intcor
     17.40     -19.26       1.89        0.00     125.07       2.80       0.22       1.63       ----

> <Gold.Chemscore.Fitness>
17.4021

> <Gold.Chemscore.DG>
-19.2558

> <Gold.Chemscore.ZeroCoef>
-5.4800

> <Gold.Chemscore.Hbond>
1.8917

> <Gold.Chemscore.Metal>
0.0000

> <Gold.Chemscore.Lipo>
125.0736

> <Gold.Chemscore.Internal_Hbond>
0.0000

> <Gold.Chemscore.DEClash>
0.2235

> <Gold.Chemscore.DEInternal>
1.6302

> <Gold.Chemscore.Rot>
2.8032

> <Gold.Chemscore.Internal.Correction>
   9.000000E+99

> <Gold.Chemscore.Hbonds>
donor molecule, donor type, donor heavy atom, donor atom, acceptor molecule, acceptor atom, score
      L1  H     8    32       P1  7948  0.01
      L1  H    15    48       P1  8028  0.94
      P1  H  7989  7998       L1    11  0.83

> <Gold.Chemscore.Hbond.Weighted>
-6.3183

> <Gold.Chemscore.Metal.Weighted>
-0.0000

> <Gold.Chemscore.Lipo.Weighted>
-14.6336

> <Gold.Chemscore.Internal_Hbond.Weighted>
0.0000

> <Gold.Chemscore.DEClash.Weighted>
0.2235

> <Gold.Chemscore.DEInternal.Weighted>
1.6302

> <Gold.Chemscore.Rot.Weighted>
7.1761

> <Gold.Chemscore.Internal.Correction.Weighted>
   9.000000E+99

> <Gold.Protein.RotatedTorsions>
[ 6907 6896 6895 6894 ] final -123.74 input  -60.11 | X-H torsion
[ 7974 7965 7964 7962 ] final  139.24 input  175.53 | X-H torsion
[ 8008 7997 7996 7995 ] final   -7.58 input   59.86 | X-H torsion
[ 10167 10162 10161 10158 ] final  -51.90 input  -65.29 | X-H torsion
[ 10718 10713 10712 10709 ] final -163.15 input   66.30 | X-H torsion
[ 10763 10752 10751 10750 ] final  111.58 input  -60.55 | X-H torsion
[ 11005 11000 10999 10996 ] final  175.26 input  -57.11 | X-H torsion

> <Gold.Protein.ActiveResidues>
 VAL166  LYS551  ARG553  GLY616  TRP617  ASP618  TYR619  PRO620  LYS621  CYS622 
 ASP623  PHE694  ASN695  SER759  ASP760  ASP761  ALA762  ILE779  LEU786  VAL792 
 PHE793  MET794  SER795  GLU796  ALA797  LYS798  CYS799  TRP800  GLU811  SER814 

> <Gold.Protein.RotatedAtoms>
  150.8700  133.7520  159.2964 H   0  0  0  0  0  0  0  0  0  0  0  0  # atno 6907 bound_to 6896
  151.5135  135.1064  159.9869 H   0  0  0  0  0  0  0  0  0  0  0  0  # atno 6908 bound_to 6896
  152.4688  133.7938  159.6972 H   0  0  0  0  0  0  0  0  0  0  0  0  # atno 6909 bound_to 6896
  144.9297  139.5062  143.5623 H   0  0  0  0  0  0  0  0  0  0  0  0  # atno 7974 bound_to 7965
  154.5824  140.2403  155.8035 H   0  0  0  0  0  0  0  0  0  0  0  0  # atno 8008 bound_to 7997
  156.2189  140.3004  155.9860 H   0  0  0  0  0  0  0  0  0  0  0  0  # atno 8009 bound_to 7997
  155.2518  140.0411  157.2978 H   0  0  0  0  0  0  0  0  0  0  0  0  # atno 8010 bound_to 7997
  140.6565  143.2603  151.4570 H   0  0  0  0  0  0  0  0  0  0  0  0  # atno 10167 bound_to 10162
  156.6205  130.8888  151.2956 H   0  0  0  0  0  0  0  0  0  0  0  0  # atno 10718 bound_to 10713
  153.4654  135.3713  155.2361 H   0  0  0  0  0  0  0  0  0  0  0  0  # atno 10763 bound_to 10752
  154.8757  135.3918  154.3875 H   0  0  0  0  0  0  0  0  0  0  0  0  # atno 10764 bound_to 10752
  153.4455  135.7085  153.6206 H   0  0  0  0  0  0  0  0  0  0  0  0  # atno 10765 bound_to 10752
  140.3603  134.7118  157.4327 H   0  0  0  0  0  0  0  0  0  0  0  0  # atno 11005 bound_to 11000
  146.3242  139.8239  142.8921 LP  0  0  0  0  0  0  0  0  0  0  0  0  # atno 17320 bound_to 7965
  145.3161  141.0232  143.3527 LP  0  0  0  0  0  0  0  0  0  0  0  0  # atno 17321 bound_to 7965
  139.5789  144.1756  152.1941 LP  0  0  0  0  0  0  0  0  0  0  0  0  # atno 17342 bound_to 10162
  140.1075  144.5486  150.6947 LP  0  0  0  0  0  0  0  0  0  0  0  0  # atno 17343 bound_to 10162
  157.7229  130.9582  150.1512 LP  0  0  0  0  0  0  0  0  0  0  0  0  # atno 17370 bound_to 10713
  156.2315  130.3682  149.8439 LP  0  0  0  0  0  0  0  0  0  0  0  0  # atno 17371 bound_to 10713
  140.0632  134.5966  155.8725 LP  0  0  0  0  0  0  0  0  0  0  0  0  # atno 17394 bound_to 11000
  141.1986  133.6602  156.5800 LP  0  0  0  0  0  0  0  0  0  0  0  0  # atno 17395 bound_to 11000

$$$$
