AV-unprocessed.smi:2072|AV-procd|sdf|8447|dock7
  -GOLD-   2272011143D 1   1.00000     0.00000
 Structure written by MMmdl.
 40 42  0  0  0  0  0  0  0  0  2 V2000
  145.5138  137.9023  153.6326 O   0  0  0  0  0  0  0  0  0  0  0  0
  146.5408  137.4093  153.1684 C   0  0  0  0  0  0  0  0  0  0  0  0
  147.7583  137.9797  153.1740 N   0  0  0  0  0  0  0  0  0  0  0  0
  148.1642  139.2438  153.6868 C   0  0  0  0  0  0  0  0  0  0  0  0
  147.3475  140.4008  153.7408 C   0  0  0  0  0  0  0  0  0  0  0  0
  147.8853  141.5894  154.2709 C   0  0  0  0  0  0  0  0  0  0  0  0
  149.2179  141.5827  154.7249 C   0  0  0  0  0  0  0  0  0  0  0  0
  150.0094  140.4911  154.6764 N   0  0  0  0  0  0  0  0  0  0  0  0
  149.4869  139.3551  154.1672 C   0  0  0  0  0  0  0  0  0  0  0  0
  146.5768  136.2005  152.5896 N   0  0  0  0  0  0  0  0  0  0  0  0
  145.4265  135.3170  152.4182 C   0  0  1  0  0  0  0  0  0  0  0  0
  144.4431  135.8142  151.3440 C   0  0  0  0  0  0  0  0  0  0  0  0
  143.9271  134.5423  150.6422 C   0  0  0  0  0  0  0  0  0  0  0  0
  144.5491  133.4164  151.3651 N   0  3  1  0  0  0  0  0  0  0  0  0
  144.7067  132.1453  150.6253 C   0  0  0  0  0  0  0  0  0  0  0  0
  145.2868  131.0756  151.5718 C   0  0  0  0  0  0  0  0  0  0  0  0
  146.5848  131.5578  152.2505 C   0  0  0  0  0  0  0  0  0  0  0  0
  146.3855  132.9297  152.9234 C   0  0  0  0  0  0  0  0  0  0  0  0
  145.8192  133.9300  151.9010 C   0  0  2  0  0  0  0  0  0  0  0  0
  148.5015  137.4285  152.7703 H   0  0  0  0  0  0  0  0  0  0  0  0
  146.3293  140.4139  153.3880 H   0  0  0  0  0  0  0  0  0  0  0  0
  147.2888  142.4879  154.3266 H   0  0  0  0  0  0  0  0  0  0  0  0
  149.6597  142.4783  155.1359 H   0  0  0  0  0  0  0  0  0  0  0  0
  150.1511  138.5033  154.1438 H   0  0  0  0  0  0  0  0  0  0  0  0
  147.4630  135.8707  152.2353 H   0  0  0  0  0  0  0  0  0  0  0  0
  144.8812  135.2128  153.3589 H   0  0  0  0  0  0  0  0  0  0  0  0
  143.6320  136.3919  151.7889 H   0  0  0  0  0  0  0  0  0  0  0  0
  144.9407  136.4571  150.6160 H   0  0  0  0  0  0  0  0  0  0  0  0
  142.8400  134.4637  150.6697 H   0  0  0  0  0  0  0  0  0  0  0  0
  144.2411  134.5381  149.5973 H   0  0  0  0  0  0  0  0  0  0  0  0
  143.7387  131.8226  150.2408 H   0  0  0  0  0  0  0  0  0  0  0  0
  145.3633  132.2931  149.7666 H   0  0  0  0  0  0  0  0  0  0  0  0
  144.5494  130.8341  152.3386 H   0  0  0  0  0  0  0  0  0  0  0  0
  145.4726  130.1518  151.0230 H   0  0  0  0  0  0  0  0  0  0  0  0
  146.9204  130.8244  152.9843 H   0  0  0  0  0  0  0  0  0  0  0  0
  147.3769  131.6323  151.5042 H   0  0  0  0  0  0  0  0  0  0  0  0
  145.7072  132.8341  153.7722 H   0  0  0  0  0  0  0  0  0  0  0  0
  147.3361  133.2869  153.3198 H   0  0  0  0  0  0  0  0  0  0  0  0
  146.5254  134.0427  151.0747 H   0  0  0  0  0  0  0  0  0  0  0  0
  143.9597  133.2282  152.1636 H   0  0  0  0  0  0  0  0  0  0  0  0
  1  2  2  0  0  0  0
  2  3  1  0  0  0  0
  2 10  1  0  0  0  0
  3  4  1  0  0  0  0
  3 20  1  0  0  0  0
  4  9  1  0  0  0  0
  4  5  2  0  0  0  0
  5  6  1  0  0  0  0
  5 21  1  0  0  0  0
  6  7  2  0  0  0  0
  6 22  1  0  0  0  0
  7  8  1  0  0  0  0
  7 23  1  0  0  0  0
  8  9  2  0  0  0  0
  9 24  1  0  0  0  0
 10 11  1  0  0  0  0
 10 25  1  0  0  0  0
 11 19  1  0  0  0  0
 11 12  1  0  0  0  0
 11 26  1  0  0  0  0
 12 13  1  0  0  0  0
 12 27  1  0  0  0  0
 12 28  1  0  0  0  0
 13 14  1  0  0  0  0
 13 29  1  0  0  0  0
 13 30  1  0  0  0  0
 14 19  1  0  0  0  0
 14 15  1  0  0  0  0
 14 40  1  0  0  0  0
 15 16  1  0  0  0  0
 15 31  1  0  0  0  0
 15 32  1  0  0  0  0
 16 17  1  0  0  0  0
 16 33  1  0  0  0  0
 16 34  1  0  0  0  0
 17 18  1  0  0  0  0
 17 35  1  0  0  0  0
 17 36  1  0  0  0  0
 18 19  1  0  0  0  0
 18 37  1  0  0  0  0
 18 38  1  0  0  0  0
 19 39  1  0  0  0  0
M  CHG  1  14   1
M  END
> <s_m_source_file>
AV-unprocessed.smi

> <i_m_source_file_index>
2072

> <i_lp_mmshare_version>
43012

> <i_f3d_flags>
0

> <s_epik_input>
W0NIMl0xW0NIMl1bQ0gyXVtDSDJdW0NASF0oTjEyKVtDQEBIXShbQ0gyXVtDSDJdMilbTkhdQyg9TylbTkhdYzNbY0hdW2NIXVtjSF1uW2NIXTM=

> <s_epik_cmdline>
J2VwaWtfcHl0aG9uJywgJy1waCcsICc3LjAnLCAnLXRuJywgJzgnLCAnLW1hJywgJzIwMCcsICctbWV0YWxfYmluZGluZycsICctaW1hZScsICc8aW5maWxlLm1hZT4nLCAnLW9tYWUnLCAnPG91dGZpbGUubWFlPic=

> <r_lp_tautomer_probability>
1

> <r_epik_Ionization_Penalty>
0.00482425

> <r_epik_Ionization_Penalty_Charging>
0.000974069

> <r_epik_Ionization_Penalty_Neutral>
0.00385018

> <r_epik_State_Penalty>
-0

> <r_epik_Charging_Adjusted_Penalty>
0.000974069

> <i_epik_Tot_Q>
1

> <i_epik_Tot_abs_Q>
1

> <r_epik_Metal_State_Penalty>
-0

> <b_epik_Metal_Only>
0

> <s_lp_Force_Field>
OPLS_2005

> <r_lp_Energy>
37.8914

> <b_lp_Chiralities_Consistent>
1

> <s_lp_Variant>
AV-unprocessed.smi:2072-6

> <Gold.Version>
5.8.1

> <Gold.Id.Protein>
6NUR|6NUR_protein|mol2

> <Gold.PLP.Fitness>
40.2266

> <Gold.PLP.PLP>
-29.2370

> <Gold.PLP.part.hbond>
-2.6590

> <Gold.PLP.part.metal>
0.0000

> <Gold.PLP.part.buried>
0.9745

> <Gold.PLP.part.nonpolar>
-27.3701

> <Gold.PLP.part.repulsive>
0.3405

> <Gold.PLP.ligand.clash>
0.0000

> <Gold.PLP.ligand.torsion>
0.2936

> <Gold.PLP.Chemscore.Hbond>
2.8560

> <Gold.PLP.Chemscore.CHOScore>
1.0000

> <Gold.PLP.Chemscore.Metal>
0.0000

> <Gold.Chemscore.Hbonds>
donor molecule, donor type, donor heavy atom, donor atom, acceptor molecule, acceptor atom, score
      L1  H     3    20       P1  7948  1.00
      L1  H    10    25       P1  7948  0.96
      P1  H  7989  7998       L1     8  0.89
      L1  C     7    23       P1  8028  1.00

> <Gold.PLP.Chemscore.Internal.Correction>
0.0088

> <Gold.Rescore>
     Score         DG    S(hbond)    S(metal)    S(lipo)     H(rot)  DE(clash)    DE(int)     intcor
     18.73     -19.43       2.03        0.00      83.19       1.00       0.37       0.33       ----

> <Gold.Chemscore.Fitness>
18.7261

> <Gold.Chemscore.DG>
-19.4307

> <Gold.Chemscore.ZeroCoef>
-5.4800

> <Gold.Chemscore.Hbond>
2.0290

> <Gold.Chemscore.Metal>
0.0000

> <Gold.Chemscore.Lipo>
83.1950

> <Gold.Chemscore.Internal_Hbond>
0.0000

> <Gold.Chemscore.DEClash>
0.3701

> <Gold.Chemscore.DEInternal>
0.3345

> <Gold.Chemscore.Rot>
1.0000

> <Gold.Chemscore.Internal.Correction>
   9.000000E+99

> <Gold.Chemscore.Hbonds>
donor molecule, donor type, donor heavy atom, donor atom, acceptor molecule, acceptor atom, score
      L1  H     3    20       P1  7948  0.90
      L1  H    10    25       P1  7948  0.89
      P1  H  7989  7998       L1     8  0.26

> <Gold.Chemscore.Hbond.Weighted>
-6.7769

> <Gold.Chemscore.Metal.Weighted>
-0.0000

> <Gold.Chemscore.Lipo.Weighted>
-9.7338

> <Gold.Chemscore.Internal_Hbond.Weighted>
0.0000

> <Gold.Chemscore.DEClash.Weighted>
0.3701

> <Gold.Chemscore.DEInternal.Weighted>
0.3345

> <Gold.Chemscore.Rot.Weighted>
2.5600

> <Gold.Chemscore.Internal.Correction.Weighted>
   9.000000E+99

> <Gold.Protein.RotatedTorsions>
[ 6907 6896 6895 6894 ] final  -73.68 input  -60.11 | X-H torsion
[ 7974 7965 7964 7962 ] final  169.94 input  175.53 | X-H torsion
[ 8008 7997 7996 7995 ] final   29.82 input   59.86 | X-H torsion
[ 10167 10162 10161 10158 ] final   73.87 input  -65.29 | X-H torsion
[ 10718 10713 10712 10709 ] final  -69.16 input   66.30 | X-H torsion
[ 10763 10752 10751 10750 ] final  -85.23 input  -60.55 | X-H torsion
[ 11005 11000 10999 10996 ] final  104.73 input  -57.11 | X-H torsion

> <Gold.Protein.ActiveResidues>
 VAL166  LYS551  ARG553  GLY616  TRP617  ASP618  TYR619  PRO620  LYS621  CYS622 
 ASP623  PHE694  ASN695  SER759  ASP760  ASP761  ALA762  ILE779  LEU786  VAL792 
 PHE793  MET794  SER795  GLU796  ALA797  LYS798  CYS799  TRP800  GLU811  SER814 

> <Gold.Protein.RotatedAtoms>
  150.7121  134.4981  159.5547 H   0  0  0  0  0  0  0  0  0  0  0  0  # atno 6907 bound_to 6896
  152.2584  134.8057  160.0444 H   0  0  0  0  0  0  0  0  0  0  0  0  # atno 6908 bound_to 6896
  151.8779  133.3454  159.3793 H   0  0  0  0  0  0  0  0  0  0  0  0  # atno 6909 bound_to 6896
  144.7339  139.9129  143.6416 H   0  0  0  0  0  0  0  0  0  0  0  0  # atno 7974 bound_to 7965
  155.0807  140.3210  155.4602 H   0  0  0  0  0  0  0  0  0  0  0  0  # atno 8008 bound_to 7997
  156.2768  140.2095  156.5880 H   0  0  0  0  0  0  0  0  0  0  0  0  # atno 8009 bound_to 7997
  154.6981  140.0510  157.0418 H   0  0  0  0  0  0  0  0  0  0  0  0  # atno 8010 bound_to 7997
  140.0198  144.5549  150.7591 H   0  0  0  0  0  0  0  0  0  0  0  0  # atno 10167 bound_to 10162
  156.0469  130.4307  150.2107 H   0  0  0  0  0  0  0  0  0  0  0  0  # atno 10718 bound_to 10713
  154.6087  135.5492  153.7450 H   0  0  0  0  0  0  0  0  0  0  0  0  # atno 10763 bound_to 10752
  153.0186  135.6384  154.1609 H   0  0  0  0  0  0  0  0  0  0  0  0  # atno 10764 bound_to 10752
  154.1547  135.2900  155.3105 H   0  0  0  0  0  0  0  0  0  0  0  0  # atno 10765 bound_to 10752
  139.8795  134.9311  156.5406 H   0  0  0  0  0  0  0  0  0  0  0  0  # atno 11005 bound_to 11000
  146.0987  139.3981  143.0360 LP  0  0  0  0  0  0  0  0  0  0  0  0  # atno 17320 bound_to 7965
  145.7609  140.9936  143.1200 LP  0  0  0  0  0  0  0  0  0  0  0  0  # atno 17321 bound_to 7965
  140.7347  143.2732  151.3823 LP  0  0  0  0  0  0  0  0  0  0  0  0  # atno 17342 bound_to 10162
  139.6147  144.1026  152.2334 LP  0  0  0  0  0  0  0  0  0  0  0  0  # atno 17343 bound_to 10162
  157.0196  130.9975  151.3343 LP  0  0  0  0  0  0  0  0  0  0  0  0  # atno 17370 bound_to 10713
  157.5354  130.8085  149.7965 LP  0  0  0  0  0  0  0  0  0  0  0  0  # atno 17371 bound_to 10713
  140.8313  133.8276  155.8987 LP  0  0  0  0  0  0  0  0  0  0  0  0  # atno 17394 bound_to 11000
  140.9326  134.2003  157.4853 LP  0  0  0  0  0  0  0  0  0  0  0  0  # atno 17395 bound_to 11000

$$$$
