AV-unprocessed.smi:2124|AV-procd|sdf|8669|dock10
  -GOLD-   2272011423D 1   1.00000     0.00000
 Structure written by MMmdl.
 46 48  0  0  0  0  0  0  0  0  2 V2000
  148.8165  133.8774  156.7458 C   0  0  0  0  0  0  0  0  0  0  0  0
  149.6682  135.0851  156.4186 C   0  0  0  0  0  0  0  0  0  0  0  0
  149.1790  136.0146  155.6900 N   0  0  0  0  0  0  0  0  0  0  0  0
  149.9641  137.1395  155.3851 C   0  0  0  0  0  0  0  0  0  0  0  0
  149.3019  138.1948  154.5165 C   0  0  0  0  0  0  0  0  0  0  0  0
  151.2400  137.2574  155.8524 C   0  0  0  0  0  0  0  0  0  0  0  0
  152.1335  138.4612  155.5534 C   0  0  0  0  0  0  0  0  0  0  0  0
  151.5524  139.8396  155.8797 C   0  0  0  0  0  0  0  0  0  0  0  0
  150.8408  140.4304  155.0671 O   0  0  0  0  0  0  0  0  0  0  0  0
  151.8661  140.3299  157.0908 N   0  0  0  0  0  0  0  0  0  0  0  0
  151.4334  141.6007  157.6802 C   0  0  1  0  0  0  0  0  0  0  0  0
  149.9658  141.8967  157.3121 C   0  0  0  0  0  0  0  0  0  0  0  0
  151.7095  141.6644  159.2078 C   0  0  1  0  0  0  0  0  0  0  0  0
  152.8689  140.7502  159.6794 C   0  0  0  0  0  0  0  0  0  0  0  0
  153.7855  141.7104  160.4571 C   0  0  2  0  0  0  0  0  0  0  0  0
  153.0909  142.1489  161.7592 C   0  0  0  0  0  0  0  0  0  0  0  0
  151.9940  143.1033  161.2521 C   0  0  0  0  0  0  0  0  0  0  0  0
  152.1768  143.0497  159.7230 C   0  0  1  0  0  0  0  0  0  0  0  0
  153.6958  142.9691  159.6058 C   0  0  0  0  0  0  0  0  0  0  0  0
  151.7682  136.1612  156.6835 C   0  0  0  0  0  0  0  0  0  0  0  0
  152.9184  136.2103  157.1180 O   0  0  0  0  0  0  0  0  0  0  0  0
  150.9416  135.1078  156.9417 N   0  5  0  0  0  0  0  0  0  0  0  0
  147.9374  133.8317  156.1013 H   0  0  0  0  0  0  0  0  0  0  0  0
  148.4814  133.9243  157.7820 H   0  0  0  0  0  0  0  0  0  0  0  0
  149.3865  132.9580  156.6071 H   0  0  0  0  0  0  0  0  0  0  0  0
  149.1768  139.1230  155.0738 H   0  0  0  0  0  0  0  0  0  0  0  0
  148.3162  137.8689  154.1826 H   0  0  0  0  0  0  0  0  0  0  0  0
  149.9030  138.3988  153.6304 H   0  0  0  0  0  0  0  0  0  0  0  0
  153.0592  138.3500  156.1182 H   0  0  0  0  0  0  0  0  0  0  0  0
  152.4455  138.4545  154.5085 H   0  0  0  0  0  0  0  0  0  0  0  0
  152.4611  139.7573  157.6715 H   0  0  0  0  0  0  0  0  0  0  0  0
  152.0466  142.3592  157.1933 H   0  0  0  0  0  0  0  0  0  0  0  0
  149.6872  142.9197  157.5615 H   0  0  0  0  0  0  0  0  0  0  0  0
  149.2762  141.2329  157.8340 H   0  0  0  0  0  0  0  0  0  0  0  0
  149.7985  141.7731  156.2417 H   0  0  0  0  0  0  0  0  0  0  0  0
  150.7947  141.3835  159.7312 H   0  0  0  0  0  0  0  0  0  0  0  0
  152.5172  139.9197  160.2925 H   0  0  0  0  0  0  0  0  0  0  0  0
  153.4155  140.3266  158.8361 H   0  0  0  0  0  0  0  0  0  0  0  0
  154.7947  141.3257  160.6069 H   0  0  0  0  0  0  0  0  0  0  0  0
  152.6832  141.3029  162.3136 H   0  0  0  0  0  0  0  0  0  0  0  0
  153.7855  142.6763  162.4140 H   0  0  0  0  0  0  0  0  0  0  0  0
  150.9954  142.7983  161.5671 H   0  0  0  0  0  0  0  0  0  0  0  0
  152.1649  144.1138  161.6257 H   0  0  0  0  0  0  0  0  0  0  0  0
  151.7268  143.9021  159.2159 H   0  0  0  0  0  0  0  0  0  0  0  0
  154.2102  143.8258  160.0452 H   0  0  0  0  0  0  0  0  0  0  0  0
  154.0494  142.8276  158.5834 H   0  0  0  0  0  0  0  0  0  0  0  0
  1  2  1  0  0  0  0
  1 23  1  0  0  0  0
  1 24  1  0  0  0  0
  1 25  1  0  0  0  0
  2 22  1  0  0  0  0
  2  3  2  0  0  0  0
  3  4  1  0  0  0  0
  4  5  1  0  0  0  0
  4  6  2  0  0  0  0
  5 26  1  0  0  0  0
  5 27  1  0  0  0  0
  5 28  1  0  0  0  0
  6  7  1  0  0  0  0
  6 20  1  0  0  0  0
  7  8  1  0  0  0  0
  7 29  1  0  0  0  0
  7 30  1  0  0  0  0
  8  9  2  0  0  0  0
  8 10  1  0  0  0  0
 10 11  1  0  0  0  0
 10 31  1  0  0  0  0
 11 12  1  0  0  0  0
 11 13  1  0  0  0  0
 11 32  1  0  0  0  0
 12 33  1  0  0  0  0
 12 34  1  0  0  0  0
 12 35  1  0  0  0  0
 13 18  1  0  0  0  0
 13 14  1  0  0  0  0
 13 36  1  0  0  0  0
 14 15  1  0  0  0  0
 14 37  1  0  0  0  0
 14 38  1  0  0  0  0
 15 19  1  0  0  0  0
 15 16  1  0  0  0  0
 15 39  1  0  0  0  0
 16 17  1  0  0  0  0
 16 40  1  0  0  0  0
 16 41  1  0  0  0  0
 17 18  1  0  0  0  0
 17 42  1  0  0  0  0
 17 43  1  0  0  0  0
 18 19  1  0  0  0  0
 18 44  1  0  0  0  0
 19 45  1  0  0  0  0
 19 46  1  0  0  0  0
 20 21  2  0  0  0  0
 20 22  1  0  0  0  0
M  CHG  1  22  -1
M  END
> <s_m_source_file>
AV-unprocessed.smi

> <i_m_source_file_index>
2124

> <i_lp_mmshare_version>
43012

> <i_f3d_flags>
0

> <s_epik_input>
W0NIM11jMW5jKFtDSDNdKWMoYyg9TylbbkhdMSlbQ0gyXUMoPU8pW05IXVtDQEhdKFtDSDNdKVtDQEhdKFtDSDJdW0NASF0yMylbQ0BIXShbQ0gyXTMpW0NIMl1bQ0gyXTI=

> <s_epik_cmdline>
J2VwaWtfcHl0aG9uJywgJy1waCcsICc3LjAnLCAnLXRuJywgJzgnLCAnLW1hJywgJzIwMCcsICctbWV0YWxfYmluZGluZycsICctaW1hZScsICc8aW5maWxlLm1hZT4nLCAnLW9tYWUnLCAnPG91dGZpbGUubWFlPic=

> <r_lp_tautomer_probability>
0.839158

> <r_epik_Ionization_Penalty>
6.63797

> <r_epik_Ionization_Penalty_Charging>
7.48558e-08

> <r_epik_Ionization_Penalty_Neutral>
6.63797

> <r_epik_State_Penalty>
4.49496

> <r_epik_Charging_Adjusted_Penalty>
4.49496

> <i_epik_Tot_Q>
-1

> <i_epik_Tot_abs_Q>
1

> <r_epik_Metal_State_Penalty>
0.841241

> <b_epik_Metal_Only>
1

> <s_lp_Force_Field>
OPLS_2005

> <r_lp_Energy>
56.2785

> <b_lp_Chiralities_Consistent>
1

> <s_lp_Variant>
AV-unprocessed.smi:2124-20

> <Gold.Version>
5.8.1

> <Gold.Id.Protein>
6NUR|6NUR_protein|mol2

> <Gold.PLP.Fitness>
40.8719

> <Gold.PLP.PLP>
-38.7378

> <Gold.PLP.part.hbond>
-2.4156

> <Gold.PLP.part.metal>
0.0000

> <Gold.PLP.part.buried>
-5.2309

> <Gold.PLP.part.nonpolar>
-31.1624

> <Gold.PLP.part.repulsive>
0.2489

> <Gold.PLP.ligand.clash>
0.0000

> <Gold.PLP.ligand.torsion>
1.5223

> <Gold.PLP.Chemscore.Hbond>
1.7072

> <Gold.PLP.Chemscore.CHOScore>
0.0000

> <Gold.PLP.Chemscore.Metal>
0.0000

> <Gold.Chemscore.Hbonds>
donor molecule, donor type, donor heavy atom, donor atom, acceptor molecule, acceptor atom, score
      P1  H  7989  7998       L1     9  1.00
      P1  H 10752 10763       L1    21  0.46

> <Gold.PLP.Chemscore.Internal.Correction>
0.0570

> <Gold.Rescore>
     Score         DG    S(hbond)    S(metal)    S(lipo)     H(rot)  DE(clash)    DE(int)     intcor
     13.88     -18.18       0.97        0.00     115.94       1.61       0.03       4.26       ----

> <Gold.Chemscore.Fitness>
13.8826

> <Gold.Chemscore.DG>
-18.1753

> <Gold.Chemscore.ZeroCoef>
-5.4800

> <Gold.Chemscore.Hbond>
0.9697

> <Gold.Chemscore.Metal>
0.0000

> <Gold.Chemscore.Lipo>
115.9443

> <Gold.Chemscore.Internal_Hbond>
0.0000

> <Gold.Chemscore.DEClash>
0.0289

> <Gold.Chemscore.DEInternal>
4.2638

> <Gold.Chemscore.Rot>
1.6051

> <Gold.Chemscore.Internal.Correction>
   9.000000E+99

> <Gold.Chemscore.Hbonds>
donor molecule, donor type, donor heavy atom, donor atom, acceptor molecule, acceptor atom, score
      P1  H  7989  7998       L1     9  0.90
      P1  H 10752 10763       L1    21  0.09

> <Gold.Chemscore.Hbond.Weighted>
-3.2388

> <Gold.Chemscore.Metal.Weighted>
-0.0000

> <Gold.Chemscore.Lipo.Weighted>
-13.5655

> <Gold.Chemscore.Internal_Hbond.Weighted>
0.0000

> <Gold.Chemscore.DEClash.Weighted>
0.0289

> <Gold.Chemscore.DEInternal.Weighted>
4.2638

> <Gold.Chemscore.Rot.Weighted>
4.1090

> <Gold.Chemscore.Internal.Correction.Weighted>
   9.000000E+99

> <Gold.Protein.RotatedTorsions>
[ 6907 6896 6895 6894 ] final   82.83 input  -60.11 | X-H torsion
[ 7974 7965 7964 7962 ] final  144.67 input  175.53 | X-H torsion
[ 8008 7997 7996 7995 ] final   84.73 input   59.86 | X-H torsion
[ 10167 10162 10161 10158 ] final -159.96 input  -65.29 | X-H torsion
[ 10718 10713 10712 10709 ] final   16.08 input   66.30 | X-H torsion
[ 10763 10752 10751 10750 ] final  143.54 input  -60.55 | X-H torsion
[ 11005 11000 10999 10996 ] final  154.06 input  -57.11 | X-H torsion

> <Gold.Protein.ActiveResidues>
 VAL166  LYS551  ARG553  GLY616  TRP617  ASP618  TYR619  PRO620  LYS621  CYS622 
 ASP623  PHE694  ASN695  SER759  ASP760  ASP761  ALA762  ILE779  LEU786  VAL792 
 PHE793  MET794  SER795  GLU796  ALA797  LYS798  CYS799  TRP800  GLU811  SER814 

> <Gold.Protein.RotatedAtoms>
  152.5310  134.2989  159.9070 H   0  0  0  0  0  0  0  0  0  0  0  0  # atno 6907 bound_to 6896
  151.2940  133.4146  159.2642 H   0  0  0  0  0  0  0  0  0  0  0  0  # atno 6908 bound_to 6896
  151.0176  134.9460  159.8099 H   0  0  0  0  0  0  0  0  0  0  0  0  # atno 6909 bound_to 6896
  144.8817  139.5690  143.5840 H   0  0  0  0  0  0  0  0  0  0  0  0  # atno 7974 bound_to 7965
  155.9409  140.3408  155.6326 H   0  0  0  0  0  0  0  0  0  0  0  0  # atno 8008 bound_to 7997
  155.7041  140.0764  157.2416 H   0  0  0  0  0  0  0  0  0  0  0  0  # atno 8009 bound_to 7997
  154.4102  140.1634  156.2211 H   0  0  0  0  0  0  0  0  0  0  0  0  # atno 8010 bound_to 7997
  139.6575  143.9972  152.2204 H   0  0  0  0  0  0  0  0  0  0  0  0  # atno 10167 bound_to 10162
  157.0627  130.6315  149.5789 H   0  0  0  0  0  0  0  0  0  0  0  0  # atno 10718 bound_to 10713
  153.9741  135.2948  155.3425 H   0  0  0  0  0  0  0  0  0  0  0  0  # atno 10763 bound_to 10752
  154.7306  135.5069  153.8961 H   0  0  0  0  0  0  0  0  0  0  0  0  # atno 10764 bound_to 10752
  153.0886  135.6701  154.0012 H   0  0  0  0  0  0  0  0  0  0  0  0  # atno 10765 bound_to 10752
  140.1454  134.8710  157.2386 H   0  0  0  0  0  0  0  0  0  0  0  0  # atno 11005 bound_to 11000
  146.2998  139.7392  142.9099 LP  0  0  0  0  0  0  0  0  0  0  0  0  # atno 17320 bound_to 7965
  145.3943  141.0376  143.3106 LP  0  0  0  0  0  0  0  0  0  0  0  0  # atno 17321 bound_to 7965
  139.9702  144.6499  150.7996 LP  0  0  0  0  0  0  0  0  0  0  0  0  # atno 17342 bound_to 10162
  140.7566  143.3068  151.2942 LP  0  0  0  0  0  0  0  0  0  0  0  0  # atno 17343 bound_to 10162
  155.9973  130.5045  150.7531 LP  0  0  0  0  0  0  0  0  0  0  0  0  # atno 17370 bound_to 10713
  157.4941  131.0913  151.0392 LP  0  0  0  0  0  0  0  0  0  0  0  0  # atno 17371 bound_to 10713
  140.2670  134.3505  155.7386 LP  0  0  0  0  0  0  0  0  0  0  0  0  # atno 17394 bound_to 11000
  141.2192  133.7401  156.9165 LP  0  0  0  0  0  0  0  0  0  0  0  0  # atno 17395 bound_to 11000

$$$$
