AV-unprocessed.smi:2471|AV-procd|sdf|9740|dock10
  -GOLD-   2272013383D 1   1.00000     0.00000
 Structure written by MMmdl.
 40 41  0  0  0  0  0  0  0  0  1 V2000
  146.1452  130.1969  151.9428 C   0  0  0  0  0  0  0  0  0  0  0  0
  145.5181  131.5005  151.4946 C   0  0  0  0  0  0  0  0  0  0  0  0
  144.3248  131.5107  150.7463 C   0  0  0  0  0  0  0  0  0  0  0  0
  143.7922  132.7554  150.3659 C   0  0  0  0  0  0  0  0  0  0  0  0
  144.4698  133.9300  150.7461 C   0  0  0  0  0  0  0  0  0  0  0  0
  145.6627  133.8322  151.4974 C   0  0  0  0  0  0  0  0  0  0  0  0
  146.2691  135.0727  151.8312 N   0  0  0  0  0  0  0  0  0  0  0  0
  145.6685  136.2157  152.2073 C   0  0  0  0  0  0  0  0  0  0  0  0
  144.4542  136.3738  152.3372 O   0  0  0  0  0  0  0  0  0  0  0  0
  146.5663  137.1861  152.4324 N   0  0  0  0  0  0  0  0  0  0  0  0
  146.2385  138.5424  152.8621 C   0  0  0  0  0  0  0  0  0  0  0  0
  147.4943  139.3784  153.2081 C   0  0  1  0  0  0  0  0  0  0  0  0
  147.1196  140.8431  153.5364 C   0  0  0  0  0  0  0  0  0  0  0  0
  148.3462  141.6855  153.9189 C   0  0  0  0  0  0  0  0  0  0  0  0
  149.1047  141.0559  155.0947 C   0  0  0  0  0  0  0  0  0  0  0  0
  149.5114  139.6128  154.7682 C   0  0  0  0  0  0  0  0  0  0  0  0
  148.2911  138.7559  154.3817 C   0  0  2  0  0  0  0  0  0  0  0  0
  148.7657  137.4719  154.0277 O   0  0  0  0  0  0  0  0  0  0  0  0
  146.1674  132.6266  151.8603 N   0  0  0  0  0  0  0  0  0  0  0  0
  145.6898  129.3453  151.4365 H   0  0  0  0  0  0  0  0  0  0  0  0
  146.0145  130.0659  153.0172 H   0  0  0  0  0  0  0  0  0  0  0  0
  147.2134  130.1900  151.7226 H   0  0  0  0  0  0  0  0  0  0  0  0
  143.8288  130.5915  150.4710 H   0  0  0  0  0  0  0  0  0  0  0  0
  142.8789  132.8094  149.7919 H   0  0  0  0  0  0  0  0  0  0  0  0
  144.0736  134.8941  150.4611 H   0  0  0  0  0  0  0  0  0  0  0  0
  147.2762  135.0924  151.7731 H   0  0  0  0  0  0  0  0  0  0  0  0
  147.5444  136.9729  152.3019 H   0  0  0  0  0  0  0  0  0  0  0  0
  145.6803  139.0254  152.0597 H   0  0  0  0  0  0  0  0  0  0  0  0
  145.5584  138.4893  153.7136 H   0  0  0  0  0  0  0  0  0  0  0  0
  148.1484  139.3917  152.3343 H   0  0  0  0  0  0  0  0  0  0  0  0
  146.6250  141.3093  152.6840 H   0  0  0  0  0  0  0  0  0  0  0  0
  146.4004  140.8621  154.3564 H   0  0  0  0  0  0  0  0  0  0  0  0
  149.0111  141.7758  153.0588 H   0  0  0  0  0  0  0  0  0  0  0  0
  148.0353  142.6980  154.1777 H   0  0  0  0  0  0  0  0  0  0  0  0
  149.9895  141.6489  155.3277 H   0  0  0  0  0  0  0  0  0  0  0  0
  148.4778  141.0687  155.9872 H   0  0  0  0  0  0  0  0  0  0  0  0
  150.2327  139.6203  153.9491 H   0  0  0  0  0  0  0  0  0  0  0  0
  150.0226  139.1724  155.6249 H   0  0  0  0  0  0  0  0  0  0  0  0
  147.6382  138.6488  155.2492 H   0  0  0  0  0  0  0  0  0  0  0  0
  148.6907  137.3700  153.0912 H   0  0  0  0  0  0  0  0  0  0  0  0
  1  2  1  0  0  0  0
  1 20  1  0  0  0  0
  1 21  1  0  0  0  0
  1 22  1  0  0  0  0
  2 19  1  0  0  0  0
  2  3  2  0  0  0  0
  3  4  1  0  0  0  0
  3 23  1  0  0  0  0
  4  5  2  0  0  0  0
  4 24  1  0  0  0  0
  5  6  1  0  0  0  0
  5 25  1  0  0  0  0
  6  7  1  0  0  0  0
  6 19  2  0  0  0  0
  7  8  1  0  0  0  0
  7 26  1  0  0  0  0
  8  9  2  0  0  0  0
  8 10  1  0  0  0  0
 10 11  1  0  0  0  0
 10 27  1  0  0  0  0
 11 12  1  0  0  0  0
 11 28  1  0  0  0  0
 11 29  1  0  0  0  0
 12 17  1  0  0  0  0
 12 13  1  0  0  0  0
 12 30  1  0  0  0  0
 13 14  1  0  0  0  0
 13 31  1  0  0  0  0
 13 32  1  0  0  0  0
 14 15  1  0  0  0  0
 14 33  1  0  0  0  0
 14 34  1  0  0  0  0
 15 16  1  0  0  0  0
 15 35  1  0  0  0  0
 15 36  1  0  0  0  0
 16 17  1  0  0  0  0
 16 37  1  0  0  0  0
 16 38  1  0  0  0  0
 17 18  1  0  0  0  0
 17 39  1  0  0  0  0
 18 40  1  0  0  0  0
M  END
> <s_m_source_file>
AV-unprocessed.smi

> <i_m_source_file_index>
2471

> <i_lp_mmshare_version>
43012

> <i_f3d_flags>
0

> <s_epik_input>
W0NIM11jMVtjSF1bY0hdW2NIXWMobjEpW05IXUMoPU8pW05IXVtDSDJdW0NAQEhdMltDSDJdW0NIMl1bQ0gyXVtDSDJdW0NASF0yW09IXQ==

> <s_epik_cmdline>
J2VwaWtfcHl0aG9uJywgJy1waCcsICc3LjAnLCAnLXRuJywgJzgnLCAnLW1hJywgJzIwMCcsICctbWV0YWxfYmluZGluZycsICctaW1hZScsICc8aW5maWxlLm1hZT4nLCAnLW9tYWUnLCAnPG91dGZpbGUubWFlPic=

> <r_lp_tautomer_probability>
1

> <r_epik_Ionization_Penalty>
8.52237e-05

> <r_epik_Ionization_Penalty_Charging>
0

> <r_epik_Ionization_Penalty_Neutral>
8.52237e-05

> <r_epik_State_Penalty>
-0

> <r_epik_Charging_Adjusted_Penalty>
0

> <i_epik_Tot_Q>
0

> <i_epik_Tot_abs_Q>
0

> <r_epik_Metal_State_Penalty>
-0

> <b_epik_Metal_Only>
0

> <s_lp_Force_Field>
OPLS_2005

> <r_lp_Energy>
14.0215

> <b_lp_Chiralities_Consistent>
1

> <s_lp_Variant>
AV-unprocessed.smi:2471-4

> <Gold.Version>
5.8.1

> <Gold.Id.Protein>
6NUR|6NUR_protein|mol2

> <Gold.PLP.Fitness>
42.3689

> <Gold.PLP.PLP>
-34.6636

> <Gold.PLP.part.hbond>
-2.8838

> <Gold.PLP.part.metal>
0.0000

> <Gold.PLP.part.buried>
-3.2244

> <Gold.PLP.part.nonpolar>
-29.6120

> <Gold.PLP.part.repulsive>
0.3633

> <Gold.PLP.ligand.clash>
0.0000

> <Gold.PLP.ligand.torsion>
0.3374

> <Gold.PLP.Chemscore.Hbond>
2.7920

> <Gold.PLP.Chemscore.CHOScore>
0.0000

> <Gold.PLP.Chemscore.Metal>
0.0000

> <Gold.Chemscore.Hbonds>
donor molecule, donor type, donor heavy atom, donor atom, acceptor molecule, acceptor atom, score
      L1  H     7    26       P1  7948  0.96
      L1  H    10    27       P1  7948  1.00
      L1  H    18    40       P1  7948  0.83

> <Gold.PLP.Chemscore.Internal.Correction>
0.0042

> <Gold.Rescore>
     Score         DG    S(hbond)    S(metal)    S(lipo)     H(rot)  DE(clash)    DE(int)     intcor
     17.45     -20.54       2.80        0.00      86.59       1.73       0.06       3.03       ----

> <Gold.Chemscore.Fitness>
17.4498

> <Gold.Chemscore.DG>
-20.5355

> <Gold.Chemscore.ZeroCoef>
-5.4800

> <Gold.Chemscore.Hbond>
2.8032

> <Gold.Chemscore.Metal>
0.0000

> <Gold.Chemscore.Lipo>
86.5930

> <Gold.Chemscore.Internal_Hbond>
0.0000

> <Gold.Chemscore.DEClash>
0.0582

> <Gold.Chemscore.DEInternal>
3.0275

> <Gold.Chemscore.Rot>
1.7339

> <Gold.Chemscore.Internal.Correction>
   9.000000E+99

> <Gold.Chemscore.Hbonds>
donor molecule, donor type, donor heavy atom, donor atom, acceptor molecule, acceptor atom, score
      L1  H     7    26       P1  7948  0.83
      L1  H    10    27       P1  7948  0.99
      L1  H    18    40       P1  7948  0.81

> <Gold.Chemscore.Hbond.Weighted>
-9.3628

> <Gold.Chemscore.Metal.Weighted>
-0.0000

> <Gold.Chemscore.Lipo.Weighted>
-10.1314

> <Gold.Chemscore.Internal_Hbond.Weighted>
0.0000

> <Gold.Chemscore.DEClash.Weighted>
0.0582

> <Gold.Chemscore.DEInternal.Weighted>
3.0275

> <Gold.Chemscore.Rot.Weighted>
4.4387

> <Gold.Chemscore.Internal.Correction.Weighted>
   9.000000E+99

> <Gold.Protein.RotatedTorsions>
[ 6907 6896 6895 6894 ] final   35.99 input  -60.11 | X-H torsion
[ 7974 7965 7964 7962 ] final  -10.87 input  175.53 | X-H torsion
[ 8008 7997 7996 7995 ] final  -63.25 input   59.86 | X-H torsion
[ 10167 10162 10161 10158 ] final  167.73 input  -65.29 | X-H torsion
[ 10718 10713 10712 10709 ] final   96.74 input   66.30 | X-H torsion
[ 10763 10752 10751 10750 ] final  -73.97 input  -60.55 | X-H torsion
[ 11005 11000 10999 10996 ] final -156.29 input  -57.11 | X-H torsion

> <Gold.Protein.ActiveResidues>
 VAL166  LYS551  ARG553  GLY616  TRP617  ASP618  TYR619  PRO620  LYS621  CYS622 
 ASP623  PHE694  ASN695  SER759  ASP760  ASP761  ALA762  ILE779  LEU786  VAL792 
 PHE793  MET794  SER795  GLU796  ALA797  LYS798  CYS799  TRP800  GLU811  SER814 

> <Gold.Protein.RotatedAtoms>
  152.1236  134.9187  160.0561 H   0  0  0  0  0  0  0  0  0  0  0  0  # atno 6907 bound_to 6896
  152.0319  133.3936  159.4309 H   0  0  0  0  0  0  0  0  0  0  0  0  # atno 6908 bound_to 6896
  150.6851  134.3433  159.4921 H   0  0  0  0  0  0  0  0  0  0  0  0  # atno 6909 bound_to 6896
  146.2206  140.2828  142.8363 H   0  0  0  0  0  0  0  0  0  0  0  0  # atno 7974 bound_to 7965
  154.4544  140.0979  156.6714 H   0  0  0  0  0  0  0  0  0  0  0  0  # atno 8008 bound_to 7997
  155.5184  140.3478  155.4383 H   0  0  0  0  0  0  0  0  0  0  0  0  # atno 8009 bound_to 7997
  156.0747  140.1358  156.9774 H   0  0  0  0  0  0  0  0  0  0  0  0  # atno 8010 bound_to 7997
  139.4952  144.3890  151.9538 H   0  0  0  0  0  0  0  0  0  0  0  0  # atno 10167 bound_to 10162
  157.6923  131.0587  150.4537 H   0  0  0  0  0  0  0  0  0  0  0  0  # atno 10718 bound_to 10713
  154.4667  135.5880  153.6293 H   0  0  0  0  0  0  0  0  0  0  0  0  # atno 10763 bound_to 10752
  152.9829  135.6057  154.3418 H   0  0  0  0  0  0  0  0  0  0  0  0  # atno 10764 bound_to 10752
  154.3296  135.2842  155.2457 H   0  0  0  0  0  0  0  0  0  0  0  0  # atno 10765 bound_to 10752
  140.6771  134.4184  157.5228 H   0  0  0  0  0  0  0  0  0  0  0  0  # atno 11005 bound_to 11000
  144.9184  140.7840  143.5763 LP  0  0  0  0  0  0  0  0  0  0  0  0  # atno 17320 bound_to 7965
  145.2763  139.1935  143.4815 LP  0  0  0  0  0  0  0  0  0  0  0  0  # atno 17321 bound_to 7965
  140.3327  144.3297  150.5984 LP  0  0  0  0  0  0  0  0  0  0  0  0  # atno 17342 bound_to 10162
  140.5631  143.2189  151.7730 LP  0  0  0  0  0  0  0  0  0  0  0  0  # atno 17343 bound_to 10162
  156.4886  130.4090  149.6419 LP  0  0  0  0  0  0  0  0  0  0  0  0  # atno 17370 bound_to 10713
  156.3438  130.7396  151.2345 LP  0  0  0  0  0  0  0  0  0  0  0  0  # atno 17371 bound_to 10713
  139.8963  134.8663  156.2093 LP  0  0  0  0  0  0  0  0  0  0  0  0  # atno 17394 bound_to 11000
  141.0346  133.6970  156.1490 LP  0  0  0  0  0  0  0  0  0  0  0  0  # atno 17395 bound_to 11000

$$$$
