AV-unprocessed.smi:2772|AV-procd|sdf|10671|dock7
  -GOLD-   2272015123D 1   1.00000     0.00000
 Structure written by MMmdl.
 54 56  0  0  0  0  0  0  0  0  2 V2000
  153.3239  142.3437  162.2431 C   0  0  0  0  0  0  0  0  0  0  0  0
  152.7770  142.0214  160.8684 C   0  0  0  0  0  0  0  0  0  0  0  0
  151.8312  142.8641  160.2494 C   0  0  0  0  0  0  0  0  0  0  0  0
  151.3602  142.5205  158.9677 C   0  0  0  0  0  0  0  0  0  0  0  0
  151.8561  141.3479  158.3482 C   0  0  0  0  0  0  0  0  0  0  0  0
  151.4417  140.8839  157.0705 N   0  0  0  0  0  0  0  0  0  0  0  0
  150.2048  140.8817  156.5443 C   0  0  0  0  0  0  0  0  0  0  0  0
  149.2005  141.3394  157.0885 O   0  0  0  0  0  0  0  0  0  0  0  0
  150.2007  140.3291  155.3225 N   0  0  0  0  0  0  0  0  0  0  0  0
  149.0312  140.1710  154.4613 C   0  0  2  0  0  0  0  0  0  0  0  0
  148.4168  141.5493  154.1554 C   0  0  0  0  0  0  0  0  0  0  0  0
  147.0848  141.4072  153.3944 C   0  0  0  0  0  0  0  0  0  0  0  0
  146.1062  140.5689  154.1443 N   0  3  2  0  0  0  0  0  0  0  0  0
  145.5246  141.2043  155.3755 C   0  0  0  0  0  0  0  0  0  0  0  0
  144.2967  140.4267  155.9075 C   0  0  0  0  0  0  0  0  0  0  0  0
  143.6205  141.1408  157.0897 C   0  0  0  0  0  0  0  0  0  0  0  0
  143.1969  142.4799  156.6918 N   0  0  0  0  0  0  0  0  0  0  0  0
  142.4961  143.1124  157.8006 C   0  0  0  0  0  0  0  0  0  0  0  0
  144.3704  143.2766  156.3460 C   0  0  0  0  0  0  0  0  0  0  0  0
  145.0830  142.6668  155.1273 C   0  0  0  0  0  0  0  0  0  0  0  0
  146.6811  139.2073  154.3418 C   0  0  0  0  0  0  0  0  0  0  0  0
  147.9988  139.2511  155.1397 C   0  0  0  0  0  0  0  0  0  0  0  0
  152.7887  140.5695  159.0659 C   0  0  0  0  0  0  0  0  0  0  0  0
  153.2475  140.8934  160.2937 N   0  0  0  0  0  0  0  0  0  0  0  0
  152.9002  143.2712  162.6296 H   0  0  0  0  0  0  0  0  0  0  0  0
  154.4078  142.4566  162.2028 H   0  0  0  0  0  0  0  0  0  0  0  0
  153.0860  141.5433  162.9440 H   0  0  0  0  0  0  0  0  0  0  0  0
  151.4693  143.7538  160.7434 H   0  0  0  0  0  0  0  0  0  0  0  0
  150.6225  143.1514  158.4966 H   0  0  0  0  0  0  0  0  0  0  0  0
  152.1837  140.5582  156.4683 H   0  0  0  0  0  0  0  0  0  0  0  0
  151.0789  139.9884  154.9594 H   0  0  0  0  0  0  0  0  0  0  0  0
  149.3141  139.7148  153.5108 H   0  0  0  0  0  0  0  0  0  0  0  0
  148.2594  142.1076  155.0789 H   0  0  0  0  0  0  0  0  0  0  0  0
  149.1157  142.1393  153.5611 H   0  0  0  0  0  0  0  0  0  0  0  0
  146.6773  142.3816  153.1336 H   0  0  0  0  0  0  0  0  0  0  0  0
  147.2775  140.9255  152.4345 H   0  0  0  0  0  0  0  0  0  0  0  0
  146.2799  141.2143  156.1613 H   0  0  0  0  0  0  0  0  0  0  0  0
  143.5710  140.2808  155.1059 H   0  0  0  0  0  0  0  0  0  0  0  0
  144.5841  139.4361  156.2564 H   0  0  0  0  0  0  0  0  0  0  0  0
  142.7510  140.5652  157.4107 H   0  0  0  0  0  0  0  0  0  0  0  0
  144.3008  141.1947  157.9413 H   0  0  0  0  0  0  0  0  0  0  0  0
  142.1647  144.1134  157.5226 H   0  0  0  0  0  0  0  0  0  0  0  0
  143.1347  143.1959  158.6814 H   0  0  0  0  0  0  0  0  0  0  0  0
  141.6116  142.5357  158.0731 H   0  0  0  0  0  0  0  0  0  0  0  0
  144.0612  144.2962  156.1119 H   0  0  0  0  0  0  0  0  0  0  0  0
  145.0531  143.3360  157.1955 H   0  0  0  0  0  0  0  0  0  0  0  0
  145.9414  143.3012  154.9110 H   0  0  0  0  0  0  0  0  0  0  0  0
  144.4257  142.7167  154.2578 H   0  0  0  0  0  0  0  0  0  0  0  0
  145.9704  138.5231  154.8002 H   0  0  0  0  0  0  0  0  0  0  0  0
  146.8795  138.7782  153.3584 H   0  0  0  0  0  0  0  0  0  0  0  0
  148.4062  138.2431  155.2269 H   0  0  0  0  0  0  0  0  0  0  0  0
  147.8047  139.5865  156.1590 H   0  0  0  0  0  0  0  0  0  0  0  0
  153.1845  139.6586  158.6409 H   0  0  0  0  0  0  0  0  0  0  0  0
  145.3201  140.4458  153.5218 H   0  0  0  0  0  0  0  0  0  0  0  0
  1  2  1  0  0  0  0
  1 25  1  0  0  0  0
  1 26  1  0  0  0  0
  1 27  1  0  0  0  0
  2 24  1  0  0  0  0
  2  3  2  0  0  0  0
  3  4  1  0  0  0  0
  3 28  1  0  0  0  0
  4  5  2  0  0  0  0
  4 29  1  0  0  0  0
  5  6  1  0  0  0  0
  5 23  1  0  0  0  0
  6  7  1  0  0  0  0
  6 30  1  0  0  0  0
  7  8  2  0  0  0  0
  7  9  1  0  0  0  0
  9 10  1  0  0  0  0
  9 31  1  0  0  0  0
 10 22  1  0  0  0  0
 10 11  1  0  0  0  0
 10 32  1  0  0  0  0
 11 12  1  0  0  0  0
 11 33  1  0  0  0  0
 11 34  1  0  0  0  0
 12 13  1  0  0  0  0
 12 35  1  0  0  0  0
 12 36  1  0  0  0  0
 13 14  1  0  0  0  0
 13 21  1  0  0  0  0
 13 54  1  0  0  0  0
 14 20  1  0  0  0  0
 14 15  1  0  0  0  0
 14 37  1  0  0  0  0
 15 16  1  0  0  0  0
 15 38  1  0  0  0  0
 15 39  1  0  0  0  0
 16 17  1  0  0  0  0
 16 40  1  0  0  0  0
 16 41  1  0  0  0  0
 17 18  1  0  0  0  0
 17 19  1  0  0  0  0
 18 42  1  0  0  0  0
 18 43  1  0  0  0  0
 18 44  1  0  0  0  0
 19 20  1  0  0  0  0
 19 45  1  0  0  0  0
 19 46  1  0  0  0  0
 20 47  1  0  0  0  0
 20 48  1  0  0  0  0
 21 22  1  0  0  0  0
 21 49  1  0  0  0  0
 21 50  1  0  0  0  0
 22 51  1  0  0  0  0
 22 52  1  0  0  0  0
 23 24  2  0  0  0  0
 23 53  1  0  0  0  0
M  CHG  1  13   1
M  END
> <s_m_source_file>
AV-unprocessed.smi

> <i_m_source_file_index>
2772

> <i_lp_mmshare_version>
43012

> <i_f3d_flags>
0

> <s_epik_input>
W0NIM11jMVtjSF1bY0hdYyhbY0hdbjEpW05IXUMoPU8pW05IXVtDSF0yW0NIMl1bQ0gyXU4oW0NIMl1bQ0gyXTIpW0NIXTNbQ0gyXVtDSDJdTihbQ0gzXSlbQ0gyXVtDSDJdMw==

> <s_epik_cmdline>
J2VwaWtfcHl0aG9uJywgJy1waCcsICc3LjAnLCAnLXRuJywgJzgnLCAnLW1hJywgJzIwMCcsICctbWV0YWxfYmluZGluZycsICctaW1hZScsICc8aW5maWxlLm1hZT4nLCAnLW9tYWUnLCAnPG91dGZpbGUubWFlPic=

> <r_epik_Ionization_Penalty>
1.38854

> <r_epik_Ionization_Penalty_Charging>
0.00081195

> <r_epik_Ionization_Penalty_Neutral>
1.38772

> <r_epik_State_Penalty>
1.56122

> <r_epik_Charging_Adjusted_Penalty>
1.56203

> <i_epik_Tot_Q>
1

> <i_epik_Tot_abs_Q>
1

> <r_epik_Metal_State_Penalty>
1.5614

> <b_epik_Metal_Only>
0

> <s_lp_Force_Field>
OPLS_2005

> <r_lp_Energy>
35.2305

> <b_lp_Chiralities_Consistent>
1

> <s_lp_Variant>
AV-unprocessed.smi:2772-8

> <Gold.Version>
5.8.1

> <Gold.Id.Protein>
6NUR|6NUR_protein|mol2

> <Gold.PLP.Fitness>
39.8223

> <Gold.PLP.PLP>
-34.6471

> <Gold.PLP.part.hbond>
-1.0000

> <Gold.PLP.part.metal>
0.0000

> <Gold.PLP.part.buried>
-6.7395

> <Gold.PLP.part.nonpolar>
-26.7514

> <Gold.PLP.part.repulsive>
0.3451

> <Gold.PLP.ligand.clash>
0.0000

> <Gold.PLP.ligand.torsion>
0.4339

> <Gold.PLP.Chemscore.Hbond>
2.0000

> <Gold.PLP.Chemscore.CHOScore>
0.0000

> <Gold.PLP.Chemscore.Metal>
0.0000

> <Gold.Chemscore.Hbonds>
donor molecule, donor type, donor heavy atom, donor atom, acceptor molecule, acceptor atom, score
      L1  H    13    54       P1 10175  2.00

> <Gold.PLP.Chemscore.Internal.Correction>
0.0430

> <Gold.Rescore>
     Score         DG    S(hbond)    S(metal)    S(lipo)     H(rot)  DE(clash)    DE(int)     intcor
     14.90     -16.93       0.98        0.00      95.83       1.19       0.06       1.97       ----

> <Gold.Chemscore.Fitness>
14.8993

> <Gold.Chemscore.DG>
-16.9279

> <Gold.Chemscore.ZeroCoef>
-5.4800

> <Gold.Chemscore.Hbond>
0.9833

> <Gold.Chemscore.Metal>
0.0000

> <Gold.Chemscore.Lipo>
95.8339

> <Gold.Chemscore.Internal_Hbond>
0.0000

> <Gold.Chemscore.DEClash>
0.0621

> <Gold.Chemscore.DEInternal>
1.9665

> <Gold.Chemscore.Rot>
1.1910

> <Gold.Chemscore.Internal.Correction>
   9.000000E+99

> <Gold.Chemscore.Hbonds>
donor molecule, donor type, donor heavy atom, donor atom, acceptor molecule, acceptor atom, score
      L1  H    13    54       P1 10175  0.98

> <Gold.Chemscore.Hbond.Weighted>
-3.2842

> <Gold.Chemscore.Metal.Weighted>
-0.0000

> <Gold.Chemscore.Lipo.Weighted>
-11.2126

> <Gold.Chemscore.Internal_Hbond.Weighted>
0.0000

> <Gold.Chemscore.DEClash.Weighted>
0.0621

> <Gold.Chemscore.DEInternal.Weighted>
1.9665

> <Gold.Chemscore.Rot.Weighted>
3.0489

> <Gold.Chemscore.Internal.Correction.Weighted>
   9.000000E+99

> <Gold.Protein.RotatedTorsions>
[ 6907 6896 6895 6894 ] final   59.72 input  -60.11 | X-H torsion
[ 7974 7965 7964 7962 ] final -125.50 input  175.53 | X-H torsion
[ 8008 7997 7996 7995 ] final  103.33 input   59.86 | X-H torsion
[ 10167 10162 10161 10158 ] final  -71.68 input  -65.29 | X-H torsion
[ 10718 10713 10712 10709 ] final  -71.94 input   66.30 | X-H torsion
[ 10763 10752 10751 10750 ] final  -66.35 input  -60.55 | X-H torsion
[ 11005 11000 10999 10996 ] final -101.23 input  -57.11 | X-H torsion

> <Gold.Protein.ActiveResidues>
 VAL166  LYS551  ARG553  GLY616  TRP617  ASP618  TYR619  PRO620  LYS621  CYS622 
 ASP623  PHE694  ASN695  SER759  ASP760  ASP761  ALA762  ILE779  LEU786  VAL792 
 PHE793  MET794  SER795  GLU796  ALA797  LYS798  CYS799  TRP800  GLU811  SER814 

> <Gold.Protein.RotatedAtoms>
  152.3940  134.6396  160.0096 H   0  0  0  0  0  0  0  0  0  0  0  0  # atno 6907 bound_to 6896
  151.6621  133.3311  159.3184 H   0  0  0  0  0  0  0  0  0  0  0  0  # atno 6908 bound_to 6896
  150.7851  134.6872  159.6521 H   0  0  0  0  0  0  0  0  0  0  0  0  # atno 6909 bound_to 6896
  144.9969  140.7784  143.4520 H   0  0  0  0  0  0  0  0  0  0  0  0  # atno 7974 bound_to 7965
  156.1475  140.3166  155.8593 H   0  0  0  0  0  0  0  0  0  0  0  0  # atno 8008 bound_to 7997
  155.4036  140.0501  157.3052 H   0  0  0  0  0  0  0  0  0  0  0  0  # atno 8009 bound_to 7997
  154.5029  140.2136  155.9322 H   0  0  0  0  0  0  0  0  0  0  0  0  # atno 8010 bound_to 7997
  140.5253  143.2327  151.7358 H   0  0  0  0  0  0  0  0  0  0  0  0  # atno 10167 bound_to 10162
  156.0341  130.4362  150.2518 H   0  0  0  0  0  0  0  0  0  0  0  0  # atno 10718 bound_to 10713
  154.3585  135.6121  153.5678 H   0  0  0  0  0  0  0  0  0  0  0  0  # atno 10763 bound_to 10752
  152.9794  135.5809  154.4661 H   0  0  0  0  0  0  0  0  0  0  0  0  # atno 10764 bound_to 10752
  154.4394  135.2850  155.1835 H   0  0  0  0  0  0  0  0  0  0  0  0  # atno 10765 bound_to 10752
  141.1239  133.8461  157.1204 H   0  0  0  0  0  0  0  0  0  0  0  0  # atno 11005 bound_to 11000
  145.2207  139.2160  143.5094 LP  0  0  0  0  0  0  0  0  0  0  0  0  # atno 17320 bound_to 7965
  146.3444  140.2064  142.8589 LP  0  0  0  0  0  0  0  0  0  0  0  0  # atno 17321 bound_to 7965
  139.4936  144.4194  151.9994 LP  0  0  0  0  0  0  0  0  0  0  0  0  # atno 17342 bound_to 10162
  140.3293  144.3335  150.5991 LP  0  0  0  0  0  0  0  0  0  0  0  0  # atno 17343 bound_to 10162
  157.0619  131.0092  151.3220 LP  0  0  0  0  0  0  0  0  0  0  0  0  # atno 17370 bound_to 10713
  157.5064  130.7911  149.7658 LP  0  0  0  0  0  0  0  0  0  0  0  0  # atno 17371 bound_to 10713
  140.0220  134.9941  157.0611 LP  0  0  0  0  0  0  0  0  0  0  0  0  # atno 17394 bound_to 11000
  140.4424  134.1667  155.7175 LP  0  0  0  0  0  0  0  0  0  0  0  0  # atno 17395 bound_to 11000

$$$$
