AV-unprocessed.smi:2492|AV-procd|sdf|9818|dock5
  -GOLD-   2272013453D 1   1.00000     0.00000
 Structure written by MMmdl.
 32 33  0  0  0  0  0  0  0  0  2 V2000
  145.2523  132.3011  150.6524 C   0  0  0  0  0  0  0  0  0  0  0  0
  146.6171  131.6072  151.6222 S   0  0  0  0  0  0  0  0  0  0  0  0
  147.2162  133.1085  152.4498 C   0  0  1  0  0  0  0  0  0  0  0  0
  146.1354  133.7873  153.2875 C   0  0  0  0  0  0  0  0  0  0  0  0
  146.9113  134.6803  154.2578 C   0  0  0  0  0  0  0  0  0  0  0  0
  148.2772  133.9989  154.4701 C   0  0  2  0  0  0  0  0  0  0  0  0
  149.3679  134.9494  154.2619 N   0  0  0  0  0  0  0  0  0  0  0  0
  150.3780  135.1876  155.1110 C   0  0  0  0  0  0  0  0  0  0  0  0
  150.4452  134.5687  156.1757 O   0  0  0  0  0  0  0  0  0  0  0  0
  151.2470  136.1265  154.6730 N   0  5  0  0  0  0  0  0  0  0  0  0
  150.8601  137.4098  154.5866 C   0  0  0  0  0  0  0  0  0  0  0  0
  149.6024  137.8448  154.4974 N   0  0  0  0  0  0  0  0  0  0  0  0
  149.7770  139.1914  154.4263 C   0  0  0  0  0  0  0  0  0  0  0  0
  148.6417  140.1506  154.3152 C   0  0  0  0  0  0  0  0  0  0  0  0
  151.0326  139.6131  154.4526 N   0  0  0  0  0  0  0  0  0  0  0  0
  151.7654  138.4224  154.5569 O   0  0  0  0  0  0  0  0  0  0  0  0
  148.3370  132.8389  153.4570 C   0  0  0  0  0  0  0  0  0  0  0  0
  144.7403  131.5090  150.1061 H   0  0  0  0  0  0  0  0  0  0  0  0
  145.6242  133.0297  149.9323 H   0  0  0  0  0  0  0  0  0  0  0  0
  144.5315  132.7926  151.3058 H   0  0  0  0  0  0  0  0  0  0  0  0
  147.5705  133.8124  151.6952 H   0  0  0  0  0  0  0  0  0  0  0  0
  145.4243  134.3485  152.6804 H   0  0  0  0  0  0  0  0  0  0  0  0
  145.5753  133.0396  153.8509 H   0  0  0  0  0  0  0  0  0  0  0  0
  147.0374  135.6677  153.8103 H   0  0  0  0  0  0  0  0  0  0  0  0
  146.3735  134.8206  155.1960 H   0  0  0  0  0  0  0  0  0  0  0  0
  148.3312  133.6014  155.4853 H   0  0  0  0  0  0  0  0  0  0  0  0
  149.3538  135.4774  153.4016 H   0  0  0  0  0  0  0  0  0  0  0  0
  148.5512  140.5077  153.2891 H   0  0  0  0  0  0  0  0  0  0  0  0
  148.8007  141.0077  154.9702 H   0  0  0  0  0  0  0  0  0  0  0  0
  147.7045  139.6708  154.5989 H   0  0  0  0  0  0  0  0  0  0  0  0
  148.1427  131.9020  153.9811 H   0  0  0  0  0  0  0  0  0  0  0  0
  149.3091  132.7375  152.9729 H   0  0  0  0  0  0  0  0  0  0  0  0
  1  2  1  0  0  0  0
  1 18  1  0  0  0  0
  1 19  1  0  0  0  0
  1 20  1  0  0  0  0
  2  3  1  0  0  0  0
  3 17  1  0  0  0  0
  3  4  1  0  0  0  0
  3 21  1  0  0  0  0
  4  5  1  0  0  0  0
  4 22  1  0  0  0  0
  4 23  1  0  0  0  0
  5  6  1  0  0  0  0
  5 24  1  0  0  0  0
  5 25  1  0  0  0  0
  6  7  1  0  0  0  0
  6 17  1  0  0  0  0
  6 26  1  0  0  0  0
  7  8  1  0  0  0  0
  7 27  1  0  0  0  0
  8  9  2  0  0  0  0
  8 10  1  0  0  0  0
 10 11  1  0  0  0  0
 11 16  1  0  0  0  0
 11 12  2  0  0  0  0
 12 13  1  0  0  0  0
 13 14  1  0  0  0  0
 13 15  2  0  0  0  0
 14 28  1  0  0  0  0
 14 29  1  0  0  0  0
 14 30  1  0  0  0  0
 15 16  1  0  0  0  0
 17 31  1  0  0  0  0
 17 32  1  0  0  0  0
M  CHG  1  10  -1
M  END
> <s_m_source_file>
AV-unprocessed.smi

> <i_m_source_file_index>
2492

> <i_lp_mmshare_version>
43012

> <i_f3d_flags>
0

> <s_epik_input>
W0NIM11TW0NAQEhdMVtDSDJdW0NIMl1bQ0BIXShbQ0gyXTEpW05IXUMoPU8pW05IXWMybmMoW0NIM10pbm8y

> <s_epik_cmdline>
J2VwaWtfcHl0aG9uJywgJy1waCcsICc3LjAnLCAnLXRuJywgJzgnLCAnLW1hJywgJzIwMCcsICctbWV0YWxfYmluZGluZycsICctaW1hZScsICc8aW5maWxlLm1hZT4nLCAnLW9tYWUnLCAnPG91dGZpbGUubWFlPic=

> <r_lp_tautomer_probability>
1

> <r_epik_Ionization_Penalty>
6.26454

> <r_epik_Ionization_Penalty_Charging>
6.26445

> <r_epik_Ionization_Penalty_Neutral>
9.05726e-05

> <r_epik_State_Penalty>
6.26444

> <r_epik_Charging_Adjusted_Penalty>
12.5289

> <i_epik_Tot_Q>
-1

> <i_epik_Tot_abs_Q>
1

> <r_epik_Metal_State_Penalty>
2.20125

> <b_epik_Metal_Only>
1

> <s_lp_Force_Field>
OPLS_2005

> <r_lp_Energy>
10.5143

> <b_lp_Chiralities_Consistent>
1

> <s_lp_Variant>
AV-unprocessed.smi:2492-8

> <Gold.Version>
5.8.1

> <Gold.Id.Protein>
6NUR|6NUR_protein|mol2

> <Gold.PLP.Fitness>
36.7431

> <Gold.PLP.PLP>
-26.3278

> <Gold.PLP.part.hbond>
-3.0000

> <Gold.PLP.part.metal>
0.0000

> <Gold.PLP.part.buried>
-5.0031

> <Gold.PLP.part.nonpolar>
-19.7802

> <Gold.PLP.part.repulsive>
0.5469

> <Gold.PLP.ligand.clash>
0.0000

> <Gold.PLP.ligand.torsion>
0.8051

> <Gold.PLP.Chemscore.Hbond>
4.0000

> <Gold.PLP.Chemscore.CHOScore>
0.0000

> <Gold.PLP.Chemscore.Metal>
0.0000

> <Gold.Chemscore.Hbonds>
donor molecule, donor type, donor heavy atom, donor atom, acceptor molecule, acceptor atom, score
      L1  H     7    27       P1  7948  0.95
      P1  H  7989  7998       L1    15  1.00
      P1  H 10752 10763       L1    10  2.00

> <Gold.PLP.Chemscore.Internal.Correction>
0.0255

> <Gold.Rescore>
     Score         DG    S(hbond)    S(metal)    S(lipo)     H(rot)  DE(clash)    DE(int)     intcor
     13.74     -15.88       2.71        0.00      39.49       1.27       0.00       2.14       ----

> <Gold.Chemscore.Fitness>
13.7391

> <Gold.Chemscore.DG>
-15.8850

> <Gold.Chemscore.ZeroCoef>
-5.4800

> <Gold.Chemscore.Hbond>
2.7063

> <Gold.Chemscore.Metal>
0.0000

> <Gold.Chemscore.Lipo>
39.4870

> <Gold.Chemscore.Internal_Hbond>
0.0000

> <Gold.Chemscore.DEClash>
0.0029

> <Gold.Chemscore.DEInternal>
2.1430

> <Gold.Chemscore.Rot>
1.2712

> <Gold.Chemscore.Internal.Correction>
   9.000000E+99

> <Gold.Chemscore.Hbonds>
donor molecule, donor type, donor heavy atom, donor atom, acceptor molecule, acceptor atom, score
      L1  H     7    27       P1  7948  0.22
      P1  H  7989  7998       L1    15  0.96
      P1  H 10752 10763       L1    10  0.90

> <Gold.Chemscore.Hbond.Weighted>
-9.0392

> <Gold.Chemscore.Metal.Weighted>
-0.0000

> <Gold.Chemscore.Lipo.Weighted>
-4.6200

> <Gold.Chemscore.Internal_Hbond.Weighted>
0.0000

> <Gold.Chemscore.DEClash.Weighted>
0.0029

> <Gold.Chemscore.DEInternal.Weighted>
2.1430

> <Gold.Chemscore.Rot.Weighted>
3.2542

> <Gold.Chemscore.Internal.Correction.Weighted>
   9.000000E+99

> <Gold.Protein.RotatedTorsions>
[ 6907 6896 6895 6894 ] final -125.16 input  -60.11 | X-H torsion
[ 7974 7965 7964 7962 ] final -130.54 input  175.53 | X-H torsion
[ 8008 7997 7996 7995 ] final   21.18 input   59.86 | X-H torsion
[ 10167 10162 10161 10158 ] final -158.49 input  -65.29 | X-H torsion
[ 10718 10713 10712 10709 ] final  106.73 input   66.30 | X-H torsion
[ 10763 10752 10751 10750 ] final   58.01 input  -60.55 | X-H torsion
[ 11005 11000 10999 10996 ] final  170.38 input  -57.11 | X-H torsion

> <Gold.Protein.ActiveResidues>
 VAL166  LYS551  ARG553  GLY616  TRP617  ASP618  TYR619  PRO620  LYS621  CYS622 
 ASP623  PHE694  ASN695  SER759  ASP760  ASP761  ALA762  ILE779  LEU786  VAL792 
 PHE793  MET794  SER795  GLU796  ALA797  LYS798  CYS799  TRP800  GLU811  SER814 

> <Gold.Protein.RotatedAtoms>
  150.8839  133.7334  159.2923 H   0  0  0  0  0  0  0  0  0  0  0  0  # atno 6907 bound_to 6896
  151.4906  135.1056  159.9812 H   0  0  0  0  0  0  0  0  0  0  0  0  # atno 6908 bound_to 6896
  152.4778  133.8133  159.7070 H   0  0  0  0  0  0  0  0  0  0  0  0  # atno 6909 bound_to 6896
  144.9465  140.7297  143.4814 H   0  0  0  0  0  0  0  0  0  0  0  0  # atno 7974 bound_to 7965
  154.9467  140.3060  155.5094 H   0  0  0  0  0  0  0  0  0  0  0  0  # atno 8008 bound_to 7997
  156.2991  140.2326  156.4479 H   0  0  0  0  0  0  0  0  0  0  0  0  # atno 8009 bound_to 7997
  154.8093  140.0429  157.1319 H   0  0  0  0  0  0  0  0  0  0  0  0  # atno 8010 bound_to 7997
  139.6688  143.9782  152.2271 H   0  0  0  0  0  0  0  0  0  0  0  0  # atno 10167 bound_to 10162
  157.6656  131.0857  150.6051 H   0  0  0  0  0  0  0  0  0  0  0  0  # atno 10718 bound_to 10713
  152.9861  135.5622  154.5482 H   0  0  0  0  0  0  0  0  0  0  0  0  # atno 10763 bound_to 10752
  154.4924  135.2793  155.1488 H   0  0  0  0  0  0  0  0  0  0  0  0  # atno 10764 bound_to 10752
  154.2952  135.6318  153.5454 H   0  0  0  0  0  0  0  0  0  0  0  0  # atno 10765 bound_to 10752
  140.3077  134.7542  157.3967 H   0  0  0  0  0  0  0  0  0  0  0  0  # atno 11005 bound_to 11000
  145.2910  139.1883  143.4740 LP  0  0  0  0  0  0  0  0  0  0  0  0  # atno 17320 bound_to 7965
  146.3305  140.2887  142.8614 LP  0  0  0  0  0  0  0  0  0  0  0  0  # atno 17321 bound_to 7965
  139.9541  144.6601  150.8143 LP  0  0  0  0  0  0  0  0  0  0  0  0  # atno 17342 bound_to 10162
  140.7610  143.3164  151.2724 LP  0  0  0  0  0  0  0  0  0  0  0  0  # atno 17343 bound_to 10162
  156.6352  130.4443  149.5772 LP  0  0  0  0  0  0  0  0  0  0  0  0  # atno 17370 bound_to 10713
  156.2251  130.6761  151.1408 LP  0  0  0  0  0  0  0  0  0  0  0  0  # atno 17371 bound_to 10713
  140.1052  134.5419  155.8316 LP  0  0  0  0  0  0  0  0  0  0  0  0  # atno 17394 bound_to 11000
  141.2115  133.6707  156.6586 LP  0  0  0  0  0  0  0  0  0  0  0  0  # atno 17395 bound_to 11000

$$$$
