AV-unprocessed.smi:447|AV-procd|sdf|2603|dock9
  -GOLD-   2262023 03D 1   1.00000     0.00000
 Structure written by MMmdl.
 46 48  0  0  0  0  0  0  0  0  2 V2000
  146.7589  133.6101  151.7606 C   0  0  0  0  0  0  0  0  0  0  0  0
  146.6766  133.9259  153.2501 C   0  0  0  0  0  0  0  0  0  0  0  0
  145.8191  133.3850  153.9473 O   0  0  0  0  0  0  0  0  0  0  0  0
  147.5724  134.8051  153.7257 N   0  0  0  0  0  0  0  0  0  0  0  0
  147.6451  135.2639  155.1105 C   0  0  2  0  0  0  0  0  0  0  0  0
  146.3194  135.9250  155.5091 C   0  0  0  0  0  0  0  0  0  0  0  0
  148.7928  136.2040  155.3430 C   0  0  0  0  0  0  0  0  0  0  0  0
  149.6787  136.6381  154.4007 N   0  3  0  0  0  0  0  0  0  0  0  0
  150.6089  137.4979  154.9848 C   0  0  0  0  0  0  0  0  0  0  0  0
  151.6932  138.1752  154.4353 C   0  0  0  0  0  0  0  0  0  0  0  0
  152.4526  138.9739  155.3154 C   0  0  0  0  0  0  0  0  0  0  0  0
  152.1240  139.0751  156.6827 C   0  0  0  0  0  0  0  0  0  0  0  0
  151.0205  138.3860  157.2272 C   0  0  0  0  0  0  0  0  0  0  0  0
  150.2728  137.6001  156.3502 C   0  0  0  0  0  0  0  0  0  0  0  0
  149.1412  136.7935  156.5233 N   0  0  0  0  0  0  0  0  0  0  0  0
  148.5230  136.6853  157.8549 C   0  0  0  0  0  0  0  0  0  0  0  0
  148.4374  135.2307  158.3584 C   0  0  1  0  0  0  0  0  0  0  0  0
  149.6675  134.5665  158.1446 O   0  0  0  0  0  0  0  0  0  0  0  0
  148.0012  135.1745  159.8132 C   0  0  0  0  0  0  0  0  0  0  0  0
  147.8536  136.3612  160.5648 C   0  0  0  0  0  0  0  0  0  0  0  0
  147.4457  136.3018  161.9116 C   0  0  0  0  0  0  0  0  0  0  0  0
  147.1807  135.0568  162.5133 C   0  0  0  0  0  0  0  0  0  0  0  0
  147.3212  133.8710  161.7669 C   0  0  0  0  0  0  0  0  0  0  0  0
  147.7293  133.9296  160.4200 C   0  0  0  0  0  0  0  0  0  0  0  0
  147.7859  133.6765  151.3997 H   0  0  0  0  0  0  0  0  0  0  0  0
  146.1476  134.3120  151.1931 H   0  0  0  0  0  0  0  0  0  0  0  0
  146.3951  132.6011  151.5631 H   0  0  0  0  0  0  0  0  0  0  0  0
  148.2386  135.2004  153.0777 H   0  0  0  0  0  0  0  0  0  0  0  0
  147.7807  134.3840  155.7407 H   0  0  0  0  0  0  0  0  0  0  0  0
  146.3332  136.2267  156.5570 H   0  0  0  0  0  0  0  0  0  0  0  0
  145.4831  135.2381  155.3767 H   0  0  0  0  0  0  0  0  0  0  0  0
  146.1192  136.8137  154.9094 H   0  0  0  0  0  0  0  0  0  0  0  0
  151.9491  138.0964  153.3888 H   0  0  0  0  0  0  0  0  0  0  0  0
  153.3056  139.5174  154.9356 H   0  0  0  0  0  0  0  0  0  0  0  0
  152.7311  139.6928  157.3286 H   0  0  0  0  0  0  0  0  0  0  0  0
  150.7837  138.4663  158.2777 H   0  0  0  0  0  0  0  0  0  0  0  0
  149.0648  137.3182  158.5580 H   0  0  0  0  0  0  0  0  0  0  0  0
  147.5223  137.1127  157.7814 H   0  0  0  0  0  0  0  0  0  0  0  0
  147.6944  134.6999  157.7634 H   0  0  0  0  0  0  0  0  0  0  0  0
  149.8179  134.5111  157.2131 H   0  0  0  0  0  0  0  0  0  0  0  0
  148.0521  137.3208  160.1102 H   0  0  0  0  0  0  0  0  0  0  0  0
  147.3359  137.2120  162.4826 H   0  0  0  0  0  0  0  0  0  0  0  0
  146.8688  135.0114  163.5463 H   0  0  0  0  0  0  0  0  0  0  0  0
  147.1158  132.9158  162.2273 H   0  0  0  0  0  0  0  0  0  0  0  0
  147.8329  133.0145  159.8554 H   0  0  0  0  0  0  0  0  0  0  0  0
  149.6503  136.3565  153.4294 H   0  0  0  0  0  0  0  0  0  0  0  0
  1  2  1  0  0  0  0
  1 25  1  0  0  0  0
  1 26  1  0  0  0  0
  1 27  1  0  0  0  0
  2  3  2  0  0  0  0
  2  4  1  0  0  0  0
  4  5  1  0  0  0  0
  4 28  1  0  0  0  0
  5  6  1  0  0  0  0
  5  7  1  0  0  0  0
  5 29  1  0  0  0  0
  6 30  1  0  0  0  0
  6 31  1  0  0  0  0
  6 32  1  0  0  0  0
  7 15  1  0  0  0  0
  7  8  2  0  0  0  0
  8  9  1  0  0  0  0
  8 46  1  0  0  0  0
  9 14  2  0  0  0  0
  9 10  1  0  0  0  0
 10 11  2  0  0  0  0
 10 33  1  0  0  0  0
 11 12  1  0  0  0  0
 11 34  1  0  0  0  0
 12 13  2  0  0  0  0
 12 35  1  0  0  0  0
 13 14  1  0  0  0  0
 13 36  1  0  0  0  0
 14 15  1  0  0  0  0
 15 16  1  0  0  0  0
 16 17  1  0  0  0  0
 16 37  1  0  0  0  0
 16 38  1  0  0  0  0
 17 18  1  0  0  0  0
 17 19  1  0  0  0  0
 17 39  1  0  0  0  0
 18 40  1  0  0  0  0
 19 24  1  0  0  0  0
 19 20  2  0  0  0  0
 20 21  1  0  0  0  0
 20 41  1  0  0  0  0
 21 22  2  0  0  0  0
 21 42  1  0  0  0  0
 22 23  1  0  0  0  0
 22 43  1  0  0  0  0
 23 24  2  0  0  0  0
 23 44  1  0  0  0  0
 24 45  1  0  0  0  0
M  CHG  1   8   1
M  END
> <s_m_source_file>
AV-unprocessed.smi

> <i_m_source_file_index>
447

> <i_lp_mmshare_version>
43012

> <i_f3d_flags>
0

> <s_epik_input>
W0NIM11DKD1PKVtOSF1bQ0BIXShbQ0gzXSljKG4xKW4oYyhjMTIpW2NIXVtjSF1bY0hdW2NIXTIpW0NIMl1bQ0BIXShbT0hdKWMzW2NIXVtjSF1bY0hdW2NIXVtjSF0z

> <s_epik_cmdline>
J2VwaWtfcHl0aG9uJywgJy1waCcsICc3LjAnLCAnLXRuJywgJzgnLCAnLW1hJywgJzIwMCcsICctbWV0YWxfYmluZGluZycsICctaW1hZScsICc8aW5maWxlLm1hZT4nLCAnLW9tYWUnLCAnPG91dGZpbGUubWFlPic=

> <r_epik_Ionization_Penalty>
0.950381

> <r_epik_Ionization_Penalty_Charging>
0.950379

> <r_epik_Ionization_Penalty_Neutral>
1.42115e-06

> <r_epik_State_Penalty>
0.994584

> <r_epik_Charging_Adjusted_Penalty>
1.94496

> <i_epik_Tot_Q>
1

> <i_epik_Tot_abs_Q>
1

> <r_epik_Metal_State_Penalty>
1.10485

> <b_epik_Metal_Only>
0

> <s_lp_Force_Field>
OPLS_2005

> <r_lp_Energy>
11.1979

> <b_lp_Chiralities_Consistent>
1

> <s_lp_Variant>
AV-unprocessed.smi:447-7

> <Gold.Version>
5.8.1

> <Gold.Id.Protein>
6NUR|6NUR_protein|mol2

> <Gold.PLP.Fitness>
48.2393

> <Gold.PLP.PLP>
-36.4583

> <Gold.PLP.part.hbond>
-2.9274

> <Gold.PLP.part.metal>
0.0000

> <Gold.PLP.part.buried>
-5.6965

> <Gold.PLP.part.nonpolar>
-28.3616

> <Gold.PLP.part.repulsive>
0.1319

> <Gold.PLP.ligand.clash>
0.0000

> <Gold.PLP.ligand.torsion>
0.1340

> <Gold.PLP.Chemscore.Hbond>
4.0000

> <Gold.PLP.Chemscore.CHOScore>
0.0000

> <Gold.PLP.Chemscore.Metal>
0.0000

> <Gold.Chemscore.Hbonds>
donor molecule, donor type, donor heavy atom, donor atom, acceptor molecule, acceptor atom, score
      L1  H     4    28       P1  7948  1.00
      L1  H     8    46       P1  7948  2.00
      P1  H  6896  6908       L1    18  1.00

> <Gold.PLP.Chemscore.Internal.Correction>
0.0489

> <Gold.Rescore>
     Score         DG    S(hbond)    S(metal)    S(lipo)     H(rot)  DE(clash)    DE(int)     intcor
     19.64     -19.74       2.96        0.00      90.13       2.41       0.00       0.09       ----

> <Gold.Chemscore.Fitness>
19.6425

> <Gold.Chemscore.DG>
-19.7371

> <Gold.Chemscore.ZeroCoef>
-5.4800

> <Gold.Chemscore.Hbond>
2.9596

> <Gold.Chemscore.Metal>
0.0000

> <Gold.Chemscore.Lipo>
90.1251

> <Gold.Chemscore.Internal_Hbond>
0.0000

> <Gold.Chemscore.DEClash>
0.0021

> <Gold.Chemscore.DEInternal>
0.0925

> <Gold.Chemscore.Rot>
2.4112

> <Gold.Chemscore.Internal.Correction>
   9.000000E+99

> <Gold.Chemscore.Hbonds>
donor molecule, donor type, donor heavy atom, donor atom, acceptor molecule, acceptor atom, score
      L1  H     4    28       P1  7948  0.97
      L1  H     8    46       P1  7948  0.39
      P1  H  6896  6908       L1    18  0.95

> <Gold.Chemscore.Hbond.Weighted>
-9.8851

> <Gold.Chemscore.Metal.Weighted>
-0.0000

> <Gold.Chemscore.Lipo.Weighted>
-10.5446

> <Gold.Chemscore.Internal_Hbond.Weighted>
0.0000

> <Gold.Chemscore.DEClash.Weighted>
0.0021

> <Gold.Chemscore.DEInternal.Weighted>
0.0925

> <Gold.Chemscore.Rot.Weighted>
6.1727

> <Gold.Chemscore.Internal.Correction.Weighted>
   9.000000E+99

> <Gold.Protein.RotatedTorsions>
[ 6907 6896 6895 6894 ] final  153.11 input  -60.11 | X-H torsion
[ 7974 7965 7964 7962 ] final  122.82 input  175.53 | X-H torsion
[ 8008 7997 7996 7995 ] final -154.35 input   59.86 | X-H torsion
[ 10167 10162 10161 10158 ] final  169.39 input  -65.29 | X-H torsion
[ 10718 10713 10712 10709 ] final  -39.83 input   66.30 | X-H torsion
[ 10763 10752 10751 10750 ] final   83.03 input  -60.55 | X-H torsion
[ 11005 11000 10999 10996 ] final  -29.57 input  -57.11 | X-H torsion

> <Gold.Protein.ActiveResidues>
 VAL166  LYS551  ARG553  GLY616  TRP617  ASP618  TYR619  PRO620  LYS621  CYS622 
 ASP623  PHE694  ASN695  SER759  ASP760  ASP761  ALA762  ILE779  LEU786  VAL792 
 PHE793  MET794  SER795  GLU796  ALA797  LYS798  CYS799  TRP800  GLU811  SER814 

> <Gold.Protein.RotatedAtoms>
  152.0773  133.4135  159.4485 H   0  0  0  0  0  0  0  0  0  0  0  0  # atno 6907 bound_to 6896
  150.6862  134.3023  159.4720 H   0  0  0  0  0  0  0  0  0  0  0  0  # atno 6908 bound_to 6896
  152.0861  134.9438  160.0623 H   0  0  0  0  0  0  0  0  0  0  0  0  # atno 6909 bound_to 6896
  145.1031  139.3504  143.4801 H   0  0  0  0  0  0  0  0  0  0  0  0  # atno 7974 bound_to 7965
  155.6850  140.0748  157.2470 H   0  0  0  0  0  0  0  0  0  0  0  0  # atno 8008 bound_to 7997
  154.4099  140.1675  156.2075 H   0  0  0  0  0  0  0  0  0  0  0  0  # atno 8009 bound_to 7997
  155.9502  140.3378  155.6404 H   0  0  0  0  0  0  0  0  0  0  0  0  # atno 8010 bound_to 7997
  139.4991  144.3711  151.9724 H   0  0  0  0  0  0  0  0  0  0  0  0  # atno 10167 bound_to 10162
  156.2881  130.4225  149.8266 H   0  0  0  0  0  0  0  0  0  0  0  0  # atno 10718 bound_to 10713
  153.1255  135.4706  154.9265 H   0  0  0  0  0  0  0  0  0  0  0  0  # atno 10763 bound_to 10752
  154.7616  135.3133  154.8370 H   0  0  0  0  0  0  0  0  0  0  0  0  # atno 10764 bound_to 10752
  153.8924  135.6883  153.4813 H   0  0  0  0  0  0  0  0  0  0  0  0  # atno 10765 bound_to 10752
  140.9307  133.7340  156.0933 H   0  0  0  0  0  0  0  0  0  0  0  0  # atno 11005 bound_to 11000
  146.3529  140.0917  142.8612 LP  0  0  0  0  0  0  0  0  0  0  0  0  # atno 17320 bound_to 7965
  145.0932  140.9298  143.4756 LP  0  0  0  0  0  0  0  0  0  0  0  0  # atno 17321 bound_to 7965
  140.3147  144.3498  150.6025 LP  0  0  0  0  0  0  0  0  0  0  0  0  # atno 17342 bound_to 10162
  140.5771  143.2175  151.7496 LP  0  0  0  0  0  0  0  0  0  0  0  0  # atno 17343 bound_to 10162
  156.5689  130.8416  151.3351 LP  0  0  0  0  0  0  0  0  0  0  0  0  # atno 17370 bound_to 10713
  157.7334  130.9731  150.1978 LP  0  0  0  0  0  0  0  0  0  0  0  0  # atno 17371 bound_to 10713
  140.7866  134.3665  157.5475 LP  0  0  0  0  0  0  0  0  0  0  0  0  # atno 17394 bound_to 11000
  139.8796  134.9114  156.3037 LP  0  0  0  0  0  0  0  0  0  0  0  0  # atno 17395 bound_to 11000

$$$$
