AV-unprocessed.smi:1683|AV-procd|sdf|6750|dock10
  -GOLD-   22720 7503D 1   1.00000     0.00000
 Structure written by MMmdl.
 37 38  0  0  0  0  0  0  0  0  2 V2000
  144.3825  136.2966  151.8074 O   0  0  0  0  0  0  0  0  0  0  0  0
  145.6021  136.1487  151.7253 C   0  0  0  0  0  0  0  0  0  0  0  0
  146.4860  137.0893  152.0878 N   0  0  0  0  0  0  0  0  0  0  0  0
  146.1344  138.4060  152.6093 C   0  0  0  0  0  0  0  0  0  0  0  0
  147.3804  139.2489  152.9419 C   0  0  1  0  0  0  0  0  0  0  0  0
  147.0881  140.6826  153.3766 C   0  0  0  0  0  0  0  0  0  0  0  0
  148.3770  141.0803  154.0906 C   0  0  0  0  0  0  0  0  0  0  0  0
  148.8491  139.8546  154.7741 N   0  3  2  0  0  0  0  0  0  0  0  0
  150.3217  139.7414  154.9210 C   0  0  0  0  0  0  0  0  0  0  0  0
  150.8580  140.4703  156.1663 C   0  0  0  0  0  0  0  0  0  0  0  0
  150.7232  141.7840  155.9913 F   0  0  0  0  0  0  0  0  0  0  0  0
  150.1833  140.1204  157.2610 F   0  0  0  0  0  0  0  0  0  0  0  0
  152.1504  140.1925  156.3379 F   0  0  0  0  0  0  0  0  0  0  0  0
  148.2140  138.6934  154.1040 C   0  0  0  0  0  0  0  0  0  0  0  0
  146.2184  135.0432  151.2756 N   0  0  0  0  0  0  0  0  0  0  0  0
  145.6107  133.8604  150.7831 C   0  0  0  0  0  0  0  0  0  0  0  0
  144.2930  133.7866  150.2550 C   0  0  0  0  0  0  0  0  0  0  0  0
  143.9919  132.5527  149.8765 N   0  0  0  0  0  0  0  0  0  0  0  0
  145.1040  131.8377  150.1597 N   0  0  0  0  0  0  0  0  0  0  0  0
  146.1146  132.5919  150.7137 C   0  0  0  0  0  0  0  0  0  0  0  0
  145.1572  130.8463  149.9728 H   0  0  0  0  0  0  0  0  0  0  0  0
  147.4696  136.8846  151.9864 H   0  0  0  0  0  0  0  0  0  0  0  0
  145.5255  138.9147  151.8614 H   0  0  0  0  0  0  0  0  0  0  0  0
  145.5050  138.2970  153.4943 H   0  0  0  0  0  0  0  0  0  0  0  0
  148.0277  139.2914  152.0638 H   0  0  0  0  0  0  0  0  0  0  0  0
  146.8495  141.3404  152.5403 H   0  0  0  0  0  0  0  0  0  0  0  0
  146.2508  140.7054  154.0758 H   0  0  0  0  0  0  0  0  0  0  0  0
  149.1122  141.4034  153.3516 H   0  0  0  0  0  0  0  0  0  0  0  0
  148.2241  141.8993  154.7939 H   0  0  0  0  0  0  0  0  0  0  0  0
  150.5731  138.6838  155.0151 H   0  0  0  0  0  0  0  0  0  0  0  0
  150.8194  140.0987  154.0179 H   0  0  0  0  0  0  0  0  0  0  0  0
  147.5775  138.1945  154.8358 H   0  0  0  0  0  0  0  0  0  0  0  0
  148.9388  137.9593  153.7479 H   0  0  0  0  0  0  0  0  0  0  0  0
  147.2278  135.0491  151.2786 H   0  0  0  0  0  0  0  0  0  0  0  0
  143.5602  134.5711  150.1360 H   0  0  0  0  0  0  0  0  0  0  0  0
  147.0652  132.1651  150.9976 H   0  0  0  0  0  0  0  0  0  0  0  0
  148.4636  139.8750  155.7076 H   0  0  0  0  0  0  0  0  0  0  0  0
  1  2  2  0  0  0  0
  2  3  1  0  0  0  0
  2 15  1  0  0  0  0
  3  4  1  0  0  0  0
  3 22  1  0  0  0  0
  4  5  1  0  0  0  0
  4 23  1  0  0  0  0
  4 24  1  0  0  0  0
  5 14  1  0  0  0  0
  5  6  1  0  0  0  0
  5 25  1  0  0  0  0
  6  7  1  0  0  0  0
  6 26  1  0  0  0  0
  6 27  1  0  0  0  0
  7  8  1  0  0  0  0
  7 28  1  0  0  0  0
  7 29  1  0  0  0  0
  8  9  1  0  0  0  0
  8 14  1  0  0  0  0
  8 37  1  0  0  0  0
  9 10  1  0  0  0  0
  9 30  1  0  0  0  0
  9 31  1  0  0  0  0
 10 11  1  0  0  0  0
 10 12  1  0  0  0  0
 10 13  1  0  0  0  0
 14 32  1  0  0  0  0
 14 33  1  0  0  0  0
 15 16  1  0  0  0  0
 15 34  1  0  0  0  0
 16 20  2  0  0  0  0
 16 17  1  0  0  0  0
 17 18  2  0  0  0  0
 17 35  1  0  0  0  0
 18 19  1  0  0  0  0
 19 21  1  0  0  0  0
 19 20  1  0  0  0  0
 20 36  1  0  0  0  0
M  CHG  1   8   1
M  END
> <s_m_source_file>
AV-unprocessed.smi

> <i_m_source_file_index>
1683

> <i_lp_mmshare_version>
43012

> <i_f3d_flags>
0

> <s_epik_input>
W2NIXTFbbkhdbltjSF1jMVtOSF1DKD1PKVtOSF1bQ0gyXVtDQEBIXTJbQ0gyXVtDSDJdTihbQ0gyXTIpW0NIMl1DKEYpKEYpRg==

> <s_epik_cmdline>
J2VwaWtfcHl0aG9uJywgJy1waCcsICc3LjAnLCAnLXRuJywgJzgnLCAnLW1hJywgJzIwMCcsICctbWV0YWxfYmluZGluZycsICctaW1hZScsICc8aW5maWxlLm1hZT4nLCAnLW9tYWUnLCAnPG91dGZpbGUubWFlPic=

> <r_lp_tautomer_probability>
0.5

> <r_epik_Ionization_Penalty>
0.641865

> <r_epik_Ionization_Penalty_Charging>
0.64182

> <r_epik_Ionization_Penalty_Neutral>
4.50685e-05

> <r_epik_State_Penalty>
0.65957

> <r_epik_Charging_Adjusted_Penalty>
1.30139

> <i_epik_Tot_Q>
1

> <i_epik_Tot_abs_Q>
1

> <r_epik_Metal_State_Penalty>
0.659571

> <b_epik_Metal_Only>
0

> <s_lp_Force_Field>
OPLS_2005

> <r_lp_Energy>
31.4735

> <b_lp_Chiralities_Consistent>
1

> <s_lp_Variant>
AV-unprocessed.smi:1683-4

> <Gold.Version>
5.8.1

> <Gold.Id.Protein>
6NUR|6NUR_protein|mol2

> <Gold.PLP.Fitness>
42.9361

> <Gold.PLP.PLP>
-33.0113

> <Gold.PLP.part.hbond>
-2.0000

> <Gold.PLP.part.metal>
0.0000

> <Gold.PLP.part.buried>
-3.5354

> <Gold.PLP.part.nonpolar>
-28.5024

> <Gold.PLP.part.repulsive>
1.1005

> <Gold.PLP.ligand.clash>
0.0000

> <Gold.PLP.ligand.torsion>
0.5147

> <Gold.PLP.Chemscore.Hbond>
1.7134

> <Gold.PLP.Chemscore.CHOScore>
1.7874

> <Gold.PLP.Chemscore.Metal>
0.0000

> <Gold.Chemscore.Hbonds>
donor molecule, donor type, donor heavy atom, donor atom, acceptor molecule, acceptor atom, score
      L1  H     3    22       P1  7948  1.00
      L1  H    15    34       P1  7948  0.71
      L1  C    17    35       P1 10186  0.79
      L1  C    20    36       P1 10747  1.00

> <Gold.PLP.Chemscore.Internal.Correction>
0.4517

> <Gold.Rescore>
     Score         DG    S(hbond)    S(metal)    S(lipo)     H(rot)  DE(clash)    DE(int)     intcor
     12.51     -14.29       1.81        0.00      63.21       1.81       0.05       1.72       ----

> <Gold.Chemscore.Fitness>
12.5132

> <Gold.Chemscore.DG>
-14.2871

> <Gold.Chemscore.ZeroCoef>
-5.4800

> <Gold.Chemscore.Hbond>
1.8110

> <Gold.Chemscore.Metal>
0.0000

> <Gold.Chemscore.Lipo>
63.2138

> <Gold.Chemscore.Internal_Hbond>
0.0000

> <Gold.Chemscore.DEClash>
0.0515

> <Gold.Chemscore.DEInternal>
1.7224

> <Gold.Chemscore.Rot>
1.8116

> <Gold.Chemscore.Internal.Correction>
   9.000000E+99

> <Gold.Chemscore.Hbonds>
donor molecule, donor type, donor heavy atom, donor atom, acceptor molecule, acceptor atom, score
      L1  H     3    22       P1  7948  0.99
      L1  H    15    34       P1  7948  0.44

> <Gold.Chemscore.Hbond.Weighted>
-6.0488

> <Gold.Chemscore.Metal.Weighted>
-0.0000

> <Gold.Chemscore.Lipo.Weighted>
-7.3960

> <Gold.Chemscore.Internal_Hbond.Weighted>
0.0000

> <Gold.Chemscore.DEClash.Weighted>
0.0515

> <Gold.Chemscore.DEInternal.Weighted>
1.7224

> <Gold.Chemscore.Rot.Weighted>
4.6378

> <Gold.Chemscore.Internal.Correction.Weighted>
   9.000000E+99

> <Gold.Protein.RotatedTorsions>
[ 6907 6896 6895 6894 ] final   75.04 input  -60.11 | X-H torsion
[ 7974 7965 7964 7962 ] final   32.76 input  175.53 | X-H torsion
[ 8008 7997 7996 7995 ] final   96.49 input   59.86 | X-H torsion
[ 10167 10162 10161 10158 ] final   36.68 input  -65.29 | X-H torsion
[ 10718 10713 10712 10709 ] final  175.60 input   66.30 | X-H torsion
[ 10763 10752 10751 10750 ] final  130.30 input  -60.55 | X-H torsion
[ 11005 11000 10999 10996 ] final  -28.64 input  -57.11 | X-H torsion

> <Gold.Protein.ActiveResidues>
 VAL166  LYS551  ARG553  GLY616  TRP617  ASP618  TYR619  PRO620  LYS621  CYS622 
 ASP623  PHE694  ASN695  SER759  ASP760  ASP761  ALA762  ILE779  LEU786  VAL792 
 PHE793  MET794  SER795  GLU796  ALA797  LYS798  CYS799  TRP800  GLU811  SER814 

> <Gold.Protein.RotatedAtoms>
  152.5006  134.4181  159.9470 H   0  0  0  0  0  0  0  0  0  0  0  0  # atno 6907 bound_to 6896
  151.4152  133.3709  159.2757 H   0  0  0  0  0  0  0  0  0  0  0  0  # atno 6908 bound_to 6896
  150.9262  134.8701  159.7581 H   0  0  0  0  0  0  0  0  0  0  0  0  # atno 6909 bound_to 6896
  146.1465  139.6484  142.9127 H   0  0  0  0  0  0  0  0  0  0  0  0  # atno 7974 bound_to 7965
  156.0801  140.3272  155.7683 H   0  0  0  0  0  0  0  0  0  0  0  0  # atno 8008 bound_to 7997
  155.5166  140.0581  157.2931 H   0  0  0  0  0  0  0  0  0  0  0  0  # atno 8009 bound_to 7997
  154.4577  140.1951  156.0349 H   0  0  0  0  0  0  0  0  0  0  0  0  # atno 8010 bound_to 7997
  140.4104  144.1600  150.6139 H   0  0  0  0  0  0  0  0  0  0  0  0  # atno 10167 bound_to 10162
  156.9325  130.9975  151.2984 H   0  0  0  0  0  0  0  0  0  0  0  0  # atno 10718 bound_to 10713
  153.7559  135.3203  155.3329 H   0  0  0  0  0  0  0  0  0  0  0  0  # atno 10763 bound_to 10752
  154.8247  135.4578  154.0886 H   0  0  0  0  0  0  0  0  0  0  0  0  # atno 10764 bound_to 10752
  153.2102  135.6934  153.8206 H   0  0  0  0  0  0  0  0  0  0  0  0  # atno 10765 bound_to 10752
  140.9227  133.7389  156.0823 H   0  0  0  0  0  0  0  0  0  0  0  0  # atno 11005 bound_to 11000
  145.4924  141.0438  143.2585 LP  0  0  0  0  0  0  0  0  0  0  0  0  # atno 17320 bound_to 7965
  144.7853  139.6440  143.7137 LP  0  0  0  0  0  0  0  0  0  0  0  0  # atno 17321 bound_to 7965
  140.4643  143.2437  151.9176 LP  0  0  0  0  0  0  0  0  0  0  0  0  # atno 17342 bound_to 10162
  139.4782  144.5435  151.8493 LP  0  0  0  0  0  0  0  0  0  0  0  0  # atno 17343 bound_to 10162
  157.5838  130.8395  149.8560 LP  0  0  0  0  0  0  0  0  0  0  0  0  # atno 17370 bound_to 10713
  156.0441  130.3732  150.1362 LP  0  0  0  0  0  0  0  0  0  0  0  0  # atno 17371 bound_to 10713
  140.7967  134.3555  157.5450 LP  0  0  0  0  0  0  0  0  0  0  0  0  # atno 17394 bound_to 11000
  139.8779  134.9173  156.3175 LP  0  0  0  0  0  0  0  0  0  0  0  0  # atno 17395 bound_to 11000

$$$$
