AV-unprocessed.smi:3173|AV-procd|sdf|12120|dock6
  -GOLD-   2272017563D 1   1.00000     0.00000
 Structure written by MMmdl.
 36 37  0  0  0  0  0  0  0  0  2 V2000
  151.2992  140.3584  155.0411 O   0  0  0  0  0  0  0  0  0  0  0  0
  150.2285  139.8134  155.3109 C   0  0  0  0  0  0  0  0  0  0  0  0
  149.5833  138.8337  154.3243 C   0  0  0  0  0  0  0  0  0  0  0  0
  148.0884  139.1146  154.0647 C   0  0  1  0  0  0  0  0  0  0  0  0
  147.8737  140.3968  153.3024 C   0  0  0  0  0  0  0  0  0  0  0  0
  147.0935  140.2379  152.2355 C   0  0  0  0  0  0  0  0  0  0  0  0
  146.6303  138.8176  152.0677 C   0  0  0  0  0  0  0  0  0  0  0  0
  147.3764  138.0529  153.1835 C   0  0  0  0  0  0  0  0  0  0  0  0
  149.5664  140.0250  156.4589 N   0  0  0  0  0  0  0  0  0  0  0  0
  150.0024  140.9245  157.5207 C   0  0  0  0  0  0  0  0  0  0  0  0
  150.6186  142.2155  156.9552 C   0  0  0  0  0  0  0  0  0  0  0  0
  151.1062  143.1451  158.0493 C   0  0  0  0  0  0  0  0  0  0  0  0
  152.0795  142.7473  158.9914 C   0  0  0  0  0  0  0  0  0  0  0  0
  152.4964  143.6630  159.9800 C   0  0  0  0  0  0  0  0  0  0  0  0
  151.9324  144.9552  160.0058 C   0  0  0  0  0  0  0  0  0  0  0  0
  150.9653  145.3002  159.0395 C   0  0  0  0  0  0  0  0  0  0  0  0
  150.5925  144.3953  158.1078 N   0  3  0  0  0  0  0  0  0  0  0  0
  150.1361  138.8929  153.3862 H   0  0  0  0  0  0  0  0  0  0  0  0
  149.7060  137.8131  154.6905 H   0  0  0  0  0  0  0  0  0  0  0  0
  147.5603  139.2202  155.0138 H   0  0  0  0  0  0  0  0  0  0  0  0
  148.3056  141.3345  153.6205 H   0  0  0  0  0  0  0  0  0  0  0  0
  146.7977  141.0246  151.5572 H   0  0  0  0  0  0  0  0  0  0  0  0
  145.5486  138.7638  152.1947 H   0  0  0  0  0  0  0  0  0  0  0  0
  146.8860  138.4418  151.0765 H   0  0  0  0  0  0  0  0  0  0  0  0
  148.1019  137.3760  152.7303 H   0  0  0  0  0  0  0  0  0  0  0  0
  146.6943  137.4397  153.7733 H   0  0  0  0  0  0  0  0  0  0  0  0
  148.6942  139.5357  156.6004 H   0  0  0  0  0  0  0  0  0  0  0  0
  149.1619  141.1583  158.1768 H   0  0  0  0  0  0  0  0  0  0  0  0
  150.7353  140.3969  158.1316 H   0  0  0  0  0  0  0  0  0  0  0  0
  151.4535  141.9744  156.2959 H   0  0  0  0  0  0  0  0  0  0  0  0
  149.8886  142.7475  156.3435 H   0  0  0  0  0  0  0  0  0  0  0  0
  152.5038  141.7542  158.9569 H   0  0  0  0  0  0  0  0  0  0  0  0
  153.2402  143.3775  160.7096 H   0  0  0  0  0  0  0  0  0  0  0  0
  152.2382  145.6711  160.7549 H   0  0  0  0  0  0  0  0  0  0  0  0
  150.4830  146.2651  158.9841 H   0  0  0  0  0  0  0  0  0  0  0  0
  149.8916  144.6676  157.4182 H   0  0  0  0  0  0  0  0  0  0  0  0
  1  2  2  0  0  0  0
  2  3  1  0  0  0  0
  2  9  1  0  0  0  0
  3  4  1  0  0  0  0
  3 18  1  0  0  0  0
  3 19  1  0  0  0  0
  4  8  1  0  0  0  0
  4  5  1  0  0  0  0
  4 20  1  0  0  0  0
  5  6  2  0  0  0  0
  5 21  1  0  0  0  0
  6  7  1  0  0  0  0
  6 22  1  0  0  0  0
  7  8  1  0  0  0  0
  7 23  1  0  0  0  0
  7 24  1  0  0  0  0
  8 25  1  0  0  0  0
  8 26  1  0  0  0  0
  9 10  1  0  0  0  0
  9 27  1  0  0  0  0
 10 11  1  0  0  0  0
 10 28  1  0  0  0  0
 10 29  1  0  0  0  0
 11 12  1  0  0  0  0
 11 30  1  0  0  0  0
 11 31  1  0  0  0  0
 12 17  1  0  0  0  0
 12 13  2  0  0  0  0
 13 14  1  0  0  0  0
 13 32  1  0  0  0  0
 14 15  2  0  0  0  0
 14 33  1  0  0  0  0
 15 16  1  0  0  0  0
 15 34  1  0  0  0  0
 16 17  2  0  0  0  0
 16 35  1  0  0  0  0
 17 36  1  0  0  0  0
M  CHG  1  17   1
M  END
> <s_m_source_file>
AV-unprocessed.smi

> <i_m_source_file_index>
3173

> <i_lp_mmshare_version>
43012

> <i_f3d_flags>
0

> <s_epik_input>
W0NIMl0xW0NIMl1bQ0hdPVtDSF1bQ0BIXTFbQ0gyXUMoPU8pW05IXVtDSDJdW0NIMl1jMltjSF1bY0hdW2NIXVtjSF1uMg==

> <s_epik_cmdline>
J2VwaWtfcHl0aG9uJywgJy1waCcsICc3LjAnLCAnLXRuJywgJzgnLCAnLW1hJywgJzIwMCcsICctbWV0YWxfYmluZGluZycsICctaW1hZScsICc8aW5maWxlLm1hZT4nLCAnLW9tYWUnLCAnPG91dGZpbGUubWFlPic=

> <r_epik_Ionization_Penalty>
1.86798

> <r_epik_Ionization_Penalty_Charging>
1.86798

> <r_epik_Ionization_Penalty_Neutral>
1.53848e-08

> <r_epik_State_Penalty>
1.98677

> <r_epik_Charging_Adjusted_Penalty>
3.85475

> <i_epik_Tot_Q>
1

> <i_epik_Tot_abs_Q>
1

> <r_epik_Metal_State_Penalty>
2.01174

> <b_epik_Metal_Only>
0

> <s_lp_Force_Field>
OPLS_2005

> <r_lp_Energy>
20.3145

> <b_lp_Chiralities_Consistent>
1

> <s_lp_Variant>
AV-unprocessed.smi:3173-4

> <Gold.Version>
5.8.1

> <Gold.Id.Protein>
6NUR|6NUR_protein|mol2

> <Gold.PLP.Fitness>
42.6357

> <Gold.PLP.PLP>
-34.1892

> <Gold.PLP.part.hbond>
-1.9877

> <Gold.PLP.part.metal>
0.0000

> <Gold.PLP.part.buried>
3.6283

> <Gold.PLP.part.nonpolar>
-36.2814

> <Gold.PLP.part.repulsive>
0.1456

> <Gold.PLP.ligand.clash>
0.0000

> <Gold.PLP.ligand.torsion>
0.2963

> <Gold.PLP.Chemscore.Hbond>
3.0000

> <Gold.PLP.Chemscore.CHOScore>
0.0000

> <Gold.PLP.Chemscore.Metal>
0.0000

> <Gold.Chemscore.Hbonds>
donor molecule, donor type, donor heavy atom, donor atom, acceptor molecule, acceptor atom, score
      L1  H    17    36       P1  8028  1.50
      P1  H  7989  7998       L1     1  1.00

> <Gold.PLP.Chemscore.Internal.Correction>
0.0391

> <Gold.Rescore>
     Score         DG    S(hbond)    S(metal)    S(lipo)     H(rot)  DE(clash)    DE(int)     intcor
     16.88     -19.13       1.46        0.00     110.25       1.61       0.43       1.81       ----

> <Gold.Chemscore.Fitness>
16.8789

> <Gold.Chemscore.DG>
-19.1252

> <Gold.Chemscore.ZeroCoef>
-5.4800

> <Gold.Chemscore.Hbond>
1.4591

> <Gold.Chemscore.Metal>
0.0000

> <Gold.Chemscore.Lipo>
110.2467

> <Gold.Chemscore.Internal_Hbond>
0.0000

> <Gold.Chemscore.DEClash>
0.4329

> <Gold.Chemscore.DEInternal>
1.8133

> <Gold.Chemscore.Rot>
1.6122

> <Gold.Chemscore.Internal.Correction>
   9.000000E+99

> <Gold.Chemscore.Hbonds>
donor molecule, donor type, donor heavy atom, donor atom, acceptor molecule, acceptor atom, score
      L1  H    17    36       P1  8028  0.09
      P1  H  7989  7998       L1     1  0.95

> <Gold.Chemscore.Hbond.Weighted>
-4.8734

> <Gold.Chemscore.Metal.Weighted>
-0.0000

> <Gold.Chemscore.Lipo.Weighted>
-12.8989

> <Gold.Chemscore.Internal_Hbond.Weighted>
0.0000

> <Gold.Chemscore.DEClash.Weighted>
0.4329

> <Gold.Chemscore.DEInternal.Weighted>
1.8133

> <Gold.Chemscore.Rot.Weighted>
4.1271

> <Gold.Chemscore.Internal.Correction.Weighted>
   9.000000E+99

> <Gold.Protein.RotatedTorsions>
[ 6907 6896 6895 6894 ] final   15.94 input  -60.11 | X-H torsion
[ 7974 7965 7964 7962 ] final   98.16 input  175.53 | X-H torsion
[ 8008 7997 7996 7995 ] final -131.54 input   59.86 | X-H torsion
[ 10167 10162 10161 10158 ] final  -72.21 input  -65.29 | X-H torsion
[ 10718 10713 10712 10709 ] final  -72.97 input   66.30 | X-H torsion
[ 10763 10752 10751 10750 ] final   77.81 input  -60.55 | X-H torsion
[ 11005 11000 10999 10996 ] final   -7.01 input  -57.11 | X-H torsion

> <Gold.Protein.ActiveResidues>
 VAL166  LYS551  ARG553  GLY616  TRP617  ASP618  TYR619  PRO620  LYS621  CYS622 
 ASP623  PHE694  ASN695  SER759  ASP760  ASP761  ALA762  ILE779  LEU786  VAL792 
 PHE793  MET794  SER795  GLU796  ALA797  LYS798  CYS799  TRP800  GLU811  SER814 

> <Gold.Protein.RotatedAtoms>
  151.8261  135.0636  160.0430 H   0  0  0  0  0  0  0  0  0  0  0  0  # atno 6907 bound_to 6896
  152.2915  133.5561  159.5569 H   0  0  0  0  0  0  0  0  0  0  0  0  # atno 6908 bound_to 6896
  150.7232  134.0338  159.3784 H   0  0  0  0  0  0  0  0  0  0  0  0  # atno 6909 bound_to 6896
  145.4158  139.2327  143.3223 H   0  0  0  0  0  0  0  0  0  0  0  0  # atno 7974 bound_to 7965
  155.3141  140.0459  157.3036 H   0  0  0  0  0  0  0  0  0  0  0  0  # atno 8008 bound_to 7997
  154.5416  140.2289  155.8597 H   0  0  0  0  0  0  0  0  0  0  0  0  # atno 8009 bound_to 7997
  156.1886  140.3056  155.9294 H   0  0  0  0  0  0  0  0  0  0  0  0  # atno 8010 bound_to 7997
  140.5210  143.2331  151.7429 H   0  0  0  0  0  0  0  0  0  0  0  0  # atno 10167 bound_to 10162
  156.0298  130.4384  150.2673 H   0  0  0  0  0  0  0  0  0  0  0  0  # atno 10718 bound_to 10713
  153.0826  135.4900  154.8534 H   0  0  0  0  0  0  0  0  0  0  0  0  # atno 10763 bound_to 10752
  154.7170  135.3031  154.9109 H   0  0  0  0  0  0  0  0  0  0  0  0  # atno 10764 bound_to 10752
  153.9785  135.6792  153.4802 H   0  0  0  0  0  0  0  0  0  0  0  0  # atno 10765 bound_to 10752
  140.7082  133.8931  155.8731 H   0  0  0  0  0  0  0  0  0  0  0  0  # atno 11005 bound_to 11000
  146.2681  140.4876  142.8825 LP  0  0  0  0  0  0  0  0  0  0  0  0  # atno 17320 bound_to 7965
  144.8278  140.6657  143.6311 LP  0  0  0  0  0  0  0  0  0  0  0  0  # atno 17321 bound_to 7965
  139.4923  144.4254  151.9931 LP  0  0  0  0  0  0  0  0  0  0  0  0  # atno 17342 bound_to 10162
  140.3351  144.3270  150.5979 LP  0  0  0  0  0  0  0  0  0  0  0  0  # atno 17343 bound_to 10162
  157.0776  131.0134  151.3168 LP  0  0  0  0  0  0  0  0  0  0  0  0  # atno 17370 bound_to 10713
  157.4952  130.7846  149.7548 LP  0  0  0  0  0  0  0  0  0  0  0  0  # atno 17371 bound_to 10713
  141.0107  134.1025  157.4224 LP  0  0  0  0  0  0  0  0  0  0  0  0  # atno 17394 bound_to 11000
  139.8878  135.0093  156.6585 LP  0  0  0  0  0  0  0  0  0  0  0  0  # atno 17395 bound_to 11000

$$$$
