AV-unprocessed.smi:2139|AV-procd|sdf|8713|dock3
  -GOLD-   2272011473D 1   1.00000     0.00000
 Structure written by MMmdl.
 40 41  0  0  0  0  0  0  0  0  1 V2000
  146.8897  139.7465  152.7671 C   0  0  0  0  0  0  0  0  0  0  0  0
  147.7445  140.1724  153.9695 C   0  0  0  0  0  0  0  0  0  0  0  0
  148.0527  141.6817  154.0124 C   0  0  1  0  0  0  0  0  0  0  0  0
  146.7740  142.5175  154.1608 C   0  0  0  0  0  0  0  0  0  0  0  0
  148.9592  141.9929  155.1167 N   0  0  0  0  0  0  0  0  0  0  0  0
  150.0918  141.3351  155.4166 C   0  0  0  0  0  0  0  0  0  0  0  0
  150.4956  140.3516  154.7954 O   0  0  0  0  0  0  0  0  0  0  0  0
  150.8382  141.8641  156.6142 C   0  0  0  0  0  0  0  0  0  0  0  0
  150.9937  143.2609  156.7725 C   0  0  0  0  0  0  0  0  0  0  0  0
  151.7314  143.7598  157.8605 C   0  0  0  0  0  0  0  0  0  0  0  0
  152.3003  142.8384  158.7557 C   0  0  0  0  0  0  0  0  0  0  0  0
  152.1665  141.5037  158.6229 N   0  0  0  0  0  0  0  0  0  0  0  0
  151.4536  141.0117  157.5791 C   0  0  0  0  0  0  0  0  0  0  0  0
  151.3095  139.6112  157.5217 N   0  0  0  0  0  0  0  0  0  0  0  0
  152.5086  138.8184  157.2733 C   0  0  0  0  0  0  0  0  0  0  0  0
  152.1153  137.3565  156.9990 C   0  0  0  0  0  0  0  0  0  0  0  0
  151.3443  136.8556  158.0883 O   0  0  0  0  0  0  0  0  0  0  0  0
  150.1405  137.5945  158.2797 C   0  0  0  0  0  0  0  0  0  0  0  0
  150.4794  139.0630  158.5861 C   0  0  0  0  0  0  0  0  0  0  0  0
  146.6368  138.6881  152.8284 H   0  0  0  0  0  0  0  0  0  0  0  0
  147.4171  139.9030  151.8268 H   0  0  0  0  0  0  0  0  0  0  0  0
  145.9570  140.3099  152.7270 H   0  0  0  0  0  0  0  0  0  0  0  0
  147.2188  139.8911  154.8828 H   0  0  0  0  0  0  0  0  0  0  0  0
  148.6752  139.6037  153.9693 H   0  0  0  0  0  0  0  0  0  0  0  0
  148.5101  141.9563  153.0604 H   0  0  0  0  0  0  0  0  0  0  0  0
  146.0840  142.3286  153.3380 H   0  0  0  0  0  0  0  0  0  0  0  0
  147.0007  143.5842  154.1603 H   0  0  0  0  0  0  0  0  0  0  0  0
  146.2533  142.2877  155.0910 H   0  0  0  0  0  0  0  0  0  0  0  0
  148.7050  142.7766  155.7003 H   0  0  0  0  0  0  0  0  0  0  0  0
  150.5627  143.9524  156.0627 H   0  0  0  0  0  0  0  0  0  0  0  0
  151.8644  144.8224  158.0003 H   0  0  0  0  0  0  0  0  0  0  0  0
  152.8775  143.1813  159.6016 H   0  0  0  0  0  0  0  0  0  0  0  0
  153.0549  139.2268  156.4226 H   0  0  0  0  0  0  0  0  0  0  0  0
  153.1691  138.8659  158.1400 H   0  0  0  0  0  0  0  0  0  0  0  0
  151.5479  137.2746  156.0707 H   0  0  0  0  0  0  0  0  0  0  0  0
  153.0083  136.7424  156.8827 H   0  0  0  0  0  0  0  0  0  0  0  0
  149.5096  137.5195  157.3923 H   0  0  0  0  0  0  0  0  0  0  0  0
  149.5813  137.1566  159.1068 H   0  0  0  0  0  0  0  0  0  0  0  0
  151.0180  139.1340  159.5321 H   0  0  0  0  0  0  0  0  0  0  0  0
  149.5636  139.6423  158.6975 H   0  0  0  0  0  0  0  0  0  0  0  0
  1  2  1  0  0  0  0
  1 20  1  0  0  0  0
  1 21  1  0  0  0  0
  1 22  1  0  0  0  0
  2  3  1  0  0  0  0
  2 23  1  0  0  0  0
  2 24  1  0  0  0  0
  3  4  1  0  0  0  0
  3  5  1  0  0  0  0
  3 25  1  0  0  0  0
  4 26  1  0  0  0  0
  4 27  1  0  0  0  0
  4 28  1  0  0  0  0
  5  6  1  0  0  0  0
  5 29  1  0  0  0  0
  6  7  2  0  0  0  0
  6  8  1  0  0  0  0
  8 13  1  0  0  0  0
  8  9  2  0  0  0  0
  9 10  1  0  0  0  0
  9 30  1  0  0  0  0
 10 11  2  0  0  0  0
 10 31  1  0  0  0  0
 11 12  1  0  0  0  0
 11 32  1  0  0  0  0
 12 13  2  0  0  0  0
 13 14  1  0  0  0  0
 14 19  1  0  0  0  0
 14 15  1  0  0  0  0
 15 16  1  0  0  0  0
 15 33  1  0  0  0  0
 15 34  1  0  0  0  0
 16 17  1  0  0  0  0
 16 35  1  0  0  0  0
 16 36  1  0  0  0  0
 17 18  1  0  0  0  0
 18 19  1  0  0  0  0
 18 37  1  0  0  0  0
 18 38  1  0  0  0  0
 19 39  1  0  0  0  0
 19 40  1  0  0  0  0
M  END
> <s_m_source_file>
AV-unprocessed.smi

> <i_m_source_file_index>
2139

> <i_lp_mmshare_version>
43012

> <i_f3d_flags>
0

> <s_epik_input>
W0NIM11bQ0gyXVtDQEhdKFtDSDNdKVtOSF1DKD1PKWMxW2NIXVtjSF1bY0hdbmMxTjJbQ0gyXVtDSDJdT1tDSDJdW0NIMl0y

> <s_epik_cmdline>
J2VwaWtfcHl0aG9uJywgJy1waCcsICc3LjAnLCAnLXRuJywgJzgnLCAnLW1hJywgJzIwMCcsICctbWV0YWxfYmluZGluZycsICctaW1hZScsICc8aW5maWxlLm1hZT4nLCAnLW9tYWUnLCAnPG91dGZpbGUubWFlPic=

> <r_lp_tautomer_probability>
1

> <r_epik_Ionization_Penalty>
1.73125e-05

> <r_epik_Ionization_Penalty_Charging>
0

> <r_epik_Ionization_Penalty_Neutral>
1.73125e-05

> <r_epik_State_Penalty>
-0

> <r_epik_Charging_Adjusted_Penalty>
0

> <i_epik_Tot_Q>
0

> <i_epik_Tot_abs_Q>
0

> <r_epik_Metal_State_Penalty>
-0

> <b_epik_Metal_Only>
0

> <s_lp_Force_Field>
OPLS_2005

> <r_lp_Energy>
25.2402

> <b_lp_Chiralities_Consistent>
1

> <s_lp_Variant>
AV-unprocessed.smi:2139-2

> <Gold.Version>
5.8.1

> <Gold.Id.Protein>
6NUR|6NUR_protein|mol2

> <Gold.PLP.Fitness>
37.3472

> <Gold.PLP.PLP>
-33.5118

> <Gold.PLP.part.hbond>
-2.2123

> <Gold.PLP.part.metal>
0.0000

> <Gold.PLP.part.buried>
-1.2954

> <Gold.PLP.part.nonpolar>
-30.0010

> <Gold.PLP.part.repulsive>
0.2650

> <Gold.PLP.ligand.clash>
0.0000

> <Gold.PLP.ligand.torsion>
0.8854

> <Gold.PLP.Chemscore.Hbond>
1.7840

> <Gold.PLP.Chemscore.CHOScore>
0.0000

> <Gold.PLP.Chemscore.Metal>
0.0000

> <Gold.Chemscore.Hbonds>
donor molecule, donor type, donor heavy atom, donor atom, acceptor molecule, acceptor atom, score
      L1  H     5    29       P1  8028  0.75
      P1  H  7989  7998       L1     7  1.00

> <Gold.PLP.Chemscore.Internal.Correction>
0.2541

> <Gold.Rescore>
     Score         DG    S(hbond)    S(metal)    S(lipo)     H(rot)  DE(clash)    DE(int)     intcor
     12.96     -17.68       1.58        0.00      87.58       1.30       1.43       3.29       ----

> <Gold.Chemscore.Fitness>
12.9621

> <Gold.Chemscore.DG>
-17.6766

> <Gold.Chemscore.ZeroCoef>
-5.4800

> <Gold.Chemscore.Hbond>
1.5833

> <Gold.Chemscore.Metal>
0.0000

> <Gold.Chemscore.Lipo>
87.5815

> <Gold.Chemscore.Internal_Hbond>
0.0000

> <Gold.Chemscore.DEClash>
1.4276

> <Gold.Chemscore.DEInternal>
3.2869

> <Gold.Chemscore.Rot>
1.3041

> <Gold.Chemscore.Internal.Correction>
   9.000000E+99

> <Gold.Chemscore.Hbonds>
donor molecule, donor type, donor heavy atom, donor atom, acceptor molecule, acceptor atom, score
      L1  H     5    29       P1  8028  0.75
      P1  H  7989  7998       L1     7  0.69

> <Gold.Chemscore.Hbond.Weighted>
-5.2881

> <Gold.Chemscore.Metal.Weighted>
-0.0000

> <Gold.Chemscore.Lipo.Weighted>
-10.2470

> <Gold.Chemscore.Internal_Hbond.Weighted>
0.0000

> <Gold.Chemscore.DEClash.Weighted>
1.4276

> <Gold.Chemscore.DEInternal.Weighted>
3.2869

> <Gold.Chemscore.Rot.Weighted>
3.3385

> <Gold.Chemscore.Internal.Correction.Weighted>
   9.000000E+99

> <Gold.Protein.RotatedTorsions>
[ 6907 6896 6895 6894 ] final   65.39 input  -60.11 | X-H torsion
[ 7974 7965 7964 7962 ] final -109.05 input  175.53 | X-H torsion
[ 8008 7997 7996 7995 ] final   98.16 input   59.86 | X-H torsion
[ 10167 10162 10161 10158 ] final  125.11 input  -65.29 | X-H torsion
[ 10718 10713 10712 10709 ] final  -12.63 input   66.30 | X-H torsion
[ 10763 10752 10751 10750 ] final -172.42 input  -60.55 | X-H torsion
[ 11005 11000 10999 10996 ] final   -2.97 input  -57.11 | X-H torsion

> <Gold.Protein.ActiveResidues>
 VAL166  LYS551  ARG553  GLY616  TRP617  ASP618  TYR619  PRO620  LYS621  CYS622 
 ASP623  PHE694  ASN695  SER759  ASP760  ASP761  ALA762  ILE779  LEU786  VAL792 
 PHE793  MET794  SER795  GLU796  ALA797  LYS798  CYS799  TRP800  GLU811  SER814 

> <Gold.Protein.RotatedAtoms>
  152.4404  134.5603  159.9891 H   0  0  0  0  0  0  0  0  0  0  0  0  # atno 6907 bound_to 6896
  151.5702  133.3385  159.2996 H   0  0  0  0  0  0  0  0  0  0  0  0  # atno 6908 bound_to 6896
  150.8309  134.7595  159.6916 H   0  0  0  0  0  0  0  0  0  0  0  0  # atno 6909 bound_to 6896
  145.1853  140.8990  143.3456 H   0  0  0  0  0  0  0  0  0  0  0  0  # atno 7974 bound_to 7965
  156.0976  140.3248  155.7899 H   0  0  0  0  0  0  0  0  0  0  0  0  # atno 8008 bound_to 7997
  155.4891  140.0560  157.2973 H   0  0  0  0  0  0  0  0  0  0  0  0  # atno 8009 bound_to 7997
  154.4676  140.1996  156.0092 H   0  0  0  0  0  0  0  0  0  0  0  0  # atno 8010 bound_to 7997
  139.5704  144.6935  151.3795 H   0  0  0  0  0  0  0  0  0  0  0  0  # atno 10167 bound_to 10162
  156.6419  130.4930  149.6092 H   0  0  0  0  0  0  0  0  0  0  0  0  # atno 10718 bound_to 10713
  154.6195  135.2873  155.0342 H   0  0  0  0  0  0  0  0  0  0  0  0  # atno 10763 bound_to 10752
  154.1543  135.6498  153.4974 H   0  0  0  0  0  0  0  0  0  0  0  0  # atno 10764 bound_to 10752
  153.0229  135.5363  154.6979 H   0  0  0  0  0  0  0  0  0  0  0  0  # atno 10765 bound_to 10752
  140.6642  133.9293  155.8455 H   0  0  0  0  0  0  0  0  0  0  0  0  # atno 11005 bound_to 11000
  145.0095  139.3523  143.6127 LP  0  0  0  0  0  0  0  0  0  0  0  0  # atno 17320 bound_to 7965
  146.3446  139.9351  142.8748 LP  0  0  0  0  0  0  0  0  0  0  0  0  # atno 17321 bound_to 7965
  140.6988  143.7683  150.7369 LP  0  0  0  0  0  0  0  0  0  0  0  0  # atno 17342 bound_to 10162
  140.1188  143.4631  152.2326 LP  0  0  0  0  0  0  0  0  0  0  0  0  # atno 17343 bound_to 10162
  156.2152  130.6703  151.1311 LP  0  0  0  0  0  0  0  0  0  0  0  0  # atno 17370 bound_to 10713
  157.7168  131.0705  150.6294 LP  0  0  0  0  0  0  0  0  0  0  0  0  # atno 17371 bound_to 10713
  141.0442  134.0578  157.3865 LP  0  0  0  0  0  0  0  0  0  0  0  0  # atno 17394 bound_to 11000
  139.9003  135.0162  156.7234 LP  0  0  0  0  0  0  0  0  0  0  0  0  # atno 17395 bound_to 11000

$$$$
