AV-unprocessed.smi:157|AV-procd|sdf|1299|dock7
  -GOLD-   2262018583D 1   1.00000     0.00000
 Structure written by MMmdl.
 35 37  0  0  0  0  0  0  0  0  1 V2000
  146.7360  131.6042  149.2603 O   0  0  0  0  0  0  0  0  0  0  0  0
  146.6537  132.6454  150.2103 C   0  0  0  0  0  0  0  0  0  0  0  0
  145.2121  132.7467  150.7549 C   0  0  1  0  0  0  0  0  0  0  0  0
  145.1769  133.8326  151.6867 O   0  0  0  0  0  0  0  0  0  0  0  0
  144.4842  134.9267  151.1583 C   0  0  1  0  0  0  0  0  0  0  0  0
  145.3105  136.1631  151.3320 N   0  0  0  0  0  0  0  0  0  0  0  0
  145.8845  136.8877  150.3618 C   0  0  0  0  0  0  0  0  0  0  0  0
  146.5512  137.9467  150.7885 N   0  0  0  0  0  0  0  0  0  0  0  0
  146.4008  137.9033  152.1734 C   0  0  0  0  0  0  0  0  0  0  0  0
  145.6372  136.8017  152.5317 C   0  0  0  0  0  0  0  0  0  0  0  0
  145.1617  136.2610  153.7111 N   0  0  0  0  0  0  0  0  0  0  0  0
  145.7322  136.6202  154.8179 C   0  0  0  0  0  0  0  0  0  0  0  0
  146.7221  137.5647  155.0499 N   0  0  0  0  0  0  0  0  0  0  0  0
  146.6772  138.9138  154.5126 C   0  0  0  0  0  0  0  0  0  0  0  0
  147.0061  138.9881  153.0165 C   0  0  1  0  0  0  0  0  0  0  0  0
  148.4063  138.9116  152.8442 O   0  0  0  0  0  0  0  0  0  0  0  0
  144.2610  134.6392  149.6776 C   0  0  0  0  0  0  0  0  0  0  0  0
  144.1468  133.1327  149.7129 C   0  0  1  0  0  0  0  0  0  0  0  0
  144.3294  132.5577  148.4347 O   0  0  0  0  0  0  0  0  0  0  0  0
  144.9316  131.8122  151.2433 H   0  0  0  0  0  0  0  0  0  0  0  0
  143.5651  135.0959  151.7208 H   0  0  0  0  0  0  0  0  0  0  0  0
  146.6949  139.9642  152.6429 H   0  0  0  0  0  0  0  0  0  0  0  0
  143.1588  132.8556  150.0839 H   0  0  0  0  0  0  0  0  0  0  0  0
  147.5265  131.1122  149.4214 H   0  0  0  0  0  0  0  0  0  0  0  0
  147.3790  132.4873  151.0082 H   0  0  0  0  0  0  0  0  0  0  0  0
  146.9410  133.5603  149.6925 H   0  0  0  0  0  0  0  0  0  0  0  0
  145.8113  136.6379  149.3137 H   0  0  0  0  0  0  0  0  0  0  0  0
  145.4149  136.1388  155.7440 H   0  0  0  0  0  0  0  0  0  0  0  0
  147.2159  137.5383  155.9303 H   0  0  0  0  0  0  0  0  0  0  0  0
  145.6653  139.2904  154.6692 H   0  0  0  0  0  0  0  0  0  0  0  0
  147.3363  139.5648  155.0875 H   0  0  0  0  0  0  0  0  0  0  0  0
  148.6385  138.0037  152.7205 H   0  0  0  0  0  0  0  0  0  0  0  0
  143.3719  135.1471  149.3027 H   0  0  0  0  0  0  0  0  0  0  0  0
  145.1310  134.9574  149.1002 H   0  0  0  0  0  0  0  0  0  0  0  0
  144.7575  133.1911  147.8791 H   0  0  0  0  0  0  0  0  0  0  0  0
  1  2  1  0  0  0  0
  1 24  1  0  0  0  0
  2  3  1  0  0  0  0
  2 25  1  0  0  0  0
  2 26  1  0  0  0  0
  3 20  1  0  0  0  0
  3 18  1  0  0  0  0
  3  4  1  0  0  0  0
  4  5  1  0  0  0  0
  5 21  1  0  0  0  0
  5  6  1  0  0  0  0
  5 17  1  0  0  0  0
  6 10  1  0  0  0  0
  6  7  1  0  0  0  0
  7  8  2  0  0  0  0
  7 27  1  0  0  0  0
  8  9  1  0  0  0  0
  9 15  1  0  0  0  0
  9 10  2  0  0  0  0
 10 11  1  0  0  0  0
 11 12  2  0  0  0  0
 12 13  1  0  0  0  0
 12 28  1  0  0  0  0
 13 14  1  0  0  0  0
 13 29  1  0  0  0  0
 14 15  1  0  0  0  0
 14 30  1  0  0  0  0
 14 31  1  0  0  0  0
 15 22  1  0  0  0  0
 15 16  1  0  0  0  0
 16 32  1  0  0  0  0
 17 18  1  0  0  0  0
 17 33  1  0  0  0  0
 17 34  1  0  0  0  0
 18 23  1  0  0  0  0
 18 19  1  0  0  0  0
 19 35  1  0  0  0  0
M  END
> <s_m_source_file>
AV-unprocessed.smi

> <i_m_source_file_index>
157

> <i_lp_mmshare_version>
43012

> <i_f3d_flags>
0

> <s_epik_input>
W09IXVtDSDJdW0NASF0xT1tDQEhdKFtDSDJdW0NAQEhdMVtPSF0pbihbY0hdbjIpYyhjMjMpTj1bQ0hdW05IXVtDSDJdW0NASF0zW09IXQ==

> <s_epik_cmdline>
J2VwaWtfcHl0aG9uJywgJy1waCcsICc3LjAnLCAnLXRuJywgJzgnLCAnLW1hJywgJzIwMCcsICctbWV0YWxfYmluZGluZycsICctaW1hZScsICc8aW5maWxlLm1hZT4nLCAnLW9tYWUnLCAnPG91dGZpbGUubWFlPic=

> <r_lp_tautomer_probability>
1

> <r_epik_Ionization_Penalty>
0.0357149

> <r_epik_Ionization_Penalty_Charging>
0.0355056

> <r_epik_Ionization_Penalty_Neutral>
0.000209255

> <r_epik_State_Penalty>
0.0296046

> <r_epik_Charging_Adjusted_Penalty>
0.0651102

> <i_epik_Tot_Q>
0

> <i_epik_Tot_abs_Q>
0

> <r_epik_Metal_State_Penalty>
3.03559e-05

> <b_epik_Metal_Only>
0

> <s_epik_Chemistry_Notes>
This compound has an imine and may undergo hydrolysis. This compound contains an acetal/aminal-like group ( X-CH(R)-Y where X, Y are N, S, or O) that may be acid/base labile, releasing an aldehyde.

> <s_lp_Force_Field>
OPLS_2005

> <r_lp_Energy>
47.2619

> <b_lp_Chiralities_Consistent>
1

> <s_lp_Variant>
AV-unprocessed.smi:157-9

> <Gold.Version>
5.8.1

> <Gold.Id.Protein>
6NUR|6NUR_protein|mol2

> <Gold.PLP.Fitness>
40.8308

> <Gold.PLP.PLP>
-26.0259

> <Gold.PLP.part.hbond>
-5.5892

> <Gold.PLP.part.metal>
0.0000

> <Gold.PLP.part.buried>
3.2755

> <Gold.PLP.part.nonpolar>
-26.0330

> <Gold.PLP.part.repulsive>
2.0847

> <Gold.PLP.ligand.clash>
0.0000

> <Gold.PLP.ligand.torsion>
0.0916

> <Gold.PLP.Chemscore.Hbond>
3.9913

> <Gold.PLP.Chemscore.CHOScore>
1.0000

> <Gold.PLP.Chemscore.Metal>
0.0000

> <Gold.Chemscore.Hbonds>
donor molecule, donor type, donor heavy atom, donor atom, acceptor molecule, acceptor atom, score
      L1  H     1    24       P1 10747  1.00
      L1  H    16    32       P1  7948  1.00
      L1  H    19    35       P1  7921  0.80
      P1  H  7954  7966       L1     8  1.00
      L1  C     7    27       P1  7921  1.00

> <Gold.PLP.Chemscore.Internal.Correction>
0.0144

> <Gold.Rescore>
     Score         DG    S(hbond)    S(metal)    S(lipo)     H(rot)  DE(clash)    DE(int)     intcor
      7.45     -12.49       3.09        0.00      51.19       3.64       5.00       0.04       ----

> <Gold.Chemscore.Fitness>
7.4487

> <Gold.Chemscore.DG>
-12.4862

> <Gold.Chemscore.ZeroCoef>
-5.4800

> <Gold.Chemscore.Hbond>
3.0917

> <Gold.Chemscore.Metal>
0.0000

> <Gold.Chemscore.Lipo>
51.1865

> <Gold.Chemscore.Internal_Hbond>
0.0000

> <Gold.Chemscore.DEClash>
5.0015

> <Gold.Chemscore.DEInternal>
0.0360

> <Gold.Chemscore.Rot>
3.6362

> <Gold.Chemscore.Internal.Correction>
   9.000000E+99

> <Gold.Chemscore.Hbonds>
donor molecule, donor type, donor heavy atom, donor atom, acceptor molecule, acceptor atom, score
      L1  H     1    24       P1 10747  0.97
      L1  H    16    32       P1  7948  0.98
      L1  H    19    35       P1  7921  0.41
      P1  H  7954  7966       L1     8  0.44

> <Gold.Chemscore.Hbond.Weighted>
-10.3261

> <Gold.Chemscore.Metal.Weighted>
-0.0000

> <Gold.Chemscore.Lipo.Weighted>
-5.9888

> <Gold.Chemscore.Internal_Hbond.Weighted>
0.0000

> <Gold.Chemscore.DEClash.Weighted>
5.0015

> <Gold.Chemscore.DEInternal.Weighted>
0.0360

> <Gold.Chemscore.Rot.Weighted>
9.3087

> <Gold.Chemscore.Internal.Correction.Weighted>
   9.000000E+99

> <Gold.Protein.RotatedTorsions>
[ 6907 6896 6895 6894 ] final -149.25 input  -60.11 | X-H torsion
[ 7974 7965 7964 7962 ] final  143.80 input  175.53 | X-H torsion
[ 8008 7997 7996 7995 ] final   26.02 input   59.86 | X-H torsion
[ 10167 10162 10161 10158 ] final   -2.73 input  -65.29 | X-H torsion
[ 10718 10713 10712 10709 ] final  106.12 input   66.30 | X-H torsion
[ 10763 10752 10751 10750 ] final  149.01 input  -60.55 | X-H torsion
[ 11005 11000 10999 10996 ] final  -18.50 input  -57.11 | X-H torsion

> <Gold.Protein.ActiveResidues>
 VAL166  LYS551  ARG553  GLY616  TRP617  ASP618  TYR619  PRO620  LYS621  CYS622 
 ASP623  PHE694  ASN695  SER759  ASP760  ASP761  ALA762  ILE779  LEU786  VAL792 
 PHE793  MET794  SER795  GLU796  ALA797  LYS798  CYS799  TRP800  GLU811  SER814 

> <Gold.Protein.RotatedAtoms>
  151.1815  133.4722  159.2593 H   0  0  0  0  0  0  0  0  0  0  0  0  # atno 6907 bound_to 6896
  151.1254  135.0102  159.8568 H   0  0  0  0  0  0  0  0  0  0  0  0  # atno 6908 bound_to 6896
  152.5458  134.1723  159.8654 H   0  0  0  0  0  0  0  0  0  0  0  0  # atno 6909 bound_to 6896
  144.8890  139.5586  143.5807 H   0  0  0  0  0  0  0  0  0  0  0  0  # atno 7974 bound_to 7965
  155.0208  140.3147  155.4794 H   0  0  0  0  0  0  0  0  0  0  0  0  # atno 8008 bound_to 7997
  156.2892  140.2198  156.5268 H   0  0  0  0  0  0  0  0  0  0  0  0  # atno 8009 bound_to 7997
  154.7454  140.0470  157.0835 H   0  0  0  0  0  0  0  0  0  0  0  0  # atno 8010 bound_to 7997
  140.6862  143.6623  150.8256 H   0  0  0  0  0  0  0  0  0  0  0  0  # atno 10167 bound_to 10162
  157.6680  131.0843  150.5960 H   0  0  0  0  0  0  0  0  0  0  0  0  # atno 10718 bound_to 10713
  154.0641  135.2872  155.3319 H   0  0  0  0  0  0  0  0  0  0  0  0  # atno 10763 bound_to 10752
  154.6789  135.5271  153.8239 H   0  0  0  0  0  0  0  0  0  0  0  0  # atno 10764 bound_to 10752
  153.0511  135.6576  154.0828 H   0  0  0  0  0  0  0  0  0  0  0  0  # atno 10765 bound_to 10752
  140.8274  133.8022  155.9723 H   0  0  0  0  0  0  0  0  0  0  0  0  # atno 11005 bound_to 11000
  146.3042  139.7525  142.9068 LP  0  0  0  0  0  0  0  0  0  0  0  0  # atno 17320 bound_to 7965
  145.3817  141.0359  143.3174 LP  0  0  0  0  0  0  0  0  0  0  0  0  # atno 17321 bound_to 7965
  140.0330  143.5424  152.2752 LP  0  0  0  0  0  0  0  0  0  0  0  0  # atno 17342 bound_to 10162
  139.6224  144.7631  151.2712 LP  0  0  0  0  0  0  0  0  0  0  0  0  # atno 17343 bound_to 10162
  156.6260  130.4419  149.5804 LP  0  0  0  0  0  0  0  0  0  0  0  0  # atno 17370 bound_to 10713
  156.2318  130.6799  151.1471 LP  0  0  0  0  0  0  0  0  0  0  0  0  # atno 17371 bound_to 10713
  140.9034  134.2350  157.5028 LP  0  0  0  0  0  0  0  0  0  0  0  0  # atno 17394 bound_to 11000
  139.8706  134.9717  156.4746 LP  0  0  0  0  0  0  0  0  0  0  0  0  # atno 17395 bound_to 11000

$$$$
