AV-unprocessed.smi:370|AV-procd|sdf|2440|dock7
  -GOLD-   2262022383D 1   1.00000     0.00000
 Structure written by MMmdl.
 42 43  0  0  0  0  0  0  0  0  3 V2000
  147.2670  135.5484  162.8160 C   0  0  0  0  0  0  0  0  0  0  0  0
  147.6813  135.9400  161.4395 C   0  0  0  0  0  0  0  0  0  0  0  0
  148.0088  135.2188  160.3262 C   0  0  0  0  0  0  0  0  0  0  0  0
  148.3039  136.2242  159.3673 C   0  0  0  0  0  0  0  0  0  0  0  0
  148.6943  135.8723  158.0484 N   0  0  0  0  0  0  0  0  0  0  0  0
  148.3445  134.7932  157.3246 C   0  0  0  0  0  0  0  0  0  0  0  0
  147.5690  133.9511  157.7920 O   0  0  0  0  0  0  0  0  0  0  0  0
  148.9319  134.7879  156.0973 N   0  5  0  0  0  0  0  0  0  0  0  0
  148.2276  135.0485  154.8376 C   0  0  0  0  0  0  0  0  0  0  0  0
  147.9985  133.7178  154.0372 C   0  0  0  0  0  0  0  0  0  0  0  0
  149.3883  133.0586  153.7709 C   0  0  0  0  0  0  0  0  0  0  0  0
  147.2068  132.6979  154.9029 C   0  0  0  0  0  0  0  0  0  0  0  0
  147.2541  134.0319  152.7540 N   0  3  0  0  0  0  0  0  0  0  0  0
  146.9620  132.8868  151.8453 C   0  0  0  0  0  0  0  0  0  0  0  0
  146.3971  133.3868  150.5038 C   0  0  0  0  0  0  0  0  0  0  0  0
  145.2397  134.1813  150.7195 O   0  0  0  0  0  0  0  0  0  0  0  0
  145.5328  135.3279  151.5046 C   0  0  0  0  0  0  0  0  0  0  0  0
  146.0271  134.8764  152.8863 C   0  0  0  0  0  0  0  0  0  0  0  0
  148.1674  137.4492  159.8528 N   0  0  0  0  0  0  0  0  0  0  0  0
  147.7674  137.2733  161.1827 O   0  0  0  0  0  0  0  0  0  0  0  0
  147.3076  134.4663  162.9421 H   0  0  0  0  0  0  0  0  0  0  0  0
  146.2471  135.8744  163.0196 H   0  0  0  0  0  0  0  0  0  0  0  0
  147.9230  136.0003  163.5600 H   0  0  0  0  0  0  0  0  0  0  0  0
  148.0332  134.1446  160.2174 H   0  0  0  0  0  0  0  0  0  0  0  0
  149.3226  136.5182  157.5947 H   0  0  0  0  0  0  0  0  0  0  0  0
  147.2664  135.5365  155.0040 H   0  0  0  0  0  0  0  0  0  0  0  0
  148.7952  135.7400  154.2141 H   0  0  0  0  0  0  0  0  0  0  0  0
  149.9514  132.8809  154.6903 H   0  0  0  0  0  0  0  0  0  0  0  0
  150.0267  133.6571  153.1172 H   0  0  0  0  0  0  0  0  0  0  0  0
  149.2828  132.0776  153.3067 H   0  0  0  0  0  0  0  0  0  0  0  0
  147.7675  132.3908  155.7882 H   0  0  0  0  0  0  0  0  0  0  0  0
  147.0005  131.7886  154.3371 H   0  0  0  0  0  0  0  0  0  0  0  0
  146.2463  133.0769  155.2576 H   0  0  0  0  0  0  0  0  0  0  0  0
  147.8605  132.3184  151.6114 H   0  0  0  0  0  0  0  0  0  0  0  0
  146.2579  132.2059  152.3253 H   0  0  0  0  0  0  0  0  0  0  0  0
  147.1482  133.9619  149.9594 H   0  0  0  0  0  0  0  0  0  0  0  0
  146.1289  132.5397  149.8724 H   0  0  0  0  0  0  0  0  0  0  0  0
  146.2748  135.9545  151.0067 H   0  0  0  0  0  0  0  0  0  0  0  0
  144.6264  135.9251  151.6065 H   0  0  0  0  0  0  0  0  0  0  0  0
  145.2351  134.3125  153.3807 H   0  0  0  0  0  0  0  0  0  0  0  0
  146.2139  135.7616  153.4935 H   0  0  0  0  0  0  0  0  0  0  0  0
  147.9188  134.5985  152.2438 H   0  0  0  0  0  0  0  0  0  0  0  0
  1  2  1  0  0  0  0
  1 21  1  0  0  0  0
  1 22  1  0  0  0  0
  1 23  1  0  0  0  0
  2 20  1  0  0  0  0
  2  3  2  0  0  0  0
  3  4  1  0  0  0  0
  3 24  1  0  0  0  0
  4  5  1  0  0  0  0
  4 19  2  0  0  0  0
  5  6  1  0  0  0  0
  5 25  1  0  0  0  0
  6  7  2  0  0  0  0
  6  8  1  0  0  0  0
  8  9  1  0  0  0  0
  9 10  1  0  0  0  0
  9 26  1  0  0  0  0
  9 27  1  0  0  0  0
 10 11  1  0  0  0  0
 10 12  1  0  0  0  0
 10 13  1  0  0  0  0
 11 28  1  0  0  0  0
 11 29  1  0  0  0  0
 11 30  1  0  0  0  0
 12 31  1  0  0  0  0
 12 32  1  0  0  0  0
 12 33  1  0  0  0  0
 13 18  1  0  0  0  0
 13 14  1  0  0  0  0
 13 42  1  0  0  0  0
 14 15  1  0  0  0  0
 14 34  1  0  0  0  0
 14 35  1  0  0  0  0
 15 16  1  0  0  0  0
 15 36  1  0  0  0  0
 15 37  1  0  0  0  0
 16 17  1  0  0  0  0
 17 18  1  0  0  0  0
 17 38  1  0  0  0  0
 17 39  1  0  0  0  0
 18 40  1  0  0  0  0
 18 41  1  0  0  0  0
 19 20  1  0  0  0  0
M  CHG  1   8  -1
M  CHG  1  13   1
M  END
> <s_m_source_file>
AV-unprocessed.smi

> <i_m_source_file_index>
370

> <i_lp_mmshare_version>
43012

> <i_f3d_flags>
0

> <s_epik_input>
W0NIM11jMVtjSF1jKG5vMSlbTkhdQyg9TylbTkhdW0NIMl1DKFtDSDNdKShbQ0gzXSlOMltDSDJdW0NIMl1PW0NIMl1bQ0gyXTI=

> <s_epik_cmdline>
J2VwaWtfcHl0aG9uJywgJy1waCcsICc3LjAnLCAnLXRuJywgJzgnLCAnLW1hJywgJzIwMCcsICctbWV0YWxfYmluZGluZycsICctaW1hZScsICc8aW5maWxlLm1hZT4nLCAnLW9tYWUnLCAnPG91dGZpbGUubWFlPic=

> <r_epik_Ionization_Penalty>
6.79272

> <r_epik_Ionization_Penalty_Charging>
6.79272

> <r_epik_Ionization_Penalty_Neutral>
5.6208e-06

> <r_epik_State_Penalty>
7.45901

> <r_epik_Charging_Adjusted_Penalty>
14.2517

> <i_epik_Tot_Q>
0

> <i_epik_Tot_abs_Q>
2

> <r_epik_Metal_State_Penalty>
3.38639

> <b_epik_Metal_Only>
1

> <s_lp_Force_Field>
OPLS_2005

> <r_lp_Energy>
23.8333

> <b_lp_Chiralities_Consistent>
1

> <s_lp_Variant>
AV-unprocessed.smi:370-5

> <Gold.Version>
5.8.1

> <Gold.Id.Protein>
6NUR|6NUR_protein|mol2

> <Gold.PLP.Fitness>
37.9217

> <Gold.PLP.PLP>
-30.3029

> <Gold.PLP.part.hbond>
-5.0000

> <Gold.PLP.part.metal>
0.0000

> <Gold.PLP.part.buried>
-3.2322

> <Gold.PLP.part.nonpolar>
-22.6907

> <Gold.PLP.part.repulsive>
0.2700

> <Gold.PLP.ligand.clash>
0.0000

> <Gold.PLP.ligand.torsion>
1.0647

> <Gold.PLP.Chemscore.Hbond>
3.2128

> <Gold.PLP.Chemscore.CHOScore>
0.0000

> <Gold.PLP.Chemscore.Metal>
0.0000

> <Gold.Chemscore.Hbonds>
donor molecule, donor type, donor heavy atom, donor atom, acceptor molecule, acceptor atom, score
      L1  H    13    42       P1  7948  2.00
      P1  H  6931  6943       L1    20  0.73
      P1  H  6934  6947       L1    20  0.04

> <Gold.PLP.Chemscore.Internal.Correction>
0.1099

> <Gold.Rescore>
     Score         DG    S(hbond)    S(metal)    S(lipo)     H(rot)  DE(clash)    DE(int)     intcor
     10.63     -13.11       1.40        0.00      59.63       1.57       0.15       2.33       ----

> <Gold.Chemscore.Fitness>
10.6309

> <Gold.Chemscore.DG>
-13.1112

> <Gold.Chemscore.ZeroCoef>
-5.4800

> <Gold.Chemscore.Hbond>
1.3994

> <Gold.Chemscore.Metal>
0.0000

> <Gold.Chemscore.Lipo>
59.6291

> <Gold.Chemscore.Internal_Hbond>
0.0000

> <Gold.Chemscore.DEClash>
0.1462

> <Gold.Chemscore.DEInternal>
2.3341

> <Gold.Chemscore.Rot>
1.5701

> <Gold.Chemscore.Internal.Correction>
   9.000000E+99

> <Gold.Chemscore.Hbonds>
donor molecule, donor type, donor heavy atom, donor atom, acceptor molecule, acceptor atom, score
      L1  H    13    42       P1  7948  0.44
      P1  H  6931  6943       L1    20  0.10

> <Gold.Chemscore.Hbond.Weighted>
-4.6740

> <Gold.Chemscore.Metal.Weighted>
-0.0000

> <Gold.Chemscore.Lipo.Weighted>
-6.9766

> <Gold.Chemscore.Internal_Hbond.Weighted>
0.0000

> <Gold.Chemscore.DEClash.Weighted>
0.1462

> <Gold.Chemscore.DEInternal.Weighted>
2.3341

> <Gold.Chemscore.Rot.Weighted>
4.0194

> <Gold.Chemscore.Internal.Correction.Weighted>
   9.000000E+99

> <Gold.Protein.RotatedTorsions>
[ 6907 6896 6895 6894 ] final   34.29 input  -60.11 | X-H torsion
[ 7974 7965 7964 7962 ] final  -91.85 input  175.53 | X-H torsion
[ 8008 7997 7996 7995 ] final  -62.48 input   59.86 | X-H torsion
[ 10167 10162 10161 10158 ] final  -12.05 input  -65.29 | X-H torsion
[ 10718 10713 10712 10709 ] final  159.96 input   66.30 | X-H torsion
[ 10763 10752 10751 10750 ] final   80.01 input  -60.55 | X-H torsion
[ 11005 11000 10999 10996 ] final  151.59 input  -57.11 | X-H torsion

> <Gold.Protein.ActiveResidues>
 VAL166  LYS551  ARG553  GLY616  TRP617  ASP618  TYR619  PRO620  LYS621  CYS622 
 ASP623  PHE694  ASN695  SER759  ASP760  ASP761  ALA762  ILE779  LEU786  VAL792 
 PHE793  MET794  SER795  GLU796  ALA797  LYS798  CYS799  TRP800  GLU811  SER814 

> <Gold.Protein.RotatedAtoms>
  152.1003  134.9346  160.0569 H   0  0  0  0  0  0  0  0  0  0  0  0  # atno 6907 bound_to 6896
  152.0563  133.4037  159.4407 H   0  0  0  0  0  0  0  0  0  0  0  0  # atno 6908 bound_to 6896
  150.6839  134.3171  159.4814 H   0  0  0  0  0  0  0  0  0  0  0  0  # atno 6909 bound_to 6896
  145.4076  140.9542  143.2252 H   0  0  0  0  0  0  0  0  0  0  0  0  # atno 7974 bound_to 7965
  154.4502  140.0995  156.6593 H   0  0  0  0  0  0  0  0  0  0  0  0  # atno 8008 bound_to 7997
  155.5311  140.3481  155.4408 H   0  0  0  0  0  0  0  0  0  0  0  0  # atno 8009 bound_to 7997
  156.0664  140.1339  156.9870 H   0  0  0  0  0  0  0  0  0  0  0  0  # atno 8010 bound_to 7997
  140.7152  143.5574  150.9233 H   0  0  0  0  0  0  0  0  0  0  0  0  # atno 10167 bound_to 10162
  157.1570  131.0578  151.2251 H   0  0  0  0  0  0  0  0  0  0  0  0  # atno 10718 bound_to 10713
  153.0998  135.4818  154.8846 H   0  0  0  0  0  0  0  0  0  0  0  0  # atno 10763 bound_to 10752
  154.7366  135.3072  154.8803 H   0  0  0  0  0  0  0  0  0  0  0  0  # atno 10764 bound_to 10752
  153.9423  135.6832  153.4797 H   0  0  0  0  0  0  0  0  0  0  0  0  # atno 10765 bound_to 10752
  140.1232  134.8850  157.2102 H   0  0  0  0  0  0  0  0  0  0  0  0  # atno 11005 bound_to 11000
  144.8331  139.5595  143.6934 LP  0  0  0  0  0  0  0  0  0  0  0  0  # atno 17320 bound_to 7965
  146.2721  139.6661  142.9289 LP  0  0  0  0  0  0  0  0  0  0  0  0  # atno 17321 bound_to 7965
  139.9299  143.6505  152.3078 LP  0  0  0  0  0  0  0  0  0  0  0  0  # atno 17342 bound_to 10162
  139.6952  144.7642  151.1368 LP  0  0  0  0  0  0  0  0  0  0  0  0  # atno 17343 bound_to 10162
  157.4167  130.7415  149.6881 LP  0  0  0  0  0  0  0  0  0  0  0  0  # atno 17370 bound_to 10713
  155.9760  130.4081  150.3808 LP  0  0  0  0  0  0  0  0  0  0  0  0  # atno 17371 bound_to 10713
  140.2937  134.3210  155.7308 LP  0  0  0  0  0  0  0  0  0  0  0  0  # atno 17394 bound_to 11000
  141.2156  133.7550  156.9541 LP  0  0  0  0  0  0  0  0  0  0  0  0  # atno 17395 bound_to 11000

$$$$
