AV-unprocessed.smi:169|AV-procd|sdf|1399|dock6
  -GOLD-   2262019143D 1   1.00000     0.00000
 Structure written by MMmdl.
 56 60  0  0  0  0  0  0  0  0  2 V2000
  146.0142  134.5489  151.2453 C   0  0  0  0  0  0  0  0  0  0  0  0
  146.1551  134.7878  152.7595 C   0  0  0  0  0  0  0  0  0  0  0  0
  146.5298  136.1802  153.1226 N   0  3  1  0  0  0  0  0  0  0  0  0
  145.6843  137.2144  152.4750 C   0  0  0  0  0  0  0  0  0  0  0  0
  146.5226  138.4294  152.0356 C   0  0  0  0  0  0  0  0  0  0  0  0
  147.1980  139.2320  153.1677 C   0  0  1  0  0  0  0  0  0  0  0  0
  146.2029  139.8161  154.1769 C   0  0  0  0  0  0  0  0  0  0  0  0
  146.1555  138.7894  155.3143 C   0  0  0  0  0  0  0  0  0  0  0  0
  147.2661  137.7660  154.9993 C   0  0  1  0  0  0  0  0  0  0  0  0
  146.7264  136.3734  154.5859 C   0  0  0  0  0  0  0  0  0  0  0  0
  148.0887  138.3906  153.9650 N   0  0  0  0  0  0  0  0  0  0  0  0
  149.2902  138.8620  154.3908 C   0  0  0  0  0  0  0  0  0  0  0  0
  150.4418  138.2114  154.0775 N   0  0  0  0  0  0  0  0  0  0  0  0
  151.6210  138.6921  154.4821 C   0  0  0  0  0  0  0  0  0  0  0  0
  151.8723  139.7891  155.1986 N   0  0  0  0  0  0  0  0  0  0  0  0
  150.7216  140.4426  155.5258 C   0  0  0  0  0  0  0  0  0  0  0  0
  149.4016  140.0517  155.1637 C   0  0  0  0  0  0  0  0  0  0  0  0
  148.4809  140.9606  155.6711 N   0  0  0  0  0  0  0  0  0  0  0  0
  149.2159  141.8448  156.2885 C   0  0  0  0  0  0  0  0  0  0  0  0
  150.5724  141.6066  156.2603 N   0  0  0  0  0  0  0  0  0  0  0  0
  151.6099  142.4302  156.8643 C   0  0  0  0  0  0  0  0  0  0  0  0
  151.5227  142.5438  158.3992 C   0  0  0  0  0  0  0  0  0  0  0  0
  150.2756  143.3719  158.7730 C   0  0  0  0  0  0  0  0  0  0  0  0
  150.2965  144.6684  158.2095 O   0  0  0  0  0  0  0  0  0  0  0  0
  151.7253  141.2434  159.1908 C   0  0  0  0  0  0  0  0  0  0  0  0
  152.7701  141.8301  159.9979 O   0  0  0  0  0  0  0  0  0  0  0  0
  152.8358  142.9483  159.0863 C   0  0  0  0  0  0  0  0  0  0  0  0
  145.7882  133.5009  151.0466 H   0  0  0  0  0  0  0  0  0  0  0  0
  146.9313  134.7893  150.7076 H   0  0  0  0  0  0  0  0  0  0  0  0
  145.2057  135.1374  150.8128 H   0  0  0  0  0  0  0  0  0  0  0  0
  145.2212  134.5278  153.2594 H   0  0  0  0  0  0  0  0  0  0  0  0
  146.9067  134.1090  153.1643 H   0  0  0  0  0  0  0  0  0  0  0  0
  145.2281  136.7989  151.5754 H   0  0  0  0  0  0  0  0  0  0  0  0
  144.8550  137.5006  153.1223 H   0  0  0  0  0  0  0  0  0  0  0  0
  147.2891  138.0955  151.3350 H   0  0  0  0  0  0  0  0  0  0  0  0
  145.8827  139.1050  151.4668 H   0  0  0  0  0  0  0  0  0  0  0  0
  147.7389  140.0473  152.6864 H   0  0  0  0  0  0  0  0  0  0  0  0
  146.5843  140.7631  154.5609 H   0  0  0  0  0  0  0  0  0  0  0  0
  145.2221  140.0128  153.7429 H   0  0  0  0  0  0  0  0  0  0  0  0
  146.3505  139.2844  156.2665 H   0  0  0  0  0  0  0  0  0  0  0  0
  145.1721  138.3254  155.3932 H   0  0  0  0  0  0  0  0  0  0  0  0
  147.8350  137.6291  155.9204 H   0  0  0  0  0  0  0  0  0  0  0  0
  145.8151  136.1449  155.1380 H   0  0  0  0  0  0  0  0  0  0  0  0
  147.4590  135.6304  154.9035 H   0  0  0  0  0  0  0  0  0  0  0  0
  152.4866  138.1168  154.1880 H   0  0  0  0  0  0  0  0  0  0  0  0
  148.7857  142.6984  156.7919 H   0  0  0  0  0  0  0  0  0  0  0  0
  152.5756  142.0211  156.5639 H   0  0  0  0  0  0  0  0  0  0  0  0
  151.5597  143.4211  156.4115 H   0  0  0  0  0  0  0  0  0  0  0  0
  149.3644  142.8730  158.4417 H   0  0  0  0  0  0  0  0  0  0  0  0
  150.1960  143.4961  159.8531 H   0  0  0  0  0  0  0  0  0  0  0  0
  150.0236  144.6101  157.3065 H   0  0  0  0  0  0  0  0  0  0  0  0
  150.8595  140.9379  159.7788 H   0  0  0  0  0  0  0  0  0  0  0  0
  152.1044  140.4114  158.5967 H   0  0  0  0  0  0  0  0  0  0  0  0
  153.7115  142.8872  158.4383 H   0  0  0  0  0  0  0  0  0  0  0  0
  152.8025  143.9113  159.5968 H   0  0  0  0  0  0  0  0  0  0  0  0
  147.4455  136.3073  152.7154 H   0  0  0  0  0  0  0  0  0  0  0  0
  1  2  1  0  0  0  0
  1 28  1  0  0  0  0
  1 29  1  0  0  0  0
  1 30  1  0  0  0  0
  2  3  1  0  0  0  0
  2 31  1  0  0  0  0
  2 32  1  0  0  0  0
  3 10  1  0  0  0  0
  3  4  1  0  0  0  0
  3 56  1  0  0  0  0
  4  5  1  0  0  0  0
  4 33  1  0  0  0  0
  4 34  1  0  0  0  0
  5  6  1  0  0  0  0
  5 35  1  0  0  0  0
  5 36  1  0  0  0  0
  6 11  1  0  0  0  0
  6  7  1  0  0  0  0
  6 37  1  0  0  0  0
  7  8  1  0  0  0  0
  7 38  1  0  0  0  0
  7 39  1  0  0  0  0
  8  9  1  0  0  0  0
  8 40  1  0  0  0  0
  8 41  1  0  0  0  0
  9 10  1  0  0  0  0
  9 11  1  0  0  0  0
  9 42  1  0  0  0  0
 10 43  1  0  0  0  0
 10 44  1  0  0  0  0
 11 12  1  0  0  0  0
 12 17  1  0  0  0  0
 12 13  2  0  0  0  0
 13 14  1  0  0  0  0
 14 15  2  0  0  0  0
 14 45  1  0  0  0  0
 15 16  1  0  0  0  0
 16 20  1  0  0  0  0
 16 17  2  0  0  0  0
 17 18  1  0  0  0  0
 18 19  2  0  0  0  0
 19 20  1  0  0  0  0
 19 46  1  0  0  0  0
 20 21  1  0  0  0  0
 21 22  1  0  0  0  0
 21 47  1  0  0  0  0
 21 48  1  0  0  0  0
 22 27  1  0  0  0  0
 22 23  1  0  0  0  0
 22 25  1  0  0  0  0
 23 24  1  0  0  0  0
 23 49  1  0  0  0  0
 23 50  1  0  0  0  0
 24 51  1  0  0  0  0
 25 26  1  0  0  0  0
 25 52  1  0  0  0  0
 25 53  1  0  0  0  0
 26 27  1  0  0  0  0
 27 54  1  0  0  0  0
 27 55  1  0  0  0  0
M  CHG  1   3   1
M  END
> <s_m_source_file>
AV-unprocessed.smi

> <i_m_source_file_index>
169

> <i_lp_mmshare_version>
43012

> <i_f3d_flags>
0

> <s_epik_input>
W0NASF0xMltDSDJdW0NIMl1OKFtDSDJdW0NIM10pW0NIMl1bQ0BIXShbQ0gyXVtDSDJdMSlOMmMobltjSF1uMyljKGMzNCluW2NIXW40W0NIMl1DNShbQ0gyXVtPSF0pW0NIMl1PW0NIMl01

> <s_epik_cmdline>
J2VwaWtfcHl0aG9uJywgJy1waCcsICc3LjAnLCAnLXRuJywgJzgnLCAnLW1hJywgJzIwMCcsICctbWV0YWxfYmluZGluZycsICctaW1hZScsICc8aW5maWxlLm1hZT4nLCAnLW9tYWUnLCAnPG91dGZpbGUubWFlPic=

> <r_lp_tautomer_probability>
1

> <r_epik_Ionization_Penalty>
0.00274162

> <r_epik_Ionization_Penalty_Charging>
0.00243722

> <r_epik_Ionization_Penalty_Neutral>
0.000304399

> <r_epik_State_Penalty>
-0

> <r_epik_Charging_Adjusted_Penalty>
0.00243722

> <i_epik_Tot_Q>
1

> <i_epik_Tot_abs_Q>
1

> <r_epik_Metal_State_Penalty>
-0

> <b_epik_Metal_Only>
0

> <s_lp_Force_Field>
OPLS_2005

> <r_lp_Energy>
78.3459

> <b_lp_Chiralities_Consistent>
1

> <s_lp_Variant>
AV-unprocessed.smi:169-2

> <Gold.Version>
5.8.1

> <Gold.Id.Protein>
6NUR|6NUR_protein|mol2

> <Gold.PLP.Fitness>
49.6292

> <Gold.PLP.PLP>
-38.6590

> <Gold.PLP.part.hbond>
-4.0000

> <Gold.PLP.part.metal>
0.0000

> <Gold.PLP.part.buried>
-3.9379

> <Gold.PLP.part.nonpolar>
-31.4583

> <Gold.PLP.part.repulsive>
0.5710

> <Gold.PLP.ligand.clash>
0.0000

> <Gold.PLP.ligand.torsion>
0.4201

> <Gold.PLP.Chemscore.Hbond>
3.0566

> <Gold.PLP.Chemscore.CHOScore>
0.7066

> <Gold.PLP.Chemscore.Metal>
0.0000

> <Gold.Chemscore.Hbonds>
donor molecule, donor type, donor heavy atom, donor atom, acceptor molecule, acceptor atom, score
      L1  H     3    56       P1  7948  2.00
      L1  H    24    51       P1  8028  1.00
      P1  H  7989  7998       L1    15  0.04
      L1  C    19    46       P1  8028  0.74

> <Gold.PLP.Chemscore.Internal.Correction>
0.5208

> <Gold.Rescore>
     Score         DG    S(hbond)    S(metal)    S(lipo)     H(rot)  DE(clash)    DE(int)     intcor
      9.46     -12.37       1.11        0.00      84.52       2.62       1.35       1.57       ----

> <Gold.Chemscore.Fitness>
9.4553

> <Gold.Chemscore.DG>
-12.3737

> <Gold.Chemscore.ZeroCoef>
-5.4800

> <Gold.Chemscore.Hbond>
1.1124

> <Gold.Chemscore.Metal>
0.0000

> <Gold.Chemscore.Lipo>
84.5165

> <Gold.Chemscore.Internal_Hbond>
0.0000

> <Gold.Chemscore.DEClash>
1.3517

> <Gold.Chemscore.DEInternal>
1.5667

> <Gold.Chemscore.Rot>
2.6212

> <Gold.Chemscore.Internal.Correction>
   9.000000E+99

> <Gold.Chemscore.Hbonds>
donor molecule, donor type, donor heavy atom, donor atom, acceptor molecule, acceptor atom, score
      L1  H     3    56       P1  7948  1.00
      L1  H    24    51       P1  8028  0.25

> <Gold.Chemscore.Hbond.Weighted>
-3.7155

> <Gold.Chemscore.Metal.Weighted>
-0.0000

> <Gold.Chemscore.Lipo.Weighted>
-9.8884

> <Gold.Chemscore.Internal_Hbond.Weighted>
0.0000

> <Gold.Chemscore.DEClash.Weighted>
1.3517

> <Gold.Chemscore.DEInternal.Weighted>
1.5667

> <Gold.Chemscore.Rot.Weighted>
6.7102

> <Gold.Chemscore.Internal.Correction.Weighted>
   9.000000E+99

> <Gold.Protein.RotatedTorsions>
[ 6907 6896 6895 6894 ] final  118.83 input  -60.11 | X-H torsion
[ 7974 7965 7964 7962 ] final   39.63 input  175.53 | X-H torsion
[ 8008 7997 7996 7995 ] final  147.21 input   59.86 | X-H torsion
[ 10167 10162 10161 10158 ] final  171.94 input  -65.29 | X-H torsion
[ 10718 10713 10712 10709 ] final   41.25 input   66.30 | X-H torsion
[ 10763 10752 10751 10750 ] final   -2.48 input  -60.55 | X-H torsion
[ 11005 11000 10999 10996 ] final  -50.98 input  -57.11 | X-H torsion

> <Gold.Protein.ActiveResidues>
 VAL166  LYS551  ARG553  GLY616  TRP617  ASP618  TYR619  PRO620  LYS621  CYS622 
 ASP623  PHE694  ASN695  SER759  ASP760  ASP761  ALA762  ILE779  LEU786  VAL792 
 PHE793  MET794  SER795  GLU796  ALA797  LYS798  CYS799  TRP800  GLU811  SER814 

> <Gold.Protein.RotatedAtoms>
  152.4515  133.7639  159.6761 H   0  0  0  0  0  0  0  0  0  0  0  0  # atno 6907 bound_to 6896
  150.8428  133.7898  159.3060 H   0  0  0  0  0  0  0  0  0  0  0  0  # atno 6908 bound_to 6896
  151.5517  135.1070  160.0003 H   0  0  0  0  0  0  0  0  0  0  0  0  # atno 6909 bound_to 6896
  146.0969  139.5628  142.9440 H   0  0  0  0  0  0  0  0  0  0  0  0  # atno 7974 bound_to 7965
  156.2832  140.2162  156.5500 H   0  0  0  0  0  0  0  0  0  0  0  0  # atno 8008 bound_to 7997
  154.7299  140.0496  157.0739 H   0  0  0  0  0  0  0  0  0  0  0  0  # atno 8009 bound_to 7997
  155.0368  140.3141  155.4742 H   0  0  0  0  0  0  0  0  0  0  0  0  # atno 8010 bound_to 7997
  139.5061  144.3429  152.0000 H   0  0  0  0  0  0  0  0  0  0  0  0  # atno 10167 bound_to 10162
  157.3915  130.7809  149.7273 H   0  0  0  0  0  0  0  0  0  0  0  0  # atno 10718 bound_to 10713
  153.3586  135.6989  153.6731 H   0  0  0  0  0  0  0  0  0  0  0  0  # atno 10763 bound_to 10752
  153.5429  135.3569  155.2726 H   0  0  0  0  0  0  0  0  0  0  0  0  # atno 10764 bound_to 10752
  154.8664  135.4208  154.2837 H   0  0  0  0  0  0  0  0  0  0  0  0  # atno 10765 bound_to 10752
  141.0846  133.6645  156.3810 H   0  0  0  0  0  0  0  0  0  0  0  0  # atno 11005 bound_to 11000
  145.5931  141.0366  143.2059 LP  0  0  0  0  0  0  0  0  0  0  0  0  # atno 17320 bound_to 7965
  144.7402  139.7471  143.7314 LP  0  0  0  0  0  0  0  0  0  0  0  0  # atno 17321 bound_to 7965
  140.2867  144.3800  150.6101 LP  0  0  0  0  0  0  0  0  0  0  0  0  # atno 17342 bound_to 10162
  140.5978  143.2167  151.7131 LP  0  0  0  0  0  0  0  0  0  0  0  0  # atno 17343 bound_to 10162
  155.9799  130.4035  150.3557 LP  0  0  0  0  0  0  0  0  0  0  0  0  # atno 17370 bound_to 10713
  157.1674  131.0360  151.2812 LP  0  0  0  0  0  0  0  0  0  0  0  0  # atno 17371 bound_to 10713
  140.5392  134.6137  157.5374 LP  0  0  0  0  0  0  0  0  0  0  0  0  # atno 17394 bound_to 11000
  139.9663  134.7368  156.0132 LP  0  0  0  0  0  0  0  0  0  0  0  0  # atno 17395 bound_to 11000

$$$$
