AV-unprocessed.smi:1661|AV-procd|sdf|6656|dock2
  -GOLD-   22720 7363D 1   1.00000     0.00000
 Structure written by MMmdl.
 37 38  0  0  0  0  0  0  0  0  3 V2000
  150.0719  144.7471  159.5754 C   0  0  0  0  0  0  0  0  0  0  0  0
  151.5369  145.1885  159.7381 C   0  0  2  0  0  0  0  0  0  0  0  0
  152.4634  144.5868  158.6661 C   0  0  0  0  0  0  0  0  0  0  0  0
  152.7420  143.0925  158.9083 C   0  0  0  0  0  0  0  0  0  0  0  0
  153.2970  142.8593  160.2667 N   0  3  2  0  0  0  0  0  0  0  0  0
  153.6941  141.4442  160.4729 C   0  0  0  0  0  0  0  0  0  0  0  0
  152.6115  140.4566  159.9986 C   0  0  0  0  0  0  0  0  0  0  0  0
  152.8748  139.9943  158.6412 N   0  0  0  0  0  0  0  0  0  0  0  0
  152.1807  140.3423  157.5484 C   0  0  0  0  0  0  0  0  0  0  0  0
  151.2318  141.1237  157.6464 O   0  0  0  0  0  0  0  0  0  0  0  0
  152.6256  139.7586  156.4133 N   0  5  0  0  0  0  0  0  0  0  0  0
  151.7984  138.9913  155.6842 C   0  0  0  0  0  0  0  0  0  0  0  0
  150.8576  139.5123  154.8803 N   0  0  0  0  0  0  0  0  0  0  0  0
  150.1140  138.5481  154.2134 N   0  0  0  0  0  0  0  0  0  0  0  0
  150.5208  137.3182  154.5271 C   0  0  0  0  0  0  0  0  0  0  0  0
  151.8501  137.2265  155.6631 S   0  0  0  0  0  0  0  0  0  0  0  0
  152.3877  143.3733  161.3251 C   0  0  0  0  0  0  0  0  0  0  0  0
  152.1013  144.8739  161.1352 C   0  0  0  0  0  0  0  0  0  0  0  0
  149.9516  143.6696  159.6824 H   0  0  0  0  0  0  0  0  0  0  0  0
  149.6876  145.0253  158.5937 H   0  0  0  0  0  0  0  0  0  0  0  0
  149.4359  145.2250  160.3211 H   0  0  0  0  0  0  0  0  0  0  0  0
  151.5479  146.2721  159.6137 H   0  0  0  0  0  0  0  0  0  0  0  0
  152.0373  144.7325  157.6728 H   0  0  0  0  0  0  0  0  0  0  0  0
  153.4111  145.1268  158.6696 H   0  0  0  0  0  0  0  0  0  0  0  0
  151.8320  142.5052  158.7779 H   0  0  0  0  0  0  0  0  0  0  0  0
  153.4512  142.7413  158.1578 H   0  0  0  0  0  0  0  0  0  0  0  0
  154.6447  141.2479  159.9743 H   0  0  0  0  0  0  0  0  0  0  0  0
  153.8674  141.2778  161.5371 H   0  0  0  0  0  0  0  0  0  0  0  0
  152.5435  139.6044  160.6768 H   0  0  0  0  0  0  0  0  0  0  0  0
  151.6294  140.9271  159.9924 H   0  0  0  0  0  0  0  0  0  0  0  0
  153.6475  139.3569  158.5150 H   0  0  0  0  0  0  0  0  0  0  0  0
  150.0378  136.4600  154.0845 H   0  0  0  0  0  0  0  0  0  0  0  0
  151.4576  142.8036  161.3175 H   0  0  0  0  0  0  0  0  0  0  0  0
  152.8324  143.2271  162.3086 H   0  0  0  0  0  0  0  0  0  0  0  0
  153.0280  145.4310  161.2800 H   0  0  0  0  0  0  0  0  0  0  0  0
  151.4152  145.2243  161.9071 H   0  0  0  0  0  0  0  0  0  0  0  0
  154.1475  143.4016  160.3177 H   0  0  0  0  0  0  0  0  0  0  0  0
  1  2  1  0  0  0  0
  1 19  1  0  0  0  0
  1 20  1  0  0  0  0
  1 21  1  0  0  0  0
  2 18  1  0  0  0  0
  2  3  1  0  0  0  0
  2 22  1  0  0  0  0
  3  4  1  0  0  0  0
  3 23  1  0  0  0  0
  3 24  1  0  0  0  0
  4  5  1  0  0  0  0
  4 25  1  0  0  0  0
  4 26  1  0  0  0  0
  5  6  1  0  0  0  0
  5 17  1  0  0  0  0
  5 37  1  0  0  0  0
  6  7  1  0  0  0  0
  6 27  1  0  0  0  0
  6 28  1  0  0  0  0
  7  8  1  0  0  0  0
  7 29  1  0  0  0  0
  7 30  1  0  0  0  0
  8  9  1  0  0  0  0
  8 31  1  0  0  0  0
  9 10  2  0  0  0  0
  9 11  1  0  0  0  0
 11 12  1  0  0  0  0
 12 16  1  0  0  0  0
 12 13  2  0  0  0  0
 13 14  1  0  0  0  0
 14 15  2  0  0  0  0
 15 16  1  0  0  0  0
 15 32  1  0  0  0  0
 17 18  1  0  0  0  0
 17 33  1  0  0  0  0
 17 34  1  0  0  0  0
 18 35  1  0  0  0  0
 18 36  1  0  0  0  0
M  CHG  1   5   1
M  CHG  1  11  -1
M  END
> <s_m_source_file>
AV-unprocessed.smi

> <i_m_source_file_index>
1661

> <i_lp_mmshare_version>
43012

> <i_f3d_flags>
0

> <s_epik_input>
W0NIM11bQ0hdMVtDSDJdW0NIMl1OKFtDSDJdW0NIMl0xKVtDSDJdW0NIMl1bTkhdQyg9TylbTkhdYzJubltjSF1zMg==

> <s_epik_cmdline>
J2VwaWtfcHl0aG9uJywgJy1waCcsICc3LjAnLCAnLXRuJywgJzgnLCAnLW1hJywgJzIwMCcsICctbWV0YWxfYmluZGluZycsICctaW1hZScsICc8aW5maWxlLm1hZT4nLCAnLW9tYWUnLCAnPG91dGZpbGUubWFlPic=

> <r_lp_tautomer_probability>
1

> <r_epik_Ionization_Penalty>
3.04466

> <r_epik_Ionization_Penalty_Charging>
3.01305

> <r_epik_Ionization_Penalty_Neutral>
0.0316037

> <r_epik_State_Penalty>
3.00821

> <r_epik_Charging_Adjusted_Penalty>
6.02127

> <i_epik_Tot_Q>
0

> <i_epik_Tot_abs_Q>
2

> <r_epik_Metal_State_Penalty>
0.454395

> <b_epik_Metal_Only>
1

> <s_lp_Force_Field>
OPLS_2005

> <r_lp_Energy>
9.834

> <b_lp_Chiralities_Consistent>
1

> <s_lp_Variant>
AV-unprocessed.smi:1661-4

> <Gold.Version>
5.8.1

> <Gold.Id.Protein>
6NUR|6NUR_protein|mol2

> <Gold.PLP.Fitness>
46.8700

> <Gold.PLP.PLP>
-38.1711

> <Gold.PLP.part.hbond>
-2.0000

> <Gold.PLP.part.metal>
0.0000

> <Gold.PLP.part.buried>
-4.1818

> <Gold.PLP.part.nonpolar>
-33.3818

> <Gold.PLP.part.repulsive>
0.9859

> <Gold.PLP.ligand.clash>
0.0000

> <Gold.PLP.ligand.torsion>
1.7017

> <Gold.PLP.Chemscore.Hbond>
3.0000

> <Gold.PLP.Chemscore.CHOScore>
1.0000

> <Gold.PLP.Chemscore.Metal>
0.0000

> <Gold.Chemscore.Hbonds>
donor molecule, donor type, donor heavy atom, donor atom, acceptor molecule, acceptor atom, score
      P1  H  7989  7998       L1    13  0.86
      P1  H  7997  8010       L1    11  2.00
      L1  C    15    32       P1  7948  0.99
      L1  C    15    32       P1  7949  0.01

> <Gold.PLP.Chemscore.Internal.Correction>
0.1024

> <Gold.Rescore>
     Score         DG    S(hbond)    S(metal)    S(lipo)     H(rot)  DE(clash)    DE(int)     intcor
     15.39     -18.30       1.57        0.00     101.46       1.68       0.50       2.41       ----

> <Gold.Chemscore.Fitness>
15.3903

> <Gold.Chemscore.DG>
-18.3012

> <Gold.Chemscore.ZeroCoef>
-5.4800

> <Gold.Chemscore.Hbond>
1.5704

> <Gold.Chemscore.Metal>
0.0000

> <Gold.Chemscore.Lipo>
101.4613

> <Gold.Chemscore.Internal_Hbond>
0.0000

> <Gold.Chemscore.DEClash>
0.5031

> <Gold.Chemscore.DEInternal>
2.4078

> <Gold.Chemscore.Rot>
1.6777

> <Gold.Chemscore.Internal.Correction>
   9.000000E+99

> <Gold.Chemscore.Hbonds>
donor molecule, donor type, donor heavy atom, donor atom, acceptor molecule, acceptor atom, score
      P1  H  7989  7998       L1    13  0.50
      P1  H  7997  8010       L1    11  0.35

> <Gold.Chemscore.Hbond.Weighted>
-5.2452

> <Gold.Chemscore.Metal.Weighted>
-0.0000

> <Gold.Chemscore.Lipo.Weighted>
-11.8710

> <Gold.Chemscore.Internal_Hbond.Weighted>
0.0000

> <Gold.Chemscore.DEClash.Weighted>
0.5031

> <Gold.Chemscore.DEInternal.Weighted>
2.4078

> <Gold.Chemscore.Rot.Weighted>
4.2950

> <Gold.Chemscore.Internal.Correction.Weighted>
   9.000000E+99

> <Gold.Protein.RotatedTorsions>
[ 6907 6896 6895 6894 ] final  109.93 input  -60.11 | X-H torsion
[ 7974 7965 7964 7962 ] final  179.15 input  175.53 | X-H torsion
[ 8008 7997 7996 7995 ] final   68.12 input   59.86 | X-H torsion
[ 10167 10162 10161 10158 ] final  133.42 input  -65.29 | X-H torsion
[ 10718 10713 10712 10709 ] final   85.01 input   66.30 | X-H torsion
[ 10763 10752 10751 10750 ] final   95.98 input  -60.55 | X-H torsion
[ 11005 11000 10999 10996 ] final  142.35 input  -57.11 | X-H torsion

> <Gold.Protein.ActiveResidues>
 VAL166  LYS551  ARG553  GLY616  TRP617  ASP618  TYR619  PRO620  LYS621  CYS622 
 ASP623  PHE694  ASN695  SER759  ASP760  ASP761  ALA762  ILE779  LEU786  VAL792 
 PHE793  MET794  SER795  GLU796  ALA797  LYS798  CYS799  TRP800  GLU811  SER814 

> <Gold.Protein.RotatedAtoms>
  152.5044  133.8872  159.7375 H   0  0  0  0  0  0  0  0  0  0  0  0  # atno 6907 bound_to 6896
  150.9320  133.6747  159.2815 H   0  0  0  0  0  0  0  0  0  0  0  0  # atno 6908 bound_to 6896
  151.4088  135.0986  159.9631 H   0  0  0  0  0  0  0  0  0  0  0  0  # atno 6909 bound_to 6896
  144.7148  140.0505  143.6435 H   0  0  0  0  0  0  0  0  0  0  0  0  # atno 7974 bound_to 7965
  155.7035  140.3495  155.4943 H   0  0  0  0  0  0  0  0  0  0  0  0  # atno 8008 bound_to 7997
  155.9419  140.1103  157.1070 H   0  0  0  0  0  0  0  0  0  0  0  0  # atno 8009 bound_to 7997
  154.4104  140.1211  156.4925 H   0  0  0  0  0  0  0  0  0  0  0  0  # atno 8010 bound_to 7997
  139.5298  144.6616  151.4993 H   0  0  0  0  0  0  0  0  0  0  0  0  # atno 10167 bound_to 10162
  157.6908  131.0157  150.2759 H   0  0  0  0  0  0  0  0  0  0  0  0  # atno 10718 bound_to 10713
  153.2595  135.4235  155.0880 H   0  0  0  0  0  0  0  0  0  0  0  0  # atno 10763 bound_to 10752
  154.8414  135.3445  154.6398 H   0  0  0  0  0  0  0  0  0  0  0  0  # atno 10764 bound_to 10752
  153.6818  135.7038  153.5173 H   0  0  0  0  0  0  0  0  0  0  0  0  # atno 10765 bound_to 10752
  140.0470  134.9275  157.0948 H   0  0  0  0  0  0  0  0  0  0  0  0  # atno 11005 bound_to 11000
  145.9948  139.3043  143.0963 LP  0  0  0  0  0  0  0  0  0  0  0  0  # atno 17320 bound_to 7965
  145.8862  140.9332  143.0576 LP  0  0  0  0  0  0  0  0  0  0  0  0  # atno 17321 bound_to 7965
  140.6468  143.8778  150.6745 LP  0  0  0  0  0  0  0  0  0  0  0  0  # atno 17342 bound_to 10162
  140.2130  143.3868  152.1703 LP  0  0  0  0  0  0  0  0  0  0  0  0  # atno 17343 bound_to 10162
  156.3314  130.3801  149.7488 LP  0  0  0  0  0  0  0  0  0  0  0  0  # atno 17370 bound_to 10713
  156.5026  130.8136  151.3138 LP  0  0  0  0  0  0  0  0  0  0  0  0  # atno 17371 bound_to 10713
  140.3978  134.2115  155.7164 LP  0  0  0  0  0  0  0  0  0  0  0  0  # atno 17394 bound_to 11000
  141.1912  133.8201  157.0890 LP  0  0  0  0  0  0  0  0  0  0  0  0  # atno 17395 bound_to 11000

$$$$
