AV-unprocessed.smi:265|AV-procd|sdf|2020|dock2
  -GOLD-   2262021223D 1   1.00000     0.00000
 Structure written by MMmdl.
 52 56  0  0  0  0  0  0  0  0  1 V2000
  151.8054  138.2627  154.4708 C   0  0  0  0  0  0  0  0  0  0  0  0
  150.8750  138.7387  155.5996 C   0  0  1  0  0  0  0  0  0  0  0  0
  151.7141  139.1481  156.6810 O   0  0  0  0  0  0  0  0  0  0  0  0
  151.3203  140.4265  157.1564 C   0  0  0  0  0  0  0  0  0  0  0  0
  150.7356  141.0996  155.9251 C   0  0  0  0  0  0  0  0  0  0  0  0
  149.9729  139.9555  155.2650 C   0  0  1  0  0  0  0  0  0  0  0  0
  149.8852  140.2084  153.8737 O   0  0  0  0  0  0  0  0  0  0  0  0
  148.5361  139.7504  155.8170 C   0  0  0  0  0  0  0  0  0  0  0  0
  147.8226  138.6238  155.2338 N   0  0  0  0  0  0  0  0  0  0  0  0
  147.5218  137.4326  155.8551 C   0  0  0  0  0  0  0  0  0  0  0  0
  146.8724  136.5701  155.1221 N   0  0  0  0  0  0  0  0  0  0  0  0
  146.7316  137.2058  153.8941 C   0  0  0  0  0  0  0  0  0  0  0  0
  146.1335  136.8441  152.6537 C   0  0  0  0  0  0  0  0  0  0  0  0
  145.5410  135.6400  152.4499 N   0  0  0  0  0  0  0  0  0  0  0  0
  144.0862  135.6155  152.2993 C   0  0  0  0  0  0  0  0  0  0  0  0
  143.5452  134.1885  152.4758 C   0  0  0  0  0  0  0  0  0  0  0  0
  144.2525  133.1896  151.5455 C   0  0  1  0  0  0  0  0  0  0  0  0
  143.9076  133.4485  150.1906 O   0  0  0  0  0  0  0  0  0  0  0  0
  144.3766  132.4548  149.2776 C   0  0  0  0  0  0  0  0  0  0  0  0
  145.8681  132.1292  149.4819 C   0  0  0  0  0  0  0  0  0  0  0  0
  146.4893  131.5280  148.6084 O   0  0  0  0  0  0  0  0  0  0  0  0
  146.4387  132.4814  150.6453 N   0  0  0  0  0  0  0  0  0  0  0  0
  145.7884  133.2975  151.6651 C   0  0  1  0  0  0  0  0  0  0  0  0
  146.2655  134.7583  151.5366 C   0  0  0  0  0  0  0  0  0  0  0  0
  146.1775  137.7595  151.6486 N   0  0  0  0  0  0  0  0  0  0  0  0
  146.7732  138.9407  151.8361 C   0  0  0  0  0  0  0  0  0  0  0  0
  147.3750  139.4066  152.9318 N   0  0  0  0  0  0  0  0  0  0  0  0
  147.3248  138.4991  153.9481 C   0  0  0  0  0  0  0  0  0  0  0  0
  143.9232  132.1814  151.8050 H   0  0  0  0  0  0  0  0  0  0  0  0
  146.0914  132.9178  152.6417 H   0  0  0  0  0  0  0  0  0  0  0  0
  151.2370  137.8903  153.6182 H   0  0  0  0  0  0  0  0  0  0  0  0
  152.4468  137.4509  154.8146 H   0  0  0  0  0  0  0  0  0  0  0  0
  152.4514  139.0690  154.1212 H   0  0  0  0  0  0  0  0  0  0  0  0
  150.2698  137.8933  155.9293 H   0  0  0  0  0  0  0  0  0  0  0  0
  150.5656  140.3108  157.9352 H   0  0  0  0  0  0  0  0  0  0  0  0
  152.1641  140.9742  157.5759 H   0  0  0  0  0  0  0  0  0  0  0  0
  150.1343  141.9769  156.1593 H   0  0  0  0  0  0  0  0  0  0  0  0
  151.5545  141.4300  155.2834 H   0  0  0  0  0  0  0  0  0  0  0  0
  149.1720  140.8098  153.7218 H   0  0  0  0  0  0  0  0  0  0  0  0
  148.5668  139.6110  156.8986 H   0  0  0  0  0  0  0  0  0  0  0  0
  147.9361  140.6456  155.6496 H   0  0  0  0  0  0  0  0  0  0  0  0
  147.7930  137.2260  156.8803 H   0  0  0  0  0  0  0  0  0  0  0  0
  143.6200  136.2711  153.0362 H   0  0  0  0  0  0  0  0  0  0  0  0
  143.8183  135.9969  151.3127 H   0  0  0  0  0  0  0  0  0  0  0  0
  143.6935  133.8781  153.5109 H   0  0  0  0  0  0  0  0  0  0  0  0
  142.4694  134.1700  152.2998 H   0  0  0  0  0  0  0  0  0  0  0  0
  143.7953  131.5410  149.4068 H   0  0  0  0  0  0  0  0  0  0  0  0
  144.2106  132.8026  148.2578 H   0  0  0  0  0  0  0  0  0  0  0  0
  147.4057  132.2344  150.7978 H   0  0  0  0  0  0  0  0  0  0  0  0
  146.1032  135.1164  150.5187 H   0  0  0  0  0  0  0  0  0  0  0  0
  147.3403  134.8017  151.7096 H   0  0  0  0  0  0  0  0  0  0  0  0
  146.7669  139.6077  150.9866 H   0  0  0  0  0  0  0  0  0  0  0  0
  1  2  1  0  0  0  0
  1 31  1  0  0  0  0
  1 32  1  0  0  0  0
  1 33  1  0  0  0  0
  2  6  1  0  0  0  0
  2  3  1  0  0  0  0
  2 34  1  0  0  0  0
  3  4  1  0  0  0  0
  4  5  1  0  0  0  0
  4 35  1  0  0  0  0
  4 36  1  0  0  0  0
  5  6  1  0  0  0  0
  5 37  1  0  0  0  0
  5 38  1  0  0  0  0
  6  7  1  0  0  0  0
  6  8  1  0  0  0  0
  7 39  1  0  0  0  0
  8  9  1  0  0  0  0
  8 40  1  0  0  0  0
  8 41  1  0  0  0  0
  9 28  1  0  0  0  0
  9 10  1  0  0  0  0
 10 11  2  0  0  0  0
 10 42  1  0  0  0  0
 11 12  1  0  0  0  0
 12 28  2  0  0  0  0
 12 13  1  0  0  0  0
 13 14  1  0  0  0  0
 13 25  2  0  0  0  0
 14 24  1  0  0  0  0
 14 15  1  0  0  0  0
 15 16  1  0  0  0  0
 15 43  1  0  0  0  0
 15 44  1  0  0  0  0
 16 17  1  0  0  0  0
 16 45  1  0  0  0  0
 16 46  1  0  0  0  0
 17 29  1  0  0  0  0
 17 23  1  0  0  0  0
 17 18  1  0  0  0  0
 18 19  1  0  0  0  0
 19 20  1  0  0  0  0
 19 47  1  0  0  0  0
 19 48  1  0  0  0  0
 20 21  2  0  0  0  0
 20 22  1  0  0  0  0
 22 23  1  0  0  0  0
 22 49  1  0  0  0  0
 23 30  1  0  0  0  0
 23 24  1  0  0  0  0
 24 50  1  0  0  0  0
 24 51  1  0  0  0  0
 25 26  1  0  0  0  0
 26 27  2  0  0  0  0
 26 52  1  0  0  0  0
 27 28  1  0  0  0  0
M  END
> <s_m_source_file>
AV-unprocessed.smi

> <i_m_source_file_index>
265

> <i_lp_mmshare_version>
43012

> <i_f3d_flags>
0

> <s_epik_input>
W0NIMl0xW0NIMl1PW0NAQEhdKFtDSDNdKVtDQEBdMShbT0hdKVtDSDJdbihbY0hdbjIpYyhjMjMpbltjSF1uYzNOKFtDSDJdW0NIMl00KVtDSDJdW0NAQEhdKFtDQEhdNDUpW05IXUMoPU8pW0NIMl1PNQ==

> <s_epik_cmdline>
J2VwaWtfcHl0aG9uJywgJy1waCcsICc3LjAnLCAnLXRuJywgJzgnLCAnLW1hJywgJzIwMCcsICctbWV0YWxfYmluZGluZycsICctaW1hZScsICc8aW5maWxlLm1hZT4nLCAnLW9tYWUnLCAnPG91dGZpbGUubWFlPic=

> <r_lp_tautomer_probability>
1

> <r_epik_Ionization_Penalty>
0.00221504

> <r_epik_Ionization_Penalty_Charging>
0

> <r_epik_Ionization_Penalty_Neutral>
0.00221504

> <r_epik_State_Penalty>
-0

> <r_epik_Charging_Adjusted_Penalty>
0

> <i_epik_Tot_Q>
0

> <i_epik_Tot_abs_Q>
0

> <r_epik_Metal_State_Penalty>
-0

> <b_epik_Metal_Only>
0

> <s_lp_Force_Field>
OPLS_2005

> <r_lp_Energy>
44.9484

> <b_lp_Chiralities_Consistent>
1

> <s_lp_Variant>
AV-unprocessed.smi:265-6

> <Gold.Version>
5.8.1

> <Gold.Id.Protein>
6NUR|6NUR_protein|mol2

> <Gold.PLP.Fitness>
40.7640

> <Gold.PLP.PLP>
-36.4135

> <Gold.PLP.part.hbond>
-3.8620

> <Gold.PLP.part.metal>
0.0000

> <Gold.PLP.part.buried>
-3.8062

> <Gold.PLP.part.nonpolar>
-32.1238

> <Gold.PLP.part.repulsive>
4.0979

> <Gold.PLP.ligand.clash>
0.0000

> <Gold.PLP.ligand.torsion>
0.2870

> <Gold.PLP.Chemscore.Hbond>
1.4232

> <Gold.PLP.Chemscore.CHOScore>
0.0925

> <Gold.PLP.Chemscore.Metal>
0.0000

> <Gold.Chemscore.Hbonds>
donor molecule, donor type, donor heavy atom, donor atom, acceptor molecule, acceptor atom, score
      L1  H    22    49       P1 10747  0.63
      P1  H  7989  7998       L1     7  0.75
      L1  C    26    52       P1  7957  0.07

> <Gold.PLP.Chemscore.Internal.Correction>
0.3773

> <Gold.Rescore>
     Score         DG    S(hbond)    S(metal)    S(lipo)     H(rot)  DE(clash)    DE(int)     intcor
      9.79     -12.17       1.28        0.00      69.79       2.25       0.75       1.62       ----

> <Gold.Chemscore.Fitness>
9.7916

> <Gold.Chemscore.DG>
-12.1690

> <Gold.Chemscore.ZeroCoef>
-5.4800

> <Gold.Chemscore.Hbond>
1.2788

> <Gold.Chemscore.Metal>
0.0000

> <Gold.Chemscore.Lipo>
69.7909

> <Gold.Chemscore.Internal_Hbond>
0.0000

> <Gold.Chemscore.DEClash>
0.7525

> <Gold.Chemscore.DEInternal>
1.6249

> <Gold.Chemscore.Rot>
2.2453

> <Gold.Chemscore.Internal.Correction>
   9.000000E+99

> <Gold.Chemscore.Hbonds>
donor molecule, donor type, donor heavy atom, donor atom, acceptor molecule, acceptor atom, score
      L1  H    22    49       P1 10747  0.62
      P1  H  7989  7998       L1     7  0.27

> <Gold.Chemscore.Hbond.Weighted>
-4.2713

> <Gold.Chemscore.Metal.Weighted>
-0.0000

> <Gold.Chemscore.Lipo.Weighted>
-8.1655

> <Gold.Chemscore.Internal_Hbond.Weighted>
0.0000

> <Gold.Chemscore.DEClash.Weighted>
0.7525

> <Gold.Chemscore.DEInternal.Weighted>
1.6249

> <Gold.Chemscore.Rot.Weighted>
5.7479

> <Gold.Chemscore.Internal.Correction.Weighted>
   9.000000E+99

> <Gold.Protein.RotatedTorsions>
[ 6907 6896 6895 6894 ] final   16.27 input  -60.11 | X-H torsion
[ 7974 7965 7964 7962 ] final  122.56 input  175.53 | X-H torsion
[ 8008 7997 7996 7995 ] final  -52.62 input   59.86 | X-H torsion
[ 10167 10162 10161 10158 ] final -159.75 input  -65.29 | X-H torsion
[ 10718 10713 10712 10709 ] final  156.06 input   66.30 | X-H torsion
[ 10763 10752 10751 10750 ] final  -83.14 input  -60.55 | X-H torsion
[ 11005 11000 10999 10996 ] final   41.11 input  -57.11 | X-H torsion

> <Gold.Protein.ActiveResidues>
 VAL166  LYS551  ARG553  GLY616  TRP617  ASP618  TYR619  PRO620  LYS621  CYS622 
 ASP623  PHE694  ASN695  SER759  ASP760  ASP761  ALA762  ILE779  LEU786  VAL792 
 PHE793  MET794  SER795  GLU796  ALA797  LYS798  CYS799  TRP800  GLU811  SER814 

> <Gold.Protein.RotatedAtoms>
  151.8312  135.0621  160.0436 H   0  0  0  0  0  0  0  0  0  0  0  0  # atno 6907 bound_to 6896
  152.2879  133.5528  159.5547 H   0  0  0  0  0  0  0  0  0  0  0  0  # atno 6908 bound_to 6896
  150.7217  134.0387  159.3800 H   0  0  0  0  0  0  0  0  0  0  0  0  # atno 6909 bound_to 6896
  145.1062  139.3484  143.4787 H   0  0  0  0  0  0  0  0  0  0  0  0  # atno 7974 bound_to 7965
  154.4111  140.1219  156.5021 H   0  0  0  0  0  0  0  0  0  0  0  0  # atno 8008 bound_to 7997
  155.6884  140.3495  155.4864 H   0  0  0  0  0  0  0  0  0  0  0  0  # atno 8009 bound_to 7997
  155.9490  140.1101  157.0982 H   0  0  0  0  0  0  0  0  0  0  0  0  # atno 8010 bound_to 7997
  139.6591  143.9945  152.2213 H   0  0  0  0  0  0  0  0  0  0  0  0  # atno 10167 bound_to 10162
  157.2100  131.0695  151.1975 H   0  0  0  0  0  0  0  0  0  0  0  0  # atno 10718 bound_to 10713
  154.5841  135.5567  153.7214 H   0  0  0  0  0  0  0  0  0  0  0  0  # atno 10763 bound_to 10752
  153.0092  135.6327  154.1941 H   0  0  0  0  0  0  0  0  0  0  0  0  # atno 10764 bound_to 10752
  154.1882  135.2883  155.3010 H   0  0  0  0  0  0  0  0  0  0  0  0  # atno 10765 bound_to 10752
  140.1866  134.4038  155.8170 H   0  0  0  0  0  0  0  0  0  0  0  0  # atno 11005 bound_to 11000
  146.3528  140.0961  142.8610 LP  0  0  0  0  0  0  0  0  0  0  0  0  # atno 17320 bound_to 7965
  145.0899  140.9277  143.4775 LP  0  0  0  0  0  0  0  0  0  0  0  0  # atno 17321 bound_to 7965
  139.9679  144.6514  150.8017 LP  0  0  0  0  0  0  0  0  0  0  0  0  # atno 17342 bound_to 10162
  140.7572  143.3082  151.2910 LP  0  0  0  0  0  0  0  0  0  0  0  0  # atno 17343 bound_to 10162
  157.3682  130.7167  149.6547 LP  0  0  0  0  0  0  0  0  0  0  0  0  # atno 17370 bound_to 10713
  155.9691  130.4206  150.4431 LP  0  0  0  0  0  0  0  0  0  0  0  0  # atno 17371 bound_to 10713
  141.2225  133.7026  156.8022 LP  0  0  0  0  0  0  0  0  0  0  0  0  # atno 17394 bound_to 11000
  140.2207  134.8759  157.3374 LP  0  0  0  0  0  0  0  0  0  0  0  0  # atno 17395 bound_to 11000

$$$$
