AV-unprocessed.smi:283|AV-procd|sdf|2144|dock1
  -GOLD-   2262021473D 1   1.00000     0.00000
 Structure written by MMmdl.
 48 51  0  0  0  0  0  0  0  0  1 V2000
  155.8902  140.5039  160.3364 C   0  0  0  0  0  0  0  0  0  0  0  0
  154.4403  140.1427  160.6860 C   0  0  1  0  0  0  0  0  0  0  0  0
  154.4203  139.2419  161.8369 N   0  0  0  0  0  0  0  0  0  0  0  0
  154.4535  137.9017  161.6669 C   0  0  0  0  0  0  0  0  0  0  0  0
  154.7008  137.4764  160.4052 N   0  0  0  0  0  0  0  0  0  0  0  0
  154.7821  136.1696  160.1423 C   0  0  0  0  0  0  0  0  0  0  0  0
  154.6481  135.1410  160.9810 N   0  0  0  0  0  0  0  0  0  0  0  0
  154.3809  135.5590  162.2519 C   0  0  0  0  0  0  0  0  0  0  0  0
  154.2609  136.9133  162.6769 C   0  0  0  0  0  0  0  0  0  0  0  0
  153.9665  136.9427  164.0351 N   0  0  0  0  0  0  0  0  0  0  0  0
  153.9334  135.6875  164.3884 C   0  0  0  0  0  0  0  0  0  0  0  0
  154.1790  134.7867  163.3780 N   0  0  0  0  0  0  0  0  0  0  0  0
  154.2198  133.2970  163.4793 C   0  0  1  0  0  0  0  0  0  0  0  0
  155.5168  132.8756  163.1949 O   0  0  0  0  0  0  0  0  0  0  0  0
  155.8808  131.7885  164.0388 C   0  0  2  0  0  0  0  0  0  0  0  0
  155.4634  130.4671  163.3646 C   0  0  0  0  0  0  0  0  0  0  0  0
  155.7396  129.3815  164.2229 O   0  0  0  0  0  0  0  0  0  0  0  0
  155.1106  132.0636  165.3379 C   0  0  1  0  0  0  0  0  0  0  0  0
  155.9142  132.8468  166.1979 O   0  0  0  0  0  0  0  0  0  0  0  0
  153.8671  132.8350  164.9025 C   0  0  2  0  0  0  0  0  0  0  0  0
  152.7526  131.9652  164.8906 O   0  0  0  0  0  0  0  0  0  0  0  0
  153.6016  141.4137  160.8522 C   0  0  0  0  0  0  0  0  0  0  0  0
  152.8593  141.9161  159.7577 C   0  0  0  0  0  0  0  0  0  0  0  0
  152.0874  143.0856  159.8885 C   0  0  0  0  0  0  0  0  0  0  0  0
  152.0411  143.7625  161.1202 C   0  0  0  0  0  0  0  0  0  0  0  0
  152.7620  143.2634  162.2207 C   0  0  0  0  0  0  0  0  0  0  0  0
  153.5365  142.0926  162.0954 C   0  0  0  0  0  0  0  0  0  0  0  0
  154.3878  141.5181  163.4865 Cl  0  0  0  0  0  0  0  0  0  0  0  0
  153.5257  132.9429  162.7154 H   0  0  0  0  0  0  0  0  0  0  0  0
  156.9579  131.7826  164.2158 H   0  0  0  0  0  0  0  0  0  0  0  0
  154.8689  131.1462  165.8770 H   0  0  0  0  0  0  0  0  0  0  0  0
  153.6515  133.6825  165.5558 H   0  0  0  0  0  0  0  0  0  0  0  0
  155.9362  141.1026  159.4261 H   0  0  0  0  0  0  0  0  0  0  0  0
  156.4902  139.6085  160.1702 H   0  0  0  0  0  0  0  0  0  0  0  0
  156.3605  141.0775  161.1357 H   0  0  0  0  0  0  0  0  0  0  0  0
  154.0516  139.5666  159.8483 H   0  0  0  0  0  0  0  0  0  0  0  0
  154.0723  139.6578  162.6885 H   0  0  0  0  0  0  0  0  0  0  0  0
  154.9882  135.9108  159.1142 H   0  0  0  0  0  0  0  0  0  0  0  0
  153.7319  135.3835  165.4054 H   0  0  0  0  0  0  0  0  0  0  0  0
  154.3896  130.4629  163.1762 H   0  0  0  0  0  0  0  0  0  0  0  0
  155.9583  130.3237  162.4038 H   0  0  0  0  0  0  0  0  0  0  0  0
  155.8123  128.5976  163.6998 H   0  0  0  0  0  0  0  0  0  0  0  0
  155.6548  132.6712  167.0907 H   0  0  0  0  0  0  0  0  0  0  0  0
  152.2277  132.1607  164.1294 H   0  0  0  0  0  0  0  0  0  0  0  0
  152.8806  141.4075  158.8052 H   0  0  0  0  0  0  0  0  0  0  0  0
  151.5306  143.4622  159.0431 H   0  0  0  0  0  0  0  0  0  0  0  0
  151.4496  144.6603  161.2230 H   0  0  0  0  0  0  0  0  0  0  0  0
  152.7182  143.7817  163.1674 H   0  0  0  0  0  0  0  0  0  0  0  0
  1  2  1  0  0  0  0
  1 33  1  0  0  0  0
  1 34  1  0  0  0  0
  1 35  1  0  0  0  0
  2  3  1  0  0  0  0
  2 22  1  0  0  0  0
  2 36  1  0  0  0  0
  3  4  1  0  0  0  0
  3 37  1  0  0  0  0
  4  9  1  0  0  0  0
  4  5  2  0  0  0  0
  5  6  1  0  0  0  0
  6  7  2  0  0  0  0
  6 38  1  0  0  0  0
  7  8  1  0  0  0  0
  8 12  1  0  0  0  0
  8  9  2  0  0  0  0
  9 10  1  0  0  0  0
 10 11  2  0  0  0  0
 11 12  1  0  0  0  0
 11 39  1  0  0  0  0
 12 13  1  0  0  0  0
 13 29  1  0  0  0  0
 13 20  1  0  0  0  0
 13 14  1  0  0  0  0
 14 15  1  0  0  0  0
 15 30  1  0  0  0  0
 15 16  1  0  0  0  0
 15 18  1  0  0  0  0
 16 17  1  0  0  0  0
 16 40  1  0  0  0  0
 16 41  1  0  0  0  0
 17 42  1  0  0  0  0
 18 31  1  0  0  0  0
 18 19  1  0  0  0  0
 18 20  1  0  0  0  0
 19 43  1  0  0  0  0
 20 32  1  0  0  0  0
 20 21  1  0  0  0  0
 21 44  1  0  0  0  0
 22 27  1  0  0  0  0
 22 23  2  0  0  0  0
 23 24  1  0  0  0  0
 23 45  1  0  0  0  0
 24 25  2  0  0  0  0
 24 46  1  0  0  0  0
 25 26  1  0  0  0  0
 25 47  1  0  0  0  0
 26 27  2  0  0  0  0
 26 48  1  0  0  0  0
 27 28  1  0  0  0  0
M  END
> <s_m_source_file>
AV-unprocessed.smi

> <i_m_source_file_index>
283

> <i_lp_mmshare_version>
43012

> <i_f3d_flags>
0

> <s_epik_input>
Q2xjMVtjSF1bY0hdW2NIXVtjSF1jMVtDQEhdKFtDSDNdKVtOSF1jKG5bY0hdbjIpYyhjMjMpbltjSF1uM1tDQEBIXTRPW0NASF0oW0NIMl1bT0hdKVtDQEBIXShbT0hdKVtDQEhdNFtPSF0=

> <s_epik_cmdline>
J2VwaWtfcHl0aG9uJywgJy1waCcsICc3LjAnLCAnLXRuJywgJzgnLCAnLW1hJywgJzIwMCcsICctbWV0YWxfYmluZGluZycsICctaW1hZScsICc8aW5maWxlLm1hZT4nLCAnLW9tYWUnLCAnPG91dGZpbGUubWFlPic=

> <r_lp_tautomer_probability>
1

> <r_epik_Ionization_Penalty>
0.000266407

> <r_epik_Ionization_Penalty_Charging>
0

> <r_epik_Ionization_Penalty_Neutral>
0.000266407

> <r_epik_State_Penalty>
-0

> <r_epik_Charging_Adjusted_Penalty>
0

> <i_epik_Tot_Q>
0

> <i_epik_Tot_abs_Q>
0

> <r_epik_Metal_State_Penalty>
-0

> <b_epik_Metal_Only>
0

> <s_epik_Chemistry_Notes>
This compound contains an acetal/aminal-like group ( X-CH(R)-Y where X, Y are N, S, or O) that may be acid/base labile, releasing an aldehyde.

> <s_lp_Force_Field>
OPLS_2005

> <r_lp_Energy>
38.3642

> <b_lp_Chiralities_Consistent>
1

> <s_lp_Variant>
AV-unprocessed.smi:283-20

> <Gold.Version>
5.8.1

> <Gold.Id.Protein>
6NUR|6NUR_protein|mol2

> <Gold.PLP.Fitness>
46.2771

> <Gold.PLP.PLP>
-48.2372

> <Gold.PLP.part.hbond>
0.0000

> <Gold.PLP.part.metal>
0.0000

> <Gold.PLP.part.buried>
-3.5829

> <Gold.PLP.part.nonpolar>
-44.5349

> <Gold.PLP.part.repulsive>
0.0630

> <Gold.PLP.ligand.clash>
0.0000

> <Gold.PLP.ligand.torsion>
1.0784

> <Gold.PLP.Chemscore.Hbond>
0.0000

> <Gold.PLP.Chemscore.CHOScore>
0.0000

> <Gold.PLP.Chemscore.Metal>
0.0000

> <Gold.PLP.Chemscore.Internal.Correction>
0.1967

> <Gold.Rescore>
     Score         DG    S(hbond)    S(metal)    S(lipo)     H(rot)  DE(clash)    DE(int)     intcor
      6.27      -9.05       0.00        0.00     120.17       4.10       0.37       2.40       ----

> <Gold.Chemscore.Fitness>
6.2743

> <Gold.Chemscore.DG>
-9.0515

> <Gold.Chemscore.ZeroCoef>
-5.4800

> <Gold.Chemscore.Hbond>
0.0000

> <Gold.Chemscore.Metal>
0.0000

> <Gold.Chemscore.Lipo>
120.1662

> <Gold.Chemscore.Internal_Hbond>
0.0000

> <Gold.Chemscore.DEClash>
0.3737

> <Gold.Chemscore.DEInternal>
2.4035

> <Gold.Chemscore.Rot>
4.0968

> <Gold.Chemscore.Internal.Correction>
   9.000000E+99

> <Gold.Chemscore.Hbond.Weighted>
-0.0000

> <Gold.Chemscore.Metal.Weighted>
-0.0000

> <Gold.Chemscore.Lipo.Weighted>
-14.0594

> <Gold.Chemscore.Internal_Hbond.Weighted>
0.0000

> <Gold.Chemscore.DEClash.Weighted>
0.3737

> <Gold.Chemscore.DEInternal.Weighted>
2.4035

> <Gold.Chemscore.Rot.Weighted>
10.4879

> <Gold.Chemscore.Internal.Correction.Weighted>
   9.000000E+99

> <Gold.Protein.RotatedTorsions>
[ 6907 6896 6895 6894 ] final    8.75 input  -60.11 | X-H torsion
[ 7974 7965 7964 7962 ] final  107.15 input  175.53 | X-H torsion
[ 8008 7997 7996 7995 ] final    8.82 input   59.86 | X-H torsion
[ 10167 10162 10161 10158 ] final  161.71 input  -65.29 | X-H torsion
[ 10718 10713 10712 10709 ] final   70.00 input   66.30 | X-H torsion
[ 10763 10752 10751 10750 ] final   -8.51 input  -60.55 | X-H torsion
[ 11005 11000 10999 10996 ] final  -93.42 input  -57.11 | X-H torsion

> <Gold.Protein.ActiveResidues>
 VAL166  LYS551  ARG553  GLY616  TRP617  ASP618  TYR619  PRO620  LYS621  CYS622 
 ASP623  PHE694  ASN695  SER759  ASP760  ASP761  ALA762  ILE779  LEU786  VAL792 
 PHE793  MET794  SER795  GLU796  ALA797  LYS798  CYS799  TRP800  GLU811  SER814 

> <Gold.Protein.RotatedAtoms>
  151.7110  135.0912  160.0267 H   0  0  0  0  0  0  0  0  0  0  0  0  # atno 6907 bound_to 6896
  152.3661  133.6355  159.6060 H   0  0  0  0  0  0  0  0  0  0  0  0  # atno 6908 bound_to 6896
  150.7639  133.9261  159.3454 H   0  0  0  0  0  0  0  0  0  0  0  0  # atno 6909 bound_to 6896
  145.2974  139.2580  143.3832 H   0  0  0  0  0  0  0  0  0  0  0  0  # atno 7974 bound_to 7965
  154.7718  140.2803  155.6132 H   0  0  0  0  0  0  0  0  0  0  0  0  # atno 8008 bound_to 7997
  156.2935  140.2640  156.2450 H   0  0  0  0  0  0  0  0  0  0  0  0  # atno 8009 bound_to 7997
  154.9890  140.0374  157.2301 H   0  0  0  0  0  0  0  0  0  0  0  0  # atno 8010 bound_to 7997
  139.4852  144.4510  151.8830 H   0  0  0  0  0  0  0  0  0  0  0  0  # atno 10167 bound_to 10162
  157.6376  130.9454  150.0590 H   0  0  0  0  0  0  0  0  0  0  0  0  # atno 10718 bound_to 10713
  153.4414  135.7014  153.6166 H   0  0  0  0  0  0  0  0  0  0  0  0  # atno 10763 bound_to 10752
  153.4539  135.3751  155.2300 H   0  0  0  0  0  0  0  0  0  0  0  0  # atno 10764 bound_to 10752
  154.8727  135.4003  154.3814 H   0  0  0  0  0  0  0  0  0  0  0  0  # atno 10765 bound_to 10752
  141.1497  133.7886  157.0156 H   0  0  0  0  0  0  0  0  0  0  0  0  # atno 11005 bound_to 11000
  146.3164  140.3480  142.8653 LP  0  0  0  0  0  0  0  0  0  0  0  0  # atno 17320 bound_to 7965
  144.9122  140.7770  143.5800 LP  0  0  0  0  0  0  0  0  0  0  0  0  # atno 17321 bound_to 7965
  140.3966  144.2547  150.5896 LP  0  0  0  0  0  0  0  0  0  0  0  0  # atno 17342 bound_to 10162
  140.5096  143.2294  151.8555 LP  0  0  0  0  0  0  0  0  0  0  0  0  # atno 17343 bound_to 10162
  156.1629  130.3644  149.9274 LP  0  0  0  0  0  0  0  0  0  0  0  0  # atno 17370 bound_to 10713
  156.7268  130.9028  151.3622 LP  0  0  0  0  0  0  0  0  0  0  0  0  # atno 17371 bound_to 10713
  140.0849  134.9627  157.1683 LP  0  0  0  0  0  0  0  0  0  0  0  0  # atno 17394 bound_to 11000
  140.3526  134.2582  155.7196 LP  0  0  0  0  0  0  0  0  0  0  0  0  # atno 17395 bound_to 11000

$$$$
