AV-unprocessed.smi:215|AV-procd|sdf|1655|dock4
  -GOLD-   2262020 43D 1   1.00000     0.00000
 Structure written by MMmdl.
 59 62  0  0  0  0  0  0  0  0  2 V2000
  150.2180  139.1355  155.0106 C   0  0  0  0  0  0  0  0  0  0  0  0
  148.8884  139.9215  154.9984 C   0  0  1  0  0  0  0  0  0  0  0  0
  149.0569  141.4469  154.7798 C   0  0  2  0  0  0  0  0  0  0  0  0
  149.2238  142.2660  156.0198 N   0  3  1  0  0  0  0  0  0  0  0  0
  148.0666  142.2473  156.9472 C   0  0  0  0  0  0  0  0  0  0  0  0
  150.4960  141.9760  156.7358 C   0  0  0  0  0  0  0  0  0  0  0  0
  151.2495  143.2616  157.1146 C   0  0  0  0  0  0  0  0  0  0  0  0
  150.4171  144.0943  157.8941 O   0  0  0  0  0  0  0  0  0  0  0  0
  147.7570  141.8111  154.0451 C   0  0  0  0  0  0  0  0  0  0  0  0
  147.4341  140.5847  153.1997 C   0  0  0  0  0  0  0  0  0  0  0  0
  148.0540  139.4639  153.8868 N   0  0  0  0  0  0  0  0  0  0  0  0
  147.3923  138.2766  153.9173 C   0  0  0  0  0  0  0  0  0  0  0  0
  147.3750  137.5486  155.0651 N   0  0  0  0  0  0  0  0  0  0  0  0
  146.7349  136.3774  155.1155 C   0  0  0  0  0  0  0  0  0  0  0  0
  146.0613  135.7543  154.1482 N   0  0  0  0  0  0  0  0  0  0  0  0
  146.0749  136.4738  152.9893 C   0  0  0  0  0  0  0  0  0  0  0  0
  146.7081  137.7343  152.7906 C   0  0  0  0  0  0  0  0  0  0  0  0
  146.5162  138.1550  151.4797 N   0  0  0  0  0  0  0  0  0  0  0  0
  145.8083  137.2027  150.9370 C   0  0  0  0  0  0  0  0  0  0  0  0
  145.5009  136.1504  151.7697 N   0  0  0  0  0  0  0  0  0  0  0  0
  144.7520  134.9755  151.4189 C   0  0  0  0  0  0  0  0  0  0  0  0
  145.1565  133.5905  151.9297 C   0  0  0  0  0  0  0  0  0  0  0  0
  144.7747  132.9625  150.5701 C   0  0  0  0  0  0  0  0  0  0  0  0
  145.8321  132.0242  149.9681 C   0  0  0  0  0  0  0  0  0  0  0  0
  147.1390  132.5338  150.1423 O   0  0  0  0  0  0  0  0  0  0  0  0
  143.4157  132.2333  150.4925 C   0  0  0  0  0  0  0  0  0  0  0  0
  142.9404  132.0876  149.1693 O   0  0  0  0  0  0  0  0  0  0  0  0
  144.8075  134.3995  150.0016 C   0  0  0  0  0  0  0  0  0  0  0  0
  148.3437  139.7553  155.9288 H   0  0  0  0  0  0  0  0  0  0  0  0
  149.9039  141.6182  154.1126 H   0  0  0  0  0  0  0  0  0  0  0  0
  150.8786  139.4313  155.8220 H   0  0  0  0  0  0  0  0  0  0  0  0
  150.7645  139.2774  154.0777 H   0  0  0  0  0  0  0  0  0  0  0  0
  150.0467  138.0654  155.1244 H   0  0  0  0  0  0  0  0  0  0  0  0
  147.8458  141.2313  157.2764 H   0  0  0  0  0  0  0  0  0  0  0  0
  147.1774  142.6728  156.4832 H   0  0  0  0  0  0  0  0  0  0  0  0
  148.2636  142.8464  157.8356 H   0  0  0  0  0  0  0  0  0  0  0  0
  150.2831  141.3863  157.6290 H   0  0  0  0  0  0  0  0  0  0  0  0
  151.1618  141.3574  156.1350 H   0  0  0  0  0  0  0  0  0  0  0  0
  152.1713  143.0535  157.6570 H   0  0  0  0  0  0  0  0  0  0  0  0
  151.5284  143.8065  156.2123 H   0  0  0  0  0  0  0  0  0  0  0  0
  149.5902  144.1986  157.4473 H   0  0  0  0  0  0  0  0  0  0  0  0
  146.9535  141.9679  154.7668 H   0  0  0  0  0  0  0  0  0  0  0  0
  147.8353  142.7112  153.4353 H   0  0  0  0  0  0  0  0  0  0  0  0
  146.3562  140.4631  153.0828 H   0  0  0  0  0  0  0  0  0  0  0  0
  147.8768  140.6739  152.2070 H   0  0  0  0  0  0  0  0  0  0  0  0
  146.7681  135.8661  156.0662 H   0  0  0  0  0  0  0  0  0  0  0  0
  145.4941  137.2420  149.9039 H   0  0  0  0  0  0  0  0  0  0  0  0
  143.7157  135.1788  151.6929 H   0  0  0  0  0  0  0  0  0  0  0  0
  146.2225  133.5118  152.1471 H   0  0  0  0  0  0  0  0  0  0  0  0
  144.5646  133.2372  152.7745 H   0  0  0  0  0  0  0  0  0  0  0  0
  145.7767  131.0302  150.4128 H   0  0  0  0  0  0  0  0  0  0  0  0
  145.6687  131.8924  148.8979 H   0  0  0  0  0  0  0  0  0  0  0  0
  147.7344  131.8063  150.2402 H   0  0  0  0  0  0  0  0  0  0  0  0
  143.4863  131.2374  150.9311 H   0  0  0  0  0  0  0  0  0  0  0  0
  142.6511  132.7694  151.0552 H   0  0  0  0  0  0  0  0  0  0  0  0
  142.2541  132.7214  149.0258 H   0  0  0  0  0  0  0  0  0  0  0  0
  143.9521  134.6655  149.3798 H   0  0  0  0  0  0  0  0  0  0  0  0
  145.7401  134.6327  149.4866 H   0  0  0  0  0  0  0  0  0  0  0  0
  149.3042  143.2196  155.6954 H   0  0  0  0  0  0  0  0  0  0  0  0
  1  2  1  0  0  0  0
  1 31  1  0  0  0  0
  1 32  1  0  0  0  0
  1 33  1  0  0  0  0
  2 29  1  0  0  0  0
  2 11  1  0  0  0  0
  2  3  1  0  0  0  0
  3 30  1  0  0  0  0
  3  4  1  0  0  0  0
  3  9  1  0  0  0  0
  4  5  1  0  0  0  0
  4  6  1  0  0  0  0
  4 59  1  0  0  0  0
  5 34  1  0  0  0  0
  5 35  1  0  0  0  0
  5 36  1  0  0  0  0
  6  7  1  0  0  0  0
  6 37  1  0  0  0  0
  6 38  1  0  0  0  0
  7  8  1  0  0  0  0
  7 39  1  0  0  0  0
  7 40  1  0  0  0  0
  8 41  1  0  0  0  0
  9 10  1  0  0  0  0
  9 42  1  0  0  0  0
  9 43  1  0  0  0  0
 10 11  1  0  0  0  0
 10 44  1  0  0  0  0
 10 45  1  0  0  0  0
 11 12  1  0  0  0  0
 12 17  1  0  0  0  0
 12 13  2  0  0  0  0
 13 14  1  0  0  0  0
 14 15  2  0  0  0  0
 14 46  1  0  0  0  0
 15 16  1  0  0  0  0
 16 20  1  0  0  0  0
 16 17  2  0  0  0  0
 17 18  1  0  0  0  0
 18 19  2  0  0  0  0
 19 20  1  0  0  0  0
 19 47  1  0  0  0  0
 20 21  1  0  0  0  0
 21 28  1  0  0  0  0
 21 22  1  0  0  0  0
 21 48  1  0  0  0  0
 22 23  1  0  0  0  0
 22 49  1  0  0  0  0
 22 50  1  0  0  0  0
 23 24  1  0  0  0  0
 23 26  1  0  0  0  0
 23 28  1  0  0  0  0
 24 25  1  0  0  0  0
 24 51  1  0  0  0  0
 24 52  1  0  0  0  0
 25 53  1  0  0  0  0
 26 27  1  0  0  0  0
 26 54  1  0  0  0  0
 26 55  1  0  0  0  0
 27 56  1  0  0  0  0
 28 57  1  0  0  0  0
 28 58  1  0  0  0  0
M  CHG  1   4   1
M  END
> <s_m_source_file>
AV-unprocessed.smi

> <i_m_source_file_index>
215

> <i_lp_mmshare_version>
43012

> <i_f3d_flags>
0

> <s_epik_input>
W09IXVtDSDJdW0NIMl1OKFtDSDNdKVtDQEBIXShbQ0BIXTFbQ0gzXSlbQ0gyXVtDSDJdTjFjKG5bY0hdbjIpYyhjMjMpbltjSF1uM1tDSF0oW0NIMl00KVtDSDJdQzQoW0NIMl1bT0hdKVtDSDJdW09IXQ==

> <s_epik_cmdline>
J2VwaWtfcHl0aG9uJywgJy1waCcsICc3LjAnLCAnLXRuJywgJzgnLCAnLW1hJywgJzIwMCcsICctbWV0YWxfYmluZGluZycsICctaW1hZScsICc8aW5maWxlLm1hZT4nLCAnLW9tYWUnLCAnPG91dGZpbGUubWFlPic=

> <r_lp_tautomer_probability>
1

> <r_epik_Ionization_Penalty>
0.0036237

> <r_epik_Ionization_Penalty_Charging>
0.0032725

> <r_epik_Ionization_Penalty_Neutral>
0.000351196

> <r_epik_State_Penalty>
-0

> <r_epik_Charging_Adjusted_Penalty>
0.0032725

> <i_epik_Tot_Q>
1

> <i_epik_Tot_abs_Q>
1

> <r_epik_Metal_State_Penalty>
-0

> <b_epik_Metal_Only>
0

> <s_lp_Force_Field>
OPLS_2005

> <r_lp_Energy>
67.7544

> <b_lp_Chiralities_Consistent>
1

> <s_lp_Variant>
AV-unprocessed.smi:215-6

> <Gold.Version>
5.8.1

> <Gold.Id.Protein>
6NUR|6NUR_protein|mol2

> <Gold.PLP.Fitness>
59.5171

> <Gold.PLP.PLP>
-43.5353

> <Gold.PLP.part.hbond>
-7.0205

> <Gold.PLP.part.metal>
0.0000

> <Gold.PLP.part.buried>
5.9453

> <Gold.PLP.part.nonpolar>
-43.8135

> <Gold.PLP.part.repulsive>
0.6621

> <Gold.PLP.ligand.clash>
0.0000

> <Gold.PLP.ligand.torsion>
1.8419

> <Gold.PLP.Chemscore.Hbond>
5.6898

> <Gold.PLP.Chemscore.CHOScore>
0.5756

> <Gold.PLP.Chemscore.Metal>
0.0000

> <Gold.Chemscore.Hbonds>
donor molecule, donor type, donor heavy atom, donor atom, acceptor molecule, acceptor atom, score
      L1  H     4    59       P1  8028  2.00
      L1  H     8    41       P1  8028  0.76
      L1  H    25    53       P1 10747  1.00
      L1  H    27    56       P1 10186  0.68
      P1  H  7954  7966       L1    18  0.17
      P1  H 10785 10796       L1    27  1.00
      L1  C    19    47       P1 10171  0.56

> <Gold.PLP.Chemscore.Internal.Correction>
0.8695

> <Gold.Rescore>
     Score         DG    S(hbond)    S(metal)    S(lipo)     H(rot)  DE(clash)    DE(int)     intcor
     14.20     -18.51       3.89        0.00      98.31       4.48       2.38       1.92       ----

> <Gold.Chemscore.Fitness>
14.2020

> <Gold.Chemscore.DG>
-18.5094

> <Gold.Chemscore.ZeroCoef>
-5.4800

> <Gold.Chemscore.Hbond>
3.8900

> <Gold.Chemscore.Metal>
0.0000

> <Gold.Chemscore.Lipo>
98.3086

> <Gold.Chemscore.Internal_Hbond>
0.0000

> <Gold.Chemscore.DEClash>
2.3843

> <Gold.Chemscore.DEInternal>
1.9231

> <Gold.Chemscore.Rot>
4.4787

> <Gold.Chemscore.Internal.Correction>
   9.000000E+99

> <Gold.Chemscore.Hbonds>
donor molecule, donor type, donor heavy atom, donor atom, acceptor molecule, acceptor atom, score
      L1  H     4    59       P1  8028  0.94
      L1  H     8    41       P1  8028  0.17
      L1  H    25    53       P1 10747  0.95
      L1  H    27    56       P1 10186  0.68
      P1  H  7954  7966       L1    18  0.01
      P1  H 10785 10796       L1    27  0.47

> <Gold.Chemscore.Hbond.Weighted>
-12.9927

> <Gold.Chemscore.Metal.Weighted>
-0.0000

> <Gold.Chemscore.Lipo.Weighted>
-11.5021

> <Gold.Chemscore.Internal_Hbond.Weighted>
0.0000

> <Gold.Chemscore.DEClash.Weighted>
2.3843

> <Gold.Chemscore.DEInternal.Weighted>
1.9231

> <Gold.Chemscore.Rot.Weighted>
11.4655

> <Gold.Chemscore.Internal.Correction.Weighted>
   9.000000E+99

> <Gold.Protein.RotatedTorsions>
[ 6907 6896 6895 6894 ] final  -46.64 input  -60.11 | X-H torsion
[ 7974 7965 7964 7962 ] final  147.18 input  175.53 | X-H torsion
[ 8008 7997 7996 7995 ] final  116.46 input   59.86 | X-H torsion
[ 10167 10162 10161 10158 ] final  -55.71 input  -65.29 | X-H torsion
[ 10718 10713 10712 10709 ] final  163.21 input   66.30 | X-H torsion
[ 10763 10752 10751 10750 ] final   -7.58 input  -60.55 | X-H torsion
[ 11005 11000 10999 10996 ] final  153.46 input  -57.11 | X-H torsion

> <Gold.Protein.ActiveResidues>
 VAL166  LYS551  ARG553  GLY616  TRP617  ASP618  TYR619  PRO620  LYS621  CYS622 
 ASP623  PHE694  ASN695  SER759  ASP760  ASP761  ALA762  ILE779  LEU786  VAL792 
 PHE793  MET794  SER795  GLU796  ALA797  LYS798  CYS799  TRP800  GLU811  SER814 

> <Gold.Protein.RotatedAtoms>
  150.9091  134.8507  159.7412 H   0  0  0  0  0  0  0  0  0  0  0  0  # atno 6907 bound_to 6896
  152.4934  134.4386  159.9546 H   0  0  0  0  0  0  0  0  0  0  0  0  # atno 6908 bound_to 6896
  151.4430  133.3599  159.2819 H   0  0  0  0  0  0  0  0  0  0  0  0  # atno 6909 bound_to 6896
  144.8612  139.5997  143.5930 H   0  0  0  0  0  0  0  0  0  0  0  0  # atno 7974 bound_to 7965
  156.2440  140.2917  156.0526 H   0  0  0  0  0  0  0  0  0  0  0  0  # atno 8008 bound_to 7997
  155.1864  140.0405  157.2909 H   0  0  0  0  0  0  0  0  0  0  0  0  # atno 8009 bound_to 7997
  154.6225  140.2479  155.7539 H   0  0  0  0  0  0  0  0  0  0  0  0  # atno 8010 bound_to 7997
  140.6359  143.2482  151.5119 H   0  0  0  0  0  0  0  0  0  0  0  0  # atno 10167 bound_to 10162
  157.1117  131.0469  151.2454 H   0  0  0  0  0  0  0  0  0  0  0  0  # atno 10718 bound_to 10713
  153.4283  135.7011  153.6247 H   0  0  0  0  0  0  0  0  0  0  0  0  # atno 10763 bound_to 10752
  153.4673  135.3723  155.2372 H   0  0  0  0  0  0  0  0  0  0  0  0  # atno 10764 bound_to 10752
  154.8724  135.4034  154.3663 H   0  0  0  0  0  0  0  0  0  0  0  0  # atno 10765 bound_to 10752
  140.1400  134.8745  157.2318 H   0  0  0  0  0  0  0  0  0  0  0  0  # atno 11005 bound_to 11000
  146.2862  139.7009  142.9194 LP  0  0  0  0  0  0  0  0  0  0  0  0  # atno 17320 bound_to 7965
  145.4309  141.0415  143.2911 LP  0  0  0  0  0  0  0  0  0  0  0  0  # atno 17321 bound_to 7965
  139.5570  144.2252  152.1628 LP  0  0  0  0  0  0  0  0  0  0  0  0  # atno 17342 bound_to 10162
  140.1508  144.5116  150.6688 LP  0  0  0  0  0  0  0  0  0  0  0  0  # atno 17343 bound_to 10162
  157.4553  130.7622  149.7188 LP  0  0  0  0  0  0  0  0  0  0  0  0  # atno 17370 bound_to 10713
  155.9849  130.3988  150.3289 LP  0  0  0  0  0  0  0  0  0  0  0  0  # atno 17371 bound_to 10713
  140.2734  134.3433  155.7366 LP  0  0  0  0  0  0  0  0  0  0  0  0  # atno 17394 bound_to 11000
  141.2184  133.7436  156.9257 LP  0  0  0  0  0  0  0  0  0  0  0  0  # atno 17395 bound_to 11000

$$$$
