AV-unprocessed.smi:2356|AV-procd|sdf|9400|dock3
  -GOLD-   2272013 33D 1   1.00000     0.00000
 Structure written by MMmdl.
 54 57  0  0  0  0  0  0  0  0  2 V2000
  147.2968  142.5103  154.0448 C   0  0  0  0  0  0  0  0  0  0  0  0
  148.3799  141.6601  154.6839 C   0  0  0  0  0  0  0  0  0  0  0  0
  149.2377  142.2757  155.5279 N   0  3  0  0  0  0  0  0  0  0  0  0
  150.2509  141.6471  156.1692 C   0  0  0  0  0  0  0  0  0  0  0  0
  151.0757  142.3990  157.0273 N   0  0  0  0  0  0  0  0  0  0  0  0
  151.0622  143.8523  157.0141 C   0  0  0  0  0  0  0  0  0  0  0  0
  151.9461  144.2585  158.1927 C   0  0  0  0  0  0  0  0  0  0  0  0
  151.7234  143.1298  159.1996 C   0  0  0  0  0  0  0  0  0  0  0  0
  151.4976  141.8905  158.3262 C   0  0  0  0  0  0  0  0  0  0  0  0
  150.4221  140.2594  155.9594 C   0  0  0  0  0  0  0  0  0  0  0  0
  149.5544  139.5711  155.0881 C   0  0  0  0  0  0  0  0  0  0  0  0
  148.5206  140.2766  154.4242 C   0  0  0  0  0  0  0  0  0  0  0  0
  147.5906  139.6562  153.5451 N   0  0  0  0  0  0  0  0  0  0  0  0
  146.9810  138.4607  153.6643 C   0  0  0  0  0  0  0  0  0  0  0  0
  147.1581  137.6753  154.5928 O   0  0  0  0  0  0  0  0  0  0  0  0
  146.1523  138.1616  152.6476 N   0  0  0  0  0  0  0  0  0  0  0  0
  145.3393  136.9574  152.4597 C   0  0  1  0  0  0  0  0  0  0  0  0
  143.9065  137.1761  152.9740 C   0  0  0  0  0  0  0  0  0  0  0  0
  143.0183  135.9675  152.6429 C   0  0  0  0  0  0  0  0  0  0  0  0
  143.0301  135.7098  151.2407 O   0  0  0  0  0  0  0  0  0  0  0  0
  144.3159  135.4365  150.6819 C   0  0  2  0  0  0  0  0  0  0  0  0
  144.8499  134.0804  151.1231 C   0  0  0  0  0  0  0  0  0  0  0  0
  145.4977  133.1442  150.1299 C   0  0  0  0  0  0  0  0  0  0  0  0
  144.1463  132.8078  150.7144 C   0  0  0  0  0  0  0  0  0  0  0  0
  145.2873  136.5997  150.9660 C   0  0  0  0  0  0  0  0  0  0  0  0
  146.3101  142.1056  154.2723 H   0  0  0  0  0  0  0  0  0  0  0  0
  147.4205  142.5284  152.9616 H   0  0  0  0  0  0  0  0  0  0  0  0
  147.3319  143.5385  154.4072 H   0  0  0  0  0  0  0  0  0  0  0  0
  151.4405  144.2523  156.0729 H   0  0  0  0  0  0  0  0  0  0  0  0
  150.0410  144.2076  157.1584 H   0  0  0  0  0  0  0  0  0  0  0  0
  152.9922  144.2738  157.8832 H   0  0  0  0  0  0  0  0  0  0  0  0
  151.6975  145.2427  158.5904 H   0  0  0  0  0  0  0  0  0  0  0  0
  152.5533  143.0103  159.8966 H   0  0  0  0  0  0  0  0  0  0  0  0
  150.8242  143.3349  159.7819 H   0  0  0  0  0  0  0  0  0  0  0  0
  150.7588  141.2263  158.7762 H   0  0  0  0  0  0  0  0  0  0  0  0
  152.4264  141.3337  158.1990 H   0  0  0  0  0  0  0  0  0  0  0  0
  151.2048  139.7096  156.4606 H   0  0  0  0  0  0  0  0  0  0  0  0
  149.6922  138.5088  154.9599 H   0  0  0  0  0  0  0  0  0  0  0  0
  147.4120  140.1537  152.6850 H   0  0  0  0  0  0  0  0  0  0  0  0
  146.0874  138.8482  151.9096 H   0  0  0  0  0  0  0  0  0  0  0  0
  145.7933  136.1218  152.9942 H   0  0  0  0  0  0  0  0  0  0  0  0
  143.9052  137.3494  154.0503 H   0  0  0  0  0  0  0  0  0  0  0  0
  143.4806  138.0694  152.5145 H   0  0  0  0  0  0  0  0  0  0  0  0
  143.3374  135.0864  153.1997 H   0  0  0  0  0  0  0  0  0  0  0  0
  141.9913  136.1693  152.9476 H   0  0  0  0  0  0  0  0  0  0  0  0
  144.1687  135.3864  149.6022 H   0  0  0  0  0  0  0  0  0  0  0  0
  145.2841  134.0710  152.1205 H   0  0  0  0  0  0  0  0  0  0  0  0
  145.5305  133.4523  149.0866 H   0  0  0  0  0  0  0  0  0  0  0  0
  146.3525  132.5639  150.4711 H   0  0  0  0  0  0  0  0  0  0  0  0
  144.0988  132.0041  151.4463 H   0  0  0  0  0  0  0  0  0  0  0  0
  143.2808  132.8947  150.0605 H   0  0  0  0  0  0  0  0  0  0  0  0
  144.9577  137.4719  150.3992 H   0  0  0  0  0  0  0  0  0  0  0  0
  146.2844  136.3558  150.5971 H   0  0  0  0  0  0  0  0  0  0  0  0
  149.1133  143.2748  155.6913 H   0  0  0  0  0  0  0  0  0  0  0  0
  1  2  1  0  0  0  0
  1 26  1  0  0  0  0
  1 27  1  0  0  0  0
  1 28  1  0  0  0  0
  2 12  1  0  0  0  0
  2  3  2  0  0  0  0
  3  4  1  0  0  0  0
  3 54  1  0  0  0  0
  4  5  1  0  0  0  0
  4 10  2  0  0  0  0
  5  9  1  0  0  0  0
  5  6  1  0  0  0  0
  6  7  1  0  0  0  0
  6 29  1  0  0  0  0
  6 30  1  0  0  0  0
  7  8  1  0  0  0  0
  7 31  1  0  0  0  0
  7 32  1  0  0  0  0
  8  9  1  0  0  0  0
  8 33  1  0  0  0  0
  8 34  1  0  0  0  0
  9 35  1  0  0  0  0
  9 36  1  0  0  0  0
 10 11  1  0  0  0  0
 10 37  1  0  0  0  0
 11 12  2  0  0  0  0
 11 38  1  0  0  0  0
 12 13  1  0  0  0  0
 13 14  1  0  0  0  0
 13 39  1  0  0  0  0
 14 15  2  0  0  0  0
 14 16  1  0  0  0  0
 16 17  1  0  0  0  0
 16 40  1  0  0  0  0
 17 25  1  0  0  0  0
 17 18  1  0  0  0  0
 17 41  1  0  0  0  0
 18 19  1  0  0  0  0
 18 42  1  0  0  0  0
 18 43  1  0  0  0  0
 19 20  1  0  0  0  0
 19 44  1  0  0  0  0
 19 45  1  0  0  0  0
 20 21  1  0  0  0  0
 21 22  1  0  0  0  0
 21 25  1  0  0  0  0
 21 46  1  0  0  0  0
 22 24  1  0  0  0  0
 22 23  1  0  0  0  0
 22 47  1  0  0  0  0
 23 24  1  0  0  0  0
 23 48  1  0  0  0  0
 23 49  1  0  0  0  0
 24 50  1  0  0  0  0
 24 51  1  0  0  0  0
 25 52  1  0  0  0  0
 25 53  1  0  0  0  0
M  CHG  1   3   1
M  END
> <s_m_source_file>
AV-unprocessed.smi

> <i_m_source_file_index>
2356

> <i_lp_mmshare_version>
43012

> <i_f3d_flags>
0

> <s_epik_input>
W0NIMl0xW0NIMl1bQ0gyXVtDSDJdTjFjKG5jMltDSDNdKVtjSF1bY0hdYzJbTkhdQyg9TylbTkhdW0NAQEhdM1tDSDJdW0NIMl1PW0NASF0oW0NIMl0zKVtDSF00W0NIMl1bQ0gyXTQ=

> <s_epik_cmdline>
J2VwaWtfcHl0aG9uJywgJy1waCcsICc3LjAnLCAnLXRuJywgJzgnLCAnLW1hJywgJzIwMCcsICctbWV0YWxfYmluZGluZycsICctaW1hZScsICc8aW5maWxlLm1hZT4nLCAnLW9tYWUnLCAnPG91dGZpbGUubWFlPic=

> <r_lp_tautomer_probability>
0.999994

> <r_epik_Ionization_Penalty>
0.534681

> <r_epik_Ionization_Penalty_Charging>
0.534661

> <r_epik_Ionization_Penalty_Neutral>
1.99132e-05

> <r_epik_State_Penalty>
0.543738

> <r_epik_Charging_Adjusted_Penalty>
1.0784

> <i_epik_Tot_Q>
1

> <i_epik_Tot_abs_Q>
1

> <r_epik_Metal_State_Penalty>
0.74699

> <b_epik_Metal_Only>
0

> <s_lp_Force_Field>
OPLS_2005

> <r_lp_Energy>
60.4086

> <b_lp_Chiralities_Consistent>
1

> <s_lp_Variant>
AV-unprocessed.smi:2356-8

> <Gold.Version>
5.8.1

> <Gold.Id.Protein>
6NUR|6NUR_protein|mol2

> <Gold.PLP.Fitness>
52.4462

> <Gold.PLP.PLP>
-48.4952

> <Gold.PLP.part.hbond>
-3.0000

> <Gold.PLP.part.metal>
0.0000

> <Gold.PLP.part.buried>
-2.0806

> <Gold.PLP.part.nonpolar>
-44.6939

> <Gold.PLP.part.repulsive>
0.5782

> <Gold.PLP.ligand.clash>
0.0000

> <Gold.PLP.ligand.torsion>
1.6665

> <Gold.PLP.Chemscore.Hbond>
2.0000

> <Gold.PLP.Chemscore.CHOScore>
0.0000

> <Gold.PLP.Chemscore.Metal>
0.0000

> <Gold.Chemscore.Hbonds>
donor molecule, donor type, donor heavy atom, donor atom, acceptor molecule, acceptor atom, score
      L1  H     3    54       P1  8028  1.66

> <Gold.PLP.Chemscore.Internal.Correction>
1.2839

> <Gold.Rescore>
     Score         DG    S(hbond)    S(metal)    S(lipo)     H(rot)  DE(clash)    DE(int)     intcor
     18.00     -20.58       1.25        0.00     118.42       1.15       0.63       1.96       ----

> <Gold.Chemscore.Fitness>
18.0012

> <Gold.Chemscore.DG>
-20.5834

> <Gold.Chemscore.ZeroCoef>
-5.4800

> <Gold.Chemscore.Hbond>
1.2545

> <Gold.Chemscore.Metal>
0.0000

> <Gold.Chemscore.Lipo>
118.4224

> <Gold.Chemscore.Internal_Hbond>
0.0000

> <Gold.Chemscore.DEClash>
0.6266

> <Gold.Chemscore.DEInternal>
1.9555

> <Gold.Chemscore.Rot>
1.1493

> <Gold.Chemscore.Internal.Correction>
   9.000000E+99

> <Gold.Chemscore.Hbonds>
donor molecule, donor type, donor heavy atom, donor atom, acceptor molecule, acceptor atom, score
      L1  H     3    54       P1  8028  0.80

> <Gold.Chemscore.Hbond.Weighted>
-4.1901

> <Gold.Chemscore.Metal.Weighted>
-0.0000

> <Gold.Chemscore.Lipo.Weighted>
-13.8554

> <Gold.Chemscore.Internal_Hbond.Weighted>
0.0000

> <Gold.Chemscore.DEClash.Weighted>
0.6266

> <Gold.Chemscore.DEInternal.Weighted>
1.9555

> <Gold.Chemscore.Rot.Weighted>
2.9421

> <Gold.Chemscore.Internal.Correction.Weighted>
   9.000000E+99

> <Gold.Protein.RotatedTorsions>
[ 6907 6896 6895 6894 ] final -116.28 input  -60.11 | X-H torsion
[ 7974 7965 7964 7962 ] final  118.14 input  175.53 | X-H torsion
[ 8008 7997 7996 7995 ] final  178.75 input   59.86 | X-H torsion
[ 10167 10162 10161 10158 ] final  -40.20 input  -65.29 | X-H torsion
[ 10718 10713 10712 10709 ] final    7.69 input   66.30 | X-H torsion
[ 10763 10752 10751 10750 ] final -148.72 input  -60.55 | X-H torsion
[ 11005 11000 10999 10996 ] final  129.70 input  -57.11 | X-H torsion

> <Gold.Protein.ActiveResidues>
 VAL166  LYS551  ARG553  GLY616  TRP617  ASP618  TYR619  PRO620  LYS621  CYS622 
 ASP623  PHE694  ASN695  SER759  ASP760  ASP761  ALA762  ILE779  LEU786  VAL792 
 PHE793  MET794  SER795  GLU796  ALA797  LYS798  CYS799  TRP800  GLU811  SER814 

> <Gold.Protein.RotatedAtoms>
  150.8043  133.8539  159.3212 H   0  0  0  0  0  0  0  0  0  0  0  0  # atno 6907 bound_to 6896
  151.6343  135.1018  160.0137 H   0  0  0  0  0  0  0  0  0  0  0  0  # atno 6908 bound_to 6896
  152.4133  133.6958  159.6451 H   0  0  0  0  0  0  0  0  0  0  0  0  # atno 6909 bound_to 6896
  145.1588  139.3167  143.4528 H   0  0  0  0  0  0  0  0  0  0  0  0  # atno 7974 bound_to 7965
  156.0512  140.1325  157.0048 H   0  0  0  0  0  0  0  0  0  0  0  0  # atno 8008 bound_to 7997
  154.4435  140.1010  156.6449 H   0  0  0  0  0  0  0  0  0  0  0  0  # atno 8009 bound_to 7997
  155.5521  140.3463  155.4473 H   0  0  0  0  0  0  0  0  0  0  0  0  # atno 8010 bound_to 7997
  140.7041  143.3168  151.2890 H   0  0  0  0  0  0  0  0  0  0  0  0  # atno 10167 bound_to 10162
  156.9407  130.5860  149.5652 H   0  0  0  0  0  0  0  0  0  0  0  0  # atno 10718 bound_to 10713
  154.8217  135.3327  154.7018 H   0  0  0  0  0  0  0  0  0  0  0  0  # atno 10763 bound_to 10752
  153.7650  135.6930  153.4922 H   0  0  0  0  0  0  0  0  0  0  0  0  # atno 10764 bound_to 10752
  153.2084  135.4491  155.0299 H   0  0  0  0  0  0  0  0  0  0  0  0  # atno 10765 bound_to 10752
  139.9630  134.9597  156.9186 H   0  0  0  0  0  0  0  0  0  0  0  0  # atno 11005 bound_to 11000
  146.3485  140.1690  142.8590 LP  0  0  0  0  0  0  0  0  0  0  0  0  # atno 17320 bound_to 7965
  145.0353  140.8903  143.5085 LP  0  0  0  0  0  0  0  0  0  0  0  0  # atno 17321 bound_to 7965
  139.6609  144.0191  152.2691 LP  0  0  0  0  0  0  0  0  0  0  0  0  # atno 17342 bound_to 10162
  139.9758  144.6462  150.7946 LP  0  0  0  0  0  0  0  0  0  0  0  0  # atno 17343 bound_to 10162
  156.0406  130.5489  150.8760 LP  0  0  0  0  0  0  0  0  0  0  0  0  # atno 17370 bound_to 10713
  157.5787  131.0946  150.9305 LP  0  0  0  0  0  0  0  0  0  0  0  0  # atno 17371 bound_to 10713
  140.5458  134.0675  155.7354 LP  0  0  0  0  0  0  0  0  0  0  0  0  # atno 17394 bound_to 11000
  141.1308  133.9305  157.2539 LP  0  0  0  0  0  0  0  0  0  0  0  0  # atno 17395 bound_to 11000

$$$$
