AV-unprocessed.smi:1999|AV-procd|sdf|8092|dock4
  -GOLD-   2272010313D 1   1.00000     0.00000
 Structure written by MMmdl.
 38 39  0  0  0  0  0  0  0  0  1 V2000
  145.6573  129.2533  151.9907 C   0  0  0  0  0  0  0  0  0  0  0  0
  146.1740  130.6472  152.0969 C   0  0  0  0  0  0  0  0  0  0  0  0
  145.7505  131.6406  151.3059 N   0  0  0  0  0  0  0  0  0  0  0  0
  146.3710  132.8470  151.5980 N   0  0  0  0  0  0  0  0  0  0  0  0
  147.2464  132.7276  152.6057 C   0  0  0  0  0  0  0  0  0  0  0  0
  148.0154  133.8067  153.1156 N   0  0  0  0  0  0  0  0  0  0  0  0
  148.5851  133.9244  154.3279 C   0  0  0  0  0  0  0  0  0  0  0  0
  148.5031  133.0978  155.2368 O   0  0  0  0  0  0  0  0  0  0  0  0
  149.2726  135.0715  154.4301 N   0  0  0  0  0  0  0  0  0  0  0  0
  150.0509  135.4930  155.5916 C   0  0  2  0  0  0  0  0  0  0  0  0
  149.1069  135.9594  156.7135 C   0  0  0  0  0  0  0  0  0  0  0  0
  151.0256  136.6044  155.1510 C   0  0  0  0  0  0  0  0  0  0  0  0
  150.6080  137.9738  155.4533 N   0  0  0  0  0  0  0  0  0  0  0  0
  151.7402  138.8789  155.6445 C   0  0  0  0  0  0  0  0  0  0  0  0
  151.2833  140.3216  155.9235 C   0  0  0  0  0  0  0  0  0  0  0  0
  150.4429  140.7729  154.8667 O   0  0  0  0  0  0  0  0  0  0  0  0
  149.3009  139.9429  154.6836 C   0  0  0  0  0  0  0  0  0  0  0  0
  149.7553  138.5024  154.3936 C   0  0  0  0  0  0  0  0  0  0  0  0
  147.3888  131.1134  153.2809 S   0  0  0  0  0  0  0  0  0  0  0  0
  145.0711  129.1283  151.0797 H   0  0  0  0  0  0  0  0  0  0  0  0
  145.0241  129.0256  152.8483 H   0  0  0  0  0  0  0  0  0  0  0  0
  146.4878  128.5475  151.9701 H   0  0  0  0  0  0  0  0  0  0  0  0
  148.1696  134.5691  152.4728 H   0  0  0  0  0  0  0  0  0  0  0  0
  149.2790  135.6924  153.6341 H   0  0  0  0  0  0  0  0  0  0  0  0
  150.6207  134.6331  155.9449 H   0  0  0  0  0  0  0  0  0  0  0  0
  149.6662  136.2519  157.6027 H   0  0  0  0  0  0  0  0  0  0  0  0
  148.4209  135.1653  157.0099 H   0  0  0  0  0  0  0  0  0  0  0  0
  148.5098  136.8166  156.4004 H   0  0  0  0  0  0  0  0  0  0  0  0
  152.0043  136.4233  155.5986 H   0  0  0  0  0  0  0  0  0  0  0  0
  151.1726  136.5095  154.0741 H   0  0  0  0  0  0  0  0  0  0  0  0
  152.3572  138.5471  156.4784 H   0  0  0  0  0  0  0  0  0  0  0  0
  152.3772  138.8673  154.7586 H   0  0  0  0  0  0  0  0  0  0  0  0
  150.7482  140.3792  156.8724 H   0  0  0  0  0  0  0  0  0  0  0  0
  152.1459  140.9838  156.0008 H   0  0  0  0  0  0  0  0  0  0  0  0
  148.6695  139.9780  155.5728 H   0  0  0  0  0  0  0  0  0  0  0  0
  148.7085  140.3284  153.8537 H   0  0  0  0  0  0  0  0  0  0  0  0
  150.2896  138.4793  153.4424 H   0  0  0  0  0  0  0  0  0  0  0  0
  148.8772  137.8668  154.2731 H   0  0  0  0  0  0  0  0  0  0  0  0
  1  2  1  0  0  0  0
  1 20  1  0  0  0  0
  1 21  1  0  0  0  0
  1 22  1  0  0  0  0
  2 19  1  0  0  0  0
  2  3  2  0  0  0  0
  3  4  1  0  0  0  0
  4  5  2  0  0  0  0
  5  6  1  0  0  0  0
  5 19  1  0  0  0  0
  6  7  1  0  0  0  0
  6 23  1  0  0  0  0
  7  8  2  0  0  0  0
  7  9  1  0  0  0  0
  9 10  1  0  0  0  0
  9 24  1  0  0  0  0
 10 11  1  0  0  0  0
 10 12  1  0  0  0  0
 10 25  1  0  0  0  0
 11 26  1  0  0  0  0
 11 27  1  0  0  0  0
 11 28  1  0  0  0  0
 12 13  1  0  0  0  0
 12 29  1  0  0  0  0
 12 30  1  0  0  0  0
 13 18  1  0  0  0  0
 13 14  1  0  0  0  0
 14 15  1  0  0  0  0
 14 31  1  0  0  0  0
 14 32  1  0  0  0  0
 15 16  1  0  0  0  0
 15 33  1  0  0  0  0
 15 34  1  0  0  0  0
 16 17  1  0  0  0  0
 17 18  1  0  0  0  0
 17 35  1  0  0  0  0
 17 36  1  0  0  0  0
 18 37  1  0  0  0  0
 18 38  1  0  0  0  0
M  END
> <s_m_source_file>
AV-unprocessed.smi

> <i_m_source_file_index>
1999

> <i_lp_mmshare_version>
43012

> <i_f3d_flags>
0

> <s_epik_input>
W0NIM11jMW5uYyhzMSlbTkhdQyg9TylbTkhdW0NASF0oW0NIM10pW0NIMl1OMltDSDJdW0NIMl1PW0NIMl1bQ0gyXTI=

> <s_epik_cmdline>
J2VwaWtfcHl0aG9uJywgJy1waCcsICc3LjAnLCAnLXRuJywgJzgnLCAnLW1hJywgJzIwMCcsICctbWV0YWxfYmluZGluZycsICctaW1hZScsICc8aW5maWxlLm1hZT4nLCAnLW9tYWUnLCAnPG91dGZpbGUubWFlPic=

> <r_lp_tautomer_probability>
1

> <r_epik_Ionization_Penalty>
0.221412

> <r_epik_Ionization_Penalty_Charging>
0

> <r_epik_Ionization_Penalty_Neutral>
0.221412

> <r_epik_State_Penalty>
0.209349

> <r_epik_Charging_Adjusted_Penalty>
0.209349

> <i_epik_Tot_Q>
0

> <i_epik_Tot_abs_Q>
0

> <r_epik_Metal_State_Penalty>
0.56886

> <b_epik_Metal_Only>
0

> <s_lp_Force_Field>
OPLS_2005

> <r_lp_Energy>
22.1143

> <b_lp_Chiralities_Consistent>
1

> <s_lp_Variant>
AV-unprocessed.smi:1999-1

> <Gold.Version>
5.8.1

> <Gold.Id.Protein>
6NUR|6NUR_protein|mol2

> <Gold.PLP.Fitness>
35.6216

> <Gold.PLP.PLP>
-29.4337

> <Gold.PLP.part.hbond>
-3.0000

> <Gold.PLP.part.metal>
0.0000

> <Gold.PLP.part.buried>
-4.3082

> <Gold.PLP.part.nonpolar>
-23.0448

> <Gold.PLP.part.repulsive>
0.4698

> <Gold.PLP.ligand.clash>
0.0000

> <Gold.PLP.ligand.torsion>
1.1942

> <Gold.PLP.Chemscore.Hbond>
2.8480

> <Gold.PLP.Chemscore.CHOScore>
0.0000

> <Gold.PLP.Chemscore.Metal>
0.0000

> <Gold.Chemscore.Hbonds>
donor molecule, donor type, donor heavy atom, donor atom, acceptor molecule, acceptor atom, score
      L1  H     6    23       P1  7948  1.00
      L1  H     9    24       P1  7948  1.00
      P1  H  7989  7998       L1    16  0.85

> <Gold.PLP.Chemscore.Internal.Correction>
0.0323

> <Gold.Rescore>
     Score         DG    S(hbond)    S(metal)    S(lipo)     H(rot)  DE(clash)    DE(int)     intcor
     13.80     -15.16       1.91        0.00      62.70       1.58       0.01       1.34       ----

> <Gold.Chemscore.Fitness>
13.8014

> <Gold.Chemscore.DG>
-15.1557

> <Gold.Chemscore.ZeroCoef>
-5.4800

> <Gold.Chemscore.Hbond>
1.9144

> <Gold.Chemscore.Metal>
0.0000

> <Gold.Chemscore.Lipo>
62.6983

> <Gold.Chemscore.Internal_Hbond>
0.0000

> <Gold.Chemscore.DEClash>
0.0110

> <Gold.Chemscore.DEInternal>
1.3433

> <Gold.Chemscore.Rot>
1.5837

> <Gold.Chemscore.Internal.Correction>
   9.000000E+99

> <Gold.Chemscore.Hbonds>
donor molecule, donor type, donor heavy atom, donor atom, acceptor molecule, acceptor atom, score
      L1  H     6    23       P1  7948  0.30
      L1  H     9    24       P1  7948  0.54
      P1  H  7989  7998       L1    16  0.28

> <Gold.Chemscore.Hbond.Weighted>
-6.3942

> <Gold.Chemscore.Metal.Weighted>
-0.0000

> <Gold.Chemscore.Lipo.Weighted>
-7.3357

> <Gold.Chemscore.Internal_Hbond.Weighted>
0.0000

> <Gold.Chemscore.DEClash.Weighted>
0.0110

> <Gold.Chemscore.DEInternal.Weighted>
1.3433

> <Gold.Chemscore.Rot.Weighted>
4.0542

> <Gold.Chemscore.Internal.Correction.Weighted>
   9.000000E+99

> <Gold.Protein.RotatedTorsions>
[ 6907 6896 6895 6894 ] final -147.11 input  -60.11 | X-H torsion
[ 7974 7965 7964 7962 ] final  141.92 input  175.53 | X-H torsion
[ 8008 7997 7996 7995 ] final   71.45 input   59.86 | X-H torsion
[ 10167 10162 10161 10158 ] final  178.68 input  -65.29 | X-H torsion
[ 10718 10713 10712 10709 ] final    5.81 input   66.30 | X-H torsion
[ 10763 10752 10751 10750 ] final -151.56 input  -60.55 | X-H torsion
[ 11005 11000 10999 10996 ] final  -54.23 input  -57.11 | X-H torsion

> <Gold.Protein.ActiveResidues>
 VAL166  LYS551  ARG553  GLY616  TRP617  ASP618  TYR619  PRO620  LYS621  CYS622 
 ASP623  PHE694  ASN695  SER759  ASP760  ASP761  ALA762  ILE779  LEU786  VAL792 
 PHE793  MET794  SER795  GLU796  ALA797  LYS798  CYS799  TRP800  GLU811  SER814 

> <Gold.Protein.RotatedAtoms>
  151.1511  133.4907  159.2595 H   0  0  0  0  0  0  0  0  0  0  0  0  # atno 6907 bound_to 6896
  151.1553  135.0247  159.8696 H   0  0  0  0  0  0  0  0  0  0  0  0  # atno 6908 bound_to 6896
  152.5463  134.1391  159.8524 H   0  0  0  0  0  0  0  0  0  0  0  0  # atno 6909 bound_to 6896
  144.9053  139.5366  143.5734 H   0  0  0  0  0  0  0  0  0  0  0  0  # atno 7974 bound_to 7965
  155.7541  140.3488  155.5165 H   0  0  0  0  0  0  0  0  0  0  0  0  # atno 8008 bound_to 7997
  155.8977  140.1028  157.1394 H   0  0  0  0  0  0  0  0  0  0  0  0  # atno 8009 bound_to 7997
  154.4040  140.1292  156.4383 H   0  0  0  0  0  0  0  0  0  0  0  0  # atno 8010 bound_to 7997
  139.5304  144.2651  152.0674 H   0  0  0  0  0  0  0  0  0  0  0  0  # atno 10167 bound_to 10162
  156.9129  130.5762  149.5647 H   0  0  0  0  0  0  0  0  0  0  0  0  # atno 10718 bound_to 10713
  154.8050  135.3257  154.7454 H   0  0  0  0  0  0  0  0  0  0  0  0  # atno 10763 bound_to 10752
  153.8114  135.6895  153.4845 H   0  0  0  0  0  0  0  0  0  0  0  0  # atno 10764 bound_to 10752
  153.1790  135.4594  154.9947 H   0  0  0  0  0  0  0  0  0  0  0  0  # atno 10765 bound_to 10752
  141.1015  133.6617  156.4289 H   0  0  0  0  0  0  0  0  0  0  0  0  # atno 11005 bound_to 11000
  146.3130  139.7817  142.9005 LP  0  0  0  0  0  0  0  0  0  0  0  0  # atno 17320 bound_to 7965
  145.3546  141.0314  143.3319 LP  0  0  0  0  0  0  0  0  0  0  0  0  # atno 17321 bound_to 7965
  140.2114  144.4559  150.6384 LP  0  0  0  0  0  0  0  0  0  0  0  0  # atno 17342 bound_to 10162
  140.6478  143.2217  151.6146 LP  0  0  0  0  0  0  0  0  0  0  0  0  # atno 17343 bound_to 10162
  156.0527  130.5594  150.9025 LP  0  0  0  0  0  0  0  0  0  0  0  0  # atno 17370 bound_to 10713
  157.5956  131.0943  150.9046 LP  0  0  0  0  0  0  0  0  0  0  0  0  # atno 17371 bound_to 10713
  140.5009  134.6486  157.5248 LP  0  0  0  0  0  0  0  0  0  0  0  0  # atno 17394 bound_to 11000
  139.9869  134.7048  155.9759 LP  0  0  0  0  0  0  0  0  0  0  0  0  # atno 17395 bound_to 11000

$$$$
