AV-unprocessed.smi:867|AV-procd|sdf|4001|dock1
  -GOLD-   22720 1483D 1   1.00000     0.00000
 Structure written by MMmdl.
 54 57  0  0  0  0  0  0  0  0  3 V2000
  148.3519  138.6104  154.4946 O   0  0  0  0  0  0  0  0  0  0  0  0
  147.6852  139.2819  155.2830 C   0  0  0  0  0  0  0  0  0  0  0  0
  146.6276  138.7757  155.9411 N   0  0  0  0  0  0  0  0  0  0  0  0
  146.1520  137.3962  155.8690 C   0  0  0  0  0  0  0  0  0  0  0  0
  144.6394  137.3073  155.5894 C   0  0  0  0  0  0  0  0  0  0  0  0
  144.2766  136.2965  154.5154 C   0  0  0  0  0  0  0  0  0  0  0  0
  144.4958  136.5812  153.1489 C   0  0  0  0  0  0  0  0  0  0  0  0
  144.1685  135.6105  152.1794 C   0  0  0  0  0  0  0  0  0  0  0  0
  143.6270  134.3777  152.5977 C   0  0  0  0  0  0  0  0  0  0  0  0
  143.4278  134.1426  153.9130 N   0  3  0  0  0  0  0  0  0  0  0  0
  143.7274  135.0457  154.8719 C   0  0  0  0  0  0  0  0  0  0  0  0
  147.9131  140.5998  155.5097 N   0  0  0  0  0  0  0  0  0  0  0  0
  147.5870  141.3344  156.7389 C   0  0  0  0  0  0  0  0  0  0  0  0
  148.8823  141.5683  157.5383 C   0  0  0  0  0  0  0  0  0  0  0  0
  149.9144  142.2763  156.7263 N   0  3  0  0  0  0  0  0  0  0  0  0
  151.1924  142.5001  157.4614 C   0  0  1  0  0  0  0  0  0  0  0  0
  151.9995  143.7287  156.9750 C   0  0  0  0  0  0  0  0  0  0  0  0
  152.3230  144.4746  158.2836 C   0  0  1  0  0  0  0  0  0  0  0  0
  151.0542  145.1968  158.7679 C   0  0  0  0  0  0  0  0  0  0  0  0
  150.1657  144.0310  159.2365 C   0  0  0  0  0  0  0  0  0  0  0  0
  151.0507  142.7922  158.9764 C   0  0  2  0  0  0  0  0  0  0  0  0
  152.4386  143.3390  159.2937 C   0  0  0  0  0  0  0  0  0  0  0  0
  150.1289  141.6301  155.3991 C   0  0  0  0  0  0  0  0  0  0  0  0
  148.8007  141.3937  154.6573 C   0  0  0  0  0  0  0  0  0  0  0  0
  146.1153  139.3962  156.5513 H   0  0  0  0  0  0  0  0  0  0  0  0
  146.7120  136.8328  155.1207 H   0  0  0  0  0  0  0  0  0  0  0  0
  146.3689  136.9220  156.8263 H   0  0  0  0  0  0  0  0  0  0  0  0
  144.1165  137.0357  156.5070 H   0  0  0  0  0  0  0  0  0  0  0  0
  144.2591  138.2896  155.3058 H   0  0  0  0  0  0  0  0  0  0  0  0
  144.9175  137.5282  152.8448 H   0  0  0  0  0  0  0  0  0  0  0  0
  144.3321  135.8083  151.1301 H   0  0  0  0  0  0  0  0  0  0  0  0
  143.3492  133.5790  151.9256 H   0  0  0  0  0  0  0  0  0  0  0  0
  143.5296  134.7381  155.8884 H   0  0  0  0  0  0  0  0  0  0  0  0
  147.1361  142.2917  156.4732 H   0  0  0  0  0  0  0  0  0  0  0  0
  146.8523  140.8358  157.3710 H   0  0  0  0  0  0  0  0  0  0  0  0
  148.6373  142.1444  158.4299 H   0  0  0  0  0  0  0  0  0  0  0  0
  149.2842  140.6128  157.8789 H   0  0  0  0  0  0  0  0  0  0  0  0
  151.8058  141.6044  157.3443 H   0  0  0  0  0  0  0  0  0  0  0  0
  152.9112  143.4103  156.4679 H   0  0  0  0  0  0  0  0  0  0  0  0
  151.4453  144.3700  156.2887 H   0  0  0  0  0  0  0  0  0  0  0  0
  153.1958  145.1247  158.2152 H   0  0  0  0  0  0  0  0  0  0  0  0
  151.2805  145.8649  159.6000 H   0  0  0  0  0  0  0  0  0  0  0  0
  150.5851  145.7900  157.9821 H   0  0  0  0  0  0  0  0  0  0  0  0
  149.9443  144.1278  160.3002 H   0  0  0  0  0  0  0  0  0  0  0  0
  149.2144  143.9961  158.7054 H   0  0  0  0  0  0  0  0  0  0  0  0
  150.7731  141.9209  159.5703 H   0  0  0  0  0  0  0  0  0  0  0  0
  153.2453  142.6392  159.0680 H   0  0  0  0  0  0  0  0  0  0  0  0
  152.5436  143.6846  160.3238 H   0  0  0  0  0  0  0  0  0  0  0  0
  150.7780  142.2438  154.7753 H   0  0  0  0  0  0  0  0  0  0  0  0
  150.6420  140.6775  155.5415 H   0  0  0  0  0  0  0  0  0  0  0  0
  148.9893  140.9211  153.6922 H   0  0  0  0  0  0  0  0  0  0  0  0
  148.3238  142.3478  154.4284 H   0  0  0  0  0  0  0  0  0  0  0  0
  149.5335  143.1923  156.5356 H   0  0  0  0  0  0  0  0  0  0  0  0
  143.0368  133.2434  154.1950 H   0  0  0  0  0  0  0  0  0  0  0  0
  1  2  2  0  0  0  0
  2  3  1  0  0  0  0
  2 12  1  0  0  0  0
  3  4  1  0  0  0  0
  3 25  1  0  0  0  0
  4  5  1  0  0  0  0
  4 26  1  0  0  0  0
  4 27  1  0  0  0  0
  5  6  1  0  0  0  0
  5 28  1  0  0  0  0
  5 29  1  0  0  0  0
  6 11  1  0  0  0  0
  6  7  2  0  0  0  0
  7  8  1  0  0  0  0
  7 30  1  0  0  0  0
  8  9  2  0  0  0  0
  8 31  1  0  0  0  0
  9 10  1  0  0  0  0
  9 32  1  0  0  0  0
 10 11  2  0  0  0  0
 10 54  1  0  0  0  0
 11 33  1  0  0  0  0
 12 24  1  0  0  0  0
 12 13  1  0  0  0  0
 13 14  1  0  0  0  0
 13 34  1  0  0  0  0
 13 35  1  0  0  0  0
 14 15  1  0  0  0  0
 14 36  1  0  0  0  0
 14 37  1  0  0  0  0
 15 16  1  0  0  0  0
 15 23  1  0  0  0  0
 15 53  1  0  0  0  0
 16 21  1  0  0  0  0
 16 17  1  0  0  0  0
 16 38  1  0  0  0  0
 17 18  1  0  0  0  0
 17 39  1  0  0  0  0
 17 40  1  0  0  0  0
 18 22  1  0  0  0  0
 18 19  1  0  0  0  0
 18 41  1  0  0  0  0
 19 20  1  0  0  0  0
 19 42  1  0  0  0  0
 19 43  1  0  0  0  0
 20 21  1  0  0  0  0
 20 44  1  0  0  0  0
 20 45  1  0  0  0  0
 21 22  1  0  0  0  0
 21 46  1  0  0  0  0
 22 47  1  0  0  0  0
 22 48  1  0  0  0  0
 23 24  1  0  0  0  0
 23 49  1  0  0  0  0
 23 50  1  0  0  0  0
 24 51  1  0  0  0  0
 24 52  1  0  0  0  0
M  CHG  1  10   1
M  CHG  1  15   1
M  END
> <s_m_source_file>
AV-unprocessed.smi

> <i_m_source_file_index>
867

> <i_lp_mmshare_version>
43012

> <i_f3d_flags>
0

> <s_epik_input>
W0NIMl0xW0NIMl1bQ0BASF0oW0NIMl0yKVtDQEBIXShbQ0gyXVtDQEhdMTIpTihbQ0gyXVtDSDJdMylbQ0gyXVtDSDJdTjNDKD1PKVtOSF1bQ0gyXVtDSDJdYzRbY0hdW2NIXVtjSF1uW2NIXTQ=

> <s_epik_cmdline>
J2VwaWtfcHl0aG9uJywgJy1waCcsICc3LjAnLCAnLXRuJywgJzgnLCAnLW1hJywgJzIwMCcsICctbWV0YWxfYmluZGluZycsICctaW1hZScsICc8aW5maWxlLm1hZT4nLCAnLW9tYWUnLCAnPG91dGZpbGUubWFlPic=

> <r_epik_Ionization_Penalty>
2.25108

> <r_epik_Ionization_Penalty_Charging>
2.25105

> <r_epik_Ionization_Penalty_Neutral>
2.64641e-05

> <r_epik_State_Penalty>
2.39519

> <r_epik_Charging_Adjusted_Penalty>
4.64625

> <i_epik_Tot_Q>
2

> <i_epik_Tot_abs_Q>
2

> <r_epik_Metal_State_Penalty>
2.40865

> <b_epik_Metal_Only>
0

> <s_lp_Force_Field>
OPLS_2005

> <r_lp_Energy>
106.845

> <b_lp_Chiralities_Consistent>
1

> <s_lp_Variant>
AV-unprocessed.smi:867-8

> <Gold.Version>
5.8.1

> <Gold.Id.Protein>
6NUR|6NUR_protein|mol2

> <Gold.PLP.Fitness>
46.9536

> <Gold.PLP.PLP>
-37.1920

> <Gold.PLP.part.hbond>
-2.0000

> <Gold.PLP.part.metal>
0.0000

> <Gold.PLP.part.buried>
-6.3743

> <Gold.PLP.part.nonpolar>
-28.8200

> <Gold.PLP.part.repulsive>
0.1817

> <Gold.PLP.ligand.clash>
0.0000

> <Gold.PLP.ligand.torsion>
1.2265

> <Gold.PLP.Chemscore.Hbond>
4.0000

> <Gold.PLP.Chemscore.CHOScore>
0.0000

> <Gold.PLP.Chemscore.Metal>
0.0000

> <Gold.Chemscore.Hbonds>
donor molecule, donor type, donor heavy atom, donor atom, acceptor molecule, acceptor atom, score
      L1  H    10    54       P1 10957  2.00
      L1  H    15    53       P1  8028  2.00

> <Gold.PLP.Chemscore.Internal.Correction>
0.2146

> <Gold.Rescore>
     Score         DG    S(hbond)    S(metal)    S(lipo)     H(rot)  DE(clash)    DE(int)     intcor
     19.34     -21.87       1.98        0.00     115.44       1.46       1.51       1.03       ----

> <Gold.Chemscore.Fitness>
19.3376

> <Gold.Chemscore.DG>
-21.8728

> <Gold.Chemscore.ZeroCoef>
-5.4800

> <Gold.Chemscore.Hbond>
1.9811

> <Gold.Chemscore.Metal>
0.0000

> <Gold.Chemscore.Lipo>
115.4388

> <Gold.Chemscore.Internal_Hbond>
0.0000

> <Gold.Chemscore.DEClash>
1.5089

> <Gold.Chemscore.DEInternal>
1.0263

> <Gold.Chemscore.Rot>
1.4572

> <Gold.Chemscore.Internal.Correction>
   9.000000E+99

> <Gold.Chemscore.Hbonds>
donor molecule, donor type, donor heavy atom, donor atom, acceptor molecule, acceptor atom, score
      L1  H    10    54       P1 10957  1.00
      L1  H    15    53       P1  8028  1.00

> <Gold.Chemscore.Hbond.Weighted>
-6.6170

> <Gold.Chemscore.Metal.Weighted>
-0.0000

> <Gold.Chemscore.Lipo.Weighted>
-13.5063

> <Gold.Chemscore.Internal_Hbond.Weighted>
0.0000

> <Gold.Chemscore.DEClash.Weighted>
1.5089

> <Gold.Chemscore.DEInternal.Weighted>
1.0263

> <Gold.Chemscore.Rot.Weighted>
3.7305

> <Gold.Chemscore.Internal.Correction.Weighted>
   9.000000E+99

> <Gold.Protein.RotatedTorsions>
[ 6907 6896 6895 6894 ] final  172.22 input  -60.11 | X-H torsion
[ 7974 7965 7964 7962 ] final  -28.59 input  175.53 | X-H torsion
[ 8008 7997 7996 7995 ] final  140.29 input   59.86 | X-H torsion
[ 10167 10162 10161 10158 ] final  -21.01 input  -65.29 | X-H torsion
[ 10718 10713 10712 10709 ] final -136.99 input   66.30 | X-H torsion
[ 10763 10752 10751 10750 ] final   98.13 input  -60.55 | X-H torsion
[ 11005 11000 10999 10996 ] final -131.44 input  -57.11 | X-H torsion

> <Gold.Protein.ActiveResidues>
 VAL166  LYS551  ARG553  GLY616  TRP617  ASP618  TYR619  PRO620  LYS621  CYS622 
 ASP623  PHE694  ASN695  SER759  ASP760  ASP761  ALA762  ILE779  LEU786  VAL792 
 PHE793  MET794  SER795  GLU796  ALA797  LYS798  CYS799  TRP800  GLU811  SER814 

> <Gold.Protein.RotatedAtoms>
  151.7877  133.3356  159.3489 H   0  0  0  0  0  0  0  0  0  0  0  0  # atno 6907 bound_to 6896
  150.7403  134.5871  159.5978 H   0  0  0  0  0  0  0  0  0  0  0  0  # atno 6908 bound_to 6896
  152.3232  134.7356  160.0360 H   0  0  0  0  0  0  0  0  0  0  0  0  # atno 6909 bound_to 6896
  146.1277  140.5302  142.8707 H   0  0  0  0  0  0  0  0  0  0  0  0  # atno 7974 bound_to 7965
  156.2981  140.2345  156.4377 H   0  0  0  0  0  0  0  0  0  0  0  0  # atno 8008 bound_to 7997
  154.8213  140.0437  157.1433 H   0  0  0  0  0  0  0  0  0  0  0  0  # atno 8009 bound_to 7997
  154.9311  140.3017  155.5171 H   0  0  0  0  0  0  0  0  0  0  0  0  # atno 8010 bound_to 7997
  140.7279  143.4668  151.0302 H   0  0  0  0  0  0  0  0  0  0  0  0  # atno 10167 bound_to 10162
  156.2831  130.7332  151.1336 H   0  0  0  0  0  0  0  0  0  0  0  0  # atno 10718 bound_to 10713
  153.2853  135.4159  155.1117 H   0  0  0  0  0  0  0  0  0  0  0  0  # atno 10763 bound_to 10752
  154.8503  135.3505  154.6055 H   0  0  0  0  0  0  0  0  0  0  0  0  # atno 10764 bound_to 10752
  153.6477  135.7054  153.5277 H   0  0  0  0  0  0  0  0  0  0  0  0  # atno 10765 bound_to 10752
  140.9258  134.1384  157.4276 H   0  0  0  0  0  0  0  0  0  0  0  0  # atno 11005 bound_to 11000
  144.7659  140.5529  143.6703 LP  0  0  0  0  0  0  0  0  0  0  0  0  # atno 17320 bound_to 7965
  145.5328  139.1475  143.3490 LP  0  0  0  0  0  0  0  0  0  0  0  0  # atno 17321 bound_to 7965
  139.8357  143.7631  152.3180 LP  0  0  0  0  0  0  0  0  0  0  0  0  # atno 17342 bound_to 10162
  139.7762  144.7460  151.0153 LP  0  0  0  0  0  0  0  0  0  0  0  0  # atno 17343 bound_to 10162
  157.7320  131.0603  150.5648 LP  0  0  0  0  0  0  0  0  0  0  0  0  # atno 17370 bound_to 10713
  156.5756  130.4291  149.6000 LP  0  0  0  0  0  0  0  0  0  0  0  0  # atno 17371 bound_to 10713
  139.8785  134.9988  156.5918 LP  0  0  0  0  0  0  0  0  0  0  0  0  # atno 17394 bound_to 11000
  140.7928  133.8569  155.8660 LP  0  0  0  0  0  0  0  0  0  0  0  0  # atno 17395 bound_to 11000

$$$$
