AV-unprocessed.smi:704|AV-procd|sdf|3445|dock7
  -GOLD-   22720 0433D 1   1.00000     0.00000
 Structure written by MMmdl.
 38 39  0  0  0  0  0  0  0  0  1 V2000
  151.6668  138.3404  154.3754 C   0  0  0  0  0  0  0  0  0  0  0  0
  150.3210  138.2833  153.9153 O   0  0  0  0  0  0  0  0  0  0  0  0
  149.5198  139.3979  154.0761 C   0  0  0  0  0  0  0  0  0  0  0  0
  150.0541  140.4966  154.6659 N   0  0  0  0  0  0  0  0  0  0  0  0
  149.2754  141.5873  154.8181 C   0  0  0  0  0  0  0  0  0  0  0  0
  147.9366  141.6434  154.3893 C   0  0  0  0  0  0  0  0  0  0  0  0
  147.3800  140.5050  153.7776 C   0  0  0  0  0  0  0  0  0  0  0  0
  148.1805  139.3470  153.6240 C   0  0  0  0  0  0  0  0  0  0  0  0
  147.7290  138.1482  153.0060 N   0  0  0  0  0  0  0  0  0  0  0  0
  146.4772  137.6708  152.9060 C   0  0  0  0  0  0  0  0  0  0  0  0
  145.4669  138.2164  153.3486 O   0  0  0  0  0  0  0  0  0  0  0  0
  146.4628  136.4905  152.2711 N   0  0  0  0  0  0  0  0  0  0  0  0
  145.2715  135.6865  152.0048 C   0  0  1  0  0  0  0  0  0  0  0  0
  145.5444  134.6744  150.8804 C   0  0  0  0  0  0  0  0  0  0  0  0
  145.7331  133.3301  151.5770 C   0  0  0  0  0  0  0  0  0  0  0  0
  144.7838  133.3947  152.7698 C   0  0  0  0  0  0  0  0  0  0  0  0
  144.8439  134.8573  153.2472 C   0  0  2  0  0  0  0  0  0  0  0  0
  143.5156  135.3392  153.8515 C   0  0  0  0  0  0  0  0  0  0  0  0
  142.9050  134.5185  154.7097 N   0  0  0  0  0  0  0  0  0  0  0  0
  143.0471  136.4358  153.5515 O   0  0  0  0  0  0  0  0  0  0  0  0
  152.1563  137.3877  154.1746 H   0  0  0  0  0  0  0  0  0  0  0  0
  151.7148  138.5165  155.4510 H   0  0  0  0  0  0  0  0  0  0  0  0
  152.2317  139.1176  153.8586 H   0  0  0  0  0  0  0  0  0  0  0  0
  149.7352  142.4430  155.2897 H   0  0  0  0  0  0  0  0  0  0  0  0
  147.3510  142.5410  154.5217 H   0  0  0  0  0  0  0  0  0  0  0  0
  146.3605  140.5501  153.4282 H   0  0  0  0  0  0  0  0  0  0  0  0
  148.4603  137.5454  152.6580 H   0  0  0  0  0  0  0  0  0  0  0  0
  147.3426  136.1148  151.9489 H   0  0  0  0  0  0  0  0  0  0  0  0
  144.4793  136.3603  151.6706 H   0  0  0  0  0  0  0  0  0  0  0  0
  144.6701  134.6179  150.2306 H   0  0  0  0  0  0  0  0  0  0  0  0
  146.3950  134.9411  150.2517 H   0  0  0  0  0  0  0  0  0  0  0  0
  145.5277  132.4834  150.9213 H   0  0  0  0  0  0  0  0  0  0  0  0
  146.7617  133.2398  151.9289 H   0  0  0  0  0  0  0  0  0  0  0  0
  143.7791  133.1204  152.4439 H   0  0  0  0  0  0  0  0  0  0  0  0
  145.0743  132.6949  153.5540 H   0  0  0  0  0  0  0  0  0  0  0  0
  145.6231  134.9202  154.0097 H   0  0  0  0  0  0  0  0  0  0  0  0
  142.0231  134.7843  155.1228 H   0  0  0  0  0  0  0  0  0  0  0  0
  143.3227  133.6267  154.9319 H   0  0  0  0  0  0  0  0  0  0  0  0
  1  2  1  0  0  0  0
  1 21  1  0  0  0  0
  1 22  1  0  0  0  0
  1 23  1  0  0  0  0
  2  3  1  0  0  0  0
  3  8  1  0  0  0  0
  3  4  2  0  0  0  0
  4  5  1  0  0  0  0
  5  6  2  0  0  0  0
  5 24  1  0  0  0  0
  6  7  1  0  0  0  0
  6 25  1  0  0  0  0
  7  8  2  0  0  0  0
  7 26  1  0  0  0  0
  8  9  1  0  0  0  0
  9 10  1  0  0  0  0
  9 27  1  0  0  0  0
 10 11  2  0  0  0  0
 10 12  1  0  0  0  0
 12 13  1  0  0  0  0
 12 28  1  0  0  0  0
 13 17  1  0  0  0  0
 13 14  1  0  0  0  0
 13 29  1  0  0  0  0
 14 15  1  0  0  0  0
 14 30  1  0  0  0  0
 14 31  1  0  0  0  0
 15 16  1  0  0  0  0
 15 32  1  0  0  0  0
 15 33  1  0  0  0  0
 16 17  1  0  0  0  0
 16 34  1  0  0  0  0
 16 35  1  0  0  0  0
 17 18  1  0  0  0  0
 17 36  1  0  0  0  0
 18 19  1  0  0  0  0
 18 20  2  0  0  0  0
 19 37  1  0  0  0  0
 19 38  1  0  0  0  0
M  END
> <s_m_source_file>
AV-unprocessed.smi

> <i_m_source_file_index>
704

> <i_lp_mmshare_version>
43012

> <i_f3d_flags>
0

> <s_epik_input>
W0NIM11PYzFuW2NIXVtjSF1bY0hdYzFbTkhdQyg9TylbTkhdW0NAQEhdMltDSDJdW0NIMl1bQ0gyXVtDQEhdMkMoPU8pW05IMl0=

> <s_epik_cmdline>
J2VwaWtfcHl0aG9uJywgJy1waCcsICc3LjAnLCAnLXRuJywgJzgnLCAnLW1hJywgJzIwMCcsICctbWV0YWxfYmluZGluZycsICctaW1hZScsICc8aW5maWxlLm1hZT4nLCAnLW9tYWUnLCAnPG91dGZpbGUubWFlPic=

> <r_lp_tautomer_probability>
1

> <r_epik_Ionization_Penalty>
9.09123e-05

> <r_epik_Ionization_Penalty_Charging>
0

> <r_epik_Ionization_Penalty_Neutral>
9.09123e-05

> <r_epik_State_Penalty>
-0

> <r_epik_Charging_Adjusted_Penalty>
0

> <i_epik_Tot_Q>
0

> <i_epik_Tot_abs_Q>
0

> <r_epik_Metal_State_Penalty>
-0

> <b_epik_Metal_Only>
0

> <s_lp_Force_Field>
OPLS_2005

> <r_lp_Energy>
17.389

> <b_lp_Chiralities_Consistent>
1

> <s_lp_Variant>
AV-unprocessed.smi:704-4

> <Gold.Version>
5.8.1

> <Gold.Id.Protein>
6NUR|6NUR_protein|mol2

> <Gold.PLP.Fitness>
41.4198

> <Gold.PLP.PLP>
-28.8069

> <Gold.PLP.part.hbond>
-4.5448

> <Gold.PLP.part.metal>
0.0000

> <Gold.PLP.part.buried>
-1.3403

> <Gold.PLP.part.nonpolar>
-25.8731

> <Gold.PLP.part.repulsive>
2.2569

> <Gold.PLP.ligand.clash>
0.0000

> <Gold.PLP.ligand.torsion>
0.8012

> <Gold.PLP.Chemscore.Hbond>
3.7392

> <Gold.PLP.Chemscore.CHOScore>
0.9959

> <Gold.PLP.Chemscore.Metal>
0.0000

> <Gold.Chemscore.Hbonds>
donor molecule, donor type, donor heavy atom, donor atom, acceptor molecule, acceptor atom, score
      L1  H     9    27       P1  7948  1.00
      L1  H    12    28       P1  7948  1.00
      L1  H    19    37       P1 11000  0.16
      L1  H    19    38       P1 10957  0.66
      P1  H  7989  7998       L1     4  0.91
      L1  C     5    24       P1  8028  1.00

> <Gold.PLP.Chemscore.Internal.Correction>
0.0101

> <Gold.Rescore>
     Score         DG    S(hbond)    S(metal)    S(lipo)     H(rot)  DE(clash)    DE(int)     intcor
     14.67     -16.94       3.12        0.00      49.61       1.86       0.77       1.50       ----

> <Gold.Chemscore.Fitness>
14.6744

> <Gold.Chemscore.DG>
-16.9433

> <Gold.Chemscore.ZeroCoef>
-5.4800

> <Gold.Chemscore.Hbond>
3.1236

> <Gold.Chemscore.Metal>
0.0000

> <Gold.Chemscore.Lipo>
49.6106

> <Gold.Chemscore.Internal_Hbond>
0.0000

> <Gold.Chemscore.DEClash>
0.7723

> <Gold.Chemscore.DEInternal>
1.4965

> <Gold.Chemscore.Rot>
1.8648

> <Gold.Chemscore.Internal.Correction>
   9.000000E+99

> <Gold.Chemscore.Hbonds>
donor molecule, donor type, donor heavy atom, donor atom, acceptor molecule, acceptor atom, score
      L1  H     9    27       P1  7948  0.95
      L1  H    12    28       P1  7948  0.94
      L1  H    19    37       P1 11000  0.05
      L1  H    19    38       P1 10957  0.65
      P1  H  7989  7998       L1     4  0.23

> <Gold.Chemscore.Hbond.Weighted>
-10.4328

> <Gold.Chemscore.Metal.Weighted>
-0.0000

> <Gold.Chemscore.Lipo.Weighted>
-5.8044

> <Gold.Chemscore.Internal_Hbond.Weighted>
0.0000

> <Gold.Chemscore.DEClash.Weighted>
0.7723

> <Gold.Chemscore.DEInternal.Weighted>
1.4965

> <Gold.Chemscore.Rot.Weighted>
4.7739

> <Gold.Chemscore.Internal.Correction.Weighted>
   9.000000E+99

> <Gold.Protein.RotatedTorsions>
[ 6907 6896 6895 6894 ] final -103.01 input  -60.11 | X-H torsion
[ 7974 7965 7964 7962 ] final -176.55 input  175.53 | X-H torsion
[ 8008 7997 7996 7995 ] final  139.69 input   59.86 | X-H torsion
[ 10167 10162 10161 10158 ] final    8.28 input  -65.29 | X-H torsion
[ 10718 10713 10712 10709 ] final   44.32 input   66.30 | X-H torsion
[ 10763 10752 10751 10750 ] final   55.35 input  -60.55 | X-H torsion
[ 11005 11000 10999 10996 ] final -155.56 input  -57.11 | X-H torsion

> <Gold.Protein.ActiveResidues>
 VAL166  LYS551  ARG553  GLY616  TRP617  ASP618  TYR619  PRO620  LYS621  CYS622 
 ASP623  PHE694  ASN695  SER759  ASP760  ASP761  ALA762  ILE779  LEU786  VAL792 
 PHE793  MET794  SER795  GLU796  ALA797  LYS798  CYS799  TRP800  GLU811  SER814 

> <Gold.Protein.RotatedAtoms>
  150.7221  134.0494  159.3792 H   0  0  0  0  0  0  0  0  0  0  0  0  # atno 6907 bound_to 6896
  151.8470  135.0568  160.0464 H   0  0  0  0  0  0  0  0  0  0  0  0  # atno 6908 bound_to 6896
  152.2819  133.5442  159.5539 H   0  0  0  0  0  0  0  0  0  0  0  0  # atno 6909 bound_to 6896
  144.7127  140.1153  143.6408 H   0  0  0  0  0  0  0  0  0  0  0  0  # atno 7974 bound_to 7965
  156.2987  140.2361  156.4279 H   0  0  0  0  0  0  0  0  0  0  0  0  # atno 8008 bound_to 7997
  154.8296  140.0433  157.1488 H   0  0  0  0  0  0  0  0  0  0  0  0  # atno 8009 bound_to 7997
  154.9222  140.3005  155.5214 H   0  0  0  0  0  0  0  0  0  0  0  0  # atno 8010 bound_to 7997
  140.6323  143.7965  150.7312 H   0  0  0  0  0  0  0  0  0  0  0  0  # atno 10167 bound_to 10162
  157.4255  130.7994  149.7555 H   0  0  0  0  0  0  0  0  0  0  0  0  # atno 10718 bound_to 10713
  152.9816  135.5714  154.5052 H   0  0  0  0  0  0  0  0  0  0  0  0  # atno 10763 bound_to 10752
  154.4565  135.2780  155.1746 H   0  0  0  0  0  0  0  0  0  0  0  0  # atno 10764 bound_to 10752
  154.3352  135.6241  153.5623 H   0  0  0  0  0  0  0  0  0  0  0  0  # atno 10765 bound_to 10752
  140.6851  134.4102  157.5224 H   0  0  0  0  0  0  0  0  0  0  0  0  # atno 11005 bound_to 11000
  145.9419  139.2674  143.1264 LP  0  0  0  0  0  0  0  0  0  0  0  0  # atno 17320 bound_to 7965
  145.9415  140.8976  143.0305 LP  0  0  0  0  0  0  0  0  0  0  0  0  # atno 17321 bound_to 7965
  140.1579  143.4301  152.2087 LP  0  0  0  0  0  0  0  0  0  0  0  0  # atno 17342 bound_to 10162
  139.5536  144.7356  151.4360 LP  0  0  0  0  0  0  0  0  0  0  0  0  # atno 17343 bound_to 10162
  155.9895  130.3951  150.3070 LP  0  0  0  0  0  0  0  0  0  0  0  0  # atno 17370 bound_to 10713
  157.1222  131.0250  151.3004 LP  0  0  0  0  0  0  0  0  0  0  0  0  # atno 17371 bound_to 10713
  139.8940  134.8717  156.2198 LP  0  0  0  0  0  0  0  0  0  0  0  0  # atno 17394 bound_to 11000
  141.0286  133.7001  156.1391 LP  0  0  0  0  0  0  0  0  0  0  0  0  # atno 17395 bound_to 11000

$$$$
