AV-unprocessed.smi:183|AV-procd|sdf|1459|dock1
  -GOLD-   2262019263D 1   1.00000     0.00000
 Structure written by MMmdl.
 55 57  0  0  0  0  0  0  0  0  1 V2000
  152.1339  145.0572  158.7789 C   0  0  0  0  0  0  0  0  0  0  0  0
  151.5095  143.6667  158.8133 C   0  0  0  0  0  0  0  0  0  0  0  0
  151.8794  142.8434  159.6500 O   0  0  0  0  0  0  0  0  0  0  0  0
  150.5613  143.4195  157.8974 N   0  0  0  0  0  0  0  0  0  0  0  0
  149.8468  142.1580  157.7566 C   0  0  0  0  0  0  0  0  0  0  0  0
  150.6061  141.1853  156.8325 C   0  0  0  0  0  0  0  0  0  0  0  0
  149.8263  140.0008  156.4614 N   0  0  0  0  0  0  0  0  0  0  0  0
  150.0087  138.9910  157.3474 C   0  0  0  0  0  0  0  0  0  0  0  0
  149.0395  138.0439  157.4129 N   0  0  0  0  0  0  0  0  0  0  0  0
  149.1522  137.0278  158.2734 C   0  0  0  0  0  0  0  0  0  0  0  0
  150.1296  136.7775  159.1466 N   0  0  0  0  0  0  0  0  0  0  0  0
  151.1012  137.7330  159.0909 C   0  0  0  0  0  0  0  0  0  0  0  0
  151.1206  138.8661  158.2298 C   0  0  0  0  0  0  0  0  0  0  0  0
  152.2624  139.6219  158.4702 N   0  0  0  0  0  0  0  0  0  0  0  0
  152.8829  138.9715  159.4156 C   0  0  0  0  0  0  0  0  0  0  0  0
  152.2602  137.8204  159.8418 N   0  0  0  0  0  0  0  0  0  0  0  0
  152.7281  136.9068  160.8721 C   0  0  0  0  0  0  0  0  0  0  0  0
  153.9207  136.0305  160.4210 C   0  0  1  0  0  0  0  0  0  0  0  0
  153.4779  135.1559  159.3954 O   0  0  0  0  0  0  0  0  0  0  0  0
  155.1081  136.8237  159.8940 C   0  0  0  0  0  0  0  0  0  0  0  0
  156.2707  135.8657  160.1182 C   0  0  0  0  0  0  0  0  0  0  0  0
  155.9690  135.2204  161.3476 O   0  0  0  0  0  0  0  0  0  0  0  0
  154.5614  135.2378  161.5831 C   0  0  2  0  0  0  0  0  0  0  0  0
  154.0309  133.8148  161.8206 C   0  0  0  0  0  0  0  0  0  0  0  0
  149.6513  139.6456  155.0423 C   0  0  0  0  0  0  0  0  0  0  0  0
  150.9125  138.9806  154.4590 C   0  0  0  0  0  0  0  0  0  0  0  0
  149.2855  140.8658  154.1691 C   0  0  0  0  0  0  0  0  0  0  0  0
  151.4100  145.8049  159.1039 H   0  0  0  0  0  0  0  0  0  0  0  0
  152.4604  145.3065  157.7689 H   0  0  0  0  0  0  0  0  0  0  0  0
  153.0003  145.1098  159.4390 H   0  0  0  0  0  0  0  0  0  0  0  0
  150.3211  144.1559  157.2497 H   0  0  0  0  0  0  0  0  0  0  0  0
  149.7327  141.7285  158.7515 H   0  0  0  0  0  0  0  0  0  0  0  0
  148.8400  142.3480  157.3830 H   0  0  0  0  0  0  0  0  0  0  0  0
  150.9174  141.7119  155.9288 H   0  0  0  0  0  0  0  0  0  0  0  0
  151.5335  140.8671  157.3077 H   0  0  0  0  0  0  0  0  0  0  0  0
  148.3418  136.3142  158.2619 H   0  0  0  0  0  0  0  0  0  0  0  0
  153.8205  139.3142  159.8282 H   0  0  0  0  0  0  0  0  0  0  0  0
  153.0036  137.5002  161.7450 H   0  0  0  0  0  0  0  0  0  0  0  0
  151.8936  136.2771  161.1838 H   0  0  0  0  0  0  0  0  0  0  0  0
  153.9105  135.3954  158.5903 H   0  0  0  0  0  0  0  0  0  0  0  0
  155.0036  137.1349  158.8536 H   0  0  0  0  0  0  0  0  0  0  0  0
  155.2608  137.7190  160.4981 H   0  0  0  0  0  0  0  0  0  0  0  0
  156.3120  135.1182  159.3248 H   0  0  0  0  0  0  0  0  0  0  0  0
  157.2343  136.3738  160.1577 H   0  0  0  0  0  0  0  0  0  0  0  0
  154.4308  135.8049  162.5058 H   0  0  0  0  0  0  0  0  0  0  0  0
  152.9532  133.8208  161.9847 H   0  0  0  0  0  0  0  0  0  0  0  0
  154.4978  133.3717  162.7003 H   0  0  0  0  0  0  0  0  0  0  0  0
  154.2412  133.1598  160.9748 H   0  0  0  0  0  0  0  0  0  0  0  0
  148.8388  138.9230  154.9679 H   0  0  0  0  0  0  0  0  0  0  0  0
  150.7887  138.7710  153.3963 H   0  0  0  0  0  0  0  0  0  0  0  0
  151.1299  138.0275  154.9410 H   0  0  0  0  0  0  0  0  0  0  0  0
  151.7873  139.6222  154.5696 H   0  0  0  0  0  0  0  0  0  0  0  0
  149.2022  140.5831  153.1194 H   0  0  0  0  0  0  0  0  0  0  0  0
  150.0463  141.6438  154.2409 H   0  0  0  0  0  0  0  0  0  0  0  0
  148.3300  141.3086  154.4481 H   0  0  0  0  0  0  0  0  0  0  0  0
  1  2  1  0  0  0  0
  1 28  1  0  0  0  0
  1 29  1  0  0  0  0
  1 30  1  0  0  0  0
  2  3  2  0  0  0  0
  2  4  1  0  0  0  0
  4  5  1  0  0  0  0
  4 31  1  0  0  0  0
  5  6  1  0  0  0  0
  5 32  1  0  0  0  0
  5 33  1  0  0  0  0
  6  7  1  0  0  0  0
  6 34  1  0  0  0  0
  6 35  1  0  0  0  0
  7  8  1  0  0  0  0
  7 25  1  0  0  0  0
  8 13  1  0  0  0  0
  8  9  2  0  0  0  0
  9 10  1  0  0  0  0
 10 11  2  0  0  0  0
 10 36  1  0  0  0  0
 11 12  1  0  0  0  0
 12 16  1  0  0  0  0
 12 13  2  0  0  0  0
 13 14  1  0  0  0  0
 14 15  2  0  0  0  0
 15 16  1  0  0  0  0
 15 37  1  0  0  0  0
 16 17  1  0  0  0  0
 17 18  1  0  0  0  0
 17 38  1  0  0  0  0
 17 39  1  0  0  0  0
 18 23  1  0  0  0  0
 18 19  1  0  0  0  0
 18 20  1  0  0  0  0
 19 40  1  0  0  0  0
 20 21  1  0  0  0  0
 20 41  1  0  0  0  0
 20 42  1  0  0  0  0
 21 22  1  0  0  0  0
 21 43  1  0  0  0  0
 21 44  1  0  0  0  0
 22 23  1  0  0  0  0
 23 24  1  0  0  0  0
 23 45  1  0  0  0  0
 24 46  1  0  0  0  0
 24 47  1  0  0  0  0
 24 48  1  0  0  0  0
 25 26  1  0  0  0  0
 25 27  1  0  0  0  0
 25 49  1  0  0  0  0
 26 50  1  0  0  0  0
 26 51  1  0  0  0  0
 26 52  1  0  0  0  0
 27 53  1  0  0  0  0
 27 54  1  0  0  0  0
 27 55  1  0  0  0  0
M  END
> <s_m_source_file>
AV-unprocessed.smi

> <i_m_source_file_index>
183

> <i_lp_mmshare_version>
43012

> <i_f3d_flags>
0

> <s_epik_input>
W0NIM11DKD1PKVtOSF1bQ0gyXVtDSDJdTihbQ0hdKFtDSDNdKVtDSDNdKWMobltjSF1uMSljKGMxMiluW2NIXW4yW0NIMl1bQ0BAXTMoW09IXSlbQ0gyXVtDSDJdT1tDQEhdM1tDSDNd

> <s_epik_cmdline>
J2VwaWtfcHl0aG9uJywgJy1waCcsICc3LjAnLCAnLXRuJywgJzgnLCAnLW1hJywgJzIwMCcsICctbWV0YWxfYmluZGluZycsICctaW1hZScsICc8aW5maWxlLm1hZT4nLCAnLW9tYWUnLCAnPG91dGZpbGUubWFlPic=

> <r_lp_tautomer_probability>
1

> <r_epik_Ionization_Penalty>
0.00156158

> <r_epik_Ionization_Penalty_Charging>
0

> <r_epik_Ionization_Penalty_Neutral>
0.00156158

> <r_epik_State_Penalty>
0.000865808

> <r_epik_Charging_Adjusted_Penalty>
0.000865808

> <i_epik_Tot_Q>
0

> <i_epik_Tot_abs_Q>
0

> <r_epik_Metal_State_Penalty>
-0

> <b_epik_Metal_Only>
0

> <s_lp_Force_Field>
OPLS_2005

> <r_lp_Energy>
29.9876

> <b_lp_Chiralities_Consistent>
1

> <s_lp_Variant>
AV-unprocessed.smi:183-3

> <Gold.Version>
5.8.1

> <Gold.Id.Protein>
6NUR|6NUR_protein|mol2

> <Gold.PLP.Fitness>
45.2260

> <Gold.PLP.PLP>
-37.9391

> <Gold.PLP.part.hbond>
-3.0000

> <Gold.PLP.part.metal>
0.0000

> <Gold.PLP.part.buried>
-5.9788

> <Gold.PLP.part.nonpolar>
-28.6508

> <Gold.PLP.part.repulsive>
0.0210

> <Gold.PLP.ligand.clash>
0.0000

> <Gold.PLP.ligand.torsion>
1.4220

> <Gold.PLP.Chemscore.Hbond>
2.9511

> <Gold.PLP.Chemscore.CHOScore>
0.0000

> <Gold.PLP.Chemscore.Metal>
0.0000

> <Gold.Chemscore.Hbonds>
donor molecule, donor type, donor heavy atom, donor atom, acceptor molecule, acceptor atom, score
      L1  H     4    31       P1  8028  0.53
      P1  H  6896  6908       L1    11  0.89
      P1  H  6896  6909       L1    19  0.38

> <Gold.PLP.Chemscore.Internal.Correction>
1.2778

> <Gold.Rescore>
     Score         DG    S(hbond)    S(metal)    S(lipo)     H(rot)  DE(clash)    DE(int)     intcor
     11.28     -14.31       2.77        0.00      71.91       3.45       0.13       2.91       ----

> <Gold.Chemscore.Fitness>
11.2783

> <Gold.Chemscore.DG>
-14.3146

> <Gold.Chemscore.ZeroCoef>
-5.4800

> <Gold.Chemscore.Hbond>
2.7666

> <Gold.Chemscore.Metal>
0.0000

> <Gold.Chemscore.Lipo>
71.9102

> <Gold.Chemscore.Internal_Hbond>
0.0000

> <Gold.Chemscore.DEClash>
0.1308

> <Gold.Chemscore.DEInternal>
2.9055

> <Gold.Chemscore.Rot>
3.4451

> <Gold.Chemscore.Internal.Correction>
   9.000000E+99

> <Gold.Chemscore.Hbonds>
donor molecule, donor type, donor heavy atom, donor atom, acceptor molecule, acceptor atom, score
      L1  H     4    31       P1  8028  0.45
      P1  H  6896  6908       L1    11  0.64
      P1  H  6896  6909       L1    19  0.25

> <Gold.Chemscore.Hbond.Weighted>
-9.2405

> <Gold.Chemscore.Metal.Weighted>
-0.0000

> <Gold.Chemscore.Lipo.Weighted>
-8.4135

> <Gold.Chemscore.Internal_Hbond.Weighted>
0.0000

> <Gold.Chemscore.DEClash.Weighted>
0.1308

> <Gold.Chemscore.DEInternal.Weighted>
2.9055

> <Gold.Chemscore.Rot.Weighted>
8.8194

> <Gold.Chemscore.Internal.Correction.Weighted>
   9.000000E+99

> <Gold.Protein.RotatedTorsions>
[ 6907 6896 6895 6894 ] final -160.55 input  -60.11 | X-H torsion
[ 7974 7965 7964 7962 ] final -172.05 input  175.53 | X-H torsion
[ 8008 7997 7996 7995 ] final   55.21 input   59.86 | X-H torsion
[ 10167 10162 10161 10158 ] final   -2.49 input  -65.29 | X-H torsion
[ 10718 10713 10712 10709 ] final   79.23 input   66.30 | X-H torsion
[ 10763 10752 10751 10750 ] final   81.81 input  -60.55 | X-H torsion
[ 11005 11000 10999 10996 ] final  141.20 input  -57.11 | X-H torsion

> <Gold.Protein.ActiveResidues>
 VAL166  LYS551  ARG553  GLY616  TRP617  ASP618  TYR619  PRO620  LYS621  CYS622 
 ASP623  PHE694  ASN695  SER759  ASP760  ASP761  ALA762  ILE779  LEU786  VAL792 
 PHE793  MET794  SER795  GLU796  ALA797  LYS798  CYS799  TRP800  GLU811  SER814 

> <Gold.Protein.RotatedAtoms>
  151.3508  133.3926  159.2679 H   0  0  0  0  0  0  0  0  0  0  0  0  # atno 6907 bound_to 6896
  150.9803  134.9160  159.7850 H   0  0  0  0  0  0  0  0  0  0  0  0  # atno 6908 bound_to 6896
  152.5214  134.3472  159.9290 H   0  0  0  0  0  0  0  0  0  0  0  0  # atno 6909 bound_to 6896
  144.7150  140.1831  143.6356 H   0  0  0  0  0  0  0  0  0  0  0  0  # atno 7974 bound_to 7965
  155.4974  140.3473  155.4365 H   0  0  0  0  0  0  0  0  0  0  0  0  # atno 8008 bound_to 7997
  156.0936  140.1417  156.9587 H   0  0  0  0  0  0  0  0  0  0  0  0  # atno 8009 bound_to 7997
  154.4650  140.0921  156.6973 H   0  0  0  0  0  0  0  0  0  0  0  0  # atno 8010 bound_to 7997
  140.6853  143.6651  150.8233 H   0  0  0  0  0  0  0  0  0  0  0  0  # atno 10167 bound_to 10162
  157.6770  130.9905  150.1903 H   0  0  0  0  0  0  0  0  0  0  0  0  # atno 10718 bound_to 10713
  153.1149  135.4751  154.9098 H   0  0  0  0  0  0  0  0  0  0  0  0  # atno 10763 bound_to 10752
  154.7518  135.3108  154.8545 H   0  0  0  0  0  0  0  0  0  0  0  0  # atno 10764 bound_to 10752
  153.9125  135.6863  153.4804 H   0  0  0  0  0  0  0  0  0  0  0  0  # atno 10765 bound_to 10752
  140.0384  134.9317  157.0796 H   0  0  0  0  0  0  0  0  0  0  0  0  # atno 11005 bound_to 11000
  145.8838  139.2337  143.1589 LP  0  0  0  0  0  0  0  0  0  0  0  0  # atno 17320 bound_to 7965
  145.9969  140.8554  143.0038 LP  0  0  0  0  0  0  0  0  0  0  0  0  # atno 17321 bound_to 7965
  140.0357  143.5397  152.2740 LP  0  0  0  0  0  0  0  0  0  0  0  0  # atno 17342 bound_to 10162
  139.6206  144.7628  151.2748 LP  0  0  0  0  0  0  0  0  0  0  0  0  # atno 17343 bound_to 10162
  156.2616  130.3711  149.8125 LP  0  0  0  0  0  0  0  0  0  0  0  0  # atno 17370 bound_to 10713
  156.5868  130.8489  151.3398 LP  0  0  0  0  0  0  0  0  0  0  0  0  # atno 17371 bound_to 10713
  140.4110  134.1981  155.7163 LP  0  0  0  0  0  0  0  0  0  0  0  0  # atno 17394 bound_to 11000
  141.1870  133.8291  157.1049 LP  0  0  0  0  0  0  0  0  0  0  0  0  # atno 17395 bound_to 11000

$$$$
