AV-unprocessed.smi:3116|AV-procd|sdf|11872|dock4
  -GOLD-   2272017253D 1   1.00000     0.00000
 Structure written by MMmdl.
 33 33  0  0  0  0  0  0  0  0  1 V2000
  148.4683  141.5856  154.0335 C   0  0  0  0  0  0  0  0  0  0  0  0
  148.4646  140.4053  155.0170 C   0  0  2  0  0  0  0  0  0  0  0  0
  149.7229  140.3957  155.7823 N   0  0  0  0  0  0  0  0  0  0  0  0
  149.8792  141.4823  156.7506 C   0  0  1  0  0  0  0  0  0  0  0  0
  148.6439  141.4879  157.6688 C   0  0  0  0  0  0  0  0  0  0  0  0
  151.2124  141.3258  157.5297 C   0  0  2  0  0  0  0  0  0  0  0  0
  151.2970  140.0120  158.3281 C   0  0  0  0  0  0  0  0  0  0  0  0
  151.5341  142.4804  158.3647 N   0  0  0  0  0  0  0  0  0  0  0  0
  151.6002  143.8154  158.0158 C   0  0  0  0  0  0  0  0  0  0  0  0
  151.9601  144.5146  159.1316 C   0  0  0  0  0  0  0  0  0  0  0  0
  152.0996  143.5097  160.1282 C   0  0  0  0  0  0  0  0  0  0  0  0
  151.8478  142.2958  159.6668 N   0  0  0  0  0  0  0  0  0  0  0  0
  148.2033  139.0864  154.2717 C   0  0  0  0  0  0  0  0  0  0  0  0
  149.0020  138.7987  153.2410 N   0  0  0  0  0  0  0  0  0  0  0  0
  147.2825  138.3461  154.6127 O   0  0  0  0  0  0  0  0  0  0  0  0
  147.5378  141.6324  153.4663 H   0  0  0  0  0  0  0  0  0  0  0  0
  149.2902  141.5130  153.3198 H   0  0  0  0  0  0  0  0  0  0  0  0
  148.5749  142.5331  154.5628 H   0  0  0  0  0  0  0  0  0  0  0  0
  147.6477  140.5719  155.7216 H   0  0  0  0  0  0  0  0  0  0  0  0
  149.8831  139.5049  156.2312 H   0  0  0  0  0  0  0  0  0  0  0  0
  149.9215  142.4457  156.2405 H   0  0  0  0  0  0  0  0  0  0  0  0
  148.7311  142.2613  158.4322 H   0  0  0  0  0  0  0  0  0  0  0  0
  148.5113  140.5331  158.1789 H   0  0  0  0  0  0  0  0  0  0  0  0
  147.7318  141.6888  157.1066 H   0  0  0  0  0  0  0  0  0  0  0  0
  151.9986  141.2586  156.7753 H   0  0  0  0  0  0  0  0  0  0  0  0
  151.1416  139.1500  157.6789 H   0  0  0  0  0  0  0  0  0  0  0  0
  150.5490  139.9669  159.1198 H   0  0  0  0  0  0  0  0  0  0  0  0
  152.2773  139.9007  158.7927 H   0  0  0  0  0  0  0  0  0  0  0  0
  151.3897  144.1542  157.0121 H   0  0  0  0  0  0  0  0  0  0  0  0
  152.1044  145.5809  159.2218 H   0  0  0  0  0  0  0  0  0  0  0  0
  152.3764  143.6249  161.1656 H   0  0  0  0  0  0  0  0  0  0  0  0
  148.8673  137.9438  152.7212 H   0  0  0  0  0  0  0  0  0  0  0  0
  149.7386  139.4401  152.9850 H   0  0  0  0  0  0  0  0  0  0  0  0
  1  2  1  0  0  0  0
  1 16  1  0  0  0  0
  1 17  1  0  0  0  0
  1 18  1  0  0  0  0
  2  3  1  0  0  0  0
  2 13  1  0  0  0  0
  2 19  1  0  0  0  0
  3  4  1  0  0  0  0
  3 20  1  0  0  0  0
  4  5  1  0  0  0  0
  4  6  1  0  0  0  0
  4 21  1  0  0  0  0
  5 22  1  0  0  0  0
  5 23  1  0  0  0  0
  5 24  1  0  0  0  0
  6  7  1  0  0  0  0
  6  8  1  0  0  0  0
  6 25  1  0  0  0  0
  7 26  1  0  0  0  0
  7 27  1  0  0  0  0
  7 28  1  0  0  0  0
  8 12  1  0  0  0  0
  8  9  1  0  0  0  0
  9 10  2  0  0  0  0
  9 29  1  0  0  0  0
 10 11  1  0  0  0  0
 10 30  1  0  0  0  0
 11 12  2  0  0  0  0
 11 31  1  0  0  0  0
 13 14  1  0  0  0  0
 13 15  2  0  0  0  0
 14 32  1  0  0  0  0
 14 33  1  0  0  0  0
M  END
> <s_m_source_file>
AV-unprocessed.smi

> <i_m_source_file_index>
3116

> <i_lp_mmshare_version>
43012

> <i_f3d_flags>
0

> <s_epik_input>
W05IMl1DKD1PKVtDQEhdKFtDSDNdKVtOSF1bQ0BIXShbQ0gzXSlbQ0BIXShbQ0gzXSluMVtjSF1bY0hdW2NIXW4x

> <s_epik_cmdline>
J2VwaWtfcHl0aG9uJywgJy1waCcsICc3LjAnLCAnLXRuJywgJzgnLCAnLW1hJywgJzIwMCcsICctbWV0YWxfYmluZGluZycsICctaW1hZScsICc8aW5maWxlLm1hZT4nLCAnLW9tYWUnLCAnPG91dGZpbGUubWFlPic=

> <r_lp_tautomer_probability>
1

> <r_epik_Ionization_Penalty>
0.865977

> <r_epik_Ionization_Penalty_Charging>
0

> <r_epik_Ionization_Penalty_Neutral>
0.865977

> <r_epik_State_Penalty>
0.901888

> <r_epik_Charging_Adjusted_Penalty>
0.901888

> <i_epik_Tot_Q>
0

> <i_epik_Tot_abs_Q>
0

> <r_epik_Metal_State_Penalty>
0.901181

> <b_epik_Metal_Only>
0

> <s_lp_Force_Field>
OPLS_2005

> <r_lp_Energy>
10.1697

> <b_lp_Chiralities_Consistent>
1

> <s_lp_Variant>
AV-unprocessed.smi:3116-11

> <Gold.Version>
5.8.1

> <Gold.Id.Protein>
6NUR|6NUR_protein|mol2

> <Gold.PLP.Fitness>
37.8449

> <Gold.PLP.PLP>
-30.7852

> <Gold.PLP.part.hbond>
-1.8471

> <Gold.PLP.part.metal>
0.0000

> <Gold.PLP.part.buried>
-5.2688

> <Gold.PLP.part.nonpolar>
-24.5232

> <Gold.PLP.part.repulsive>
0.1680

> <Gold.PLP.ligand.clash>
0.0000

> <Gold.PLP.ligand.torsion>
0.2898

> <Gold.PLP.Chemscore.Hbond>
1.4800

> <Gold.PLP.Chemscore.CHOScore>
1.0000

> <Gold.PLP.Chemscore.Metal>
0.0000

> <Gold.Chemscore.Hbonds>
donor molecule, donor type, donor heavy atom, donor atom, acceptor molecule, acceptor atom, score
      L1  H    14    32       P1  7948  1.00
      L1  H    14    33       P1  7957  0.26
      L1  C     9    29       P1  8028  0.14

> <Gold.PLP.Chemscore.Internal.Correction>
0.1993

> <Gold.Rescore>
     Score         DG    S(hbond)    S(metal)    S(lipo)     H(rot)  DE(clash)    DE(int)     intcor
     13.48     -13.89       1.85        0.00      71.18       2.38       0.04       0.38       ----

> <Gold.Chemscore.Fitness>
13.4800

> <Gold.Chemscore.DG>
-13.8938

> <Gold.Chemscore.ZeroCoef>
-5.4800

> <Gold.Chemscore.Hbond>
1.8525

> <Gold.Chemscore.Metal>
0.0000

> <Gold.Chemscore.Lipo>
71.1835

> <Gold.Chemscore.Internal_Hbond>
0.0000

> <Gold.Chemscore.DEClash>
0.0376

> <Gold.Chemscore.DEInternal>
0.3761

> <Gold.Chemscore.Rot>
2.3836

> <Gold.Chemscore.Internal.Correction>
   9.000000E+99

> <Gold.Chemscore.Hbonds>
donor molecule, donor type, donor heavy atom, donor atom, acceptor molecule, acceptor atom, score
      L1  H    14    32       P1  7948  1.00
      L1  H    14    33       P1  7957  0.26

> <Gold.Chemscore.Hbond.Weighted>
-6.1873

> <Gold.Chemscore.Metal.Weighted>
-0.0000

> <Gold.Chemscore.Lipo.Weighted>
-8.3285

> <Gold.Chemscore.Internal_Hbond.Weighted>
0.0000

> <Gold.Chemscore.DEClash.Weighted>
0.0376

> <Gold.Chemscore.DEInternal.Weighted>
0.3761

> <Gold.Chemscore.Rot.Weighted>
6.1020

> <Gold.Chemscore.Internal.Correction.Weighted>
   9.000000E+99

> <Gold.Protein.RotatedTorsions>
[ 6907 6896 6895 6894 ] final   17.48 input  -60.11 | X-H torsion
[ 7974 7965 7964 7962 ] final  101.74 input  175.53 | X-H torsion
[ 8008 7997 7996 7995 ] final  -17.27 input   59.86 | X-H torsion
[ 10167 10162 10161 10158 ] final   59.91 input  -65.29 | X-H torsion
[ 10718 10713 10712 10709 ] final   43.58 input   66.30 | X-H torsion
[ 10763 10752 10751 10750 ] final  -22.95 input  -60.55 | X-H torsion
[ 11005 11000 10999 10996 ] final  -87.52 input  -57.11 | X-H torsion

> <Gold.Protein.ActiveResidues>
 VAL166  LYS551  ARG553  GLY616  TRP617  ASP618  TYR619  PRO620  LYS621  CYS622 
 ASP623  PHE694  ASN695  SER759  ASP760  ASP761  ALA762  ILE779  LEU786  VAL792 
 PHE793  MET794  SER795  GLU796  ALA797  LYS798  CYS799  TRP800  GLU811  SER814 

> <Gold.Protein.RotatedAtoms>
  151.8503  135.0560  160.0457 H   0  0  0  0  0  0  0  0  0  0  0  0  # atno 6907 bound_to 6896
  152.2742  133.5405  159.5466 H   0  0  0  0  0  0  0  0  0  0  0  0  # atno 6908 bound_to 6896
  150.7163  134.0572  159.3861 H   0  0  0  0  0  0  0  0  0  0  0  0  # atno 6909 bound_to 6896
  145.3683  139.2403  143.3469 H   0  0  0  0  0  0  0  0  0  0  0  0  # atno 7974 bound_to 7965
  154.4991  140.2147  155.9384 H   0  0  0  0  0  0  0  0  0  0  0  0  # atno 8008 bound_to 7997
  156.1410  140.3179  155.8463 H   0  0  0  0  0  0  0  0  0  0  0  0  # atno 8009 bound_to 7997
  155.4120  140.0491  157.3022 H   0  0  0  0  0  0  0  0  0  0  0  0  # atno 8010 bound_to 7997
  140.1713  144.4274  150.6660 H   0  0  0  0  0  0  0  0  0  0  0  0  # atno 10167 bound_to 10162
  157.4175  130.7950  149.7485 H   0  0  0  0  0  0  0  0  0  0  0  0  # atno 10718 bound_to 10713
  153.6600  135.6977  153.5180 H   0  0  0  0  0  0  0  0  0  0  0  0  # atno 10763 bound_to 10752
  153.2639  135.4236  155.0920 H   0  0  0  0  0  0  0  0  0  0  0  0  # atno 10764 bound_to 10752
  154.8454  135.3561  154.6145 H   0  0  0  0  0  0  0  0  0  0  0  0  # atno 10765 bound_to 10752
  141.1615  133.7516  156.9318 H   0  0  0  0  0  0  0  0  0  0  0  0  # atno 11005 bound_to 11000
  146.2896  140.4330  142.8744 LP  0  0  0  0  0  0  0  0  0  0  0  0  # atno 17320 bound_to 7965
  144.8595  140.7119  143.6116 LP  0  0  0  0  0  0  0  0  0  0  0  0  # atno 17321 bound_to 7965
  140.6580  143.2243  151.5923 LP  0  0  0  0  0  0  0  0  0  0  0  0  # atno 17342 bound_to 10162
  139.5337  144.2843  152.1204 LP  0  0  0  0  0  0  0  0  0  0  0  0  # atno 17343 bound_to 10162
  155.9870  130.3970  150.3187 LP  0  0  0  0  0  0  0  0  0  0  0  0  # atno 17370 bound_to 10713
  157.1331  131.0277  151.2960 LP  0  0  0  0  0  0  0  0  0  0  0  0  # atno 17371 bound_to 10713
  140.1381  134.9312  157.2429 LP  0  0  0  0  0  0  0  0  0  0  0  0  # atno 17394 bound_to 11000
  140.2870  134.3284  155.7326 LP  0  0  0  0  0  0  0  0  0  0  0  0  # atno 17395 bound_to 11000

$$$$
