AV-unprocessed.smi:21|AV-procd|sdf|135|dock1
  -GOLD-   2262015333D 1   1.00000     0.00000
 Structure written by MMmdl.
 62 65  0  0  0  0  0  0  0  0  2 V2000
  141.1971  135.6445  153.4809 C   0  0  0  0  0  0  0  0  0  0  0  0
  141.9794  136.0524  154.5923 O   0  0  0  0  0  0  0  0  0  0  0  0
  141.4910  137.2228  155.2336 C   0  0  1  0  0  0  0  0  0  0  0  0
  142.6024  137.8014  156.1105 C   0  0  0  0  0  0  0  0  0  0  0  0
  143.2502  138.8703  155.2309 C   0  0  2  0  0  0  0  0  0  0  0  0
  144.1187  139.9022  155.9890 C   0  0  0  0  0  0  0  0  0  0  0  0
  145.5237  139.5089  156.0721 N   0  0  0  0  0  0  0  0  0  0  0  0
  145.9396  138.2970  155.3664 C   0  0  0  0  0  0  0  0  0  0  0  0
  146.4803  140.3567  156.5591 C   0  0  0  0  0  0  0  0  0  0  0  0
  146.0655  141.4441  157.2649 N   0  0  0  0  0  0  0  0  0  0  0  0
  146.9402  142.3138  157.7747 C   0  0  0  0  0  0  0  0  0  0  0  0
  148.2695  142.2943  157.7010 N   0  0  0  0  0  0  0  0  0  0  0  0
  148.7073  141.2163  156.9927 C   0  0  0  0  0  0  0  0  0  0  0  0
  147.8953  140.2078  156.3916 C   0  0  0  0  0  0  0  0  0  0  0  0
  148.7208  139.2806  155.7591 N   0  0  0  0  0  0  0  0  0  0  0  0
  149.9326  139.7129  155.9700 C   0  0  0  0  0  0  0  0  0  0  0  0
  150.0159  140.8733  156.6998 N   0  0  0  0  0  0  0  0  0  0  0  0
  151.2342  141.5702  157.0751 C   0  0  0  0  0  0  0  0  0  0  0  0
  151.4627  141.6131  158.6066 C   0  0  1  0  0  0  0  0  0  0  0  0
  152.1726  140.3440  159.1388 C   0  0  0  0  0  0  0  0  0  0  0  0
  153.4463  140.1793  158.5504 O   0  0  0  0  0  0  0  0  0  0  0  0
  152.1831  142.9143  159.0431 C   0  0  1  0  0  0  0  0  0  0  0  0
  151.6337  144.1873  158.4233 C   0  0  0  0  0  0  0  0  0  0  0  0
  152.1839  145.2596  159.3561 C   0  0  0  0  0  0  0  0  0  0  0  0
  152.2102  144.6622  160.6468 O   0  0  0  0  0  0  0  0  0  0  0  0
  152.0528  143.2507  160.5333 C   0  0  0  0  0  0  0  0  0  0  0  0
  142.1236  139.4464  154.4564 N   0  3  2  0  0  0  0  0  0  0  0  0
  141.4513  140.6177  155.0705 C   0  0  0  0  0  0  0  0  0  0  0  0
  141.1874  138.3265  154.1991 C   0  0  0  0  0  0  0  0  0  0  0  0
  140.6206  136.9889  155.8493 H   0  0  0  0  0  0  0  0  0  0  0  0
  143.8730  138.3559  154.4976 H   0  0  0  0  0  0  0  0  0  0  0  0
  141.6381  134.7544  153.0324 H   0  0  0  0  0  0  0  0  0  0  0  0
  141.1499  136.4180  152.7140 H   0  0  0  0  0  0  0  0  0  0  0  0
  140.1806  135.3951  153.7874 H   0  0  0  0  0  0  0  0  0  0  0  0
  142.1659  138.2654  156.9959 H   0  0  0  0  0  0  0  0  0  0  0  0
  143.3099  137.0441  156.4501 H   0  0  0  0  0  0  0  0  0  0  0  0
  144.0401  140.8922  155.5433 H   0  0  0  0  0  0  0  0  0  0  0  0
  143.7374  140.0266  157.0029 H   0  0  0  0  0  0  0  0  0  0  0  0
  146.4973  137.6367  156.0314 H   0  0  0  0  0  0  0  0  0  0  0  0
  146.5707  138.5433  154.5117 H   0  0  0  0  0  0  0  0  0  0  0  0
  145.0809  137.7387  154.9931 H   0  0  0  0  0  0  0  0  0  0  0  0
  146.5135  143.1434  158.3191 H   0  0  0  0  0  0  0  0  0  0  0  0
  150.8048  139.1977  155.5940 H   0  0  0  0  0  0  0  0  0  0  0  0
  152.0799  141.0937  156.5780 H   0  0  0  0  0  0  0  0  0  0  0  0
  151.1701  142.5794  156.6684 H   0  0  0  0  0  0  0  0  0  0  0  0
  150.4750  141.6258  159.0700 H   0  0  0  0  0  0  0  0  0  0  0  0
  152.2934  140.3912  160.2208 H   0  0  0  0  0  0  0  0  0  0  0  0
  151.5789  139.4508  158.9441 H   0  0  0  0  0  0  0  0  0  0  0  0
  154.1023  140.2539  159.2266 H   0  0  0  0  0  0  0  0  0  0  0  0
  153.2437  142.8461  158.7950 H   0  0  0  0  0  0  0  0  0  0  0  0
  151.9489  144.3357  157.3901 H   0  0  0  0  0  0  0  0  0  0  0  0
  150.5431  144.1889  158.4533 H   0  0  0  0  0  0  0  0  0  0  0  0
  153.2041  145.5224  159.0733 H   0  0  0  0  0  0  0  0  0  0  0  0
  151.5841  146.1700  159.3481 H   0  0  0  0  0  0  0  0  0  0  0  0
  151.0609  142.9899  160.9049 H   0  0  0  0  0  0  0  0  0  0  0  0
  152.7887  142.7258  161.1428 H   0  0  0  0  0  0  0  0  0  0  0  0
  141.0704  140.3808  156.0646 H   0  0  0  0  0  0  0  0  0  0  0  0
  140.6114  140.9394  154.4537 H   0  0  0  0  0  0  0  0  0  0  0  0
  142.1275  141.4686  155.1505 H   0  0  0  0  0  0  0  0  0  0  0  0
  141.3681  137.9655  153.1861 H   0  0  0  0  0  0  0  0  0  0  0  0
  140.1432  138.6401  154.2419 H   0  0  0  0  0  0  0  0  0  0  0  0
  142.4882  139.7624  153.5687 H   0  0  0  0  0  0  0  0  0  0  0  0
  1  2  1  0  0  0  0
  1 32  1  0  0  0  0
  1 33  1  0  0  0  0
  1 34  1  0  0  0  0
  2  3  1  0  0  0  0
  3 30  1  0  0  0  0
  3 29  1  0  0  0  0
  3  4  1  0  0  0  0
  4  5  1  0  0  0  0
  4 35  1  0  0  0  0
  4 36  1  0  0  0  0
  5 31  1  0  0  0  0
  5  6  1  0  0  0  0
  5 27  1  0  0  0  0
  6  7  1  0  0  0  0
  6 37  1  0  0  0  0
  6 38  1  0  0  0  0
  7  8  1  0  0  0  0
  7  9  1  0  0  0  0
  8 39  1  0  0  0  0
  8 40  1  0  0  0  0
  8 41  1  0  0  0  0
  9 14  1  0  0  0  0
  9 10  2  0  0  0  0
 10 11  1  0  0  0  0
 11 12  2  0  0  0  0
 11 42  1  0  0  0  0
 12 13  1  0  0  0  0
 13 17  1  0  0  0  0
 13 14  2  0  0  0  0
 14 15  1  0  0  0  0
 15 16  2  0  0  0  0
 16 17  1  0  0  0  0
 16 43  1  0  0  0  0
 17 18  1  0  0  0  0
 18 19  1  0  0  0  0
 18 44  1  0  0  0  0
 18 45  1  0  0  0  0
 19 20  1  0  0  0  0
 19 22  1  0  0  0  0
 19 46  1  0  0  0  0
 20 21  1  0  0  0  0
 20 47  1  0  0  0  0
 20 48  1  0  0  0  0
 21 49  1  0  0  0  0
 22 26  1  0  0  0  0
 22 23  1  0  0  0  0
 22 50  1  0  0  0  0
 23 24  1  0  0  0  0
 23 51  1  0  0  0  0
 23 52  1  0  0  0  0
 24 25  1  0  0  0  0
 24 53  1  0  0  0  0
 24 54  1  0  0  0  0
 25 26  1  0  0  0  0
 26 55  1  0  0  0  0
 26 56  1  0  0  0  0
 27 28  1  0  0  0  0
 27 29  1  0  0  0  0
 27 62  1  0  0  0  0
 28 57  1  0  0  0  0
 28 58  1  0  0  0  0
 28 59  1  0  0  0  0
 29 60  1  0  0  0  0
 29 61  1  0  0  0  0
M  CHG  1  27   1
M  END
> <s_m_source_file>
AV-unprocessed.smi

> <i_m_source_file_index>
21

> <i_lp_mmshare_version>
43012

> <i_f3d_flags>
0

> <s_epik_input>
W0NIM11PW0NASF0xW0NIMl1bQ0BIXShOKFtDSDNdKVtDSDJdMSlbQ0gyXU4oW0NIM10pYyhuW2NIXW4yKWMoYzIzKW5bY0hdbjNbQ0gyXVtDQEhdKFtDSDJdW09IXSlbQ0BASF00W0NIMl1bQ0gyXU9bQ0gyXTQ=

> <s_epik_cmdline>
J2VwaWtfcHl0aG9uJywgJy1waCcsICc3LjAnLCAnLXRuJywgJzgnLCAnLW1hJywgJzIwMCcsICctbWV0YWxfYmluZGluZycsICctaW1hZScsICc8aW5maWxlLm1hZT4nLCAnLW9tYWUnLCAnPG91dGZpbGUubWFlPic=

> <r_lp_tautomer_probability>
1

> <r_epik_Ionization_Penalty>
0.0157465

> <r_epik_Ionization_Penalty_Charging>
0.015354

> <r_epik_Ionization_Penalty_Neutral>
0.000392529

> <r_epik_State_Penalty>
0.0120612

> <r_epik_Charging_Adjusted_Penalty>
0.0274152

> <i_epik_Tot_Q>
1

> <i_epik_Tot_abs_Q>
1

> <r_epik_Metal_State_Penalty>
0.0121253

> <b_epik_Metal_Only>
0

> <s_lp_Force_Field>
OPLS_2005

> <r_lp_Energy>
62.2742

> <b_lp_Chiralities_Consistent>
1

> <s_lp_Variant>
AV-unprocessed.smi:21-15

> <Gold.Version>
5.8.1

> <Gold.Id.Protein>
6NUR|6NUR_protein|mol2

> <Gold.PLP.Fitness>
43.2807

> <Gold.PLP.PLP>
-36.1043

> <Gold.PLP.part.hbond>
-2.2668

> <Gold.PLP.part.metal>
0.0000

> <Gold.PLP.part.buried>
-4.4150

> <Gold.PLP.part.nonpolar>
-27.7109

> <Gold.PLP.part.repulsive>
0.3749

> <Gold.PLP.ligand.clash>
0.0000

> <Gold.PLP.ligand.torsion>
1.1799

> <Gold.PLP.Chemscore.Hbond>
2.9120

> <Gold.PLP.Chemscore.CHOScore>
0.0000

> <Gold.PLP.Chemscore.Metal>
0.0000

> <Gold.Chemscore.Hbonds>
donor molecule, donor type, donor heavy atom, donor atom, acceptor molecule, acceptor atom, score
      L1  H    27    62       P1 10175  2.00
      P1  H  7997  8009       L1    21  0.88

> <Gold.PLP.Chemscore.Internal.Correction>
0.8002

> <Gold.Rescore>
     Score         DG    S(hbond)    S(metal)    S(lipo)     H(rot)  DE(clash)    DE(int)     intcor
     10.98     -13.14       1.60        0.00      87.22       3.08       0.10       2.06       ----

> <Gold.Chemscore.Fitness>
10.9769

> <Gold.Chemscore.DG>
-13.1439

> <Gold.Chemscore.ZeroCoef>
-5.4800

> <Gold.Chemscore.Hbond>
1.5967

> <Gold.Chemscore.Metal>
0.0000

> <Gold.Chemscore.Lipo>
87.2221

> <Gold.Chemscore.Internal_Hbond>
0.0000

> <Gold.Chemscore.DEClash>
0.1026

> <Gold.Chemscore.DEInternal>
2.0644

> <Gold.Chemscore.Rot>
3.0758

> <Gold.Chemscore.Internal.Correction>
   9.000000E+99

> <Gold.Chemscore.Hbonds>
donor molecule, donor type, donor heavy atom, donor atom, acceptor molecule, acceptor atom, score
      L1  H    27    62       P1 10175  0.98
      P1  H  7997  8009       L1    21  0.19

> <Gold.Chemscore.Hbond.Weighted>
-5.3330

> <Gold.Chemscore.Metal.Weighted>
-0.0000

> <Gold.Chemscore.Lipo.Weighted>
-10.2050

> <Gold.Chemscore.Internal_Hbond.Weighted>
0.0000

> <Gold.Chemscore.DEClash.Weighted>
0.1026

> <Gold.Chemscore.DEInternal.Weighted>
2.0644

> <Gold.Chemscore.Rot.Weighted>
7.8741

> <Gold.Chemscore.Internal.Correction.Weighted>
   9.000000E+99

> <Gold.Protein.RotatedTorsions>
[ 6907 6896 6895 6894 ] final   60.26 input  -60.11 | X-H torsion
[ 7974 7965 7964 7962 ] final  178.55 input  175.53 | X-H torsion
[ 8008 7997 7996 7995 ] final  155.25 input   59.86 | X-H torsion
[ 10167 10162 10161 10158 ] final    7.01 input  -65.29 | X-H torsion
[ 10718 10713 10712 10709 ] final -163.14 input   66.30 | X-H torsion
[ 10763 10752 10751 10750 ] final -179.50 input  -60.55 | X-H torsion
[ 11005 11000 10999 10996 ] final  148.63 input  -57.11 | X-H torsion

> <Gold.Protein.ActiveResidues>
 VAL166  LYS551  ARG553  GLY616  TRP617  ASP618  TYR619  PRO620  LYS621  CYS622 
 ASP623  PHE694  ASN695  SER759  ASP760  ASP761  ALA762  ILE779  LEU786  VAL792 
 PHE793  MET794  SER795  GLU796  ALA797  LYS798  CYS799  TRP800  GLU811  SER814 

> <Gold.Protein.RotatedAtoms>
  152.3987  134.6322  160.0078 H   0  0  0  0  0  0  0  0  0  0  0  0  # atno 6907 bound_to 6896
  151.6533  133.3314  159.3165 H   0  0  0  0  0  0  0  0  0  0  0  0  # atno 6908 bound_to 6896
  150.7891  134.6943  159.6559 H   0  0  0  0  0  0  0  0  0  0  0  0  # atno 6909 bound_to 6896
  144.7155  140.0414  143.6437 H   0  0  0  0  0  0  0  0  0  0  0  0  # atno 7974 bound_to 7965
  156.2488  140.1944  156.6772 H   0  0  0  0  0  0  0  0  0  0  0  0  # atno 8008 bound_to 7997
  154.6349  140.0591  156.9802 H   0  0  0  0  0  0  0  0  0  0  0  0  # atno 8009 bound_to 7997
  155.1653  140.3263  155.4406 H   0  0  0  0  0  0  0  0  0  0  0  0  # atno 8010 bound_to 7997
  140.6396  143.7806  150.7408 H   0  0  0  0  0  0  0  0  0  0  0  0  # atno 10167 bound_to 10162
  156.6205  130.8888  151.2956 H   0  0  0  0  0  0  0  0  0  0  0  0  # atno 10718 bound_to 10713
  154.5343  135.2802  155.1152 H   0  0  0  0  0  0  0  0  0  0  0  0  # atno 10763 bound_to 10752
  154.2660  135.6313  153.5296 H   0  0  0  0  0  0  0  0  0  0  0  0  # atno 10764 bound_to 10752
  152.9964  135.5617  154.5865 H   0  0  0  0  0  0  0  0  0  0  0  0  # atno 10765 bound_to 10752
  140.0976  134.9003  157.1747 H   0  0  0  0  0  0  0  0  0  0  0  0  # atno 11005 bound_to 11000
  146.0021  139.3099  143.0921 LP  0  0  0  0  0  0  0  0  0  0  0  0  # atno 17320 bound_to 7965
  145.8781  140.9379  143.0615 LP  0  0  0  0  0  0  0  0  0  0  0  0  # atno 17321 bound_to 7965
  140.1435  143.4420  152.2178 LP  0  0  0  0  0  0  0  0  0  0  0  0  # atno 17342 bound_to 10162
  139.5605  144.7402  151.4169 LP  0  0  0  0  0  0  0  0  0  0  0  0  # atno 17343 bound_to 10162
  157.7229  130.9582  150.1512 LP  0  0  0  0  0  0  0  0  0  0  0  0  # atno 17370 bound_to 10713
  156.2316  130.3682  149.8439 LP  0  0  0  0  0  0  0  0  0  0  0  0  # atno 17371 bound_to 10713
  140.3264  134.2858  155.7236 LP  0  0  0  0  0  0  0  0  0  0  0  0  # atno 17394 bound_to 11000
  141.2096  133.7743  156.9983 LP  0  0  0  0  0  0  0  0  0  0  0  0  # atno 17395 bound_to 11000

$$$$
