AV-unprocessed.smi:232|AV-procd|sdf|1772|dock2
  -GOLD-   2262020313D 1   1.00000     0.00000
 Structure written by MMmdl.
 52 55  0  0  0  0  0  0  0  0  1 V2000
  151.4805  144.9761  159.1476 C   0  0  0  0  0  0  0  0  0  0  0  0
  150.8223  143.5920  159.0892 C   0  0  0  0  0  0  0  0  0  0  0  0
  151.7964  142.4739  158.6605 C   0  0  1  0  0  0  0  0  0  0  0  0
  152.9905  142.2935  159.6110 C   0  0  0  0  0  0  0  0  0  0  0  0
  153.2946  140.7908  159.5862 C   0  0  0  0  0  0  0  0  0  0  0  0
  152.2857  140.2111  158.5898 C   0  0  1  0  0  0  0  0  0  0  0  0
  151.8568  138.7718  158.9175 C   0  0  0  0  0  0  0  0  0  0  0  0
  151.1744  141.1556  158.6011 N   0  0  0  0  0  0  0  0  0  0  0  0
  150.2468  141.0073  157.6256 C   0  0  0  0  0  0  0  0  0  0  0  0
  150.4964  141.4406  156.3612 N   0  0  0  0  0  0  0  0  0  0  0  0
  149.5656  141.3013  155.4119 C   0  0  0  0  0  0  0  0  0  0  0  0
  148.3432  140.7727  155.5110 N   0  0  0  0  0  0  0  0  0  0  0  0
  148.0925  140.3405  156.7805 C   0  0  0  0  0  0  0  0  0  0  0  0
  148.9826  140.4180  157.8872 C   0  0  0  0  0  0  0  0  0  0  0  0
  148.3858  139.8811  159.0206 N   0  0  0  0  0  0  0  0  0  0  0  0
  147.2043  139.5099  158.6083 C   0  0  0  0  0  0  0  0  0  0  0  0
  146.9439  139.7506  157.2782 N   0  0  0  0  0  0  0  0  0  0  0  0
  145.7131  139.4487  156.5692 C   0  0  0  0  0  0  0  0  0  0  0  0
  145.9198  138.3963  155.4617 C   0  0  1  0  0  0  0  0  0  0  0  0
  146.6826  137.3212  155.9765 O   0  0  0  0  0  0  0  0  0  0  0  0
  144.5878  137.8492  154.9152 C   0  0  2  0  0  0  0  0  0  0  0  0
  144.7434  136.7619  153.8485 C   0  0  0  0  0  0  0  0  0  0  0  0
  143.4516  136.8977  153.0769 C   0  0  0  0  0  0  0  0  0  0  0  0
  143.2679  138.4108  153.0585 C   0  0  0  0  0  0  0  0  0  0  0  0
  143.8519  138.8872  154.2680 O   0  0  0  0  0  0  0  0  0  0  0  0
  150.7520  145.7393  159.4212 H   0  0  0  0  0  0  0  0  0  0  0  0
  151.9026  145.2518  158.1808 H   0  0  0  0  0  0  0  0  0  0  0  0
  152.2822  145.0073  159.8857 H   0  0  0  0  0  0  0  0  0  0  0  0
  150.3878  143.3517  160.0605 H   0  0  0  0  0  0  0  0  0  0  0  0
  149.9882  143.6456  158.3889 H   0  0  0  0  0  0  0  0  0  0  0  0
  152.1816  142.7074  157.6658 H   0  0  0  0  0  0  0  0  0  0  0  0
  153.8445  142.8930  159.2943 H   0  0  0  0  0  0  0  0  0  0  0  0
  152.7336  142.5950  160.6274 H   0  0  0  0  0  0  0  0  0  0  0  0
  154.3221  140.5777  159.2900 H   0  0  0  0  0  0  0  0  0  0  0  0
  153.1428  140.3721  160.5820 H   0  0  0  0  0  0  0  0  0  0  0  0
  152.7501  140.2221  157.6023 H   0  0  0  0  0  0  0  0  0  0  0  0
  152.7203  138.1070  158.9501 H   0  0  0  0  0  0  0  0  0  0  0  0
  151.1703  138.3810  158.1657 H   0  0  0  0  0  0  0  0  0  0  0  0
  151.3568  138.7179  159.8853 H   0  0  0  0  0  0  0  0  0  0  0  0
  149.8392  141.6664  154.4331 H   0  0  0  0  0  0  0  0  0  0  0  0
  146.4822  139.0513  159.2684 H   0  0  0  0  0  0  0  0  0  0  0  0
  144.9661  139.1100  157.2884 H   0  0  0  0  0  0  0  0  0  0  0  0
  145.3338  140.3778  156.1424 H   0  0  0  0  0  0  0  0  0  0  0  0
  146.4843  138.8440  154.6425 H   0  0  0  0  0  0  0  0  0  0  0  0
  147.5969  137.5583  155.9421 H   0  0  0  0  0  0  0  0  0  0  0  0
  143.9712  137.4657  155.7301 H   0  0  0  0  0  0  0  0  0  0  0  0
  145.5899  136.9792  153.1953 H   0  0  0  0  0  0  0  0  0  0  0  0
  144.8859  135.7671  154.2719 H   0  0  0  0  0  0  0  0  0  0  0  0
  143.4968  136.4599  152.0794 H   0  0  0  0  0  0  0  0  0  0  0  0
  142.6356  136.4242  153.6249 H   0  0  0  0  0  0  0  0  0  0  0  0
  143.8082  138.8490  152.2183 H   0  0  0  0  0  0  0  0  0  0  0  0
  142.2207  138.7029  152.9772 H   0  0  0  0  0  0  0  0  0  0  0  0
  1  2  1  0  0  0  0
  1 26  1  0  0  0  0
  1 27  1  0  0  0  0
  1 28  1  0  0  0  0
  2  3  1  0  0  0  0
  2 29  1  0  0  0  0
  2 30  1  0  0  0  0
  3  8  1  0  0  0  0
  3  4  1  0  0  0  0
  3 31  1  0  0  0  0
  4  5  1  0  0  0  0
  4 32  1  0  0  0  0
  4 33  1  0  0  0  0
  5  6  1  0  0  0  0
  5 34  1  0  0  0  0
  5 35  1  0  0  0  0
  6  7  1  0  0  0  0
  6  8  1  0  0  0  0
  6 36  1  0  0  0  0
  7 37  1  0  0  0  0
  7 38  1  0  0  0  0
  7 39  1  0  0  0  0
  8  9  1  0  0  0  0
  9 14  1  0  0  0  0
  9 10  2  0  0  0  0
 10 11  1  0  0  0  0
 11 12  2  0  0  0  0
 11 40  1  0  0  0  0
 12 13  1  0  0  0  0
 13 17  1  0  0  0  0
 13 14  2  0  0  0  0
 14 15  1  0  0  0  0
 15 16  2  0  0  0  0
 16 17  1  0  0  0  0
 16 41  1  0  0  0  0
 17 18  1  0  0  0  0
 18 19  1  0  0  0  0
 18 42  1  0  0  0  0
 18 43  1  0  0  0  0
 19 20  1  0  0  0  0
 19 21  1  0  0  0  0
 19 44  1  0  0  0  0
 20 45  1  0  0  0  0
 21 25  1  0  0  0  0
 21 22  1  0  0  0  0
 21 46  1  0  0  0  0
 22 23  1  0  0  0  0
 22 47  1  0  0  0  0
 22 48  1  0  0  0  0
 23 24  1  0  0  0  0
 23 49  1  0  0  0  0
 23 50  1  0  0  0  0
 24 25  1  0  0  0  0
 24 51  1  0  0  0  0
 24 52  1  0  0  0  0
M  END
> <s_m_source_file>
AV-unprocessed.smi

> <i_m_source_file_index>
232

> <i_lp_mmshare_version>
43012

> <i_f3d_flags>
0

> <s_epik_input>
W0NIM11bQ0gyXVtDQEBIXTFbQ0gyXVtDSDJdW0NAQEhdKFtDSDNdKU4xYyhuW2NIXW4yKWMoYzIzKW5bY0hdbjNbQ0gyXVtDQEhdKFtPSF0pW0NAQEhdNFtDSDJdW0NIMl1bQ0gyXU80

> <s_epik_cmdline>
J2VwaWtfcHl0aG9uJywgJy1waCcsICc3LjAnLCAnLXRuJywgJzgnLCAnLW1hJywgJzIwMCcsICctbWV0YWxfYmluZGluZycsICctaW1hZScsICc8aW5maWxlLm1hZT4nLCAnLW9tYWUnLCAnPG91dGZpbGUubWFlPic=

> <r_lp_tautomer_probability>
1

> <r_epik_Ionization_Penalty>
0.00258048

> <r_epik_Ionization_Penalty_Charging>
0

> <r_epik_Ionization_Penalty_Neutral>
0.00258048

> <r_epik_State_Penalty>
0.00168551

> <r_epik_Charging_Adjusted_Penalty>
0.00168551

> <i_epik_Tot_Q>
0

> <i_epik_Tot_abs_Q>
0

> <r_epik_Metal_State_Penalty>
-0

> <b_epik_Metal_Only>
0

> <s_lp_Force_Field>
OPLS_2005

> <r_lp_Energy>
51.197

> <b_lp_Chiralities_Consistent>
1

> <s_lp_Variant>
AV-unprocessed.smi:232-6

> <Gold.Version>
5.8.1

> <Gold.Id.Protein>
6NUR|6NUR_protein|mol2

> <Gold.PLP.Fitness>
43.2532

> <Gold.PLP.PLP>
-41.1852

> <Gold.PLP.part.hbond>
-3.0000

> <Gold.PLP.part.metal>
0.0000

> <Gold.PLP.part.buried>
-5.3147

> <Gold.PLP.part.nonpolar>
-32.6957

> <Gold.PLP.part.repulsive>
0.1517

> <Gold.PLP.ligand.clash>
0.0000

> <Gold.PLP.ligand.torsion>
0.5009

> <Gold.PLP.Chemscore.Hbond>
1.0000

> <Gold.PLP.Chemscore.CHOScore>
0.0000

> <Gold.PLP.Chemscore.Metal>
0.0000

> <Gold.PLP.Chemscore.Internal.Correction>
0.0698

> <Gold.Rescore>
     Score         DG    S(hbond)    S(metal)    S(lipo)     H(rot)  DE(clash)    DE(int)     intcor
     12.69     -13.21       0.80        0.00      96.39       2.43       0.00       0.52       ----

> <Gold.Chemscore.Fitness>
12.6939

> <Gold.Chemscore.DG>
-13.2135

> <Gold.Chemscore.ZeroCoef>
-5.4800

> <Gold.Chemscore.Hbond>
0.7985

> <Gold.Chemscore.Metal>
0.0000

> <Gold.Chemscore.Lipo>
96.3859

> <Gold.Chemscore.Internal_Hbond>
0.0000

> <Gold.Chemscore.DEClash>
0.0000

> <Gold.Chemscore.DEInternal>
0.5195

> <Gold.Chemscore.Rot>
2.4260

> <Gold.Chemscore.Internal.Correction>
   9.000000E+99

> <Gold.Chemscore.Hbond.Weighted>
-2.6670

> <Gold.Chemscore.Metal.Weighted>
-0.0000

> <Gold.Chemscore.Lipo.Weighted>
-11.2772

> <Gold.Chemscore.Internal_Hbond.Weighted>
0.0000

> <Gold.Chemscore.DEClash.Weighted>
0.0000

> <Gold.Chemscore.DEInternal.Weighted>
0.5195

> <Gold.Chemscore.Rot.Weighted>
6.2107

> <Gold.Chemscore.Internal.Correction.Weighted>
   9.000000E+99

> <Gold.Protein.RotatedTorsions>
[ 6907 6896 6895 6894 ] final  -48.99 input  -60.11 | X-H torsion
[ 7974 7965 7964 7962 ] final  -66.05 input  175.53 | X-H torsion
[ 8008 7997 7996 7995 ] final  171.29 input   59.86 | X-H torsion
[ 10167 10162 10161 10158 ] final  178.83 input  -65.29 | X-H torsion
[ 10718 10713 10712 10709 ] final -111.10 input   66.30 | X-H torsion
[ 10763 10752 10751 10750 ] final  -66.63 input  -60.55 | X-H torsion
[ 11005 11000 10999 10996 ] final  161.39 input  -57.11 | X-H torsion

> <Gold.Protein.ActiveResidues>
 VAL166  LYS551  ARG553  GLY616  TRP617  ASP618  TYR619  PRO620  LYS621  CYS622 
 ASP623  PHE694  ASN695  SER759  ASP760  ASP761  ALA762  ILE779  LEU786  VAL792 
 PHE793  MET794  SER795  GLU796  ALA797  LYS798  CYS799  TRP800  GLU811  SER814 

> <Gold.Protein.RotatedAtoms>
  150.8850  134.8247  159.7252 H   0  0  0  0  0  0  0  0  0  0  0  0  # atno 6907 bound_to 6896
  152.4802  134.4736  159.9653 H   0  0  0  0  0  0  0  0  0  0  0  0  # atno 6908 bound_to 6896
  151.4806  133.3508  159.2873 H   0  0  0  0  0  0  0  0  0  0  0  0  # atno 6909 bound_to 6896
  145.7467  140.8928  143.0501 H   0  0  0  0  0  0  0  0  0  0  0  0  # atno 7974 bound_to 7965
  156.1285  140.1516  156.9100 H   0  0  0  0  0  0  0  0  0  0  0  0  # atno 8008 bound_to 7997
  154.4891  140.0856  156.7593 H   0  0  0  0  0  0  0  0  0  0  0  0  # atno 8009 bound_to 7997
  155.4299  140.3426  155.4281 H   0  0  0  0  0  0  0  0  0  0  0  0  # atno 8010 bound_to 7997
  139.5310  144.2634  152.0688 H   0  0  0  0  0  0  0  0  0  0  0  0  # atno 10167 bound_to 10162
  156.0628  130.5849  150.8327 H   0  0  0  0  0  0  0  0  0  0  0  0  # atno 10718 bound_to 10713
  154.3626  135.6113  153.5698 H   0  0  0  0  0  0  0  0  0  0  0  0  # atno 10763 bound_to 10752
  152.9793  135.5819  154.4615 H   0  0  0  0  0  0  0  0  0  0  0  0  # atno 10764 bound_to 10752
  154.4356  135.2849  155.1860 H   0  0  0  0  0  0  0  0  0  0  0  0  # atno 10765 bound_to 10752
  140.2154  134.8236  157.3164 H   0  0  0  0  0  0  0  0  0  0  0  0  # atno 11005 bound_to 11000
  144.6858  139.9534  143.7478 LP  0  0  0  0  0  0  0  0  0  0  0  0  # atno 17320 bound_to 7965
  146.0396  139.3409  143.0705 LP  0  0  0  0  0  0  0  0  0  0  0  0  # atno 17321 bound_to 7965
  140.2097  144.4575  150.6391 LP  0  0  0  0  0  0  0  0  0  0  0  0  # atno 17342 bound_to 10162
  140.6488  143.2220  151.6125 LP  0  0  0  0  0  0  0  0  0  0  0  0  # atno 17343 bound_to 10162
  157.5648  131.0946  150.9505 LP  0  0  0  0  0  0  0  0  0  0  0  0  # atno 17370 bound_to 10713
  156.9735  130.5500  149.5292 LP  0  0  0  0  0  0  0  0  0  0  0  0  # atno 17371 bound_to 10713
  140.1906  134.4376  155.7718 LP  0  0  0  0  0  0  0  0  0  0  0  0  # atno 17394 bound_to 11000
  141.2225  133.7025  156.8021 LP  0  0  0  0  0  0  0  0  0  0  0  0  # atno 17395 bound_to 11000

$$$$
