AV-unprocessed.smi:3187|AV-procd|sdf|12181|dock9
  -GOLD-   2272018 23D 1   1.00000     0.00000
 Structure written by MMmdl.
 42 43  0  0  0  0  0  0  0  0  3 V2000
  151.5414  139.6703  158.2874 C   0  0  0  0  0  0  0  0  0  0  0  0
  151.9192  141.0017  158.9156 C   0  0  0  0  0  0  0  0  0  0  0  0
  152.6739  141.0239  160.0309 C   0  0  0  0  0  0  0  0  0  0  0  0
  153.1715  142.2848  160.6987 C   0  0  0  0  0  0  0  0  0  0  0  0
  153.1595  143.4639  159.7232 C   0  0  0  0  0  0  0  0  0  0  0  0
  151.8053  143.5847  159.0052 C   0  0  1  0  0  0  0  0  0  0  0  0
  151.8121  144.8380  158.1085 C   0  0  0  0  0  0  0  0  0  0  0  0
  151.4319  142.2894  158.2193 C   0  0  2  0  0  0  0  0  0  0  0  0
  149.9096  142.2698  157.9181 C   0  0  0  0  0  0  0  0  0  0  0  0
  149.6065  142.2651  156.4717 N   0  3  0  0  0  0  0  0  0  0  0  0
  148.5007  141.3641  156.0917 C   0  0  0  0  0  0  0  0  0  0  0  0
  148.6829  140.8364  154.6616 C   0  0  0  0  0  0  0  0  0  0  0  0
  149.5661  139.6682  154.6206 N   0  0  0  0  0  0  0  0  0  0  0  0
  150.6856  139.4455  155.3810 C   0  0  0  0  0  0  0  0  0  0  0  0
  151.1848  138.2282  154.9945 C   0  0  0  0  0  0  0  0  0  0  0  0
  150.3497  137.7594  154.0162 N   0  3  0  0  0  0  0  0  0  0  0  0
  149.3661  138.6363  153.7900 C   0  0  0  0  0  0  0  0  0  0  0  0
  151.7895  139.6644  157.2259 H   0  0  0  0  0  0  0  0  0  0  0  0
  150.4769  139.4706  158.4061 H   0  0  0  0  0  0  0  0  0  0  0  0
  152.0792  138.8451  158.7555 H   0  0  0  0  0  0  0  0  0  0  0  0
  152.9740  140.0970  160.4979 H   0  0  0  0  0  0  0  0  0  0  0  0
  152.5451  142.4917  161.5668 H   0  0  0  0  0  0  0  0  0  0  0  0
  154.1850  142.1206  161.0654 H   0  0  0  0  0  0  0  0  0  0  0  0
  153.3890  144.3823  160.2650 H   0  0  0  0  0  0  0  0  0  0  0  0
  153.9536  143.3352  158.9860 H   0  0  0  0  0  0  0  0  0  0  0  0
  151.0528  143.7378  159.7807 H   0  0  0  0  0  0  0  0  0  0  0  0
  152.5396  144.7426  157.3018 H   0  0  0  0  0  0  0  0  0  0  0  0
  152.0766  145.7262  158.6835 H   0  0  0  0  0  0  0  0  0  0  0  0
  150.8411  145.0339  157.6566 H   0  0  0  0  0  0  0  0  0  0  0  0
  151.9678  142.3247  157.2696 H   0  0  0  0  0  0  0  0  0  0  0  0
  149.4522  141.3998  158.3920 H   0  0  0  0  0  0  0  0  0  0  0  0
  149.4145  143.1422  158.3412 H   0  0  0  0  0  0  0  0  0  0  0  0
  149.3717  143.2067  156.1911 H   0  0  0  0  0  0  0  0  0  0  0  0
  148.4614  140.5306  156.7946 H   0  0  0  0  0  0  0  0  0  0  0  0
  147.5551  141.9020  156.1744 H   0  0  0  0  0  0  0  0  0  0  0  0
  147.7234  140.5432  154.2328 H   0  0  0  0  0  0  0  0  0  0  0  0
  149.1030  141.6070  154.0132 H   0  0  0  0  0  0  0  0  0  0  0  0
  151.0364  140.1496  156.1218 H   0  0  0  0  0  0  0  0  0  0  0  0
  152.0487  137.6746  155.3338 H   0  0  0  0  0  0  0  0  0  0  0  0
  148.5682  138.5287  153.0766 H   0  0  0  0  0  0  0  0  0  0  0  0
  150.4392  141.9795  155.9761 H   0  0  0  0  0  0  0  0  0  0  0  0
  150.4577  136.8757  153.5335 H   0  0  0  0  0  0  0  0  0  0  0  0
  1  2  1  0  0  0  0
  1 18  1  0  0  0  0
  1 19  1  0  0  0  0
  1 20  1  0  0  0  0
  2  8  1  0  0  0  0
  2  3  2  0  0  0  0
  3  4  1  0  0  0  0
  3 21  1  0  0  0  0
  4  5  1  0  0  0  0
  4 22  1  0  0  0  0
  4 23  1  0  0  0  0
  5  6  1  0  0  0  0
  5 24  1  0  0  0  0
  5 25  1  0  0  0  0
  6  7  1  0  0  0  0
  6  8  1  0  0  0  0
  6 26  1  0  0  0  0
  7 27  1  0  0  0  0
  7 28  1  0  0  0  0
  7 29  1  0  0  0  0
  8  9  1  0  0  0  0
  8 30  1  0  0  0  0
  9 10  1  0  0  0  0
  9 31  1  0  0  0  0
  9 32  1  0  0  0  0
 10 11  1  0  0  0  0
 10 33  1  0  0  0  0
 10 41  1  0  0  0  0
 11 12  1  0  0  0  0
 11 34  1  0  0  0  0
 11 35  1  0  0  0  0
 12 13  1  0  0  0  0
 12 36  1  0  0  0  0
 12 37  1  0  0  0  0
 13 17  1  0  0  0  0
 13 14  1  0  0  0  0
 14 15  2  0  0  0  0
 14 38  1  0  0  0  0
 15 16  1  0  0  0  0
 15 39  1  0  0  0  0
 16 17  2  0  0  0  0
 16 42  1  0  0  0  0
 17 40  1  0  0  0  0
M  CHG  1  10   1
M  CHG  1  16   1
M  END
> <s_m_source_file>
AV-unprocessed.smi

> <i_m_source_file_index>
3187

> <i_lp_mmshare_version>
43012

> <i_f3d_flags>
0

> <s_epik_input>
W0NIM11DMT1bQ0hdW0NIMl1bQ0gyXVtDQEBIXShbQ0gzXSlbQ0BIXTFbQ0gyXVtOSF1bQ0gyXVtDSDJdbjJbY0hdW2NIXW5bY0hdMg==

> <s_epik_cmdline>
J2VwaWtfcHl0aG9uJywgJy1waCcsICc3LjAnLCAnLXRuJywgJzgnLCAnLW1hJywgJzIwMCcsICctbWV0YWxfYmluZGluZycsICctaW1hZScsICc8aW5maWxlLm1hZT4nLCAnLW9tYWUnLCAnPG91dGZpbGUubWFlPic=

> <r_lp_tautomer_probability>
1

> <r_epik_Ionization_Penalty>
1.51066

> <r_epik_Ionization_Penalty_Charging>
0.0026721

> <r_epik_Ionization_Penalty_Neutral>
1.50798

> <r_epik_State_Penalty>
1.12593

> <r_epik_Charging_Adjusted_Penalty>
1.12861

> <i_epik_Tot_Q>
2

> <i_epik_Tot_abs_Q>
2

> <r_epik_Metal_State_Penalty>
5.12155

> <b_epik_Metal_Only>
0

> <s_lp_Force_Field>
OPLS_2005

> <r_lp_Energy>
24.2978

> <b_lp_Chiralities_Consistent>
1

> <s_lp_Variant>
AV-unprocessed.smi:3187-7

> <Gold.Version>
5.8.1

> <Gold.Id.Protein>
6NUR|6NUR_protein|mol2

> <Gold.PLP.Fitness>
51.7401

> <Gold.PLP.PLP>
-39.6390

> <Gold.PLP.part.hbond>
-2.8459

> <Gold.PLP.part.metal>
0.0000

> <Gold.PLP.part.buried>
0.5616

> <Gold.PLP.part.nonpolar>
-36.9568

> <Gold.PLP.part.repulsive>
0.1761

> <Gold.PLP.ligand.clash>
0.0000

> <Gold.PLP.ligand.torsion>
1.6688

> <Gold.PLP.Chemscore.Hbond>
3.9666

> <Gold.PLP.Chemscore.CHOScore>
1.1631

> <Gold.PLP.Chemscore.Metal>
0.0000

> <Gold.Chemscore.Hbonds>
donor molecule, donor type, donor heavy atom, donor atom, acceptor molecule, acceptor atom, score
      L1  H    10    33       P1  8028  2.00
      L1  H    16    42       P1  7949  0.16
      L1  C    17    40       P1  7948  0.43
      L1  C    17    40       P1  7957  0.26

> <Gold.PLP.Chemscore.Internal.Correction>
0.0494

> <Gold.Rescore>
     Score         DG    S(hbond)    S(metal)    S(lipo)     H(rot)  DE(clash)    DE(int)     intcor
     15.63     -18.67       1.44        0.00     114.69       1.97       0.44       2.60       ----

> <Gold.Chemscore.Fitness>
15.6302

> <Gold.Chemscore.DG>
-18.6697

> <Gold.Chemscore.ZeroCoef>
-5.4800

> <Gold.Chemscore.Hbond>
1.4439

> <Gold.Chemscore.Metal>
0.0000

> <Gold.Chemscore.Lipo>
114.6870

> <Gold.Chemscore.Internal_Hbond>
0.0000

> <Gold.Chemscore.DEClash>
0.4380

> <Gold.Chemscore.DEInternal>
2.6015

> <Gold.Chemscore.Rot>
1.9732

> <Gold.Chemscore.Internal.Correction>
   9.000000E+99

> <Gold.Chemscore.Hbonds>
donor molecule, donor type, donor heavy atom, donor atom, acceptor molecule, acceptor atom, score
      L1  H    10    33       P1  8028  1.00

> <Gold.Chemscore.Hbond.Weighted>
-4.8227

> <Gold.Chemscore.Metal.Weighted>
-0.0000

> <Gold.Chemscore.Lipo.Weighted>
-13.4184

> <Gold.Chemscore.Internal_Hbond.Weighted>
0.0000

> <Gold.Chemscore.DEClash.Weighted>
0.4380

> <Gold.Chemscore.DEInternal.Weighted>
2.6015

> <Gold.Chemscore.Rot.Weighted>
5.0514

> <Gold.Chemscore.Internal.Correction.Weighted>
   9.000000E+99

> <Gold.Protein.RotatedTorsions>
[ 6907 6896 6895 6894 ] final    4.56 input  -60.11 | X-H torsion
[ 7974 7965 7964 7962 ] final   93.42 input  175.53 | X-H torsion
[ 8008 7997 7996 7995 ] final  130.05 input   59.86 | X-H torsion
[ 10167 10162 10161 10158 ] final  109.20 input  -65.29 | X-H torsion
[ 10718 10713 10712 10709 ] final -138.30 input   66.30 | X-H torsion
[ 10763 10752 10751 10750 ] final  -95.91 input  -60.55 | X-H torsion
[ 11005 11000 10999 10996 ] final  -19.84 input  -57.11 | X-H torsion

> <Gold.Protein.ActiveResidues>
 VAL166  LYS551  ARG553  GLY616  TRP617  ASP618  TYR619  PRO620  LYS621  CYS622 
 ASP623  PHE694  ASN695  SER759  ASP760  ASP761  ALA762  ILE779  LEU786  VAL792 
 PHE793  MET794  SER795  GLU796  ALA797  LYS798  CYS799  TRP800  GLU811  SER814 

> <Gold.Protein.RotatedAtoms>
  151.6433  135.1010  160.0145 H   0  0  0  0  0  0  0  0  0  0  0  0  # atno 6907 bound_to 6896
  152.4042  133.6859  159.6350 H   0  0  0  0  0  0  0  0  0  0  0  0  # atno 6908 bound_to 6896
  150.7938  133.8656  159.3285 H   0  0  0  0  0  0  0  0  0  0  0  0  # atno 6909 bound_to 6896
  145.4792  139.2279  143.2892 H   0  0  0  0  0  0  0  0  0  0  0  0  # atno 7974 bound_to 7965
  156.2948  140.2605  156.2699 H   0  0  0  0  0  0  0  0  0  0  0  0  # atno 8008 bound_to 7997
  154.9705  140.0391  157.2250 H   0  0  0  0  0  0  0  0  0  0  0  0  # atno 8009 bound_to 7997
  154.7863  140.2804  155.6030 H   0  0  0  0  0  0  0  0  0  0  0  0  # atno 8010 bound_to 7997
  139.6785  144.7120  151.1558 H   0  0  0  0  0  0  0  0  0  0  0  0  # atno 10167 bound_to 10162
  156.2978  130.7411  151.1455 H   0  0  0  0  0  0  0  0  0  0  0  0  # atno 10718 bound_to 10713
  154.7191  135.5103  153.8784 H   0  0  0  0  0  0  0  0  0  0  0  0  # atno 10763 bound_to 10752
  153.0846  135.6641  153.9983 H   0  0  0  0  0  0  0  0  0  0  0  0  # atno 10764 bound_to 10752
  153.9809  135.3029  155.3399 H   0  0  0  0  0  0  0  0  0  0  0  0  # atno 10765 bound_to 10752
  140.8406  133.7929  155.9857 H   0  0  0  0  0  0  0  0  0  0  0  0  # atno 11005 bound_to 11000
  146.2351  140.5577  142.8958 LP  0  0  0  0  0  0  0  0  0  0  0  0  # atno 17320 bound_to 7965
  144.7899  140.6011  143.6548 LP  0  0  0  0  0  0  0  0  0  0  0  0  # atno 17321 bound_to 7965
  140.7644  143.5735  150.8970 LP  0  0  0  0  0  0  0  0  0  0  0  0  # atno 17342 bound_to 10162
  139.9405  143.6387  152.3055 LP  0  0  0  0  0  0  0  0  0  0  0  0  # atno 17343 bound_to 10162
  157.7360  131.0567  150.5439 LP  0  0  0  0  0  0  0  0  0  0  0  0  # atno 17370 bound_to 10713
  156.5563  130.4244  149.6084 LP  0  0  0  0  0  0  0  0  0  0  0  0  # atno 17371 bound_to 10713
  140.8899  134.2508  157.5100 LP  0  0  0  0  0  0  0  0  0  0  0  0  # atno 17394 bound_to 11000
  139.8703  134.9656  156.4535 LP  0  0  0  0  0  0  0  0  0  0  0  0  # atno 17395 bound_to 11000

$$$$
