AV-unprocessed.smi:261|AV-procd|sdf|1990|dock3
  -GOLD-   2262021173D 1   1.00000     0.00000
 Structure written by MMmdl.
 51 54  0  0  0  0  0  0  0  0  1 V2000
  147.0238  131.2883  153.4613 C   0  0  0  0  0  0  0  0  0  0  0  0
  148.1455  131.2783  154.3293 O   0  0  0  0  0  0  0  0  0  0  0  0
  149.2873  131.9475  153.8075 C   0  0  2  0  0  0  0  0  0  0  0  0
  150.4875  131.8768  154.7613 C   0  0  0  0  0  0  0  0  0  0  0  0
  150.2579  133.0103  155.7743 C   0  0  2  0  0  0  0  0  0  0  0  0
  149.4936  132.5125  157.0198 C   0  0  0  0  0  0  0  0  0  0  0  0
  148.2885  131.9555  156.8587 N   0  0  0  0  0  0  0  0  0  0  0  0
  149.9954  132.6450  158.1338 O   0  0  0  0  0  0  0  0  0  0  0  0
  149.5375  134.0111  154.9856 N   0  0  0  0  0  0  0  0  0  0  0  0
  149.4731  135.3417  155.2712 C   0  0  0  0  0  0  0  0  0  0  0  0
  148.5564  136.0891  154.6003 N   0  0  0  0  0  0  0  0  0  0  0  0
  148.4369  137.3985  154.8329 C   0  0  0  0  0  0  0  0  0  0  0  0
  149.1231  138.1584  155.6858 N   0  0  0  0  0  0  0  0  0  0  0  0
  150.0457  137.4223  156.3669 C   0  0  0  0  0  0  0  0  0  0  0  0
  150.2880  136.0239  156.2264 C   0  0  0  0  0  0  0  0  0  0  0  0
  151.3057  135.6465  157.0973 N   0  0  0  0  0  0  0  0  0  0  0  0
  151.6433  136.7474  157.7089 C   0  0  0  0  0  0  0  0  0  0  0  0
  150.9405  137.8645  157.3245 N   0  0  0  0  0  0  0  0  0  0  0  0
  151.1124  139.2160  157.8251 C   0  0  0  0  0  0  0  0  0  0  0  0
  152.5076  139.4624  158.4381 C   0  0  1  0  0  0  0  0  0  0  0  0
  153.4635  139.1265  157.4525 O   0  0  0  0  0  0  0  0  0  0  0  0
  152.7526  140.9142  158.9072 C   0  0  2  0  0  0  0  0  0  0  0  0
  153.9403  141.0827  159.8575 C   0  0  0  0  0  0  0  0  0  0  0  0
  153.6139  142.3547  160.6240 C   0  0  0  0  0  0  0  0  0  0  0  0
  152.1205  142.5675  160.3685 C   0  0  0  0  0  0  0  0  0  0  0  0
  151.6865  141.3812  159.7208 O   0  0  0  0  0  0  0  0  0  0  0  0
  148.9794  133.4473  153.7597 C   0  0  0  0  0  0  0  0  0  0  0  0
  149.5247  131.5688  152.8118 H   0  0  0  0  0  0  0  0  0  0  0  0
  151.2299  133.3900  156.0890 H   0  0  0  0  0  0  0  0  0  0  0  0
  146.1909  130.7744  153.9409 H   0  0  0  0  0  0  0  0  0  0  0  0
  147.2313  130.7774  152.5213 H   0  0  0  0  0  0  0  0  0  0  0  0
  146.7050  132.3081  153.2422 H   0  0  0  0  0  0  0  0  0  0  0  0
  150.6260  130.8984  155.2215 H   0  0  0  0  0  0  0  0  0  0  0  0
  151.3983  132.0870  154.1988 H   0  0  0  0  0  0  0  0  0  0  0  0
  147.7721  131.6353  157.6651 H   0  0  0  0  0  0  0  0  0  0  0  0
  147.8958  131.8677  155.9329 H   0  0  0  0  0  0  0  0  0  0  0  0
  147.6835  137.9101  154.2523 H   0  0  0  0  0  0  0  0  0  0  0  0
  152.4253  136.7751  158.4537 H   0  0  0  0  0  0  0  0  0  0  0  0
  150.9353  139.9071  157.0000 H   0  0  0  0  0  0  0  0  0  0  0  0
  150.3352  139.4093  158.5659 H   0  0  0  0  0  0  0  0  0  0  0  0
  152.6576  138.7854  159.2801 H   0  0  0  0  0  0  0  0  0  0  0  0
  153.4030  138.1998  157.2784 H   0  0  0  0  0  0  0  0  0  0  0  0
  152.8667  141.5791  158.0486 H   0  0  0  0  0  0  0  0  0  0  0  0
  153.9876  140.2420  160.5512 H   0  0  0  0  0  0  0  0  0  0  0  0
  154.8947  141.1389  159.3335 H   0  0  0  0  0  0  0  0  0  0  0  0
  153.8318  142.2374  161.6858 H   0  0  0  0  0  0  0  0  0  0  0  0
  154.1903  143.2028  160.2532 H   0  0  0  0  0  0  0  0  0  0  0  0
  151.5576  142.7399  161.2858 H   0  0  0  0  0  0  0  0  0  0  0  0
  151.9608  143.4183  159.7049 H   0  0  0  0  0  0  0  0  0  0  0  0
  149.4791  133.9033  152.9037 H   0  0  0  0  0  0  0  0  0  0  0  0
  147.9093  133.6400  153.6693 H   0  0  0  0  0  0  0  0  0  0  0  0
  1  2  1  0  0  0  0
  1 30  1  0  0  0  0
  1 31  1  0  0  0  0
  1 32  1  0  0  0  0
  2  3  1  0  0  0  0
  3 28  1  0  0  0  0
  3 27  1  0  0  0  0
  3  4  1  0  0  0  0
  4  5  1  0  0  0  0
  4 33  1  0  0  0  0
  4 34  1  0  0  0  0
  5 29  1  0  0  0  0
  5  6  1  0  0  0  0
  5  9  1  0  0  0  0
  6  7  1  0  0  0  0
  6  8  2  0  0  0  0
  7 35  1  0  0  0  0
  7 36  1  0  0  0  0
  9 10  1  0  0  0  0
  9 27  1  0  0  0  0
 10 15  1  0  0  0  0
 10 11  2  0  0  0  0
 11 12  1  0  0  0  0
 12 13  2  0  0  0  0
 12 37  1  0  0  0  0
 13 14  1  0  0  0  0
 14 18  1  0  0  0  0
 14 15  2  0  0  0  0
 15 16  1  0  0  0  0
 16 17  2  0  0  0  0
 17 18  1  0  0  0  0
 17 38  1  0  0  0  0
 18 19  1  0  0  0  0
 19 20  1  0  0  0  0
 19 39  1  0  0  0  0
 19 40  1  0  0  0  0
 20 21  1  0  0  0  0
 20 22  1  0  0  0  0
 20 41  1  0  0  0  0
 21 42  1  0  0  0  0
 22 26  1  0  0  0  0
 22 23  1  0  0  0  0
 22 43  1  0  0  0  0
 23 24  1  0  0  0  0
 23 44  1  0  0  0  0
 23 45  1  0  0  0  0
 24 25  1  0  0  0  0
 24 46  1  0  0  0  0
 24 47  1  0  0  0  0
 25 26  1  0  0  0  0
 25 48  1  0  0  0  0
 25 49  1  0  0  0  0
 27 50  1  0  0  0  0
 27 51  1  0  0  0  0
M  END
> <s_m_source_file>
AV-unprocessed.smi

> <i_m_source_file_index>
261

> <i_lp_mmshare_version>
43012

> <i_f3d_flags>
0

> <s_epik_input>
W0NIM11PW0NASF0xW0NIMl1bQ0BASF0oQyg9TylbTkgyXSlOKFtDSDJdMSljKG5bY0hdbjIpYyhjMjMpbltjSF1uM1tDSDJdW0NASF0oW09IXSlbQ0BASF00W0NIMl1bQ0gyXVtDSDJdTzQ=

> <s_epik_cmdline>
J2VwaWtfcHl0aG9uJywgJy1waCcsICc3LjAnLCAnLXRuJywgJzgnLCAnLW1hJywgJzIwMCcsICctbWV0YWxfYmluZGluZycsICctaW1hZScsICc8aW5maWxlLm1hZT4nLCAnLW9tYWUnLCAnPG91dGZpbGUubWFlPic=

> <r_lp_tautomer_probability>
1

> <r_epik_Ionization_Penalty>
0.000713824

> <r_epik_Ionization_Penalty_Charging>
0

> <r_epik_Ionization_Penalty_Neutral>
0.000713824

> <r_epik_State_Penalty>
0.000402132

> <r_epik_Charging_Adjusted_Penalty>
0.000402132

> <i_epik_Tot_Q>
0

> <i_epik_Tot_abs_Q>
0

> <r_epik_Metal_State_Penalty>
-0

> <b_epik_Metal_Only>
0

> <s_lp_Force_Field>
OPLS_2005

> <r_lp_Energy>
44.1373

> <b_lp_Chiralities_Consistent>
1

> <s_lp_Variant>
AV-unprocessed.smi:261-8

> <Gold.Version>
5.8.1

> <Gold.Id.Protein>
6NUR|6NUR_protein|mol2

> <Gold.PLP.Fitness>
38.6352

> <Gold.PLP.PLP>
-33.7997

> <Gold.PLP.part.hbond>
-2.4956

> <Gold.PLP.part.metal>
0.0000

> <Gold.PLP.part.buried>
-5.1518

> <Gold.PLP.part.nonpolar>
-25.6049

> <Gold.PLP.part.repulsive>
1.4207

> <Gold.PLP.ligand.clash>
0.0000

> <Gold.PLP.ligand.torsion>
0.6575

> <Gold.PLP.Chemscore.Hbond>
2.0000

> <Gold.PLP.Chemscore.CHOScore>
0.0000

> <Gold.PLP.Chemscore.Metal>
0.0000

> <Gold.Chemscore.Hbonds>
donor molecule, donor type, donor heavy atom, donor atom, acceptor molecule, acceptor atom, score
      P1  H  6896  6908       L1     8  1.00
      P1  H  7997  8010       L1    21  0.89

> <Gold.PLP.Chemscore.Internal.Correction>
0.1504

> <Gold.Rescore>
     Score         DG    S(hbond)    S(metal)    S(lipo)     H(rot)  DE(clash)    DE(int)     intcor
     11.24     -12.93       1.98        0.00      76.87       3.18       0.01       1.68       ----

> <Gold.Chemscore.Fitness>
11.2436

> <Gold.Chemscore.DG>
-12.9274

> <Gold.Chemscore.ZeroCoef>
-5.4800

> <Gold.Chemscore.Hbond>
1.9769

> <Gold.Chemscore.Metal>
0.0000

> <Gold.Chemscore.Lipo>
76.8666

> <Gold.Chemscore.Internal_Hbond>
0.0000

> <Gold.Chemscore.DEClash>
0.0053

> <Gold.Chemscore.DEInternal>
1.6786

> <Gold.Chemscore.Rot>
3.1831

> <Gold.Chemscore.Internal.Correction>
   9.000000E+99

> <Gold.Chemscore.Hbonds>
donor molecule, donor type, donor heavy atom, donor atom, acceptor molecule, acceptor atom, score
      P1  H  6896  6908       L1     8  1.00
      P1  H  7997  8010       L1    21  0.87

> <Gold.Chemscore.Hbond.Weighted>
-6.6027

> <Gold.Chemscore.Metal.Weighted>
-0.0000

> <Gold.Chemscore.Lipo.Weighted>
-8.9934

> <Gold.Chemscore.Internal_Hbond.Weighted>
0.0000

> <Gold.Chemscore.DEClash.Weighted>
0.0053

> <Gold.Chemscore.DEInternal.Weighted>
1.6786

> <Gold.Chemscore.Rot.Weighted>
8.1486

> <Gold.Chemscore.Internal.Correction.Weighted>
   9.000000E+99

> <Gold.Protein.RotatedTorsions>
[ 6907 6896 6895 6894 ] final   94.90 input  -60.11 | X-H torsion
[ 7974 7965 7964 7962 ] final -152.59 input  175.53 | X-H torsion
[ 8008 7997 7996 7995 ] final   40.86 input   59.86 | X-H torsion
[ 10167 10162 10161 10158 ] final -132.84 input  -65.29 | X-H torsion
[ 10718 10713 10712 10709 ] final -104.23 input   66.30 | X-H torsion
[ 10763 10752 10751 10750 ] final  161.15 input  -60.55 | X-H torsion
[ 11005 11000 10999 10996 ] final  160.54 input  -57.11 | X-H torsion

> <Gold.Protein.ActiveResidues>
 VAL166  LYS551  ARG553  GLY616  TRP617  ASP618  TYR619  PRO620  LYS621  CYS622 
 ASP623  PHE694  ASN695  SER759  ASP760  ASP761  ALA762  ILE779  LEU786  VAL792 
 PHE793  MET794  SER795  GLU796  ALA797  LYS798  CYS799  TRP800  GLU811  SER814 

> <Gold.Protein.RotatedAtoms>
  152.5447  134.1123  159.8363 H   0  0  0  0  0  0  0  0  0  0  0  0  # atno 6907 bound_to 6896
  151.1188  133.5112  159.2610 H   0  0  0  0  0  0  0  0  0  0  0  0  # atno 6908 bound_to 6896
  151.1802  135.0367  159.8844 H   0  0  0  0  0  0  0  0  0  0  0  0  # atno 6909 bound_to 6896
  144.7786  140.4641  143.5856 H   0  0  0  0  0  0  0  0  0  0  0  0  # atno 7974 bound_to 7965
  155.2602  140.3358  155.4274 H   0  0  0  0  0  0  0  0  0  0  0  0  # atno 8008 bound_to 7997
  156.2178  140.1796  156.7591 H   0  0  0  0  0  0  0  0  0  0  0  0  # atno 8009 bound_to 7997
  154.5779  140.0658  156.9046 H   0  0  0  0  0  0  0  0  0  0  0  0  # atno 8010 bound_to 7997
  139.9044  143.6569  152.2588 H   0  0  0  0  0  0  0  0  0  0  0  0  # atno 10167 bound_to 10162
  156.0296  130.5505  150.7366 H   0  0  0  0  0  0  0  0  0  0  0  0  # atno 10718 bound_to 10713
  154.2584  135.2769  155.2788 H   0  0  0  0  0  0  0  0  0  0  0  0  # atno 10763 bound_to 10752
  154.5405  135.5704  153.6838 H   0  0  0  0  0  0  0  0  0  0  0  0  # atno 10764 bound_to 10752
  152.9967  135.6250  154.2734 H   0  0  0  0  0  0  0  0  0  0  0  0  # atno 10765 bound_to 10752
  140.2069  134.8296  157.3079 H   0  0  0  0  0  0  0  0  0  0  0  0  # atno 11005 bound_to 11000
  145.6115  139.1514  143.3073 LP  0  0  0  0  0  0  0  0  0  0  0  0  # atno 17320 bound_to 7965
  146.1980  140.6231  142.9115 LP  0  0  0  0  0  0  0  0  0  0  0  0  # atno 17321 bound_to 7965
  139.6997  144.7636  151.1295 LP  0  0  0  0  0  0  0  0  0  0  0  0  # atno 17342 bound_to 10162
  140.7699  143.5475  150.9242 LP  0  0  0  0  0  0  0  0  0  0  0  0  # atno 17343 bound_to 10162
  157.4945  131.0913  151.0387 LP  0  0  0  0  0  0  0  0  0  0  0  0  # atno 17370 bound_to 10713
  157.0785  130.5893  149.5416 LP  0  0  0  0  0  0  0  0  0  0  0  0  # atno 17371 bound_to 10713
  140.1993  134.4275  155.7672 LP  0  0  0  0  0  0  0  0  0  0  0  0  # atno 17394 bound_to 11000
  141.2227  133.7064  156.8156 LP  0  0  0  0  0  0  0  0  0  0  0  0  # atno 17395 bound_to 11000

$$$$
