AV-unprocessed.smi:1873|AV-procd|sdf|7610|dock3
  -GOLD-   22720 9333D 1   1.00000     0.00000
 Structure written by MMmdl.
 37 39  0  0  0  0  0  0  0  0  2 V2000
  146.4203  138.2548  155.0138 O   0  0  0  0  0  0  0  0  0  0  0  0
  146.1709  138.7114  153.6978 C   0  0  1  0  0  0  0  0  0  0  0  0
  147.4628  139.2757  153.0740 C   0  0  0  0  0  0  0  0  0  0  0  0
  148.1349  140.2585  153.9361 N   0  0  0  0  0  0  0  0  0  0  0  0
  147.7694  141.5309  154.2502 C   0  0  0  0  0  0  0  0  0  0  0  0
  148.7194  142.0384  155.0835 N   0  3  0  0  0  0  0  0  0  0  0  0
  149.7065  141.0764  155.3067 C   0  0  0  0  0  0  0  0  0  0  0  0
  150.8649  141.1222  156.0763 C   0  0  0  0  0  0  0  0  0  0  0  0
  151.6604  139.9576  156.0924 C   0  0  0  0  0  0  0  0  0  0  0  0
  151.2934  138.8075  155.3640 C   0  0  0  0  0  0  0  0  0  0  0  0
  150.1170  138.7725  154.5868 C   0  0  0  0  0  0  0  0  0  0  0  0
  149.3369  139.9287  154.5735 C   0  0  0  0  0  0  0  0  0  0  0  0
  145.5661  137.6300  152.8163 C   0  0  0  0  0  0  0  0  0  0  0  0
  146.2278  137.2311  151.6365 C   0  0  0  0  0  0  0  0  0  0  0  0
  145.6805  136.2210  150.8224 C   0  0  0  0  0  0  0  0  0  0  0  0
  144.4646  135.5986  151.1692 C   0  0  0  0  0  0  0  0  0  0  0  0
  143.9902  134.6080  150.3392 O   0  0  0  0  0  0  0  0  0  0  0  0
  144.7351  133.4874  150.1446 C   0  0  0  0  0  0  0  0  0  0  0  0
  144.9841  132.8907  151.3352 F   0  0  0  0  0  0  0  0  0  0  0  0
  144.0605  132.5979  149.3749 F   0  0  0  0  0  0  0  0  0  0  0  0
  143.8089  135.9898  152.3613 C   0  0  0  0  0  0  0  0  0  0  0  0
  144.3561  136.9992  153.1767 C   0  0  0  0  0  0  0  0  0  0  0  0
  146.2597  138.9681  155.6130 H   0  0  0  0  0  0  0  0  0  0  0  0
  145.4458  139.5217  153.7862 H   0  0  0  0  0  0  0  0  0  0  0  0
  148.1628  138.4787  152.8222 H   0  0  0  0  0  0  0  0  0  0  0  0
  147.2291  139.7817  152.1363 H   0  0  0  0  0  0  0  0  0  0  0  0
  146.8856  142.0454  153.9013 H   0  0  0  0  0  0  0  0  0  0  0  0
  151.1469  142.0010  156.6372 H   0  0  0  0  0  0  0  0  0  0  0  0
  152.5689  139.9452  156.6770 H   0  0  0  0  0  0  0  0  0  0  0  0
  151.9259  137.9324  155.4032 H   0  0  0  0  0  0  0  0  0  0  0  0
  149.8427  137.8834  154.0388 H   0  0  0  0  0  0  0  0  0  0  0  0
  147.1610  137.6950  151.3524 H   0  0  0  0  0  0  0  0  0  0  0  0
  146.1982  135.9217  149.9229 H   0  0  0  0  0  0  0  0  0  0  0  0
  145.6947  133.7163  149.6802 H   0  0  0  0  0  0  0  0  0  0  0  0
  142.8876  135.5176  152.6683 H   0  0  0  0  0  0  0  0  0  0  0  0
  143.8445  137.2822  154.0852 H   0  0  0  0  0  0  0  0  0  0  0  0
  148.6932  142.9730  155.4707 H   0  0  0  0  0  0  0  0  0  0  0  0
  1  2  1  0  0  0  0
  1 23  1  0  0  0  0
  2  3  1  0  0  0  0
  2 13  1  0  0  0  0
  2 24  1  0  0  0  0
  3  4  1  0  0  0  0
  3 25  1  0  0  0  0
  3 26  1  0  0  0  0
  4 12  1  0  0  0  0
  4  5  1  0  0  0  0
  5  6  2  0  0  0  0
  5 27  1  0  0  0  0
  6  7  1  0  0  0  0
  6 37  1  0  0  0  0
  7 12  2  0  0  0  0
  7  8  1  0  0  0  0
  8  9  2  0  0  0  0
  8 28  1  0  0  0  0
  9 10  1  0  0  0  0
  9 29  1  0  0  0  0
 10 11  2  0  0  0  0
 10 30  1  0  0  0  0
 11 12  1  0  0  0  0
 11 31  1  0  0  0  0
 13 22  1  0  0  0  0
 13 14  2  0  0  0  0
 14 15  1  0  0  0  0
 14 32  1  0  0  0  0
 15 16  2  0  0  0  0
 15 33  1  0  0  0  0
 16 17  1  0  0  0  0
 16 21  1  0  0  0  0
 17 18  1  0  0  0  0
 18 19  1  0  0  0  0
 18 20  1  0  0  0  0
 18 34  1  0  0  0  0
 21 22  2  0  0  0  0
 21 35  1  0  0  0  0
 22 36  1  0  0  0  0
M  CHG  1   6   1
M  END
> <s_m_source_file>
AV-unprocessed.smi

> <i_m_source_file_index>
1873

> <i_lp_mmshare_version>
43012

> <i_f3d_flags>
0

> <s_epik_input>
RltDSF0oRilPYyhbY0hdW2NIXTEpW2NIXVtjSF1jMVtDQEhdKFtPSF0pW0NIMl1uKFtjSF1uMiljKGMyMylbY0hdW2NIXVtjSF1bY0hdMw==

> <s_epik_cmdline>
J2VwaWtfcHl0aG9uJywgJy1waCcsICc3LjAnLCAnLXRuJywgJzgnLCAnLW1hJywgJzIwMCcsICctbWV0YWxfYmluZGluZycsICctaW1hZScsICc8aW5maWxlLm1hZT4nLCAnLW9tYWUnLCAnPG91dGZpbGUubWFlPic=

> <r_lp_tautomer_probability>
1

> <r_epik_Ionization_Penalty>
1.3029

> <r_epik_Ionization_Penalty_Charging>
1.3029

> <r_epik_Ionization_Penalty_Neutral>
2.50501e-07

> <r_epik_State_Penalty>
1.377

> <r_epik_Charging_Adjusted_Penalty>
2.6799

> <i_epik_Tot_Q>
1

> <i_epik_Tot_abs_Q>
1

> <r_epik_Metal_State_Penalty>
5.40879

> <b_epik_Metal_Only>
0

> <s_lp_Force_Field>
OPLS_2005

> <r_lp_Energy>
16.5832

> <b_lp_Chiralities_Consistent>
1

> <s_lp_Variant>
AV-unprocessed.smi:1873-4

> <Gold.Version>
5.8.1

> <Gold.Id.Protein>
6NUR|6NUR_protein|mol2

> <Gold.PLP.Fitness>
50.2507

> <Gold.PLP.PLP>
-44.4980

> <Gold.PLP.part.hbond>
-1.0000

> <Gold.PLP.part.metal>
0.0000

> <Gold.PLP.part.buried>
-1.1490

> <Gold.PLP.part.nonpolar>
-42.4818

> <Gold.PLP.part.repulsive>
0.4059

> <Gold.PLP.ligand.clash>
0.0000

> <Gold.PLP.ligand.torsion>
0.1645

> <Gold.PLP.Chemscore.Hbond>
2.0000

> <Gold.PLP.Chemscore.CHOScore>
0.0000

> <Gold.PLP.Chemscore.Metal>
0.0000

> <Gold.Chemscore.Hbonds>
donor molecule, donor type, donor heavy atom, donor atom, acceptor molecule, acceptor atom, score
      L1  H     6    37       P1  8028  2.00

> <Gold.PLP.Chemscore.Internal.Correction>
0.0817

> <Gold.Rescore>
     Score         DG    S(hbond)    S(metal)    S(lipo)     H(rot)  DE(clash)    DE(int)     intcor
     12.77     -13.66       0.99        0.00      95.65       2.47       0.61       0.28       ----

> <Gold.Chemscore.Fitness>
12.7738

> <Gold.Chemscore.DG>
-13.6620

> <Gold.Chemscore.ZeroCoef>
-5.4800

> <Gold.Chemscore.Hbond>
0.9899

> <Gold.Chemscore.Metal>
0.0000

> <Gold.Chemscore.Lipo>
95.6471

> <Gold.Chemscore.Internal_Hbond>
0.0000

> <Gold.Chemscore.DEClash>
0.6087

> <Gold.Chemscore.DEInternal>
0.2796

> <Gold.Chemscore.Rot>
2.4668

> <Gold.Chemscore.Internal.Correction>
   9.000000E+99

> <Gold.Chemscore.Hbonds>
donor molecule, donor type, donor heavy atom, donor atom, acceptor molecule, acceptor atom, score
      L1  H     6    37       P1  8028  1.00

> <Gold.Chemscore.Hbond.Weighted>
-3.3064

> <Gold.Chemscore.Metal.Weighted>
-0.0000

> <Gold.Chemscore.Lipo.Weighted>
-11.1907

> <Gold.Chemscore.Internal_Hbond.Weighted>
0.0000

> <Gold.Chemscore.DEClash.Weighted>
0.6087

> <Gold.Chemscore.DEInternal.Weighted>
0.2796

> <Gold.Chemscore.Rot.Weighted>
6.3151

> <Gold.Chemscore.Internal.Correction.Weighted>
   9.000000E+99

> <Gold.Protein.RotatedTorsions>
[ 6907 6896 6895 6894 ] final  -62.31 input  -60.11 | X-H torsion
[ 7974 7965 7964 7962 ] final   48.08 input  175.53 | X-H torsion
[ 8008 7997 7996 7995 ] final  -18.85 input   59.86 | X-H torsion
[ 10167 10162 10161 10158 ] final  -91.39 input  -65.29 | X-H torsion
[ 10718 10713 10712 10709 ] final -102.21 input   66.30 | X-H torsion
[ 10763 10752 10751 10750 ] final  111.10 input  -60.55 | X-H torsion
[ 11005 11000 10999 10996 ] final -139.14 input  -57.11 | X-H torsion

> <Gold.Protein.ActiveResidues>
 VAL166  LYS551  ARG553  GLY616  TRP617  ASP618  TYR619  PRO620  LYS621  CYS622 
 ASP623  PHE694  ASN695  SER759  ASP760  ASP761  ALA762  ILE779  LEU786  VAL792 
 PHE793  MET794  SER795  GLU796  ALA797  LYS798  CYS799  TRP800  GLU811  SER814 

> <Gold.Protein.RotatedAtoms>
  150.7724  134.6588  159.6327 H   0  0  0  0  0  0  0  0  0  0  0  0  # atno 6907 bound_to 6896
  152.3782  134.6628  160.0161 H   0  0  0  0  0  0  0  0  0  0  0  0  # atno 6908 bound_to 6896
  151.6966  133.3274  159.3292 H   0  0  0  0  0  0  0  0  0  0  0  0  # atno 6909 bound_to 6896
  146.0238  139.4682  142.9880 H   0  0  0  0  0  0  0  0  0  0  0  0  # atno 7974 bound_to 7965
  154.4877  140.2104  155.9618 H   0  0  0  0  0  0  0  0  0  0  0  0  # atno 8008 bound_to 7997
  156.1260  140.3205  155.8247 H   0  0  0  0  0  0  0  0  0  0  0  0  # atno 8009 bound_to 7997
  155.4383  140.0508  157.3003 H   0  0  0  0  0  0  0  0  0  0  0  0  # atno 8010 bound_to 7997
  140.3454  143.2920  151.9788 H   0  0  0  0  0  0  0  0  0  0  0  0  # atno 10167 bound_to 10162
  156.0221  130.5409  150.7075 H   0  0  0  0  0  0  0  0  0  0  0  0  # atno 10718 bound_to 10713
  153.4585  135.3727  155.2324 H   0  0  0  0  0  0  0  0  0  0  0  0  # atno 10763 bound_to 10752
  154.8757  135.3903  154.3953 H   0  0  0  0  0  0  0  0  0  0  0  0  # atno 10764 bound_to 10752
  153.4523  135.7085  153.6165 H   0  0  0  0  0  0  0  0  0  0  0  0  # atno 10765 bound_to 10752
  140.8548  134.2241  157.4740 H   0  0  0  0  0  0  0  0  0  0  0  0  # atno 11005 bound_to 11000
  145.7151  141.0093  143.1433 LP  0  0  0  0  0  0  0  0  0  0  0  0  # atno 17320 bound_to 7965
  144.7001  139.8803  143.7446 LP  0  0  0  0  0  0  0  0  0  0  0  0  # atno 17321 bound_to 7965
  139.4834  144.6121  151.7413 LP  0  0  0  0  0  0  0  0  0  0  0  0  # atno 17342 bound_to 10162
  140.5270  144.0791  150.6041 LP  0  0  0  0  0  0  0  0  0  0  0  0  # atno 17343 bound_to 10162
  157.4721  131.0894  151.0631 LP  0  0  0  0  0  0  0  0  0  0  0  0  # atno 17370 bound_to 10713
  157.1088  130.6013  149.5477 LP  0  0  0  0  0  0  0  0  0  0  0  0  # atno 17371 bound_to 10713
  139.8705  134.9701  156.4689 LP  0  0  0  0  0  0  0  0  0  0  0  0  # atno 17394 bound_to 11000
  140.8750  133.7960  155.9404 LP  0  0  0  0  0  0  0  0  0  0  0  0  # atno 17395 bound_to 11000

$$$$
