AV-unprocessed.smi:1369|AV-procd|sdf|5579|dock9
  -GOLD-   22720 5173D 1   1.00000     0.00000
 Structure written by MMmdl.
 39 41  0  0  0  0  0  0  0  0  1 V2000
  155.6956  137.8932  160.4056 C   0  0  0  0  0  0  0  0  0  0  0  0
  155.0293  139.1686  160.9097 C   0  0  0  0  0  0  0  0  0  0  0  0
  155.3810  139.6496  161.9860 O   0  0  0  0  0  0  0  0  0  0  0  0
  154.0605  139.6680  160.1210 N   0  0  0  0  0  0  0  0  0  0  0  0
  153.2655  140.8329  160.3146 C   0  0  0  0  0  0  0  0  0  0  0  0
  153.2923  141.5868  161.5135 C   0  0  0  0  0  0  0  0  0  0  0  0
  152.5047  142.7447  161.6437 C   0  0  0  0  0  0  0  0  0  0  0  0
  151.6934  143.1653  160.5762 C   0  0  0  0  0  0  0  0  0  0  0  0
  151.6735  142.4323  159.3755 C   0  0  0  0  0  0  0  0  0  0  0  0
  152.4626  141.2629  159.2306 C   0  0  0  0  0  0  0  0  0  0  0  0
  152.4892  140.5011  158.0804 O   0  0  0  0  0  0  0  0  0  0  0  0
  151.3247  140.4528  157.2673 C   0  0  0  0  0  0  0  0  0  0  0  0
  151.7028  139.8600  155.9032 C   0  0  0  0  0  0  0  0  0  0  0  0
  150.5853  139.1271  155.3147 N   0  0  0  0  0  0  0  0  0  0  0  0
  150.6187  137.7889  154.9142 C   0  0  0  0  0  0  0  0  0  0  0  0
  151.5646  137.0048  154.9641 O   0  0  0  0  0  0  0  0  0  0  0  0
  149.3670  137.4857  154.4436 O   0  0  0  0  0  0  0  0  0  0  0  0
  148.5740  138.5902  154.5537 C   0  0  0  0  0  0  0  0  0  0  0  0
  147.2219  138.7529  154.2084 C   0  0  0  0  0  0  0  0  0  0  0  0
  146.6344  140.0199  154.4341 C   0  0  0  0  0  0  0  0  0  0  0  0
  147.3919  141.0817  154.9914 C   0  0  0  0  0  0  0  0  0  0  0  0
  148.7503  140.8959  155.3365 C   0  0  0  0  0  0  0  0  0  0  0  0
  149.3042  139.6270  155.0948 C   0  0  0  0  0  0  0  0  0  0  0  0
  156.0128  138.0091  159.3688 H   0  0  0  0  0  0  0  0  0  0  0  0
  155.0006  137.0556  160.4656 H   0  0  0  0  0  0  0  0  0  0  0  0
  156.5742  137.6514  161.0044 H   0  0  0  0  0  0  0  0  0  0  0  0
  153.8126  139.1083  159.3178 H   0  0  0  0  0  0  0  0  0  0  0  0
  153.9219  141.3042  162.3428 H   0  0  0  0  0  0  0  0  0  0  0  0
  152.5282  143.3136  162.5615 H   0  0  0  0  0  0  0  0  0  0  0  0
  151.0890  144.0549  160.6757 H   0  0  0  0  0  0  0  0  0  0  0  0
  151.0405  142.7898  158.5778 H   0  0  0  0  0  0  0  0  0  0  0  0
  150.5686  139.8227  157.7377 H   0  0  0  0  0  0  0  0  0  0  0  0
  150.9007  141.4500  157.1371 H   0  0  0  0  0  0  0  0  0  0  0  0
  152.0312  140.6495  155.2269 H   0  0  0  0  0  0  0  0  0  0  0  0
  152.5527  139.1857  156.0176 H   0  0  0  0  0  0  0  0  0  0  0  0
  146.6514  137.9392  153.7857 H   0  0  0  0  0  0  0  0  0  0  0  0
  145.5970  140.1804  154.1797 H   0  0  0  0  0  0  0  0  0  0  0  0
  146.9253  142.0417  155.1565 H   0  0  0  0  0  0  0  0  0  0  0  0
  149.3323  141.6972  155.7673 H   0  0  0  0  0  0  0  0  0  0  0  0
  1  2  1  0  0  0  0
  1 24  1  0  0  0  0
  1 25  1  0  0  0  0
  1 26  1  0  0  0  0
  2  3  2  0  0  0  0
  2  4  1  0  0  0  0
  4  5  1  0  0  0  0
  4 27  1  0  0  0  0
  5 10  1  0  0  0  0
  5  6  2  0  0  0  0
  6  7  1  0  0  0  0
  6 28  1  0  0  0  0
  7  8  2  0  0  0  0
  7 29  1  0  0  0  0
  8  9  1  0  0  0  0
  8 30  1  0  0  0  0
  9 10  2  0  0  0  0
  9 31  1  0  0  0  0
 10 11  1  0  0  0  0
 11 12  1  0  0  0  0
 12 13  1  0  0  0  0
 12 32  1  0  0  0  0
 12 33  1  0  0  0  0
 13 14  1  0  0  0  0
 13 34  1  0  0  0  0
 13 35  1  0  0  0  0
 14 23  1  0  0  0  0
 14 15  1  0  0  0  0
 15 16  2  0  0  0  0
 15 17  1  0  0  0  0
 17 18  1  0  0  0  0
 18 23  2  0  0  0  0
 18 19  1  0  0  0  0
 19 20  2  0  0  0  0
 19 36  1  0  0  0  0
 20 21  1  0  0  0  0
 20 37  1  0  0  0  0
 21 22  2  0  0  0  0
 21 38  1  0  0  0  0
 22 23  1  0  0  0  0
 22 39  1  0  0  0  0
M  END
> <s_m_source_file>
AV-unprocessed.smi

> <i_m_source_file_index>
1369

> <i_lp_mmshare_version>
43012

> <i_f3d_flags>
0

> <s_epik_input>
W0NIM11DKD1PKVtOSF1jMVtjSF1bY0hdW2NIXVtjSF1jMU9bQ0gyXVtDSDJdbihjKD1PKW8yKWMoYzIzKVtjSF1bY0hdW2NIXVtjSF0z

> <s_epik_cmdline>
J2VwaWtfcHl0aG9uJywgJy1waCcsICc3LjAnLCAnLXRuJywgJzgnLCAnLW1hJywgJzIwMCcsICctbWV0YWxfYmluZGluZycsICctaW1hZScsICc8aW5maWxlLm1hZT4nLCAnLW9tYWUnLCAnPG91dGZpbGUubWFlPic=

> <r_lp_tautomer_probability>
1

> <r_epik_Ionization_Penalty>
9.24277e-08

> <r_epik_Ionization_Penalty_Charging>
1.02615e-14

> <r_epik_Ionization_Penalty_Neutral>
9.24277e-08

> <r_epik_State_Penalty>
-0

> <r_epik_Charging_Adjusted_Penalty>
1.02615e-14

> <i_epik_Tot_Q>
0

> <i_epik_Tot_abs_Q>
0

> <r_epik_Metal_State_Penalty>
-0

> <b_epik_Metal_Only>
0

> <s_lp_Force_Field>
OPLS_2005

> <r_lp_Energy>
36.4772

> <b_lp_Chiralities_Consistent>
1

> <s_lp_Variant>
AV-unprocessed.smi:1369-1

> <Gold.Version>
5.8.1

> <Gold.Id.Protein>
6NUR|6NUR_protein|mol2

> <Gold.PLP.Fitness>
50.7328

> <Gold.PLP.PLP>
-46.8055

> <Gold.PLP.part.hbond>
-2.0000

> <Gold.PLP.part.metal>
0.0000

> <Gold.PLP.part.buried>
0.0808

> <Gold.PLP.part.nonpolar>
-43.7120

> <Gold.PLP.part.repulsive>
2.1920

> <Gold.PLP.ligand.clash>
0.0000

> <Gold.PLP.ligand.torsion>
0.6609

> <Gold.PLP.Chemscore.Hbond>
1.7389

> <Gold.PLP.Chemscore.CHOScore>
0.0000

> <Gold.PLP.Chemscore.Metal>
0.0000

> <Gold.Chemscore.Hbonds>
donor molecule, donor type, donor heavy atom, donor atom, acceptor molecule, acceptor atom, score
      P1  H  7997  8009       L1    11  0.15
      P1  H 10752 10764       L1    16  1.00

> <Gold.PLP.Chemscore.Internal.Correction>
0.0323

> <Gold.Rescore>
     Score         DG    S(hbond)    S(metal)    S(lipo)     H(rot)  DE(clash)    DE(int)     intcor
     18.31     -20.41       1.64        0.00     117.99       1.70       0.34       1.76       ----

> <Gold.Chemscore.Fitness>
18.3077

> <Gold.Chemscore.DG>
-20.4090

> <Gold.Chemscore.ZeroCoef>
-5.4800

> <Gold.Chemscore.Hbond>
1.6410

> <Gold.Chemscore.Metal>
0.0000

> <Gold.Chemscore.Lipo>
117.9903

> <Gold.Chemscore.Internal_Hbond>
0.0000

> <Gold.Chemscore.DEClash>
0.3421

> <Gold.Chemscore.DEInternal>
1.7591

> <Gold.Chemscore.Rot>
1.7019

> <Gold.Chemscore.Internal.Correction>
   9.000000E+99

> <Gold.Chemscore.Hbonds>
donor molecule, donor type, donor heavy atom, donor atom, acceptor molecule, acceptor atom, score
      P1  H  7997  8009       L1    11  0.14
      P1  H 10752 10764       L1    16  0.96

> <Gold.Chemscore.Hbond.Weighted>
-5.4810

> <Gold.Chemscore.Metal.Weighted>
-0.0000

> <Gold.Chemscore.Lipo.Weighted>
-13.8049

> <Gold.Chemscore.Internal_Hbond.Weighted>
0.0000

> <Gold.Chemscore.DEClash.Weighted>
0.3421

> <Gold.Chemscore.DEInternal.Weighted>
1.7591

> <Gold.Chemscore.Rot.Weighted>
4.3569

> <Gold.Chemscore.Internal.Correction.Weighted>
   9.000000E+99

> <Gold.Protein.RotatedTorsions>
[ 6907 6896 6895 6894 ] final -142.14 input  -60.11 | X-H torsion
[ 7974 7965 7964 7962 ] final  161.75 input  175.53 | X-H torsion
[ 8008 7997 7996 7995 ] final  164.94 input   59.86 | X-H torsion
[ 10167 10162 10161 10158 ] final  -50.10 input  -65.29 | X-H torsion
[ 10718 10713 10712 10709 ] final  -25.71 input   66.30 | X-H torsion
[ 10763 10752 10751 10750 ] final  -61.42 input  -60.55 | X-H torsion
[ 11005 11000 10999 10996 ] final  111.94 input  -57.11 | X-H torsion

> <Gold.Protein.ActiveResidues>
 VAL166  LYS551  ARG553  GLY616  TRP617  ASP618  TYR619  PRO620  LYS621  CYS622 
 ASP623  PHE694  ASN695  SER759  ASP760  ASP761  ALA762  ILE779  LEU786  VAL792 
 PHE793  MET794  SER795  GLU796  ALA797  LYS798  CYS799  TRP800  GLU811  SER814 

> <Gold.Protein.RotatedAtoms>
  151.0831  133.5374  159.2619 H   0  0  0  0  0  0  0  0  0  0  0  0  # atno 6907 bound_to 6896
  151.2270  135.0539  159.8982 H   0  0  0  0  0  0  0  0  0  0  0  0  # atno 6908 bound_to 6896
  152.5426  134.0625  159.8212 H   0  0  0  0  0  0  0  0  0  0  0  0  # atno 6909 bound_to 6896
  144.7670  139.7943  143.6311 H   0  0  0  0  0  0  0  0  0  0  0  0  # atno 7974 bound_to 7965
  156.1840  140.1683  156.8220 H   0  0  0  0  0  0  0  0  0  0  0  0  # atno 8008 bound_to 7997
  154.5393  140.0740  156.8514 H   0  0  0  0  0  0  0  0  0  0  0  0  # atno 8009 bound_to 7997
  155.3248  140.3375  155.4243 H   0  0  0  0  0  0  0  0  0  0  0  0  # atno 8010 bound_to 7997
  140.6654  143.2671  151.4310 H   0  0  0  0  0  0  0  0  0  0  0  0  # atno 10167 bound_to 10162
  156.4608  130.4503  149.6930 H   0  0  0  0  0  0  0  0  0  0  0  0  # atno 10718 bound_to 10713
  154.2843  135.6266  153.5359 H   0  0  0  0  0  0  0  0  0  0  0  0  # atno 10763 bound_to 10752
  152.9861  135.5640  154.5461 H   0  0  0  0  0  0  0  0  0  0  0  0  # atno 10764 bound_to 10752
  154.5058  135.2874  155.1359 H   0  0  0  0  0  0  0  0  0  0  0  0  # atno 10765 bound_to 10752
  139.8915  134.9519  156.6509 H   0  0  0  0  0  0  0  0  0  0  0  0  # atno 11005 bound_to 11000
  146.1786  139.4967  142.9881 LP  0  0  0  0  0  0  0  0  0  0  0  0  # atno 17320 bound_to 7965
  145.6440  141.0278  143.1796 LP  0  0  0  0  0  0  0  0  0  0  0  0  # atno 17321 bound_to 7965
  139.5901  144.1518  152.2077 LP  0  0  0  0  0  0  0  0  0  0  0  0  # atno 17342 bound_to 10162
  140.0870  144.5653  150.7081 LP  0  0  0  0  0  0  0  0  0  0  0  0  # atno 17343 bound_to 10162
  156.3718  130.7534  151.2518 LP  0  0  0  0  0  0  0  0  0  0  0  0  # atno 17370 bound_to 10713
  157.7498  131.0321  150.4210 LP  0  0  0  0  0  0  0  0  0  0  0  0  # atno 17371 bound_to 10713
  140.7521  133.8888  155.8355 LP  0  0  0  0  0  0  0  0  0  0  0  0  # atno 17394 bound_to 11000
  140.9992  134.1174  157.4334 LP  0  0  0  0  0  0  0  0  0  0  0  0  # atno 17395 bound_to 11000

$$$$
