AV-unprocessed.smi:311|AV-procd|sdf|2301|dock4
  -GOLD-   2262022203D 1   1.00000     0.00000
 Structure written by MMmdl.
 44 46  0  0  0  0  0  0  0  0  2 V2000
  149.4648  133.6611  156.0366 C   0  0  0  0  0  0  0  0  0  0  0  0
  150.2560  132.4198  156.3347 C   0  0  0  0  0  0  0  0  0  0  0  0
  150.9044  132.3191  157.4828 N   0  0  0  0  0  0  0  0  0  0  0  0
  151.5420  131.0750  157.4548 O   0  0  0  0  0  0  0  0  0  0  0  0
  151.2506  130.4695  156.2754 C   0  0  0  0  0  0  0  0  0  0  0  0
  151.8483  129.1227  156.0457 C   0  0  0  0  0  0  0  0  0  0  0  0
  150.4374  131.2667  155.5178 C   0  0  0  0  0  0  0  0  0  0  0  0
  149.8722  130.9986  154.1467 C   0  0  0  0  0  0  0  0  0  0  0  0
  148.3475  131.1121  154.1835 C   0  0  0  0  0  0  0  0  0  0  0  0
  147.7573  131.1582  155.2629 O   0  0  0  0  0  0  0  0  0  0  0  0
  147.7193  131.1540  152.9979 N   0  0  0  0  0  0  0  0  0  0  0  0
  146.2699  131.1999  152.8138 C   0  0  2  0  0  0  0  0  0  0  0  0
  145.7757  130.2741  151.6865 C   0  0  0  0  0  0  0  0  0  0  0  0
  144.6603  131.0680  150.9984 C   0  0  0  0  0  0  0  0  0  0  0  0
  145.1264  132.4544  151.1169 N   0  3  1  0  0  0  0  0  0  0  0  0
  144.1938  133.5480  150.7773 C   0  0  0  0  0  0  0  0  0  0  0  0
  144.9790  134.8772  150.7927 C   0  0  0  0  0  0  0  0  0  0  0  0
  145.7570  135.0836  152.1125 C   0  0  0  0  0  0  0  0  0  0  0  0
  146.6100  133.8491  152.4782 C   0  0  0  0  0  0  0  0  0  0  0  0
  145.7107  132.5999  152.4616 C   0  0  2  0  0  0  0  0  0  0  0  0
  148.5257  133.4175  155.5399 H   0  0  0  0  0  0  0  0  0  0  0  0
  150.0236  134.3292  155.3811 H   0  0  0  0  0  0  0  0  0  0  0  0
  149.2227  134.2127  156.9455 H   0  0  0  0  0  0  0  0  0  0  0  0
  152.3487  129.0841  155.0781 H   0  0  0  0  0  0  0  0  0  0  0  0
  151.0776  128.3522  156.0589 H   0  0  0  0  0  0  0  0  0  0  0  0
  152.5825  128.8805  156.8144 H   0  0  0  0  0  0  0  0  0  0  0  0
  150.2510  131.7113  153.4136 H   0  0  0  0  0  0  0  0  0  0  0  0
  150.1658  130.0115  153.7868 H   0  0  0  0  0  0  0  0  0  0  0  0
  148.2862  131.1163  152.1629 H   0  0  0  0  0  0  0  0  0  0  0  0
  145.7950  130.8695  153.7400 H   0  0  0  0  0  0  0  0  0  0  0  0
  146.5780  130.0879  150.9704 H   0  0  0  0  0  0  0  0  0  0  0  0
  145.4329  129.3070  152.0558 H   0  0  0  0  0  0  0  0  0  0  0  0
  144.5117  130.7735  149.9590 H   0  0  0  0  0  0  0  0  0  0  0  0
  143.7165  130.9486  151.5329 H   0  0  0  0  0  0  0  0  0  0  0  0
  143.7654  133.3755  149.7892 H   0  0  0  0  0  0  0  0  0  0  0  0
  143.3678  133.5743  151.4897 H   0  0  0  0  0  0  0  0  0  0  0  0
  145.6849  134.8826  149.9611 H   0  0  0  0  0  0  0  0  0  0  0  0
  144.3014  135.7144  150.6228 H   0  0  0  0  0  0  0  0  0  0  0  0
  146.3900  135.9686  152.0398 H   0  0  0  0  0  0  0  0  0  0  0  0
  145.0475  135.2798  152.9175 H   0  0  0  0  0  0  0  0  0  0  0  0
  147.4318  133.7369  151.7696 H   0  0  0  0  0  0  0  0  0  0  0  0
  147.0544  133.9915  153.4634 H   0  0  0  0  0  0  0  0  0  0  0  0
  144.8875  132.7774  153.1573 H   0  0  0  0  0  0  0  0  0  0  0  0
  145.8990  132.5299  150.4706 H   0  0  0  0  0  0  0  0  0  0  0  0
  1  2  1  0  0  0  0
  1 21  1  0  0  0  0
  1 22  1  0  0  0  0
  1 23  1  0  0  0  0
  2  7  1  0  0  0  0
  2  3  2  0  0  0  0
  3  4  1  0  0  0  0
  4  5  1  0  0  0  0
  5  6  1  0  0  0  0
  5  7  2  0  0  0  0
  6 24  1  0  0  0  0
  6 25  1  0  0  0  0
  6 26  1  0  0  0  0
  7  8  1  0  0  0  0
  8  9  1  0  0  0  0
  8 27  1  0  0  0  0
  8 28  1  0  0  0  0
  9 10  2  0  0  0  0
  9 11  1  0  0  0  0
 11 12  1  0  0  0  0
 11 29  1  0  0  0  0
 12 20  1  0  0  0  0
 12 13  1  0  0  0  0
 12 30  1  0  0  0  0
 13 14  1  0  0  0  0
 13 31  1  0  0  0  0
 13 32  1  0  0  0  0
 14 15  1  0  0  0  0
 14 33  1  0  0  0  0
 14 34  1  0  0  0  0
 15 20  1  0  0  0  0
 15 16  1  0  0  0  0
 15 44  1  0  0  0  0
 16 17  1  0  0  0  0
 16 35  1  0  0  0  0
 16 36  1  0  0  0  0
 17 18  1  0  0  0  0
 17 37  1  0  0  0  0
 17 38  1  0  0  0  0
 18 19  1  0  0  0  0
 18 39  1  0  0  0  0
 18 40  1  0  0  0  0
 19 20  1  0  0  0  0
 19 41  1  0  0  0  0
 19 42  1  0  0  0  0
 20 43  1  0  0  0  0
M  CHG  1  15   1
M  END
> <s_m_source_file>
AV-unprocessed.smi

> <i_m_source_file_index>
311

> <i_lp_mmshare_version>
43012

> <i_f3d_flags>
0

> <s_epik_input>
W0NIM11jMW5vYyhbQ0gzXSljMVtDSDJdQyg9TylbTkhdW0NASF0oW0NIMl1bQ0gyXTIpW0NAQEhdKE4yMylbQ0gyXVtDSDJdW0NIMl1bQ0gyXTM=

> <s_epik_cmdline>
J2VwaWtfcHl0aG9uJywgJy1waCcsICc3LjAnLCAnLXRuJywgJzgnLCAnLW1hJywgJzIwMCcsICctbWV0YWxfYmluZGluZycsICctaW1hZScsICc8aW5maWxlLm1hZT4nLCAnLW9tYWUnLCAnPG91dGZpbGUubWFlPic=

> <r_epik_Ionization_Penalty>
0.00173669

> <r_epik_Ionization_Penalty_Charging>
0.0017366

> <r_epik_Ionization_Penalty_Neutral>
9.2145e-08

> <r_epik_State_Penalty>
0.00117499

> <r_epik_Charging_Adjusted_Penalty>
0.00291159

> <i_epik_Tot_Q>
1

> <i_epik_Tot_abs_Q>
1

> <r_epik_Metal_State_Penalty>
-0

> <b_epik_Metal_Only>
0

> <s_lp_Force_Field>
OPLS_2005

> <r_lp_Energy>
35.7975

> <b_lp_Chiralities_Consistent>
1

> <s_lp_Variant>
AV-unprocessed.smi:311-5

> <Gold.Version>
5.8.1

> <Gold.Id.Protein>
6NUR|6NUR_protein|mol2

> <Gold.PLP.Fitness>
34.9790

> <Gold.PLP.PLP>
-29.7523

> <Gold.PLP.part.hbond>
-2.0000

> <Gold.PLP.part.metal>
0.0000

> <Gold.PLP.part.buried>
-5.4086

> <Gold.PLP.part.nonpolar>
-22.4761

> <Gold.PLP.part.repulsive>
0.0232

> <Gold.PLP.ligand.clash>
0.0000

> <Gold.PLP.ligand.torsion>
0.3880

> <Gold.PLP.Chemscore.Hbond>
2.0000

> <Gold.PLP.Chemscore.CHOScore>
0.0000

> <Gold.PLP.Chemscore.Metal>
0.0000

> <Gold.Chemscore.Hbonds>
donor molecule, donor type, donor heavy atom, donor atom, acceptor molecule, acceptor atom, score
      L1  H    11    29       P1 10747  1.00
      P1  H  6896  6908       L1     3  0.86

> <Gold.PLP.Chemscore.Internal.Correction>
0.0027

> <Gold.Rescore>
     Score         DG    S(hbond)    S(metal)    S(lipo)     H(rot)  DE(clash)    DE(int)     intcor
     17.19     -17.67       1.88        0.00      80.33       1.36       0.19       0.30       ----

> <Gold.Chemscore.Fitness>
17.1883

> <Gold.Chemscore.DG>
-17.6749

> <Gold.Chemscore.ZeroCoef>
-5.4800

> <Gold.Chemscore.Hbond>
1.8770

> <Gold.Chemscore.Metal>
0.0000

> <Gold.Chemscore.Lipo>
80.3324

> <Gold.Chemscore.Internal_Hbond>
0.0000

> <Gold.Chemscore.DEClash>
0.1889

> <Gold.Chemscore.DEInternal>
0.2977

> <Gold.Chemscore.Rot>
1.3567

> <Gold.Chemscore.Internal.Correction>
   9.000000E+99

> <Gold.Chemscore.Hbonds>
donor molecule, donor type, donor heavy atom, donor atom, acceptor molecule, acceptor atom, score
      L1  H    11    29       P1 10747  0.95
      P1  H  6896  6908       L1     3  0.58

> <Gold.Chemscore.Hbond.Weighted>
-6.2691

> <Gold.Chemscore.Metal.Weighted>
-0.0000

> <Gold.Chemscore.Lipo.Weighted>
-9.3989

> <Gold.Chemscore.Internal_Hbond.Weighted>
0.0000

> <Gold.Chemscore.DEClash.Weighted>
0.1889

> <Gold.Chemscore.DEInternal.Weighted>
0.2977

> <Gold.Chemscore.Rot.Weighted>
3.4731

> <Gold.Chemscore.Internal.Correction.Weighted>
   9.000000E+99

> <Gold.Protein.RotatedTorsions>
[ 6907 6896 6895 6894 ] final   70.50 input  -60.11 | X-H torsion
[ 7974 7965 7964 7962 ] final    3.47 input  175.53 | X-H torsion
[ 8008 7997 7996 7995 ] final   -8.05 input   59.86 | X-H torsion
[ 10167 10162 10161 10158 ] final  161.96 input  -65.29 | X-H torsion
[ 10718 10713 10712 10709 ] final -179.94 input   66.30 | X-H torsion
[ 10763 10752 10751 10750 ] final   21.83 input  -60.55 | X-H torsion
[ 11005 11000 10999 10996 ] final  157.54 input  -57.11 | X-H torsion

> <Gold.Protein.ActiveResidues>
 VAL166  LYS551  ARG553  GLY616  TRP617  ASP618  TYR619  PRO620  LYS621  CYS622 
 ASP623  PHE694  ASN695  SER759  ASP760  ASP761  ALA762  ILE779  LEU786  VAL792 
 PHE793  MET794  SER795  GLU796  ALA797  LYS798  CYS799  TRP800  GLU811  SER814 

> <Gold.Protein.RotatedAtoms>
  152.4753  134.4859  159.9679 H   0  0  0  0  0  0  0  0  0  0  0  0  # atno 6907 bound_to 6896
  151.4877  133.3526  159.2856 H   0  0  0  0  0  0  0  0  0  0  0  0  # atno 6908 bound_to 6896
  150.8788  134.8202  159.7270 H   0  0  0  0  0  0  0  0  0  0  0  0  # atno 6909 bound_to 6896
  146.2445  140.0681  142.8364 H   0  0  0  0  0  0  0  0  0  0  0  0  # atno 7974 bound_to 7965
  154.5778  140.2391  155.8097 H   0  0  0  0  0  0  0  0  0  0  0  0  # atno 8008 bound_to 7997
  156.2156  140.3013  155.9790 H   0  0  0  0  0  0  0  0  0  0  0  0  # atno 8009 bound_to 7997
  155.2595  140.0414  157.2986 H   0  0  0  0  0  0  0  0  0  0  0  0  # atno 8010 bound_to 7997
  139.4855  144.4485  151.8860 H   0  0  0  0  0  0  0  0  0  0  0  0  # atno 10167 bound_to 10162
  156.8665  130.9769  151.3078 H   0  0  0  0  0  0  0  0  0  0  0  0  # atno 10718 bound_to 10713
  153.0964  135.6661  153.9755 H   0  0  0  0  0  0  0  0  0  0  0  0  # atno 10763 bound_to 10752
  153.9338  135.3001  155.3446 H   0  0  0  0  0  0  0  0  0  0  0  0  # atno 10764 bound_to 10752
  154.7383  135.5091  153.9153 H   0  0  0  0  0  0  0  0  0  0  0  0  # atno 10765 bound_to 10752
  140.1779  134.8496  157.2769 H   0  0  0  0  0  0  0  0  0  0  0  0  # atno 11005 bound_to 11000
  145.0840  140.9240  143.4808 LP  0  0  0  0  0  0  0  0  0  0  0  0  # atno 17320 bound_to 7965
  145.0840  139.2939  143.5769 LP  0  0  0  0  0  0  0  0  0  0  0  0  # atno 17321 bound_to 7965
  140.3941  144.2578  150.5897 LP  0  0  0  0  0  0  0  0  0  0  0  0  # atno 17342 bound_to 10162
  140.5119  143.2288  151.8522 LP  0  0  0  0  0  0  0  0  0  0  0  0  # atno 17343 bound_to 10162
  157.6220  130.8662  149.9125 LP  0  0  0  0  0  0  0  0  0  0  0  0  # atno 17370 bound_to 10713
  156.0749  130.3680  150.0699 LP  0  0  0  0  0  0  0  0  0  0  0  0  # atno 17371 bound_to 10713
  140.2301  134.3920  155.7526 LP  0  0  0  0  0  0  0  0  0  0  0  0  # atno 17394 bound_to 11000
  141.2221  133.7210  156.8626 LP  0  0  0  0  0  0  0  0  0  0  0  0  # atno 17395 bound_to 11000

$$$$
