AV-unprocessed.smi:100|AV-procd|sdf|903|dock9
  -GOLD-   2262017403D 1   1.00000     0.00000
 Structure written by MMmdl.
 31 33  0  0  0  0  0  0  0  0  1 V2000
  150.8386  138.2623  153.3454 N   0  0  0  0  0  0  0  0  0  0  0  0
  151.2279  138.3279  154.6261 C   0  0  0  0  0  0  0  0  0  0  0  0
  151.8292  137.2450  155.1722 N   0  0  0  0  0  0  0  0  0  0  0  0
  152.2236  137.2841  156.4494 C   0  0  0  0  0  0  0  0  0  0  0  0
  152.1149  138.2852  157.3275 N   0  0  0  0  0  0  0  0  0  0  0  0
  151.5131  139.3776  156.7718 C   0  0  0  0  0  0  0  0  0  0  0  0
  151.0383  139.4766  155.4352 C   0  0  0  0  0  0  0  0  0  0  0  0
  150.4718  140.7266  155.2271 N   0  0  0  0  0  0  0  0  0  0  0  0
  150.6009  141.3261  156.3806 C   0  0  0  0  0  0  0  0  0  0  0  0
  151.2410  140.5944  157.3607 N   0  0  0  0  0  0  0  0  0  0  0  0
  151.5333  140.9691  158.7817 C   0  0  2  0  0  0  0  0  0  0  0  0
  150.7843  142.1122  159.0892 O   0  0  0  0  0  0  0  0  0  0  0  0
  151.6214  143.2627  159.2184 C   0  0  2  0  0  0  0  0  0  0  0  0
  151.7873  143.9922  157.8699 C   0  0  0  0  0  0  0  0  0  0  0  0
  150.7005  144.8665  157.6562 O   0  0  0  0  0  0  0  0  0  0  0  0
  152.9227  142.6512  159.7345 C   0  0  1  0  0  0  0  0  0  0  0  0
  152.7665  142.4172  161.0407 F   0  0  0  0  0  0  0  0  0  0  0  0
  153.0148  141.3506  158.9507 C   0  0  1  0  0  0  0  0  0  0  0  0
  153.7776  140.3906  159.6548 O   0  0  0  0  0  0  0  0  0  0  0  0
  150.3868  139.0571  152.9161 H   0  0  0  0  0  0  0  0  0  0  0  0
  150.9967  137.4192  152.8131 H   0  0  0  0  0  0  0  0  0  0  0  0
  152.6946  136.3858  156.8201 H   0  0  0  0  0  0  0  0  0  0  0  0
  150.2341  142.3297  156.5415 H   0  0  0  0  0  0  0  0  0  0  0  0
  151.2052  140.1146  159.3752 H   0  0  0  0  0  0  0  0  0  0  0  0
  151.2075  143.9513  159.9567 H   0  0  0  0  0  0  0  0  0  0  0  0
  152.6910  144.6019  157.8881 H   0  0  0  0  0  0  0  0  0  0  0  0
  151.8894  143.3049  157.0312 H   0  0  0  0  0  0  0  0  0  0  0  0
  150.1471  144.5001  156.9834 H   0  0  0  0  0  0  0  0  0  0  0  0
  153.7939  143.2962  159.6171 H   0  0  0  0  0  0  0  0  0  0  0  0
  153.4647  141.5399  157.9747 H   0  0  0  0  0  0  0  0  0  0  0  0
  154.1347  140.8034  160.4270 H   0  0  0  0  0  0  0  0  0  0  0  0
  1  2  1  0  0  0  0
  1 20  1  0  0  0  0
  1 21  1  0  0  0  0
  2  7  1  0  0  0  0
  2  3  2  0  0  0  0
  3  4  1  0  0  0  0
  4  5  2  0  0  0  0
  4 22  1  0  0  0  0
  5  6  1  0  0  0  0
  6 10  1  0  0  0  0
  6  7  2  0  0  0  0
  7  8  1  0  0  0  0
  8  9  2  0  0  0  0
  9 10  1  0  0  0  0
  9 23  1  0  0  0  0
 10 11  1  0  0  0  0
 11 18  1  0  0  0  0
 11 12  1  0  0  0  0
 11 24  1  0  0  0  0
 12 13  1  0  0  0  0
 13 14  1  0  0  0  0
 13 16  1  0  0  0  0
 13 25  1  0  0  0  0
 14 15  1  0  0  0  0
 14 26  1  0  0  0  0
 14 27  1  0  0  0  0
 15 28  1  0  0  0  0
 16 17  1  0  0  0  0
 16 18  1  0  0  0  0
 16 29  1  0  0  0  0
 18 19  1  0  0  0  0
 18 30  1  0  0  0  0
 19 31  1  0  0  0  0
M  END
> <s_m_source_file>
AV-unprocessed.smi

> <i_m_source_file_index>
100

> <i_lp_mmshare_version>
43012

> <i_f3d_flags>
0

> <s_epik_input>
bjFbY0hdbmMoW05IMl0pYyhjMTIpbltjSF1uMltDQEBIXTNPW0NAQEhdKFtDSDJdW09IXSlbQ0BIXShGKVtDQEhdM1tPSF0=

> <s_epik_cmdline>
J2VwaWtfcHl0aG9uJywgJy1waCcsICc3LjAnLCAnLXRuJywgJzgnLCAnLW1hJywgJzIwMCcsICctbWV0YWxfYmluZGluZycsICctaW1hZScsICc8aW5maWxlLm1hZT4nLCAnLW9tYWUnLCAnPG91dGZpbGUubWFlPic=

> <r_lp_tautomer_probability>
1

> <r_epik_Ionization_Penalty>
0.000750324

> <r_epik_Ionization_Penalty_Charging>
0

> <r_epik_Ionization_Penalty_Neutral>
0.000750324

> <r_epik_State_Penalty>
-0

> <r_epik_Charging_Adjusted_Penalty>
0

> <i_epik_Tot_Q>
0

> <i_epik_Tot_abs_Q>
0

> <r_epik_Metal_State_Penalty>
-0

> <b_epik_Metal_Only>
0

> <s_epik_Chemistry_Notes>
This compound contains an acetal/aminal-like group ( X-CH(R)-Y where X, Y are N, S, or O) that may be acid/base labile, releasing an aldehyde.

> <s_lp_Force_Field>
OPLS_2005

> <r_lp_Energy>
31.6472

> <b_lp_Chiralities_Consistent>
1

> <s_lp_Variant>
AV-unprocessed.smi:100-7

> <Gold.Version>
5.8.1

> <Gold.Id.Protein>
6NUR|6NUR_protein|mol2

> <Gold.PLP.Fitness>
45.5271

> <Gold.PLP.PLP>
-34.1138

> <Gold.PLP.part.hbond>
-7.0833

> <Gold.PLP.part.metal>
0.0000

> <Gold.PLP.part.buried>
0.7423

> <Gold.PLP.part.nonpolar>
-28.2963

> <Gold.PLP.part.repulsive>
0.3039

> <Gold.PLP.ligand.clash>
0.0000

> <Gold.PLP.ligand.torsion>
0.6398

> <Gold.PLP.Chemscore.Hbond>
3.9694

> <Gold.PLP.Chemscore.CHOScore>
0.2505

> <Gold.PLP.Chemscore.Metal>
0.0000

> <Gold.Chemscore.Hbonds>
donor molecule, donor type, donor heavy atom, donor atom, acceptor molecule, acceptor atom, score
      L1  H     1    20       P1  7957  0.71
      L1  H     1    21       P1  7949  1.00
      L1  H    15    28       P1  8028  0.96
      P1  H  7989  7998       L1     8  0.30
      P1  H 10752 10764       L1     3  0.84
      L1  C     9    23       P1  8028  0.12

> <Gold.PLP.Chemscore.Internal.Correction>
0.0332

> <Gold.Rescore>
     Score         DG    S(hbond)    S(metal)    S(lipo)     H(rot)  DE(clash)    DE(int)     intcor
     10.99     -12.70       2.87        0.00      49.45       3.19       0.87       0.84       ----

> <Gold.Chemscore.Fitness>
10.9919

> <Gold.Chemscore.DG>
-12.6999

> <Gold.Chemscore.ZeroCoef>
-5.4800

> <Gold.Chemscore.Hbond>
2.8747

> <Gold.Chemscore.Metal>
0.0000

> <Gold.Chemscore.Lipo>
49.4455

> <Gold.Chemscore.Internal_Hbond>
0.0000

> <Gold.Chemscore.DEClash>
0.8703

> <Gold.Chemscore.DEInternal>
0.8377

> <Gold.Chemscore.Rot>
3.1901

> <Gold.Chemscore.Internal.Correction>
   9.000000E+99

> <Gold.Chemscore.Hbonds>
donor molecule, donor type, donor heavy atom, donor atom, acceptor molecule, acceptor atom, score
      L1  H     1    20       P1  7957  0.41
      L1  H     1    21       P1  7949  0.25
      L1  H    15    28       P1  8028  0.65
      P1  H  7989  7998       L1     8  0.01
      P1  H 10752 10764       L1     3  0.18

> <Gold.Chemscore.Hbond.Weighted>
-9.6015

> <Gold.Chemscore.Metal.Weighted>
-0.0000

> <Gold.Chemscore.Lipo.Weighted>
-5.7851

> <Gold.Chemscore.Internal_Hbond.Weighted>
0.0000

> <Gold.Chemscore.DEClash.Weighted>
0.8703

> <Gold.Chemscore.DEInternal.Weighted>
0.8377

> <Gold.Chemscore.Rot.Weighted>
8.1667

> <Gold.Chemscore.Internal.Correction.Weighted>
   9.000000E+99

> <Gold.Protein.RotatedTorsions>
[ 6907 6896 6895 6894 ] final   39.95 input  -60.11 | X-H torsion
[ 7974 7965 7964 7962 ] final -124.83 input  175.53 | X-H torsion
[ 8008 7997 7996 7995 ] final -120.39 input   59.86 | X-H torsion
[ 10167 10162 10161 10158 ] final  -21.68 input  -65.29 | X-H torsion
[ 10718 10713 10712 10709 ] final   47.77 input   66.30 | X-H torsion
[ 10763 10752 10751 10750 ] final  -62.48 input  -60.55 | X-H torsion
[ 11005 11000 10999 10996 ] final -121.23 input  -57.11 | X-H torsion

> <Gold.Protein.ActiveResidues>
 VAL166  LYS551  ARG553  GLY616  TRP617  ASP618  TYR619  PRO620  LYS621  CYS622 
 ASP623  PHE694  ASN695  SER759  ASP760  ASP761  ALA762  ILE779  LEU786  VAL792 
 PHE793  MET794  SER795  GLU796  ALA797  LYS798  CYS799  TRP800  GLU811  SER814 

> <Gold.Protein.RotatedAtoms>
  152.1763  134.8792  160.0530 H   0  0  0  0  0  0  0  0  0  0  0  0  # atno 6907 bound_to 6896
  151.9733  133.3728  159.4088 H   0  0  0  0  0  0  0  0  0  0  0  0  # atno 6908 bound_to 6896
  150.6910  134.4039  159.5175 H   0  0  0  0  0  0  0  0  0  0  0  0  # atno 6909 bound_to 6896
  145.0039  140.7846  143.4479 H   0  0  0  0  0  0  0  0  0  0  0  0  # atno 7974 bound_to 7965
  155.1310  140.0400  157.2775 H   0  0  0  0  0  0  0  0  0  0  0  0  # atno 8008 bound_to 7997
  154.6542  140.2576  155.7153 H   0  0  0  0  0  0  0  0  0  0  0  0  # atno 8009 bound_to 7997
  156.2591  140.2830  156.0989 H   0  0  0  0  0  0  0  0  0  0  0  0  # atno 8010 bound_to 7997
  140.7283  143.4605  151.0386 H   0  0  0  0  0  0  0  0  0  0  0  0  # atno 10167 bound_to 10162
  157.4619  130.8201  149.7895 H   0  0  0  0  0  0  0  0  0  0  0  0  # atno 10718 bound_to 10713
  154.3005  135.6235  153.5422 H   0  0  0  0  0  0  0  0  0  0  0  0  # atno 10763 bound_to 10752
  152.9841  135.5677  154.5290 H   0  0  0  0  0  0  0  0  0  0  0  0  # atno 10764 bound_to 10752
  154.4919  135.2868  155.1466 H   0  0  0  0  0  0  0  0  0  0  0  0  # atno 10765 bound_to 10752
  141.0085  134.0299  157.3445 H   0  0  0  0  0  0  0  0  0  0  0  0  # atno 11005 bound_to 11000
  145.2115  139.2202  143.5141 LP  0  0  0  0  0  0  0  0  0  0  0  0  # atno 17320 bound_to 7965
  146.3457  140.1953  142.8589 LP  0  0  0  0  0  0  0  0  0  0  0  0  # atno 17321 bound_to 7965
  139.8289  143.7717  152.3179 LP  0  0  0  0  0  0  0  0  0  0  0  0  # atno 17342 bound_to 10162
  139.7826  144.7439  151.0066 LP  0  0  0  0  0  0  0  0  0  0  0  0  # atno 17343 bound_to 10162
  156.0032  130.3869  150.2526 LP  0  0  0  0  0  0  0  0  0  0  0  0  # atno 17370 bound_to 10713
  157.0704  131.0115  151.3192 LP  0  0  0  0  0  0  0  0  0  0  0  0  # atno 17371 bound_to 10713
  139.9076  135.0183  156.7556 LP  0  0  0  0  0  0  0  0  0  0  0  0  # atno 17394 bound_to 11000
  140.6773  133.9506  155.7890 LP  0  0  0  0  0  0  0  0  0  0  0  0  # atno 17395 bound_to 11000

$$$$
