AV-unprocessed.smi:2660|AV-procd|sdf|10315|dock7
  -GOLD-   2272014333D 1   1.00000     0.00000
 Structure written by MMmdl.
 36 37  0  0  0  0  0  0  0  0  1 V2000
  146.2214  141.0146  153.5501 N   0  0  0  0  0  0  0  0  0  0  0  0
  147.0878  141.4231  154.4855 C   0  0  0  0  0  0  0  0  0  0  0  0
  146.8218  142.4308  155.1405 O   0  0  0  0  0  0  0  0  0  0  0  0
  148.2938  140.5738  154.6090 C   0  0  0  0  0  0  0  0  0  0  0  0
  148.5081  139.4895  153.8300 C   0  0  0  0  0  0  0  0  0  0  0  0
  149.6896  138.6893  153.9995 C   0  0  0  0  0  0  0  0  0  0  0  0
  150.6406  139.0649  154.8750 C   0  0  0  0  0  0  0  0  0  0  0  0
  151.8474  138.1608  155.1570 C   0  0  0  0  0  0  0  0  0  0  0  0
  151.7620  137.0144  154.4808 F   0  0  0  0  0  0  0  0  0  0  0  0
  152.9862  138.7431  154.7862 F   0  0  0  0  0  0  0  0  0  0  0  0
  151.9166  137.8361  156.4490 F   0  0  0  0  0  0  0  0  0  0  0  0
  150.4710  140.2643  155.6352 N   0  0  0  0  0  0  0  0  0  0  0  0
  151.5913  140.8138  156.4422 C   0  0  0  0  0  0  0  0  0  0  0  0
  151.2874  140.8641  157.9628 C   0  0  1  0  0  0  0  0  0  0  0  0
  151.9646  139.7920  158.5882 O   0  0  0  0  0  0  0  0  0  0  0  0
  151.6042  142.2133  158.5986 C   0  0  0  0  0  0  0  0  0  0  0  0
  151.0459  143.4062  158.0868 C   0  0  0  0  0  0  0  0  0  0  0  0
  151.3361  144.6445  158.6916 C   0  0  0  0  0  0  0  0  0  0  0  0
  152.1879  144.6999  159.8109 C   0  0  0  0  0  0  0  0  0  0  0  0
  152.7507  143.5160  160.3242 C   0  0  0  0  0  0  0  0  0  0  0  0
  152.4616  142.2779  159.7188 C   0  0  0  0  0  0  0  0  0  0  0  0
  149.2959  140.9803  155.6271 C   0  0  0  0  0  0  0  0  0  0  0  0
  149.1351  141.9156  156.4169 O   0  0  0  0  0  0  0  0  0  0  0  0
  145.3685  141.5336  153.3994 H   0  0  0  0  0  0  0  0  0  0  0  0
  146.4194  140.1909  153.0016 H   0  0  0  0  0  0  0  0  0  0  0  0
  147.8060  139.1797  153.0703 H   0  0  0  0  0  0  0  0  0  0  0  0
  149.7766  137.7686  153.4422 H   0  0  0  0  0  0  0  0  0  0  0  0
  152.4849  140.2113  156.2671 H   0  0  0  0  0  0  0  0  0  0  0  0
  151.8969  141.8091  156.1399 H   0  0  0  0  0  0  0  0  0  0  0  0
  150.2290  140.6678  158.1337 H   0  0  0  0  0  0  0  0  0  0  0  0
  151.3592  139.3485  159.1621 H   0  0  0  0  0  0  0  0  0  0  0  0
  150.3834  143.3781  157.2343 H   0  0  0  0  0  0  0  0  0  0  0  0
  150.9026  145.5520  158.2978 H   0  0  0  0  0  0  0  0  0  0  0  0
  152.4097  145.6496  160.2747 H   0  0  0  0  0  0  0  0  0  0  0  0
  153.4042  143.5576  161.1830 H   0  0  0  0  0  0  0  0  0  0  0  0
  152.8967  141.3750  160.1219 H   0  0  0  0  0  0  0  0  0  0  0  0
  1  2  1  0  0  0  0
  1 24  1  0  0  0  0
  1 25  1  0  0  0  0
  2  3  2  0  0  0  0
  2  4  1  0  0  0  0
  4 22  1  0  0  0  0
  4  5  2  0  0  0  0
  5  6  1  0  0  0  0
  5 26  1  0  0  0  0
  6  7  2  0  0  0  0
  6 27  1  0  0  0  0
  7  8  1  0  0  0  0
  7 12  1  0  0  0  0
  8  9  1  0  0  0  0
  8 10  1  0  0  0  0
  8 11  1  0  0  0  0
 12 13  1  0  0  0  0
 12 22  1  0  0  0  0
 13 14  1  0  0  0  0
 13 28  1  0  0  0  0
 13 29  1  0  0  0  0
 14 15  1  0  0  0  0
 14 16  1  0  0  0  0
 14 30  1  0  0  0  0
 15 31  1  0  0  0  0
 16 21  1  0  0  0  0
 16 17  2  0  0  0  0
 17 18  1  0  0  0  0
 17 32  1  0  0  0  0
 18 19  2  0  0  0  0
 18 33  1  0  0  0  0
 19 20  1  0  0  0  0
 19 34  1  0  0  0  0
 20 21  2  0  0  0  0
 20 35  1  0  0  0  0
 21 36  1  0  0  0  0
 22 23  2  0  0  0  0
M  END
> <s_m_source_file>
AV-unprocessed.smi

> <i_m_source_file_index>
2660

> <i_lp_mmshare_version>
43012

> <i_f3d_flags>
0

> <s_epik_input>
W05IMl1DKD1PKWMxW2NIXVtjSF1jKEMoRikoRilGKW4oYzE9TylbQ0gyXVtDQEhdKFtPSF0pYzJbY0hdW2NIXVtjSF1bY0hdW2NIXTI=

> <s_epik_cmdline>
J2VwaWtfcHl0aG9uJywgJy1waCcsICc3LjAnLCAnLXRuJywgJzgnLCAnLW1hJywgJzIwMCcsICctbWV0YWxfYmluZGluZycsICctaW1hZScsICc8aW5maWxlLm1hZT4nLCAnLW9tYWUnLCAnPG91dGZpbGUubWFlPic=

> <r_lp_tautomer_probability>
1

> <r_epik_Ionization_Penalty>
1.58596e-06

> <r_epik_Ionization_Penalty_Charging>
5.13453e-09

> <r_epik_Ionization_Penalty_Neutral>
1.58083e-06

> <r_epik_State_Penalty>
-0

> <r_epik_Charging_Adjusted_Penalty>
5.13453e-09

> <i_epik_Tot_Q>
0

> <i_epik_Tot_abs_Q>
0

> <r_epik_Metal_State_Penalty>
-0

> <b_epik_Metal_Only>
0

> <s_lp_Force_Field>
OPLS_2005

> <r_lp_Energy>
32.13

> <b_lp_Chiralities_Consistent>
1

> <s_lp_Variant>
AV-unprocessed.smi:2660-2

> <Gold.Version>
5.8.1

> <Gold.Id.Protein>
6NUR|6NUR_protein|mol2

> <Gold.PLP.Fitness>
42.6790

> <Gold.PLP.PLP>
-43.4303

> <Gold.PLP.part.hbond>
-1.0000

> <Gold.PLP.part.metal>
0.0000

> <Gold.PLP.part.buried>
-1.3405

> <Gold.PLP.part.nonpolar>
-44.0372

> <Gold.PLP.part.repulsive>
2.4309

> <Gold.PLP.ligand.clash>
1.8113

> <Gold.PLP.ligand.torsion>
0.7885

> <Gold.PLP.Chemscore.Hbond>
0.1966

> <Gold.PLP.Chemscore.CHOScore>
0.0000

> <Gold.PLP.Chemscore.Metal>
0.0000

> <Gold.Chemscore.Hbonds>
donor molecule, donor type, donor heavy atom, donor atom, acceptor molecule, acceptor atom, score
      L1  H     1    24       P1 10175  0.17

> <Gold.PLP.Chemscore.Internal.Correction>
2.0474

> <Gold.Rescore>
     Score         DG    S(hbond)    S(metal)    S(lipo)     H(rot)  DE(clash)    DE(int)     intcor
      7.72     -15.38       0.95        0.00     105.81       2.21       1.53       6.13       ----

> <Gold.Chemscore.Fitness>
7.7156

> <Gold.Chemscore.DG>
-15.3849

> <Gold.Chemscore.ZeroCoef>
-5.4800

> <Gold.Chemscore.Hbond>
0.9519

> <Gold.Chemscore.Metal>
0.0000

> <Gold.Chemscore.Lipo>
105.8082

> <Gold.Chemscore.Internal_Hbond>
0.0000

> <Gold.Chemscore.DEClash>
1.5349

> <Gold.Chemscore.DEInternal>
6.1344

> <Gold.Chemscore.Rot>
2.2086

> <Gold.Chemscore.Internal.Correction>
   9.000000E+99

> <Gold.Chemscore.Hbonds>
donor molecule, donor type, donor heavy atom, donor atom, acceptor molecule, acceptor atom, score
      L1  H     1    24       P1 10175  0.02

> <Gold.Chemscore.Hbond.Weighted>
-3.1793

> <Gold.Chemscore.Metal.Weighted>
-0.0000

> <Gold.Chemscore.Lipo.Weighted>
-12.3796

> <Gold.Chemscore.Internal_Hbond.Weighted>
0.0000

> <Gold.Chemscore.DEClash.Weighted>
1.5349

> <Gold.Chemscore.DEInternal.Weighted>
6.1344

> <Gold.Chemscore.Rot.Weighted>
5.6540

> <Gold.Chemscore.Internal.Correction.Weighted>
   9.000000E+99

> <Gold.Protein.RotatedTorsions>
[ 6907 6896 6895 6894 ] final   44.53 input  -60.11 | X-H torsion
[ 7974 7965 7964 7962 ] final   48.27 input  175.53 | X-H torsion
[ 8008 7997 7996 7995 ] final -178.68 input   59.86 | X-H torsion
[ 10167 10162 10161 10158 ] final   -0.02 input  -65.29 | X-H torsion
[ 10718 10713 10712 10709 ] final   44.53 input   66.30 | X-H torsion
[ 10763 10752 10751 10750 ] final   96.10 input  -60.55 | X-H torsion
[ 11005 11000 10999 10996 ] final -142.97 input  -57.11 | X-H torsion

> <Gold.Protein.ActiveResidues>
 VAL166  LYS551  ARG553  GLY616  TRP617  ASP618  TYR619  PRO620  LYS621  CYS622 
 ASP623  PHE694  ASN695  SER759  ASP760  ASP761  ALA762  ILE779  LEU786  VAL792 
 PHE793  MET794  SER795  GLU796  ALA797  LYS798  CYS799  TRP800  GLU811  SER814 

> <Gold.Protein.RotatedAtoms>
  152.2336  134.8298  160.0469 H   0  0  0  0  0  0  0  0  0  0  0  0  # atno 6907 bound_to 6896
  151.9038  133.3539  159.3848 H   0  0  0  0  0  0  0  0  0  0  0  0  # atno 6908 bound_to 6896
  150.7033  134.4727  159.5477 H   0  0  0  0  0  0  0  0  0  0  0  0  # atno 6909 bound_to 6896
  146.0220  139.4662  142.9891 H   0  0  0  0  0  0  0  0  0  0  0  0  # atno 7974 bound_to 7965
  156.0216  140.1262  157.0351 H   0  0  0  0  0  0  0  0  0  0  0  0  # atno 8008 bound_to 7997
  154.4314  140.1067  156.6042 H   0  0  0  0  0  0  0  0  0  0  0  0  # atno 8009 bound_to 7997
  155.5936  140.3469  155.4575 H   0  0  0  0  0  0  0  0  0  0  0  0  # atno 8010 bound_to 7997
  140.6749  143.6945  150.8001 H   0  0  0  0  0  0  0  0  0  0  0  0  # atno 10167 bound_to 10162
  157.4278  130.8007  149.7575 H   0  0  0  0  0  0  0  0  0  0  0  0  # atno 10718 bound_to 10713
  153.2609  135.4230  155.0893 H   0  0  0  0  0  0  0  0  0  0  0  0  # atno 10763 bound_to 10752
  154.8420  135.3449  154.6378 H   0  0  0  0  0  0  0  0  0  0  0  0  # atno 10764 bound_to 10752
  153.6799  135.7039  153.5178 H   0  0  0  0  0  0  0  0  0  0  0  0  # atno 10765 bound_to 10752
  140.8172  134.2674  157.4916 H   0  0  0  0  0  0  0  0  0  0  0  0  # atno 11005 bound_to 11000
  145.7178  141.0085  143.1419 LP  0  0  0  0  0  0  0  0  0  0  0  0  # atno 17320 bound_to 7965
  144.6994  139.8834  143.7448 LP  0  0  0  0  0  0  0  0  0  0  0  0  # atno 17321 bound_to 7965
  140.0636  143.5130  152.2615 LP  0  0  0  0  0  0  0  0  0  0  0  0  # atno 17342 bound_to 10162
  139.6036  144.7590  151.3115 LP  0  0  0  0  0  0  0  0  0  0  0  0  # atno 17343 bound_to 10162
  155.9902  130.3946  150.3037 LP  0  0  0  0  0  0  0  0  0  0  0  0  # atno 17370 bound_to 10713
  157.1191  131.0242  151.3017 LP  0  0  0  0  0  0  0  0  0  0  0  0  # atno 17371 bound_to 10713
  139.8710  134.9515  156.4088 LP  0  0  0  0  0  0  0  0  0  0  0  0  # atno 17394 bound_to 11000
  140.9137  133.7694  155.9822 LP  0  0  0  0  0  0  0  0  0  0  0  0  # atno 17395 bound_to 11000

$$$$
