AV-unprocessed.smi:253|AV-procd|sdf|1944|dock2
  -GOLD-   2262021 73D 1   1.00000     0.00000
 Structure written by MMmdl.
 52 54  0  0  0  0  0  0  0  0  1 V2000
  153.4153  125.6167  153.6783 C   0  0  0  0  0  0  0  0  0  0  0  0
  153.8610  126.8667  154.4476 C   0  0  0  0  0  0  0  0  0  0  0  0
  152.8904  127.9464  154.3196 N   0  0  0  0  0  0  0  0  0  0  0  0
  152.1968  128.4930  155.3328 C   0  0  0  0  0  0  0  0  0  0  0  0
  152.3176  128.1216  156.4996 O   0  0  0  0  0  0  0  0  0  0  0  0
  151.2099  129.6253  155.0094 C   0  0  0  0  0  0  0  0  0  0  0  0
  151.5106  130.8950  155.6866 N   0  0  0  0  0  0  0  0  0  0  0  0
  152.8980  131.1651  156.0664 C   0  0  0  0  0  0  0  0  0  0  0  0
  153.1598  131.0175  157.5746 C   0  0  0  0  0  0  0  0  0  0  0  0
  150.6853  131.9234  155.3643 C   0  0  0  0  0  0  0  0  0  0  0  0
  151.0059  133.1491  155.8524 N   0  0  0  0  0  0  0  0  0  0  0  0
  150.2396  134.2075  155.5757 C   0  0  0  0  0  0  0  0  0  0  0  0
  149.1224  134.2605  154.8489 N   0  0  0  0  0  0  0  0  0  0  0  0
  148.7848  133.0293  154.3696 C   0  0  0  0  0  0  0  0  0  0  0  0
  149.5016  131.8160  154.5769 C   0  0  0  0  0  0  0  0  0  0  0  0
  148.8403  130.7690  153.9444 N   0  0  0  0  0  0  0  0  0  0  0  0
  147.8023  131.3313  153.3887 C   0  0  0  0  0  0  0  0  0  0  0  0
  147.6877  132.6862  153.5988 N   0  0  0  0  0  0  0  0  0  0  0  0
  146.6329  133.5586  153.1054 C   0  0  0  0  0  0  0  0  0  0  0  0
  146.1200  133.1858  151.6922 C   0  0  0  0  0  0  0  0  0  0  0  0
  147.2473  133.0907  150.8382 O   0  0  0  0  0  0  0  0  0  0  0  0
  145.3727  131.8344  151.6660 C   0  0  0  0  0  0  0  0  0  0  0  0
  144.6933  131.5742  150.3097 C   0  0  0  0  0  0  0  0  0  0  0  0
  143.8287  132.6544  149.9796 O   0  0  0  0  0  0  0  0  0  0  0  0
  144.5226  133.8858  149.8222 C   0  0  0  0  0  0  0  0  0  0  0  0
  145.1886  134.2884  151.1500 C   0  0  0  0  0  0  0  0  0  0  0  0
  154.1663  124.8299  153.7502 H   0  0  0  0  0  0  0  0  0  0  0  0
  153.2650  125.8375  152.6212 H   0  0  0  0  0  0  0  0  0  0  0  0
  152.4806  125.2194  154.0747 H   0  0  0  0  0  0  0  0  0  0  0  0
  154.0272  126.6278  155.4991 H   0  0  0  0  0  0  0  0  0  0  0  0
  154.8147  127.2199  154.0555 H   0  0  0  0  0  0  0  0  0  0  0  0
  152.7352  128.3139  153.3916 H   0  0  0  0  0  0  0  0  0  0  0  0
  151.2130  129.7807  153.9296 H   0  0  0  0  0  0  0  0  0  0  0  0
  150.2022  129.2828  155.2533 H   0  0  0  0  0  0  0  0  0  0  0  0
  153.5392  130.4567  155.5405 H   0  0  0  0  0  0  0  0  0  0  0  0
  153.1985  132.1526  155.7172 H   0  0  0  0  0  0  0  0  0  0  0  0
  154.2183  131.1562  157.7946 H   0  0  0  0  0  0  0  0  0  0  0  0
  152.8772  130.0242  157.9242 H   0  0  0  0  0  0  0  0  0  0  0  0
  152.6079  131.7492  158.1640 H   0  0  0  0  0  0  0  0  0  0  0  0
  150.5686  135.1459  155.9972 H   0  0  0  0  0  0  0  0  0  0  0  0
  147.0818  130.7686  152.8129 H   0  0  0  0  0  0  0  0  0  0  0  0
  145.8099  133.5311  153.8207 H   0  0  0  0  0  0  0  0  0  0  0  0
  147.0060  134.5838  153.1152 H   0  0  0  0  0  0  0  0  0  0  0  0
  147.5903  132.2117  150.8911 H   0  0  0  0  0  0  0  0  0  0  0  0
  146.0475  131.0101  151.9005 H   0  0  0  0  0  0  0  0  0  0  0  0
  144.6064  131.8329  152.4422 H   0  0  0  0  0  0  0  0  0  0  0  0
  145.4324  131.4309  149.5202 H   0  0  0  0  0  0  0  0  0  0  0  0
  144.1054  130.6576  150.3591 H   0  0  0  0  0  0  0  0  0  0  0  0
  145.2584  133.8026  149.0211 H   0  0  0  0  0  0  0  0  0  0  0  0
  143.8101  134.6522  149.5165 H   0  0  0  0  0  0  0  0  0  0  0  0
  144.4036  134.4878  151.8807 H   0  0  0  0  0  0  0  0  0  0  0  0
  145.7341  135.2249  151.0262 H   0  0  0  0  0  0  0  0  0  0  0  0
  1  2  1  0  0  0  0
  1 27  1  0  0  0  0
  1 28  1  0  0  0  0
  1 29  1  0  0  0  0
  2  3  1  0  0  0  0
  2 30  1  0  0  0  0
  2 31  1  0  0  0  0
  3  4  1  0  0  0  0
  3 32  1  0  0  0  0
  4  5  2  0  0  0  0
  4  6  1  0  0  0  0
  6  7  1  0  0  0  0
  6 33  1  0  0  0  0
  6 34  1  0  0  0  0
  7  8  1  0  0  0  0
  7 10  1  0  0  0  0
  8  9  1  0  0  0  0
  8 35  1  0  0  0  0
  8 36  1  0  0  0  0
  9 37  1  0  0  0  0
  9 38  1  0  0  0  0
  9 39  1  0  0  0  0
 10 15  1  0  0  0  0
 10 11  2  0  0  0  0
 11 12  1  0  0  0  0
 12 13  2  0  0  0  0
 12 40  1  0  0  0  0
 13 14  1  0  0  0  0
 14 18  1  0  0  0  0
 14 15  2  0  0  0  0
 15 16  1  0  0  0  0
 16 17  2  0  0  0  0
 17 18  1  0  0  0  0
 17 41  1  0  0  0  0
 18 19  1  0  0  0  0
 19 20  1  0  0  0  0
 19 42  1  0  0  0  0
 19 43  1  0  0  0  0
 20 26  1  0  0  0  0
 20 21  1  0  0  0  0
 20 22  1  0  0  0  0
 21 44  1  0  0  0  0
 22 23  1  0  0  0  0
 22 45  1  0  0  0  0
 22 46  1  0  0  0  0
 23 24  1  0  0  0  0
 23 47  1  0  0  0  0
 23 48  1  0  0  0  0
 24 25  1  0  0  0  0
 25 26  1  0  0  0  0
 25 49  1  0  0  0  0
 25 50  1  0  0  0  0
 26 51  1  0  0  0  0
 26 52  1  0  0  0  0
M  END
> <s_m_source_file>
AV-unprocessed.smi

> <i_m_source_file_index>
253

> <i_lp_mmshare_version>
43012

> <i_f3d_flags>
0

> <s_epik_input>
W0NIM11bQ0gyXVtOSF1DKD1PKVtDSDJdTihbQ0gyXVtDSDNdKWMobltjSF1uMSljKGMxMiluW2NIXW4yW0NIMl1DMyhbT0hdKVtDSDJdW0NIMl1PW0NIMl1bQ0gyXTM=

> <s_epik_cmdline>
J2VwaWtfcHl0aG9uJywgJy1waCcsICc3LjAnLCAnLXRuJywgJzgnLCAnLW1hJywgJzIwMCcsICctbWV0YWxfYmluZGluZycsICctaW1hZScsICc8aW5maWxlLm1hZT4nLCAnLW9tYWUnLCAnPG91dGZpbGUubWFlPic=

> <r_lp_tautomer_probability>
1

> <r_epik_Ionization_Penalty>
0.000710585

> <r_epik_Ionization_Penalty_Charging>
0

> <r_epik_Ionization_Penalty_Neutral>
0.000710585

> <r_epik_State_Penalty>
0.000343566

> <r_epik_Charging_Adjusted_Penalty>
0.000343566

> <i_epik_Tot_Q>
0

> <i_epik_Tot_abs_Q>
0

> <r_epik_Metal_State_Penalty>
-0

> <b_epik_Metal_Only>
0

> <s_lp_Force_Field>
OPLS_2005

> <r_lp_Energy>
18.5015

> <b_lp_Chiralities_Consistent>
1

> <s_lp_Variant>
AV-unprocessed.smi:253-1

> <Gold.Version>
5.8.1

> <Gold.Id.Protein>
6NUR|6NUR_protein|mol2

> <Gold.PLP.Fitness>
41.8929

> <Gold.PLP.PLP>
-37.4252

> <Gold.PLP.part.hbond>
-2.0000

> <Gold.PLP.part.metal>
0.0000

> <Gold.PLP.part.buried>
-3.1716

> <Gold.PLP.part.nonpolar>
-31.2836

> <Gold.PLP.part.repulsive>
0.4555

> <Gold.PLP.ligand.clash>
0.0000

> <Gold.PLP.ligand.torsion>
0.8799

> <Gold.PLP.Chemscore.Hbond>
1.7517

> <Gold.PLP.Chemscore.CHOScore>
0.0000

> <Gold.PLP.Chemscore.Metal>
0.0000

> <Gold.Chemscore.Hbonds>
donor molecule, donor type, donor heavy atom, donor atom, acceptor molecule, acceptor atom, score
      L1  H     3    32       P1 10737  0.78
      L1  H    21    44       P1 10747  0.94

> <Gold.PLP.Chemscore.Internal.Correction>
0.9724

> <Gold.Rescore>
     Score         DG    S(hbond)    S(metal)    S(lipo)     H(rot)  DE(clash)    DE(int)     intcor
      7.94     -11.23       1.77        0.00      64.53       3.01       0.04       3.25       ----

> <Gold.Chemscore.Fitness>
7.9414

> <Gold.Chemscore.DG>
-11.2266

> <Gold.Chemscore.ZeroCoef>
-5.4800

> <Gold.Chemscore.Hbond>
1.7691

> <Gold.Chemscore.Metal>
0.0000

> <Gold.Chemscore.Lipo>
64.5276

> <Gold.Chemscore.Internal_Hbond>
0.0000

> <Gold.Chemscore.DEClash>
0.0361

> <Gold.Chemscore.DEInternal>
3.2491

> <Gold.Chemscore.Rot>
3.0125

> <Gold.Chemscore.Internal.Correction>
   9.000000E+99

> <Gold.Chemscore.Hbonds>
donor molecule, donor type, donor heavy atom, donor atom, acceptor molecule, acceptor atom, score
      L1  H     3    32       P1 10737  0.20
      L1  H    21    44       P1 10747  0.86

> <Gold.Chemscore.Hbond.Weighted>
-5.9089

> <Gold.Chemscore.Metal.Weighted>
-0.0000

> <Gold.Chemscore.Lipo.Weighted>
-7.5497

> <Gold.Chemscore.Internal_Hbond.Weighted>
0.0000

> <Gold.Chemscore.DEClash.Weighted>
0.0361

> <Gold.Chemscore.DEInternal.Weighted>
3.2491

> <Gold.Chemscore.Rot.Weighted>
7.7120

> <Gold.Chemscore.Internal.Correction.Weighted>
   9.000000E+99

> <Gold.Protein.RotatedTorsions>
[ 6907 6896 6895 6894 ] final  -17.50 input  -60.11 | X-H torsion
[ 7974 7965 7964 7962 ] final  -71.47 input  175.53 | X-H torsion
[ 8008 7997 7996 7995 ] final  -92.76 input   59.86 | X-H torsion
[ 10167 10162 10161 10158 ] final  -36.49 input  -65.29 | X-H torsion
[ 10718 10713 10712 10709 ] final   82.59 input   66.30 | X-H torsion
[ 10763 10752 10751 10750 ] final   14.11 input  -60.55 | X-H torsion
[ 11005 11000 10999 10996 ] final   76.67 input  -57.11 | X-H torsion

> <Gold.Protein.ActiveResidues>
 VAL166  LYS551  ARG553  GLY616  TRP617  ASP618  TYR619  PRO620  LYS621  CYS622 
 ASP623  PHE694  ASN695  SER759  ASP760  ASP761  ALA762  ILE779  LEU786  VAL792 
 PHE793  MET794  SER795  GLU796  ALA797  LYS798  CYS799  TRP800  GLU811  SER814 

> <Gold.Protein.RotatedAtoms>
  151.2924  135.0745  159.9208 H   0  0  0  0  0  0  0  0  0  0  0  0  # atno 6907 bound_to 6896
  152.5314  133.9918  159.7864 H   0  0  0  0  0  0  0  0  0  0  0  0  # atno 6908 bound_to 6896
  151.0190  133.5843  159.2704 H   0  0  0  0  0  0  0  0  0  0  0  0  # atno 6909 bound_to 6896
  145.6776  140.9199  143.0849 H   0  0  0  0  0  0  0  0  0  0  0  0  # atno 7974 bound_to 7965
  154.7271  140.0505  157.0693 H   0  0  0  0  0  0  0  0  0  0  0  0  # atno 8008 bound_to 7997
  155.0350  140.3162  155.4725 H   0  0  0  0  0  0  0  0  0  0  0  0  # atno 8009 bound_to 7997
  156.2832  140.2143  156.5472 H   0  0  0  0  0  0  0  0  0  0  0  0  # atno 8010 bound_to 7997
  140.7141  143.3405  151.2367 H   0  0  0  0  0  0  0  0  0  0  0  0  # atno 10167 bound_to 10162
  157.6860  131.0054  150.2398 H   0  0  0  0  0  0  0  0  0  0  0  0  # atno 10718 bound_to 10713
  153.1654  135.6803  153.8683 H   0  0  0  0  0  0  0  0  0  0  0  0  # atno 10763 bound_to 10752
  153.8064  135.3149  155.3397 H   0  0  0  0  0  0  0  0  0  0  0  0  # atno 10764 bound_to 10752
  154.7962  135.4806  154.0256 H   0  0  0  0  0  0  0  0  0  0  0  0  # atno 10765 bound_to 10752
  139.9288  134.7620  156.1425 H   0  0  0  0  0  0  0  0  0  0  0  0  # atno 11005 bound_to 11000
  144.7036  139.8654  143.7437 LP  0  0  0  0  0  0  0  0  0  0  0  0  # atno 17320 bound_to 7965
  146.0992  139.3986  143.0357 LP  0  0  0  0  0  0  0  0  0  0  0  0  # atno 17321 bound_to 7965
  139.6912  143.9690  152.2860 LP  0  0  0  0  0  0  0  0  0  0  0  0  # atno 17342 bound_to 10162
  139.9352  144.6716  150.8322 LP  0  0  0  0  0  0  0  0  0  0  0  0  # atno 17343 bound_to 10162
  156.3015  130.3759  149.7746 LP  0  0  0  0  0  0  0  0  0  0  0  0  # atno 17370 bound_to 10713
  156.5375  130.8285  151.3258 LP  0  0  0  0  0  0  0  0  0  0  0  0  # atno 17371 bound_to 10713
  141.0863  133.6732  156.2444 LP  0  0  0  0  0  0  0  0  0  0  0  0  # atno 17394 bound_to 11000
  140.6260  134.5313  157.5554 LP  0  0  0  0  0  0  0  0  0  0  0  0  # atno 17395 bound_to 11000

$$$$
