AV-unprocessed.smi:2030|AV-procd|sdf|8226|dock3
  -GOLD-   2272010493D 1   1.00000     0.00000
 Structure written by MMmdl.
 34 35  0  0  0  0  0  0  0  0  2 V2000
  157.2485  139.2942  159.2375 C   0  0  0  0  0  0  0  0  0  0  0  0
  155.9429  139.6411  159.7946 N   0  0  0  0  0  0  0  0  0  0  0  0
  154.8834  139.4752  158.9277 N   0  0  0  0  0  0  0  0  0  0  0  0
  153.6996  139.9406  159.1805 C   0  0  0  0  0  0  0  0  0  0  0  0
  152.6024  139.7448  158.1857 C   0  0  0  0  0  0  0  0  0  0  0  0
  152.9619  139.3334  157.0756 O   0  0  0  0  0  0  0  0  0  0  0  0
  151.3196  140.0212  158.5664 N   0  5  0  0  0  0  0  0  0  0  0  0
  150.3570  140.8032  157.7901 C   0  0  0  0  0  0  0  0  0  0  0  0
  151.0094  142.1007  157.2570 C   0  0  0  0  0  0  0  0  0  0  0  0
  151.4782  143.0853  158.3270 C   0  0  0  0  0  0  0  0  0  0  0  0
  151.8751  144.3957  157.9742 C   0  0  0  0  0  0  0  0  0  0  0  0
  152.2929  145.2725  158.9935 C   0  0  0  0  0  0  0  0  0  0  0  0
  152.2949  144.8141  160.3246 C   0  0  0  0  0  0  0  0  0  0  0  0
  151.8741  143.4939  160.5783 C   0  0  0  0  0  0  0  0  0  0  0  0
  151.4673  142.6467  159.6097 N   0  0  0  0  0  0  0  0  0  0  0  0
  153.4399  140.7121  160.4627 C   0  0  0  0  0  0  0  0  0  0  0  0
  154.4094  140.3102  161.5918 C   0  0  0  0  0  0  0  0  0  0  0  0
  155.8299  140.0628  161.0778 C   0  0  0  0  0  0  0  0  0  0  0  0
  156.7894  140.2254  161.8322 O   0  0  0  0  0  0  0  0  0  0  0  0
  157.9055  140.1647  159.2316 H   0  0  0  0  0  0  0  0  0  0  0  0
  157.1719  138.9318  158.2110 H   0  0  0  0  0  0  0  0  0  0  0  0
  157.7237  138.5095  159.8278 H   0  0  0  0  0  0  0  0  0  0  0  0
  149.9494  140.2371  156.9512 H   0  0  0  0  0  0  0  0  0  0  0  0
  149.4983  141.0800  158.4031 H   0  0  0  0  0  0  0  0  0  0  0  0
  151.8734  141.8337  156.6477 H   0  0  0  0  0  0  0  0  0  0  0  0
  150.3212  142.6094  156.5800 H   0  0  0  0  0  0  0  0  0  0  0  0
  151.8656  144.7181  156.9434 H   0  0  0  0  0  0  0  0  0  0  0  0
  152.6062  146.2787  158.7582 H   0  0  0  0  0  0  0  0  0  0  0  0
  152.6107  145.4583  161.1315 H   0  0  0  0  0  0  0  0  0  0  0  0
  151.8606  143.1089  161.5873 H   0  0  0  0  0  0  0  0  0  0  0  0
  153.5246  141.7804  160.2612 H   0  0  0  0  0  0  0  0  0  0  0  0
  152.4223  140.5452  160.8175 H   0  0  0  0  0  0  0  0  0  0  0  0
  154.4190  141.0716  162.3725 H   0  0  0  0  0  0  0  0  0  0  0  0
  154.0655  139.3861  162.0578 H   0  0  0  0  0  0  0  0  0  0  0  0
  1  2  1  0  0  0  0
  1 20  1  0  0  0  0
  1 21  1  0  0  0  0
  1 22  1  0  0  0  0
  2 18  1  0  0  0  0
  2  3  1  0  0  0  0
  3  4  2  0  0  0  0
  4  5  1  0  0  0  0
  4 16  1  0  0  0  0
  5  6  2  0  0  0  0
  5  7  1  0  0  0  0
  7  8  1  0  0  0  0
  8  9  1  0  0  0  0
  8 23  1  0  0  0  0
  8 24  1  0  0  0  0
  9 10  1  0  0  0  0
  9 25  1  0  0  0  0
  9 26  1  0  0  0  0
 10 15  1  0  0  0  0
 10 11  2  0  0  0  0
 11 12  1  0  0  0  0
 11 27  1  0  0  0  0
 12 13  2  0  0  0  0
 12 28  1  0  0  0  0
 13 14  1  0  0  0  0
 13 29  1  0  0  0  0
 14 15  2  0  0  0  0
 14 30  1  0  0  0  0
 16 17  1  0  0  0  0
 16 31  1  0  0  0  0
 16 32  1  0  0  0  0
 17 18  1  0  0  0  0
 17 33  1  0  0  0  0
 17 34  1  0  0  0  0
 18 19  2  0  0  0  0
M  CHG  1   7  -1
M  END
> <s_m_source_file>
AV-unprocessed.smi

> <i_m_source_file_index>
2030

> <i_lp_mmshare_version>
43012

> <i_f3d_flags>
0

> <s_epik_input>
Tz1DMVtDSDJdW0NIMl1DKD1OTjFbQ0gzXSlDKD1PKVtOSF1bQ0gyXVtDSDJdYzJbY0hdW2NIXVtjSF1bY0hdbjI=

> <s_epik_cmdline>
J2VwaWtfcHl0aG9uJywgJy1waCcsICc3LjAnLCAnLXRuJywgJzgnLCAnLW1hJywgJzIwMCcsICctbWV0YWxfYmluZGluZycsICctaW1hZScsICc8aW5maWxlLm1hZT4nLCAnLW9tYWUnLCAnPG91dGZpbGUubWFlPic=

> <r_epik_Ionization_Penalty>
5.44594

> <r_epik_Ionization_Penalty_Charging>
5.3715

> <r_epik_Ionization_Penalty_Neutral>
0.0744438

> <r_epik_State_Penalty>
5.38529

> <r_epik_Charging_Adjusted_Penalty>
10.7568

> <i_epik_Tot_Q>
-1

> <i_epik_Tot_abs_Q>
1

> <r_epik_Metal_State_Penalty>
1.42988

> <b_epik_Metal_Only>
1

> <s_epik_Chemistry_Notes>
This compound has an imine and may undergo hydrolysis.

> <s_lp_Force_Field>
OPLS_2005

> <r_lp_Energy>
26.3213

> <b_lp_Chiralities_Consistent>
1

> <s_lp_Variant>
AV-unprocessed.smi:2030-3

> <Gold.Version>
5.8.1

> <Gold.Id.Protein>
6NUR|6NUR_protein|mol2

> <Gold.PLP.Fitness>
42.3758

> <Gold.PLP.PLP>
-39.2127

> <Gold.PLP.part.hbond>
-3.0000

> <Gold.PLP.part.metal>
0.0000

> <Gold.PLP.part.buried>
-3.5221

> <Gold.PLP.part.nonpolar>
-31.2049

> <Gold.PLP.part.repulsive>
0.0000

> <Gold.PLP.ligand.clash>
0.0000

> <Gold.PLP.ligand.torsion>
0.6518

> <Gold.PLP.Chemscore.Hbond>
1.4720

> <Gold.PLP.Chemscore.CHOScore>
0.0000

> <Gold.PLP.Chemscore.Metal>
0.0000

> <Gold.Chemscore.Hbonds>
donor molecule, donor type, donor heavy atom, donor atom, acceptor molecule, acceptor atom, score
      P1  H  7997  8008       L1     6  0.93
      P1  H  7997  8010       L1     3  0.53

> <Gold.PLP.Chemscore.Internal.Correction>
0.0507

> <Gold.Rescore>
     Score         DG    S(hbond)    S(metal)    S(lipo)     H(rot)  DE(clash)    DE(int)     intcor
     15.53     -17.35       1.16        0.00      99.53       1.42       0.03       1.80       ----

> <Gold.Chemscore.Fitness>
15.5277

> <Gold.Chemscore.DG>
-17.3542

> <Gold.Chemscore.ZeroCoef>
-5.4800

> <Gold.Chemscore.Hbond>
1.1554

> <Gold.Chemscore.Metal>
0.0000

> <Gold.Chemscore.Lipo>
99.5264

> <Gold.Chemscore.Internal_Hbond>
0.0000

> <Gold.Chemscore.DEClash>
0.0291

> <Gold.Chemscore.DEInternal>
1.7974

> <Gold.Chemscore.Rot>
1.4178

> <Gold.Chemscore.Internal.Correction>
   9.000000E+99

> <Gold.Chemscore.Hbonds>
donor molecule, donor type, donor heavy atom, donor atom, acceptor molecule, acceptor atom, score
      P1  H  7997  8008       L1     6  0.86
      P1  H  7997  8010       L1     3  0.11

> <Gold.Chemscore.Hbond.Weighted>
-3.8591

> <Gold.Chemscore.Metal.Weighted>
-0.0000

> <Gold.Chemscore.Lipo.Weighted>
-11.6446

> <Gold.Chemscore.Internal_Hbond.Weighted>
0.0000

> <Gold.Chemscore.DEClash.Weighted>
0.0291

> <Gold.Chemscore.DEInternal.Weighted>
1.7974

> <Gold.Chemscore.Rot.Weighted>
3.6295

> <Gold.Chemscore.Internal.Correction.Weighted>
   9.000000E+99

> <Gold.Protein.RotatedTorsions>
[ 6907 6896 6895 6894 ] final  142.74 input  -60.11 | X-H torsion
[ 7974 7965 7964 7962 ] final  -16.31 input  175.53 | X-H torsion
[ 8008 7997 7996 7995 ] final  -39.51 input   59.86 | X-H torsion
[ 10167 10162 10161 10158 ] final  136.56 input  -65.29 | X-H torsion
[ 10718 10713 10712 10709 ] final  161.22 input   66.30 | X-H torsion
[ 10763 10752 10751 10750 ] final -165.03 input  -60.55 | X-H torsion
[ 11005 11000 10999 10996 ] final   13.91 input  -57.11 | X-H torsion

> <Gold.Protein.ActiveResidues>
 VAL166  LYS551  ARG553  GLY616  TRP617  ASP618  TYR619  PRO620  LYS621  CYS622 
 ASP623  PHE694  ASN695  SER759  ASP760  ASP761  ALA762  ILE779  LEU786  VAL792 
 PHE793  MET794  SER795  GLU796  ALA797  LYS798  CYS799  TRP800  GLU811  SER814 

> <Gold.Protein.RotatedAtoms>
  152.2150  133.4940  159.5130 H   0  0  0  0  0  0  0  0  0  0  0  0  # atno 6907 bound_to 6896
  150.6999  134.1417  159.4116 H   0  0  0  0  0  0  0  0  0  0  0  0  # atno 6908 bound_to 6896
  151.9337  135.0245  160.0581 H   0  0  0  0  0  0  0  0  0  0  0  0  # atno 6909 bound_to 6896
  146.1993  140.3618  142.8429 H   0  0  0  0  0  0  0  0  0  0  0  0  # atno 7974 bound_to 7965
  154.4022  140.1549  156.2876 H   0  0  0  0  0  0  0  0  0  0  0  0  # atno 8008 bound_to 7997
  155.8814  140.3443  155.5868 H   0  0  0  0  0  0  0  0  0  0  0  0  # atno 8009 bound_to 7997
  155.7663  140.0824  157.2121 H   0  0  0  0  0  0  0  0  0  0  0  0  # atno 8010 bound_to 7997
  139.5175  144.6458  151.5444 H   0  0  0  0  0  0  0  0  0  0  0  0  # atno 10167 bound_to 10162
  157.1395  131.0537  151.2333 H   0  0  0  0  0  0  0  0  0  0  0  0  # atno 10718 bound_to 10713
  154.6971  135.2981  154.9395 H   0  0  0  0  0  0  0  0  0  0  0  0  # atno 10763 bound_to 10752
  154.0339  135.6666  153.4787 H   0  0  0  0  0  0  0  0  0  0  0  0  # atno 10764 bound_to 10752
  153.0654  135.5091  154.8095 H   0  0  0  0  0  0  0  0  0  0  0  0  # atno 10765 bound_to 10752
  140.4754  134.0988  155.7740 H   0  0  0  0  0  0  0  0  0  0  0  0  # atno 11005 bound_to 11000
  144.8648  140.7190  143.6084 LP  0  0  0  0  0  0  0  0  0  0  0  0  # atno 17320 bound_to 7965
  145.3538  139.1699  143.4420 LP  0  0  0  0  0  0  0  0  0  0  0  0  # atno 17321 bound_to 7965
  140.6242  143.9200  150.6551 LP  0  0  0  0  0  0  0  0  0  0  0  0  # atno 17342 bound_to 10162
  140.2483  143.3612  152.1427 LP  0  0  0  0  0  0  0  0  0  0  0  0  # atno 17343 bound_to 10162
  157.4320  130.7496  149.6998 LP  0  0  0  0  0  0  0  0  0  0  0  0  # atno 17370 bound_to 10713
  155.9791  130.4043  150.3605 LP  0  0  0  0  0  0  0  0  0  0  0  0  # atno 17371 bound_to 10713
  141.1557  133.8888  157.1984 LP  0  0  0  0  0  0  0  0  0  0  0  0  # atno 17394 bound_to 11000
  139.9859  135.0082  156.9861 LP  0  0  0  0  0  0  0  0  0  0  0  0  # atno 17395 bound_to 11000

$$$$
