AV-unprocessed.smi:290|AV-procd|sdf|2215|dock7
  -GOLD-   2262022 53D 1   1.00000     0.00000
 Structure written by MMmdl.
 59 62  0  0  0  0  0  0  0  0  2 V2000
  148.3750  141.4305  157.3277 C   0  0  0  0  0  0  0  0  0  0  0  0
  147.4892  141.9676  156.1935 C   0  0  2  0  0  0  0  0  0  0  0  0
  146.1325  141.5733  156.3806 O   0  0  0  0  0  0  0  0  0  0  0  0
  145.5049  141.3558  155.1196 C   0  0  0  0  0  0  0  0  0  0  0  0
  146.5215  141.7947  154.0695 C   0  0  0  0  0  0  0  0  0  0  0  0
  147.8520  141.5264  154.7630 C   0  0  1  0  0  0  0  0  0  0  0  0
  148.8373  142.3848  154.2183 O   0  0  0  0  0  0  0  0  0  0  0  0
  148.3317  140.0532  154.6565 C   0  0  0  0  0  0  0  0  0  0  0  0
  147.4283  139.1950  153.9065 N   0  0  0  0  0  0  0  0  0  0  0  0
  147.1415  139.2709  152.5620 C   0  0  0  0  0  0  0  0  0  0  0  0
  146.2941  138.3809  152.1223 N   0  0  0  0  0  0  0  0  0  0  0  0
  145.9749  137.6326  153.2490 C   0  0  0  0  0  0  0  0  0  0  0  0
  145.1220  136.5203  153.4975 C   0  0  0  0  0  0  0  0  0  0  0  0
  144.3643  135.9048  152.5651 N   0  0  0  0  0  0  0  0  0  0  0  0
  143.4319  134.9129  153.0962 C   0  0  0  0  0  0  0  0  0  0  0  0
  143.3047  133.8275  152.0247 C   0  0  0  0  0  0  0  0  0  0  0  0
  144.6993  133.8692  151.3955 C   0  0  1  0  0  0  0  0  0  0  0  0
  144.9137  133.1316  150.1115 N   0  3  1  0  0  0  0  0  0  0  0  0
  146.1250  132.2758  150.1713 C   0  0  0  0  0  0  0  0  0  0  0  0
  143.7267  132.4015  149.5836 C   0  0  0  0  0  0  0  0  0  0  0  0
  143.5436  132.5671  148.0641 C   0  0  0  0  0  0  0  0  0  0  0  0
  143.3622  133.9291  147.7401 O   0  0  0  0  0  0  0  0  0  0  0  0
  145.0583  135.3688  151.3938 C   0  0  1  0  0  0  0  0  0  0  0  0
  144.6465  136.1701  150.1480 C   0  0  0  0  0  0  0  0  0  0  0  0
  145.0710  136.0245  154.7574 N   0  0  0  0  0  0  0  0  0  0  0  0
  145.7990  136.5884  155.7262 C   0  0  0  0  0  0  0  0  0  0  0  0
  146.6286  137.6314  155.6477 N   0  0  0  0  0  0  0  0  0  0  0  0
  146.6874  138.1253  154.3775 C   0  0  0  0  0  0  0  0  0  0  0  0
  145.3708  133.4262  152.1334 H   0  0  0  0  0  0  0  0  0  0  0  0
  146.1398  135.4688  151.4981 H   0  0  0  0  0  0  0  0  0  0  0  0
  149.4193  141.7020  157.1716 H   0  0  0  0  0  0  0  0  0  0  0  0
  148.3152  140.3453  157.4091 H   0  0  0  0  0  0  0  0  0  0  0  0
  148.0649  141.8458  158.2867 H   0  0  0  0  0  0  0  0  0  0  0  0
  147.4953  143.0585  156.2367 H   0  0  0  0  0  0  0  0  0  0  0  0
  145.2817  140.2931  155.0189 H   0  0  0  0  0  0  0  0  0  0  0  0
  144.5673  141.9066  155.0417 H   0  0  0  0  0  0  0  0  0  0  0  0
  146.3936  141.2925  153.1114 H   0  0  0  0  0  0  0  0  0  0  0  0
  146.4001  142.8643  153.8895 H   0  0  0  0  0  0  0  0  0  0  0  0
  148.7611  143.2298  154.6343 H   0  0  0  0  0  0  0  0  0  0  0  0
  149.3109  140.0051  154.1784 H   0  0  0  0  0  0  0  0  0  0  0  0
  148.4595  139.6236  155.6506 H   0  0  0  0  0  0  0  0  0  0  0  0
  147.5811  140.0156  151.9145 H   0  0  0  0  0  0  0  0  0  0  0  0
  143.8184  134.4820  154.0215 H   0  0  0  0  0  0  0  0  0  0  0  0
  142.4667  135.3682  153.3196 H   0  0  0  0  0  0  0  0  0  0  0  0
  143.0498  132.8523  152.4403 H   0  0  0  0  0  0  0  0  0  0  0  0
  142.5229  134.1152  151.3227 H   0  0  0  0  0  0  0  0  0  0  0  0
  145.9984  131.4751  150.9012 H   0  0  0  0  0  0  0  0  0  0  0  0
  147.0004  132.8607  150.4562 H   0  0  0  0  0  0  0  0  0  0  0  0
  146.3545  131.8248  149.2075 H   0  0  0  0  0  0  0  0  0  0  0  0
  143.8121  131.3435  149.8353 H   0  0  0  0  0  0  0  0  0  0  0  0
  142.8139  132.7532  150.0603 H   0  0  0  0  0  0  0  0  0  0  0  0
  144.3787  132.1606  147.4952 H   0  0  0  0  0  0  0  0  0  0  0  0
  142.6558  132.0221  147.7423 H   0  0  0  0  0  0  0  0  0  0  0  0
  144.1794  134.3841  147.8788 H   0  0  0  0  0  0  0  0  0  0  0  0
  145.1328  135.7924  149.2496 H   0  0  0  0  0  0  0  0  0  0  0  0
  144.9379  137.2156  150.2533 H   0  0  0  0  0  0  0  0  0  0  0  0
  143.5680  136.1514  149.9918 H   0  0  0  0  0  0  0  0  0  0  0  0
  145.7025  136.1407  156.7044 H   0  0  0  0  0  0  0  0  0  0  0  0
  145.1217  133.8471  149.4289 H   0  0  0  0  0  0  0  0  0  0  0  0
  1  2  1  0  0  0  0
  1 31  1  0  0  0  0
  1 32  1  0  0  0  0
  1 33  1  0  0  0  0
  2  6  1  0  0  0  0
  2  3  1  0  0  0  0
  2 34  1  0  0  0  0
  3  4  1  0  0  0  0
  4  5  1  0  0  0  0
  4 35  1  0  0  0  0
  4 36  1  0  0  0  0
  5  6  1  0  0  0  0
  5 37  1  0  0  0  0
  5 38  1  0  0  0  0
  6  7  1  0  0  0  0
  6  8  1  0  0  0  0
  7 39  1  0  0  0  0
  8  9  1  0  0  0  0
  8 40  1  0  0  0  0
  8 41  1  0  0  0  0
  9 28  1  0  0  0  0
  9 10  1  0  0  0  0
 10 11  2  0  0  0  0
 10 42  1  0  0  0  0
 11 12  1  0  0  0  0
 12 28  2  0  0  0  0
 12 13  1  0  0  0  0
 13 14  1  0  0  0  0
 13 25  2  0  0  0  0
 14 23  1  0  0  0  0
 14 15  1  0  0  0  0
 15 16  1  0  0  0  0
 15 43  1  0  0  0  0
 15 44  1  0  0  0  0
 16 17  1  0  0  0  0
 16 45  1  0  0  0  0
 16 46  1  0  0  0  0
 17 29  1  0  0  0  0
 17 18  1  0  0  0  0
 17 23  1  0  0  0  0
 18 19  1  0  0  0  0
 18 20  1  0  0  0  0
 18 59  1  0  0  0  0
 19 47  1  0  0  0  0
 19 48  1  0  0  0  0
 19 49  1  0  0  0  0
 20 21  1  0  0  0  0
 20 50  1  0  0  0  0
 20 51  1  0  0  0  0
 21 22  1  0  0  0  0
 21 52  1  0  0  0  0
 21 53  1  0  0  0  0
 22 54  1  0  0  0  0
 23 30  1  0  0  0  0
 23 24  1  0  0  0  0
 24 55  1  0  0  0  0
 24 56  1  0  0  0  0
 24 57  1  0  0  0  0
 25 26  1  0  0  0  0
 26 27  2  0  0  0  0
 26 58  1  0  0  0  0
 27 28  1  0  0  0  0
M  CHG  1  18   1
M  END
> <s_m_source_file>
AV-unprocessed.smi

> <i_m_source_file_index>
290

> <i_lp_mmshare_version>
43012

> <i_f3d_flags>
0

> <s_epik_input>
W0NIMl0xW0NIMl1PW0NAQEhdKFtDSDNdKVtDQEBdMShbT0hdKVtDSDJdbihbY0hdbjIpYyhjMjMpbltjSF1uYzNONFtDSDJdW0NIMl1bQ0BIXShbQ0BIXTRbQ0gzXSlOKFtDSDNdKVtDSDJdW0NIMl1bT0hd

> <s_epik_cmdline>
J2VwaWtfcHl0aG9uJywgJy1waCcsICc3LjAnLCAnLXRuJywgJzgnLCAnLW1hJywgJzIwMCcsICctbWV0YWxfYmluZGluZycsICctaW1hZScsICc8aW5maWxlLm1hZT4nLCAnLW9tYWUnLCAnPG91dGZpbGUubWFlPic=

> <r_lp_tautomer_probability>
1

> <r_epik_Ionization_Penalty>
0.0036983

> <r_epik_Ionization_Penalty_Charging>
0.0032725

> <r_epik_Ionization_Penalty_Neutral>
0.000425798

> <r_epik_State_Penalty>
-0

> <r_epik_Charging_Adjusted_Penalty>
0.0032725

> <i_epik_Tot_Q>
1

> <i_epik_Tot_abs_Q>
1

> <r_epik_Metal_State_Penalty>
-0

> <b_epik_Metal_Only>
0

> <s_lp_Force_Field>
OPLS_2005

> <r_lp_Energy>
65.3188

> <b_lp_Chiralities_Consistent>
1

> <s_lp_Variant>
AV-unprocessed.smi:290-1

> <Gold.Version>
5.8.1

> <Gold.Id.Protein>
6NUR|6NUR_protein|mol2

> <Gold.PLP.Fitness>
48.0911

> <Gold.PLP.PLP>
-39.0250

> <Gold.PLP.part.hbond>
-6.8149

> <Gold.PLP.part.metal>
0.0000

> <Gold.PLP.part.buried>
4.9798

> <Gold.PLP.part.nonpolar>
-36.9449

> <Gold.PLP.part.repulsive>
0.6657

> <Gold.PLP.ligand.clash>
0.0000

> <Gold.PLP.ligand.torsion>
3.1587

> <Gold.PLP.Chemscore.Hbond>
4.1586

> <Gold.PLP.Chemscore.CHOScore>
0.8505

> <Gold.PLP.Chemscore.Metal>
0.0000

> <Gold.Chemscore.Hbonds>
donor molecule, donor type, donor heavy atom, donor atom, acceptor molecule, acceptor atom, score
      L1  H     7    39       P1  8028  1.00
      L1  H    18    59       P1  7921  0.39
      L1  H    22    54       P1  7921  1.00
      P1  H  8011  8017       L1     7  0.16
      P1  H 10192 10197       L1    22  1.00
      L1  C    10    42       P1  7957  0.95

> <Gold.PLP.Chemscore.Internal.Correction>
0.3562

> <Gold.Rescore>
     Score         DG    S(hbond)    S(metal)    S(lipo)     H(rot)  DE(clash)    DE(int)     intcor
     13.08     -20.10       3.82        0.00      96.09       3.67       3.08       3.94       ----

> <Gold.Chemscore.Fitness>
13.0826

> <Gold.Chemscore.DG>
-20.1003

> <Gold.Chemscore.ZeroCoef>
-5.4800

> <Gold.Chemscore.Hbond>
3.8212

> <Gold.Chemscore.Metal>
0.0000

> <Gold.Chemscore.Lipo>
96.0852

> <Gold.Chemscore.Internal_Hbond>
0.0000

> <Gold.Chemscore.DEClash>
3.0826

> <Gold.Chemscore.DEInternal>
3.9350

> <Gold.Chemscore.Rot>
3.6658

> <Gold.Chemscore.Internal.Correction>
   9.000000E+99

> <Gold.Chemscore.Hbonds>
donor molecule, donor type, donor heavy atom, donor atom, acceptor molecule, acceptor atom, score
      L1  H     7    39       P1  8028  1.00
      L1  H    18    59       P1  7921  0.35
      L1  H    22    54       P1  7921  0.95
      P1  H  8011  8017       L1     7  0.14
      P1  H 10192 10197       L1    22  0.74

> <Gold.Chemscore.Hbond.Weighted>
-12.7627

> <Gold.Chemscore.Metal.Weighted>
-0.0000

> <Gold.Chemscore.Lipo.Weighted>
-11.2420

> <Gold.Chemscore.Internal_Hbond.Weighted>
0.0000

> <Gold.Chemscore.DEClash.Weighted>
3.0826

> <Gold.Chemscore.DEInternal.Weighted>
3.9350

> <Gold.Chemscore.Rot.Weighted>
9.3844

> <Gold.Chemscore.Internal.Correction.Weighted>
   9.000000E+99

> <Gold.Protein.RotatedTorsions>
[ 6907 6896 6895 6894 ] final -127.16 input  -60.11 | X-H torsion
[ 7974 7965 7964 7962 ] final -104.33 input  175.53 | X-H torsion
[ 8008 7997 7996 7995 ] final   55.05 input   59.86 | X-H torsion
[ 10167 10162 10161 10158 ] final  -52.56 input  -65.29 | X-H torsion
[ 10718 10713 10712 10709 ] final  173.43 input   66.30 | X-H torsion
[ 10763 10752 10751 10750 ] final   -0.40 input  -60.55 | X-H torsion
[ 11005 11000 10999 10996 ] final  -34.78 input  -57.11 | X-H torsion

> <Gold.Protein.ActiveResidues>
 VAL166  LYS551  ARG553  GLY616  TRP617  ASP618  TYR619  PRO620  LYS621  CYS622 
 ASP623  PHE694  ASN695  SER759  ASP760  ASP761  ALA762  ILE779  LEU786  VAL792 
 PHE793  MET794  SER795  GLU796  ALA797  LYS798  CYS799  TRP800  GLU811  SER814 

> <Gold.Protein.RotatedAtoms>
  150.9044  133.7076  159.2870 H   0  0  0  0  0  0  0  0  0  0  0  0  # atno 6907 bound_to 6896
  151.4584  135.1035  159.9727 H   0  0  0  0  0  0  0  0  0  0  0  0  # atno 6908 bound_to 6896
  152.4895  133.8414  159.7209 H   0  0  0  0  0  0  0  0  0  0  0  0  # atno 6909 bound_to 6896
  145.2446  140.9217  143.3130 H   0  0  0  0  0  0  0  0  0  0  0  0  # atno 7974 bound_to 7965
  155.4947  140.3472  155.4361 H   0  0  0  0  0  0  0  0  0  0  0  0  # atno 8008 bound_to 7997
  156.0953  140.1421  156.9566 H   0  0  0  0  0  0  0  0  0  0  0  0  # atno 8009 bound_to 7997
  154.4660  140.0917  156.6998 H   0  0  0  0  0  0  0  0  0  0  0  0  # atno 8010 bound_to 7997
  140.6531  143.2579  151.4666 H   0  0  0  0  0  0  0  0  0  0  0  0  # atno 10167 bound_to 10162
  156.9644  131.0070  151.2920 H   0  0  0  0  0  0  0  0  0  0  0  0  # atno 10718 bound_to 10713
  153.3313  135.6975  153.6945 H   0  0  0  0  0  0  0  0  0  0  0  0  # atno 10763 bound_to 10752
  153.5746  135.3509  155.2852 H   0  0  0  0  0  0  0  0  0  0  0  0  # atno 10764 bound_to 10752
  154.8618  135.4280  154.2503 H   0  0  0  0  0  0  0  0  0  0  0  0  # atno 10765 bound_to 10752
  140.9743  133.7092  156.1576 H   0  0  0  0  0  0  0  0  0  0  0  0  # atno 11005 bound_to 11000
  144.9558  139.4033  143.6380 LP  0  0  0  0  0  0  0  0  0  0  0  0  # atno 17320 bound_to 7965
  146.3319  139.8588  142.8860 LP  0  0  0  0  0  0  0  0  0  0  0  0  # atno 17321 bound_to 7965
  139.5749  144.1843  152.1889 LP  0  0  0  0  0  0  0  0  0  0  0  0  # atno 17342 bound_to 10162
  140.1150  144.5423  150.6900 LP  0  0  0  0  0  0  0  0  0  0  0  0  # atno 17343 bound_to 10162
  157.5636  130.8262  149.8298 LP  0  0  0  0  0  0  0  0  0  0  0  0  # atno 17370 bound_to 10713
  156.0309  130.3765  150.1691 LP  0  0  0  0  0  0  0  0  0  0  0  0  # atno 17371 bound_to 10713
  140.7282  134.4284  157.5568 LP  0  0  0  0  0  0  0  0  0  0  0  0  # atno 17394 bound_to 11000
  139.8924  134.8755  156.2271 LP  0  0  0  0  0  0  0  0  0  0  0  0  # atno 17395 bound_to 11000

$$$$
