AV-unprocessed.smi:2226|AV-procd|sdf|9018|dock9
  -GOLD-   2272012223D 1   1.00000     0.00000
 Structure written by MMmdl.
 39 41  0  0  0  0  0  0  0  0  3 V2000
  145.8623  143.1956  153.7834 C   0  0  0  0  0  0  0  0  0  0  0  0
  145.9433  141.7404  154.0537 N   0  3  2  0  0  0  0  0  0  0  0  0
  145.6545  141.3507  155.4552 C   0  0  1  0  0  0  0  0  0  0  0  0
  145.3461  139.8357  155.5003 C   0  0  0  0  0  0  0  0  0  0  0  0
  146.4396  138.9596  154.8560 C   0  0  0  0  0  0  0  0  0  0  0  0
  146.9700  139.5582  153.5372 C   0  0  0  0  0  0  0  0  0  0  0  0
  147.1921  141.0881  153.5898 C   0  0  2  0  0  0  0  0  0  0  0  0
  148.4086  141.5378  154.4359 C   0  0  0  0  0  0  0  0  0  0  0  0
  148.2121  141.4155  155.9643 C   0  0  1  0  0  0  0  0  0  0  0  0
  149.2000  142.2567  156.6365 N   0  0  0  0  0  0  0  0  0  0  0  0
  150.0922  141.8536  157.5536 C   0  0  0  0  0  0  0  0  0  0  0  0
  150.1161  140.6706  157.8987 O   0  0  0  0  0  0  0  0  0  0  0  0
  150.8861  142.8580  157.9998 N   0  5  0  0  0  0  0  0  0  0  0  0
  151.5791  142.8263  159.1583 C   0  0  0  0  0  0  0  0  0  0  0  0
  151.8142  143.8103  160.0356 N   0  0  0  0  0  0  0  0  0  0  0  0
  152.5730  143.2564  161.0539 C   0  0  0  0  0  0  0  0  0  0  0  0
  152.7735  141.9387  160.7523 C   0  0  0  0  0  0  0  0  0  0  0  0
  152.1546  141.6589  159.5658 O   0  0  0  0  0  0  0  0  0  0  0  0
  146.7823  141.8112  156.4108 C   0  0  0  0  0  0  0  0  0  0  0  0
  146.6151  143.7618  154.3313 H   0  0  0  0  0  0  0  0  0  0  0  0
  144.8811  143.5790  154.0649 H   0  0  0  0  0  0  0  0  0  0  0  0
  145.9999  143.3922  152.7198 H   0  0  0  0  0  0  0  0  0  0  0  0
  144.7403  141.8609  155.7623 H   0  0  0  0  0  0  0  0  0  0  0  0
  145.1644  139.5137  156.5262 H   0  0  0  0  0  0  0  0  0  0  0  0
  144.4119  139.6620  154.9643 H   0  0  0  0  0  0  0  0  0  0  0  0
  147.2557  138.7982  155.5550 H   0  0  0  0  0  0  0  0  0  0  0  0
  146.0413  137.9621  154.6678 H   0  0  0  0  0  0  0  0  0  0  0  0
  147.8865  139.0495  153.2369 H   0  0  0  0  0  0  0  0  0  0  0  0
  146.2427  139.3469  152.7523 H   0  0  0  0  0  0  0  0  0  0  0  0
  147.3743  141.4093  152.5633 H   0  0  0  0  0  0  0  0  0  0  0  0
  149.2985  140.9845  154.1332 H   0  0  0  0  0  0  0  0  0  0  0  0
  148.6233  142.5787  154.1898 H   0  0  0  0  0  0  0  0  0  0  0  0
  148.4133  140.3877  156.2568 H   0  0  0  0  0  0  0  0  0  0  0  0
  149.2178  143.2329  156.3797 H   0  0  0  0  0  0  0  0  0  0  0  0
  152.9051  143.8372  161.9015 H   0  0  0  0  0  0  0  0  0  0  0  0
  153.2922  141.1252  161.2369 H   0  0  0  0  0  0  0  0  0  0  0  0
  146.7298  142.8973  156.4971 H   0  0  0  0  0  0  0  0  0  0  0  0
  146.5901  141.4363  157.4166 H   0  0  0  0  0  0  0  0  0  0  0  0
  145.2021  141.3353  153.4999 H   0  0  0  0  0  0  0  0  0  0  0  0
  1  2  1  0  0  0  0
  1 20  1  0  0  0  0
  1 21  1  0  0  0  0
  1 22  1  0  0  0  0
  2  7  1  0  0  0  0
  2  3  1  0  0  0  0
  2 39  1  0  0  0  0
  3 19  1  0  0  0  0
  3  4  1  0  0  0  0
  3 23  1  0  0  0  0
  4  5  1  0  0  0  0
  4 24  1  0  0  0  0
  4 25  1  0  0  0  0
  5  6  1  0  0  0  0
  5 26  1  0  0  0  0
  5 27  1  0  0  0  0
  6  7  1  0  0  0  0
  6 28  1  0  0  0  0
  6 29  1  0  0  0  0
  7  8  1  0  0  0  0
  7 30  1  0  0  0  0
  8  9  1  0  0  0  0
  8 31  1  0  0  0  0
  8 32  1  0  0  0  0
  9 10  1  0  0  0  0
  9 19  1  0  0  0  0
  9 33  1  0  0  0  0
 10 34  1  0  0  0  0
 10 11  1  0  0  0  0
 11 13  1  0  0  0  0
 11 12  2  0  0  0  0
 13 14  1  0  0  0  0
 14 18  1  0  0  0  0
 14 15  2  0  0  0  0
 15 16  1  0  0  0  0
 16 35  1  0  0  0  0
 16 17  2  0  0  0  0
 17 36  1  0  0  0  0
 17 18  1  0  0  0  0
 19 37  1  0  0  0  0
 19 38  1  0  0  0  0
M  CHG  1   2   1
M  CHG  1  13  -1
M  END
> <s_m_source_file>
AV-unprocessed.smi

> <i_m_source_file_index>
2226

> <i_lp_mmshare_version>
43012

> <i_f3d_flags>
0

> <s_epik_input>
W0NIMl0xW0NIMl1bQ0gyXVtDQEhdKE4oW0NIM10pW0NIXTEyKVtDSDJdW0NASF0oW0NIMl0yKVtOSF1DKD1PKVtOSF1jM25bY0hdW2NIXW8z

> <s_epik_cmdline>
J2VwaWtfcHl0aG9uJywgJy1waCcsICc3LjAnLCAnLXRuJywgJzgnLCAnLW1hJywgJzIwMCcsICctbWV0YWxfYmluZGluZycsICctaW1hZScsICc8aW5maWxlLm1hZT4nLCAnLW9tYWUnLCAnPG91dGZpbGUubWFlPic=

> <r_lp_tautomer_probability>
0.107061

> <r_epik_Ionization_Penalty>
10.5612

> <r_epik_Ionization_Penalty_Charging>
7.48913

> <r_epik_Ionization_Penalty_Neutral>
3.07202

> <r_epik_State_Penalty>
5.6431

> <r_epik_Charging_Adjusted_Penalty>
13.1322

> <i_epik_Tot_Q>
0

> <i_epik_Tot_abs_Q>
2

> <r_epik_Metal_State_Penalty>
1.58163

> <b_epik_Metal_Only>
1

> <s_lp_Force_Field>
OPLS_2005

> <r_lp_Energy>
28.9751

> <b_lp_Chiralities_Consistent>
1

> <s_lp_Variant>
AV-unprocessed.smi:2226-18

> <Gold.Version>
5.8.1

> <Gold.Id.Protein>
6NUR|6NUR_protein|mol2

> <Gold.PLP.Fitness>
40.5724

> <Gold.PLP.PLP>
-32.3696

> <Gold.PLP.part.hbond>
-1.9686

> <Gold.PLP.part.metal>
0.0000

> <Gold.PLP.part.buried>
-6.8124

> <Gold.PLP.part.nonpolar>
-24.5515

> <Gold.PLP.part.repulsive>
0.1933

> <Gold.PLP.ligand.clash>
0.0000

> <Gold.PLP.ligand.torsion>
0.4029

> <Gold.PLP.Chemscore.Hbond>
3.0000

> <Gold.PLP.Chemscore.CHOScore>
0.0000

> <Gold.PLP.Chemscore.Metal>
0.0000

> <Gold.Chemscore.Hbonds>
donor molecule, donor type, donor heavy atom, donor atom, acceptor molecule, acceptor atom, score
      L1  H     2    39       P1 10175  1.90
      L1  H    10    34       P1  8028  1.00

> <Gold.PLP.Chemscore.Internal.Correction>
0.0085

> <Gold.Rescore>
     Score         DG    S(hbond)    S(metal)    S(lipo)     H(rot)  DE(clash)    DE(int)     intcor
     14.84     -16.69       1.91        0.00      63.01       1.00       0.12       1.73       ----

> <Gold.Chemscore.Fitness>
14.8356

> <Gold.Chemscore.DG>
-16.6863

> <Gold.Chemscore.ZeroCoef>
-5.4800

> <Gold.Chemscore.Hbond>
1.9145

> <Gold.Chemscore.Metal>
0.0000

> <Gold.Chemscore.Lipo>
63.0078

> <Gold.Chemscore.Internal_Hbond>
0.0000

> <Gold.Chemscore.DEClash>
0.1201

> <Gold.Chemscore.DEInternal>
1.7307

> <Gold.Chemscore.Rot>
1.0000

> <Gold.Chemscore.Internal.Correction>
   9.000000E+99

> <Gold.Chemscore.Hbonds>
donor molecule, donor type, donor heavy atom, donor atom, acceptor molecule, acceptor atom, score
      L1  H     2    39       P1 10175  0.21
      L1  H    10    34       P1  8028  1.00

> <Gold.Chemscore.Hbond.Weighted>
-6.3944

> <Gold.Chemscore.Metal.Weighted>
-0.0000

> <Gold.Chemscore.Lipo.Weighted>
-7.3719

> <Gold.Chemscore.Internal_Hbond.Weighted>
0.0000

> <Gold.Chemscore.DEClash.Weighted>
0.1201

> <Gold.Chemscore.DEInternal.Weighted>
1.7307

> <Gold.Chemscore.Rot.Weighted>
2.5600

> <Gold.Chemscore.Internal.Correction.Weighted>
   9.000000E+99

> <Gold.Protein.RotatedTorsions>
[ 6907 6896 6895 6894 ] final  -56.64 input  -60.11 | X-H torsion
[ 7974 7965 7964 7962 ] final  -30.46 input  175.53 | X-H torsion
[ 8008 7997 7996 7995 ] final  122.56 input   59.86 | X-H torsion
[ 10167 10162 10161 10158 ] final   81.84 input  -65.29 | X-H torsion
[ 10718 10713 10712 10709 ] final -138.04 input   66.30 | X-H torsion
[ 10763 10752 10751 10750 ] final  -33.03 input  -60.55 | X-H torsion
[ 11005 11000 10999 10996 ] final  165.38 input  -57.11 | X-H torsion

> <Gold.Protein.ActiveResidues>
 VAL166  LYS551  ARG553  GLY616  TRP617  ASP618  TYR619  PRO620  LYS621  CYS622 
 ASP623  PHE694  ASN695  SER759  ASP760  ASP761  ALA762  ILE779  LEU786  VAL792 
 PHE793  MET794  SER795  GLU796  ALA797  LYS798  CYS799  TRP800  GLU811  SER814 

> <Gold.Protein.RotatedAtoms>
  150.8151  134.7328  159.6722 H   0  0  0  0  0  0  0  0  0  0  0  0  # atno 6907 bound_to 6896
  152.4270  134.5847  159.9967 H   0  0  0  0  0  0  0  0  0  0  0  0  # atno 6908 bound_to 6896
  151.6046  133.3316  159.3090 H   0  0  0  0  0  0  0  0  0  0  0  0  # atno 6909 bound_to 6896
  146.1141  140.5544  142.8765 H   0  0  0  0  0  0  0  0  0  0  0  0  # atno 7974 bound_to 7965
  156.2732  140.2783  156.1487 H   0  0  0  0  0  0  0  0  0  0  0  0  # atno 8008 bound_to 7997
  155.0876  140.0388  157.2676 H   0  0  0  0  0  0  0  0  0  0  0  0  # atno 8009 bound_to 7997
  154.6915  140.2630  155.6814 H   0  0  0  0  0  0  0  0  0  0  0  0  # atno 8010 bound_to 7997
  139.9351  144.6127  150.8307 H   0  0  0  0  0  0  0  0  0  0  0  0  # atno 10167 bound_to 10162
  156.2949  130.7396  151.1431 H   0  0  0  0  0  0  0  0  0  0  0  0  # atno 10718 bound_to 10713
  153.8234  135.6872  153.4824 H   0  0  0  0  0  0  0  0  0  0  0  0  # atno 10763 bound_to 10752
  153.1555  135.4601  154.9696 H   0  0  0  0  0  0  0  0  0  0  0  0  # atno 10764 bound_to 10752
  154.7918  135.3304  154.7704 H   0  0  0  0  0  0  0  0  0  0  0  0  # atno 10765 bound_to 10752
  140.2555  134.7943  157.3542 H   0  0  0  0  0  0  0  0  0  0  0  0  # atno 11005 bound_to 11000
  144.7537  140.5255  143.6784 LP  0  0  0  0  0  0  0  0  0  0  0  0  # atno 17320 bound_to 7965
  145.5603  139.1479  143.3345 LP  0  0  0  0  0  0  0  0  0  0  0  0  # atno 17321 bound_to 7965
  140.7627  143.3204  151.2636 LP  0  0  0  0  0  0  0  0  0  0  0  0  # atno 17342 bound_to 10162
  139.6750  143.9953  152.2776 LP  0  0  0  0  0  0  0  0  0  0  0  0  # atno 17343 bound_to 10162
  157.7352  131.0574  150.5480 LP  0  0  0  0  0  0  0  0  0  0  0  0  # atno 17370 bound_to 10713
  156.5601  130.4253  149.6067 LP  0  0  0  0  0  0  0  0  0  0  0  0  # atno 17371 bound_to 10713
  140.1516  134.4843  155.7957 LP  0  0  0  0  0  0  0  0  0  0  0  0  # atno 17394 bound_to 11000
  141.2196  133.6864  156.7387 LP  0  0  0  0  0  0  0  0  0  0  0  0  # atno 17395 bound_to 11000

$$$$
