AV-unprocessed.smi:1925|AV-procd|sdf|7792|dock5
  -GOLD-   22720 9533D 1   1.00000     0.00000
 Structure written by MMmdl.
 31 32  0  0  0  0  0  0  0  0  1 V2000
  144.4768  136.6869  152.4724 O   0  0  0  0  0  0  0  0  0  0  0  0
  145.6789  136.4320  152.3916 C   0  0  0  0  0  0  0  0  0  0  0  0
  146.6419  137.2942  152.7475 N   0  0  0  0  0  0  0  0  0  0  0  0
  146.4141  138.6373  153.2708 C   0  0  0  0  0  0  0  0  0  0  0  0
  147.6747  139.5189  153.1816 C   0  0  2  0  0  0  0  0  0  0  0  0
  148.8031  139.1197  154.1215 C   0  0  0  0  0  0  0  0  0  0  0  0
  149.5149  140.4420  154.4289 C   0  0  0  0  0  0  0  0  0  0  0  0
  148.7531  141.4613  153.7911 O   0  0  0  0  0  0  0  0  0  0  0  0
  147.4397  140.9729  153.5759 C   0  0  0  0  0  0  0  0  0  0  0  0
  146.2019  135.2762  151.9456 N   0  0  0  0  0  0  0  0  0  0  0  0
  145.5159  134.1298  151.4633 C   0  0  0  0  0  0  0  0  0  0  0  0
  146.3465  133.0532  151.0779 C   0  0  0  0  0  0  0  0  0  0  0  0
  145.7636  131.8703  150.5837 C   0  0  0  0  0  0  0  0  0  0  0  0
  144.3628  131.7942  150.4868 C   0  0  0  0  0  0  0  0  0  0  0  0
  143.6087  132.9113  150.8911 C   0  0  0  0  0  0  0  0  0  0  0  0
  144.1655  134.0458  151.3654 N   0  0  0  0  0  0  0  0  0  0  0  0
  147.6032  137.0023  152.6498 H   0  0  0  0  0  0  0  0  0  0  0  0
  145.5861  139.1076  152.7377 H   0  0  0  0  0  0  0  0  0  0  0  0
  146.0959  138.5437  154.3096 H   0  0  0  0  0  0  0  0  0  0  0  0
  148.0571  139.5077  152.1596 H   0  0  0  0  0  0  0  0  0  0  0  0
  148.4077  138.6915  155.0437 H   0  0  0  0  0  0  0  0  0  0  0  0
  149.4689  138.3833  153.6703 H   0  0  0  0  0  0  0  0  0  0  0  0
  149.5471  140.6231  155.5037 H   0  0  0  0  0  0  0  0  0  0  0  0
  150.5380  140.4535  154.0527 H   0  0  0  0  0  0  0  0  0  0  0  0
  146.9220  141.5417  152.8031 H   0  0  0  0  0  0  0  0  0  0  0  0
  146.8676  141.0460  154.5024 H   0  0  0  0  0  0  0  0  0  0  0  0
  147.2088  135.2093  151.9481 H   0  0  0  0  0  0  0  0  0  0  0  0
  147.4212  133.1283  151.1587 H   0  0  0  0  0  0  0  0  0  0  0  0
  146.3814  131.0364  150.2846 H   0  0  0  0  0  0  0  0  0  0  0  0
  143.8789  130.9040  150.1127 H   0  0  0  0  0  0  0  0  0  0  0  0
  142.5304  132.8947  150.8321 H   0  0  0  0  0  0  0  0  0  0  0  0
  1  2  2  0  0  0  0
  2  3  1  0  0  0  0
  2 10  1  0  0  0  0
  3  4  1  0  0  0  0
  3 17  1  0  0  0  0
  4  5  1  0  0  0  0
  4 18  1  0  0  0  0
  4 19  1  0  0  0  0
  5  9  1  0  0  0  0
  5  6  1  0  0  0  0
  5 20  1  0  0  0  0
  6  7  1  0  0  0  0
  6 21  1  0  0  0  0
  6 22  1  0  0  0  0
  7  8  1  0  0  0  0
  7 23  1  0  0  0  0
  7 24  1  0  0  0  0
  8  9  1  0  0  0  0
  9 25  1  0  0  0  0
  9 26  1  0  0  0  0
 10 11  1  0  0  0  0
 10 27  1  0  0  0  0
 11 16  1  0  0  0  0
 11 12  2  0  0  0  0
 12 13  1  0  0  0  0
 12 28  1  0  0  0  0
 13 14  2  0  0  0  0
 13 29  1  0  0  0  0
 14 15  1  0  0  0  0
 14 30  1  0  0  0  0
 15 16  2  0  0  0  0
 15 31  1  0  0  0  0
M  END
> <s_m_source_file>
AV-unprocessed.smi

> <i_m_source_file_index>
1925

> <i_lp_mmshare_version>
43012

> <i_f3d_flags>
0

> <s_epik_input>
bjFbY0hdW2NIXVtjSF1bY0hdYzFbTkhdQyg9TylbTkhdW0NIMl1bQ0BASF0yW0NIMl1bQ0gyXU9bQ0gyXTI=

> <s_epik_cmdline>
J2VwaWtfcHl0aG9uJywgJy1waCcsICc3LjAnLCAnLXRuJywgJzgnLCAnLW1hJywgJzIwMCcsICctbWV0YWxfYmluZGluZycsICctaW1hZScsICc8aW5maWxlLm1hZT4nLCAnLW9tYWUnLCAnPG91dGZpbGUubWFlPic=

> <r_lp_tautomer_probability>
1

> <r_epik_Ionization_Penalty>
4.81143e-05

> <r_epik_Ionization_Penalty_Charging>
0

> <r_epik_Ionization_Penalty_Neutral>
4.81143e-05

> <r_epik_State_Penalty>
-0

> <r_epik_Charging_Adjusted_Penalty>
0

> <i_epik_Tot_Q>
0

> <i_epik_Tot_abs_Q>
0

> <r_epik_Metal_State_Penalty>
-0

> <b_epik_Metal_Only>
0

> <s_lp_Force_Field>
OPLS_2005

> <r_lp_Energy>
20.9741

> <b_lp_Chiralities_Consistent>
1

> <s_lp_Variant>
AV-unprocessed.smi:1925-1

> <Gold.Version>
5.8.1

> <Gold.Id.Protein>
6NUR|6NUR_protein|mol2

> <Gold.PLP.Fitness>
39.7454

> <Gold.PLP.PLP>
-29.0765

> <Gold.PLP.part.hbond>
-3.0000

> <Gold.PLP.part.metal>
0.0000

> <Gold.PLP.part.buried>
-2.1478

> <Gold.PLP.part.nonpolar>
-24.6135

> <Gold.PLP.part.repulsive>
0.6813

> <Gold.PLP.ligand.clash>
0.0000

> <Gold.PLP.ligand.torsion>
0.1501

> <Gold.PLP.Chemscore.Hbond>
2.6736

> <Gold.PLP.Chemscore.CHOScore>
0.9819

> <Gold.PLP.Chemscore.Metal>
0.0000

> <Gold.Chemscore.Hbonds>
donor molecule, donor type, donor heavy atom, donor atom, acceptor molecule, acceptor atom, score
      L1  H     3    17       P1  7948  1.00
      L1  H    10    27       P1  7948  0.93
      P1  H  8011  8017       L1     8  0.74
      L1  C    15    31       P1 10186  0.99

> <Gold.PLP.Chemscore.Internal.Correction>
0.0027

> <Gold.Rescore>
     Score         DG    S(hbond)    S(metal)    S(lipo)     H(rot)  DE(clash)    DE(int)     intcor
     15.87     -17.59       2.23        0.00      67.53       1.27       0.30       1.42       ----

> <Gold.Chemscore.Fitness>
15.8671

> <Gold.Chemscore.DG>
-17.5920

> <Gold.Chemscore.ZeroCoef>
-5.4800

> <Gold.Chemscore.Hbond>
2.2326

> <Gold.Chemscore.Metal>
0.0000

> <Gold.Chemscore.Lipo>
67.5266

> <Gold.Chemscore.Internal_Hbond>
0.0000

> <Gold.Chemscore.DEClash>
0.3023

> <Gold.Chemscore.DEInternal>
1.4226

> <Gold.Chemscore.Rot>
1.2678

> <Gold.Chemscore.Internal.Correction>
   9.000000E+99

> <Gold.Chemscore.Hbonds>
donor molecule, donor type, donor heavy atom, donor atom, acceptor molecule, acceptor atom, score
      L1  H     3    17       P1  7948  0.98
      L1  H    10    27       P1  7948  0.88
      P1  H  8011  8017       L1     8  0.58

> <Gold.Chemscore.Hbond.Weighted>
-7.4568

> <Gold.Chemscore.Metal.Weighted>
-0.0000

> <Gold.Chemscore.Lipo.Weighted>
-7.9006

> <Gold.Chemscore.Internal_Hbond.Weighted>
0.0000

> <Gold.Chemscore.DEClash.Weighted>
0.3023

> <Gold.Chemscore.DEInternal.Weighted>
1.4226

> <Gold.Chemscore.Rot.Weighted>
3.2455

> <Gold.Chemscore.Internal.Correction.Weighted>
   9.000000E+99

> <Gold.Protein.RotatedTorsions>
[ 6907 6896 6895 6894 ] final   21.47 input  -60.11 | X-H torsion
[ 7974 7965 7964 7962 ] final  132.46 input  175.53 | X-H torsion
[ 8008 7997 7996 7995 ] final -154.26 input   59.86 | X-H torsion
[ 10167 10162 10161 10158 ] final    2.95 input  -65.29 | X-H torsion
[ 10718 10713 10712 10709 ] final  147.33 input   66.30 | X-H torsion
[ 10763 10752 10751 10750 ] final  172.61 input  -60.55 | X-H torsion
[ 11005 11000 10999 10996 ] final   39.36 input  -57.11 | X-H torsion

> <Gold.Protein.ActiveResidues>
 VAL166  LYS551  ARG553  GLY616  TRP617  ASP618  TYR619  PRO620  LYS621  CYS622 
 ASP623  PHE694  ASN695  SER759  ASP760  ASP761  ALA762  ILE779  LEU786  VAL792 
 PHE793  MET794  SER795  GLU796  ALA797  LYS798  CYS799  TRP800  GLU811  SER814 

> <Gold.Protein.RotatedAtoms>
  151.9124  135.0333  160.0515 H   0  0  0  0  0  0  0  0  0  0  0  0  # atno 6907 bound_to 6896
  152.2268  133.5022  159.5202 H   0  0  0  0  0  0  0  0  0  0  0  0  # atno 6908 bound_to 6896
  150.7014  134.1185  159.4069 H   0  0  0  0  0  0  0  0  0  0  0  0  # atno 6909 bound_to 6896
  144.9966  139.4353  143.5313 H   0  0  0  0  0  0  0  0  0  0  0  0  # atno 7974 bound_to 7965
  155.6836  140.0747  157.2475 H   0  0  0  0  0  0  0  0  0  0  0  0  # atno 8008 bound_to 7997
  154.4101  140.1677  156.2061 H   0  0  0  0  0  0  0  0  0  0  0  0  # atno 8009 bound_to 7997
  155.9513  140.3377  155.6414 H   0  0  0  0  0  0  0  0  0  0  0  0  # atno 8010 bound_to 7997
  140.6610  143.7304  150.7738 H   0  0  0  0  0  0  0  0  0  0  0  0  # atno 10167 bound_to 10162
  157.3222  131.0906  151.1231 H   0  0  0  0  0  0  0  0  0  0  0  0  # atno 10718 bound_to 10713
  154.4285  135.2759  155.1928 H   0  0  0  0  0  0  0  0  0  0  0  0  # atno 10763 bound_to 10752
  154.3844  135.6080  153.5812 H   0  0  0  0  0  0  0  0  0  0  0  0  # atno 10764 bound_to 10752
  152.9835  135.5888  154.4592 H   0  0  0  0  0  0  0  0  0  0  0  0  # atno 10765 bound_to 10752
  140.2036  134.3841  155.8084 H   0  0  0  0  0  0  0  0  0  0  0  0  # atno 11005 bound_to 11000
  146.3443  139.9329  142.8751 LP  0  0  0  0  0  0  0  0  0  0  0  0  # atno 17320 bound_to 7965
  145.2211  140.9935  143.4045 LP  0  0  0  0  0  0  0  0  0  0  0  0  # atno 17321 bound_to 7965
  140.0973  143.4821  152.2445 LP  0  0  0  0  0  0  0  0  0  0  0  0  # atno 17342 bound_to 10162
  139.5844  144.7524  151.3558 LP  0  0  0  0  0  0  0  0  0  0  0  0  # atno 17343 bound_to 10162
  157.2511  130.6614  149.5932 LP  0  0  0  0  0  0  0  0  0  0  0  0  # atno 17370 bound_to 10713
  155.9687  130.4538  150.5826 LP  0  0  0  0  0  0  0  0  0  0  0  0  # atno 17371 bound_to 10713
  141.2227  133.7106  156.8299 LP  0  0  0  0  0  0  0  0  0  0  0  0  # atno 17394 bound_to 11000
  140.2027  134.8885  157.3187 LP  0  0  0  0  0  0  0  0  0  0  0  0  # atno 17395 bound_to 11000

$$$$
