AV-unprocessed.smi:2881|AV-procd|sdf|11060|dock3
  -GOLD-   2272015533D 1   1.00000     0.00000
 Structure written by MMmdl.
 40 42  0  0  0  0  0  0  0  0  1 V2000
  152.3667  144.4072  161.9361 C   0  0  0  0  0  0  0  0  0  0  0  0
  152.3009  143.9086  160.5327 C   0  0  0  0  0  0  0  0  0  0  0  0
  151.5984  144.3522  159.4482 C   0  0  0  0  0  0  0  0  0  0  0  0
  151.9674  143.4595  158.3976 C   0  0  0  0  0  0  0  0  0  0  0  0
  151.5054  143.4700  156.9646 C   0  0  0  0  0  0  0  0  0  0  0  0
  150.9057  142.1125  156.5966 C   0  0  0  0  0  0  0  0  0  0  0  0
  151.6214  141.1121  156.5526 O   0  0  0  0  0  0  0  0  0  0  0  0
  149.5905  142.0924  156.3330 N   0  0  0  0  0  0  0  0  0  0  0  0
  148.8349  140.9093  155.9302 C   0  0  1  0  0  0  0  0  0  0  0  0
  147.3006  141.1254  155.9213 C   0  0  1  0  0  0  0  0  0  0  0  0
  146.9100  142.3790  155.1090 C   0  0  0  0  0  0  0  0  0  0  0  0
  147.2176  141.9514  153.6618 C   0  0  0  0  0  0  0  0  0  0  0  0
  147.7180  140.5039  153.8328 C   0  0  2  0  0  0  0  0  0  0  0  0
  146.8446  140.0156  154.9832 C   0  0  0  0  0  0  0  0  0  0  0  0
  149.1335  140.5229  154.4586 C   0  0  2  0  0  0  0  0  0  0  0  0
  149.8848  139.1831  154.3368 C   0  0  0  0  0  0  0  0  0  0  0  0
  151.2609  139.3660  154.5949 O   0  0  0  0  0  0  0  0  0  0  0  0
  152.8225  142.5311  158.8040 N   0  0  0  0  0  0  0  0  0  0  0  0
  153.0192  142.8165  160.1044 N   0  0  0  0  0  0  0  0  0  0  0  0
  153.6399  142.2646  160.6792 H   0  0  0  0  0  0  0  0  0  0  0  0
  151.9605  145.4162  162.0096 H   0  0  0  0  0  0  0  0  0  0  0  0
  153.3966  144.4330  162.2932 H   0  0  0  0  0  0  0  0  0  0  0  0
  151.7923  143.7630  162.6021 H   0  0  0  0  0  0  0  0  0  0  0  0
  150.9242  145.1948  159.4071 H   0  0  0  0  0  0  0  0  0  0  0  0
  150.7609  144.2501  156.7982 H   0  0  0  0  0  0  0  0  0  0  0  0
  152.3393  143.6930  156.2976 H   0  0  0  0  0  0  0  0  0  0  0  0
  149.0795  142.9607  156.3970 H   0  0  0  0  0  0  0  0  0  0  0  0
  149.0812  140.0786  156.5952 H   0  0  0  0  0  0  0  0  0  0  0  0
  146.8508  141.0944  156.9141 H   0  0  0  0  0  0  0  0  0  0  0  0
  145.8459  142.5897  155.2223 H   0  0  0  0  0  0  0  0  0  0  0  0
  147.4508  143.2773  155.4062 H   0  0  0  0  0  0  0  0  0  0  0  0
  146.3123  141.9805  153.0542 H   0  0  0  0  0  0  0  0  0  0  0  0
  147.9587  142.5946  153.1858 H   0  0  0  0  0  0  0  0  0  0  0  0
  147.6436  139.9150  152.9182 H   0  0  0  0  0  0  0  0  0  0  0  0
  147.1020  139.0166  155.3382 H   0  0  0  0  0  0  0  0  0  0  0  0
  145.7766  140.0474  154.7601 H   0  0  0  0  0  0  0  0  0  0  0  0
  149.7380  141.2916  153.9729 H   0  0  0  0  0  0  0  0  0  0  0  0
  149.4942  138.4676  155.0612 H   0  0  0  0  0  0  0  0  0  0  0  0
  149.7585  138.7413  153.3484 H   0  0  0  0  0  0  0  0  0  0  0  0
  151.5727  138.6307  155.1002 H   0  0  0  0  0  0  0  0  0  0  0  0
  1  2  1  0  0  0  0
  1 21  1  0  0  0  0
  1 22  1  0  0  0  0
  1 23  1  0  0  0  0
  2 19  1  0  0  0  0
  2  3  2  0  0  0  0
  3  4  1  0  0  0  0
  3 24  1  0  0  0  0
  4  5  1  0  0  0  0
  4 18  2  0  0  0  0
  5  6  1  0  0  0  0
  5 25  1  0  0  0  0
  5 26  1  0  0  0  0
  6  7  2  0  0  0  0
  6  8  1  0  0  0  0
  8  9  1  0  0  0  0
  8 27  1  0  0  0  0
  9 15  1  0  0  0  0
  9 10  1  0  0  0  0
  9 28  1  0  0  0  0
 10 14  1  0  0  0  0
 10 11  1  0  0  0  0
 10 29  1  0  0  0  0
 11 12  1  0  0  0  0
 11 30  1  0  0  0  0
 11 31  1  0  0  0  0
 12 13  1  0  0  0  0
 12 32  1  0  0  0  0
 12 33  1  0  0  0  0
 13 14  1  0  0  0  0
 13 15  1  0  0  0  0
 13 34  1  0  0  0  0
 14 35  1  0  0  0  0
 14 36  1  0  0  0  0
 15 16  1  0  0  0  0
 15 37  1  0  0  0  0
 16 17  1  0  0  0  0
 16 38  1  0  0  0  0
 16 39  1  0  0  0  0
 17 40  1  0  0  0  0
 18 19  1  0  0  0  0
 19 20  1  0  0  0  0
M  END
> <s_m_source_file>
AV-unprocessed.smi

> <i_m_source_file_index>
2881

> <i_lp_mmshare_version>
43012

> <i_f3d_flags>
0

> <s_epik_input>
W0NIM11jMVtjSF1jKG5bbkhdMSlbQ0gyXUMoPU8pW05IXVtDQEhdKFtDQEBIXTIzKVtDQEhdKFtDSDJdW09IXSlbQ0BASF0oW0NIMl0zKVtDSDJdW0NIMl0y

> <s_epik_cmdline>
J2VwaWtfcHl0aG9uJywgJy1waCcsICc3LjAnLCAnLXRuJywgJzgnLCAnLW1hJywgJzIwMCcsICctbWV0YWxfYmluZGluZycsICctaW1hZScsICc8aW5maWxlLm1hZT4nLCAnLW9tYWUnLCAnPG91dGZpbGUubWFlPic=

> <r_lp_tautomer_probability>
0.5

> <r_epik_Ionization_Penalty>
9.4349e-05

> <r_epik_Ionization_Penalty_Charging>
0

> <r_epik_Ionization_Penalty_Neutral>
9.4349e-05

> <r_epik_State_Penalty>
0.41068

> <r_epik_Charging_Adjusted_Penalty>
0.41068

> <i_epik_Tot_Q>
0

> <i_epik_Tot_abs_Q>
0

> <r_epik_Metal_State_Penalty>
0.4107

> <b_epik_Metal_Only>
0

> <s_lp_Force_Field>
OPLS_2005

> <r_lp_Energy>
47.9612

> <b_lp_Chiralities_Consistent>
1

> <s_lp_Variant>
AV-unprocessed.smi:2881-6

> <Gold.Version>
5.8.1

> <Gold.Id.Protein>
6NUR|6NUR_protein|mol2

> <Gold.PLP.Fitness>
38.6898

> <Gold.PLP.PLP>
-33.5726

> <Gold.PLP.part.hbond>
-2.0000

> <Gold.PLP.part.metal>
0.0000

> <Gold.PLP.part.buried>
-2.4009

> <Gold.PLP.part.nonpolar>
-29.6696

> <Gold.PLP.part.repulsive>
0.1156

> <Gold.PLP.ligand.clash>
0.0000

> <Gold.PLP.ligand.torsion>
0.3440

> <Gold.PLP.Chemscore.Hbond>
1.9280

> <Gold.PLP.Chemscore.CHOScore>
0.0000

> <Gold.PLP.Chemscore.Metal>
0.0000

> <Gold.Chemscore.Hbonds>
donor molecule, donor type, donor heavy atom, donor atom, acceptor molecule, acceptor atom, score
      L1  H     8    27       P1  8028  0.91
      P1  H  7989  7998       L1    17  1.00

> <Gold.PLP.Chemscore.Internal.Correction>
0.0211

> <Gold.Rescore>
     Score         DG    S(hbond)    S(metal)    S(lipo)     H(rot)  DE(clash)    DE(int)     intcor
     13.54     -16.94       1.68        0.00      99.68       2.28       1.50       1.90       ----

> <Gold.Chemscore.Fitness>
13.5355

> <Gold.Chemscore.DG>
-16.9370

> <Gold.Chemscore.ZeroCoef>
-5.4800

> <Gold.Chemscore.Hbond>
1.6825

> <Gold.Chemscore.Metal>
0.0000

> <Gold.Chemscore.Lipo>
99.6806

> <Gold.Chemscore.Internal_Hbond>
0.0000

> <Gold.Chemscore.DEClash>
1.5020

> <Gold.Chemscore.DEInternal>
1.8995

> <Gold.Chemscore.Rot>
2.2755

> <Gold.Chemscore.Internal.Correction>
   9.000000E+99

> <Gold.Chemscore.Hbonds>
donor molecule, donor type, donor heavy atom, donor atom, acceptor molecule, acceptor atom, score
      L1  H     8    27       P1  8028  0.88
      P1  H  7989  7998       L1    17  0.30

> <Gold.Chemscore.Hbond.Weighted>
-5.6196

> <Gold.Chemscore.Metal.Weighted>
-0.0000

> <Gold.Chemscore.Lipo.Weighted>
-11.6626

> <Gold.Chemscore.Internal_Hbond.Weighted>
0.0000

> <Gold.Chemscore.DEClash.Weighted>
1.5020

> <Gold.Chemscore.DEInternal.Weighted>
1.8995

> <Gold.Chemscore.Rot.Weighted>
5.8252

> <Gold.Chemscore.Internal.Correction.Weighted>
   9.000000E+99

> <Gold.Protein.RotatedTorsions>
[ 6907 6896 6895 6894 ] final  105.26 input  -60.11 | X-H torsion
[ 7974 7965 7964 7962 ] final  -77.06 input  175.53 | X-H torsion
[ 8008 7997 7996 7995 ] final   69.32 input   59.86 | X-H torsion
[ 10167 10162 10161 10158 ] final  -17.52 input  -65.29 | X-H torsion
[ 10718 10713 10712 10709 ] final   54.69 input   66.30 | X-H torsion
[ 10763 10752 10751 10750 ] final   63.94 input  -60.55 | X-H torsion
[ 11005 11000 10999 10996 ] final  169.94 input  -57.11 | X-H torsion

> <Gold.Protein.ActiveResidues>
 VAL166  LYS551  ARG553  GLY616  TRP617  ASP618  TYR619  PRO620  LYS621  CYS622 
 ASP623  PHE694  ASN695  SER759  ASP760  ASP761  ALA762  ILE779  LEU786  VAL792 
 PHE793  MET794  SER795  GLU796  ALA797  LYS798  CYS799  TRP800  GLU811  SER814 

> <Gold.Protein.RotatedAtoms>
  152.5236  133.9555  159.7691 H   0  0  0  0  0  0  0  0  0  0  0  0  # atno 6907 bound_to 6896
  150.9856  133.6193  159.2723 H   0  0  0  0  0  0  0  0  0  0  0  0  # atno 6908 bound_to 6896
  151.3355  135.0857  159.9406 H   0  0  0  0  0  0  0  0  0  0  0  0  # atno 6909 bound_to 6896
  145.6047  140.9400  143.1222 H   0  0  0  0  0  0  0  0  0  0  0  0  # atno 7974 bound_to 7965
  155.7218  140.3493  155.5019 H   0  0  0  0  0  0  0  0  0  0  0  0  # atno 8008 bound_to 7997
  155.9263  140.1076  157.1189 H   0  0  0  0  0  0  0  0  0  0  0  0  # atno 8009 bound_to 7997
  154.4078  140.1240  156.4731 H   0  0  0  0  0  0  0  0  0  0  0  0  # atno 8010 bound_to 7997
  140.7248  143.5007  150.9873 H   0  0  0  0  0  0  0  0  0  0  0  0  # atno 10167 bound_to 10162
  157.5279  130.8610  149.8647 H   0  0  0  0  0  0  0  0  0  0  0  0  # atno 10718 bound_to 10713
  153.0037  135.5411  154.6431 H   0  0  0  0  0  0  0  0  0  0  0  0  # atno 10763 bound_to 10752
  154.5682  135.2839  155.0856 H   0  0  0  0  0  0  0  0  0  0  0  0  # atno 10764 bound_to 10752
  154.2032  135.6480  153.5145 H   0  0  0  0  0  0  0  0  0  0  0  0  # atno 10765 bound_to 10752
  140.3031  134.7579  157.3931 H   0  0  0  0  0  0  0  0  0  0  0  0  # atno 11005 bound_to 11000
  144.7295  139.7770  143.7352 LP  0  0  0  0  0  0  0  0  0  0  0  0  # atno 17320 bound_to 7965
  146.1549  139.4644  143.0025 LP  0  0  0  0  0  0  0  0  0  0  0  0  # atno 17321 bound_to 7965
  139.8716  143.7185  152.3166 LP  0  0  0  0  0  0  0  0  0  0  0  0  # atno 17342 bound_to 10162
  139.7436  144.7553  151.0615 LP  0  0  0  0  0  0  0  0  0  0  0  0  # atno 17343 bound_to 10162
  156.0400  130.3741  150.1459 LP  0  0  0  0  0  0  0  0  0  0  0  0  # atno 17370 bound_to 10713
  156.9645  130.9815  151.3472 LP  0  0  0  0  0  0  0  0  0  0  0  0  # atno 17371 bound_to 10713
  140.1092  134.5369  155.8282 LP  0  0  0  0  0  0  0  0  0  0  0  0  # atno 17394 bound_to 11000
  141.2124  133.6719  156.6656 LP  0  0  0  0  0  0  0  0  0  0  0  0  # atno 17395 bound_to 11000

$$$$
