AV-unprocessed.smi:2673|AV-procd|sdf|10355|dock3
  -GOLD-   2272014383D 1   1.00000     0.00000
 Structure written by MMmdl.
 31 32  0  0  0  0  0  0  0  0  2 V2000
  150.0435  138.0291  159.4597 O   0  0  0  0  0  0  0  0  0  0  0  0
  149.5490  137.1754  158.7208 C   0  0  0  0  0  0  0  0  0  0  0  0
  149.0630  135.9748  159.1104 N   0  5  0  0  0  0  0  0  0  0  0  0
  148.2076  135.8991  160.1434 C   0  0  0  0  0  0  0  0  0  0  0  0
  147.8589  136.9736  160.8692 N   0  0  0  0  0  0  0  0  0  0  0  0
  146.9669  136.6763  161.8907 N   0  0  0  0  0  0  0  0  0  0  0  0
  146.6716  135.3770  161.9149 C   0  0  0  0  0  0  0  0  0  0  0  0
  147.4567  134.3985  160.6936 S   0  0  0  0  0  0  0  0  0  0  0  0
  149.4447  137.3846  157.3967 N   0  0  0  0  0  0  0  0  0  0  0  0
  149.8323  138.5401  156.5665 C   0  0  0  0  0  0  0  0  0  0  0  0
  151.3573  138.3515  156.3020 C   0  0  0  0  0  0  0  0  0  0  0  0
  151.8828  139.3301  155.5681 F   0  0  0  0  0  0  0  0  0  0  0  0
  152.0249  138.3077  157.4566 F   0  0  0  0  0  0  0  0  0  0  0  0
  151.5763  137.2017  155.6608 F   0  0  0  0  0  0  0  0  0  0  0  0
  149.0254  138.5206  155.2303 C   0  0  0  0  0  0  0  0  0  0  0  0
  149.1350  139.8144  154.4043 C   0  0  0  0  0  0  0  0  0  0  0  0
  148.7779  141.0475  155.2438 C   0  0  0  0  0  0  0  0  0  0  0  0
  149.6603  141.1385  156.4950 C   0  0  0  0  0  0  0  0  0  0  0  0
  149.5590  139.8623  157.3493 C   0  0  0  0  0  0  0  0  0  0  0  0
  145.9891  134.9917  162.6574 H   0  0  0  0  0  0  0  0  0  0  0  0
  149.0280  136.6236  156.8804 H   0  0  0  0  0  0  0  0  0  0  0  0
  149.3240  137.6687  154.6192 H   0  0  0  0  0  0  0  0  0  0  0  0
  147.9649  138.3731  155.4275 H   0  0  0  0  0  0  0  0  0  0  0  0
  150.1371  139.9222  153.9916 H   0  0  0  0  0  0  0  0  0  0  0  0
  148.4666  139.7531  153.5451 H   0  0  0  0  0  0  0  0  0  0  0  0
  148.8885  141.9510  154.6436 H   0  0  0  0  0  0  0  0  0  0  0  0
  147.7290  140.9977  155.5390 H   0  0  0  0  0  0  0  0  0  0  0  0
  150.6939  141.3280  156.2085 H   0  0  0  0  0  0  0  0  0  0  0  0
  149.3571  141.9987  157.0926 H   0  0  0  0  0  0  0  0  0  0  0  0
  148.5554  139.8537  157.7712 H   0  0  0  0  0  0  0  0  0  0  0  0
  150.2287  139.9409  158.2060 H   0  0  0  0  0  0  0  0  0  0  0  0
  1  2  2  0  0  0  0
  2  3  1  0  0  0  0
  2  9  1  0  0  0  0
  3  4  1  0  0  0  0
  4  8  1  0  0  0  0
  4  5  2  0  0  0  0
  5  6  1  0  0  0  0
  6  7  2  0  0  0  0
  7  8  1  0  0  0  0
  7 20  1  0  0  0  0
  9 10  1  0  0  0  0
  9 21  1  0  0  0  0
 10 19  1  0  0  0  0
 10 11  1  0  0  0  0
 10 15  1  0  0  0  0
 11 12  1  0  0  0  0
 11 13  1  0  0  0  0
 11 14  1  0  0  0  0
 15 16  1  0  0  0  0
 15 22  1  0  0  0  0
 15 23  1  0  0  0  0
 16 17  1  0  0  0  0
 16 24  1  0  0  0  0
 16 25  1  0  0  0  0
 17 18  1  0  0  0  0
 17 26  1  0  0  0  0
 17 27  1  0  0  0  0
 18 19  1  0  0  0  0
 18 28  1  0  0  0  0
 18 29  1  0  0  0  0
 19 30  1  0  0  0  0
 19 31  1  0  0  0  0
M  CHG  1   3  -1
M  END
> <s_m_source_file>
AV-unprocessed.smi

> <i_m_source_file_index>
2673

> <i_lp_mmshare_version>
43012

> <i_f3d_flags>
0

> <s_epik_input>
czFbY0hdbm5jMVtOSF1DKD1PKVtOSF1DMihDKEYpKEYpRilbQ0gyXVtDSDJdW0NIMl1bQ0gyXVtDSDJdMg==

> <s_epik_cmdline>
J2VwaWtfcHl0aG9uJywgJy1waCcsICc3LjAnLCAnLXRuJywgJzgnLCAnLW1hJywgJzIwMCcsICctbWV0YWxfYmluZGluZycsICctaW1hZScsICc8aW5maWxlLm1hZT4nLCAnLW9tYWUnLCAnPG91dGZpbGUubWFlPic=

> <r_epik_Ionization_Penalty>
0.0924979

> <r_epik_Ionization_Penalty_Charging>
0.057676

> <r_epik_Ionization_Penalty_Neutral>
0.0348219

> <r_epik_State_Penalty>
0.0765232

> <r_epik_Charging_Adjusted_Penalty>
0.134199

> <i_epik_Tot_Q>
-1

> <i_epik_Tot_abs_Q>
1

> <r_epik_Metal_State_Penalty>
0.0698334

> <b_epik_Metal_Only>
0

> <s_lp_Force_Field>
OPLS_2005

> <r_lp_Energy>
15.8773

> <b_lp_Chiralities_Consistent>
1

> <s_lp_Variant>
AV-unprocessed.smi:2673-1

> <Gold.Version>
5.8.1

> <Gold.Id.Protein>
6NUR|6NUR_protein|mol2

> <Gold.PLP.Fitness>
32.8596

> <Gold.PLP.PLP>
-25.4661

> <Gold.PLP.part.hbond>
-3.9915

> <Gold.PLP.part.metal>
0.0000

> <Gold.PLP.part.buried>
-5.1625

> <Gold.PLP.part.nonpolar>
-18.7184

> <Gold.PLP.part.repulsive>
0.0312

> <Gold.PLP.ligand.clash>
0.0000

> <Gold.PLP.ligand.torsion>
0.9144

> <Gold.PLP.Chemscore.Hbond>
3.0690

> <Gold.PLP.Chemscore.CHOScore>
0.0000

> <Gold.PLP.Chemscore.Metal>
0.0000

> <Gold.Chemscore.Hbonds>
donor molecule, donor type, donor heavy atom, donor atom, acceptor molecule, acceptor atom, score
      P1  H  6896  6907       L1     3  1.40
      P1  H  6931  6943       L1     5  0.88
      P1  H  6934  6947       L1     5  0.27

> <Gold.PLP.Chemscore.Internal.Correction>
0.0152

> <Gold.Rescore>
     Score         DG    S(hbond)    S(metal)    S(lipo)     H(rot)  DE(clash)    DE(int)     intcor
      6.47     -12.82       1.38        0.00      45.22       1.00       0.02       6.33       ----

> <Gold.Chemscore.Fitness>
6.4709

> <Gold.Chemscore.DG>
-12.8194

> <Gold.Chemscore.ZeroCoef>
-5.4800

> <Gold.Chemscore.Hbond>
1.3799

> <Gold.Chemscore.Metal>
0.0000

> <Gold.Chemscore.Lipo>
45.2193

> <Gold.Chemscore.Internal_Hbond>
0.0000

> <Gold.Chemscore.DEClash>
0.0186

> <Gold.Chemscore.DEInternal>
6.3299

> <Gold.Chemscore.Rot>
1.0000

> <Gold.Chemscore.Internal.Correction>
   9.000000E+99

> <Gold.Chemscore.Hbonds>
donor molecule, donor type, donor heavy atom, donor atom, acceptor molecule, acceptor atom, score
      P1  H  6896  6907       L1     3  0.26
      P1  H  6931  6943       L1     5  0.16
      P1  H  6934  6947       L1     5  0.01

> <Gold.Chemscore.Hbond.Weighted>
-4.6087

> <Gold.Chemscore.Metal.Weighted>
-0.0000

> <Gold.Chemscore.Lipo.Weighted>
-5.2907

> <Gold.Chemscore.Internal_Hbond.Weighted>
0.0000

> <Gold.Chemscore.DEClash.Weighted>
0.0186

> <Gold.Chemscore.DEInternal.Weighted>
6.3299

> <Gold.Chemscore.Rot.Weighted>
2.5600

> <Gold.Chemscore.Internal.Correction.Weighted>
   9.000000E+99

> <Gold.Protein.RotatedTorsions>
[ 6907 6896 6895 6894 ] final  -60.59 input  -60.11 | X-H torsion
[ 7974 7965 7964 7962 ] final  -75.12 input  175.53 | X-H torsion
[ 8008 7997 7996 7995 ] final   94.45 input   59.86 | X-H torsion
[ 10167 10162 10161 10158 ] final  -56.46 input  -65.29 | X-H torsion
[ 10718 10713 10712 10709 ] final -125.68 input   66.30 | X-H torsion
[ 10763 10752 10751 10750 ] final  171.93 input  -60.55 | X-H torsion
[ 11005 11000 10999 10996 ] final  149.38 input  -57.11 | X-H torsion

> <Gold.Protein.ActiveResidues>
 VAL166  LYS551  ARG553  GLY616  TRP617  ASP618  TYR619  PRO620  LYS621  CYS622 
 ASP623  PHE694  ASN695  SER759  ASP760  ASP761  ALA762  ILE779  LEU786  VAL792 
 PHE793  MET794  SER795  GLU796  ALA797  LYS798  CYS799  TRP800  GLU811  SER814 

> <Gold.Protein.RotatedAtoms>
  150.7845  134.6817  159.6447 H   0  0  0  0  0  0  0  0  0  0  0  0  # atno 6907 bound_to 6896
  152.3938  134.6395  160.0106 H   0  0  0  0  0  0  0  0  0  0  0  0  # atno 6908 bound_to 6896
  151.6687  133.3278  159.3227 H   0  0  0  0  0  0  0  0  0  0  0  0  # atno 6909 bound_to 6896
  145.6301  140.9340  143.1091 H   0  0  0  0  0  0  0  0  0  0  0  0  # atno 7974 bound_to 7965
  156.0580  140.3300  155.7428 H   0  0  0  0  0  0  0  0  0  0  0  0  # atno 8008 bound_to 7997
  155.5499  140.0609  157.2869 H   0  0  0  0  0  0  0  0  0  0  0  0  # atno 8009 bound_to 7997
  154.4467  140.1896  156.0664 H   0  0  0  0  0  0  0  0  0  0  0  0  # atno 8010 bound_to 7997
  140.6315  143.2462  151.5228 H   0  0  0  0  0  0  0  0  0  0  0  0  # atno 10167 bound_to 10162
  156.1697  130.6659  151.0163 H   0  0  0  0  0  0  0  0  0  0  0  0  # atno 10718 bound_to 10713
  154.4189  135.2757  155.1988 H   0  0  0  0  0  0  0  0  0  0  0  0  # atno 10763 bound_to 10752
  154.3942  135.6059  153.5864 H   0  0  0  0  0  0  0  0  0  0  0  0  # atno 10764 bound_to 10752
  152.9832  135.5911  154.4482 H   0  0  0  0  0  0  0  0  0  0  0  0  # atno 10765 bound_to 10752
  140.1040  134.8966  157.1838 H   0  0  0  0  0  0  0  0  0  0  0  0  # atno 11005 bound_to 11000
  144.7197  139.8073  143.7386 LP  0  0  0  0  0  0  0  0  0  0  0  0  # atno 17320 bound_to 7965
  146.1363  139.4409  143.0137 LP  0  0  0  0  0  0  0  0  0  0  0  0  # atno 17321 bound_to 7965
  139.5529  144.2349  152.1562 LP  0  0  0  0  0  0  0  0  0  0  0  0  # atno 17342 bound_to 10162
  140.1594  144.5040  150.6641 LP  0  0  0  0  0  0  0  0  0  0  0  0  # atno 17343 bound_to 10162
  157.6793  131.0842  150.7411 LP  0  0  0  0  0  0  0  0  0  0  0  0  # atno 17370 bound_to 10713
  156.7470  130.4757  149.5465 LP  0  0  0  0  0  0  0  0  0  0  0  0  # atno 17371 bound_to 10713
  140.3181  134.2947  155.7252 LP  0  0  0  0  0  0  0  0  0  0  0  0  # atno 17394 bound_to 11000
  141.2113  133.7693  156.9872 LP  0  0  0  0  0  0  0  0  0  0  0  0  # atno 17395 bound_to 11000

$$$$
