AV-unprocessed.smi:1701|AV-procd|sdf|6829|dock7
  -GOLD-   22720 8 03D 1   1.00000     0.00000
 Structure written by MMmdl.
 54 56  0  0  0  0  0  0  0  0  2 V2000
  151.6104  144.0831  157.3999 C   0  0  0  0  0  0  0  0  0  0  0  0
  151.1677  142.8767  156.5602 C   0  0  0  0  0  0  0  0  0  0  0  0
  151.2314  141.6122  157.2932 N   0  0  0  0  0  0  0  0  0  0  0  0
  151.5363  141.6331  158.7259 C   0  0  0  0  0  0  0  0  0  0  0  0
  153.0085  141.9585  159.0226 C   0  0  0  0  0  0  0  0  0  0  0  0
  150.8527  140.3975  156.6692 C   0  0  0  0  0  0  0  0  0  0  0  0
  150.7290  139.1887  157.3997 C   0  0  0  0  0  0  0  0  0  0  0  0
  150.3462  138.0102  156.7310 C   0  0  0  0  0  0  0  0  0  0  0  0
  150.0971  138.0600  155.3409 C   0  0  0  0  0  0  0  0  0  0  0  0
  149.6771  136.9452  154.5675 N   0  0  0  0  0  0  0  0  0  0  0  0
  149.3934  135.6976  154.9900 C   0  0  0  0  0  0  0  0  0  0  0  0
  149.5664  135.2932  156.1374 O   0  0  0  0  0  0  0  0  0  0  0  0
  148.9314  134.8793  154.0280 N   0  0  0  0  0  0  0  0  0  0  0  0
  148.5339  133.4762  154.1513 C   0  0  2  0  0  0  0  0  0  0  0  0
  149.5692  132.5886  154.8646 C   0  0  0  0  0  0  0  0  0  0  0  0
  149.5771  131.2573  154.0877 C   0  0  0  0  0  0  0  0  0  0  0  0
  148.5140  131.3577  153.0622 N   0  3  1  0  0  0  0  0  0  0  0  0
  147.2478  130.7104  153.5028 C   0  0  0  0  0  0  0  0  0  0  0  0
  146.0826  131.0148  152.5526 C   0  0  0  0  0  0  0  0  0  0  0  0
  145.8726  132.5268  152.4418 C   0  0  0  0  0  0  0  0  0  0  0  0
  147.1618  133.1859  151.9395 C   0  0  0  0  0  0  0  0  0  0  0  0
  148.4040  132.8089  152.7778 C   0  0  1  0  0  0  0  0  0  0  0  0
  150.2304  139.3064  154.7003 C   0  0  0  0  0  0  0  0  0  0  0  0
  150.6013  140.4362  155.3372 N   0  0  0  0  0  0  0  0  0  0  0  0
  151.4937  145.0070  156.8335 H   0  0  0  0  0  0  0  0  0  0  0  0
  152.6592  144.0069  157.6841 H   0  0  0  0  0  0  0  0  0  0  0  0
  151.0203  144.1775  158.3115 H   0  0  0  0  0  0  0  0  0  0  0  0
  150.1664  143.0349  156.1603 H   0  0  0  0  0  0  0  0  0  0  0  0
  151.8114  142.8017  155.6833 H   0  0  0  0  0  0  0  0  0  0  0  0
  150.8836  142.3398  159.2389 H   0  0  0  0  0  0  0  0  0  0  0  0
  151.2991  140.6579  159.1519 H   0  0  0  0  0  0  0  0  0  0  0  0
  153.1921  141.9545  160.0970 H   0  0  0  0  0  0  0  0  0  0  0  0
  153.2845  142.9437  158.6465 H   0  0  0  0  0  0  0  0  0  0  0  0
  153.6813  141.2295  158.5729 H   0  0  0  0  0  0  0  0  0  0  0  0
  150.9240  139.1346  158.4594 H   0  0  0  0  0  0  0  0  0  0  0  0
  150.2367  137.0993  157.2988 H   0  0  0  0  0  0  0  0  0  0  0  0
  149.6095  137.1073  153.5736 H   0  0  0  0  0  0  0  0  0  0  0  0
  148.8974  135.2651  153.0952 H   0  0  0  0  0  0  0  0  0  0  0  0
  147.5780  133.4096  154.6734 H   0  0  0  0  0  0  0  0  0  0  0  0
  150.5643  133.0355  154.8437 H   0  0  0  0  0  0  0  0  0  0  0  0
  149.2995  132.4415  155.9111 H   0  0  0  0  0  0  0  0  0  0  0  0
  150.5339  131.1386  153.5778 H   0  0  0  0  0  0  0  0  0  0  0  0
  149.4507  130.3919  154.7400 H   0  0  0  0  0  0  0  0  0  0  0  0
  147.4034  129.6327  153.5635 H   0  0  0  0  0  0  0  0  0  0  0  0
  146.9896  131.0444  154.5092 H   0  0  0  0  0  0  0  0  0  0  0  0
  146.2830  130.5911  151.5676 H   0  0  0  0  0  0  0  0  0  0  0  0
  145.1719  130.5388  152.9173 H   0  0  0  0  0  0  0  0  0  0  0  0
  145.0508  132.7437  151.7589 H   0  0  0  0  0  0  0  0  0  0  0  0
  145.5892  132.9389  153.4109 H   0  0  0  0  0  0  0  0  0  0  0  0
  147.3294  132.8725  150.9081 H   0  0  0  0  0  0  0  0  0  0  0  0
  147.0424  134.2693  151.9070 H   0  0  0  0  0  0  0  0  0  0  0  0
  149.2866  133.0765  152.1925 H   0  0  0  0  0  0  0  0  0  0  0  0
  150.0370  139.4025  153.6416 H   0  0  0  0  0  0  0  0  0  0  0  0
  148.8140  130.8848  152.2213 H   0  0  0  0  0  0  0  0  0  0  0  0
  1  2  1  0  0  0  0
  1 25  1  0  0  0  0
  1 26  1  0  0  0  0
  1 27  1  0  0  0  0
  2  3  1  0  0  0  0
  2 28  1  0  0  0  0
  2 29  1  0  0  0  0
  3  4  1  0  0  0  0
  3  6  1  0  0  0  0
  4  5  1  0  0  0  0
  4 30  1  0  0  0  0
  4 31  1  0  0  0  0
  5 32  1  0  0  0  0
  5 33  1  0  0  0  0
  5 34  1  0  0  0  0
  6 24  1  0  0  0  0
  6  7  2  0  0  0  0
  7  8  1  0  0  0  0
  7 35  1  0  0  0  0
  8  9  2  0  0  0  0
  8 36  1  0  0  0  0
  9 10  1  0  0  0  0
  9 23  1  0  0  0  0
 10 11  1  0  0  0  0
 10 37  1  0  0  0  0
 11 12  2  0  0  0  0
 11 13  1  0  0  0  0
 13 14  1  0  0  0  0
 13 38  1  0  0  0  0
 14 22  1  0  0  0  0
 14 15  1  0  0  0  0
 14 39  1  0  0  0  0
 15 16  1  0  0  0  0
 15 40  1  0  0  0  0
 15 41  1  0  0  0  0
 16 17  1  0  0  0  0
 16 42  1  0  0  0  0
 16 43  1  0  0  0  0
 17 22  1  0  0  0  0
 17 18  1  0  0  0  0
 17 54  1  0  0  0  0
 18 19  1  0  0  0  0
 18 44  1  0  0  0  0
 18 45  1  0  0  0  0
 19 20  1  0  0  0  0
 19 46  1  0  0  0  0
 19 47  1  0  0  0  0
 20 21  1  0  0  0  0
 20 48  1  0  0  0  0
 20 49  1  0  0  0  0
 21 22  1  0  0  0  0
 21 50  1  0  0  0  0
 21 51  1  0  0  0  0
 22 52  1  0  0  0  0
 23 24  2  0  0  0  0
 23 53  1  0  0  0  0
M  CHG  1  17   1
M  END
> <s_m_source_file>
AV-unprocessed.smi

> <i_m_source_file_index>
1701

> <i_lp_mmshare_version>
43012

> <i_f3d_flags>
0

> <s_epik_input>
W0NIM11bQ0gyXU4oW0NIMl1bQ0gzXSljMVtjSF1bY0hdYyhbY0hdbjEpW05IXUMoPU8pW05IXVtDQEhdKFtDSDJdW0NIMl0yKVtDQEBIXShOMjMpW0NIMl1bQ0gyXVtDSDJdW0NIMl0z

> <s_epik_cmdline>
J2VwaWtfcHl0aG9uJywgJy1waCcsICc3LjAnLCAnLXRuJywgJzgnLCAnLW1hJywgJzIwMCcsICctbWV0YWxfYmluZGluZycsICctaW1hZScsICc8aW5maWxlLm1hZT4nLCAnLW9tYWUnLCAnPG91dGZpbGUubWFlPic=

> <r_lp_tautomer_probability>
1

> <r_epik_Ionization_Penalty>
0.56662

> <r_epik_Ionization_Penalty_Charging>
0.000974069

> <r_epik_Ionization_Penalty_Neutral>
0.565646

> <r_epik_State_Penalty>
2.0247

> <r_epik_Charging_Adjusted_Penalty>
2.02568

> <i_epik_Tot_Q>
1

> <i_epik_Tot_abs_Q>
1

> <r_epik_Metal_State_Penalty>
1.51504

> <b_epik_Metal_Only>
0

> <s_lp_Force_Field>
OPLS_2005

> <r_lp_Energy>
57.8718

> <b_lp_Chiralities_Consistent>
1

> <s_lp_Variant>
AV-unprocessed.smi:1701-9

> <Gold.Version>
5.8.1

> <Gold.Id.Protein>
6NUR|6NUR_protein|mol2

> <Gold.PLP.Fitness>
50.4830

> <Gold.PLP.PLP>
-39.4565

> <Gold.PLP.part.hbond>
-3.8137

> <Gold.PLP.part.metal>
0.0000

> <Gold.PLP.part.buried>
-3.0657

> <Gold.PLP.part.nonpolar>
-33.1035

> <Gold.PLP.part.repulsive>
0.1049

> <Gold.PLP.ligand.clash>
0.0000

> <Gold.PLP.ligand.torsion>
0.2729

> <Gold.PLP.Chemscore.Hbond>
3.0146

> <Gold.PLP.Chemscore.CHOScore>
0.8081

> <Gold.PLP.Chemscore.Metal>
0.0000

> <Gold.Chemscore.Hbonds>
donor molecule, donor type, donor heavy atom, donor atom, acceptor molecule, acceptor atom, score
      L1  H    10    37       P1  7948  0.85
      L1  H    13    38       P1  7948  1.00
      L1  H    17    54       P1 10747  1.00
      P1  H  7989  7998       L1    24  0.17
      L1  C    23    53       P1  7957  0.85

> <Gold.PLP.Chemscore.Internal.Correction>
0.1042

> <Gold.Rescore>
     Score         DG    S(hbond)    S(metal)    S(lipo)     H(rot)  DE(clash)    DE(int)     intcor
     19.76     -22.58       2.61        0.00      99.62       1.28       0.10       2.72       ----

> <Gold.Chemscore.Fitness>
19.7569

> <Gold.Chemscore.DG>
-22.5796

> <Gold.Chemscore.ZeroCoef>
-5.4800

> <Gold.Chemscore.Hbond>
2.6138

> <Gold.Chemscore.Metal>
0.0000

> <Gold.Chemscore.Lipo>
99.6237

> <Gold.Chemscore.Internal_Hbond>
0.0000

> <Gold.Chemscore.DEClash>
0.0978

> <Gold.Chemscore.DEInternal>
2.7249

> <Gold.Chemscore.Rot>
1.2838

> <Gold.Chemscore.Internal.Correction>
   9.000000E+99

> <Gold.Chemscore.Hbonds>
donor molecule, donor type, donor heavy atom, donor atom, acceptor molecule, acceptor atom, score
      L1  H    10    37       P1  7948  0.66
      L1  H    13    38       P1  7948  0.42
      L1  H    17    54       P1 10747  0.62

> <Gold.Chemscore.Hbond.Weighted>
-8.7302

> <Gold.Chemscore.Metal.Weighted>
-0.0000

> <Gold.Chemscore.Lipo.Weighted>
-11.6560

> <Gold.Chemscore.Internal_Hbond.Weighted>
0.0000

> <Gold.Chemscore.DEClash.Weighted>
0.0978

> <Gold.Chemscore.DEInternal.Weighted>
2.7249

> <Gold.Chemscore.Rot.Weighted>
3.2865

> <Gold.Chemscore.Internal.Correction.Weighted>
   9.000000E+99

> <Gold.Protein.RotatedTorsions>
[ 6907 6896 6895 6894 ] final -138.17 input  -60.11 | X-H torsion
[ 7974 7965 7964 7962 ] final  173.73 input  175.53 | X-H torsion
[ 8008 7997 7996 7995 ] final  -16.81 input   59.86 | X-H torsion
[ 10167 10162 10161 10158 ] final  -52.25 input  -65.29 | X-H torsion
[ 10718 10713 10712 10709 ] final  -30.36 input   66.30 | X-H torsion
[ 10763 10752 10751 10750 ] final  -36.41 input  -60.55 | X-H torsion
[ 11005 11000 10999 10996 ] final -173.32 input  -57.11 | X-H torsion

> <Gold.Protein.ActiveResidues>
 VAL166  LYS551  ARG553  GLY616  TRP617  ASP618  TYR619  PRO620  LYS621  CYS622 
 ASP623  PHE694  ASN695  SER759  ASP760  ASP761  ALA762  ILE779  LEU786  VAL792 
 PHE793  MET794  SER795  GLU796  ALA797  LYS798  CYS799  TRP800  GLU811  SER814 

> <Gold.Protein.RotatedAtoms>
  151.0317  133.5785  159.2659 H   0  0  0  0  0  0  0  0  0  0  0  0  # atno 6907 bound_to 6896
  151.2864  135.0728  159.9198 H   0  0  0  0  0  0  0  0  0  0  0  0  # atno 6908 bound_to 6896
  152.5346  134.0022  159.7954 H   0  0  0  0  0  0  0  0  0  0  0  0  # atno 6909 bound_to 6896
  144.7237  139.9691  143.6436 H   0  0  0  0  0  0  0  0  0  0  0  0  # atno 7974 bound_to 7965
  154.5025  140.2159  155.9317 H   0  0  0  0  0  0  0  0  0  0  0  0  # atno 8008 bound_to 7997
  156.1452  140.3172  155.8526 H   0  0  0  0  0  0  0  0  0  0  0  0  # atno 8009 bound_to 7997
  155.4044  140.0486  157.3026 H   0  0  0  0  0  0  0  0  0  0  0  0  # atno 8010 bound_to 7997
  140.6547  143.2590  151.4621 H   0  0  0  0  0  0  0  0  0  0  0  0  # atno 10167 bound_to 10162
  156.4008  130.4390  149.7324 H   0  0  0  0  0  0  0  0  0  0  0  0  # atno 10718 bound_to 10713
  153.8792  135.6823  153.4768 H   0  0  0  0  0  0  0  0  0  0  0  0  # atno 10763 bound_to 10752
  153.1243  135.4726  154.9244 H   0  0  0  0  0  0  0  0  0  0  0  0  # atno 10764 bound_to 10752
  154.7677  135.3229  154.8205 H   0  0  0  0  0  0  0  0  0  0  0  0  # atno 10765 bound_to 10752
  140.4870  134.6021  157.4941 H   0  0  0  0  0  0  0  0  0  0  0  0  # atno 11005 bound_to 11000
  146.0577  139.3573  143.0600 LP  0  0  0  0  0  0  0  0  0  0  0  0  # atno 17320 bound_to 7965
  145.8133  140.9715  143.0937 LP  0  0  0  0  0  0  0  0  0  0  0  0  # atno 17321 bound_to 7965
  139.5767  144.1802  152.1913 LP  0  0  0  0  0  0  0  0  0  0  0  0  # atno 17342 bound_to 10162
  140.1115  144.5453  150.6922 LP  0  0  0  0  0  0  0  0  0  0  0  0  # atno 17343 bound_to 10162
  156.4341  130.7829  151.2849 LP  0  0  0  0  0  0  0  0  0  0  0  0  # atno 17370 bound_to 10713
  157.7504  131.0145  150.3466 LP  0  0  0  0  0  0  0  0  0  0  0  0  # atno 17371 bound_to 10713
  139.9792  134.7165  155.9892 LP  0  0  0  0  0  0  0  0  0  0  0  0  # atno 17394 bound_to 11000
  141.1503  133.6549  156.3992 LP  0  0  0  0  0  0  0  0  0  0  0  0  # atno 17395 bound_to 11000

$$$$
