AV-unprocessed.smi:1712|AV-procd|sdf|6903|dock3
  -GOLD-   22720 8103D 1   1.00000     0.00000
 Structure written by MMmdl.
 38 39  0  0  0  0  0  0  0  0  2 V2000
  147.1097  140.5912  153.5652 C   0  0  0  0  0  0  0  0  0  0  0  0
  147.4779  139.2763  152.8338 C   0  0  2  0  0  0  0  0  0  0  0  0
  146.2165  138.3918  152.6208 C   0  0  0  0  0  0  0  0  0  0  0  0
  146.5135  137.0786  152.0517 N   0  0  0  0  0  0  0  0  0  0  0  0
  145.6017  136.1521  151.7203 C   0  0  0  0  0  0  0  0  0  0  0  0
  144.3876  136.3228  151.8315 O   0  0  0  0  0  0  0  0  0  0  0  0
  146.1851  135.0360  151.2537 N   0  0  0  0  0  0  0  0  0  0  0  0
  145.5434  133.8594  150.7905 C   0  0  0  0  0  0  0  0  0  0  0  0
  146.2134  132.6544  150.4449 C   0  0  0  0  0  0  0  0  0  0  0  0
  145.3593  131.7242  150.0427 N   0  0  0  0  0  0  0  0  0  0  0  0
  144.1504  132.3237  150.1284 N   0  0  0  0  0  0  0  0  0  0  0  0
  144.2138  133.6238  150.5788 C   0  0  0  0  0  0  0  0  0  0  0  0
  148.5741  138.5360  153.5476 N   0  3  0  0  0  0  0  0  0  0  0  0
  149.7403  139.3882  153.9181 C   0  0  0  0  0  0  0  0  0  0  0  0
  150.8260  138.5827  154.6514 C   0  0  0  0  0  0  0  0  0  0  0  0
  150.2715  137.9656  155.8012 O   0  0  0  0  0  0  0  0  0  0  0  0
  149.2548  137.0439  155.4447 C   0  0  0  0  0  0  0  0  0  0  0  0
  148.1028  137.7856  154.7467 C   0  0  0  0  0  0  0  0  0  0  0  0
  143.3007  131.8381  149.8785 H   0  0  0  0  0  0  0  0  0  0  0  0
  146.2985  141.1215  153.0690 H   0  0  0  0  0  0  0  0  0  0  0  0
  147.9317  141.3044  153.5868 H   0  0  0  0  0  0  0  0  0  0  0  0
  146.7968  140.3993  154.5919 H   0  0  0  0  0  0  0  0  0  0  0  0
  147.8575  139.5453  151.8465 H   0  0  0  0  0  0  0  0  0  0  0  0
  145.7343  138.1700  153.5714 H   0  0  0  0  0  0  0  0  0  0  0  0
  145.4791  138.9246  152.0177 H   0  0  0  0  0  0  0  0  0  0  0  0
  147.4883  136.8507  151.9201 H   0  0  0  0  0  0  0  0  0  0  0  0
  147.1939  135.0267  151.2213 H   0  0  0  0  0  0  0  0  0  0  0  0
  147.2693  132.4281  150.4707 H   0  0  0  0  0  0  0  0  0  0  0  0
  143.3331  134.2366  150.7005 H   0  0  0  0  0  0  0  0  0  0  0  0
  150.2098  139.8153  153.0339 H   0  0  0  0  0  0  0  0  0  0  0  0
  149.4044  140.2167  154.5437 H   0  0  0  0  0  0  0  0  0  0  0  0
  151.2671  137.8318  153.9937 H   0  0  0  0  0  0  0  0  0  0  0  0
  151.6348  139.2437  154.9636 H   0  0  0  0  0  0  0  0  0  0  0  0
  149.6607  136.2599  154.8031 H   0  0  0  0  0  0  0  0  0  0  0  0
  148.8914  136.5557  156.3493 H   0  0  0  0  0  0  0  0  0  0  0  0
  147.6265  138.4753  155.4454 H   0  0  0  0  0  0  0  0  0  0  0  0
  147.3622  137.0362  154.4749 H   0  0  0  0  0  0  0  0  0  0  0  0
  148.9234  137.8455  152.8982 H   0  0  0  0  0  0  0  0  0  0  0  0
  1  2  1  0  0  0  0
  1 20  1  0  0  0  0
  1 21  1  0  0  0  0
  1 22  1  0  0  0  0
  2  3  1  0  0  0  0
  2 13  1  0  0  0  0
  2 23  1  0  0  0  0
  3  4  1  0  0  0  0
  3 24  1  0  0  0  0
  3 25  1  0  0  0  0
  4  5  1  0  0  0  0
  4 26  1  0  0  0  0
  5  6  2  0  0  0  0
  5  7  1  0  0  0  0
  7  8  1  0  0  0  0
  7 27  1  0  0  0  0
  8 12  2  0  0  0  0
  8  9  1  0  0  0  0
  9 10  2  0  0  0  0
  9 28  1  0  0  0  0
 10 11  1  0  0  0  0
 11 19  1  0  0  0  0
 11 12  1  0  0  0  0
 12 29  1  0  0  0  0
 13 18  1  0  0  0  0
 13 14  1  0  0  0  0
 13 38  1  0  0  0  0
 14 15  1  0  0  0  0
 14 30  1  0  0  0  0
 14 31  1  0  0  0  0
 15 16  1  0  0  0  0
 15 32  1  0  0  0  0
 15 33  1  0  0  0  0
 16 17  1  0  0  0  0
 17 18  1  0  0  0  0
 17 34  1  0  0  0  0
 17 35  1  0  0  0  0
 18 36  1  0  0  0  0
 18 37  1  0  0  0  0
M  CHG  1  13   1
M  END
> <s_m_source_file>
AV-unprocessed.smi

> <i_m_source_file_index>
1712

> <i_lp_mmshare_version>
43012

> <i_f3d_flags>
0

> <s_epik_input>
W0NIMl0xW0NIMl1PW0NIMl1bQ0gyXU4xW0NASF0oW0NIM10pW0NIMl1bTkhdQyg9TylbTkhdYzJbY0hdbltuSF1bY0hdMg==

> <s_epik_cmdline>
J2VwaWtfcHl0aG9uJywgJy1waCcsICc3LjAnLCAnLXRuJywgJzgnLCAnLW1hJywgJzIwMCcsICctbWV0YWxfYmluZGluZycsICctaW1hZScsICc8aW5maWxlLm1hZT4nLCAnLW9tYWUnLCAnPG91dGZpbGUubWFlPic=

> <r_lp_tautomer_probability>
0.5

> <r_epik_Ionization_Penalty>
0.646007

> <r_epik_Ionization_Penalty_Charging>
0.645968

> <r_epik_Ionization_Penalty_Neutral>
3.91929e-05

> <r_epik_State_Penalty>
0.664063

> <r_epik_Charging_Adjusted_Penalty>
1.31003

> <i_epik_Tot_Q>
1

> <i_epik_Tot_abs_Q>
1

> <r_epik_Metal_State_Penalty>
0.664064

> <b_epik_Metal_Only>
0

> <s_lp_Force_Field>
OPLS_2005

> <r_lp_Energy>
23.9653

> <b_lp_Chiralities_Consistent>
1

> <s_lp_Variant>
AV-unprocessed.smi:1712-3

> <Gold.Version>
5.8.1

> <Gold.Id.Protein>
6NUR|6NUR_protein|mol2

> <Gold.PLP.Fitness>
41.7925

> <Gold.PLP.PLP>
-25.5551

> <Gold.PLP.part.hbond>
-3.9853

> <Gold.PLP.part.metal>
0.0000

> <Gold.PLP.part.buried>
-0.3770

> <Gold.PLP.part.nonpolar>
-22.8624

> <Gold.PLP.part.repulsive>
1.6322

> <Gold.PLP.ligand.clash>
0.0000

> <Gold.PLP.ligand.torsion>
0.2221

> <Gold.PLP.Chemscore.Hbond>
3.5374

> <Gold.PLP.Chemscore.CHOScore>
2.0000

> <Gold.PLP.Chemscore.Metal>
0.0000

> <Gold.Chemscore.Hbonds>
donor molecule, donor type, donor heavy atom, donor atom, acceptor molecule, acceptor atom, score
      L1  H     4    26       P1  7948  1.00
      L1  H     7    27       P1  7948  0.55
      L1  H    13    38       P1  7948  2.00
      L1  C     9    28       P1 10747  1.00
      L1  C    12    29       P1 10186  0.84

> <Gold.PLP.Chemscore.Internal.Correction>
0.0693

> <Gold.Rescore>
     Score         DG    S(hbond)    S(metal)    S(lipo)     H(rot)  DE(clash)    DE(int)     intcor
     14.70     -16.36       2.47        0.00      59.12       1.68       0.32       1.34       ----

> <Gold.Chemscore.Fitness>
14.6992

> <Gold.Chemscore.DG>
-16.3563

> <Gold.Chemscore.ZeroCoef>
-5.4800

> <Gold.Chemscore.Hbond>
2.4709

> <Gold.Chemscore.Metal>
0.0000

> <Gold.Chemscore.Lipo>
59.1186

> <Gold.Chemscore.Internal_Hbond>
0.0000

> <Gold.Chemscore.DEClash>
0.3199

> <Gold.Chemscore.DEInternal>
1.3372

> <Gold.Chemscore.Rot>
1.6771

> <Gold.Chemscore.Internal.Correction>
   9.000000E+99

> <Gold.Chemscore.Hbonds>
donor molecule, donor type, donor heavy atom, donor atom, acceptor molecule, acceptor atom, score
      L1  H     4    26       P1  7948  0.97
      L1  H     7    27       P1  7948  0.32
      L1  H    13    38       P1  7948  0.99

> <Gold.Chemscore.Hbond.Weighted>
-8.2529

> <Gold.Chemscore.Metal.Weighted>
-0.0000

> <Gold.Chemscore.Lipo.Weighted>
-6.9169

> <Gold.Chemscore.Internal_Hbond.Weighted>
0.0000

> <Gold.Chemscore.DEClash.Weighted>
0.3199

> <Gold.Chemscore.DEInternal.Weighted>
1.3372

> <Gold.Chemscore.Rot.Weighted>
4.2935

> <Gold.Chemscore.Internal.Correction.Weighted>
   9.000000E+99

> <Gold.Protein.RotatedTorsions>
[ 6907 6896 6895 6894 ] final  127.32 input  -60.11 | X-H torsion
[ 7974 7965 7964 7962 ] final  -10.29 input  175.53 | X-H torsion
[ 8008 7997 7996 7995 ] final -133.98 input   59.86 | X-H torsion
[ 10167 10162 10161 10158 ] final -162.42 input  -65.29 | X-H torsion
[ 10718 10713 10712 10709 ] final  132.44 input   66.30 | X-H torsion
[ 10763 10752 10751 10750 ] final  145.97 input  -60.55 | X-H torsion
[ 11005 11000 10999 10996 ] final -110.46 input  -57.11 | X-H torsion

> <Gold.Protein.ActiveResidues>
 VAL166  LYS551  ARG553  GLY616  TRP617  ASP618  TYR619  PRO620  LYS621  CYS622 
 ASP623  PHE694  ASN695  SER759  ASP760  ASP761  ALA762  ILE779  LEU786  VAL792 
 PHE793  MET794  SER795  GLU796  ALA797  LYS798  CYS799  TRP800  GLU811  SER814 

> <Gold.Protein.RotatedAtoms>
  152.3823  133.6563  159.6170 H   0  0  0  0  0  0  0  0  0  0  0  0  # atno 6907 bound_to 6896
  150.7751  133.9093  159.3373 H   0  0  0  0  0  0  0  0  0  0  0  0  # atno 6908 bound_to 6896
  151.6896  135.0950  160.0282 H   0  0  0  0  0  0  0  0  0  0  0  0  # atno 6909 bound_to 6896
  146.2225  140.2743  142.8358 H   0  0  0  0  0  0  0  0  0  0  0  0  # atno 7974 bound_to 7965
  155.3545  140.0479  157.3046 H   0  0  0  0  0  0  0  0  0  0  0  0  # atno 8008 bound_to 7997
  154.5210  140.2225  155.8940 H   0  0  0  0  0  0  0  0  0  0  0  0  # atno 8009 bound_to 7997
  156.1689  140.3100  155.8944 H   0  0  0  0  0  0  0  0  0  0  0  0  # atno 8010 bound_to 7997
  139.6394  144.0289  152.2080 H   0  0  0  0  0  0  0  0  0  0  0  0  # atno 10167 bound_to 10162
  157.4871  131.1089  150.9606 H   0  0  0  0  0  0  0  0  0  0  0  0  # atno 10718 bound_to 10713
  154.0141  135.2912  155.3389 H   0  0  0  0  0  0  0  0  0  0  0  0  # atno 10763 bound_to 10752
  154.7085  135.5159  153.8634 H   0  0  0  0  0  0  0  0  0  0  0  0  # atno 10764 bound_to 10752
  153.0710  135.6647  154.0370 H   0  0  0  0  0  0  0  0  0  0  0  0  # atno 10765 bound_to 10752
  141.0790  133.9252  157.2329 H   0  0  0  0  0  0  0  0  0  0  0  0  # atno 11005 bound_to 11000
  144.9245  140.7905  143.5728 LP  0  0  0  0  0  0  0  0  0  0  0  0  # atno 17320 bound_to 7965
  145.2682  139.1965  143.4856 LP  0  0  0  0  0  0  0  0  0  0  0  0  # atno 17321 bound_to 7965
  139.9974  144.6318  150.7760 LP  0  0  0  0  0  0  0  0  0  0  0  0  # atno 17342 bound_to 10162
  140.7482  143.2919  151.3307 LP  0  0  0  0  0  0  0  0  0  0  0  0  # atno 17343 bound_to 10162
  157.0320  130.5715  149.5344 LP  0  0  0  0  0  0  0  0  0  0  0  0  # atno 17370 bound_to 10713
  156.0152  130.5246  150.8114 LP  0  0  0  0  0  0  0  0  0  0  0  0  # atno 17371 bound_to 10713
  139.9603  135.0156  156.9242 LP  0  0  0  0  0  0  0  0  0  0  0  0  # atno 17394 bound_to 11000
  140.5510  134.0627  155.7369 LP  0  0  0  0  0  0  0  0  0  0  0  0  # atno 17395 bound_to 11000

$$$$
