AV-unprocessed.smi:55|AV-procd|sdf|568|dock8
  -GOLD-   2262016473D 1   1.00000     0.00000
 Structure written by MMmdl.
 31 32  0  0  0  0  0  0  0  0  1 V2000
  151.2228  142.7785  157.5753 C   0  0  0  0  0  0  0  0  0  0  0  0
  151.1098  141.5498  156.6882 C   0  0  0  0  0  0  0  0  0  0  0  0
  150.2482  141.4854  155.6412 C   0  0  0  0  0  0  0  0  0  0  0  0
  150.1190  140.3779  154.8149 N   0  0  0  0  0  0  0  0  0  0  0  0
  149.1364  140.3803  153.6652 C   0  0  1  0  0  0  0  0  0  0  0  0
  148.0767  139.2893  153.8502 C   0  0  0  0  0  0  0  0  0  0  0  0
  146.8545  140.0895  154.2598 C   0  0  2  0  0  0  0  0  0  0  0  0
  145.6657  139.4469  153.8469 O   0  0  0  0  0  0  0  0  0  0  0  0
  147.0780  141.4226  153.5415 C   0  0  1  0  0  0  0  0  0  0  0  0
  146.3435  142.6035  154.1938 C   0  0  0  0  0  0  0  0  0  0  0  0
  146.7605  142.7495  155.5344 O   0  0  0  0  0  0  0  0  0  0  0  0
  148.4861  141.6154  153.6409 O   0  0  0  0  0  0  0  0  0  0  0  0
  150.9111  139.2365  155.0613 C   0  0  0  0  0  0  0  0  0  0  0  0
  150.8411  138.2093  154.3878 O   0  0  0  0  0  0  0  0  0  0  0  0
  151.7993  139.3037  156.1336 N   0  0  0  0  0  0  0  0  0  0  0  0
  151.9653  140.3981  156.9859 C   0  0  0  0  0  0  0  0  0  0  0  0
  152.7847  140.3363  157.9010 O   0  0  0  0  0  0  0  0  0  0  0  0
  149.7029  140.2708  152.7395 H   0  0  0  0  0  0  0  0  0  0  0  0
  146.8430  140.2292  155.3414 H   0  0  0  0  0  0  0  0  0  0  0  0
  146.8084  141.3197  152.4882 H   0  0  0  0  0  0  0  0  0  0  0  0
  152.3698  138.4901  156.3115 H   0  0  0  0  0  0  0  0  0  0  0  0
  150.5510  143.5740  157.2521 H   0  0  0  0  0  0  0  0  0  0  0  0
  152.2398  143.1713  157.5552 H   0  0  0  0  0  0  0  0  0  0  0  0
  150.9725  142.5278  158.6067 H   0  0  0  0  0  0  0  0  0  0  0  0
  149.6287  142.3472  155.4429 H   0  0  0  0  0  0  0  0  0  0  0  0
  147.9235  138.7987  152.8877 H   0  0  0  0  0  0  0  0  0  0  0  0
  148.3767  138.5388  154.5831 H   0  0  0  0  0  0  0  0  0  0  0  0
  145.0812  140.0963  153.4864 H   0  0  0  0  0  0  0  0  0  0  0  0
  146.5863  143.5306  153.6737 H   0  0  0  0  0  0  0  0  0  0  0  0
  145.2617  142.4761  154.1418 H   0  0  0  0  0  0  0  0  0  0  0  0
  147.5918  143.1988  155.5437 H   0  0  0  0  0  0  0  0  0  0  0  0
  1  2  1  0  0  0  0
  1 22  1  0  0  0  0
  1 23  1  0  0  0  0
  1 24  1  0  0  0  0
  2 16  1  0  0  0  0
  2  3  2  0  0  0  0
  3  4  1  0  0  0  0
  3 25  1  0  0  0  0
  4  5  1  0  0  0  0
  4 13  1  0  0  0  0
  5 18  1  0  0  0  0
  5 12  1  0  0  0  0
  5  6  1  0  0  0  0
  6  7  1  0  0  0  0
  6 26  1  0  0  0  0
  6 27  1  0  0  0  0
  7 19  1  0  0  0  0
  7  8  1  0  0  0  0
  7  9  1  0  0  0  0
  8 28  1  0  0  0  0
  9 20  1  0  0  0  0
  9 10  1  0  0  0  0
  9 12  1  0  0  0  0
 10 11  1  0  0  0  0
 10 29  1  0  0  0  0
 10 30  1  0  0  0  0
 11 31  1  0  0  0  0
 13 14  2  0  0  0  0
 13 15  1  0  0  0  0
 15 21  1  0  0  0  0
 15 16  1  0  0  0  0
 16 17  2  0  0  0  0
M  END
> <s_m_source_file>
AV-unprocessed.smi

> <i_m_source_file_index>
55

> <i_lp_mmshare_version>
43012

> <i_f3d_flags>
0

> <s_epik_input>
Tz1jMVtuSF1jKD1PKW4oW2NIXWMxW0NIM10pW0NAQEhdMltDSDJdW0NAQEhdKFtPSF0pW0NAQEhdKE8yKVtDSDJdW09IXQ==

> <s_epik_cmdline>
J2VwaWtfcHl0aG9uJywgJy1waCcsICc3LjAnLCAnLXRuJywgJzgnLCAnLW1hJywgJzIwMCcsICctbWV0YWxfYmluZGluZycsICctaW1hZScsICc8aW5maWxlLm1hZT4nLCAnLW9tYWUnLCAnPG91dGZpbGUubWFlPic=

> <r_lp_tautomer_probability>
0.999537

> <r_epik_Ionization_Penalty>
0.00121888

> <r_epik_Ionization_Penalty_Charging>
0.00121876

> <r_epik_Ionization_Penalty_Neutral>
1.19946e-07

> <r_epik_State_Penalty>
0.000805124

> <r_epik_Charging_Adjusted_Penalty>
0.00202389

> <i_epik_Tot_Q>
0

> <i_epik_Tot_abs_Q>
0

> <r_epik_Metal_State_Penalty>
0.662472

> <b_epik_Metal_Only>
0

> <s_epik_Chemistry_Notes>
This compound contains an acetal/aminal-like group ( X-CH(R)-Y where X, Y are N, S, or O) that may be acid/base labile, releasing an aldehyde.

> <s_lp_Force_Field>
OPLS_2005

> <r_lp_Energy>
24.9253

> <b_lp_Chiralities_Consistent>
1

> <s_lp_Variant>
AV-unprocessed.smi:55-8

> <Gold.Version>
5.8.1

> <Gold.Id.Protein>
6NUR|6NUR_protein|mol2

> <Gold.PLP.Fitness>
40.8592

> <Gold.PLP.PLP>
-27.5943

> <Gold.PLP.part.hbond>
-4.0000

> <Gold.PLP.part.metal>
0.0000

> <Gold.PLP.part.buried>
3.1184

> <Gold.PLP.part.nonpolar>
-25.3797

> <Gold.PLP.part.repulsive>
0.4904

> <Gold.PLP.ligand.clash>
0.0000

> <Gold.PLP.ligand.torsion>
0.0070

> <Gold.PLP.Chemscore.Hbond>
3.4317

> <Gold.PLP.Chemscore.CHOScore>
0.9917

> <Gold.PLP.Chemscore.Metal>
0.0000

> <Gold.Chemscore.Hbonds>
donor molecule, donor type, donor heavy atom, donor atom, acceptor molecule, acceptor atom, score
      L1  H     8    28       P1 10175  0.98
      L1  H    11    31       P1  8028  0.95
      P1  H  7997  8009       L1    17  0.90
      P1  H  8011  8017       L1    12  0.46
      L1  C     3    25       P1  8028  1.00

> <Gold.PLP.Chemscore.Internal.Correction>
0.0087

> <Gold.Rescore>
     Score         DG    S(hbond)    S(metal)    S(lipo)     H(rot)  DE(clash)    DE(int)     intcor
      8.38     -12.39       2.42        0.00      49.67       2.73       3.00       1.01       ----

> <Gold.Chemscore.Fitness>
8.3837

> <Gold.Chemscore.DG>
-12.3861

> <Gold.Chemscore.ZeroCoef>
-5.4800

> <Gold.Chemscore.Hbond>
2.4167

> <Gold.Chemscore.Metal>
0.0000

> <Gold.Chemscore.Lipo>
49.6680

> <Gold.Chemscore.Internal_Hbond>
0.0000

> <Gold.Chemscore.DEClash>
2.9973

> <Gold.Chemscore.DEInternal>
1.0051

> <Gold.Chemscore.Rot>
2.7253

> <Gold.Chemscore.Internal.Correction>
   9.000000E+99

> <Gold.Chemscore.Hbonds>
donor molecule, donor type, donor heavy atom, donor atom, acceptor molecule, acceptor atom, score
      L1  H     8    28       P1 10175  0.93
      L1  H    11    31       P1  8028  0.21
      P1  H  7997  8009       L1    17  0.34
      P1  H  8011  8017       L1    12  0.04

> <Gold.Chemscore.Hbond.Weighted>
-8.0718

> <Gold.Chemscore.Metal.Weighted>
-0.0000

> <Gold.Chemscore.Lipo.Weighted>
-5.8112

> <Gold.Chemscore.Internal_Hbond.Weighted>
0.0000

> <Gold.Chemscore.DEClash.Weighted>
2.9973

> <Gold.Chemscore.DEInternal.Weighted>
1.0051

> <Gold.Chemscore.Rot.Weighted>
6.9769

> <Gold.Chemscore.Internal.Correction.Weighted>
   9.000000E+99

> <Gold.Protein.RotatedTorsions>
[ 6907 6896 6895 6894 ] final  142.74 input  -60.11 | X-H torsion
[ 7974 7965 7964 7962 ] final -131.87 input  175.53 | X-H torsion
[ 8008 7997 7996 7995 ] final  160.30 input   59.86 | X-H torsion
[ 10167 10162 10161 10158 ] final -161.58 input  -65.29 | X-H torsion
[ 10718 10713 10712 10709 ] final   41.75 input   66.30 | X-H torsion
[ 10763 10752 10751 10750 ] final  154.20 input  -60.55 | X-H torsion
[ 11005 11000 10999 10996 ] final  -42.98 input  -57.11 | X-H torsion

> <Gold.Protein.ActiveResidues>
 VAL166  LYS551  ARG553  GLY616  TRP617  ASP618  TYR619  PRO620  LYS621  CYS622 
 ASP623  PHE694  ASN695  SER759  ASP760  ASP761  ALA762  ILE779  LEU786  VAL792 
 PHE793  MET794  SER795  GLU796  ALA797  LYS798  CYS799  TRP800  GLU811  SER814 

> <Gold.Protein.RotatedAtoms>
  152.2150  133.4939  159.5130 H   0  0  0  0  0  0  0  0  0  0  0  0  # atno 6907 bound_to 6896
  150.6999  134.1418  159.4117 H   0  0  0  0  0  0  0  0  0  0  0  0  # atno 6908 bound_to 6896
  151.9338  135.0244  160.0582 H   0  0  0  0  0  0  0  0  0  0  0  0  # atno 6909 bound_to 6896
  144.9339  140.7160  143.4889 H   0  0  0  0  0  0  0  0  0  0  0  0  # atno 7974 bound_to 7965
  156.2181  140.1808  156.7541 H   0  0  0  0  0  0  0  0  0  0  0  0  # atno 8008 bound_to 7997
  154.5823  140.0664  156.9150 H   0  0  0  0  0  0  0  0  0  0  0  0  # atno 8009 bound_to 7997
  155.2481  140.3327  155.4287 H   0  0  0  0  0  0  0  0  0  0  0  0  # atno 8010 bound_to 7997
  139.6454  144.0181  152.2123 H   0  0  0  0  0  0  0  0  0  0  0  0  # atno 10167 bound_to 10162
  157.3971  130.7839  149.7318 H   0  0  0  0  0  0  0  0  0  0  0  0  # atno 10718 bound_to 10713
  154.1484  135.2816  155.3142 H   0  0  0  0  0  0  0  0  0  0  0  0  # atno 10763 bound_to 10752
  154.6235  135.5459  153.7605 H   0  0  0  0  0  0  0  0  0  0  0  0  # atno 10764 bound_to 10752
  153.0228  135.6445  154.1629 H   0  0  0  0  0  0  0  0  0  0  0  0  # atno 10765 bound_to 10752
  141.0353  133.6802  156.2670 H   0  0  0  0  0  0  0  0  0  0  0  0  # atno 11005 bound_to 11000
  145.3098  139.1822  143.4645 LP  0  0  0  0  0  0  0  0  0  0  0  0  # atno 17320 bound_to 7965
  146.3258  140.3101  142.8626 LP  0  0  0  0  0  0  0  0  0  0  0  0  # atno 17321 bound_to 7965
  139.9882  144.6380  150.7839 LP  0  0  0  0  0  0  0  0  0  0  0  0  # atno 17342 bound_to 10162
  140.7512  143.2968  151.3183 LP  0  0  0  0  0  0  0  0  0  0  0  0  # atno 17343 bound_to 10162
  155.9813  130.4020  150.3478 LP  0  0  0  0  0  0  0  0  0  0  0  0  # atno 17370 bound_to 10713
  157.1601  131.0343  151.2845 LP  0  0  0  0  0  0  0  0  0  0  0  0  # atno 17371 bound_to 10713
  140.6334  134.5241  157.5562 LP  0  0  0  0  0  0  0  0  0  0  0  0  # atno 17394 bound_to 11000
  139.9236  134.8100  156.1136 LP  0  0  0  0  0  0  0  0  0  0  0  0  # atno 17395 bound_to 11000

$$$$
