AV-unprocessed.smi:2462|AV-procd|sdf|9718|dock2
  -GOLD-   2272013353D 1   1.00000     0.00000
 Structure written by MMmdl.
 40 41  0  0  0  0  0  0  0  0  1 V2000
  151.6340  144.2857  160.5798 C   0  0  0  0  0  0  0  0  0  0  0  0
  151.7099  143.2545  159.4676 C   0  0  0  0  0  0  0  0  0  0  0  0
  150.9306  143.5248  158.3399 N   0  0  0  0  0  0  0  0  0  0  0  0
  150.9471  142.7114  157.3353 C   0  0  0  0  0  0  0  0  0  0  0  0
  151.7364  141.5470  157.3367 N   0  0  0  0  0  0  0  0  0  0  0  0
  151.6753  140.7028  156.1256 C   0  0  0  0  0  0  0  0  0  0  0  0
  150.2444  140.2416  155.7142 C   0  0  1  0  0  0  0  0  0  0  0  0
  149.5365  139.9559  156.9066 O   0  0  0  0  0  0  0  0  0  0  0  0
  149.5020  141.4184  155.0348 C   0  0  0  0  0  0  0  0  0  0  0  0
  148.0940  141.0464  154.5351 C   0  0  0  0  0  0  0  0  0  0  0  0
  148.1297  139.8288  153.5958 C   0  0  2  0  0  0  0  0  0  0  0  0
  146.7262  139.4660  153.0907 C   0  0  0  0  0  0  0  0  0  0  0  0
  148.8008  138.6381  154.3014 C   0  0  0  0  0  0  0  0  0  0  0  0
  150.2142  138.9922  154.7973 C   0  0  0  0  0  0  0  0  0  0  0  0
  152.4928  141.1891  158.4152 C   0  0  0  0  0  0  0  0  0  0  0  0
  153.1414  140.1417  158.4347 O   0  0  0  0  0  0  0  0  0  0  0  0
  152.4795  142.1348  159.5431 C   0  0  0  0  0  0  0  0  0  0  0  0
  153.3495  141.7896  160.7454 C   0  0  0  0  0  0  0  0  0  0  0  0
  151.2942  143.8245  161.5075 H   0  0  0  0  0  0  0  0  0  0  0  0
  150.9376  145.0877  160.3316 H   0  0  0  0  0  0  0  0  0  0  0  0
  152.6130  144.7344  160.7501 H   0  0  0  0  0  0  0  0  0  0  0  0
  150.3609  142.8819  156.4308 H   0  0  0  0  0  0  0  0  0  0  0  0
  152.1633  141.2059  155.2884 H   0  0  0  0  0  0  0  0  0  0  0  0
  152.2959  139.8182  156.2818 H   0  0  0  0  0  0  0  0  0  0  0  0
  149.4550  139.0181  156.9895 H   0  0  0  0  0  0  0  0  0  0  0  0
  149.4354  142.2672  155.7171 H   0  0  0  0  0  0  0  0  0  0  0  0
  150.0846  141.7664  154.1806 H   0  0  0  0  0  0  0  0  0  0  0  0
  147.4419  140.8406  155.3851 H   0  0  0  0  0  0  0  0  0  0  0  0
  147.6575  141.9013  154.0178 H   0  0  0  0  0  0  0  0  0  0  0  0
  148.7347  140.0903  152.7262 H   0  0  0  0  0  0  0  0  0  0  0  0
  146.0651  139.1957  153.9146 H   0  0  0  0  0  0  0  0  0  0  0  0
  146.7626  138.6212  152.4022 H   0  0  0  0  0  0  0  0  0  0  0  0
  146.2717  140.3031  152.5602 H   0  0  0  0  0  0  0  0  0  0  0  0
  148.1870  138.3112  155.1418 H   0  0  0  0  0  0  0  0  0  0  0  0
  148.8608  137.7887  153.6202 H   0  0  0  0  0  0  0  0  0  0  0  0
  150.8504  139.1688  153.9292 H   0  0  0  0  0  0  0  0  0  0  0  0
  150.6330  138.1274  155.3133 H   0  0  0  0  0  0  0  0  0  0  0  0
  154.3898  141.6775  160.4372 H   0  0  0  0  0  0  0  0  0  0  0  0
  153.0239  140.8467  161.1864 H   0  0  0  0  0  0  0  0  0  0  0  0
  153.3217  142.5461  161.5280 H   0  0  0  0  0  0  0  0  0  0  0  0
  1  2  1  0  0  0  0
  1 19  1  0  0  0  0
  1 20  1  0  0  0  0
  1 21  1  0  0  0  0
  2 17  2  0  0  0  0
  2  3  1  0  0  0  0
  3  4  2  0  0  0  0
  4  5  1  0  0  0  0
  4 22  1  0  0  0  0
  5  6  1  0  0  0  0
  5 15  1  0  0  0  0
  6  7  1  0  0  0  0
  6 23  1  0  0  0  0
  6 24  1  0  0  0  0
  7 14  1  0  0  0  0
  7  8  1  0  0  0  0
  7  9  1  0  0  0  0
  8 25  1  0  0  0  0
  9 10  1  0  0  0  0
  9 26  1  0  0  0  0
  9 27  1  0  0  0  0
 10 11  1  0  0  0  0
 10 28  1  0  0  0  0
 10 29  1  0  0  0  0
 11 12  1  0  0  0  0
 11 13  1  0  0  0  0
 11 30  1  0  0  0  0
 12 31  1  0  0  0  0
 12 32  1  0  0  0  0
 12 33  1  0  0  0  0
 13 14  1  0  0  0  0
 13 34  1  0  0  0  0
 13 35  1  0  0  0  0
 14 36  1  0  0  0  0
 14 37  1  0  0  0  0
 15 16  2  0  0  0  0
 15 17  1  0  0  0  0
 17 18  1  0  0  0  0
 18 38  1  0  0  0  0
 18 39  1  0  0  0  0
 18 40  1  0  0  0  0
M  END
> <s_m_source_file>
AV-unprocessed.smi

> <i_m_source_file_index>
2462

> <i_lp_mmshare_version>
43012

> <i_f3d_flags>
0

> <s_epik_input>
W0NIM11jMW5bY0hdbihjKD1PKWMxW0NIM10pW0NIMl1bQ0BAXTIoW09IXSlbQ0gyXVtDSDJdW0NAQEhdKFtDSDNdKVtDSDJdW0NIMl0y

> <s_epik_cmdline>
J2VwaWtfcHl0aG9uJywgJy1waCcsICc3LjAnLCAnLXRuJywgJzgnLCAnLW1hJywgJzIwMCcsICctbWV0YWxfYmluZGluZycsICctaW1hZScsICc8aW5maWxlLm1hZT4nLCAnLW9tYWUnLCAnPG91dGZpbGUubWFlPic=

> <r_lp_tautomer_probability>
1

> <r_epik_Ionization_Penalty>
0.000179745

> <r_epik_Ionization_Penalty_Charging>
2.35483e-07

> <r_epik_Ionization_Penalty_Neutral>
0.00017951

> <r_epik_State_Penalty>
-0

> <r_epik_Charging_Adjusted_Penalty>
2.35483e-07

> <i_epik_Tot_Q>
0

> <i_epik_Tot_abs_Q>
0

> <r_epik_Metal_State_Penalty>
-0

> <b_epik_Metal_Only>
0

> <s_lp_Force_Field>
OPLS_2005

> <r_lp_Energy>
24.8563

> <b_lp_Chiralities_Consistent>
1

> <s_lp_Variant>
AV-unprocessed.smi:2462-2

> <Gold.Version>
5.8.1

> <Gold.Id.Protein>
6NUR|6NUR_protein|mol2

> <Gold.PLP.Fitness>
40.6711

> <Gold.PLP.PLP>
-35.2692

> <Gold.PLP.part.hbond>
-1.0000

> <Gold.PLP.part.metal>
0.0000

> <Gold.PLP.part.buried>
-2.7132

> <Gold.PLP.part.nonpolar>
-31.9918

> <Gold.PLP.part.repulsive>
0.1250

> <Gold.PLP.ligand.clash>
0.0000

> <Gold.PLP.ligand.torsion>
0.2948

> <Gold.PLP.Chemscore.Hbond>
0.9760

> <Gold.PLP.Chemscore.CHOScore>
1.0000

> <Gold.PLP.Chemscore.Metal>
0.0000

> <Gold.Chemscore.Hbonds>
donor molecule, donor type, donor heavy atom, donor atom, acceptor molecule, acceptor atom, score
      P1  H  7997  8008       L1    16  0.99
      L1  C     4    22       P1  8028  1.00

> <Gold.PLP.Chemscore.Internal.Correction>
0.0636

> <Gold.Rescore>
     Score         DG    S(hbond)    S(metal)    S(lipo)     H(rot)  DE(clash)    DE(int)     intcor
     13.51     -14.86       0.91        0.00      90.81       1.68       0.40       0.95       ----

> <Gold.Chemscore.Fitness>
13.5121

> <Gold.Chemscore.DG>
-14.8605

> <Gold.Chemscore.ZeroCoef>
-5.4800

> <Gold.Chemscore.Hbond>
0.9117

> <Gold.Chemscore.Metal>
0.0000

> <Gold.Chemscore.Lipo>
90.8133

> <Gold.Chemscore.Internal_Hbond>
0.0000

> <Gold.Chemscore.DEClash>
0.4001

> <Gold.Chemscore.DEInternal>
0.9483

> <Gold.Chemscore.Rot>
1.6758

> <Gold.Chemscore.Internal.Correction>
   9.000000E+99

> <Gold.Chemscore.Hbonds>
donor molecule, donor type, donor heavy atom, donor atom, acceptor molecule, acceptor atom, score
      P1  H  7997  8008       L1    16  0.79

> <Gold.Chemscore.Hbond.Weighted>
-3.0452

> <Gold.Chemscore.Metal.Weighted>
-0.0000

> <Gold.Chemscore.Lipo.Weighted>
-10.6252

> <Gold.Chemscore.Internal_Hbond.Weighted>
0.0000

> <Gold.Chemscore.DEClash.Weighted>
0.4001

> <Gold.Chemscore.DEInternal.Weighted>
0.9483

> <Gold.Chemscore.Rot.Weighted>
4.2899

> <Gold.Chemscore.Internal.Correction.Weighted>
   9.000000E+99

> <Gold.Protein.RotatedTorsions>
[ 6907 6896 6895 6894 ] final  140.66 input  -60.11 | X-H torsion
[ 7974 7965 7964 7962 ] final -124.23 input  175.53 | X-H torsion
[ 8008 7997 7996 7995 ] final  -86.14 input   59.86 | X-H torsion
[ 10167 10162 10161 10158 ] final  -53.75 input  -65.29 | X-H torsion
[ 10718 10713 10712 10709 ] final   17.73 input   66.30 | X-H torsion
[ 10763 10752 10751 10750 ] final  -79.17 input  -60.55 | X-H torsion
[ 11005 11000 10999 10996 ] final   13.04 input  -57.11 | X-H torsion

> <Gold.Protein.ActiveResidues>
 VAL166  LYS551  ARG553  GLY616  TRP617  ASP618  TYR619  PRO620  LYS621  CYS622 
 ASP623  PHE694  ASN695  SER759  ASP760  ASP761  ALA762  ILE779  LEU786  VAL792 
 PHE793  MET794  SER795  GLU796  ALA797  LYS798  CYS799  TRP800  GLU811  SER814 

> <Gold.Protein.RotatedAtoms>
  152.2403  133.5130  159.5265 H   0  0  0  0  0  0  0  0  0  0  0  0  # atno 6907 bound_to 6896
  150.7062  134.1098  159.4005 H   0  0  0  0  0  0  0  0  0  0  0  0  # atno 6908 bound_to 6896
  151.9019  135.0375  160.0558 H   0  0  0  0  0  0  0  0  0  0  0  0  # atno 6909 bound_to 6896
  145.0103  140.7900  143.4442 H   0  0  0  0  0  0  0  0  0  0  0  0  # atno 7974 bound_to 7965
  154.6485  140.0582  156.9928 H   0  0  0  0  0  0  0  0  0  0  0  0  # atno 8008 bound_to 7997
  155.1407  140.3265  155.4434 H   0  0  0  0  0  0  0  0  0  0  0  0  # atno 8009 bound_to 7997
  156.2565  140.1964  156.6523 H   0  0  0  0  0  0  0  0  0  0  0  0  # atno 8010 bound_to 7997
  140.6468  143.2540  151.4838 H   0  0  0  0  0  0  0  0  0  0  0  0  # atno 10167 bound_to 10162
  157.0862  130.6408  149.5838 H   0  0  0  0  0  0  0  0  0  0  0  0  # atno 10718 bound_to 10713
  154.5352  135.5705  153.6793 H   0  0  0  0  0  0  0  0  0  0  0  0  # atno 10763 bound_to 10752
  152.9949  135.6214  154.2575 H   0  0  0  0  0  0  0  0  0  0  0  0  # atno 10764 bound_to 10752
  154.2503  135.2859  155.2799 H   0  0  0  0  0  0  0  0  0  0  0  0  # atno 10765 bound_to 10752
  140.4852  134.0895  155.7759 H   0  0  0  0  0  0  0  0  0  0  0  0  # atno 11005 bound_to 11000
  145.2032  139.2241  143.5182 LP  0  0  0  0  0  0  0  0  0  0  0  0  # atno 17320 bound_to 7965
  146.3468  140.1854  142.8589 LP  0  0  0  0  0  0  0  0  0  0  0  0  # atno 17321 bound_to 7965
  139.5679  144.1999  152.1792 LP  0  0  0  0  0  0  0  0  0  0  0  0  # atno 17342 bound_to 10162
  140.1286  144.5309  150.6817 LP  0  0  0  0  0  0  0  0  0  0  0  0  # atno 17343 bound_to 10162
  155.9910  130.4963  150.7281 LP  0  0  0  0  0  0  0  0  0  0  0  0  # atno 17370 bound_to 10713
  157.4759  131.0897  151.0591 LP  0  0  0  0  0  0  0  0  0  0  0  0  # atno 17371 bound_to 10713
  141.1511  133.8966  157.2094 LP  0  0  0  0  0  0  0  0  0  0  0  0  # atno 17394 bound_to 11000
  139.9802  135.0100  156.9731 LP  0  0  0  0  0  0  0  0  0  0  0  0  # atno 17395 bound_to 11000

$$$$
