AV-unprocessed.smi:2009|AV-procd|sdf|8145|dock6
  -GOLD-   2272010383D 1   1.00000     0.00000
 Structure written by MMmdl.
 38 39  0  0  0  0  0  0  0  0  1 V2000
  149.6375  141.9299  158.4019 C   0  0  0  0  0  0  0  0  0  0  0  0
  151.0822  141.8390  157.8874 C   0  0  2  0  0  0  0  0  0  0  0  0
  151.9316  143.0879  158.2165 C   0  0  0  0  0  0  0  0  0  0  0  0
  152.2460  143.2238  159.6297 N   0  0  0  0  0  0  0  0  0  0  0  0
  152.9965  142.3808  160.4229 C   0  0  0  0  0  0  0  0  0  0  0  0
  153.0171  142.9147  161.6792 C   0  0  0  0  0  0  0  0  0  0  0  0
  152.2362  144.0976  161.5558 C   0  0  0  0  0  0  0  0  0  0  0  0
  151.7737  144.2789  160.3292 N   0  0  0  0  0  0  0  0  0  0  0  0
  151.0591  141.5850  156.4436 N   0  0  0  0  0  0  0  0  0  0  0  0
  150.8394  139.9824  155.8440 S   0  0  0  0  0  0  0  0  0  0  0  0
  151.7662  139.7597  154.7238 O   0  0  0  0  0  0  0  0  0  0  0  0
  150.8124  139.0681  156.9959 O   0  0  0  0  0  0  0  0  0  0  0  0
  149.2361  140.1382  155.2068 N   0  0  0  0  0  0  0  0  0  0  0  0
  148.7256  139.0037  154.4115 C   0  0  0  0  0  0  0  0  0  0  0  0
  147.2028  139.0896  154.2155 C   0  0  0  0  0  0  0  0  0  0  0  0
  146.7965  140.4328  153.6037 C   0  0  0  0  0  0  0  0  0  0  0  0
  147.3210  141.5675  154.4876 C   0  0  0  0  0  0  0  0  0  0  0  0
  148.8425  141.4642  154.6824 C   0  0  0  0  0  0  0  0  0  0  0  0
  149.6171  142.1295  159.4735 H   0  0  0  0  0  0  0  0  0  0  0  0
  149.1020  140.9955  158.2313 H   0  0  0  0  0  0  0  0  0  0  0  0
  149.0798  142.7239  157.9045 H   0  0  0  0  0  0  0  0  0  0  0  0
  151.5476  140.9792  158.3705 H   0  0  0  0  0  0  0  0  0  0  0  0
  152.8668  143.0528  157.6554 H   0  0  0  0  0  0  0  0  0  0  0  0
  151.4261  143.9964  157.8897 H   0  0  0  0  0  0  0  0  0  0  0  0
  153.4502  141.4831  160.0289 H   0  0  0  0  0  0  0  0  0  0  0  0
  153.5129  142.5199  162.5535 H   0  0  0  0  0  0  0  0  0  0  0  0
  151.9922  144.8247  162.3162 H   0  0  0  0  0  0  0  0  0  0  0  0
  150.5270  142.2776  155.9174 H   0  0  0  0  0  0  0  0  0  0  0  0
  149.2336  138.9915  153.4463 H   0  0  0  0  0  0  0  0  0  0  0  0
  148.9716  138.0660  154.9100 H   0  0  0  0  0  0  0  0  0  0  0  0
  146.8642  138.2727  153.5778 H   0  0  0  0  0  0  0  0  0  0  0  0
  146.7035  138.9584  155.1764 H   0  0  0  0  0  0  0  0  0  0  0  0
  147.2052  140.5242  152.5966 H   0  0  0  0  0  0  0  0  0  0  0  0
  145.7118  140.4943  153.5123 H   0  0  0  0  0  0  0  0  0  0  0  0
  147.0687  142.5312  154.0443 H   0  0  0  0  0  0  0  0  0  0  0  0
  146.8258  141.5352  155.4590 H   0  0  0  0  0  0  0  0  0  0  0  0
  149.1713  142.2491  155.3628 H   0  0  0  0  0  0  0  0  0  0  0  0
  149.3566  141.6361  153.7358 H   0  0  0  0  0  0  0  0  0  0  0  0
  1  2  1  0  0  0  0
  1 19  1  0  0  0  0
  1 20  1  0  0  0  0
  1 21  1  0  0  0  0
  2  3  1  0  0  0  0
  2  9  1  0  0  0  0
  2 22  1  0  0  0  0
  3  4  1  0  0  0  0
  3 23  1  0  0  0  0
  3 24  1  0  0  0  0
  4  8  1  0  0  0  0
  4  5  1  0  0  0  0
  5  6  2  0  0  0  0
  5 25  1  0  0  0  0
  6  7  1  0  0  0  0
  6 26  1  0  0  0  0
  7  8  2  0  0  0  0
  7 27  1  0  0  0  0
  9 10  1  0  0  0  0
  9 28  1  0  0  0  0
 10 11  2  0  0  0  0
 10 12  2  0  0  0  0
 10 13  1  0  0  0  0
 13 18  1  0  0  0  0
 13 14  1  0  0  0  0
 14 15  1  0  0  0  0
 14 29  1  0  0  0  0
 14 30  1  0  0  0  0
 15 16  1  0  0  0  0
 15 31  1  0  0  0  0
 15 32  1  0  0  0  0
 16 17  1  0  0  0  0
 16 33  1  0  0  0  0
 16 34  1  0  0  0  0
 17 18  1  0  0  0  0
 17 35  1  0  0  0  0
 17 36  1  0  0  0  0
 18 37  1  0  0  0  0
 18 38  1  0  0  0  0
M  END
> <s_m_source_file>
AV-unprocessed.smi

> <i_m_source_file_index>
2009

> <i_lp_mmshare_version>
43012

> <i_f3d_flags>
0

> <s_epik_input>
bjFbY0hdW2NIXVtjSF1uMVtDSDJdW0NAQEhdKFtDSDNdKVtOSF1TKD1PKSg9TylOMltDSDJdW0NIMl1bQ0gyXVtDSDJdW0NIMl0y

> <s_epik_cmdline>
J2VwaWtfcHl0aG9uJywgJy1waCcsICc3LjAnLCAnLXRuJywgJzgnLCAnLW1hJywgJzIwMCcsICctbWV0YWxfYmluZGluZycsICctaW1hZScsICc8aW5maWxlLm1hZT4nLCAnLW9tYWUnLCAnPG91dGZpbGUubWFlPic=

> <r_lp_tautomer_probability>
1

> <r_epik_Ionization_Penalty>
0.0313937

> <r_epik_Ionization_Penalty_Charging>
0

> <r_epik_Ionization_Penalty_Neutral>
0.0313937

> <r_epik_State_Penalty>
0.0259441

> <r_epik_Charging_Adjusted_Penalty>
0.0259441

> <i_epik_Tot_Q>
0

> <i_epik_Tot_abs_Q>
0

> <r_epik_Metal_State_Penalty>
0.365037

> <b_epik_Metal_Only>
0

> <s_lp_Force_Field>
OPLS_2005

> <r_lp_Energy>
7.7354

> <b_lp_Chiralities_Consistent>
1

> <s_lp_Variant>
AV-unprocessed.smi:2009-1

> <Gold.Version>
5.8.1

> <Gold.Id.Protein>
6NUR|6NUR_protein|mol2

> <Gold.PLP.Fitness>
41.1759

> <Gold.PLP.PLP>
-39.8546

> <Gold.PLP.part.hbond>
-1.0000

> <Gold.PLP.part.metal>
0.0000

> <Gold.PLP.part.buried>
-3.8140

> <Gold.PLP.part.nonpolar>
-33.9488

> <Gold.PLP.part.repulsive>
0.2111

> <Gold.PLP.ligand.clash>
0.0000

> <Gold.PLP.ligand.torsion>
1.1942

> <Gold.PLP.Chemscore.Hbond>
0.9760

> <Gold.PLP.Chemscore.CHOScore>
0.0000

> <Gold.PLP.Chemscore.Metal>
0.0000

> <Gold.Chemscore.Hbonds>
donor molecule, donor type, donor heavy atom, donor atom, acceptor molecule, acceptor atom, score
      P1  H  7989  7998       L1    11  1.00

> <Gold.PLP.Chemscore.Internal.Correction>
0.7818

> <Gold.Rescore>
     Score         DG    S(hbond)    S(metal)    S(lipo)     H(rot)  DE(clash)    DE(int)     intcor
     11.95     -13.53       0.96        0.00      81.35       1.82       0.05       1.54       ----

> <Gold.Chemscore.Fitness>
11.9503

> <Gold.Chemscore.DG>
-13.5340

> <Gold.Chemscore.ZeroCoef>
-5.4800

> <Gold.Chemscore.Hbond>
0.9596

> <Gold.Chemscore.Metal>
0.0000

> <Gold.Chemscore.Lipo>
81.3466

> <Gold.Chemscore.Internal_Hbond>
0.0000

> <Gold.Chemscore.DEClash>
0.0477

> <Gold.Chemscore.DEInternal>
1.5359

> <Gold.Chemscore.Rot>
1.8237

> <Gold.Chemscore.Internal.Correction>
   9.000000E+99

> <Gold.Chemscore.Hbonds>
donor molecule, donor type, donor heavy atom, donor atom, acceptor molecule, acceptor atom, score
      P1  H  7989  7998       L1    11  0.87

> <Gold.Chemscore.Hbond.Weighted>
-3.2050

> <Gold.Chemscore.Metal.Weighted>
-0.0000

> <Gold.Chemscore.Lipo.Weighted>
-9.5176

> <Gold.Chemscore.Internal_Hbond.Weighted>
0.0000

> <Gold.Chemscore.DEClash.Weighted>
0.0477

> <Gold.Chemscore.DEInternal.Weighted>
1.5359

> <Gold.Chemscore.Rot.Weighted>
4.6686

> <Gold.Chemscore.Internal.Correction.Weighted>
   9.000000E+99

> <Gold.Protein.RotatedTorsions>
[ 6907 6896 6895 6894 ] final    0.66 input  -60.11 | X-H torsion
[ 7974 7965 7964 7962 ] final  -24.39 input  175.53 | X-H torsion
[ 8008 7997 7996 7995 ] final   94.63 input   59.86 | X-H torsion
[ 10167 10162 10161 10158 ] final -114.06 input  -65.29 | X-H torsion
[ 10718 10713 10712 10709 ] final   -2.54 input   66.30 | X-H torsion
[ 10763 10752 10751 10750 ] final  -32.29 input  -60.55 | X-H torsion
[ 11005 11000 10999 10996 ] final  104.10 input  -57.11 | X-H torsion

> <Gold.Protein.ActiveResidues>
 VAL166  LYS551  ARG553  GLY616  TRP617  ASP618  TYR619  PRO620  LYS621  CYS622 
 ASP623  PHE694  ASN695  SER759  ASP760  ASP761  ALA762  ILE779  LEU786  VAL792 
 PHE793  MET794  SER795  GLU796  ALA797  LYS798  CYS799  TRP800  GLU811  SER814 

> <Gold.Protein.RotatedAtoms>
  151.5801  135.1059  160.0014 H   0  0  0  0  0  0  0  0  0  0  0  0  # atno 6907 bound_to 6896
  152.4358  133.7354  159.6622 H   0  0  0  0  0  0  0  0  0  0  0  0  # atno 6908 bound_to 6896
  150.8256  133.8108  159.3143 H   0  0  0  0  0  0  0  0  0  0  0  0  # atno 6909 bound_to 6896
  146.1557  140.4745  142.8592 H   0  0  0  0  0  0  0  0  0  0  0  0  # atno 7974 bound_to 7965
  156.0600  140.3297  155.7451 H   0  0  0  0  0  0  0  0  0  0  0  0  # atno 8008 bound_to 7997
  155.5469  140.0606  157.2876 H   0  0  0  0  0  0  0  0  0  0  0  0  # atno 8009 bound_to 7997
  154.4477  140.1901  156.0635 H   0  0  0  0  0  0  0  0  0  0  0  0  # atno 8010 bound_to 7997
  140.1050  143.4578  152.1788 H   0  0  0  0  0  0  0  0  0  0  0  0  # atno 10167 bound_to 10162
  156.7893  130.5356  149.5738 H   0  0  0  0  0  0  0  0  0  0  0  0  # atno 10718 bound_to 10713
  153.8113  135.6882  153.4840 H   0  0  0  0  0  0  0  0  0  0  0  0  # atno 10763 bound_to 10752
  153.1627  135.4573  154.9792 H   0  0  0  0  0  0  0  0  0  0  0  0  # atno 10764 bound_to 10752
  154.7966  135.3321  154.7593 H   0  0  0  0  0  0  0  0  0  0  0  0  # atno 10765 bound_to 10752
  139.8789  134.9288  156.5310 H   0  0  0  0  0  0  0  0  0  0  0  0  # atno 11005 bound_to 11000
  144.7961  140.6125  143.6509 LP  0  0  0  0  0  0  0  0  0  0  0  0  # atno 17320 bound_to 7965
  145.4713  139.1503  143.3812 LP  0  0  0  0  0  0  0  0  0  0  0  0  # atno 17321 bound_to 7965
  139.5650  144.7429  151.4048 LP  0  0  0  0  0  0  0  0  0  0  0  0  # atno 17342 bound_to 10162
  140.6957  143.7755  150.7323 LP  0  0  0  0  0  0  0  0  0  0  0  0  # atno 17343 bound_to 10162
  156.1169  130.6081  151.0134 LP  0  0  0  0  0  0  0  0  0  0  0  0  # atno 17370 bound_to 10713
  157.6608  131.0881  150.7841 LP  0  0  0  0  0  0  0  0  0  0  0  0  # atno 17371 bound_to 10713
  140.8381  133.8227  155.9048 LP  0  0  0  0  0  0  0  0  0  0  0  0  # atno 17394 bound_to 11000
  140.9264  134.2077  157.4893 LP  0  0  0  0  0  0  0  0  0  0  0  0  # atno 17395 bound_to 11000

$$$$
