AV-unprocessed.smi:613|AV-procd|sdf|3064|dock7
  -GOLD-   2262023583D 1   1.00000     0.00000
 Structure written by MMmdl.
 38 39  0  0  0  0  0  0  0  0  1 V2000
  153.8973  140.6089  159.8354 C   0  0  0  0  0  0  0  0  0  0  0  0
  152.4997  140.9860  159.6573 N   0  0  0  0  0  0  0  0  0  0  0  0
  151.5856  140.0132  159.0561 C   0  0  0  0  0  0  0  0  0  0  0  0
  151.8376  139.8070  157.5505 C   0  0  2  0  0  0  0  0  0  0  0  0
  150.5618  140.0534  156.7209 C   0  0  0  0  0  0  0  0  0  0  0  0
  150.7687  139.7911  155.2986 N   0  0  0  0  0  0  0  0  0  0  0  0
  149.5600  140.0810  154.5161 C   0  0  0  0  0  0  0  0  0  0  0  0
  148.5853  138.9032  154.3914 C   0  0  0  0  0  0  0  0  0  0  0  0
  148.3169  138.4601  153.1607 N   0  0  0  0  0  0  0  0  0  0  0  0
  148.0785  138.4036  155.3936 O   0  0  0  0  0  0  0  0  0  0  0  0
  151.2863  138.4323  155.1181 C   0  0  0  0  0  0  0  0  0  0  0  0
  152.5429  138.1820  155.9686 C   0  0  0  0  0  0  0  0  0  0  0  0
  152.2586  138.4621  157.3346 O   0  0  0  0  0  0  0  0  0  0  0  0
  152.1472  142.3563  159.7111 C   0  0  0  0  0  0  0  0  0  0  0  0
  153.1258  143.3779  159.6372 C   0  0  0  0  0  0  0  0  0  0  0  0
  152.6956  144.7145  159.6984 C   0  0  0  0  0  0  0  0  0  0  0  0
  151.3159  144.9443  159.8307 C   0  0  0  0  0  0  0  0  0  0  0  0
  150.4171  143.9391  159.9005 N   0  0  0  0  0  0  0  0  0  0  0  0
  150.8309  142.6689  159.8430 N   0  0  0  0  0  0  0  0  0  0  0  0
  154.2321  140.8369  160.8477 H   0  0  0  0  0  0  0  0  0  0  0  0
  154.5345  141.1373  159.1254 H   0  0  0  0  0  0  0  0  0  0  0  0
  154.0371  139.5394  159.6757 H   0  0  0  0  0  0  0  0  0  0  0  0
  151.6853  139.0606  159.5774 H   0  0  0  0  0  0  0  0  0  0  0  0
  150.5545  140.3246  159.2264 H   0  0  0  0  0  0  0  0  0  0  0  0
  152.6191  140.4899  157.2121 H   0  0  0  0  0  0  0  0  0  0  0  0
  149.7541  139.4249  157.1007 H   0  0  0  0  0  0  0  0  0  0  0  0
  150.2414  141.0869  156.8613 H   0  0  0  0  0  0  0  0  0  0  0  0
  149.0401  140.9415  154.9417 H   0  0  0  0  0  0  0  0  0  0  0  0
  149.8420  140.3687  153.5023 H   0  0  0  0  0  0  0  0  0  0  0  0
  147.6820  137.6860  153.0306 H   0  0  0  0  0  0  0  0  0  0  0  0
  148.7523  138.9018  152.3638 H   0  0  0  0  0  0  0  0  0  0  0  0
  150.5189  137.7043  155.3864 H   0  0  0  0  0  0  0  0  0  0  0  0
  151.5396  138.2473  154.0742 H   0  0  0  0  0  0  0  0  0  0  0  0
  152.8631  137.1442  155.8763 H   0  0  0  0  0  0  0  0  0  0  0  0
  153.3717  138.8042  155.6272 H   0  0  0  0  0  0  0  0  0  0  0  0
  154.1795  143.1665  159.5388 H   0  0  0  0  0  0  0  0  0  0  0  0
  153.3979  145.5330  159.6464 H   0  0  0  0  0  0  0  0  0  0  0  0
  150.9252  145.9498  159.8831 H   0  0  0  0  0  0  0  0  0  0  0  0
  1  2  1  0  0  0  0
  1 20  1  0  0  0  0
  1 21  1  0  0  0  0
  1 22  1  0  0  0  0
  2  3  1  0  0  0  0
  2 14  1  0  0  0  0
  3  4  1  0  0  0  0
  3 23  1  0  0  0  0
  3 24  1  0  0  0  0
  4 13  1  0  0  0  0
  4  5  1  0  0  0  0
  4 25  1  0  0  0  0
  5  6  1  0  0  0  0
  5 26  1  0  0  0  0
  5 27  1  0  0  0  0
  6  7  1  0  0  0  0
  6 11  1  0  0  0  0
  7  8  1  0  0  0  0
  7 28  1  0  0  0  0
  7 29  1  0  0  0  0
  8  9  1  0  0  0  0
  8 10  2  0  0  0  0
  9 30  1  0  0  0  0
  9 31  1  0  0  0  0
 11 12  1  0  0  0  0
 11 32  1  0  0  0  0
 11 33  1  0  0  0  0
 12 13  1  0  0  0  0
 12 34  1  0  0  0  0
 12 35  1  0  0  0  0
 14 19  1  0  0  0  0
 14 15  2  0  0  0  0
 15 16  1  0  0  0  0
 15 36  1  0  0  0  0
 16 17  2  0  0  0  0
 16 37  1  0  0  0  0
 17 18  1  0  0  0  0
 17 38  1  0  0  0  0
 18 19  2  0  0  0  0
M  END
> <s_m_source_file>
AV-unprocessed.smi

> <i_m_source_file_index>
613

> <i_lp_mmshare_version>
43012

> <i_f3d_flags>
0

> <s_epik_input>
bjFuW2NIXVtjSF1bY0hdYzFOKFtDSDNdKVtDSDJdW0NAQEhdMltDSDJdTihbQ0gyXVtDSDJdTzIpW0NIMl1DKD1PKVtOSDJd

> <s_epik_cmdline>
J2VwaWtfcHl0aG9uJywgJy1waCcsICc3LjAnLCAnLXRuJywgJzgnLCAnLW1hJywgJzIwMCcsICctbWV0YWxfYmluZGluZycsICctaW1hZScsICc8aW5maWxlLm1hZT4nLCAnLW9tYWUnLCAnPG91dGZpbGUubWFlPic=

> <r_lp_tautomer_probability>
1

> <r_epik_Ionization_Penalty>
0.0398875

> <r_epik_Ionization_Penalty_Charging>
0

> <r_epik_Ionization_Penalty_Neutral>
0.0398875

> <r_epik_State_Penalty>
0.0543012

> <r_epik_Charging_Adjusted_Penalty>
0.0543012

> <i_epik_Tot_Q>
0

> <i_epik_Tot_abs_Q>
0

> <r_epik_Metal_State_Penalty>
0.0489294

> <b_epik_Metal_Only>
0

> <s_lp_Force_Field>
OPLS_2005

> <r_lp_Energy>
27.5025

> <b_lp_Chiralities_Consistent>
1

> <s_lp_Variant>
AV-unprocessed.smi:613-1

> <Gold.Version>
5.8.1

> <Gold.Id.Protein>
6NUR|6NUR_protein|mol2

> <Gold.PLP.Fitness>
42.0817

> <Gold.PLP.PLP>
-40.4724

> <Gold.PLP.part.hbond>
-4.9552

> <Gold.PLP.part.metal>
0.0000

> <Gold.PLP.part.buried>
-2.2574

> <Gold.PLP.part.nonpolar>
-32.7287

> <Gold.PLP.part.repulsive>
0.4061

> <Gold.PLP.ligand.clash>
0.0000

> <Gold.PLP.ligand.torsion>
1.5380

> <Gold.PLP.Chemscore.Hbond>
1.4720

> <Gold.PLP.Chemscore.CHOScore>
0.0000

> <Gold.PLP.Chemscore.Metal>
0.0000

> <Gold.Chemscore.Hbonds>
donor molecule, donor type, donor heavy atom, donor atom, acceptor molecule, acceptor atom, score
      L1  H     9    30       P1  7948  0.01
      L1  H     9    31       P1  7957  1.00

> <Gold.PLP.Chemscore.Internal.Correction>
0.2694

> <Gold.Rescore>
     Score         DG    S(hbond)    S(metal)    S(lipo)     H(rot)  DE(clash)    DE(int)     intcor
     11.57     -12.81       0.98        0.00      82.49       2.18       0.14       1.09       ----

> <Gold.Chemscore.Fitness>
11.5740

> <Gold.Chemscore.DG>
-12.8100

> <Gold.Chemscore.ZeroCoef>
-5.4800

> <Gold.Chemscore.Hbond>
0.9776

> <Gold.Chemscore.Metal>
0.0000

> <Gold.Chemscore.Lipo>
82.4909

> <Gold.Chemscore.Internal_Hbond>
0.0000

> <Gold.Chemscore.DEClash>
0.1429

> <Gold.Chemscore.DEInternal>
1.0930

> <Gold.Chemscore.Rot>
2.1823

> <Gold.Chemscore.Internal.Correction>
   9.000000E+99

> <Gold.Chemscore.Hbonds>
donor molecule, donor type, donor heavy atom, donor atom, acceptor molecule, acceptor atom, score
      L1  H     9    30       P1  7948  0.03
      L1  H     9    31       P1  7957  0.98

> <Gold.Chemscore.Hbond.Weighted>
-3.2652

> <Gold.Chemscore.Metal.Weighted>
-0.0000

> <Gold.Chemscore.Lipo.Weighted>
-9.6514

> <Gold.Chemscore.Internal_Hbond.Weighted>
0.0000

> <Gold.Chemscore.DEClash.Weighted>
0.1429

> <Gold.Chemscore.DEInternal.Weighted>
1.0930

> <Gold.Chemscore.Rot.Weighted>
5.5867

> <Gold.Chemscore.Internal.Correction.Weighted>
   9.000000E+99

> <Gold.Protein.RotatedTorsions>
[ 6907 6896 6895 6894 ] final  120.08 input  -60.11 | X-H torsion
[ 7974 7965 7964 7962 ] final   91.52 input  175.53 | X-H torsion
[ 8008 7997 7996 7995 ] final -111.60 input   59.86 | X-H torsion
[ 10167 10162 10161 10158 ] final  -59.57 input  -65.29 | X-H torsion
[ 10718 10713 10712 10709 ] final  -94.76 input   66.30 | X-H torsion
[ 10763 10752 10751 10750 ] final  -32.17 input  -60.55 | X-H torsion
[ 11005 11000 10999 10996 ] final  144.64 input  -57.11 | X-H torsion

> <Gold.Protein.ActiveResidues>
 VAL166  LYS551  ARG553  GLY616  TRP617  ASP618  TYR619  PRO620  LYS621  CYS622 
 ASP623  PHE694  ASN695  SER759  ASP760  ASP761  ALA762  ILE779  LEU786  VAL792 
 PHE793  MET794  SER795  GLU796  ALA797  LYS798  CYS799  TRP800  GLU811  SER814 

> <Gold.Protein.RotatedAtoms>
  152.4425  133.7474  159.6674 H   0  0  0  0  0  0  0  0  0  0  0  0  # atno 6907 bound_to 6896
  150.8318  133.8068  159.3101 H   0  0  0  0  0  0  0  0  0  0  0  0  # atno 6908 bound_to 6896
  151.5720  135.1064  160.0049 H   0  0  0  0  0  0  0  0  0  0  0  0  # atno 6909 bound_to 6896
  145.5045  139.2276  143.2759 H   0  0  0  0  0  0  0  0  0  0  0  0  # atno 7974 bound_to 7965
  154.9923  140.0395  157.2325 H   0  0  0  0  0  0  0  0  0  0  0  0  # atno 8008 bound_to 7997
  154.7617  140.2785  155.6186 H   0  0  0  0  0  0  0  0  0  0  0  0  # atno 8009 bound_to 7997
  156.2905  140.2627  156.2397 H   0  0  0  0  0  0  0  0  0  0  0  0  # atno 8010 bound_to 7997
  140.6127  143.2392  151.5672 H   0  0  0  0  0  0  0  0  0  0  0  0  # atno 10167 bound_to 10162
  156.0032  130.5081  150.5975 H   0  0  0  0  0  0  0  0  0  0  0  0  # atno 10718 bound_to 10713
  153.8093  135.6883  153.4843 H   0  0  0  0  0  0  0  0  0  0  0  0  # atno 10763 bound_to 10752
  153.1638  135.4569  154.9807 H   0  0  0  0  0  0  0  0  0  0  0  0  # atno 10764 bound_to 10752
  154.7974  135.3324  154.7575 H   0  0  0  0  0  0  0  0  0  0  0  0  # atno 10765 bound_to 10752
  140.0649  134.9184  157.1246 H   0  0  0  0  0  0  0  0  0  0  0  0  # atno 11005 bound_to 11000
  146.2205  140.5848  142.9019 LP  0  0  0  0  0  0  0  0  0  0  0  0  # atno 17320 bound_to 7965
  144.7761  140.5743  143.6637 LP  0  0  0  0  0  0  0  0  0  0  0  0  # atno 17321 bound_to 7965
  139.5373  144.2744  152.1279 LP  0  0  0  0  0  0  0  0  0  0  0  0  # atno 17342 bound_to 10162
  140.1946  144.4718  150.6461 LP  0  0  0  0  0  0  0  0  0  0  0  0  # atno 17343 bound_to 10162
  157.3830  131.0784  151.1461 LP  0  0  0  0  0  0  0  0  0  0  0  0  # atno 17370 bound_to 10713
  157.2177  130.6467  149.5799 LP  0  0  0  0  0  0  0  0  0  0  0  0  # atno 17371 bound_to 10713
  140.3715  134.2385  155.7177 LP  0  0  0  0  0  0  0  0  0  0  0  0  # atno 17394 bound_to 11000
  141.1988  133.8026  157.0564 LP  0  0  0  0  0  0  0  0  0  0  0  0  # atno 17395 bound_to 11000

$$$$
