AV-unprocessed.smi:157|AV-procd|sdf|1315|dock7
  -GOLD-   2262019 03D 1   1.00000     0.00000
 Structure written by MMmdl.
 36 38  0  0  0  0  0  0  0  0  2 V2000
  150.8375  139.4570  154.5882 O   0  0  0  0  0  0  0  0  0  0  0  0
  151.8049  138.4371  154.4546 C   0  0  0  0  0  0  0  0  0  0  0  0
  152.6576  138.3193  155.7340 C   0  0  1  0  0  0  0  0  0  0  0  0
  152.7222  139.6263  156.3106 O   0  0  0  0  0  0  0  0  0  0  0  0
  152.1803  139.6171  157.5952 C   0  0  1  0  0  0  0  0  0  0  0  0
  151.3855  140.8668  157.7847 N   0  0  0  0  0  0  0  0  0  0  0  0
  150.3962  141.3091  156.9804 C   0  0  0  0  0  0  0  0  0  0  0  0
  149.8436  142.4454  157.3702 N   0  3  0  0  0  0  0  0  0  0  0  0
  150.4921  142.8176  158.5288 C   0  0  0  0  0  0  0  0  0  0  0  0
  151.4520  141.8298  158.7653 C   0  0  0  0  0  0  0  0  0  0  0  0
  152.3854  141.7157  159.8070 N   0  0  0  0  0  0  0  0  0  0  0  0
  152.6997  142.7030  160.5814 C   0  0  0  0  0  0  0  0  0  0  0  0
  152.1638  143.9792  160.6307 N   0  0  0  0  0  0  0  0  0  0  0  0
  150.7349  144.2380  160.6256 C   0  0  0  0  0  0  0  0  0  0  0  0
  150.0822  144.0649  159.2477 C   0  0  1  0  0  0  0  0  0  0  0  0
  150.3183  145.2315  158.4867 O   0  0  0  0  0  0  0  0  0  0  0  0
  151.2823  138.3912  157.6793 C   0  0  0  0  0  0  0  0  0  0  0  0
  152.0860  137.4173  156.8474 C   0  0  1  0  0  0  0  0  0  0  0  0
  151.2839  136.3446  156.3971 O   0  0  0  0  0  0  0  0  0  0  0  0
  153.6694  138.0061  155.4723 H   0  0  0  0  0  0  0  0  0  0  0  0
  152.9731  139.6347  158.3439 H   0  0  0  0  0  0  0  0  0  0  0  0
  149.0031  144.0189  159.3985 H   0  0  0  0  0  0  0  0  0  0  0  0
  152.9052  137.0197  157.4484 H   0  0  0  0  0  0  0  0  0  0  0  0
  149.9800  139.0595  154.6002 H   0  0  0  0  0  0  0  0  0  0  0  0
  151.2694  137.5034  154.2801 H   0  0  0  0  0  0  0  0  0  0  0  0
  152.4247  138.6178  153.5759 H   0  0  0  0  0  0  0  0  0  0  0  0
  150.0864  140.7759  156.0995 H   0  0  0  0  0  0  0  0  0  0  0  0
  153.4871  142.5616  161.3233 H   0  0  0  0  0  0  0  0  0  0  0  0
  152.6670  144.6959  161.1344 H   0  0  0  0  0  0  0  0  0  0  0  0
  150.2747  143.5382  161.3250 H   0  0  0  0  0  0  0  0  0  0  0  0
  150.5408  145.2345  161.0239 H   0  0  0  0  0  0  0  0  0  0  0  0
  149.4924  145.5578  158.1643 H   0  0  0  0  0  0  0  0  0  0  0  0
  151.1299  138.0776  158.7123 H   0  0  0  0  0  0  0  0  0  0  0  0
  150.3170  138.6032  157.2158 H   0  0  0  0  0  0  0  0  0  0  0  0
  150.5375  136.6997  155.9381 H   0  0  0  0  0  0  0  0  0  0  0  0
  149.0881  142.9358  156.9090 H   0  0  0  0  0  0  0  0  0  0  0  0
  1  2  1  0  0  0  0
  1 24  1  0  0  0  0
  2  3  1  0  0  0  0
  2 25  1  0  0  0  0
  2 26  1  0  0  0  0
  3 20  1  0  0  0  0
  3 18  1  0  0  0  0
  3  4  1  0  0  0  0
  4  5  1  0  0  0  0
  5 21  1  0  0  0  0
  5  6  1  0  0  0  0
  5 17  1  0  0  0  0
  6 10  1  0  0  0  0
  6  7  1  0  0  0  0
  7  8  2  0  0  0  0
  7 27  1  0  0  0  0
  8  9  1  0  0  0  0
  8 36  1  0  0  0  0
  9 15  1  0  0  0  0
  9 10  2  0  0  0  0
 10 11  1  0  0  0  0
 11 12  2  0  0  0  0
 12 13  1  0  0  0  0
 12 28  1  0  0  0  0
 13 14  1  0  0  0  0
 13 29  1  0  0  0  0
 14 15  1  0  0  0  0
 14 30  1  0  0  0  0
 14 31  1  0  0  0  0
 15 22  1  0  0  0  0
 15 16  1  0  0  0  0
 16 32  1  0  0  0  0
 17 18  1  0  0  0  0
 17 33  1  0  0  0  0
 17 34  1  0  0  0  0
 18 23  1  0  0  0  0
 18 19  1  0  0  0  0
 19 35  1  0  0  0  0
M  CHG  1   8   1
M  END
> <s_m_source_file>
AV-unprocessed.smi

> <i_m_source_file_index>
157

> <i_lp_mmshare_version>
43012

> <i_f3d_flags>
0

> <s_epik_input>
W09IXVtDSDJdW0NASF0xT1tDQEhdKFtDSDJdW0NAQEhdMVtPSF0pbihbY0hdbjIpYyhjMjMpTj1bQ0hdW05IXVtDSDJdW0NASF0zW09IXQ==

> <s_epik_cmdline>
J2VwaWtfcHl0aG9uJywgJy1waCcsICc3LjAnLCAnLXRuJywgJzgnLCAnLW1hJywgJzIwMCcsICctbWV0YWxfYmluZGluZycsICctaW1hZScsICc8aW5maWxlLm1hZT4nLCAnLW9tYWUnLCAnPG91dGZpbGUubWFlPic=

> <r_epik_Ionization_Penalty>
1.68594

> <r_epik_Ionization_Penalty_Charging>
0

> <r_epik_Ionization_Penalty_Neutral>
1.68594

> <r_epik_State_Penalty>
1.79006

> <r_epik_Charging_Adjusted_Penalty>
1.79006

> <i_epik_Tot_Q>
1

> <i_epik_Tot_abs_Q>
1

> <r_epik_Metal_State_Penalty>
5.85324

> <b_epik_Metal_Only>
0

> <s_epik_Chemistry_Notes>
This compound has an imine and may undergo hydrolysis. This compound contains an acetal/aminal-like group ( X-CH(R)-Y where X, Y are N, S, or O) that may be acid/base labile, releasing an aldehyde.

> <s_lp_Force_Field>
OPLS_2005

> <r_lp_Energy>
55.0394

> <b_lp_Chiralities_Consistent>
1

> <s_lp_Variant>
AV-unprocessed.smi:157-25

> <Gold.Version>
5.8.1

> <Gold.Id.Protein>
6NUR|6NUR_protein|mol2

> <Gold.PLP.Fitness>
45.5769

> <Gold.PLP.PLP>
-31.5694

> <Gold.PLP.part.hbond>
-5.0706

> <Gold.PLP.part.metal>
0.0000

> <Gold.PLP.part.buried>
-6.1093

> <Gold.PLP.part.nonpolar>
-20.7144

> <Gold.PLP.part.repulsive>
0.0541

> <Gold.PLP.ligand.clash>
0.0000

> <Gold.PLP.ligand.torsion>
0.3833

> <Gold.PLP.Chemscore.Hbond>
4.9200

> <Gold.PLP.Chemscore.CHOScore>
0.0000

> <Gold.PLP.Chemscore.Metal>
0.0000

> <Gold.Chemscore.Hbonds>
donor molecule, donor type, donor heavy atom, donor atom, acceptor molecule, acceptor atom, score
      L1  H     8    36       P1  8028  0.91
      L1  H    16    32       P1  8029  1.00
      P1  H  7989  7998       L1     1  1.00
      P1  H  7997  8008       L1     4  1.00

> <Gold.PLP.Chemscore.Internal.Correction>
0.0142

> <Gold.Rescore>
     Score         DG    S(hbond)    S(metal)    S(lipo)     H(rot)  DE(clash)    DE(int)     intcor
      8.12      -8.40       1.91        0.00      50.51       3.67       0.13       0.16       ----

> <Gold.Chemscore.Fitness>
8.1176

> <Gold.Chemscore.DG>
-8.4003

> <Gold.Chemscore.ZeroCoef>
-5.4800

> <Gold.Chemscore.Hbond>
1.9148

> <Gold.Chemscore.Metal>
0.0000

> <Gold.Chemscore.Lipo>
50.5098

> <Gold.Chemscore.Internal_Hbond>
0.0000

> <Gold.Chemscore.DEClash>
0.1259

> <Gold.Chemscore.DEInternal>
0.1568

> <Gold.Chemscore.Rot>
3.6659

> <Gold.Chemscore.Internal.Correction>
   9.000000E+99

> <Gold.Chemscore.Hbonds>
donor molecule, donor type, donor heavy atom, donor atom, acceptor molecule, acceptor atom, score
      L1  H     8    36       P1  8028  0.44
      L1  H    16    32       P1  8029  0.60
      P1  H  7989  7998       L1     1  0.30
      P1  H  7997  8008       L1     4  0.52

> <Gold.Chemscore.Hbond.Weighted>
-6.3955

> <Gold.Chemscore.Metal.Weighted>
-0.0000

> <Gold.Chemscore.Lipo.Weighted>
-5.9096

> <Gold.Chemscore.Internal_Hbond.Weighted>
0.0000

> <Gold.Chemscore.DEClash.Weighted>
0.1259

> <Gold.Chemscore.DEInternal.Weighted>
0.1568

> <Gold.Chemscore.Rot.Weighted>
9.3848

> <Gold.Chemscore.Internal.Correction.Weighted>
   9.000000E+99

> <Gold.Protein.RotatedTorsions>
[ 6907 6896 6895 6894 ] final  111.36 input  -60.11 | X-H torsion
[ 7974 7965 7964 7962 ] final   83.17 input  175.53 | X-H torsion
[ 8008 7997 7996 7995 ] final  -28.82 input   59.86 | X-H torsion
[ 10167 10162 10161 10158 ] final -115.01 input  -65.29 | X-H torsion
[ 10718 10713 10712 10709 ] final   16.20 input   66.30 | X-H torsion
[ 10763 10752 10751 10750 ] final  -46.16 input  -60.55 | X-H torsion
[ 11005 11000 10999 10996 ] final  172.01 input  -57.11 | X-H torsion

> <Gold.Protein.ActiveResidues>
 VAL166  LYS551  ARG553  GLY616  TRP617  ASP618  TYR619  PRO620  LYS621  CYS622 
 ASP623  PHE694  ASN695  SER759  ASP760  ASP761  ALA762  ILE779  LEU786  VAL792 
 PHE793  MET794  SER795  GLU796  ALA797  LYS798  CYS799  TRP800  GLU811  SER814 

> <Gold.Protein.RotatedAtoms>
  152.4973  133.8668  159.7278 H   0  0  0  0  0  0  0  0  0  0  0  0  # atno 6907 bound_to 6896
  150.9165  133.6923  159.2849 H   0  0  0  0  0  0  0  0  0  0  0  0  # atno 6908 bound_to 6896
  151.4315  135.1014  159.9696 H   0  0  0  0  0  0  0  0  0  0  0  0  # atno 6909 bound_to 6896
  145.6155  139.2376  143.2168 H   0  0  0  0  0  0  0  0  0  0  0  0  # atno 7974 bound_to 7965
  154.4316  140.1835  156.1151 H   0  0  0  0  0  0  0  0  0  0  0  0  # atno 8008 bound_to 7997
  156.0187  140.3343  155.6991 H   0  0  0  0  0  0  0  0  0  0  0  0  # atno 8009 bound_to 7997
  155.6007  140.0640  157.2724 H   0  0  0  0  0  0  0  0  0  0  0  0  # atno 8010 bound_to 7997
  140.0947  143.4667  152.1848 H   0  0  0  0  0  0  0  0  0  0  0  0  # atno 10167 bound_to 10162
  157.0644  130.6322  149.5792 H   0  0  0  0  0  0  0  0  0  0  0  0  # atno 10718 bound_to 10713
  154.0404  135.6645  153.4789 H   0  0  0  0  0  0  0  0  0  0  0  0  # atno 10763 bound_to 10752
  153.0504  135.5088  154.7847 H   0  0  0  0  0  0  0  0  0  0  0  0  # atno 10764 bound_to 10752
  154.6822  135.3047  154.9563 H   0  0  0  0  0  0  0  0  0  0  0  0  # atno 10765 bound_to 10752
  140.3252  134.7404  157.4093 H   0  0  0  0  0  0  0  0  0  0  0  0  # atno 11005 bound_to 11000
  146.1472  140.6976  142.9339 LP  0  0  0  0  0  0  0  0  0  0  0  0  # atno 17320 bound_to 7965
  144.7252  140.4503  143.6978 LP  0  0  0  0  0  0  0  0  0  0  0  0  # atno 17321 bound_to 7965
  139.5705  144.7460  151.3905 LP  0  0  0  0  0  0  0  0  0  0  0  0  # atno 17342 bound_to 10162
  140.7010  143.7632  150.7402 LP  0  0  0  0  0  0  0  0  0  0  0  0  # atno 17343 bound_to 10162
  155.9969  130.5039  150.7513 LP  0  0  0  0  0  0  0  0  0  0  0  0  # atno 17370 bound_to 10713
  157.4928  131.0912  151.0406 LP  0  0  0  0  0  0  0  0  0  0  0  0  # atno 17371 bound_to 10713
  140.0908  134.5604  155.8446 LP  0  0  0  0  0  0  0  0  0  0  0  0  # atno 17394 bound_to 11000
  141.2077  133.6666  156.6322 LP  0  0  0  0  0  0  0  0  0  0  0  0  # atno 17395 bound_to 11000

$$$$
