AV-unprocessed.smi:1537|AV-procd|sdf|6190|dock7
  -GOLD-   22720 6353D 1   1.00000     0.00000
 Structure written by MMmdl.
 43 43  0  0  0  0  0  0  0  0  1 V2000
  154.1194  141.5581  161.2291 C   0  0  0  0  0  0  0  0  0  0  0  0
  153.0662  142.6680  161.3136 C   0  0  0  0  0  0  0  0  0  0  0  0
  152.2647  142.7927  160.0615 C   0  0  0  0  0  0  0  0  0  0  0  0
  151.6908  141.7547  159.4474 N   0  0  0  0  0  0  0  0  0  0  0  0
  151.0318  142.1218  158.2689 C   0  0  0  0  0  0  0  0  0  0  0  0
  150.3310  141.0816  157.4383 C   0  0  0  0  0  0  0  0  0  0  0  0
  151.3151  140.0973  156.7920 C   0  0  0  0  0  0  0  0  0  0  0  0
  152.5197  140.2035  157.0221 O   0  0  0  0  0  0  0  0  0  0  0  0
  150.8024  139.1337  156.0076 N   0  0  0  0  0  0  0  0  0  0  0  0
  151.5695  138.0907  155.3306 C   0  0  2  0  0  0  0  0  0  0  0  0
  151.4989  138.3601  153.8182 C   0  0  0  0  0  0  0  0  0  0  0  0
  150.9469  136.7104  155.5934 C   0  0  0  0  0  0  0  0  0  0  0  0
  151.6093  135.8198  156.1282 O   0  0  0  0  0  0  0  0  0  0  0  0
  149.6617  136.5677  155.2230 N   0  0  0  0  0  0  0  0  0  0  0  0
  148.7999  135.3868  155.3535 C   0  0  0  0  0  0  0  0  0  0  0  0
  148.7009  135.0678  156.8554 C   0  0  0  0  0  0  0  0  0  0  0  0
  149.4205  134.1758  154.6254 C   0  0  0  0  0  0  0  0  0  0  0  0
  147.3861  135.6828  154.8099 C   0  0  0  0  0  0  0  0  0  0  0  0
  151.1166  143.4659  157.9998 C   0  0  0  0  0  0  0  0  0  0  0  0
  152.0423  144.3146  159.2066 S   0  0  0  0  0  0  0  0  0  0  0  0
  154.6907  141.4930  162.1553 H   0  0  0  0  0  0  0  0  0  0  0  0
  154.8219  141.7434  160.4162 H   0  0  0  0  0  0  0  0  0  0  0  0
  153.6540  140.5872  161.0554 H   0  0  0  0  0  0  0  0  0  0  0  0
  152.3898  142.4778  162.1478 H   0  0  0  0  0  0  0  0  0  0  0  0
  153.5493  143.6244  161.5151 H   0  0  0  0  0  0  0  0  0  0  0  0
  149.6205  140.5250  158.0509 H   0  0  0  0  0  0  0  0  0  0  0  0
  149.7488  141.5526  156.6457 H   0  0  0  0  0  0  0  0  0  0  0  0
  149.8010  139.1148  155.8795 H   0  0  0  0  0  0  0  0  0  0  0  0
  152.6104  138.1099  155.6604 H   0  0  0  0  0  0  0  0  0  0  0  0
  152.0555  137.6101  153.2548 H   0  0  0  0  0  0  0  0  0  0  0  0
  151.9307  139.3321  153.5768 H   0  0  0  0  0  0  0  0  0  0  0  0
  150.4711  138.3574  153.4518 H   0  0  0  0  0  0  0  0  0  0  0  0
  149.2288  137.3729  154.7944 H   0  0  0  0  0  0  0  0  0  0  0  0
  148.0686  134.1975  157.0355 H   0  0  0  0  0  0  0  0  0  0  0  0
  148.2744  135.9027  157.4132 H   0  0  0  0  0  0  0  0  0  0  0  0
  149.6813  134.8535  157.2825 H   0  0  0  0  0  0  0  0  0  0  0  0
  150.4346  133.9792  154.9751 H   0  0  0  0  0  0  0  0  0  0  0  0
  149.4666  134.3240  153.5465 H   0  0  0  0  0  0  0  0  0  0  0  0
  148.8344  133.2723  154.7975 H   0  0  0  0  0  0  0  0  0  0  0  0
  146.7146  134.8421  154.9869 H   0  0  0  0  0  0  0  0  0  0  0  0
  147.3889  135.8671  153.7355 H   0  0  0  0  0  0  0  0  0  0  0  0
  146.9502  136.5579  155.2935 H   0  0  0  0  0  0  0  0  0  0  0  0
  150.7002  144.0046  157.1615 H   0  0  0  0  0  0  0  0  0  0  0  0
  1  2  1  0  0  0  0
  1 21  1  0  0  0  0
  1 22  1  0  0  0  0
  1 23  1  0  0  0  0
  2  3  1  0  0  0  0
  2 24  1  0  0  0  0
  2 25  1  0  0  0  0
  3 20  1  0  0  0  0
  3  4  2  0  0  0  0
  4  5  1  0  0  0  0
  5  6  1  0  0  0  0
  5 19  2  0  0  0  0
  6  7  1  0  0  0  0
  6 26  1  0  0  0  0
  6 27  1  0  0  0  0
  7  8  2  0  0  0  0
  7  9  1  0  0  0  0
  9 10  1  0  0  0  0
  9 28  1  0  0  0  0
 10 11  1  0  0  0  0
 10 12  1  0  0  0  0
 10 29  1  0  0  0  0
 11 30  1  0  0  0  0
 11 31  1  0  0  0  0
 11 32  1  0  0  0  0
 12 13  2  0  0  0  0
 12 14  1  0  0  0  0
 14 15  1  0  0  0  0
 14 33  1  0  0  0  0
 15 16  1  0  0  0  0
 15 17  1  0  0  0  0
 15 18  1  0  0  0  0
 16 34  1  0  0  0  0
 16 35  1  0  0  0  0
 16 36  1  0  0  0  0
 17 37  1  0  0  0  0
 17 38  1  0  0  0  0
 17 39  1  0  0  0  0
 18 40  1  0  0  0  0
 18 41  1  0  0  0  0
 18 42  1  0  0  0  0
 19 20  1  0  0  0  0
 19 43  1  0  0  0  0
M  END
> <s_m_source_file>
AV-unprocessed.smi

> <i_m_source_file_index>
1537

> <i_lp_mmshare_version>
43012

> <i_f3d_flags>
0

> <s_epik_input>
W0NIM11bQ0gyXWMxbmMoW2NIXXMxKVtDSDJdQyg9TylbTkhdW0NASF0oW0NIM10pQyg9TylbTkhdQyhbQ0gzXSkoW0NIM10pW0NIM10=

> <s_epik_cmdline>
J2VwaWtfcHl0aG9uJywgJy1waCcsICc3LjAnLCAnLXRuJywgJzgnLCAnLW1hJywgJzIwMCcsICctbWV0YWxfYmluZGluZycsICctaW1hZScsICc8aW5maWxlLm1hZT4nLCAnLW9tYWUnLCAnPG91dGZpbGUubWFlPic=

> <r_lp_tautomer_probability>
1

> <r_epik_Ionization_Penalty>
4.05444e-05

> <r_epik_Ionization_Penalty_Charging>
0

> <r_epik_Ionization_Penalty_Neutral>
4.05444e-05

> <r_epik_State_Penalty>
-0

> <r_epik_Charging_Adjusted_Penalty>
0

> <i_epik_Tot_Q>
0

> <i_epik_Tot_abs_Q>
0

> <r_epik_Metal_State_Penalty>
-0

> <b_epik_Metal_Only>
0

> <s_lp_Force_Field>
OPLS_2005

> <r_lp_Energy>
-1.93446

> <b_lp_Chiralities_Consistent>
1

> <s_lp_Variant>
AV-unprocessed.smi:1537-1

> <Gold.Version>
5.8.1

> <Gold.Id.Protein>
6NUR|6NUR_protein|mol2

> <Gold.PLP.Fitness>
42.9717

> <Gold.PLP.PLP>
-34.3581

> <Gold.PLP.part.hbond>
-2.0000

> <Gold.PLP.part.metal>
0.0000

> <Gold.PLP.part.buried>
-3.7658

> <Gold.PLP.part.nonpolar>
-27.0968

> <Gold.PLP.part.repulsive>
0.0983

> <Gold.PLP.ligand.clash>
0.0000

> <Gold.PLP.ligand.torsion>
0.2389

> <Gold.PLP.Chemscore.Hbond>
2.0000

> <Gold.PLP.Chemscore.CHOScore>
1.0000

> <Gold.PLP.Chemscore.Metal>
0.0000

> <Gold.Chemscore.Hbonds>
donor molecule, donor type, donor heavy atom, donor atom, acceptor molecule, acceptor atom, score
      P1  H  7997  8010       L1     8  1.00
      P1  H 10752 10764       L1    13  1.00
      L1  C    19    43       P1  8028  1.00

> <Gold.PLP.Chemscore.Internal.Correction>
0.0913

> <Gold.Rescore>
     Score         DG    S(hbond)    S(metal)    S(lipo)     H(rot)  DE(clash)    DE(int)     intcor
     16.49     -18.17       1.93        0.00      94.53       1.88       1.29       0.39       ----

> <Gold.Chemscore.Fitness>
16.4892

> <Gold.Chemscore.DG>
-18.1697

> <Gold.Chemscore.ZeroCoef>
-5.4800

> <Gold.Chemscore.Hbond>
1.9263

> <Gold.Chemscore.Metal>
0.0000

> <Gold.Chemscore.Lipo>
94.5306

> <Gold.Chemscore.Internal_Hbond>
0.0000

> <Gold.Chemscore.DEClash>
1.2932

> <Gold.Chemscore.DEInternal>
0.3873

> <Gold.Chemscore.Rot>
1.8766

> <Gold.Chemscore.Internal.Correction>
   9.000000E+99

> <Gold.Chemscore.Hbonds>
donor molecule, donor type, donor heavy atom, donor atom, acceptor molecule, acceptor atom, score
      P1  H  7997  8010       L1     8  0.97
      P1  H 10752 10764       L1    13  0.29

> <Gold.Chemscore.Hbond.Weighted>
-6.4338

> <Gold.Chemscore.Metal.Weighted>
-0.0000

> <Gold.Chemscore.Lipo.Weighted>
-11.0601

> <Gold.Chemscore.Internal_Hbond.Weighted>
0.0000

> <Gold.Chemscore.DEClash.Weighted>
1.2932

> <Gold.Chemscore.DEInternal.Weighted>
0.3873

> <Gold.Chemscore.Rot.Weighted>
4.8042

> <Gold.Chemscore.Internal.Correction.Weighted>
   9.000000E+99

> <Gold.Protein.RotatedTorsions>
[ 6907 6896 6895 6894 ] final   63.79 input  -60.11 | X-H torsion
[ 7974 7965 7964 7962 ] final  120.23 input  175.53 | X-H torsion
[ 8008 7997 7996 7995 ] final   65.23 input   59.86 | X-H torsion
[ 10167 10162 10161 10158 ] final   30.88 input  -65.29 | X-H torsion
[ 10718 10713 10712 10709 ] final    7.98 input   66.30 | X-H torsion
[ 10763 10752 10751 10750 ] final  -49.39 input  -60.55 | X-H torsion
[ 11005 11000 10999 10996 ] final  -26.82 input  -57.11 | X-H torsion

> <Gold.Protein.ActiveResidues>
 VAL166  LYS551  ARG553  GLY616  TRP617  ASP618  TYR619  PRO620  LYS621  CYS622 
 ASP623  PHE694  ASN695  SER759  ASP760  ASP761  ALA762  ILE779  LEU786  VAL792 
 PHE793  MET794  SER795  GLU796  ALA797  LYS798  CYS799  TRP800  GLU811  SER814 

> <Gold.Protein.RotatedAtoms>
  152.4281  134.5830  159.9952 H   0  0  0  0  0  0  0  0  0  0  0  0  # atno 6907 bound_to 6896
  151.5961  133.3355  159.3045 H   0  0  0  0  0  0  0  0  0  0  0  0  # atno 6908 bound_to 6896
  150.8172  134.7396  159.6805 H   0  0  0  0  0  0  0  0  0  0  0  0  # atno 6909 bound_to 6896
  145.1336  139.3312  143.4652 H   0  0  0  0  0  0  0  0  0  0  0  0  # atno 7974 bound_to 7965
  155.6584  140.3497  155.4774 H   0  0  0  0  0  0  0  0  0  0  0  0  # atno 8008 bound_to 7997
  155.9789  140.1170  157.0768 H   0  0  0  0  0  0  0  0  0  0  0  0  # atno 8009 bound_to 7997
  154.4186  140.1142  156.5394 H   0  0  0  0  0  0  0  0  0  0  0  0  # atno 8010 bound_to 7997
  140.4638  144.0866  150.6219 H   0  0  0  0  0  0  0  0  0  0  0  0  # atno 10167 bound_to 10162
  156.9449  130.5875  149.5654 H   0  0  0  0  0  0  0  0  0  0  0  0  # atno 10718 bound_to 10713
  154.0933  135.6574  153.4856 H   0  0  0  0  0  0  0  0  0  0  0  0  # atno 10763 bound_to 10752
  153.0314  135.5207  154.7359 H   0  0  0  0  0  0  0  0  0  0  0  0  # atno 10764 bound_to 10752
  154.6489  135.2998  154.9980 H   0  0  0  0  0  0  0  0  0  0  0  0  # atno 10765 bound_to 10752
  140.9064  133.7490  156.0611 H   0  0  0  0  0  0  0  0  0  0  0  0  # atno 11005 bound_to 11000
  146.3512  140.1345  142.8596 LP  0  0  0  0  0  0  0  0  0  0  0  0  # atno 17320 bound_to 7965
  145.0608  140.9086  143.4939 LP  0  0  0  0  0  0  0  0  0  0  0  0  # atno 17321 bound_to 7965
  140.4060  143.2680  151.9890 LP  0  0  0  0  0  0  0  0  0  0  0  0  # atno 17342 bound_to 10162
  139.4809  144.5956  151.7696 LP  0  0  0  0  0  0  0  0  0  0  0  0  # atno 17343 bound_to 10162
  156.0388  130.5473  150.8720 LP  0  0  0  0  0  0  0  0  0  0  0  0  # atno 17370 bound_to 10713
  157.5760  131.0946  150.9344 LP  0  0  0  0  0  0  0  0  0  0  0  0  # atno 17371 bound_to 10713
  140.8166  134.3338  157.5395 LP  0  0  0  0  0  0  0  0  0  0  0  0  # atno 17394 bound_to 11000
  139.8750  134.9285  156.3452 LP  0  0  0  0  0  0  0  0  0  0  0  0  # atno 17395 bound_to 11000

$$$$
