AV-unprocessed.smi:2648|AV-procd|sdf|10286|dock1
  -GOLD-   2272014303D 1   1.00000     0.00000
 Structure written by MMmdl.
 33 34  0  0  0  0  0  0  0  0  2 V2000
  147.0450  133.5114  153.6148 O   0  0  0  0  0  0  0  0  0  0  0  0
  147.5698  132.8007  152.7579 C   0  0  0  0  0  0  0  0  0  0  0  0
  148.7988  132.2791  152.8826 N   0  0  0  0  0  0  0  0  0  0  0  0
  149.6718  132.4746  154.0341 C   0  0  0  0  0  0  0  0  0  0  0  0
  149.5382  131.3201  155.0437 C   0  0  0  0  0  0  0  0  0  0  0  0
  150.6200  130.3458  154.8824 N   0  0  0  0  0  0  0  0  0  0  0  0
  151.8735  130.5346  155.3149 C   0  0  0  0  0  0  0  0  0  0  0  0
  152.3265  131.5228  155.8916 O   0  0  0  0  0  0  0  0  0  0  0  0
  152.6847  129.3006  154.9851 C   0  0  0  0  0  0  0  0  0  0  0  0
  151.6546  128.5046  154.3530 N   0  0  0  0  0  0  0  0  0  0  0  0
  150.4739  129.1356  154.3131 C   0  0  0  0  0  0  0  0  0  0  0  0
  149.4380  128.6721  153.8382 O   0  0  0  0  0  0  0  0  0  0  0  0
  147.0120  132.4650  151.5815 N   0  0  0  0  0  0  0  0  0  0  0  0
  145.7189  132.7949  151.0908 C   0  0  0  0  0  0  0  0  0  0  0  0
  145.3830  132.3653  149.7876 C   0  0  0  0  0  0  0  0  0  0  0  0
  144.1048  132.6540  149.2674 C   0  0  0  0  0  0  0  0  0  0  0  0
  143.2092  133.3286  150.0197 N   0  3  0  0  0  0  0  0  0  0  0  0
  143.4788  133.7479  151.2745 C   0  0  0  0  0  0  0  0  0  0  0  0
  144.7403  133.4885  151.8480 C   0  0  0  0  0  0  0  0  0  0  0  0
  149.1589  131.7099  152.1304 H   0  0  0  0  0  0  0  0  0  0  0  0
  150.7068  132.5773  153.7025 H   0  0  0  0  0  0  0  0  0  0  0  0
  149.4052  133.4193  154.5089 H   0  0  0  0  0  0  0  0  0  0  0  0
  149.5377  131.7125  156.0622 H   0  0  0  0  0  0  0  0  0  0  0  0
  148.5754  130.8207  154.9208 H   0  0  0  0  0  0  0  0  0  0  0  0
  153.4995  129.5260  154.2962 H   0  0  0  0  0  0  0  0  0  0  0  0
  153.0708  128.8198  155.8845 H   0  0  0  0  0  0  0  0  0  0  0  0
  151.8196  127.5755  153.9935 H   0  0  0  0  0  0  0  0  0  0  0  0
  147.6025  131.9544  150.9413 H   0  0  0  0  0  0  0  0  0  0  0  0
  146.0984  131.8236  149.1857 H   0  0  0  0  0  0  0  0  0  0  0  0
  143.7739  132.3658  148.2804 H   0  0  0  0  0  0  0  0  0  0  0  0
  142.6805  134.2698  151.7820 H   0  0  0  0  0  0  0  0  0  0  0  0
  144.9265  133.8151  152.8596 H   0  0  0  0  0  0  0  0  0  0  0  0
  142.2888  133.5256  149.6258 H   0  0  0  0  0  0  0  0  0  0  0  0
  1  2  2  0  0  0  0
  2  3  1  0  0  0  0
  2 13  1  0  0  0  0
  3  4  1  0  0  0  0
  3 20  1  0  0  0  0
  4  5  1  0  0  0  0
  4 21  1  0  0  0  0
  4 22  1  0  0  0  0
  5  6  1  0  0  0  0
  5 23  1  0  0  0  0
  5 24  1  0  0  0  0
  6 11  1  0  0  0  0
  6  7  1  0  0  0  0
  7  8  2  0  0  0  0
  7  9  1  0  0  0  0
  9 10  1  0  0  0  0
  9 25  1  0  0  0  0
  9 26  1  0  0  0  0
 10 11  1  0  0  0  0
 10 27  1  0  0  0  0
 11 12  2  0  0  0  0
 13 14  1  0  0  0  0
 13 28  1  0  0  0  0
 14 19  1  0  0  0  0
 14 15  2  0  0  0  0
 15 16  1  0  0  0  0
 15 29  1  0  0  0  0
 16 17  2  0  0  0  0
 16 30  1  0  0  0  0
 17 18  1  0  0  0  0
 17 33  1  0  0  0  0
 18 19  2  0  0  0  0
 18 31  1  0  0  0  0
 19 32  1  0  0  0  0
M  CHG  1  17   1
M  END
> <s_m_source_file>
AV-unprocessed.smi

> <i_m_source_file_index>
2648

> <i_lp_mmshare_version>
43012

> <i_f3d_flags>
0

> <s_epik_input>
W2NIXTFbY0hdbltjSF1bY0hdYzFbTkhdQyg9TylbTkhdW0NIMl1bQ0gyXU4yQyg9TylbQ0gyXVtOSF1DMj1P

> <s_epik_cmdline>
J2VwaWtfcHl0aG9uJywgJy1waCcsICc3LjAnLCAnLXRuJywgJzgnLCAnLW1hJywgJzIwMCcsICctbWV0YWxfYmluZGluZycsICctaW1hZScsICc8aW5maWxlLm1hZT4nLCAnLW9tYWUnLCAnPG91dGZpbGUubWFlPic=

> <r_lp_tautomer_probability>
1

> <r_epik_Ionization_Penalty>
1.05701

> <r_epik_Ionization_Penalty_Charging>
1.05694

> <r_epik_Ionization_Penalty_Neutral>
7.31213e-05

> <r_epik_State_Penalty>
1.11031

> <r_epik_Charging_Adjusted_Penalty>
2.16725

> <i_epik_Tot_Q>
1

> <i_epik_Tot_abs_Q>
1

> <r_epik_Metal_State_Penalty>
1.22924

> <b_epik_Metal_Only>
0

> <s_lp_Force_Field>
OPLS_2005

> <r_lp_Energy>
27.1091

> <b_lp_Chiralities_Consistent>
1

> <s_lp_Variant>
AV-unprocessed.smi:2648-2

> <Gold.Version>
5.8.1

> <Gold.Id.Protein>
6NUR|6NUR_protein|mol2

> <Gold.PLP.Fitness>
45.8997

> <Gold.PLP.PLP>
-34.6588

> <Gold.PLP.part.hbond>
-3.8615

> <Gold.PLP.part.metal>
0.0000

> <Gold.PLP.part.buried>
-3.8911

> <Gold.PLP.part.nonpolar>
-26.6670

> <Gold.PLP.part.repulsive>
0.3683

> <Gold.PLP.ligand.clash>
0.0000

> <Gold.PLP.ligand.torsion>
0.6490

> <Gold.PLP.Chemscore.Hbond>
4.1760

> <Gold.PLP.Chemscore.CHOScore>
0.0000

> <Gold.PLP.Chemscore.Metal>
0.0000

> <Gold.Chemscore.Hbonds>
donor molecule, donor type, donor heavy atom, donor atom, acceptor molecule, acceptor atom, score
      L1  H     3    20       P1 10747  1.00
      L1  H    10    27       P1 10737  0.06
      L1  H    13    28       P1 10747  1.00
      L1  H    17    33       P1 10186  2.00

> <Gold.PLP.Chemscore.Internal.Correction>
0.0109

> <Gold.Rescore>
     Score         DG    S(hbond)    S(metal)    S(lipo)     H(rot)  DE(clash)    DE(int)     intcor
     14.14     -16.11       2.66        0.00      58.04       1.96       0.10       1.87       ----

> <Gold.Chemscore.Fitness>
14.1366

> <Gold.Chemscore.DG>
-16.1095

> <Gold.Chemscore.ZeroCoef>
-5.4800

> <Gold.Chemscore.Hbond>
2.6554

> <Gold.Chemscore.Metal>
0.0000

> <Gold.Chemscore.Lipo>
58.0387

> <Gold.Chemscore.Internal_Hbond>
0.0000

> <Gold.Chemscore.DEClash>
0.1037

> <Gold.Chemscore.DEInternal>
1.8692

> <Gold.Chemscore.Rot>
1.9648

> <Gold.Chemscore.Internal.Correction>
   9.000000E+99

> <Gold.Chemscore.Hbonds>
donor molecule, donor type, donor heavy atom, donor atom, acceptor molecule, acceptor atom, score
      L1  H     3    20       P1 10747  0.55
      L1  H    10    27       P1 10737  0.07
      L1  H    13    28       P1 10747  1.00
      L1  H    17    33       P1 10186  0.92

> <Gold.Chemscore.Hbond.Weighted>
-8.8689

> <Gold.Chemscore.Metal.Weighted>
-0.0000

> <Gold.Chemscore.Lipo.Weighted>
-6.7905

> <Gold.Chemscore.Internal_Hbond.Weighted>
0.0000

> <Gold.Chemscore.DEClash.Weighted>
0.1037

> <Gold.Chemscore.DEInternal.Weighted>
1.8692

> <Gold.Chemscore.Rot.Weighted>
5.0299

> <Gold.Chemscore.Internal.Correction.Weighted>
   9.000000E+99

> <Gold.Protein.RotatedTorsions>
[ 6907 6896 6895 6894 ] final   57.53 input  -60.11 | X-H torsion
[ 7974 7965 7964 7962 ] final -177.94 input  175.53 | X-H torsion
[ 8008 7997 7996 7995 ] final -147.29 input   59.86 | X-H torsion
[ 10167 10162 10161 10158 ] final -149.23 input  -65.29 | X-H torsion
[ 10718 10713 10712 10709 ] final  -46.94 input   66.30 | X-H torsion
[ 10763 10752 10751 10750 ] final   53.32 input  -60.55 | X-H torsion
[ 11005 11000 10999 10996 ] final   17.80 input  -57.11 | X-H torsion

> <Gold.Protein.ActiveResidues>
 VAL166  LYS551  ARG553  GLY616  TRP617  ASP618  TYR619  PRO620  LYS621  CYS622 
 ASP623  PHE694  ASN695  SER759  ASP760  ASP761  ALA762  ILE779  LEU786  VAL792 
 PHE793  MET794  SER795  GLU796  ALA797  LYS798  CYS799  TRP800  GLU811  SER814 

> <Gold.Protein.RotatedAtoms>
  152.3740  134.6692  160.0166 H   0  0  0  0  0  0  0  0  0  0  0  0  # atno 6907 bound_to 6896
  151.6976  133.3305  159.3266 H   0  0  0  0  0  0  0  0  0  0  0  0  # atno 6908 bound_to 6896
  150.7695  134.6579  159.6368 H   0  0  0  0  0  0  0  0  0  0  0  0  # atno 6909 bound_to 6896
  144.7129  140.0943  143.6420 H   0  0  0  0  0  0  0  0  0  0  0  0  # atno 7974 bound_to 7965
  155.5732  140.0636  157.2801 H   0  0  0  0  0  0  0  0  0  0  0  0  # atno 8008 bound_to 7997
  154.4355  140.1865  156.0946 H   0  0  0  0  0  0  0  0  0  0  0  0  # atno 8009 bound_to 7997
  156.0361  140.3301  155.7196 H   0  0  0  0  0  0  0  0  0  0  0  0  # atno 8010 bound_to 7997
  139.7461  143.8588  152.2575 H   0  0  0  0  0  0  0  0  0  0  0  0  # atno 10167 bound_to 10162
  156.2133  130.4162  149.9087 H   0  0  0  0  0  0  0  0  0  0  0  0  # atno 10718 bound_to 10713
  152.9794  135.5782  154.4723 H   0  0  0  0  0  0  0  0  0  0  0  0  # atno 10763 bound_to 10752
  154.4284  135.2773  155.1931 H   0  0  0  0  0  0  0  0  0  0  0  0  # atno 10764 bound_to 10752
  154.3650  135.6180  153.5764 H   0  0  0  0  0  0  0  0  0  0  0  0  # atno 10765 bound_to 10752
  140.4319  134.1411  155.7681 H   0  0  0  0  0  0  0  0  0  0  0  0  # atno 11005 bound_to 11000
  145.9593  139.2789  143.1165 LP  0  0  0  0  0  0  0  0  0  0  0  0  # atno 17320 bound_to 7965
  145.9238  140.9096  143.0391 LP  0  0  0  0  0  0  0  0  0  0  0  0  # atno 17321 bound_to 7965
  139.8553  144.7144  150.9165 LP  0  0  0  0  0  0  0  0  0  0  0  0  # atno 17342 bound_to 10162
  140.7792  143.3864  151.1386 LP  0  0  0  0  0  0  0  0  0  0  0  0  # atno 17343 bound_to 10162
  156.6758  130.8838  151.3569 LP  0  0  0  0  0  0  0  0  0  0  0  0  # atno 17370 bound_to 10713
  157.7050  130.9375  150.0902 LP  0  0  0  0  0  0  0  0  0  0  0  0  # atno 17371 bound_to 10713
  141.1742  133.8548  157.1475 LP  0  0  0  0  0  0  0  0  0  0  0  0  # atno 17394 bound_to 11000
  140.0128  134.9980  157.0431 LP  0  0  0  0  0  0  0  0  0  0  0  0  # atno 17395 bound_to 11000

$$$$
