AV-unprocessed.smi:1112|AV-procd|sdf|4797|dock6
  -GOLD-   22720 3343D 1   1.00000     0.00000
 Structure written by MMmdl.
 50 52  0  0  0  0  0  0  0  0  2 V2000
  153.1363  134.0432  152.9101 O   0  0  0  0  0  0  0  0  0  0  0  0
  152.0847  134.5841  152.5698 C   0  0  0  0  0  0  0  0  0  0  0  0
  151.5740  135.6671  153.1724 N   0  0  0  0  0  0  0  0  0  0  0  0
  152.1774  136.3919  154.2899 C   0  0  0  0  0  0  0  0  0  0  0  0
  151.6599  137.8502  154.4087 C   0  0  0  0  0  0  0  0  0  0  0  0
  152.1444  138.5402  153.2717 O   0  0  0  0  0  0  0  0  0  0  0  0
  150.1160  137.9115  154.3231 C   0  0  0  0  0  0  0  0  0  0  0  0
  149.4266  137.4105  155.6064 C   0  0  0  0  0  0  0  0  0  0  0  0
  149.9403  138.1557  156.8483 C   0  0  0  0  0  0  0  0  0  0  0  0
  151.4711  138.0796  156.9533 C   0  0  0  0  0  0  0  0  0  0  0  0
  152.1404  138.6068  155.6725 C   0  0  0  0  0  0  0  0  0  0  0  0
  151.2925  134.1720  151.5660 N   0  0  0  0  0  0  0  0  0  0  0  0
  151.4691  133.0584  150.6944 C   0  0  0  0  0  0  0  0  0  0  0  0
  152.7404  132.6833  150.1880 C   0  0  0  0  0  0  0  0  0  0  0  0
  152.8527  131.5738  149.3279 C   0  0  0  0  0  0  0  0  0  0  0  0
  151.6925  130.8608  148.9778 C   0  0  0  0  0  0  0  0  0  0  0  0
  150.4957  131.2535  149.4607 N   0  3  0  0  0  0  0  0  0  0  0  0
  150.3276  132.3118  150.2922 C   0  0  0  0  0  0  0  0  0  0  0  0
  149.0227  132.6530  150.7066 N   0  0  0  0  0  0  0  0  0  0  0  0
  148.1859  133.1868  149.6341 C   0  0  0  0  0  0  0  0  0  0  0  0
  146.7825  132.6143  149.8479 C   0  0  0  0  0  0  0  0  0  0  0  0
  147.0453  131.3206  150.6089 C   0  0  0  0  0  0  0  0  0  0  0  0
  148.2404  131.6933  151.4838 C   0  0  0  0  0  0  0  0  0  0  0  0
  150.7030  136.0384  152.8226 H   0  0  0  0  0  0  0  0  0  0  0  0
  151.9612  135.8413  155.2062 H   0  0  0  0  0  0  0  0  0  0  0  0
  153.2633  136.3824  154.1971 H   0  0  0  0  0  0  0  0  0  0  0  0
  151.4335  138.6424  152.6573 H   0  0  0  0  0  0  0  0  0  0  0  0
  149.8020  138.9421  154.1492 H   0  0  0  0  0  0  0  0  0  0  0  0
  149.7594  137.3400  153.4649 H   0  0  0  0  0  0  0  0  0  0  0  0
  148.3479  137.5431  155.5190 H   0  0  0  0  0  0  0  0  0  0  0  0
  149.5885  136.3394  155.7278 H   0  0  0  0  0  0  0  0  0  0  0  0
  149.6306  139.2005  156.8001 H   0  0  0  0  0  0  0  0  0  0  0  0
  149.4836  137.7401  157.7469 H   0  0  0  0  0  0  0  0  0  0  0  0
  151.8110  138.6586  157.8123 H   0  0  0  0  0  0  0  0  0  0  0  0
  151.7757  137.0496  157.1389 H   0  0  0  0  0  0  0  0  0  0  0  0
  153.2250  138.5660  155.7725 H   0  0  0  0  0  0  0  0  0  0  0  0
  151.8973  139.6659  155.5725 H   0  0  0  0  0  0  0  0  0  0  0  0
  150.4179  134.6660  151.4658 H   0  0  0  0  0  0  0  0  0  0  0  0
  153.6350  133.2351  150.4325 H   0  0  0  0  0  0  0  0  0  0  0  0
  153.8161  131.2782  148.9386 H   0  0  0  0  0  0  0  0  0  0  0  0
  151.6831  130.0018  148.3226 H   0  0  0  0  0  0  0  0  0  0  0  0
  148.1743  134.2770  149.6501 H   0  0  0  0  0  0  0  0  0  0  0  0
  148.5712  132.8719  148.6626 H   0  0  0  0  0  0  0  0  0  0  0  0
  146.1960  133.2932  150.4691 H   0  0  0  0  0  0  0  0  0  0  0  0
  146.2409  132.4591  148.9143 H   0  0  0  0  0  0  0  0  0  0  0  0
  146.1848  130.9805  151.1857 H   0  0  0  0  0  0  0  0  0  0  0  0
  147.3238  130.5283  149.9124 H   0  0  0  0  0  0  0  0  0  0  0  0
  148.7955  130.8139  151.8108 H   0  0  0  0  0  0  0  0  0  0  0  0
  147.8960  132.2008  152.3854 H   0  0  0  0  0  0  0  0  0  0  0  0
  149.6689  130.7265  149.1789 H   0  0  0  0  0  0  0  0  0  0  0  0
  1  2  2  0  0  0  0
  2  3  1  0  0  0  0
  2 12  1  0  0  0  0
  3  4  1  0  0  0  0
  3 24  1  0  0  0  0
  4  5  1  0  0  0  0
  4 25  1  0  0  0  0
  4 26  1  0  0  0  0
  5 11  1  0  0  0  0
  5  6  1  0  0  0  0
  5  7  1  0  0  0  0
  6 27  1  0  0  0  0
  7  8  1  0  0  0  0
  7 28  1  0  0  0  0
  7 29  1  0  0  0  0
  8  9  1  0  0  0  0
  8 30  1  0  0  0  0
  8 31  1  0  0  0  0
  9 10  1  0  0  0  0
  9 32  1  0  0  0  0
  9 33  1  0  0  0  0
 10 11  1  0  0  0  0
 10 34  1  0  0  0  0
 10 35  1  0  0  0  0
 11 36  1  0  0  0  0
 11 37  1  0  0  0  0
 12 13  1  0  0  0  0
 12 38  1  0  0  0  0
 13 18  1  0  0  0  0
 13 14  2  0  0  0  0
 14 15  1  0  0  0  0
 14 39  1  0  0  0  0
 15 16  2  0  0  0  0
 15 40  1  0  0  0  0
 16 17  1  0  0  0  0
 16 41  1  0  0  0  0
 17 18  2  0  0  0  0
 17 50  1  0  0  0  0
 18 19  1  0  0  0  0
 19 23  1  0  0  0  0
 19 20  1  0  0  0  0
 20 21  1  0  0  0  0
 20 42  1  0  0  0  0
 20 43  1  0  0  0  0
 21 22  1  0  0  0  0
 21 44  1  0  0  0  0
 21 45  1  0  0  0  0
 22 23  1  0  0  0  0
 22 46  1  0  0  0  0
 22 47  1  0  0  0  0
 23 48  1  0  0  0  0
 23 49  1  0  0  0  0
M  CHG  1  17   1
M  END
> <s_m_source_file>
AV-unprocessed.smi

> <i_m_source_file_index>
1112

> <i_lp_mmshare_version>
43012

> <i_f3d_flags>
0

> <s_epik_input>
W0NIMl0xW0NIMl1bQ0gyXVtDSDJdW0NIMl1DMShbT0hdKVtDSDJdW05IXUMoPU8pW05IXWMyW2NIXVtjSF1bY0hdbmMyTjNbQ0gyXVtDSDJdW0NIMl1bQ0gyXTM=

> <s_epik_cmdline>
J2VwaWtfcHl0aG9uJywgJy1waCcsICc3LjAnLCAnLXRuJywgJzgnLCAnLW1hJywgJzIwMCcsICctbWV0YWxfYmluZGluZycsICctaW1hZScsICc8aW5maWxlLm1hZT4nLCAnLW9tYWUnLCAnPG91dGZpbGUubWFlPic=

> <r_lp_tautomer_probability>
0.999994

> <r_epik_Ionization_Penalty>
1.10443

> <r_epik_Ionization_Penalty_Charging>
1.1044

> <r_epik_Ionization_Penalty_Neutral>
2.27493e-05

> <r_epik_State_Penalty>
1.16183

> <r_epik_Charging_Adjusted_Penalty>
2.26623

> <i_epik_Tot_Q>
1

> <i_epik_Tot_abs_Q>
1

> <r_epik_Metal_State_Penalty>
1.24855

> <b_epik_Metal_Only>
0

> <s_lp_Force_Field>
OPLS_2005

> <r_lp_Energy>
50.1983

> <b_lp_Chiralities_Consistent>
1

> <s_lp_Variant>
AV-unprocessed.smi:1112-2

> <Gold.Version>
5.8.1

> <Gold.Id.Protein>
6NUR|6NUR_protein|mol2

> <Gold.PLP.Fitness>
-462.9657

> <Gold.PLP.PLP>
461.9220

> <Gold.PLP.part.hbond>
13.3777

> <Gold.PLP.part.metal>
0.0000

> <Gold.PLP.part.buried>
268.8798

> <Gold.PLP.part.nonpolar>
148.4014

> <Gold.PLP.part.repulsive>
26.0044

> <Gold.PLP.ligand.clash>
0.0000

> <Gold.PLP.ligand.torsion>
0.5944

> <Gold.PLP.Chemscore.Hbond>
0.0000

> <Gold.PLP.Chemscore.CHOScore>
0.0000

> <Gold.PLP.Chemscore.Metal>
0.0000

> <Gold.PLP.Chemscore.Internal.Correction>
0.1452

> <Gold.Rescore>
     Score         DG    S(hbond)    S(metal)    S(lipo)     H(rot)  DE(clash)    DE(int)     intcor
      8.78     -10.09       1.03        0.00      52.01       1.92       0.02       1.29       ----

> <Gold.Chemscore.Fitness>
8.7759

> <Gold.Chemscore.DG>
-10.0922

> <Gold.Chemscore.ZeroCoef>
-5.4800

> <Gold.Chemscore.Hbond>
1.0284

> <Gold.Chemscore.Metal>
0.0000

> <Gold.Chemscore.Lipo>
52.0141

> <Gold.Chemscore.Internal_Hbond>
0.0000

> <Gold.Chemscore.DEClash>
0.0239

> <Gold.Chemscore.DEInternal>
1.2925

> <Gold.Chemscore.Rot>
1.9173

> <Gold.Chemscore.Internal.Correction>
   9.000000E+99

> <Gold.Chemscore.Hbond.Weighted>
-3.4349

> <Gold.Chemscore.Metal.Weighted>
-0.0000

> <Gold.Chemscore.Lipo.Weighted>
-6.0856

> <Gold.Chemscore.Internal_Hbond.Weighted>
0.0000

> <Gold.Chemscore.DEClash.Weighted>
0.0239

> <Gold.Chemscore.DEInternal.Weighted>
1.2925

> <Gold.Chemscore.Rot.Weighted>
4.9084

> <Gold.Chemscore.Internal.Correction.Weighted>
   9.000000E+99

> <Gold.Protein.RotatedTorsions>
[ 6907 6896 6895 6894 ] final   27.07 input  -60.11 | X-H torsion
[ 7974 7965 7964 7962 ] final  -14.32 input  175.53 | X-H torsion
[ 8008 7997 7996 7995 ] final  -77.95 input   59.86 | X-H torsion
[ 10167 10162 10161 10158 ] final  127.37 input  -65.29 | X-H torsion
[ 10718 10713 10712 10709 ] final  -71.52 input   66.30 | X-H torsion
[ 10763 10752 10751 10750 ] final  -16.96 input  -60.55 | X-H torsion
[ 11005 11000 10999 10996 ] final   89.14 input  -57.11 | X-H torsion

> <Gold.Protein.ActiveResidues>
 VAL166  LYS551  ARG553  GLY616  TRP617  ASP618  TYR619  PRO620  LYS621  CYS622 
 ASP623  PHE694  ASN695  SER759  ASP760  ASP761  ALA762  ILE779  LEU786  VAL792 
 PHE793  MET794  SER795  GLU796  ALA797  LYS798  CYS799  TRP800  GLU811  SER814 

> <Gold.Protein.RotatedAtoms>
  151.9969  134.9949  160.0563 H   0  0  0  0  0  0  0  0  0  0  0  0  # atno 6907 bound_to 6896
  152.1556  133.4544  159.4843 H   0  0  0  0  0  0  0  0  0  0  0  0  # atno 6908 bound_to 6896
  150.6881  134.2053  159.4381 H   0  0  0  0  0  0  0  0  0  0  0  0  # atno 6909 bound_to 6896
  146.2079  140.3331  142.8401 H   0  0  0  0  0  0  0  0  0  0  0  0  # atno 7974 bound_to 7965
  154.5644  140.0702  156.8869 H   0  0  0  0  0  0  0  0  0  0  0  0  # atno 8008 bound_to 7997
  155.2751  140.3368  155.4244 H   0  0  0  0  0  0  0  0  0  0  0  0  # atno 8009 bound_to 7997
  156.2068  140.1743  156.7767 H   0  0  0  0  0  0  0  0  0  0  0  0  # atno 8010 bound_to 7997
  139.5582  144.6863  151.4120 H   0  0  0  0  0  0  0  0  0  0  0  0  # atno 10167 bound_to 10162
  156.0359  130.4353  150.2456 H   0  0  0  0  0  0  0  0  0  0  0  0  # atno 10718 bound_to 10713
  153.5665  135.7008  153.5523 H   0  0  0  0  0  0  0  0  0  0  0  0  # atno 10763 bound_to 10752
  153.3382  135.4028  155.1550 H   0  0  0  0  0  0  0  0  0  0  0  0  # atno 10764 bound_to 10752
  154.8640  135.3735  154.5186 H   0  0  0  0  0  0  0  0  0  0  0  0  # atno 10765 bound_to 10752
  139.8881  134.8533  156.3100 H   0  0  0  0  0  0  0  0  0  0  0  0  # atno 11005 bound_to 11000
  144.8838  140.7435  143.5969 LP  0  0  0  0  0  0  0  0  0  0  0  0  # atno 17320 bound_to 7965
  145.3252  139.1776  143.4566 LP  0  0  0  0  0  0  0  0  0  0  0  0  # atno 17321 bound_to 7965
  140.6858  143.7977  150.7184 LP  0  0  0  0  0  0  0  0  0  0  0  0  # atno 17342 bound_to 10162
  140.1444  143.4413  152.2172 LP  0  0  0  0  0  0  0  0  0  0  0  0  # atno 17343 bound_to 10162
  157.0555  131.0075  151.3240 LP  0  0  0  0  0  0  0  0  0  0  0  0  # atno 17370 bound_to 10713
  157.5109  130.7938  149.7704 LP  0  0  0  0  0  0  0  0  0  0  0  0  # atno 17371 bound_to 10713
  140.9856  133.7240  156.0737 LP  0  0  0  0  0  0  0  0  0  0  0  0  # atno 17394 bound_to 11000
  140.7692  134.3852  157.5511 LP  0  0  0  0  0  0  0  0  0  0  0  0  # atno 17395 bound_to 11000

$$$$
