AV-unprocessed.smi:2306|AV-procd|sdf|9249|dock7
  -GOLD-   2272012473D 1   1.00000     0.00000
 Structure written by MMmdl.
 41 42  0  0  0  0  0  0  0  0  1 V2000
  152.6384  143.1144  159.8963 C   0  0  0  0  0  0  0  0  0  0  0  0
  152.1108  142.3107  158.7210 C   0  0  0  0  0  0  0  0  0  0  0  0
  151.4981  143.0532  157.7076 N   0  0  0  0  0  0  0  0  0  0  0  0
  151.0138  142.4518  156.6708 C   0  0  0  0  0  0  0  0  0  0  0  0
  151.0827  141.0556  156.5273 N   0  0  0  0  0  0  0  0  0  0  0  0
  150.4911  140.4922  155.3017 C   0  0  0  0  0  0  0  0  0  0  0  0
  149.4061  141.4141  154.7001 C   0  0  1  0  0  0  0  0  0  0  0  0
  149.2206  141.1363  153.3268 O   0  0  0  0  0  0  0  0  0  0  0  0
  148.0390  141.2632  155.3897 C   0  0  0  0  0  0  0  0  0  0  0  0
  147.0068  141.7097  154.5239 O   0  0  0  0  0  0  0  0  0  0  0  0
  145.8115  142.0426  155.2100 C   0  0  0  0  0  0  0  0  0  0  0  0
  145.1865  143.3138  154.6679 C   0  0  0  0  0  0  0  0  0  0  0  0
  144.1750  143.9739  155.3971 C   0  0  0  0  0  0  0  0  0  0  0  0
  143.5843  145.1465  154.8863 C   0  0  0  0  0  0  0  0  0  0  0  0
  143.9974  145.6596  153.6415 C   0  0  0  0  0  0  0  0  0  0  0  0
  145.0001  144.9985  152.9063 C   0  0  0  0  0  0  0  0  0  0  0  0
  145.5917  143.8265  153.4169 C   0  0  0  0  0  0  0  0  0  0  0  0
  151.6785  140.2588  157.4604 C   0  0  0  0  0  0  0  0  0  0  0  0
  151.7560  139.0376  157.3147 O   0  0  0  0  0  0  0  0  0  0  0  0
  152.2176  140.9563  158.6391 C   0  0  0  0  0  0  0  0  0  0  0  0
  152.8733  140.0954  159.7118 C   0  0  0  0  0  0  0  0  0  0  0  0
  153.7106  142.9579  160.0164 H   0  0  0  0  0  0  0  0  0  0  0  0
  152.1365  142.8178  160.8176 H   0  0  0  0  0  0  0  0  0  0  0  0
  152.4716  144.1828  159.7542 H   0  0  0  0  0  0  0  0  0  0  0  0
  150.5312  142.9853  155.8500 H   0  0  0  0  0  0  0  0  0  0  0  0
  151.2550  140.2594  154.5572 H   0  0  0  0  0  0  0  0  0  0  0  0
  150.0467  139.5223  155.5358 H   0  0  0  0  0  0  0  0  0  0  0  0
  149.7104  142.4582  154.7842 H   0  0  0  0  0  0  0  0  0  0  0  0
  149.4565  140.2350  153.1670 H   0  0  0  0  0  0  0  0  0  0  0  0
  147.8709  140.2104  155.6213 H   0  0  0  0  0  0  0  0  0  0  0  0
  148.0186  141.8064  156.3364 H   0  0  0  0  0  0  0  0  0  0  0  0
  145.0855  141.2344  155.1103 H   0  0  0  0  0  0  0  0  0  0  0  0
  146.0223  142.1629  156.2740 H   0  0  0  0  0  0  0  0  0  0  0  0
  143.8501  143.5853  156.3511 H   0  0  0  0  0  0  0  0  0  0  0  0
  142.8132  145.6515  155.4491 H   0  0  0  0  0  0  0  0  0  0  0  0
  143.5443  146.5582  153.2497 H   0  0  0  0  0  0  0  0  0  0  0  0
  145.3149  145.3895  151.9499 H   0  0  0  0  0  0  0  0  0  0  0  0
  146.3581  143.3230  152.8458 H   0  0  0  0  0  0  0  0  0  0  0  0
  152.1630  139.3589  160.0893 H   0  0  0  0  0  0  0  0  0  0  0  0
  153.2316  140.6699  160.5644 H   0  0  0  0  0  0  0  0  0  0  0  0
  153.7264  139.5597  159.2944 H   0  0  0  0  0  0  0  0  0  0  0  0
  1  2  1  0  0  0  0
  1 22  1  0  0  0  0
  1 23  1  0  0  0  0
  1 24  1  0  0  0  0
  2 20  2  0  0  0  0
  2  3  1  0  0  0  0
  3  4  2  0  0  0  0
  4  5  1  0  0  0  0
  4 25  1  0  0  0  0
  5  6  1  0  0  0  0
  5 18  1  0  0  0  0
  6  7  1  0  0  0  0
  6 26  1  0  0  0  0
  6 27  1  0  0  0  0
  7  8  1  0  0  0  0
  7  9  1  0  0  0  0
  7 28  1  0  0  0  0
  8 29  1  0  0  0  0
  9 10  1  0  0  0  0
  9 30  1  0  0  0  0
  9 31  1  0  0  0  0
 10 11  1  0  0  0  0
 11 12  1  0  0  0  0
 11 32  1  0  0  0  0
 11 33  1  0  0  0  0
 12 17  1  0  0  0  0
 12 13  2  0  0  0  0
 13 14  1  0  0  0  0
 13 34  1  0  0  0  0
 14 15  2  0  0  0  0
 14 35  1  0  0  0  0
 15 16  1  0  0  0  0
 15 36  1  0  0  0  0
 16 17  2  0  0  0  0
 16 37  1  0  0  0  0
 17 38  1  0  0  0  0
 18 19  2  0  0  0  0
 18 20  1  0  0  0  0
 20 21  1  0  0  0  0
 21 39  1  0  0  0  0
 21 40  1  0  0  0  0
 21 41  1  0  0  0  0
M  END
> <s_m_source_file>
AV-unprocessed.smi

> <i_m_source_file_index>
2306

> <i_lp_mmshare_version>
43012

> <i_f3d_flags>
0

> <s_epik_input>
W0NIM11jMW5bY0hdbihjKD1PKWMxW0NIM10pW0NIMl1bQ0BIXShbT0hdKVtDSDJdT1tDSDJdYzJbY0hdW2NIXVtjSF1bY0hdW2NIXTI=

> <s_epik_cmdline>
J2VwaWtfcHl0aG9uJywgJy1waCcsICc3LjAnLCAnLXRuJywgJzgnLCAnLW1hJywgJzIwMCcsICctbWV0YWxfYmluZGluZycsICctaW1hZScsICc8aW5maWxlLm1hZT4nLCAnLW9tYWUnLCAnPG91dGZpbGUubWFlPic=

> <r_lp_tautomer_probability>
1

> <r_epik_Ionization_Penalty>
5.35985e-05

> <r_epik_Ionization_Penalty_Charging>
1.17753e-07

> <r_epik_Ionization_Penalty_Neutral>
5.34808e-05

> <r_epik_State_Penalty>
-0

> <r_epik_Charging_Adjusted_Penalty>
1.17753e-07

> <i_epik_Tot_Q>
0

> <i_epik_Tot_abs_Q>
0

> <r_epik_Metal_State_Penalty>
-0

> <b_epik_Metal_Only>
0

> <s_lp_Force_Field>
OPLS_2005

> <r_lp_Energy>
24.4772

> <b_lp_Chiralities_Consistent>
1

> <s_lp_Variant>
AV-unprocessed.smi:2306-2

> <Gold.Version>
5.8.1

> <Gold.Id.Protein>
6NUR|6NUR_protein|mol2

> <Gold.PLP.Fitness>
50.5627

> <Gold.PLP.PLP>
-46.9682

> <Gold.PLP.part.hbond>
-2.7371

> <Gold.PLP.part.metal>
0.0000

> <Gold.PLP.part.buried>
-4.5157

> <Gold.PLP.part.nonpolar>
-39.3474

> <Gold.PLP.part.repulsive>
0.2223

> <Gold.PLP.ligand.clash>
0.1158

> <Gold.PLP.ligand.torsion>
1.3800

> <Gold.PLP.Chemscore.Hbond>
1.1280

> <Gold.PLP.Chemscore.CHOScore>
1.0000

> <Gold.PLP.Chemscore.Metal>
0.0000

> <Gold.Chemscore.Hbonds>
donor molecule, donor type, donor heavy atom, donor atom, acceptor molecule, acceptor atom, score
      L1  H     8    29       P1  7957  0.13
      P1  H  8011  8017       L1     8  1.00
      L1  C     4    25       P1  8028  1.00

> <Gold.PLP.Chemscore.Internal.Correction>
0.0863

> <Gold.Rescore>
     Score         DG    S(hbond)    S(metal)    S(lipo)     H(rot)  DE(clash)    DE(int)     intcor
     13.10     -14.66       0.94        0.00     106.66       2.52       0.14       1.42       ----

> <Gold.Chemscore.Fitness>
13.1020

> <Gold.Chemscore.DG>
-14.6569

> <Gold.Chemscore.ZeroCoef>
-5.4800

> <Gold.Chemscore.Hbond>
0.9398

> <Gold.Chemscore.Metal>
0.0000

> <Gold.Chemscore.Lipo>
106.6606

> <Gold.Chemscore.Internal_Hbond>
0.0000

> <Gold.Chemscore.DEClash>
0.1372

> <Gold.Chemscore.DEInternal>
1.4177

> <Gold.Chemscore.Rot>
2.5162

> <Gold.Chemscore.Internal.Correction>
   9.000000E+99

> <Gold.Chemscore.Hbonds>
donor molecule, donor type, donor heavy atom, donor atom, acceptor molecule, acceptor atom, score
      L1  H     8    29       P1  7957  0.13
      P1  H  8011  8017       L1     8  0.80

> <Gold.Chemscore.Hbond.Weighted>
-3.1390

> <Gold.Chemscore.Metal.Weighted>
-0.0000

> <Gold.Chemscore.Lipo.Weighted>
-12.4793

> <Gold.Chemscore.Internal_Hbond.Weighted>
0.0000

> <Gold.Chemscore.DEClash.Weighted>
0.1372

> <Gold.Chemscore.DEInternal.Weighted>
1.4177

> <Gold.Chemscore.Rot.Weighted>
6.4414

> <Gold.Chemscore.Internal.Correction.Weighted>
   9.000000E+99

> <Gold.Protein.RotatedTorsions>
[ 6907 6896 6895 6894 ] final -128.25 input  -60.11 | X-H torsion
[ 7974 7965 7964 7962 ] final   80.36 input  175.53 | X-H torsion
[ 8008 7997 7996 7995 ] final  -54.94 input   59.86 | X-H torsion
[ 10167 10162 10161 10158 ] final -162.10 input  -65.29 | X-H torsion
[ 10718 10713 10712 10709 ] final  -40.55 input   66.30 | X-H torsion
[ 10763 10752 10751 10750 ] final   21.91 input  -60.55 | X-H torsion
[ 11005 11000 10999 10996 ] final  119.91 input  -57.11 | X-H torsion

> <Gold.Protein.ActiveResidues>
 VAL166  LYS551  ARG553  GLY616  TRP617  ASP618  TYR619  PRO620  LYS621  CYS622 
 ASP623  PHE694  ASN695  SER759  ASP760  ASP761  ALA762  ILE779  LEU786  VAL792 
 PHE793  MET794  SER795  GLU796  ALA797  LYS798  CYS799  TRP800  GLU811  SER814 

> <Gold.Protein.RotatedAtoms>
  150.9159  133.6940  159.2843 H   0  0  0  0  0  0  0  0  0  0  0  0  # atno 6907 bound_to 6896
  151.4411  135.1019  159.9680 H   0  0  0  0  0  0  0  0  0  0  0  0  # atno 6908 bound_to 6896
  152.4954  133.8567  159.7284 H   0  0  0  0  0  0  0  0  0  0  0  0  # atno 6909 bound_to 6896
  145.6522  139.2450  143.1970 H   0  0  0  0  0  0  0  0  0  0  0  0  # atno 7974 bound_to 7965
  154.4179  140.1164  156.5397 H   0  0  0  0  0  0  0  0  0  0  0  0  # atno 8008 bound_to 7997
  155.6521  140.3496  155.4733 H   0  0  0  0  0  0  0  0  0  0  0  0  # atno 8009 bound_to 7997
  155.9784  140.1155  157.0739 H   0  0  0  0  0  0  0  0  0  0  0  0  # atno 8010 bound_to 7997
  139.6416  144.0248  152.2096 H   0  0  0  0  0  0  0  0  0  0  0  0  # atno 10167 bound_to 10162
  156.2800  130.4216  149.8346 H   0  0  0  0  0  0  0  0  0  0  0  0  # atno 10718 bound_to 10713
  153.0957  135.6659  153.9768 H   0  0  0  0  0  0  0  0  0  0  0  0  # atno 10763 bound_to 10752
  153.9353  135.2999  155.3446 H   0  0  0  0  0  0  0  0  0  0  0  0  # atno 10764 bound_to 10752
  154.7375  135.5095  153.9141 H   0  0  0  0  0  0  0  0  0  0  0  0  # atno 10765 bound_to 10752
  139.9164  134.9631  156.7726 H   0  0  0  0  0  0  0  0  0  0  0  0  # atno 11005 bound_to 11000
  146.1194  140.7328  142.9465 LP  0  0  0  0  0  0  0  0  0  0  0  0  # atno 17320 bound_to 7965
  144.7118  140.4068  143.7074 LP  0  0  0  0  0  0  0  0  0  0  0  0  # atno 17321 bound_to 7965
  139.9939  144.6341  150.7789 LP  0  0  0  0  0  0  0  0  0  0  0  0  # atno 17342 bound_to 10162
  140.7494  143.2938  151.3260 LP  0  0  0  0  0  0  0  0  0  0  0  0  # atno 17343 bound_to 10162
  156.5797  130.8460  151.3379 LP  0  0  0  0  0  0  0  0  0  0  0  0  # atno 17370 bound_to 10713
  157.7311  130.9696  150.1866 LP  0  0  0  0  0  0  0  0  0  0  0  0  # atno 17371 bound_to 10713
  140.6608  133.9647  155.7804 LP  0  0  0  0  0  0  0  0  0  0  0  0  # atno 17394 bound_to 11000
  141.0644  134.0298  157.3613 LP  0  0  0  0  0  0  0  0  0  0  0  0  # atno 17395 bound_to 11000

$$$$
