AV-unprocessed.smi:2191|AV-procd|sdf|8893|dock8
  -GOLD-   2272012103D 1   1.00000     0.00000
 Structure written by MMmdl.
 36 38  0  0  0  0  0  0  0  0  1 V2000
  157.0321  140.6329  161.5216 O   0  0  0  0  0  0  0  0  0  0  0  0
  156.4663  139.8976  162.5892 C   0  0  1  0  0  0  0  0  0  0  0  0
  157.1293  140.3572  163.8970 C   0  0  0  0  0  0  0  0  0  0  0  0
  156.7227  141.6909  164.1736 O   0  0  0  0  0  0  0  0  0  0  0  0
  156.2297  141.9774  165.4287 C   0  0  0  0  0  0  0  0  0  0  0  0
  155.8350  143.3095  165.6711 C   0  0  0  0  0  0  0  0  0  0  0  0
  155.3217  143.6930  166.9251 C   0  0  0  0  0  0  0  0  0  0  0  0
  155.1971  142.7421  167.9545 C   0  0  0  0  0  0  0  0  0  0  0  0
  155.5854  141.4088  167.7265 C   0  0  0  0  0  0  0  0  0  0  0  0
  156.0998  141.0256  166.4722 C   0  0  0  0  0  0  0  0  0  0  0  0
  154.9423  140.1266  162.6073 C   0  0  0  0  0  0  0  0  0  0  0  0
  154.3916  140.3364  161.2797 N   0  0  0  0  0  0  0  0  0  0  0  0
  154.5497  139.5426  160.2031 C   0  0  0  0  0  0  0  0  0  0  0  0
  153.9538  139.9187  159.0752 N   0  0  0  0  0  0  0  0  0  0  0  0
  153.3352  141.0942  159.4651 C   0  0  0  0  0  0  0  0  0  0  0  0
  152.5306  141.9942  158.7300 C   0  0  0  0  0  0  0  0  0  0  0  0
  151.9970  143.1443  159.3483 C   0  0  0  0  0  0  0  0  0  0  0  0
  152.2609  143.4133  160.7072 C   0  0  0  0  0  0  0  0  0  0  0  0
  153.0614  142.5323  161.4594 C   0  0  0  0  0  0  0  0  0  0  0  0
  153.5893  141.3840  160.8398 C   0  0  0  0  0  0  0  0  0  0  0  0
  157.0030  140.0982  160.7427 H   0  0  0  0  0  0  0  0  0  0  0  0
  156.6624  138.8362  162.4312 H   0  0  0  0  0  0  0  0  0  0  0  0
  156.8784  139.6795  164.7152 H   0  0  0  0  0  0  0  0  0  0  0  0
  158.2138  140.3474  163.7757 H   0  0  0  0  0  0  0  0  0  0  0  0
  155.9274  144.0459  164.8862 H   0  0  0  0  0  0  0  0  0  0  0  0
  155.0238  144.7167  167.0964 H   0  0  0  0  0  0  0  0  0  0  0  0
  154.8041  143.0344  168.9171 H   0  0  0  0  0  0  0  0  0  0  0  0
  155.4893  140.6776  168.5155 H   0  0  0  0  0  0  0  0  0  0  0  0
  156.3877  139.9942  166.3365 H   0  0  0  0  0  0  0  0  0  0  0  0
  154.4377  139.2669  163.0505 H   0  0  0  0  0  0  0  0  0  0  0  0
  154.6937  140.9869  163.2299 H   0  0  0  0  0  0  0  0  0  0  0  0
  155.1366  138.6369  160.2508 H   0  0  0  0  0  0  0  0  0  0  0  0
  152.3224  141.7986  157.6885 H   0  0  0  0  0  0  0  0  0  0  0  0
  151.3822  143.8238  158.7765 H   0  0  0  0  0  0  0  0  0  0  0  0
  151.8492  144.2973  161.1720 H   0  0  0  0  0  0  0  0  0  0  0  0
  153.2681  142.7369  162.4993 H   0  0  0  0  0  0  0  0  0  0  0  0
  1  2  1  0  0  0  0
  1 21  1  0  0  0  0
  2  3  1  0  0  0  0
  2 11  1  0  0  0  0
  2 22  1  0  0  0  0
  3  4  1  0  0  0  0
  3 23  1  0  0  0  0
  3 24  1  0  0  0  0
  4  5  1  0  0  0  0
  5 10  1  0  0  0  0
  5  6  2  0  0  0  0
  6  7  1  0  0  0  0
  6 25  1  0  0  0  0
  7  8  2  0  0  0  0
  7 26  1  0  0  0  0
  8  9  1  0  0  0  0
  8 27  1  0  0  0  0
  9 10  2  0  0  0  0
  9 28  1  0  0  0  0
 10 29  1  0  0  0  0
 11 12  1  0  0  0  0
 11 30  1  0  0  0  0
 11 31  1  0  0  0  0
 12 20  1  0  0  0  0
 12 13  1  0  0  0  0
 13 14  2  0  0  0  0
 13 32  1  0  0  0  0
 14 15  1  0  0  0  0
 15 20  2  0  0  0  0
 15 16  1  0  0  0  0
 16 17  2  0  0  0  0
 16 33  1  0  0  0  0
 17 18  1  0  0  0  0
 17 34  1  0  0  0  0
 18 19  2  0  0  0  0
 18 35  1  0  0  0  0
 19 20  1  0  0  0  0
 19 36  1  0  0  0  0
M  END
> <s_m_source_file>
AV-unprocessed.smi

> <i_m_source_file_index>
2191

> <i_lp_mmshare_version>
43012

> <i_f3d_flags>
0

> <s_epik_input>
W2NIXTFbY0hdW2NIXVtjSF1jKGMxMiluKFtjSF1uMilbQ0gyXVtDQEhdKFtPSF0pW0NIMl1PYzNbY0hdW2NIXVtjSF1bY0hdW2NIXTM=

> <s_epik_cmdline>
J2VwaWtfcHl0aG9uJywgJy1waCcsICc3LjAnLCAnLXRuJywgJzgnLCAnLW1hJywgJzIwMCcsICctbWV0YWxfYmluZGluZycsICctaW1hZScsICc8aW5maWxlLm1hZT4nLCAnLW9tYWUnLCAnPG91dGZpbGUubWFlPic=

> <r_lp_tautomer_probability>
1

> <r_epik_Ionization_Penalty>
0.0640132

> <r_epik_Ionization_Penalty_Charging>
0

> <r_epik_Ionization_Penalty_Neutral>
0.0640132

> <r_epik_State_Penalty>
0.0557325

> <r_epik_Charging_Adjusted_Penalty>
0.0557325

> <i_epik_Tot_Q>
0

> <i_epik_Tot_abs_Q>
0

> <r_epik_Metal_State_Penalty>
5.8435e-05

> <b_epik_Metal_Only>
0

> <s_lp_Force_Field>
OPLS_2005

> <r_lp_Energy>
16.2786

> <b_lp_Chiralities_Consistent>
1

> <s_lp_Variant>
AV-unprocessed.smi:2191-2

> <Gold.Version>
5.8.1

> <Gold.Id.Protein>
6NUR|6NUR_protein|mol2

> <Gold.PLP.Fitness>
46.9854

> <Gold.PLP.PLP>
-45.9518

> <Gold.PLP.part.hbond>
-2.3072

> <Gold.PLP.part.metal>
0.0000

> <Gold.PLP.part.buried>
-3.3880

> <Gold.PLP.part.nonpolar>
-38.5649

> <Gold.PLP.part.repulsive>
0.0000

> <Gold.PLP.ligand.clash>
0.0000

> <Gold.PLP.ligand.torsion>
0.7778

> <Gold.PLP.Chemscore.Hbond>
0.8480

> <Gold.PLP.Chemscore.CHOScore>
0.0000

> <Gold.PLP.Chemscore.Metal>
0.0000

> <Gold.Chemscore.Hbonds>
donor molecule, donor type, donor heavy atom, donor atom, acceptor molecule, acceptor atom, score
      P1  H  7997  8009       L1    14  0.94

> <Gold.PLP.Chemscore.Internal.Correction>
0.0451

> <Gold.Rescore>
     Score         DG    S(hbond)    S(metal)    S(lipo)     H(rot)  DE(clash)    DE(int)     intcor
     12.50     -16.46       0.87        0.00     117.56       2.22       3.35       0.61       ----

> <Gold.Chemscore.Fitness>
12.4989

> <Gold.Chemscore.DG>
-16.4595

> <Gold.Chemscore.ZeroCoef>
-5.4800

> <Gold.Chemscore.Hbond>
0.8708

> <Gold.Chemscore.Metal>
0.0000

> <Gold.Chemscore.Lipo>
117.5594

> <Gold.Chemscore.Internal_Hbond>
0.0000

> <Gold.Chemscore.DEClash>
3.3465

> <Gold.Chemscore.DEInternal>
0.6140

> <Gold.Chemscore.Rot>
2.2200

> <Gold.Chemscore.Internal.Correction>
   9.000000E+99

> <Gold.Chemscore.Hbonds>
donor molecule, donor type, donor heavy atom, donor atom, acceptor molecule, acceptor atom, score
      P1  H  7997  8009       L1    14  0.78

> <Gold.Chemscore.Hbond.Weighted>
-2.9083

> <Gold.Chemscore.Metal.Weighted>
-0.0000

> <Gold.Chemscore.Lipo.Weighted>
-13.7544

> <Gold.Chemscore.Internal_Hbond.Weighted>
0.0000

> <Gold.Chemscore.DEClash.Weighted>
3.3465

> <Gold.Chemscore.DEInternal.Weighted>
0.6140

> <Gold.Chemscore.Rot.Weighted>
5.6832

> <Gold.Chemscore.Internal.Correction.Weighted>
   9.000000E+99

> <Gold.Protein.RotatedTorsions>
[ 6907 6896 6895 6894 ] final -161.83 input  -60.11 | X-H torsion
[ 7974 7965 7964 7962 ] final  -66.30 input  175.53 | X-H torsion
[ 8008 7997 7996 7995 ] final  126.32 input   59.86 | X-H torsion
[ 10167 10162 10161 10158 ] final  108.01 input  -65.29 | X-H torsion
[ 10718 10713 10712 10709 ] final  162.79 input   66.30 | X-H torsion
[ 10763 10752 10751 10750 ] final -107.05 input  -60.55 | X-H torsion
[ 11005 11000 10999 10996 ] final   49.22 input  -57.11 | X-H torsion

> <Gold.Protein.ActiveResidues>
 VAL166  LYS551  ARG553  GLY616  TRP617  ASP618  TYR619  PRO620  LYS621  CYS622 
 ASP623  PHE694  ASN695  SER759  ASP760  ASP761  ALA762  ILE779  LEU786  VAL792 
 PHE793  MET794  SER795  GLU796  ALA797  LYS798  CYS799  TRP800  GLU811  SER814 

> <Gold.Protein.RotatedAtoms>
  151.3707  133.3856  159.2699 H   0  0  0  0  0  0  0  0  0  0  0  0  # atno 6907 bound_to 6896
  150.9653  134.9036  159.7766 H   0  0  0  0  0  0  0  0  0  0  0  0  # atno 6908 bound_to 6896
  152.5165  134.3667  159.9356 H   0  0  0  0  0  0  0  0  0  0  0  0  # atno 6909 bound_to 6896
  145.7435  140.8942  143.0517 H   0  0  0  0  0  0  0  0  0  0  0  0  # atno 7974 bound_to 7965
  156.2860  140.2695  156.2093 H   0  0  0  0  0  0  0  0  0  0  0  0  # atno 8008 bound_to 7997
  155.0281  140.0386  157.2481 H   0  0  0  0  0  0  0  0  0  0  0  0  # atno 8009 bound_to 7997
  154.7378  140.2719  155.6405 H   0  0  0  0  0  0  0  0  0  0  0  0  # atno 8010 bound_to 7997
  139.6881  144.7111  151.1397 H   0  0  0  0  0  0  0  0  0  0  0  0  # atno 10167 bound_to 10162
  157.1176  131.0484  151.2429 H   0  0  0  0  0  0  0  0  0  0  0  0  # atno 10718 bound_to 10713
  154.8051  135.4689  154.0372 H   0  0  0  0  0  0  0  0  0  0  0  0  # atno 10763 bound_to 10752
  153.1847  135.6846  153.8438 H   0  0  0  0  0  0  0  0  0  0  0  0  # atno 10764 bound_to 10752
  153.7976  135.3234  155.3363 H   0  0  0  0  0  0  0  0  0  0  0  0  # atno 10765 bound_to 10752
  140.1122  134.4939  155.8668 H   0  0  0  0  0  0  0  0  0  0  0  0  # atno 11005 bound_to 11000
  144.6865  139.9493  143.7477 LP  0  0  0  0  0  0  0  0  0  0  0  0  # atno 17320 bound_to 7965
  146.0425  139.3435  143.0689 LP  0  0  0  0  0  0  0  0  0  0  0  0  # atno 17321 bound_to 7965
  140.7674  143.5600  150.9110 LP  0  0  0  0  0  0  0  0  0  0  0  0  # atno 17342 bound_to 10162
  139.9276  143.6532  152.3083 LP  0  0  0  0  0  0  0  0  0  0  0  0  # atno 17343 bound_to 10162
  157.4504  130.7595  149.7146 LP  0  0  0  0  0  0  0  0  0  0  0  0  # atno 17370 bound_to 10713
  155.9836  130.3999  150.3356 LP  0  0  0  0  0  0  0  0  0  0  0  0  # atno 17371 bound_to 10713
  141.2133  133.6731  156.6727 LP  0  0  0  0  0  0  0  0  0  0  0  0  # atno 17394 bound_to 11000
  140.3075  134.8113  157.4149 LP  0  0  0  0  0  0  0  0  0  0  0  0  # atno 17395 bound_to 11000

$$$$
