AV-unprocessed.smi:1115|AV-procd|sdf|4805|dock10
  -GOLD-   22720 3353D 1   1.00000     0.00000
 Structure written by MMmdl.
 51 52  0  0  0  0  0  0  0  0  2 V2000
  151.7576  144.0938  157.5861 C   0  0  0  0  0  0  0  0  0  0  0  0
  152.1933  144.4093  158.9408 N   0  0  0  0  0  0  0  0  0  0  0  0
  151.9464  145.7375  159.4930 C   0  0  0  0  0  0  0  0  0  0  0  0
  152.7893  143.4123  159.7467 C   0  0  0  0  0  0  0  0  0  0  0  0
  153.1149  143.6551  161.1044 C   0  0  0  0  0  0  0  0  0  0  0  0
  153.7071  142.6303  161.8673 C   0  0  0  0  0  0  0  0  0  0  0  0
  153.9561  141.3785  161.2596 C   0  0  0  0  0  0  0  0  0  0  0  0
  154.5676  140.2753  161.9143 N   0  0  0  0  0  0  0  0  0  0  0  0
  154.2693  138.9692  161.8083 C   0  0  0  0  0  0  0  0  0  0  0  0
  153.4146  138.4918  161.0625 O   0  0  0  0  0  0  0  0  0  0  0  0
  155.0496  138.2280  162.6081 N   0  0  0  0  0  0  0  0  0  0  0  0
  154.9907  136.7721  162.7423 C   0  0  0  0  0  0  0  0  0  0  0  0
  154.9971  136.2674  164.2182 C   0  0  0  0  0  0  0  0  0  0  0  0
  156.4693  136.2053  164.7056 C   0  0  0  0  0  0  0  0  0  0  0  0
  154.2403  137.2716  165.1215 C   0  0  0  0  0  0  0  0  0  0  0  0
  154.3595  134.8983  164.2645 N   0  3  0  0  0  0  0  0  0  0  0  0
  154.9326  133.8722  163.3452 C   0  0  0  0  0  0  0  0  0  0  0  0
  154.1085  132.5727  163.3846 C   0  0  0  0  0  0  0  0  0  0  0  0
  154.0295  132.0828  164.7145 O   0  0  0  0  0  0  0  0  0  0  0  0
  153.3845  133.0114  165.5724 C   0  0  0  0  0  0  0  0  0  0  0  0
  154.2066  134.3085  165.6265 C   0  0  0  0  0  0  0  0  0  0  0  0
  153.6112  141.2346  159.9016 C   0  0  0  0  0  0  0  0  0  0  0  0
  153.0418  142.2130  159.1678 N   0  0  0  0  0  0  0  0  0  0  0  0
  151.0148  143.2958  157.5988 H   0  0  0  0  0  0  0  0  0  0  0  0
  152.6030  143.7764  156.9754 H   0  0  0  0  0  0  0  0  0  0  0  0
  151.3060  144.9599  157.1022 H   0  0  0  0  0  0  0  0  0  0  0  0
  151.2776  145.6761  160.3520 H   0  0  0  0  0  0  0  0  0  0  0  0
  151.4848  146.3963  158.7572 H   0  0  0  0  0  0  0  0  0  0  0  0
  152.8809  146.1993  159.8129 H   0  0  0  0  0  0  0  0  0  0  0  0
  152.9275  144.6078  161.5760 H   0  0  0  0  0  0  0  0  0  0  0  0
  153.9703  142.8324  162.8938 H   0  0  0  0  0  0  0  0  0  0  0  0
  155.3557  140.5061  162.5015 H   0  0  0  0  0  0  0  0  0  0  0  0
  155.7305  138.7079  163.1789 H   0  0  0  0  0  0  0  0  0  0  0  0
  154.0732  136.4856  162.2328 H   0  0  0  0  0  0  0  0  0  0  0  0
  155.7991  136.2975  162.1832 H   0  0  0  0  0  0  0  0  0  0  0  0
  156.9792  137.1621  164.5990 H   0  0  0  0  0  0  0  0  0  0  0  0
  157.0452  135.4677  164.1452 H   0  0  0  0  0  0  0  0  0  0  0  0
  156.5453  135.9646  165.7658 H   0  0  0  0  0  0  0  0  0  0  0  0
  154.7577  138.2303  165.1688 H   0  0  0  0  0  0  0  0  0  0  0  0
  154.1536  136.9102  166.1462 H   0  0  0  0  0  0  0  0  0  0  0  0
  153.2347  137.4779  164.7548 H   0  0  0  0  0  0  0  0  0  0  0  0
  154.9285  134.2112  162.3109 H   0  0  0  0  0  0  0  0  0  0  0  0
  155.9680  133.6635  163.6163 H   0  0  0  0  0  0  0  0  0  0  0  0
  153.1060  132.7363  162.9852 H   0  0  0  0  0  0  0  0  0  0  0  0
  154.5775  131.8134  162.7586 H   0  0  0  0  0  0  0  0  0  0  0  0
  152.3664  133.2048  165.2304 H   0  0  0  0  0  0  0  0  0  0  0  0
  153.3080  132.5741  166.5683 H   0  0  0  0  0  0  0  0  0  0  0  0
  155.1855  134.0862  166.0526 H   0  0  0  0  0  0  0  0  0  0  0  0
  153.7086  134.9914  166.3104 H   0  0  0  0  0  0  0  0  0  0  0  0
  153.7922  140.3031  159.3854 H   0  0  0  0  0  0  0  0  0  0  0  0
  153.4186  135.0458  163.9273 H   0  0  0  0  0  0  0  0  0  0  0  0
  1  2  1  0  0  0  0
  1 24  1  0  0  0  0
  1 25  1  0  0  0  0
  1 26  1  0  0  0  0
  2  3  1  0  0  0  0
  2  4  1  0  0  0  0
  3 27  1  0  0  0  0
  3 28  1  0  0  0  0
  3 29  1  0  0  0  0
  4 23  1  0  0  0  0
  4  5  2  0  0  0  0
  5  6  1  0  0  0  0
  5 30  1  0  0  0  0
  6  7  2  0  0  0  0
  6 31  1  0  0  0  0
  7  8  1  0  0  0  0
  7 22  1  0  0  0  0
  8  9  1  0  0  0  0
  8 32  1  0  0  0  0
  9 10  2  0  0  0  0
  9 11  1  0  0  0  0
 11 12  1  0  0  0  0
 11 33  1  0  0  0  0
 12 13  1  0  0  0  0
 12 34  1  0  0  0  0
 12 35  1  0  0  0  0
 13 14  1  0  0  0  0
 13 15  1  0  0  0  0
 13 16  1  0  0  0  0
 14 36  1  0  0  0  0
 14 37  1  0  0  0  0
 14 38  1  0  0  0  0
 15 39  1  0  0  0  0
 15 40  1  0  0  0  0
 15 41  1  0  0  0  0
 16 21  1  0  0  0  0
 16 17  1  0  0  0  0
 16 51  1  0  0  0  0
 17 18  1  0  0  0  0
 17 42  1  0  0  0  0
 17 43  1  0  0  0  0
 18 19  1  0  0  0  0
 18 44  1  0  0  0  0
 18 45  1  0  0  0  0
 19 20  1  0  0  0  0
 20 21  1  0  0  0  0
 20 46  1  0  0  0  0
 20 47  1  0  0  0  0
 21 48  1  0  0  0  0
 21 49  1  0  0  0  0
 22 23  2  0  0  0  0
 22 50  1  0  0  0  0
M  CHG  1  16   1
M  END
> <s_m_source_file>
AV-unprocessed.smi

> <i_m_source_file_index>
1115

> <i_lp_mmshare_version>
43012

> <i_f3d_flags>
0

> <s_epik_input>
W0NIM11OKFtDSDNdKWMxW2NIXVtjSF1jKFtjSF1uMSlbTkhdQyg9TylbTkhdW0NIMl1DKFtDSDNdKShbQ0gzXSlOMltDSDJdW0NIMl1PW0NIMl1bQ0gyXTI=

> <s_epik_cmdline>
J2VwaWtfcHl0aG9uJywgJy1waCcsICc3LjAnLCAnLXRuJywgJzgnLCAnLW1hJywgJzIwMCcsICctbWV0YWxfYmluZGluZycsICctaW1hZScsICc8aW5maWxlLm1hZT4nLCAnLW9tYWUnLCAnPG91dGZpbGUubWFlPic=

> <r_epik_Ionization_Penalty>
1.14783

> <r_epik_Ionization_Penalty_Charging>
0.602531

> <r_epik_Ionization_Penalty_Neutral>
0.545303

> <r_epik_State_Penalty>
1.19446

> <r_epik_Charging_Adjusted_Penalty>
1.79699

> <i_epik_Tot_Q>
1

> <i_epik_Tot_abs_Q>
1

> <r_epik_Metal_State_Penalty>
0.937982

> <b_epik_Metal_Only>
0

> <s_lp_Force_Field>
OPLS_2005

> <r_lp_Energy>
30.1641

> <b_lp_Chiralities_Consistent>
1

> <s_lp_Variant>
AV-unprocessed.smi:1115-4

> <Gold.Version>
5.8.1

> <Gold.Id.Protein>
6NUR|6NUR_protein|mol2

> <Gold.PLP.Fitness>
51.0173

> <Gold.PLP.PLP>
-52.5845

> <Gold.PLP.part.hbond>
0.0000

> <Gold.PLP.part.metal>
0.0000

> <Gold.PLP.part.buried>
-6.4132

> <Gold.PLP.part.nonpolar>
-46.1811

> <Gold.PLP.part.repulsive>
0.0197

> <Gold.PLP.ligand.clash>
0.0000

> <Gold.PLP.ligand.torsion>
0.8323

> <Gold.PLP.Chemscore.Hbond>
0.0000

> <Gold.PLP.Chemscore.CHOScore>
0.0000

> <Gold.PLP.Chemscore.Metal>
0.0000

> <Gold.PLP.Chemscore.Internal.Correction>
0.0975

> <Gold.Rescore>
     Score         DG    S(hbond)    S(metal)    S(lipo)     H(rot)  DE(clash)    DE(int)     intcor
     13.46     -15.45       0.00        0.00     117.26       1.46       0.02       1.97       ----

> <Gold.Chemscore.Fitness>
13.4622

> <Gold.Chemscore.DG>
-15.4492

> <Gold.Chemscore.ZeroCoef>
-5.4800

> <Gold.Chemscore.Hbond>
0.0000

> <Gold.Chemscore.Metal>
0.0000

> <Gold.Chemscore.Lipo>
117.2575

> <Gold.Chemscore.Internal_Hbond>
0.0000

> <Gold.Chemscore.DEClash>
0.0155

> <Gold.Chemscore.DEInternal>
1.9715

> <Gold.Chemscore.Rot>
1.4648

> <Gold.Chemscore.Internal.Correction>
   9.000000E+99

> <Gold.Chemscore.Hbond.Weighted>
-0.0000

> <Gold.Chemscore.Metal.Weighted>
-0.0000

> <Gold.Chemscore.Lipo.Weighted>
-13.7191

> <Gold.Chemscore.Internal_Hbond.Weighted>
0.0000

> <Gold.Chemscore.DEClash.Weighted>
0.0155

> <Gold.Chemscore.DEInternal.Weighted>
1.9715

> <Gold.Chemscore.Rot.Weighted>
3.7499

> <Gold.Chemscore.Internal.Correction.Weighted>
   9.000000E+99

> <Gold.Protein.RotatedTorsions>
[ 6907 6896 6895 6894 ] final  127.89 input  -60.11 | X-H torsion
[ 7974 7965 7964 7962 ] final -106.47 input  175.53 | X-H torsion
[ 8008 7997 7996 7995 ] final  -17.59 input   59.86 | X-H torsion
[ 10167 10162 10161 10158 ] final -117.60 input  -65.29 | X-H torsion
[ 10718 10713 10712 10709 ] final   20.25 input   66.30 | X-H torsion
[ 10763 10752 10751 10750 ] final  -23.43 input  -60.55 | X-H torsion
[ 11005 11000 10999 10996 ] final -146.13 input  -57.11 | X-H torsion

> <Gold.Protein.ActiveResidues>
 VAL166  LYS551  ARG553  GLY616  TRP617  ASP618  TYR619  PRO620  LYS621  CYS622 
 ASP623  PHE694  ASN695  SER759  ASP760  ASP761  ALA762  ILE779  LEU786  VAL792 
 PHE793  MET794  SER795  GLU796  ALA797  LYS798  CYS799  TRP800  GLU811  SER814 

> <Gold.Protein.RotatedAtoms>
  152.3771  133.6496  159.6131 H   0  0  0  0  0  0  0  0  0  0  0  0  # atno 6907 bound_to 6896
  150.7712  133.9175  159.3397 H   0  0  0  0  0  0  0  0  0  0  0  0  # atno 6908 bound_to 6896
  151.6988  135.0935  160.0298 H   0  0  0  0  0  0  0  0  0  0  0  0  # atno 6909 bound_to 6896
  145.2174  140.9121  143.3279 H   0  0  0  0  0  0  0  0  0  0  0  0  # atno 7974 bound_to 7965
  154.4967  140.2139  155.9431 H   0  0  0  0  0  0  0  0  0  0  0  0  # atno 8008 bound_to 7997
  156.1380  140.3185  155.8419 H   0  0  0  0  0  0  0  0  0  0  0  0  # atno 8009 bound_to 7997
  155.4173  140.0494  157.3018 H   0  0  0  0  0  0  0  0  0  0  0  0  # atno 8010 bound_to 7997
  140.0665  143.4917  152.2003 H   0  0  0  0  0  0  0  0  0  0  0  0  # atno 10167 bound_to 10162
  157.1218  130.6553  149.5926 H   0  0  0  0  0  0  0  0  0  0  0  0  # atno 10718 bound_to 10713
  153.6678  135.6973  153.5157 H   0  0  0  0  0  0  0  0  0  0  0  0  # atno 10763 bound_to 10752
  153.2581  135.4253  155.0866 H   0  0  0  0  0  0  0  0  0  0  0  0  # atno 10764 bound_to 10752
  154.8435  135.3548  154.6222 H   0  0  0  0  0  0  0  0  0  0  0  0  # atno 10765 bound_to 10752
  140.7851  134.3033  157.5032 H   0  0  0  0  0  0  0  0  0  0  0  0  # atno 11005 bound_to 11000
  144.9798  139.3795  143.6268 LP  0  0  0  0  0  0  0  0  0  0  0  0  # atno 17320 bound_to 7965
  146.3384  139.8933  142.8805 LP  0  0  0  0  0  0  0  0  0  0  0  0  # atno 17321 bound_to 7965
  139.5862  144.7531  151.3515 LP  0  0  0  0  0  0  0  0  0  0  0  0  # atno 17342 bound_to 10162
  140.7146  143.7300  150.7631 LP  0  0  0  0  0  0  0  0  0  0  0  0  # atno 17343 bound_to 10162
  155.9827  130.4842  150.6894 LP  0  0  0  0  0  0  0  0  0  0  0  0  # atno 17370 bound_to 10713
  157.4470  131.0868  151.0885 LP  0  0  0  0  0  0  0  0  0  0  0  0  # atno 17371 bound_to 10713
  139.8738  134.9341  156.3599 LP  0  0  0  0  0  0  0  0  0  0  0  0  # atno 17394 bound_to 11000
  140.9444  133.7493  156.0189 LP  0  0  0  0  0  0  0  0  0  0  0  0  # atno 17395 bound_to 11000

$$$$
