AV-unprocessed.smi:2339|AV-procd|sdf|9340|dock8
  -GOLD-   2272012563D 1   1.00000     0.00000
 Structure written by MMmdl.
 49 52  0  0  0  0  0  0  0  0  1 V2000
  147.2608  131.2095  161.1810 C   0  0  0  0  0  0  0  0  0  0  0  0
  147.6733  132.2337  160.1181 C   0  0  0  0  0  0  0  0  0  0  0  0
  147.6609  133.5916  160.6431 N   0  0  0  0  0  0  0  0  0  0  0  0
  147.1531  133.8725  161.9071 C   0  0  0  0  0  0  0  0  0  0  0  0
  147.0539  135.1133  162.4216 C   0  0  0  0  0  0  0  0  0  0  0  0
  147.4993  136.2682  161.6164 C   0  0  0  0  0  0  0  0  0  0  0  0
  147.4218  137.4152  162.0562 O   0  0  0  0  0  0  0  0  0  0  0  0
  148.0386  135.9689  160.2635 C   0  0  0  0  0  0  0  0  0  0  0  0
  148.4685  137.0739  159.5109 N   0  0  0  0  0  0  0  0  0  0  0  0
  149.7155  137.4381  159.1487 C   0  0  0  0  0  0  0  0  0  0  0  0
  150.7421  136.8097  159.3952 O   0  0  0  0  0  0  0  0  0  0  0  0
  149.7645  138.5970  158.4698 N   0  0  0  0  0  0  0  0  0  0  0  0
  150.9472  139.2721  157.9348 C   0  0  2  0  0  0  0  0  0  0  0  0
  151.5577  140.2424  158.9470 C   0  0  1  0  0  0  0  0  0  0  0  0
  152.8241  140.2732  159.7257 C   0  0  0  0  0  0  0  0  0  0  0  0
  153.2135  141.7483  159.4428 C   0  0  0  0  0  0  0  0  0  0  0  0
  152.3114  142.2051  158.4058 O   0  0  0  0  0  0  0  0  0  0  0  0
  151.9630  141.0230  157.7141 C   0  0  2  0  0  0  0  0  0  0  0  0
  150.6334  140.5640  157.0849 C   0  0  0  0  0  0  0  0  0  0  0  0
  149.3627  141.3853  157.3542 C   0  0  0  0  0  0  0  0  0  0  0  0
  148.3457  140.9945  156.2835 C   0  0  0  0  0  0  0  0  0  0  0  0
  149.1746  140.5855  155.0662 C   0  0  0  0  0  0  0  0  0  0  0  0
  150.6162  140.4182  155.5628 C   0  0  0  0  0  0  0  0  0  0  0  0
  148.0844  134.6704  159.8697 C   0  0  0  0  0  0  0  0  0  0  0  0
  147.2735  130.1997  160.7709 H   0  0  0  0  0  0  0  0  0  0  0  0
  146.2536  131.4073  161.5489 H   0  0  0  0  0  0  0  0  0  0  0  0
  147.9405  131.2312  162.0334 H   0  0  0  0  0  0  0  0  0  0  0  0
  148.6699  131.9979  159.7430 H   0  0  0  0  0  0  0  0  0  0  0  0
  147.0015  132.1689  159.2613 H   0  0  0  0  0  0  0  0  0  0  0  0
  146.8413  133.0017  162.4656 H   0  0  0  0  0  0  0  0  0  0  0  0
  146.6558  135.2833  163.4112 H   0  0  0  0  0  0  0  0  0  0  0  0
  147.7255  137.6908  159.2159 H   0  0  0  0  0  0  0  0  0  0  0  0
  148.8825  139.0601  158.3044 H   0  0  0  0  0  0  0  0  0  0  0  0
  151.6871  138.6014  157.4880 H   0  0  0  0  0  0  0  0  0  0  0  0
  150.7694  140.7429  159.5172 H   0  0  0  0  0  0  0  0  0  0  0  0
  152.6745  140.0752  160.7872 H   0  0  0  0  0  0  0  0  0  0  0  0
  153.5621  139.5729  159.3321 H   0  0  0  0  0  0  0  0  0  0  0  0
  153.1007  142.3766  160.3268 H   0  0  0  0  0  0  0  0  0  0  0  0
  154.2487  141.8189  159.1063 H   0  0  0  0  0  0  0  0  0  0  0  0
  152.8315  140.6086  157.1893 H   0  0  0  0  0  0  0  0  0  0  0  0
  148.9455  141.2366  158.3499 H   0  0  0  0  0  0  0  0  0  0  0  0
  149.5882  142.4489  157.2659 H   0  0  0  0  0  0  0  0  0  0  0  0
  147.7592  140.1424  156.6280 H   0  0  0  0  0  0  0  0  0  0  0  0
  147.6477  141.8021  156.0608 H   0  0  0  0  0  0  0  0  0  0  0  0
  148.7926  139.6621  154.6293 H   0  0  0  0  0  0  0  0  0  0  0  0
  149.1307  141.3532  154.2930 H   0  0  0  0  0  0  0  0  0  0  0  0
  151.2423  141.1864  155.1075 H   0  0  0  0  0  0  0  0  0  0  0  0
  151.0292  139.4615  155.2449 H   0  0  0  0  0  0  0  0  0  0  0  0
  148.4697  134.3581  158.9126 H   0  0  0  0  0  0  0  0  0  0  0  0
  1  2  1  0  0  0  0
  1 25  1  0  0  0  0
  1 26  1  0  0  0  0
  1 27  1  0  0  0  0
  2  3  1  0  0  0  0
  2 28  1  0  0  0  0
  2 29  1  0  0  0  0
  3 24  1  0  0  0  0
  3  4  1  0  0  0  0
  4  5  2  0  0  0  0
  4 30  1  0  0  0  0
  5  6  1  0  0  0  0
  5 31  1  0  0  0  0
  6  7  2  0  0  0  0
  6  8  1  0  0  0  0
  8  9  1  0  0  0  0
  8 24  2  0  0  0  0
  9 10  1  0  0  0  0
  9 32  1  0  0  0  0
 10 11  2  0  0  0  0
 10 12  1  0  0  0  0
 12 13  1  0  0  0  0
 12 33  1  0  0  0  0
 13 19  1  0  0  0  0
 13 14  1  0  0  0  0
 13 34  1  0  0  0  0
 14 18  1  0  0  0  0
 14 15  1  0  0  0  0
 14 35  1  0  0  0  0
 15 16  1  0  0  0  0
 15 36  1  0  0  0  0
 15 37  1  0  0  0  0
 16 17  1  0  0  0  0
 16 38  1  0  0  0  0
 16 39  1  0  0  0  0
 17 18  1  0  0  0  0
 18 19  1  0  0  0  0
 18 40  1  0  0  0  0
 19 23  1  0  0  0  0
 19 20  1  0  0  0  0
 20 21  1  0  0  0  0
 20 41  1  0  0  0  0
 20 42  1  0  0  0  0
 21 22  1  0  0  0  0
 21 43  1  0  0  0  0
 21 44  1  0  0  0  0
 22 23  1  0  0  0  0
 22 45  1  0  0  0  0
 22 46  1  0  0  0  0
 23 47  1  0  0  0  0
 23 48  1  0  0  0  0
 24 49  1  0  0  0  0
M  END
> <s_m_source_file>
AV-unprocessed.smi

> <i_m_source_file_index>
2339

> <i_lp_mmshare_version>
43012

> <i_f3d_flags>
0

> <s_epik_input>
W0NIM11bQ0gyXW4xW2NIXVtjSF1jKD1PKWMoW2NIXTEpW05IXUMoPU8pW05IXVtDQEBIXTJbQ0BASF0oW0NIMl1bQ0gyXU8zKVtDQEBIXTNDMjRbQ0gyXVtDSDJdW0NIMl1bQ0gyXTQ=

> <s_epik_cmdline>
J2VwaWtfcHl0aG9uJywgJy1waCcsICc3LjAnLCAnLXRuJywgJzgnLCAnLW1hJywgJzIwMCcsICctbWV0YWxfYmluZGluZycsICctaW1hZScsICc8aW5maWxlLm1hZT4nLCAnLW9tYWUnLCAnPG91dGZpbGUubWFlPic=

> <r_lp_tautomer_probability>
1

> <r_epik_Ionization_Penalty>
0.00145966

> <r_epik_Ionization_Penalty_Charging>
0.00143969

> <r_epik_Ionization_Penalty_Neutral>
1.99697e-05

> <r_epik_State_Penalty>
0.000961843

> <r_epik_Charging_Adjusted_Penalty>
0.00240153

> <i_epik_Tot_Q>
0

> <i_epik_Tot_abs_Q>
0

> <r_epik_Metal_State_Penalty>
-0

> <b_epik_Metal_Only>
0

> <s_lp_Force_Field>
OPLS_2005

> <r_lp_Energy>
78.6194

> <b_lp_Chiralities_Consistent>
1

> <s_lp_Variant>
AV-unprocessed.smi:2339-5

> <Gold.Version>
5.8.1

> <Gold.Id.Protein>
6NUR|6NUR_protein|mol2

> <Gold.PLP.Fitness>
47.3966

> <Gold.PLP.PLP>
-41.7102

> <Gold.PLP.part.hbond>
-3.0000

> <Gold.PLP.part.metal>
0.0000

> <Gold.PLP.part.buried>
-3.7300

> <Gold.PLP.part.nonpolar>
-34.5222

> <Gold.PLP.part.repulsive>
0.3993

> <Gold.PLP.ligand.clash>
0.0000

> <Gold.PLP.ligand.torsion>
0.8900

> <Gold.PLP.Chemscore.Hbond>
2.3920

> <Gold.PLP.Chemscore.CHOScore>
0.0000

> <Gold.PLP.Chemscore.Metal>
0.0000

> <Gold.Chemscore.Hbonds>
donor molecule, donor type, donor heavy atom, donor atom, acceptor molecule, acceptor atom, score
      P1  H  6896  6907       L1    11  1.00
      P1  H  6931  6943       L1     7  0.78
      P1  H  6934  6947       L1     7  0.62

> <Gold.PLP.Chemscore.Internal.Correction>
0.2905

> <Gold.Rescore>
     Score         DG    S(hbond)    S(metal)    S(lipo)     H(rot)  DE(clash)    DE(int)     intcor
     20.76     -21.65       2.47        0.00      93.22       1.17       0.00       0.89       ----

> <Gold.Chemscore.Fitness>
20.7619

> <Gold.Chemscore.DG>
-21.6492

> <Gold.Chemscore.ZeroCoef>
-5.4800

> <Gold.Chemscore.Hbond>
2.4699

> <Gold.Chemscore.Metal>
0.0000

> <Gold.Chemscore.Lipo>
93.2222

> <Gold.Chemscore.Internal_Hbond>
0.0000

> <Gold.Chemscore.DEClash>
0.0004

> <Gold.Chemscore.DEInternal>
0.8869

> <Gold.Chemscore.Rot>
1.1670

> <Gold.Chemscore.Internal.Correction>
   9.000000E+99

> <Gold.Chemscore.Hbonds>
donor molecule, donor type, donor heavy atom, donor atom, acceptor molecule, acceptor atom, score
      P1  H  6896  6907       L1    11  0.99
      P1  H  6931  6943       L1     7  0.61
      P1  H  6934  6947       L1     7  0.61

> <Gold.Chemscore.Hbond.Weighted>
-8.2496

> <Gold.Chemscore.Metal.Weighted>
-0.0000

> <Gold.Chemscore.Lipo.Weighted>
-10.9070

> <Gold.Chemscore.Internal_Hbond.Weighted>
0.0000

> <Gold.Chemscore.DEClash.Weighted>
0.0004

> <Gold.Chemscore.DEInternal.Weighted>
0.8869

> <Gold.Chemscore.Rot.Weighted>
2.9874

> <Gold.Chemscore.Internal.Correction.Weighted>
   9.000000E+99

> <Gold.Protein.RotatedTorsions>
[ 6907 6896 6895 6894 ] final  -36.66 input  -60.11 | X-H torsion
[ 7974 7965 7964 7962 ] final    1.00 input  175.53 | X-H torsion
[ 8008 7997 7996 7995 ] final -172.50 input   59.86 | X-H torsion
[ 10167 10162 10161 10158 ] final -167.52 input  -65.29 | X-H torsion
[ 10718 10713 10712 10709 ] final  107.57 input   66.30 | X-H torsion
[ 10763 10752 10751 10750 ] final   38.83 input  -60.55 | X-H torsion
[ 11005 11000 10999 10996 ] final   27.69 input  -57.11 | X-H torsion

> <Gold.Protein.ActiveResidues>
 VAL166  LYS551  ARG553  GLY616  TRP617  ASP618  TYR619  PRO620  LYS621  CYS622 
 ASP623  PHE694  ASN695  SER759  ASP760  ASP761  ALA762  ILE779  LEU786  VAL792 
 PHE793  MET794  SER795  GLU796  ALA797  LYS798  CYS799  TRP800  GLU811  SER814 

> <Gold.Protein.RotatedAtoms>
  151.0244  134.9493  159.8076 H   0  0  0  0  0  0  0  0  0  0  0  0  # atno 6907 bound_to 6896
  152.5332  134.2861  159.9035 H   0  0  0  0  0  0  0  0  0  0  0  0  # atno 6908 bound_to 6896
  151.2869  133.4141  159.2664 H   0  0  0  0  0  0  0  0  0  0  0  0  # atno 6909 bound_to 6896
  146.2438  140.1053  142.8346 H   0  0  0  0  0  0  0  0  0  0  0  0  # atno 7974 bound_to 7965
  155.9454  140.1116  157.1021 H   0  0  0  0  0  0  0  0  0  0  0  0  # atno 8008 bound_to 7997
  154.4098  140.1211  156.5048 H   0  0  0  0  0  0  0  0  0  0  0  0  # atno 8009 bound_to 7997
  155.6910  140.3472  155.4896 H   0  0  0  0  0  0  0  0  0  0  0  0  # atno 8010 bound_to 7997
  139.6044  144.0943  152.1777 H   0  0  0  0  0  0  0  0  0  0  0  0  # atno 10167 bound_to 10162
  157.6623  131.0875  150.6176 H   0  0  0  0  0  0  0  0  0  0  0  0  # atno 10718 bound_to 10713
  152.9987  135.6238  154.2367 H   0  0  0  0  0  0  0  0  0  0  0  0  # atno 10763 bound_to 10752
  154.2109  135.2800  155.2960 H   0  0  0  0  0  0  0  0  0  0  0  0  # atno 10764 bound_to 10752
  154.5608  135.5706  153.7064 H   0  0  0  0  0  0  0  0  0  0  0  0  # atno 10765 bound_to 10752
  140.3236  134.2516  155.7713 H   0  0  0  0  0  0  0  0  0  0  0  0  # atno 11005 bound_to 11000
  145.0533  140.9034  143.4982 LP  0  0  0  0  0  0  0  0  0  0  0  0  # atno 17320 bound_to 7965
  145.1155  139.2728  143.5615 LP  0  0  0  0  0  0  0  0  0  0  0  0  # atno 17321 bound_to 7965
  140.0547  144.5905  150.7309 LP  0  0  0  0  0  0  0  0  0  0  0  0  # atno 17342 bound_to 10162
  140.7274  143.2651  151.4073 LP  0  0  0  0  0  0  0  0  0  0  0  0  # atno 17343 bound_to 10162
  156.6478  130.4476  149.5730 LP  0  0  0  0  0  0  0  0  0  0  0  0  # atno 17370 bound_to 10713
  156.2160  130.6708  151.1319 LP  0  0  0  0  0  0  0  0  0  0  0  0  # atno 17371 bound_to 10713
  141.2081  133.7788  157.0081 LP  0  0  0  0  0  0  0  0  0  0  0  0  # atno 17394 bound_to 11000
  140.0921  134.9586  157.1792 LP  0  0  0  0  0  0  0  0  0  0  0  0  # atno 17395 bound_to 11000

$$$$
