AV-unprocessed.smi:2356|AV-procd|sdf|9396|dock7
  -GOLD-   2272013 33D 1   1.00000     0.00000
 Structure written by MMmdl.
 53 56  0  0  0  0  0  0  0  0  1 V2000
  148.9862  140.4794  154.5811 C   0  0  0  0  0  0  0  0  0  0  0  0
  149.8952  140.2382  155.7741 C   0  0  0  0  0  0  0  0  0  0  0  0
  150.2233  141.3400  156.4831 N   0  0  0  0  0  0  0  0  0  0  0  0
  151.0251  141.2146  157.5661 C   0  0  0  0  0  0  0  0  0  0  0  0
  151.3394  142.3887  158.2784 N   0  0  0  0  0  0  0  0  0  0  0  0
  151.2696  143.7024  157.6574 C   0  0  0  0  0  0  0  0  0  0  0  0
  151.8187  144.6589  158.7143 C   0  0  0  0  0  0  0  0  0  0  0  0
  152.8571  143.8077  159.4450 C   0  0  0  0  0  0  0  0  0  0  0  0
  152.2869  142.3858  159.3847 C   0  0  0  0  0  0  0  0  0  0  0  0
  151.5163  139.9561  157.9827 C   0  0  0  0  0  0  0  0  0  0  0  0
  151.1754  138.8071  157.2448 C   0  0  0  0  0  0  0  0  0  0  0  0
  150.3514  138.9397  156.1021 C   0  0  0  0  0  0  0  0  0  0  0  0
  149.9334  137.8506  155.2868 N   0  0  0  0  0  0  0  0  0  0  0  0
  149.7626  136.5502  155.5951 C   0  0  0  0  0  0  0  0  0  0  0  0
  149.9599  136.0544  156.7017 O   0  0  0  0  0  0  0  0  0  0  0  0
  149.3456  135.7968  154.5607 N   0  0  0  0  0  0  0  0  0  0  0  0
  149.0630  134.3592  154.5438 C   0  0  1  0  0  0  0  0  0  0  0  0
  147.5724  134.1252  154.2642 C   0  0  0  0  0  0  0  0  0  0  0  0
  147.2736  132.6229  154.1407 C   0  0  0  0  0  0  0  0  0  0  0  0
  148.0857  132.0345  153.1268 O   0  0  0  0  0  0  0  0  0  0  0  0
  149.4953  132.1588  153.3238 C   0  0  2  0  0  0  0  0  0  0  0  0
  149.9874  131.2924  154.4758 C   0  0  0  0  0  0  0  0  0  0  0  0
  151.3728  130.6898  154.4530 C   0  0  0  0  0  0  0  0  0  0  0  0
  150.1607  129.8031  154.2942 C   0  0  0  0  0  0  0  0  0  0  0  0
  149.8922  133.6414  153.4625 C   0  0  0  0  0  0  0  0  0  0  0  0
  148.0545  139.9257  154.6995 H   0  0  0  0  0  0  0  0  0  0  0  0
  149.4687  140.1488  153.6612 H   0  0  0  0  0  0  0  0  0  0  0  0
  148.7382  141.5359  154.4711 H   0  0  0  0  0  0  0  0  0  0  0  0
  151.8949  143.7162  156.7636 H   0  0  0  0  0  0  0  0  0  0  0  0
  150.2495  143.9600  157.3707 H   0  0  0  0  0  0  0  0  0  0  0  0
  152.2365  145.5704  158.2861 H   0  0  0  0  0  0  0  0  0  0  0  0
  151.0230  144.9431  159.4045 H   0  0  0  0  0  0  0  0  0  0  0  0
  153.8027  143.8443  158.9025 H   0  0  0  0  0  0  0  0  0  0  0  0
  153.0435  144.1455  160.4648 H   0  0  0  0  0  0  0  0  0  0  0  0
  151.7536  142.1437  160.3045 H   0  0  0  0  0  0  0  0  0  0  0  0
  153.0832  141.6535  159.2457 H   0  0  0  0  0  0  0  0  0  0  0  0
  152.1385  139.8538  158.8593 H   0  0  0  0  0  0  0  0  0  0  0  0
  151.5458  137.8535  157.5844 H   0  0  0  0  0  0  0  0  0  0  0  0
  149.7687  138.0866  154.3193 H   0  0  0  0  0  0  0  0  0  0  0  0
  149.1853  136.2831  153.6903 H   0  0  0  0  0  0  0  0  0  0  0  0
  149.2897  133.9370  155.5241 H   0  0  0  0  0  0  0  0  0  0  0  0
  146.9642  134.5612  155.0577 H   0  0  0  0  0  0  0  0  0  0  0  0
  147.2840  134.6257  153.3386 H   0  0  0  0  0  0  0  0  0  0  0  0
  147.4219  132.1164  155.0946 H   0  0  0  0  0  0  0  0  0  0  0  0
  146.2275  132.4744  153.8729 H   0  0  0  0  0  0  0  0  0  0  0  0
  149.9612  131.7773  152.4145 H   0  0  0  0  0  0  0  0  0  0  0  0
  149.6368  131.6051  155.4567 H   0  0  0  0  0  0  0  0  0  0  0  0
  151.9878  130.8655  153.5727 H   0  0  0  0  0  0  0  0  0  0  0  0
  151.9134  130.6364  155.3958 H   0  0  0  0  0  0  0  0  0  0  0  0
  149.8918  129.1618  155.1311 H   0  0  0  0  0  0  0  0  0  0  0  0
  149.9688  129.3869  153.3071 H   0  0  0  0  0  0  0  0  0  0  0  0
  149.7326  134.1365  152.5035 H   0  0  0  0  0  0  0  0  0  0  0  0
  150.9597  133.7208  153.6709 H   0  0  0  0  0  0  0  0  0  0  0  0
  1  2  1  0  0  0  0
  1 26  1  0  0  0  0
  1 27  1  0  0  0  0
  1 28  1  0  0  0  0
  2 12  1  0  0  0  0
  2  3  2  0  0  0  0
  3  4  1  0  0  0  0
  4  5  1  0  0  0  0
  4 10  2  0  0  0  0
  5  9  1  0  0  0  0
  5  6  1  0  0  0  0
  6  7  1  0  0  0  0
  6 29  1  0  0  0  0
  6 30  1  0  0  0  0
  7  8  1  0  0  0  0
  7 31  1  0  0  0  0
  7 32  1  0  0  0  0
  8  9  1  0  0  0  0
  8 33  1  0  0  0  0
  8 34  1  0  0  0  0
  9 35  1  0  0  0  0
  9 36  1  0  0  0  0
 10 11  1  0  0  0  0
 10 37  1  0  0  0  0
 11 12  2  0  0  0  0
 11 38  1  0  0  0  0
 12 13  1  0  0  0  0
 13 14  1  0  0  0  0
 13 39  1  0  0  0  0
 14 15  2  0  0  0  0
 14 16  1  0  0  0  0
 16 17  1  0  0  0  0
 16 40  1  0  0  0  0
 17 25  1  0  0  0  0
 17 18  1  0  0  0  0
 17 41  1  0  0  0  0
 18 19  1  0  0  0  0
 18 42  1  0  0  0  0
 18 43  1  0  0  0  0
 19 20  1  0  0  0  0
 19 44  1  0  0  0  0
 19 45  1  0  0  0  0
 20 21  1  0  0  0  0
 21 22  1  0  0  0  0
 21 25  1  0  0  0  0
 21 46  1  0  0  0  0
 22 24  1  0  0  0  0
 22 23  1  0  0  0  0
 22 47  1  0  0  0  0
 23 24  1  0  0  0  0
 23 48  1  0  0  0  0
 23 49  1  0  0  0  0
 24 50  1  0  0  0  0
 24 51  1  0  0  0  0
 25 52  1  0  0  0  0
 25 53  1  0  0  0  0
M  END
> <s_m_source_file>
AV-unprocessed.smi

> <i_m_source_file_index>
2356

> <i_lp_mmshare_version>
43012

> <i_f3d_flags>
0

> <s_epik_input>
W0NIMl0xW0NIMl1bQ0gyXVtDSDJdTjFjKG5jMltDSDNdKVtjSF1bY0hdYzJbTkhdQyg9TylbTkhdW0NAQEhdM1tDSDJdW0NIMl1PW0NASF0oW0NIMl0zKVtDSF00W0NIMl1bQ0gyXTQ=

> <s_epik_cmdline>
J2VwaWtfcHl0aG9uJywgJy1waCcsICc3LjAnLCAnLXRuJywgJzgnLCAnLW1hJywgJzIwMCcsICctbWV0YWxfYmluZGluZycsICctaW1hZScsICc8aW5maWxlLm1hZT4nLCAnLW9tYWUnLCAnPG91dGZpbGUubWFlPic=

> <r_lp_tautomer_probability>
1

> <r_epik_Ionization_Penalty>
0.308781

> <r_epik_Ionization_Penalty_Charging>
0

> <r_epik_Ionization_Penalty_Neutral>
0.308781

> <r_epik_State_Penalty>
0.302092

> <r_epik_Charging_Adjusted_Penalty>
0.302092

> <i_epik_Tot_Q>
0

> <i_epik_Tot_abs_Q>
0

> <r_epik_Metal_State_Penalty>
0.197467

> <b_epik_Metal_Only>
0

> <s_lp_Force_Field>
OPLS_2005

> <r_lp_Energy>
54.1465

> <b_lp_Chiralities_Consistent>
1

> <s_lp_Variant>
AV-unprocessed.smi:2356-4

> <Gold.Version>
5.8.1

> <Gold.Id.Protein>
6NUR|6NUR_protein|mol2

> <Gold.PLP.Fitness>
45.8546

> <Gold.PLP.PLP>
-43.2780

> <Gold.PLP.part.hbond>
-1.0000

> <Gold.PLP.part.metal>
0.0000

> <Gold.PLP.part.buried>
-5.7083

> <Gold.PLP.part.nonpolar>
-36.9019

> <Gold.PLP.part.repulsive>
0.1746

> <Gold.PLP.ligand.clash>
0.0000

> <Gold.PLP.ligand.torsion>
0.8446

> <Gold.PLP.Chemscore.Hbond>
1.0000

> <Gold.PLP.Chemscore.CHOScore>
0.0000

> <Gold.PLP.Chemscore.Metal>
0.0000

> <Gold.Chemscore.Hbonds>
donor molecule, donor type, donor heavy atom, donor atom, acceptor molecule, acceptor atom, score
      L1  H    16    40       P1  7948  0.98

> <Gold.PLP.Chemscore.Internal.Correction>
1.2659

> <Gold.Rescore>
     Score         DG    S(hbond)    S(metal)    S(lipo)     H(rot)  DE(clash)    DE(int)     intcor
     17.92     -18.99       0.96        0.00     113.00       1.14       0.01       1.05       ----

> <Gold.Chemscore.Fitness>
17.9203

> <Gold.Chemscore.DG>
-18.9851

> <Gold.Chemscore.ZeroCoef>
-5.4800

> <Gold.Chemscore.Hbond>
0.9585

> <Gold.Chemscore.Metal>
0.0000

> <Gold.Chemscore.Lipo>
112.9987

> <Gold.Chemscore.Internal_Hbond>
0.0000

> <Gold.Chemscore.DEClash>
0.0118

> <Gold.Chemscore.DEInternal>
1.0530

> <Gold.Chemscore.Rot>
1.1395

> <Gold.Chemscore.Internal.Correction>
   9.000000E+99

> <Gold.Chemscore.Hbonds>
donor molecule, donor type, donor heavy atom, donor atom, acceptor molecule, acceptor atom, score
      L1  H    16    40       P1  7948  0.88

> <Gold.Chemscore.Hbond.Weighted>
-3.2014

> <Gold.Chemscore.Metal.Weighted>
-0.0000

> <Gold.Chemscore.Lipo.Weighted>
-13.2208

> <Gold.Chemscore.Internal_Hbond.Weighted>
0.0000

> <Gold.Chemscore.DEClash.Weighted>
0.0118

> <Gold.Chemscore.DEInternal.Weighted>
1.0530

> <Gold.Chemscore.Rot.Weighted>
2.9171

> <Gold.Chemscore.Internal.Correction.Weighted>
   9.000000E+99

> <Gold.Protein.RotatedTorsions>
[ 6907 6896 6895 6894 ] final   88.57 input  -60.11 | X-H torsion
[ 7974 7965 7964 7962 ] final  -45.30 input  175.53 | X-H torsion
[ 8008 7997 7996 7995 ] final -139.18 input   59.86 | X-H torsion
[ 10167 10162 10161 10158 ] final   11.22 input  -65.29 | X-H torsion
[ 10718 10713 10712 10709 ] final  -34.97 input   66.30 | X-H torsion
[ 10763 10752 10751 10750 ] final  -11.82 input  -60.55 | X-H torsion
[ 11005 11000 10999 10996 ] final  -31.63 input  -57.11 | X-H torsion

> <Gold.Protein.ActiveResidues>
 VAL166  LYS551  ARG553  GLY616  TRP617  ASP618  TYR619  PRO620  LYS621  CYS622 
 ASP623  PHE694  ASN695  SER759  ASP760  ASP761  ALA762  ILE779  LEU786  VAL792 
 PHE793  MET794  SER795  GLU796  ALA797  LYS798  CYS799  TRP800  GLU811  SER814 

> <Gold.Protein.RotatedAtoms>
  152.5426  134.2101  159.8746 H   0  0  0  0  0  0  0  0  0  0  0  0  # atno 6907 bound_to 6896
  151.2085  133.4563  159.2605 H   0  0  0  0  0  0  0  0  0  0  0  0  # atno 6908 bound_to 6896
  151.0920  134.9934  159.8463 H   0  0  0  0  0  0  0  0  0  0  0  0  # atno 6909 bound_to 6896
  145.9834  140.7259  142.9352 H   0  0  0  0  0  0  0  0  0  0  0  0  # atno 7974 bound_to 7965
  155.4407  140.0531  157.3010 H   0  0  0  0  0  0  0  0  0  0  0  0  # atno 8008 bound_to 7997
  154.4819  140.2085  155.9700 H   0  0  0  0  0  0  0  0  0  0  0  0  # atno 8009 bound_to 7997
  156.1219  140.3187  155.8225 H   0  0  0  0  0  0  0  0  0  0  0  0  # atno 8010 bound_to 7997
  140.6145  143.8337  150.7103 H   0  0  0  0  0  0  0  0  0  0  0  0  # atno 10167 bound_to 10162
  156.3442  130.4298  149.7761 H   0  0  0  0  0  0  0  0  0  0  0  0  # atno 10718 bound_to 10713
  153.4894  135.7017  153.5893 H   0  0  0  0  0  0  0  0  0  0  0  0  # atno 10763 bound_to 10752
  153.4072  135.3857  155.2026 H   0  0  0  0  0  0  0  0  0  0  0  0  # atno 10764 bound_to 10752
  154.8717  135.3896  154.4352 H   0  0  0  0  0  0  0  0  0  0  0  0  # atno 10765 bound_to 10752
  140.9484  133.7236  156.1182 H   0  0  0  0  0  0  0  0  0  0  0  0  # atno 11005 bound_to 11000
  144.6868  140.2947  143.7272 LP  0  0  0  0  0  0  0  0  0  0  0  0  # atno 17320 bound_to 7965
  145.7736  139.1866  143.2198 LP  0  0  0  0  0  0  0  0  0  0  0  0  # atno 17321 bound_to 7965
  140.1913  143.4034  152.1861 LP  0  0  0  0  0  0  0  0  0  0  0  0  # atno 17342 bound_to 10162
  139.5387  144.7236  151.4804 LP  0  0  0  0  0  0  0  0  0  0  0  0  # atno 17343 bound_to 10162
  156.4986  130.8118  151.3123 LP  0  0  0  0  0  0  0  0  0  0  0  0  # atno 17370 bound_to 10713
  157.7451  130.9952  150.2735 LP  0  0  0  0  0  0  0  0  0  0  0  0  # atno 17371 bound_to 10713
  140.7637  134.3910  157.5521 LP  0  0  0  0  0  0  0  0  0  0  0  0  # atno 17394 bound_to 11000
  139.8840  134.8978  156.2730 LP  0  0  0  0  0  0  0  0  0  0  0  0  # atno 17395 bound_to 11000

$$$$
