AV-unprocessed.smi:1631|AV-procd|sdf|6526|dock4
  -GOLD-   22720 7203D 1   1.00000     0.00000
 Structure written by MMmdl.
 38 39  0  0  0  0  0  0  0  0  1 V2000
  149.3849  137.2008  155.1167 C   0  0  0  0  0  0  0  0  0  0  0  0
  149.4571  135.7174  155.3716 C   0  0  0  0  0  0  0  0  0  0  0  0
  148.4930  135.0230  154.8631 N   0  0  0  0  0  0  0  0  0  0  0  0
  148.4323  133.6521  155.0108 N   0  0  0  0  0  0  0  0  0  0  0  0
  147.2719  133.0346  154.3548 C   0  0  0  0  0  0  0  0  0  0  0  0
  147.6513  132.3226  153.0358 C   0  0  2  0  0  0  0  0  0  0  0  0
  148.6682  133.0725  152.3995 O   0  0  0  0  0  0  0  0  0  0  0  0
  146.4355  132.1695  152.1214 C   0  0  0  0  0  0  0  0  0  0  0  0
  145.8352  133.3457  151.6143 C   0  0  0  0  0  0  0  0  0  0  0  0
  144.7101  133.2811  150.7742 C   0  0  0  0  0  0  0  0  0  0  0  0
  144.1692  132.0323  150.4290 C   0  0  0  0  0  0  0  0  0  0  0  0
  144.7558  130.8536  150.9235 C   0  0  0  0  0  0  0  0  0  0  0  0
  145.8893  130.9014  151.7699 C   0  0  0  0  0  0  0  0  0  0  0  0
  146.4921  129.5893  152.2737 C   0  0  0  0  0  0  0  0  0  0  0  0
  145.7801  128.5321  151.8812 F   0  0  0  0  0  0  0  0  0  0  0  0
  147.7289  129.4401  151.7985 F   0  0  0  0  0  0  0  0  0  0  0  0
  146.5242  129.5785  153.6056 F   0  0  0  0  0  0  0  0  0  0  0  0
  149.3468  132.9048  155.6913 C   0  0  0  0  0  0  0  0  0  0  0  0
  149.2531  131.6820  155.8026 O   0  0  0  0  0  0  0  0  0  0  0  0
  150.4380  133.6937  156.2667 C   0  0  0  0  0  0  0  0  0  0  0  0
  151.4197  132.9453  156.9836 C   0  0  0  0  0  0  0  0  0  0  0  0
  152.2046  132.3401  157.5819 N   0  0  0  0  0  0  0  0  0  0  0  0
  150.5111  135.0417  156.1274 C   0  0  0  0  0  0  0  0  0  0  0  0
  151.6297  135.8940  156.7114 C   0  0  0  0  0  0  0  0  0  0  0  0
  150.2027  137.7526  155.5763 H   0  0  0  0  0  0  0  0  0  0  0  0
  148.4549  137.6135  155.5091 H   0  0  0  0  0  0  0  0  0  0  0  0
  149.4149  137.4079  154.0465 H   0  0  0  0  0  0  0  0  0  0  0  0
  146.8245  132.3125  155.0408 H   0  0  0  0  0  0  0  0  0  0  0  0
  146.4894  133.7759  154.1804 H   0  0  0  0  0  0  0  0  0  0  0  0
  148.0850  131.3534  153.2658 H   0  0  0  0  0  0  0  0  0  0  0  0
  148.9635  132.5917  151.6414 H   0  0  0  0  0  0  0  0  0  0  0  0
  146.2404  134.3134  151.8714 H   0  0  0  0  0  0  0  0  0  0  0  0
  144.2630  134.1885  150.3957 H   0  0  0  0  0  0  0  0  0  0  0  0
  143.3047  131.9772  149.7841 H   0  0  0  0  0  0  0  0  0  0  0  0
  144.3187  129.9081  150.6396 H   0  0  0  0  0  0  0  0  0  0  0  0
  152.3601  135.3004  157.2603 H   0  0  0  0  0  0  0  0  0  0  0  0
  151.2260  136.6330  157.4044 H   0  0  0  0  0  0  0  0  0  0  0  0
  152.1649  136.4171  155.9182 H   0  0  0  0  0  0  0  0  0  0  0  0
  1  2  1  0  0  0  0
  1 25  1  0  0  0  0
  1 26  1  0  0  0  0
  1 27  1  0  0  0  0
  2 23  1  0  0  0  0
  2  3  2  0  0  0  0
  3  4  1  0  0  0  0
  4  5  1  0  0  0  0
  4 18  1  0  0  0  0
  5  6  1  0  0  0  0
  5 28  1  0  0  0  0
  5 29  1  0  0  0  0
  6  7  1  0  0  0  0
  6  8  1  0  0  0  0
  6 30  1  0  0  0  0
  7 31  1  0  0  0  0
  8 13  1  0  0  0  0
  8  9  2  0  0  0  0
  9 10  1  0  0  0  0
  9 32  1  0  0  0  0
 10 11  2  0  0  0  0
 10 33  1  0  0  0  0
 11 12  1  0  0  0  0
 11 34  1  0  0  0  0
 12 13  2  0  0  0  0
 12 35  1  0  0  0  0
 13 14  1  0  0  0  0
 14 15  1  0  0  0  0
 14 16  1  0  0  0  0
 14 17  1  0  0  0  0
 18 19  2  0  0  0  0
 18 20  1  0  0  0  0
 20 21  1  0  0  0  0
 20 23  2  0  0  0  0
 21 22  3  0  0  0  0
 23 24  1  0  0  0  0
 24 36  1  0  0  0  0
 24 37  1  0  0  0  0
 24 38  1  0  0  0  0
M  END
> <s_m_source_file>
AV-unprocessed.smi

> <i_m_source_file_index>
1631

> <i_lp_mmshare_version>
43012

> <i_f3d_flags>
0

> <s_epik_input>
TiNDYyhjMVtDSDNdKWMoPU8pbihuYzFbQ0gzXSlbQ0gyXVtDQEhdKFtPSF0pYzJbY0hdW2NIXVtjSF1bY0hdYzJDKEYpKEYpRg==

> <s_epik_cmdline>
J2VwaWtfcHl0aG9uJywgJy1waCcsICc3LjAnLCAnLXRuJywgJzgnLCAnLW1hJywgJzIwMCcsICctbWV0YWxfYmluZGluZycsICctaW1hZScsICc8aW5maWxlLm1hZT4nLCAnLW9tYWUnLCAnPG91dGZpbGUubWFlPic=

> <r_lp_tautomer_probability>
1

> <r_epik_Ionization_Penalty>
7.1854e-08

> <r_epik_Ionization_Penalty_Charging>
1.40848e-10

> <r_epik_Ionization_Penalty_Neutral>
7.17131e-08

> <r_epik_State_Penalty>
-0

> <r_epik_Charging_Adjusted_Penalty>
1.40848e-10

> <i_epik_Tot_Q>
0

> <i_epik_Tot_abs_Q>
0

> <r_epik_Metal_State_Penalty>
-0

> <b_epik_Metal_Only>
0

> <s_lp_Force_Field>
OPLS_2005

> <r_lp_Energy>
30.0509

> <b_lp_Chiralities_Consistent>
1

> <s_lp_Variant>
AV-unprocessed.smi:1631-1

> <Gold.Version>
5.8.1

> <Gold.Id.Protein>
6NUR|6NUR_protein|mol2

> <Gold.PLP.Fitness>
36.1261

> <Gold.PLP.PLP>
-31.3703

> <Gold.PLP.part.hbond>
-2.3004

> <Gold.PLP.part.metal>
0.0000

> <Gold.PLP.part.buried>
3.5531

> <Gold.PLP.part.nonpolar>
-33.1855

> <Gold.PLP.part.repulsive>
0.5418

> <Gold.PLP.ligand.clash>
1.3655

> <Gold.PLP.ligand.torsion>
0.5276

> <Gold.PLP.Chemscore.Hbond>
1.9167

> <Gold.PLP.Chemscore.CHOScore>
0.0000

> <Gold.PLP.Chemscore.Metal>
0.0000

> <Gold.Chemscore.Hbonds>
donor molecule, donor type, donor heavy atom, donor atom, acceptor molecule, acceptor atom, score
      L1  H     7    31       P1 10747  0.62
      P1  H  6896  6907       L1    22  0.81

> <Gold.PLP.Chemscore.Internal.Correction>
1.4263

> <Gold.Rescore>
     Score         DG    S(hbond)    S(metal)    S(lipo)     H(rot)  DE(clash)    DE(int)     intcor
     12.36     -14.64       1.33        0.00      86.67       2.11       1.05       1.23       ----

> <Gold.Chemscore.Fitness>
12.3569

> <Gold.Chemscore.DG>
-14.6421

> <Gold.Chemscore.ZeroCoef>
-5.4800

> <Gold.Chemscore.Hbond>
1.3263

> <Gold.Chemscore.Metal>
0.0000

> <Gold.Chemscore.Lipo>
86.6672

> <Gold.Chemscore.Internal_Hbond>
0.0000

> <Gold.Chemscore.DEClash>
1.0529

> <Gold.Chemscore.DEInternal>
1.2323

> <Gold.Chemscore.Rot>
2.1124

> <Gold.Chemscore.Internal.Correction>
   9.000000E+99

> <Gold.Chemscore.Hbonds>
donor molecule, donor type, donor heavy atom, donor atom, acceptor molecule, acceptor atom, score
      L1  H     7    31       P1 10747  0.57
      P1  H  6896  6907       L1    22  0.13

> <Gold.Chemscore.Hbond.Weighted>
-4.4298

> <Gold.Chemscore.Metal.Weighted>
-0.0000

> <Gold.Chemscore.Lipo.Weighted>
-10.1401

> <Gold.Chemscore.Internal_Hbond.Weighted>
0.0000

> <Gold.Chemscore.DEClash.Weighted>
1.0529

> <Gold.Chemscore.DEInternal.Weighted>
1.2323

> <Gold.Chemscore.Rot.Weighted>
5.4078

> <Gold.Chemscore.Internal.Correction.Weighted>
   9.000000E+99

> <Gold.Protein.RotatedTorsions>
[ 6907 6896 6895 6894 ] final  159.47 input  -60.11 | X-H torsion
[ 7974 7965 7964 7962 ] final -156.29 input  175.53 | X-H torsion
[ 8008 7997 7996 7995 ] final -106.07 input   59.86 | X-H torsion
[ 10167 10162 10161 10158 ] final  149.62 input  -65.29 | X-H torsion
[ 10718 10713 10712 10709 ] final   43.59 input   66.30 | X-H torsion
[ 10763 10752 10751 10750 ] final   30.25 input  -60.55 | X-H torsion
[ 11005 11000 10999 10996 ] final  -23.34 input  -57.11 | X-H torsion

> <Gold.Protein.ActiveResidues>
 VAL166  LYS551  ARG553  GLY616  TRP617  ASP618  TYR619  PRO620  LYS621  CYS622 
 ASP623  PHE694  ASN695  SER759  ASP760  ASP761  ALA762  ILE779  LEU786  VAL792 
 PHE793  MET794  SER795  GLU796  ALA797  LYS798  CYS799  TRP800  GLU811  SER814 

> <Gold.Protein.RotatedAtoms>
  151.9850  133.3771  159.4121 H   0  0  0  0  0  0  0  0  0  0  0  0  # atno 6907 bound_to 6896
  150.6929  134.3998  159.5123 H   0  0  0  0  0  0  0  0  0  0  0  0  # atno 6908 bound_to 6896
  152.1722  134.8824  160.0584 H   0  0  0  0  0  0  0  0  0  0  0  0  # atno 6909 bound_to 6896
  144.7600  140.4131  143.5983 H   0  0  0  0  0  0  0  0  0  0  0  0  # atno 7974 bound_to 7965
  154.9092  140.0410  157.1936 H   0  0  0  0  0  0  0  0  0  0  0  0  # atno 8008 bound_to 7997
  154.8365  140.2907  155.5666 H   0  0  0  0  0  0  0  0  0  0  0  0  # atno 8009 bound_to 7997
  156.2990  140.2491  156.3300 H   0  0  0  0  0  0  0  0  0  0  0  0  # atno 8010 bound_to 7997
  139.4859  144.5587  151.7270 H   0  0  0  0  0  0  0  0  0  0  0  0  # atno 10167 bound_to 10162
  157.4176  130.7950  149.7486 H   0  0  0  0  0  0  0  0  0  0  0  0  # atno 10718 bound_to 10713
  153.0383  135.6469  154.1015 H   0  0  0  0  0  0  0  0  0  0  0  0  # atno 10763 bound_to 10752
  154.0726  135.2879  155.3307 H   0  0  0  0  0  0  0  0  0  0  0  0  # atno 10764 bound_to 10752
  154.6584  135.5400  153.8051 H   0  0  0  0  0  0  0  0  0  0  0  0  # atno 10765 bound_to 10752
  140.8743  133.7699  156.0224 H   0  0  0  0  0  0  0  0  0  0  0  0  # atno 11005 bound_to 11000
  145.6651  139.1588  143.2786 LP  0  0  0  0  0  0  0  0  0  0  0  0  # atno 17320 bound_to 7965
  146.1653  140.6727  142.9258 LP  0  0  0  0  0  0  0  0  0  0  0  0  # atno 17321 bound_to 7965
  140.5153  144.0962  150.6007 LP  0  0  0  0  0  0  0  0  0  0  0  0  # atno 17342 bound_to 10162
  140.3901  143.2757  152.0070 LP  0  0  0  0  0  0  0  0  0  0  0  0  # atno 17343 bound_to 10162
  155.9870  130.3970  150.3185 LP  0  0  0  0  0  0  0  0  0  0  0  0  # atno 17370 bound_to 10713
  157.1330  131.0276  151.2961 LP  0  0  0  0  0  0  0  0  0  0  0  0  # atno 17371 bound_to 10713
  140.8537  134.2924  157.5264 LP  0  0  0  0  0  0  0  0  0  0  0  0  # atno 17394 bound_to 11000
  139.8714  134.9481  156.3987 LP  0  0  0  0  0  0  0  0  0  0  0  0  # atno 17395 bound_to 11000

$$$$
