AV-unprocessed.smi:2706|AV-procd|sdf|10448|dock3
  -GOLD-   2272014493D 1   1.00000     0.00000
 Structure written by MMmdl.
 44 47  0  0  0  0  0  0  0  0  2 V2000
  138.7688  142.8681  152.8326 C   0  0  0  0  0  0  0  0  0  0  0  0
  139.7953  141.8940  153.1805 N   0  0  0  0  0  0  0  0  0  0  0  0
  140.8153  142.2285  154.1683 C   0  0  0  0  0  0  0  0  0  0  0  0
  139.6986  140.5735  152.6922 C   0  0  0  0  0  0  0  0  0  0  0  0
  138.4725  139.9714  152.3230 C   0  0  0  0  0  0  0  0  0  0  0  0
  138.4644  138.6471  151.8449 C   0  0  0  0  0  0  0  0  0  0  0  0
  139.6766  137.9377  151.7395 C   0  0  0  0  0  0  0  0  0  0  0  0
  140.8880  138.5690  152.1174 C   0  0  0  0  0  0  0  0  0  0  0  0
  142.1787  137.9718  152.0625 N   0  0  0  0  0  0  0  0  0  0  0  0
  142.5279  136.6733  152.1084 C   0  0  0  0  0  0  0  0  0  0  0  0
  141.7495  135.7258  152.2092 O   0  0  0  0  0  0  0  0  0  0  0  0
  143.8586  136.5302  152.0308 N   0  0  0  0  0  0  0  0  0  0  0  0
  144.5624  135.2885  152.0489 C   0  0  2  0  0  0  0  0  0  0  0  0
  145.5384  135.0350  150.9185 C   0  0  1  0  0  0  0  0  0  0  0  0
  146.5683  133.9113  150.8278 C   0  0  1  0  0  0  0  0  0  0  0  0
  146.6717  133.1362  152.1577 C   0  0  0  0  0  0  0  0  0  0  0  0
  145.3277  132.3758  152.2054 C   0  0  0  0  0  0  0  0  0  0  0  0
  144.6455  132.8234  150.8962 C   0  0  2  0  0  0  0  0  0  0  0  0
  145.8450  132.8898  149.9560 C   0  0  0  0  0  0  0  0  0  0  0  0
  144.2166  134.2873  150.9658 C   0  0  1  0  0  0  0  0  0  0  0  0
  140.8345  139.8437  152.5688 N   0  3  0  0  0  0  0  0  0  0  0  0
  137.7850  142.5159  153.1449 H   0  0  0  0  0  0  0  0  0  0  0  0
  138.7526  143.0419  151.7561 H   0  0  0  0  0  0  0  0  0  0  0  0
  138.9494  143.8261  153.3206 H   0  0  0  0  0  0  0  0  0  0  0  0
  140.6650  141.6539  155.0829 H   0  0  0  0  0  0  0  0  0  0  0  0
  140.7826  143.2866  154.4290 H   0  0  0  0  0  0  0  0  0  0  0  0
  141.8118  142.0139  153.7811 H   0  0  0  0  0  0  0  0  0  0  0  0
  137.5364  140.5043  152.3974 H   0  0  0  0  0  0  0  0  0  0  0  0
  137.5338  138.1784  151.5602 H   0  0  0  0  0  0  0  0  0  0  0  0
  139.6404  136.9254  151.3701 H   0  0  0  0  0  0  0  0  0  0  0  0
  142.9455  138.6232  151.9822 H   0  0  0  0  0  0  0  0  0  0  0  0
  144.4231  137.3634  151.9512 H   0  0  0  0  0  0  0  0  0  0  0  0
  144.8166  134.8973  153.0310 H   0  0  0  0  0  0  0  0  0  0  0  0
  145.6225  135.7933  150.1416 H   0  0  0  0  0  0  0  0  0  0  0  0
  147.5248  134.2575  150.4356 H   0  0  0  0  0  0  0  0  0  0  0  0
  147.5055  132.4333  152.1300 H   0  0  0  0  0  0  0  0  0  0  0  0
  146.8249  133.7924  153.0149 H   0  0  0  0  0  0  0  0  0  0  0  0
  145.5000  131.2986  152.2014 H   0  0  0  0  0  0  0  0  0  0  0  0
  144.7345  132.6089  153.0901 H   0  0  0  0  0  0  0  0  0  0  0  0
  143.8370  132.1709  150.5653 H   0  0  0  0  0  0  0  0  0  0  0  0
  145.5949  133.2698  148.9636 H   0  0  0  0  0  0  0  0  0  0  0  0
  146.3775  131.9421  149.8536 H   0  0  0  0  0  0  0  0  0  0  0  0
  143.4820  134.5821  150.2182 H   0  0  0  0  0  0  0  0  0  0  0  0
  141.7095  140.2926  152.8383 H   0  0  0  0  0  0  0  0  0  0  0  0
  1  2  1  0  0  0  0
  1 22  1  0  0  0  0
  1 23  1  0  0  0  0
  1 24  1  0  0  0  0
  2  3  1  0  0  0  0
  2  4  1  0  0  0  0
  3 25  1  0  0  0  0
  3 26  1  0  0  0  0
  3 27  1  0  0  0  0
  4 21  1  0  0  0  0
  4  5  2  0  0  0  0
  5  6  1  0  0  0  0
  5 28  1  0  0  0  0
  6  7  2  0  0  0  0
  6 29  1  0  0  0  0
  7  8  1  0  0  0  0
  7 30  1  0  0  0  0
  8  9  1  0  0  0  0
  8 21  2  0  0  0  0
  9 10  1  0  0  0  0
  9 31  1  0  0  0  0
 10 11  2  0  0  0  0
 10 12  1  0  0  0  0
 12 13  1  0  0  0  0
 12 32  1  0  0  0  0
 13 20  1  0  0  0  0
 13 14  1  0  0  0  0
 13 33  1  0  0  0  0
 14 20  1  0  0  0  0
 14 15  1  0  0  0  0
 14 34  1  0  0  0  0
 15 19  1  0  0  0  0
 15 16  1  0  0  0  0
 15 35  1  0  0  0  0
 16 17  1  0  0  0  0
 16 36  1  0  0  0  0
 16 37  1  0  0  0  0
 17 18  1  0  0  0  0
 17 38  1  0  0  0  0
 17 39  1  0  0  0  0
 18 19  1  0  0  0  0
 18 20  1  0  0  0  0
 18 40  1  0  0  0  0
 19 41  1  0  0  0  0
 19 42  1  0  0  0  0
 20 43  1  0  0  0  0
 21 44  1  0  0  0  0
M  CHG  1  21   1
M  END
> <s_m_source_file>
AV-unprocessed.smi

> <i_m_source_file_index>
2706

> <i_lp_mmshare_version>
43012

> <i_f3d_flags>
0

> <s_epik_input>
W0NIM11OKFtDSDNdKWMxW2NIXVtjSF1bY0hdYyhuMSlbTkhdQyg9TylbTkhdW0NASF0yW0NAQEhdM1tDQEBIXShbQ0gyXTQpW0NIMl1bQ0gyXVtDQEBIXTRbQ0BIXTIz

> <s_epik_cmdline>
J2VwaWtfcHl0aG9uJywgJy1waCcsICc3LjAnLCAnLXRuJywgJzgnLCAnLW1hJywgJzIwMCcsICctbWV0YWxfYmluZGluZycsICctaW1hZScsICc8aW5maWxlLm1hZT4nLCAnLW9tYWUnLCAnPG91dGZpbGUubWFlPic=

> <r_lp_tautomer_probability>
0.999994

> <r_epik_Ionization_Penalty>
1.8105

> <r_epik_Ionization_Penalty_Charging>
1.79227

> <r_epik_Ionization_Penalty_Neutral>
0.0182286

> <r_epik_State_Penalty>
1.90588

> <r_epik_Charging_Adjusted_Penalty>
3.69815

> <i_epik_Tot_Q>
1

> <i_epik_Tot_abs_Q>
1

> <r_epik_Metal_State_Penalty>
1.93501

> <b_epik_Metal_Only>
0

> <s_lp_Force_Field>
OPLS_2005

> <r_lp_Energy>
87.3902

> <b_lp_Chiralities_Consistent>
1

> <s_lp_Variant>
AV-unprocessed.smi:2706-5

> <Gold.Version>
5.8.1

> <Gold.Id.Protein>
6NUR|6NUR_protein|mol2

> <Gold.PLP.Fitness>
43.5293

> <Gold.PLP.PLP>
-36.3669

> <Gold.PLP.part.hbond>
-3.0000

> <Gold.PLP.part.metal>
0.0000

> <Gold.PLP.part.buried>
-4.5967

> <Gold.PLP.part.nonpolar>
-27.9486

> <Gold.PLP.part.repulsive>
0.2141

> <Gold.PLP.ligand.clash>
0.0000

> <Gold.PLP.ligand.torsion>
0.5157

> <Gold.PLP.Chemscore.Hbond>
2.7116

> <Gold.PLP.Chemscore.CHOScore>
0.0000

> <Gold.PLP.Chemscore.Metal>
0.0000

> <Gold.Chemscore.Hbonds>
donor molecule, donor type, donor heavy atom, donor atom, acceptor molecule, acceptor atom, score
      L1  H     9    31       P1 10175  0.91
      L1  H    21    44       P1 10175  0.73

> <Gold.PLP.Chemscore.Internal.Correction>
0.0590

> <Gold.Rescore>
     Score         DG    S(hbond)    S(metal)    S(lipo)     H(rot)  DE(clash)    DE(int)     intcor
     14.12     -16.28       1.40        0.00      74.11       1.00       0.58       1.58       ----

> <Gold.Chemscore.Fitness>
14.1170

> <Gold.Chemscore.DG>
-16.2785

> <Gold.Chemscore.ZeroCoef>
-5.4800

> <Gold.Chemscore.Hbond>
1.4036

> <Gold.Chemscore.Metal>
0.0000

> <Gold.Chemscore.Lipo>
74.1056

> <Gold.Chemscore.Internal_Hbond>
0.0000

> <Gold.Chemscore.DEClash>
0.5793

> <Gold.Chemscore.DEInternal>
1.5822

> <Gold.Chemscore.Rot>
1.0000

> <Gold.Chemscore.Internal.Correction>
   9.000000E+99

> <Gold.Chemscore.Hbonds>
donor molecule, donor type, donor heavy atom, donor atom, acceptor molecule, acceptor atom, score
      L1  H     9    31       P1 10175  0.86
      L1  H    21    44       P1 10175  0.01

> <Gold.Chemscore.Hbond.Weighted>
-4.6882

> <Gold.Chemscore.Metal.Weighted>
-0.0000

> <Gold.Chemscore.Lipo.Weighted>
-8.6704

> <Gold.Chemscore.Internal_Hbond.Weighted>
0.0000

> <Gold.Chemscore.DEClash.Weighted>
0.5793

> <Gold.Chemscore.DEInternal.Weighted>
1.5822

> <Gold.Chemscore.Rot.Weighted>
2.5600

> <Gold.Chemscore.Internal.Correction.Weighted>
   9.000000E+99

> <Gold.Protein.RotatedTorsions>
[ 6907 6896 6895 6894 ] final -120.26 input  -60.11 | X-H torsion
[ 7974 7965 7964 7962 ] final   16.29 input  175.53 | X-H torsion
[ 8008 7997 7996 7995 ] final  -46.71 input   59.86 | X-H torsion
[ 10167 10162 10161 10158 ] final  -55.60 input  -65.29 | X-H torsion
[ 10718 10713 10712 10709 ] final  122.31 input   66.30 | X-H torsion
[ 10763 10752 10751 10750 ] final   27.93 input  -60.55 | X-H torsion
[ 11005 11000 10999 10996 ] final   81.37 input  -57.11 | X-H torsion

> <Gold.Protein.ActiveResidues>
 VAL166  LYS551  ARG553  GLY616  TRP617  ASP618  TYR619  PRO620  LYS621  CYS622 
 ASP623  PHE694  ASN695  SER759  ASP760  ASP761  ALA762  ILE779  LEU786  VAL792 
 PHE793  MET794  SER795  GLU796  ALA797  LYS798  CYS799  TRP800  GLU811  SER814 

> <Gold.Protein.RotatedAtoms>
  150.8377  133.7986  159.3072 H   0  0  0  0  0  0  0  0  0  0  0  0  # atno 6907 bound_to 6896
  151.5697  135.1061  160.0002 H   0  0  0  0  0  0  0  0  0  0  0  0  # atno 6908 bound_to 6896
  152.4447  133.7471  159.6729 H   0  0  0  0  0  0  0  0  0  0  0  0  # atno 6909 bound_to 6896
  146.2254  139.8769  142.8577 H   0  0  0  0  0  0  0  0  0  0  0  0  # atno 7974 bound_to 7965
  154.4010  140.1364  156.4056 H   0  0  0  0  0  0  0  0  0  0  0  0  # atno 8008 bound_to 7997
  155.7783  140.3482  155.5263 H   0  0  0  0  0  0  0  0  0  0  0  0  # atno 8009 bound_to 7997
  155.8699  140.0970  157.1547 H   0  0  0  0  0  0  0  0  0  0  0  0  # atno 8010 bound_to 7997
  140.6365  143.2485  151.5104 H   0  0  0  0  0  0  0  0  0  0  0  0  # atno 10167 bound_to 10162
  157.5752  131.1080  150.8293 H   0  0  0  0  0  0  0  0  0  0  0  0  # atno 10718 bound_to 10713
  153.0524  135.6525  154.0661 H   0  0  0  0  0  0  0  0  0  0  0  0  # atno 10763 bound_to 10752
  154.0346  135.2908  155.3365 H   0  0  0  0  0  0  0  0  0  0  0  0  # atno 10764 bound_to 10752
  154.6820  135.5316  153.8342 H   0  0  0  0  0  0  0  0  0  0  0  0  # atno 10765 bound_to 10752
  139.9100  134.7992  156.2033 H   0  0  0  0  0  0  0  0  0  0  0  0  # atno 11005 bound_to 11000
  145.2552  141.0058  143.3858 LP  0  0  0  0  0  0  0  0  0  0  0  0  # atno 17320 bound_to 7965
  144.9343  139.4262  143.6480 LP  0  0  0  0  0  0  0  0  0  0  0  0  # atno 17321 bound_to 7965
  139.5575  144.2238  152.1637 LP  0  0  0  0  0  0  0  0  0  0  0  0  # atno 17342 bound_to 10162
  140.1496  144.5127  150.6695 LP  0  0  0  0  0  0  0  0  0  0  0  0  # atno 17343 bound_to 10162
  156.8754  130.5160  149.5294 LP  0  0  0  0  0  0  0  0  0  0  0  0  # atno 17370 bound_to 10713
  156.0796  130.5810  150.9539 LP  0  0  0  0  0  0  0  0  0  0  0  0  # atno 17371 bound_to 10713
  141.0511  133.6888  156.1774 LP  0  0  0  0  0  0  0  0  0  0  0  0  # atno 17394 bound_to 11000
  140.6808  134.4769  157.5589 LP  0  0  0  0  0  0  0  0  0  0  0  0  # atno 17395 bound_to 11000

$$$$
