AV-unprocessed.smi:2881|AV-procd|sdf|11067|dock9
  -GOLD-   2272015543D 1   1.00000     0.00000
 Structure written by MMmdl.
 40 42  0  0  0  0  0  0  0  0  1 V2000
  151.8092  131.2937  156.3464 C   0  0  0  0  0  0  0  0  0  0  0  0
  150.9571  132.5179  156.1851 C   0  0  0  0  0  0  0  0  0  0  0  0
  150.1727  132.9020  155.0583 C   0  0  0  0  0  0  0  0  0  0  0  0
  149.6026  134.0872  155.4305 C   0  0  0  0  0  0  0  0  0  0  0  0
  148.6699  135.0027  154.7055 C   0  0  0  0  0  0  0  0  0  0  0  0
  147.3622  134.2907  154.3603 C   0  0  0  0  0  0  0  0  0  0  0  0
  146.6890  133.7744  155.2517 O   0  0  0  0  0  0  0  0  0  0  0  0
  147.0122  134.2776  153.0645 N   0  0  0  0  0  0  0  0  0  0  0  0
  145.8102  133.6486  152.5150 C   0  0  2  0  0  0  0  0  0  0  0  0
  146.1898  132.3800  151.7211 C   0  0  1  0  0  0  0  0  0  0  0  0
  144.9235  131.5374  151.4817 C   0  0  0  0  0  0  0  0  0  0  0  0
  144.1618  132.3701  150.4329 C   0  0  0  0  0  0  0  0  0  0  0  0
  145.0918  133.5800  150.2131 C   0  0  2  0  0  0  0  0  0  0  0  0
  146.4646  132.9293  150.3264 C   0  0  0  0  0  0  0  0  0  0  0  0
  145.0415  134.4996  151.4583 C   0  0  2  0  0  0  0  0  0  0  0  0
  145.5917  135.9194  151.1926 C   0  0  0  0  0  0  0  0  0  0  0  0
  145.2287  136.3550  149.8993 O   0  0  0  0  0  0  0  0  0  0  0  0
  150.0514  134.3432  156.7070 N   0  0  0  0  0  0  0  0  0  0  0  0
  150.8800  133.3926  157.1771 N   0  0  0  0  0  0  0  0  0  0  0  0
  149.8055  135.1513  157.2608 H   0  0  0  0  0  0  0  0  0  0  0  0
  151.7495  130.6539  155.4657 H   0  0  0  0  0  0  0  0  0  0  0  0
  151.4916  130.7038  157.2064 H   0  0  0  0  0  0  0  0  0  0  0  0
  152.8561  131.5604  156.4919 H   0  0  0  0  0  0  0  0  0  0  0  0
  150.0484  132.3855  154.1179 H   0  0  0  0  0  0  0  0  0  0  0  0
  149.1404  135.3833  153.7976 H   0  0  0  0  0  0  0  0  0  0  0  0
  148.4467  135.8719  155.3251 H   0  0  0  0  0  0  0  0  0  0  0  0
  147.6266  134.7314  152.4045 H   0  0  0  0  0  0  0  0  0  0  0  0
  145.1461  133.3767  153.3379 H   0  0  0  0  0  0  0  0  0  0  0  0
  147.0077  131.8081  152.1617 H   0  0  0  0  0  0  0  0  0  0  0  0
  145.1792  130.5563  151.0795 H   0  0  0  0  0  0  0  0  0  0  0  0
  144.3449  131.3834  152.3932 H   0  0  0  0  0  0  0  0  0  0  0  0
  144.0409  131.8023  149.5094 H   0  0  0  0  0  0  0  0  0  0  0  0
  143.1683  132.6640  150.7739 H   0  0  0  0  0  0  0  0  0  0  0  0
  144.9066  134.0937  149.2695 H   0  0  0  0  0  0  0  0  0  0  0  0
  147.2907  133.6407  150.2934 H   0  0  0  0  0  0  0  0  0  0  0  0
  146.6372  132.1508  149.5811 H   0  0  0  0  0  0  0  0  0  0  0  0
  144.0065  134.6114  151.7857 H   0  0  0  0  0  0  0  0  0  0  0  0
  145.1768  136.6299  151.9079 H   0  0  0  0  0  0  0  0  0  0  0  0
  146.6770  135.9542  151.2899 H   0  0  0  0  0  0  0  0  0  0  0  0
  144.7491  137.1654  149.9776 H   0  0  0  0  0  0  0  0  0  0  0  0
  1 21  1  0  0  0  0
  1 22  1  0  0  0  0
  1 23  1  0  0  0  0
  1  2  1  0  0  0  0
  2 19  2  0  0  0  0
  2  3  1  0  0  0  0
  3  4  2  0  0  0  0
  3 24  1  0  0  0  0
  4 18  1  0  0  0  0
  4  5  1  0  0  0  0
  5  6  1  0  0  0  0
  5 25  1  0  0  0  0
  5 26  1  0  0  0  0
  6  7  2  0  0  0  0
  6  8  1  0  0  0  0
  8  9  1  0  0  0  0
  8 27  1  0  0  0  0
  9 15  1  0  0  0  0
  9 10  1  0  0  0  0
  9 28  1  0  0  0  0
 10 14  1  0  0  0  0
 10 11  1  0  0  0  0
 10 29  1  0  0  0  0
 11 12  1  0  0  0  0
 11 30  1  0  0  0  0
 11 31  1  0  0  0  0
 12 13  1  0  0  0  0
 12 32  1  0  0  0  0
 12 33  1  0  0  0  0
 13 14  1  0  0  0  0
 13 15  1  0  0  0  0
 13 34  1  0  0  0  0
 14 35  1  0  0  0  0
 14 36  1  0  0  0  0
 15 16  1  0  0  0  0
 15 37  1  0  0  0  0
 16 17  1  0  0  0  0
 16 38  1  0  0  0  0
 16 39  1  0  0  0  0
 17 40  1  0  0  0  0
 18 19  1  0  0  0  0
 18 20  1  0  0  0  0
M  END
> <s_m_source_file>
AV-unprocessed.smi

> <i_m_source_file_index>
2881

> <i_lp_mmshare_version>
43012

> <i_f3d_flags>
0

> <s_epik_input>
W0NIM11jMVtjSF1jKG5bbkhdMSlbQ0gyXUMoPU8pW05IXVtDQEhdKFtDQEBIXTIzKVtDQEhdKFtDSDJdW09IXSlbQ0BASF0oW0NIMl0zKVtDSDJdW0NIMl0y

> <s_epik_cmdline>
J2VwaWtfcHl0aG9uJywgJy1waCcsICc3LjAnLCAnLXRuJywgJzgnLCAnLW1hJywgJzIwMCcsICctbWV0YWxfYmluZGluZycsICctaW1hZScsICc8aW5maWxlLm1hZT4nLCAnLW9tYWUnLCAnPG91dGZpbGUubWFlPic=

> <r_lp_tautomer_probability>
0.5

> <r_epik_Ionization_Penalty>
0.00013396

> <r_epik_Ionization_Penalty_Charging>
0

> <r_epik_Ionization_Penalty_Neutral>
0.00013396

> <r_epik_State_Penalty>
0.41068

> <r_epik_Charging_Adjusted_Penalty>
0.41068

> <i_epik_Tot_Q>
0

> <i_epik_Tot_abs_Q>
0

> <r_epik_Metal_State_Penalty>
0.41066

> <b_epik_Metal_Only>
0

> <s_lp_Force_Field>
OPLS_2005

> <r_lp_Energy>
49.1739

> <b_lp_Chiralities_Consistent>
1

> <s_lp_Variant>
AV-unprocessed.smi:2881-13

> <Gold.Version>
5.8.1

> <Gold.Id.Protein>
6NUR|6NUR_protein|mol2

> <Gold.PLP.Fitness>
39.7779

> <Gold.PLP.PLP>
-32.2614

> <Gold.PLP.part.hbond>
-4.0000

> <Gold.PLP.part.metal>
0.0000

> <Gold.PLP.part.buried>
-2.9394

> <Gold.PLP.part.nonpolar>
-24.7808

> <Gold.PLP.part.repulsive>
0.1367

> <Gold.PLP.ligand.clash>
0.0000

> <Gold.PLP.ligand.torsion>
0.4369

> <Gold.PLP.Chemscore.Hbond>
2.7889

> <Gold.PLP.Chemscore.CHOScore>
0.0000

> <Gold.PLP.Chemscore.Metal>
0.0000

> <Gold.Chemscore.Hbonds>
donor molecule, donor type, donor heavy atom, donor atom, acceptor molecule, acceptor atom, score
      L1  H     8    27       P1  7948  0.99
      L1  H    17    40       P1 10171  1.00
      P1  H  6896  6907       L1    19  0.82

> <Gold.PLP.Chemscore.Internal.Correction>
0.0235

> <Gold.Rescore>
     Score         DG    S(hbond)    S(metal)    S(lipo)     H(rot)  DE(clash)    DE(int)     intcor
     17.24     -17.69       2.74        0.00      75.87       2.28       0.04       0.41       ----

> <Gold.Chemscore.Fitness>
17.2419

> <Gold.Chemscore.DG>
-17.6899

> <Gold.Chemscore.ZeroCoef>
-5.4800

> <Gold.Chemscore.Hbond>
2.7422

> <Gold.Chemscore.Metal>
0.0000

> <Gold.Chemscore.Lipo>
75.8653

> <Gold.Chemscore.Internal_Hbond>
0.0000

> <Gold.Chemscore.DEClash>
0.0383

> <Gold.Chemscore.DEInternal>
0.4098

> <Gold.Chemscore.Rot>
2.2755

> <Gold.Chemscore.Internal.Correction>
   9.000000E+99

> <Gold.Chemscore.Hbonds>
donor molecule, donor type, donor heavy atom, donor atom, acceptor molecule, acceptor atom, score
      L1  H     8    27       P1  7948  0.77
      L1  H    17    40       P1 10171  1.00
      P1  H  6896  6907       L1    19  0.62

> <Gold.Chemscore.Hbond.Weighted>
-9.1589

> <Gold.Chemscore.Metal.Weighted>
-0.0000

> <Gold.Chemscore.Lipo.Weighted>
-8.8762

> <Gold.Chemscore.Internal_Hbond.Weighted>
0.0000

> <Gold.Chemscore.DEClash.Weighted>
0.0383

> <Gold.Chemscore.DEInternal.Weighted>
0.4098

> <Gold.Chemscore.Rot.Weighted>
5.8252

> <Gold.Chemscore.Internal.Correction.Weighted>
   9.000000E+99

> <Gold.Protein.RotatedTorsions>
[ 6907 6896 6895 6894 ] final -144.59 input  -60.11 | X-H torsion
[ 7974 7965 7964 7962 ] final  162.61 input  175.53 | X-H torsion
[ 8008 7997 7996 7995 ] final  151.37 input   59.86 | X-H torsion
[ 10167 10162 10161 10158 ] final   40.47 input  -65.29 | X-H torsion
[ 10718 10713 10712 10709 ] final   31.35 input   66.30 | X-H torsion
[ 10763 10752 10751 10750 ] final  -87.97 input  -60.55 | X-H torsion
[ 11005 11000 10999 10996 ] final   21.24 input  -57.11 | X-H torsion

> <Gold.Protein.ActiveResidues>
 VAL166  LYS551  ARG553  GLY616  TRP617  ASP618  TYR619  PRO620  LYS621  CYS622 
 ASP623  PHE694  ASN695  SER759  ASP760  ASP761  ALA762  ILE779  LEU786  VAL792 
 PHE793  MET794  SER795  GLU796  ALA797  LYS798  CYS799  TRP800  GLU811  SER814 

> <Gold.Protein.RotatedAtoms>
  151.1161  133.5137  159.2603 H   0  0  0  0  0  0  0  0  0  0  0  0  # atno 6907 bound_to 6896
  151.1913  135.0403  159.8843 H   0  0  0  0  0  0  0  0  0  0  0  0  # atno 6908 bound_to 6896
  152.5453  134.1001  159.8367 H   0  0  0  0  0  0  0  0  0  0  0  0  # atno 6909 bound_to 6896
  144.7629  139.8064  143.6326 H   0  0  0  0  0  0  0  0  0  0  0  0  # atno 7974 bound_to 7965
  156.2676  140.2049  156.6165 H   0  0  0  0  0  0  0  0  0  0  0  0  # atno 8008 bound_to 7997
  154.6790  140.0542  157.0270 H   0  0  0  0  0  0  0  0  0  0  0  0  # atno 8009 bound_to 7997
  155.1027  140.3207  155.4545 H   0  0  0  0  0  0  0  0  0  0  0  0  # atno 8010 bound_to 7997
  140.3738  144.2070  150.6132 H   0  0  0  0  0  0  0  0  0  0  0  0  # atno 10167 bound_to 10162
  157.2714  130.7210  149.6506 H   0  0  0  0  0  0  0  0  0  0  0  0  # atno 10718 bound_to 10713
  154.6394  135.5394  153.7772 H   0  0  0  0  0  0  0  0  0  0  0  0  # atno 10763 bound_to 10752
  153.0326  135.6455  154.1182 H   0  0  0  0  0  0  0  0  0  0  0  0  # atno 10764 bound_to 10752
  154.1107  135.2927  155.3211 H   0  0  0  0  0  0  0  0  0  0  0  0  # atno 10765 bound_to 10752
  140.3937  134.1792  155.7663 H   0  0  0  0  0  0  0  0  0  0  0  0  # atno 11005 bound_to 11000
  146.1709  139.4859  142.9928 LP  0  0  0  0  0  0  0  0  0  0  0  0  # atno 17320 bound_to 7965
  145.6563  141.0251  143.1733 LP  0  0  0  0  0  0  0  0  0  0  0  0  # atno 17321 bound_to 7965
  140.5006  143.2319  151.8684 LP  0  0  0  0  0  0  0  0  0  0  0  0  # atno 17342 bound_to 10162
  139.4801  144.5063  151.8993 LP  0  0  0  0  0  0  0  0  0  0  0  0  # atno 17343 bound_to 10162
  155.9663  130.4366  150.5142 LP  0  0  0  0  0  0  0  0  0  0  0  0  # atno 17370 bound_to 10713
  157.3067  131.0656  151.2030 LP  0  0  0  0  0  0  0  0  0  0  0  0  # atno 17371 bound_to 10713
  141.1882  133.8266  157.1005 LP  0  0  0  0  0  0  0  0  0  0  0  0  # atno 17394 bound_to 11000
  140.0387  134.9865  157.0921 LP  0  0  0  0  0  0  0  0  0  0  0  0  # atno 17395 bound_to 11000

$$$$
