AV-unprocessed.smi:2538|AV-procd|sdf|9983|dock4
  -GOLD-   2272014 33D 1   1.00000     0.00000
 Structure written by MMmdl.
 49 50  0  0  0  0  0  0  0  0  2 V2000
  152.3324  144.4216  160.4084 C   0  0  0  0  0  0  0  0  0  0  0  0
  152.0346  143.3039  159.4234 C   0  0  0  0  0  0  0  0  0  0  0  0
  151.2212  143.5910  158.3037 C   0  0  0  0  0  0  0  0  0  0  0  0
  150.9663  142.5485  157.4206 C   0  0  0  0  0  0  0  0  0  0  0  0
  150.2165  142.5075  156.2428 N   0  3  0  0  0  0  0  0  0  0  0  0
  150.2611  141.2510  155.7189 C   0  0  0  0  0  0  0  0  0  0  0  0
  151.0294  140.4903  156.5452 N   0  0  0  0  0  0  0  0  0  0  0  0
  151.4110  139.0752  156.4487 C   0  0  0  0  0  0  0  0  0  0  0  0
  150.2132  138.1228  156.6376 C   0  0  2  0  0  0  0  0  0  0  0  0
  149.3510  138.2785  155.5275 O   0  0  0  0  0  0  0  0  0  0  0  0
  149.4270  138.4347  157.9294 C   0  0  0  0  0  0  0  0  0  0  0  0
  148.4154  137.4118  158.2571 N   0  0  0  0  0  0  0  0  0  0  0  0
  147.0137  137.7994  158.0489 C   0  0  0  0  0  0  0  0  0  0  0  0
  148.7704  136.1634  159.4123 S   0  0  0  0  0  0  0  0  0  0  0  0
  149.0063  134.9292  158.6470 O   0  0  0  0  0  0  0  0  0  0  0  0
  149.8179  136.6755  160.3096 O   0  0  0  0  0  0  0  0  0  0  0  0
  147.1833  135.9772  160.3635 C   0  0  0  0  0  0  0  0  0  0  0  0
  147.4111  136.2597  161.8553 C   0  0  0  0  0  0  0  0  0  0  0  0
  146.5757  134.5847  160.1420 C   0  0  0  0  0  0  0  0  0  0  0  0
  151.4893  141.2566  157.6207 C   0  0  0  0  0  0  0  0  0  0  0  0
  152.2923  140.9559  158.7179 C   0  0  0  0  0  0  0  0  0  0  0  0
  152.5644  142.0031  159.6269 C   0  0  0  0  0  0  0  0  0  0  0  0
  153.4391  141.7058  160.8327 C   0  0  0  0  0  0  0  0  0  0  0  0
  151.8198  145.3437  160.1324 H   0  0  0  0  0  0  0  0  0  0  0  0
  153.4020  144.6305  160.4373 H   0  0  0  0  0  0  0  0  0  0  0  0
  152.0051  144.1478  161.4116 H   0  0  0  0  0  0  0  0  0  0  0  0
  150.8158  144.5791  158.1413 H   0  0  0  0  0  0  0  0  0  0  0  0
  149.7797  140.9201  154.8100 H   0  0  0  0  0  0  0  0  0  0  0  0
  151.8871  138.9176  155.4799 H   0  0  0  0  0  0  0  0  0  0  0  0
  152.1750  138.8857  157.2044 H   0  0  0  0  0  0  0  0  0  0  0  0
  150.5866  137.0999  156.6465 H   0  0  0  0  0  0  0  0  0  0  0  0
  149.1166  137.4212  155.2060 H   0  0  0  0  0  0  0  0  0  0  0  0
  150.1189  138.4827  158.7712 H   0  0  0  0  0  0  0  0  0  0  0  0
  148.9680  139.4231  157.8896 H   0  0  0  0  0  0  0  0  0  0  0  0
  146.6319  138.3374  158.9164 H   0  0  0  0  0  0  0  0  0  0  0  0
  146.3959  136.9143  157.8979 H   0  0  0  0  0  0  0  0  0  0  0  0
  146.9109  138.4349  157.1689 H   0  0  0  0  0  0  0  0  0  0  0  0
  146.4825  136.7173  159.9855 H   0  0  0  0  0  0  0  0  0  0  0  0
  146.4837  136.1582  162.4192 H   0  0  0  0  0  0  0  0  0  0  0  0
  147.7816  137.2722  162.0161 H   0  0  0  0  0  0  0  0  0  0  0  0
  148.1376  135.5667  162.2804 H   0  0  0  0  0  0  0  0  0  0  0  0
  145.6200  134.4884  160.6576 H   0  0  0  0  0  0  0  0  0  0  0  0
  147.2343  133.7995  160.5142 H   0  0  0  0  0  0  0  0  0  0  0  0
  146.3973  134.3991  159.0824 H   0  0  0  0  0  0  0  0  0  0  0  0
  152.6945  139.9652  158.8717 H   0  0  0  0  0  0  0  0  0  0  0  0
  153.7976  140.6762  160.8213 H   0  0  0  0  0  0  0  0  0  0  0  0
  152.8794  141.8540  161.7565 H   0  0  0  0  0  0  0  0  0  0  0  0
  154.3106  142.3607  160.8463 H   0  0  0  0  0  0  0  0  0  0  0  0
  149.7124  143.2788  155.8243 H   0  0  0  0  0  0  0  0  0  0  0  0
  1  2  1  0  0  0  0
  1 24  1  0  0  0  0
  1 25  1  0  0  0  0
  1 26  1  0  0  0  0
  2 22  1  0  0  0  0
  2  3  2  0  0  0  0
  3  4  1  0  0  0  0
  3 27  1  0  0  0  0
  4 20  2  0  0  0  0
  4  5  1  0  0  0  0
  5  6  2  0  0  0  0
  5 49  1  0  0  0  0
  6  7  1  0  0  0  0
  6 28  1  0  0  0  0
  7  8  1  0  0  0  0
  7 20  1  0  0  0  0
  8  9  1  0  0  0  0
  8 29  1  0  0  0  0
  8 30  1  0  0  0  0
  9 10  1  0  0  0  0
  9 11  1  0  0  0  0
  9 31  1  0  0  0  0
 10 32  1  0  0  0  0
 11 12  1  0  0  0  0
 11 33  1  0  0  0  0
 11 34  1  0  0  0  0
 12 13  1  0  0  0  0
 12 14  1  0  0  0  0
 13 35  1  0  0  0  0
 13 36  1  0  0  0  0
 13 37  1  0  0  0  0
 14 15  2  0  0  0  0
 14 16  2  0  0  0  0
 14 17  1  0  0  0  0
 17 18  1  0  0  0  0
 17 19  1  0  0  0  0
 17 38  1  0  0  0  0
 18 39  1  0  0  0  0
 18 40  1  0  0  0  0
 18 41  1  0  0  0  0
 19 42  1  0  0  0  0
 19 43  1  0  0  0  0
 19 44  1  0  0  0  0
 20 21  1  0  0  0  0
 21 22  2  0  0  0  0
 21 45  1  0  0  0  0
 22 23  1  0  0  0  0
 23 46  1  0  0  0  0
 23 47  1  0  0  0  0
 23 48  1  0  0  0  0
M  CHG  1   5   1
M  END
> <s_m_source_file>
AV-unprocessed.smi

> <i_m_source_file_index>
2538

> <i_lp_mmshare_version>
43012

> <i_f3d_flags>
0

> <s_epik_input>
W0NIM11jKFtjSF0xKWMoW0NIM10pW2NIXWMoYzEyKW4oW2NIXW4yKVtDSDJdW0NASF0oW09IXSlbQ0gyXU4oW0NIM10pUyg9TykoPU8pW0NIXShbQ0gzXSlbQ0gzXQ==

> <s_epik_cmdline>
J2VwaWtfcHl0aG9uJywgJy1waCcsICc3LjAnLCAnLXRuJywgJzgnLCAnLW1hJywgJzIwMCcsICctbWV0YWxfYmluZGluZycsICctaW1hZScsICc8aW5maWxlLm1hZT4nLCAnLW9tYWUnLCAnPG91dGZpbGUubWFlPic=

> <r_epik_Ionization_Penalty>
1.07686

> <r_epik_Ionization_Penalty_Charging>
1.07685

> <r_epik_Ionization_Penalty_Neutral>
1.40866e-06

> <r_epik_State_Penalty>
1.13193

> <r_epik_Charging_Adjusted_Penalty>
2.20879

> <i_epik_Tot_Q>
1

> <i_epik_Tot_abs_Q>
1

> <r_epik_Metal_State_Penalty>
5.12988

> <b_epik_Metal_Only>
0

> <s_lp_Force_Field>
OPLS_2005

> <r_lp_Energy>
10.0565

> <b_lp_Chiralities_Consistent>
1

> <s_lp_Variant>
AV-unprocessed.smi:2538-3

> <Gold.Version>
5.8.1

> <Gold.Id.Protein>
6NUR|6NUR_protein|mol2

> <Gold.PLP.Fitness>
51.5419

> <Gold.PLP.PLP>
-42.0333

> <Gold.PLP.part.hbond>
-3.0848

> <Gold.PLP.part.metal>
0.0000

> <Gold.PLP.part.buried>
-3.9543

> <Gold.PLP.part.nonpolar>
-35.8168

> <Gold.PLP.part.repulsive>
0.1285

> <Gold.PLP.ligand.clash>
0.0000

> <Gold.PLP.ligand.torsion>
1.6334

> <Gold.PLP.Chemscore.Hbond>
3.3853

> <Gold.PLP.Chemscore.CHOScore>
0.0000

> <Gold.PLP.Chemscore.Metal>
0.0000

> <Gold.Chemscore.Hbonds>
donor molecule, donor type, donor heavy atom, donor atom, acceptor molecule, acceptor atom, score
      L1  H     5    49       P1  8028  2.00
      P1  H  6896  6907       L1    15  0.80
      P1  H  6931  6943       L1    16  0.11

> <Gold.PLP.Chemscore.Internal.Correction>
2.6195

> <Gold.Rescore>
     Score         DG    S(hbond)    S(metal)    S(lipo)     H(rot)  DE(clash)    DE(int)     intcor
     18.57     -20.23       2.57        0.00     104.42       2.36       0.01       1.65       ----

> <Gold.Chemscore.Fitness>
18.5671

> <Gold.Chemscore.DG>
-20.2294

> <Gold.Chemscore.ZeroCoef>
-5.4800

> <Gold.Chemscore.Hbond>
2.5665

> <Gold.Chemscore.Metal>
0.0000

> <Gold.Chemscore.Lipo>
104.4244

> <Gold.Chemscore.Internal_Hbond>
0.0000

> <Gold.Chemscore.DEClash>
0.0089

> <Gold.Chemscore.DEInternal>
1.6534

> <Gold.Chemscore.Rot>
2.3595

> <Gold.Chemscore.Internal.Correction>
   9.000000E+99

> <Gold.Chemscore.Hbonds>
donor molecule, donor type, donor heavy atom, donor atom, acceptor molecule, acceptor atom, score
      L1  H     5    49       P1  8028  1.00
      P1  H  6896  6907       L1    15  0.12
      P1  H  6931  6943       L1    16  0.10

> <Gold.Chemscore.Hbond.Weighted>
-8.5720

> <Gold.Chemscore.Metal.Weighted>
-0.0000

> <Gold.Chemscore.Lipo.Weighted>
-12.2177

> <Gold.Chemscore.Internal_Hbond.Weighted>
0.0000

> <Gold.Chemscore.DEClash.Weighted>
0.0089

> <Gold.Chemscore.DEInternal.Weighted>
1.6534

> <Gold.Chemscore.Rot.Weighted>
6.0403

> <Gold.Chemscore.Internal.Correction.Weighted>
   9.000000E+99

> <Gold.Protein.RotatedTorsions>
[ 6907 6896 6895 6894 ] final  -75.64 input  -60.11 | X-H torsion
[ 7974 7965 7964 7962 ] final  161.91 input  175.53 | X-H torsion
[ 8008 7997 7996 7995 ] final -129.31 input   59.86 | X-H torsion
[ 10167 10162 10161 10158 ] final   70.22 input  -65.29 | X-H torsion
[ 10718 10713 10712 10709 ] final   55.36 input   66.30 | X-H torsion
[ 10763 10752 10751 10750 ] final  -30.26 input  -60.55 | X-H torsion
[ 11005 11000 10999 10996 ] final -111.50 input  -57.11 | X-H torsion

> <Gold.Protein.ActiveResidues>
 VAL166  LYS551  ARG553  GLY616  TRP617  ASP618  TYR619  PRO620  LYS621  CYS622 
 ASP623  PHE694  ASN695  SER759  ASP760  ASP761  ALA762  ILE779  LEU786  VAL792 
 PHE793  MET794  SER795  GLU796  ALA797  LYS798  CYS799  TRP800  GLU811  SER814 

> <Gold.Protein.RotatedAtoms>
  150.7052  134.4691  159.5416 H   0  0  0  0  0  0  0  0  0  0  0  0  # atno 6907 bound_to 6896
  152.2351  134.8281  160.0477 H   0  0  0  0  0  0  0  0  0  0  0  0  # atno 6908 bound_to 6896
  151.9083  133.3520  159.3891 H   0  0  0  0  0  0  0  0  0  0  0  0  # atno 6909 bound_to 6896
  144.7662  139.7965  143.6314 H   0  0  0  0  0  0  0  0  0  0  0  0  # atno 7974 bound_to 7965
  155.2771  140.0442  157.3012 H   0  0  0  0  0  0  0  0  0  0  0  0  # atno 8008 bound_to 7997
  154.5619  140.2348  155.8291 H   0  0  0  0  0  0  0  0  0  0  0  0  # atno 8009 bound_to 7997
  156.2054  140.3014  155.9623 H   0  0  0  0  0  0  0  0  0  0  0  0  # atno 8010 bound_to 7997
  140.0593  144.5246  150.7305 H   0  0  0  0  0  0  0  0  0  0  0  0  # atno 10167 bound_to 10162
  157.5338  130.8649  149.8725 H   0  0  0  0  0  0  0  0  0  0  0  0  # atno 10718 bound_to 10713
  153.7780  135.6907  153.4894 H   0  0  0  0  0  0  0  0  0  0  0  0  # atno 10763 bound_to 10752
  153.1830  135.4499  155.0051 H   0  0  0  0  0  0  0  0  0  0  0  0  # atno 10764 bound_to 10752
  154.8092  135.3370  154.7285 H   0  0  0  0  0  0  0  0  0  0  0  0  # atno 10765 bound_to 10752
  141.0731  133.9347  157.2445 H   0  0  0  0  0  0  0  0  0  0  0  0  # atno 11005 bound_to 11000
  146.1771  139.4947  142.9890 LP  0  0  0  0  0  0  0  0  0  0  0  0  # atno 17320 bound_to 7965
  145.6462  141.0273  143.1785 LP  0  0  0  0  0  0  0  0  0  0  0  0  # atno 17321 bound_to 7965
  140.7179  143.2561  151.4374 LP  0  0  0  0  0  0  0  0  0  0  0  0  # atno 17342 bound_to 10162
  139.5903  144.1513  152.2080 LP  0  0  0  0  0  0  0  0  0  0  0  0  # atno 17343 bound_to 10162
  156.0443  130.3731  150.1357 LP  0  0  0  0  0  0  0  0  0  0  0  0  # atno 17370 bound_to 10713
  156.9541  130.9784  151.3492 LP  0  0  0  0  0  0  0  0  0  0  0  0  # atno 17371 bound_to 10713
  139.9543  135.0169  156.9084 LP  0  0  0  0  0  0  0  0  0  0  0  0  # atno 17394 bound_to 11000
  140.5632  134.0515  155.7405 LP  0  0  0  0  0  0  0  0  0  0  0  0  # atno 17395 bound_to 11000

$$$$
