AV-unprocessed.smi:680|AV-procd|sdf|3323|dock9
  -GOLD-   22720 0293D 1   1.00000     0.00000
 Structure written by MMmdl.
 32 33  0  0  0  0  0  0  0  0  1 V2000
  150.6819  141.9919  156.2243 C   0  0  0  0  0  0  0  0  0  0  0  0
  150.3657  140.8140  155.3507 C   0  0  0  0  0  0  0  0  0  0  0  0
  149.0951  140.3789  154.8815 C   0  0  0  0  0  0  0  0  0  0  0  0
  149.4091  139.2734  154.1369 C   0  0  0  0  0  0  0  0  0  0  0  0
  148.5739  138.4561  153.4439 N   0  0  0  0  0  0  0  0  0  0  0  0
  147.2297  138.4611  153.4020 C   0  0  0  0  0  0  0  0  0  0  0  0
  146.4991  139.2435  154.0101 O   0  0  0  0  0  0  0  0  0  0  0  0
  146.7697  137.4856  152.6049 N   0  0  0  0  0  0  0  0  0  0  0  0
  145.3625  137.1876  152.3493 C   0  0  0  0  0  0  0  0  0  0  0  0
  145.1364  135.6874  152.0806 C   0  0  2  0  0  0  0  0  0  0  0  0
  145.8487  135.2462  150.7890 C   0  0  0  0  0  0  0  0  0  0  0  0
  145.9194  133.4399  150.6232 S   0  0  0  0  0  0  0  0  0  0  0  0
  144.1470  133.0635  150.5532 C   0  0  0  0  0  0  0  0  0  0  0  0
  143.4200  133.4997  151.8308 C   0  0  0  0  0  0  0  0  0  0  0  0
  143.3577  135.3056  151.9910 S   0  0  0  0  0  0  0  0  0  0  0  0
  150.7447  139.0436  154.1383 O   0  0  0  0  0  0  0  0  0  0  0  0
  151.3477  140.0354  154.9209 N   0  0  0  0  0  0  0  0  0  0  0  0
  149.7760  142.5339  156.4965 H   0  0  0  0  0  0  0  0  0  0  0  0
  151.3457  142.6912  155.7154 H   0  0  0  0  0  0  0  0  0  0  0  0
  151.1705  141.6777  157.1470 H   0  0  0  0  0  0  0  0  0  0  0  0
  148.1281  140.8199  155.0700 H   0  0  0  0  0  0  0  0  0  0  0  0
  149.0313  137.7413  152.8975 H   0  0  0  0  0  0  0  0  0  0  0  0
  147.4458  136.8915  152.1476 H   0  0  0  0  0  0  0  0  0  0  0  0
  144.7209  137.5243  153.1655 H   0  0  0  0  0  0  0  0  0  0  0  0
  145.0671  137.7672  151.4743 H   0  0  0  0  0  0  0  0  0  0  0  0
  145.5556  135.1254  152.9165 H   0  0  0  0  0  0  0  0  0  0  0  0
  145.3608  135.6732  149.9121 H   0  0  0  0  0  0  0  0  0  0  0  0
  146.8765  135.6099  150.7855 H   0  0  0  0  0  0  0  0  0  0  0  0
  143.7084  133.5432  149.6776 H   0  0  0  0  0  0  0  0  0  0  0  0
  144.0355  131.9879  150.4152 H   0  0  0  0  0  0  0  0  0  0  0  0
  142.3955  133.1279  151.8148 H   0  0  0  0  0  0  0  0  0  0  0  0
  143.8985  133.0728  152.7128 H   0  0  0  0  0  0  0  0  0  0  0  0
  1  2  1  0  0  0  0
  1 18  1  0  0  0  0
  1 19  1  0  0  0  0
  1 20  1  0  0  0  0
  2 17  2  0  0  0  0
  2  3  1  0  0  0  0
  3  4  2  0  0  0  0
  3 21  1  0  0  0  0
  4  5  1  0  0  0  0
  4 16  1  0  0  0  0
  5  6  1  0  0  0  0
  5 22  1  0  0  0  0
  6  7  2  0  0  0  0
  6  8  1  0  0  0  0
  8  9  1  0  0  0  0
  8 23  1  0  0  0  0
  9 10  1  0  0  0  0
  9 24  1  0  0  0  0
  9 25  1  0  0  0  0
 10 15  1  0  0  0  0
 10 11  1  0  0  0  0
 10 26  1  0  0  0  0
 11 12  1  0  0  0  0
 11 27  1  0  0  0  0
 11 28  1  0  0  0  0
 12 13  1  0  0  0  0
 13 14  1  0  0  0  0
 13 29  1  0  0  0  0
 13 30  1  0  0  0  0
 14 15  1  0  0  0  0
 14 31  1  0  0  0  0
 14 32  1  0  0  0  0
 16 17  1  0  0  0  0
M  END
> <s_m_source_file>
AV-unprocessed.smi

> <i_m_source_file_index>
680

> <i_lp_mmshare_version>
43012

> <i_f3d_flags>
0

> <s_epik_input>
W0NIM11jMVtjSF1jKG9uMSlbTkhdQyg9TylbTkhdW0NIMl1bQ0BASF0yW0NIMl1TW0NIMl1bQ0gyXVMy

> <s_epik_cmdline>
J2VwaWtfcHl0aG9uJywgJy1waCcsICc3LjAnLCAnLXRuJywgJzgnLCAnLW1hJywgJzIwMCcsICctbWV0YWxfYmluZGluZycsICctaW1hZScsICc8aW5maWxlLm1hZT4nLCAnLW9tYWUnLCAnPG91dGZpbGUubWFlPic=

> <r_epik_Ionization_Penalty>
0.000554698

> <r_epik_Ionization_Penalty_Charging>
0

> <r_epik_Ionization_Penalty_Neutral>
0.000554698

> <r_epik_State_Penalty>
0.000333438

> <r_epik_Charging_Adjusted_Penalty>
0.000333438

> <i_epik_Tot_Q>
0

> <i_epik_Tot_abs_Q>
0

> <r_epik_Metal_State_Penalty>
-0

> <b_epik_Metal_Only>
0

> <s_lp_Force_Field>
OPLS_2005

> <r_lp_Energy>
4.32293

> <b_lp_Chiralities_Consistent>
1

> <s_lp_Variant>
AV-unprocessed.smi:680-1

> <Gold.Version>
5.8.1

> <Gold.Id.Protein>
6NUR|6NUR_protein|mol2

> <Gold.PLP.Fitness>
36.8500

> <Gold.PLP.PLP>
-30.2560

> <Gold.PLP.part.hbond>
-4.8446

> <Gold.PLP.part.metal>
0.0000

> <Gold.PLP.part.buried>
-1.5717

> <Gold.PLP.part.nonpolar>
-23.4758

> <Gold.PLP.part.repulsive>
0.4897

> <Gold.PLP.ligand.clash>
0.0000

> <Gold.PLP.ligand.torsion>
0.2145

> <Gold.PLP.Chemscore.Hbond>
2.3400

> <Gold.PLP.Chemscore.CHOScore>
0.0000

> <Gold.PLP.Chemscore.Metal>
0.0000

> <Gold.Chemscore.Hbonds>
donor molecule, donor type, donor heavy atom, donor atom, acceptor molecule, acceptor atom, score
      L1  H     5    22       P1  7948  1.00
      L1  H     8    23       P1  7948  1.00
      P1  H  7989  7998       L1    17  0.34

> <Gold.PLP.Chemscore.Internal.Correction>
0.0030

> <Gold.Rescore>
     Score         DG    S(hbond)    S(metal)    S(lipo)     H(rot)  DE(clash)    DE(int)     intcor
     14.89     -16.45       1.96        0.00      65.38       1.26       0.21       1.35       ----

> <Gold.Chemscore.Fitness>
14.8876

> <Gold.Chemscore.DG>
-16.4528

> <Gold.Chemscore.ZeroCoef>
-5.4800

> <Gold.Chemscore.Hbond>
1.9599

> <Gold.Chemscore.Metal>
0.0000

> <Gold.Chemscore.Lipo>
65.3847

> <Gold.Chemscore.Internal_Hbond>
0.0000

> <Gold.Chemscore.DEClash>
0.2138

> <Gold.Chemscore.DEInternal>
1.3514

> <Gold.Chemscore.Rot>
1.2590

> <Gold.Chemscore.Internal.Correction>
   9.000000E+99

> <Gold.Chemscore.Hbonds>
donor molecule, donor type, donor heavy atom, donor atom, acceptor molecule, acceptor atom, score
      L1  H     5    22       P1  7948  0.96
      L1  H     8    23       P1  7948  0.99

> <Gold.Chemscore.Hbond.Weighted>
-6.5460

> <Gold.Chemscore.Metal.Weighted>
-0.0000

> <Gold.Chemscore.Lipo.Weighted>
-7.6500

> <Gold.Chemscore.Internal_Hbond.Weighted>
0.0000

> <Gold.Chemscore.DEClash.Weighted>
0.2138

> <Gold.Chemscore.DEInternal.Weighted>
1.3514

> <Gold.Chemscore.Rot.Weighted>
3.2232

> <Gold.Chemscore.Internal.Correction.Weighted>
   9.000000E+99

> <Gold.Protein.RotatedTorsions>
[ 6907 6896 6895 6894 ] final   53.63 input  -60.11 | X-H torsion
[ 7974 7965 7964 7962 ] final -156.59 input  175.53 | X-H torsion
[ 8008 7997 7996 7995 ] final -154.45 input   59.86 | X-H torsion
[ 10167 10162 10161 10158 ] final  -10.76 input  -65.29 | X-H torsion
[ 10718 10713 10712 10709 ] final   34.14 input   66.30 | X-H torsion
[ 10763 10752 10751 10750 ] final  113.85 input  -60.55 | X-H torsion
[ 11005 11000 10999 10996 ] final   28.12 input  -57.11 | X-H torsion

> <Gold.Protein.ActiveResidues>
 VAL166  LYS551  ARG553  GLY616  TRP617  ASP618  TYR619  PRO620  LYS621  CYS622 
 ASP623  PHE694  ASN695  SER759  ASP760  ASP761  ALA762  ILE779  LEU786  VAL792 
 PHE793  MET794  SER795  GLU796  ALA797  LYS798  CYS799  TRP800  GLU811  SER814 

> <Gold.Protein.RotatedAtoms>
  152.3357  134.7201  160.0277 H   0  0  0  0  0  0  0  0  0  0  0  0  # atno 6907 bound_to 6896
  151.7603  133.3328  159.3424 H   0  0  0  0  0  0  0  0  0  0  0  0  # atno 6908 bound_to 6896
  150.7449  134.6044  159.6098 H   0  0  0  0  0  0  0  0  0  0  0  0  # atno 6909 bound_to 6896
  144.7586  140.4088  143.5993 H   0  0  0  0  0  0  0  0  0  0  0  0  # atno 7974 bound_to 7965
  155.6866  140.0750  157.2464 H   0  0  0  0  0  0  0  0  0  0  0  0  # atno 8008 bound_to 7997
  154.4096  140.1672  156.2093 H   0  0  0  0  0  0  0  0  0  0  0  0  # atno 8009 bound_to 7997
  155.9488  140.3379  155.6393 H   0  0  0  0  0  0  0  0  0  0  0  0  # atno 8010 bound_to 7997
  140.7122  143.5713  150.9090 H   0  0  0  0  0  0  0  0  0  0  0  0  # atno 10167 bound_to 10162
  157.3067  130.7378  149.6699 H   0  0  0  0  0  0  0  0  0  0  0  0  # atno 10718 bound_to 10713
  153.4985  135.3643  155.2528 H   0  0  0  0  0  0  0  0  0  0  0  0  # atno 10763 bound_to 10752
  154.8749  135.3994  154.3506 H   0  0  0  0  0  0  0  0  0  0  0  0  # atno 10764 bound_to 10752
  153.4138  135.7078  153.6407 H   0  0  0  0  0  0  0  0  0  0  0  0  # atno 10765 bound_to 10752
  140.3190  134.2565  155.7720 H   0  0  0  0  0  0  0  0  0  0  0  0  # atno 11005 bound_to 11000
  145.6694  139.1596  143.2763 LP  0  0  0  0  0  0  0  0  0  0  0  0  # atno 17320 bound_to 7965
  146.1625  140.6767  142.9271 LP  0  0  0  0  0  0  0  0  0  0  0  0  # atno 17321 bound_to 7965
  139.9439  143.6350  152.3047 LP  0  0  0  0  0  0  0  0  0  0  0  0  # atno 17342 bound_to 10162
  139.6845  144.7653  151.1549 LP  0  0  0  0  0  0  0  0  0  0  0  0  # atno 17343 bound_to 10162
  155.9675  130.4264  150.4696 LP  0  0  0  0  0  0  0  0  0  0  0  0  # atno 17370 bound_to 10713
  157.2686  131.0582  151.2274 LP  0  0  0  0  0  0  0  0  0  0  0  0  # atno 17371 bound_to 10713
  141.2091  133.7759  157.0018 LP  0  0  0  0  0  0  0  0  0  0  0  0  # atno 17394 bound_to 11000
  140.0958  134.9565  157.1848 LP  0  0  0  0  0  0  0  0  0  0  0  0  # atno 17395 bound_to 11000

$$$$
