AV-unprocessed.smi:3064|AV-procd|sdf|11690|dock9
  -GOLD-   2272017 93D 1   1.00000     0.00000
 Structure written by MMmdl.
 21 22  0  0  0  0  0  0  0  0  1 V2000
  151.4744  142.9167  157.6154 C   0  0  0  0  0  0  0  0  0  0  0  0
  151.2917  144.2574  157.8391 C   0  0  0  0  0  0  0  0  0  0  0  0
  151.6593  144.6923  159.4857 S   0  0  0  0  0  0  0  0  0  0  0  0
  152.0724  143.0109  159.8085 C   0  0  0  0  0  0  0  0  0  0  0  0
  152.4965  142.5256  161.1584 C   0  0  1  0  0  0  0  0  0  0  0  0
  153.8819  141.8514  161.1293 C   0  0  0  0  0  0  0  0  0  0  0  0
  154.2848  141.4646  162.4804 N   0  0  0  0  0  0  0  0  0  0  0  0
  154.2492  142.6088  163.3899 C   0  0  0  0  0  0  0  0  0  0  0  0
  152.8602  143.2723  163.3619 C   0  0  0  0  0  0  0  0  0  0  0  0
  152.5387  143.6545  162.0287 O   0  0  0  0  0  0  0  0  0  0  0  0
  151.9077  142.2175  158.7444 N   0  0  0  0  0  0  0  0  0  0  0  0
  151.3178  142.3789  156.6920 H   0  0  0  0  0  0  0  0  0  0  0  0
  150.9614  145.0109  157.1398 H   0  0  0  0  0  0  0  0  0  0  0  0
  151.7427  141.8211  161.5148 H   0  0  0  0  0  0  0  0  0  0  0  0
  153.8614  140.9756  160.4804 H   0  0  0  0  0  0  0  0  0  0  0  0
  154.6172  142.5376  160.7069 H   0  0  0  0  0  0  0  0  0  0  0  0
  155.2226  141.0769  162.4579 H   0  0  0  0  0  0  0  0  0  0  0  0
  154.4918  142.2892  164.4035 H   0  0  0  0  0  0  0  0  0  0  0  0
  155.0081  143.3370  163.1007 H   0  0  0  0  0  0  0  0  0  0  0  0
  152.0974  142.5988  163.7559 H   0  0  0  0  0  0  0  0  0  0  0  0
  152.8568  144.1603  163.9941 H   0  0  0  0  0  0  0  0  0  0  0  0
  1 11  1  0  0  0  0
  1  2  2  0  0  0  0
  1 12  1  0  0  0  0
  2  3  1  0  0  0  0
  2 13  1  0  0  0  0
  3  4  1  0  0  0  0
  4  5  1  0  0  0  0
  4 11  2  0  0  0  0
  5 10  1  0  0  0  0
  5  6  1  0  0  0  0
  5 14  1  0  0  0  0
  6  7  1  0  0  0  0
  6 15  1  0  0  0  0
  6 16  1  0  0  0  0
  7  8  1  0  0  0  0
  7 17  1  0  0  0  0
  8  9  1  0  0  0  0
  8 18  1  0  0  0  0
  8 19  1  0  0  0  0
  9 10  1  0  0  0  0
  9 20  1  0  0  0  0
  9 21  1  0  0  0  0
M  END
> <s_m_source_file>
AV-unprocessed.smi

> <i_m_source_file_index>
3064

> <i_lp_mmshare_version>
43012

> <i_f3d_flags>
0

> <s_epik_input>
bjFbY0hdW2NIXXNjMVtDQEBIXTJbQ0gyXVtOSF1bQ0gyXVtDSDJdTzI=

> <s_epik_cmdline>
J2VwaWtfcHl0aG9uJywgJy1waCcsICc3LjAnLCAnLXRuJywgJzgnLCAnLW1hJywgJzIwMCcsICctbWV0YWxfYmluZGluZycsICctaW1hZScsICc8aW5maWxlLm1hZT4nLCAnLW9tYWUnLCAnPG91dGZpbGUubWFlPic=

> <r_epik_Ionization_Penalty>
0.980767

> <r_epik_Ionization_Penalty_Charging>
0

> <r_epik_Ionization_Penalty_Neutral>
0.980767

> <r_epik_State_Penalty>
1.0271

> <r_epik_Charging_Adjusted_Penalty>
1.0271

> <i_epik_Tot_Q>
0

> <i_epik_Tot_abs_Q>
0

> <r_epik_Metal_State_Penalty>
1.02673

> <b_epik_Metal_Only>
0

> <s_lp_Force_Field>
OPLS_2005

> <r_lp_Energy>
8.04051

> <b_lp_Chiralities_Consistent>
1

> <s_lp_Variant>
AV-unprocessed.smi:3064-4

> <Gold.Version>
5.8.1

> <Gold.Id.Protein>
6NUR|6NUR_protein|mol2

> <Gold.PLP.Fitness>
28.2649

> <Gold.PLP.PLP>
-25.6387

> <Gold.PLP.part.hbond>
-1.0000

> <Gold.PLP.part.metal>
0.0000

> <Gold.PLP.part.buried>
1.3015

> <Gold.PLP.part.nonpolar>
-25.9229

> <Gold.PLP.part.repulsive>
0.1554

> <Gold.PLP.ligand.clash>
0.0000

> <Gold.PLP.ligand.torsion>
0.0067

> <Gold.PLP.Chemscore.Hbond>
0.0000

> <Gold.PLP.Chemscore.CHOScore>
0.8763

> <Gold.PLP.Chemscore.Metal>
0.0000

> <Gold.Chemscore.Hbonds>
donor molecule, donor type, donor heavy atom, donor atom, acceptor molecule, acceptor atom, score
      L1  C     2    13       P1  8028  0.88

> <Gold.PLP.Chemscore.Internal.Correction>
0.0106

> <Gold.Rescore>
     Score         DG    S(hbond)    S(metal)    S(lipo)     H(rot)  DE(clash)    DE(int)     intcor
     13.20     -13.73       0.00        0.00      92.42       1.00       0.53       0.01       ----

> <Gold.Chemscore.Fitness>
13.1979

> <Gold.Chemscore.DG>
-13.7326

> <Gold.Chemscore.ZeroCoef>
-5.4800

> <Gold.Chemscore.Hbond>
0.0000

> <Gold.Chemscore.Metal>
0.0000

> <Gold.Chemscore.Lipo>
92.4158

> <Gold.Chemscore.Internal_Hbond>
0.0000

> <Gold.Chemscore.DEClash>
0.5294

> <Gold.Chemscore.DEInternal>
0.0053

> <Gold.Chemscore.Rot>
1.0000

> <Gold.Chemscore.Internal.Correction>
   9.000000E+99

> <Gold.Chemscore.Hbond.Weighted>
-0.0000

> <Gold.Chemscore.Metal.Weighted>
-0.0000

> <Gold.Chemscore.Lipo.Weighted>
-10.8126

> <Gold.Chemscore.Internal_Hbond.Weighted>
0.0000

> <Gold.Chemscore.DEClash.Weighted>
0.5294

> <Gold.Chemscore.DEInternal.Weighted>
0.0053

> <Gold.Chemscore.Rot.Weighted>
2.5600

> <Gold.Chemscore.Internal.Correction.Weighted>
   9.000000E+99

> <Gold.Protein.RotatedTorsions>
[ 6907 6896 6895 6894 ] final -119.16 input  -60.11 | X-H torsion
[ 7974 7965 7964 7962 ] final -134.49 input  175.53 | X-H torsion
[ 8008 7997 7996 7995 ] final -139.59 input   59.86 | X-H torsion
[ 10167 10162 10161 10158 ] final  -22.36 input  -65.29 | X-H torsion
[ 10718 10713 10712 10709 ] final -159.52 input   66.30 | X-H torsion
[ 10763 10752 10751 10750 ] final  -55.87 input  -60.55 | X-H torsion
[ 11005 11000 10999 10996 ] final   28.93 input  -57.11 | X-H torsion

> <Gold.Protein.ActiveResidues>
 VAL166  LYS551  ARG553  GLY616  TRP617  ASP618  TYR619  PRO620  LYS621  CYS622 
 ASP623  PHE694  ASN695  SER759  ASP760  ASP761  ALA762  ILE779  LEU786  VAL792 
 PHE793  MET794  SER795  GLU796  ALA797  LYS798  CYS799  TRP800  GLU811  SER814 

> <Gold.Protein.RotatedAtoms>
  150.8282  133.8136  159.3109 H   0  0  0  0  0  0  0  0  0  0  0  0  # atno 6907 bound_to 6896
  151.5874  135.1053  160.0041 H   0  0  0  0  0  0  0  0  0  0  0  0  # atno 6908 bound_to 6896
  152.4364  133.7328  159.6653 H   0  0  0  0  0  0  0  0  0  0  0  0  # atno 6909 bound_to 6896
  144.9098  140.6880  143.5032 H   0  0  0  0  0  0  0  0  0  0  0  0  # atno 7974 bound_to 7965
  155.4474  140.0536  157.3004 H   0  0  0  0  0  0  0  0  0  0  0  0  # atno 8008 bound_to 7997
  154.4792  140.2074  155.9761 H   0  0  0  0  0  0  0  0  0  0  0  0  # atno 8009 bound_to 7997
  156.1179  140.3193  155.8170 H   0  0  0  0  0  0  0  0  0  0  0  0  # atno 8010 bound_to 7997
  140.7285  143.4542  151.0472 H   0  0  0  0  0  0  0  0  0  0  0  0  # atno 10167 bound_to 10162
  156.5693  130.8681  151.2833 H   0  0  0  0  0  0  0  0  0  0  0  0  # atno 10718 bound_to 10713
  154.1977  135.6416  153.5078 H   0  0  0  0  0  0  0  0  0  0  0  0  # atno 10763 bound_to 10752
  153.0019  135.5444  154.6348 H   0  0  0  0  0  0  0  0  0  0  0  0  # atno 10764 bound_to 10752
  154.5753  135.2920  155.0760 H   0  0  0  0  0  0  0  0  0  0  0  0  # atno 10765 bound_to 10752
  140.3103  134.2657  155.7735 H   0  0  0  0  0  0  0  0  0  0  0  0  # atno 11005 bound_to 11000
  145.3474  139.1715  143.4453 LP  0  0  0  0  0  0  0  0  0  0  0  0  # atno 17320 bound_to 7965
  146.3152  140.3522  142.8657 LP  0  0  0  0  0  0  0  0  0  0  0  0  # atno 17321 bound_to 7965
  139.8221  143.7805  152.3177 LP  0  0  0  0  0  0  0  0  0  0  0  0  # atno 17342 bound_to 10162
  139.7892  144.7416  150.9979 LP  0  0  0  0  0  0  0  0  0  0  0  0  # atno 17343 bound_to 10162
  157.7352  130.9758  150.2067 LP  0  0  0  0  0  0  0  0  0  0  0  0  # atno 17370 bound_to 10713
  156.2729  130.3724  149.8013 LP  0  0  0  0  0  0  0  0  0  0  0  0  # atno 17371 bound_to 10713
  141.2109  133.7704  156.9898 LP  0  0  0  0  0  0  0  0  0  0  0  0  # atno 17394 bound_to 11000
  140.1030  134.9523  157.1952 LP  0  0  0  0  0  0  0  0  0  0  0  0  # atno 17395 bound_to 11000

$$$$
