AV-unprocessed.smi:1040|AV-procd|sdf|4524|dock6
  -GOLD-   22720 2543D 1   1.00000     0.00000
 Structure written by MMmdl.
 54 55  0  0  0  0  0  0  0  0  1 V2000
  147.0746  133.9254  157.3456 C   0  0  0  0  0  0  0  0  0  0  0  0
  146.7429  135.2486  158.0559 C   0  0  2  0  0  0  0  0  0  0  0  0
  147.4210  136.3287  157.3411 N   0  0  0  0  0  0  0  0  0  0  0  0
  148.7429  136.4055  157.1257 C   0  0  0  0  0  0  0  0  0  0  0  0
  149.5427  135.5615  157.5286 O   0  0  0  0  0  0  0  0  0  0  0  0
  149.0478  137.5068  156.4188 N   0  0  0  0  0  0  0  0  0  0  0  0
  150.3104  137.9937  155.9647 C   0  0  0  0  0  0  0  0  0  0  0  0
  151.5511  137.3905  156.2907 C   0  0  0  0  0  0  0  0  0  0  0  0
  152.7398  137.9411  155.7786 C   0  0  0  0  0  0  0  0  0  0  0  0
  152.6516  139.0775  154.9568 C   0  0  0  0  0  0  0  0  0  0  0  0
  151.4825  139.6690  154.6414 N   0  0  0  0  0  0  0  0  0  0  0  0
  150.3321  139.1470  155.1330 C   0  0  0  0  0  0  0  0  0  0  0  0
  149.1329  139.8089  154.8019 N   0  0  0  0  0  0  0  0  0  0  0  0
  149.3309  141.1976  154.3909 C   0  0  0  0  0  0  0  0  0  0  0  0
  147.9948  141.9599  154.3861 C   0  0  0  0  0  0  0  0  0  0  0  0
  146.9490  141.2326  153.5255 C   0  0  0  0  0  0  0  0  0  0  0  0
  146.8053  139.7711  153.9805 C   0  0  0  0  0  0  0  0  0  0  0  0
  148.1703  139.0618  153.9930 C   0  0  0  0  0  0  0  0  0  0  0  0
  147.2540  135.1550  159.5022 C   0  0  0  0  0  0  0  0  0  0  0  0
  148.4620  135.0773  159.7304 O   0  0  0  0  0  0  0  0  0  0  0  0
  146.3079  135.1475  160.4579 N   0  0  0  0  0  0  0  0  0  0  0  0
  146.4804  135.0617  161.9128 C   0  0  0  0  0  0  0  0  0  0  0  0
  147.2510  136.3207  162.3473 C   0  0  0  0  0  0  0  0  0  0  0  0
  147.3059  133.8142  162.2934 C   0  0  0  0  0  0  0  0  0  0  0  0
  145.1092  135.0437  162.6202 C   0  0  0  0  0  0  0  0  0  0  0  0
  146.5959  133.0794  157.8408 H   0  0  0  0  0  0  0  0  0  0  0  0
  148.1485  133.7333  157.3234 H   0  0  0  0  0  0  0  0  0  0  0  0
  146.7220  133.9383  156.3140 H   0  0  0  0  0  0  0  0  0  0  0  0
  145.6633  135.4112  158.0419 H   0  0  0  0  0  0  0  0  0  0  0  0
  146.8357  137.0607  156.9668 H   0  0  0  0  0  0  0  0  0  0  0  0
  148.2598  138.0750  156.1438 H   0  0  0  0  0  0  0  0  0  0  0  0
  151.6282  136.5209  156.9222 H   0  0  0  0  0  0  0  0  0  0  0  0
  153.6980  137.5003  156.0106 H   0  0  0  0  0  0  0  0  0  0  0  0
  153.5433  139.5262  154.5447 H   0  0  0  0  0  0  0  0  0  0  0  0
  150.0384  141.6997  155.0515 H   0  0  0  0  0  0  0  0  0  0  0  0
  149.7708  141.2099  153.3926 H   0  0  0  0  0  0  0  0  0  0  0  0
  147.6257  142.0537  155.4084 H   0  0  0  0  0  0  0  0  0  0  0  0
  148.1446  142.9745  154.0162 H   0  0  0  0  0  0  0  0  0  0  0  0
  145.9879  141.7436  153.5878 H   0  0  0  0  0  0  0  0  0  0  0  0
  147.2524  141.2619  152.4782 H   0  0  0  0  0  0  0  0  0  0  0  0
  146.3704  139.7409  154.9804 H   0  0  0  0  0  0  0  0  0  0  0  0
  146.1145  139.2400  153.3255 H   0  0  0  0  0  0  0  0  0  0  0  0
  148.5465  138.9682  152.9731 H   0  0  0  0  0  0  0  0  0  0  0  0
  148.0589  138.0518  154.3898 H   0  0  0  0  0  0  0  0  0  0  0  0
  145.3519  135.2147  160.1398 H   0  0  0  0  0  0  0  0  0  0  0  0
  147.4277  136.3268  163.4235 H   0  0  0  0  0  0  0  0  0  0  0  0
  146.7008  137.2300  162.1017 H   0  0  0  0  0  0  0  0  0  0  0  0
  148.2230  136.3822  161.8560 H   0  0  0  0  0  0  0  0  0  0  0  0
  148.2624  133.7961  161.7693 H   0  0  0  0  0  0  0  0  0  0  0  0
  146.7833  132.8872  162.0583 H   0  0  0  0  0  0  0  0  0  0  0  0
  147.5183  133.7963  163.3628 H   0  0  0  0  0  0  0  0  0  0  0  0
  145.2266  135.0747  163.7040 H   0  0  0  0  0  0  0  0  0  0  0  0
  144.5390  134.1446  162.3867 H   0  0  0  0  0  0  0  0  0  0  0  0
  144.5027  135.9031  162.3318 H   0  0  0  0  0  0  0  0  0  0  0  0
  1  2  1  0  0  0  0
  1 26  1  0  0  0  0
  1 27  1  0  0  0  0
  1 28  1  0  0  0  0
  2  3  1  0  0  0  0
  2 19  1  0  0  0  0
  2 29  1  0  0  0  0
  3  4  1  0  0  0  0
  3 30  1  0  0  0  0
  4  5  2  0  0  0  0
  4  6  1  0  0  0  0
  6  7  1  0  0  0  0
  6 31  1  0  0  0  0
  7 12  1  0  0  0  0
  7  8  2  0  0  0  0
  8  9  1  0  0  0  0
  8 32  1  0  0  0  0
  9 10  2  0  0  0  0
  9 33  1  0  0  0  0
 10 11  1  0  0  0  0
 10 34  1  0  0  0  0
 11 12  2  0  0  0  0
 12 13  1  0  0  0  0
 13 18  1  0  0  0  0
 13 14  1  0  0  0  0
 14 15  1  0  0  0  0
 14 35  1  0  0  0  0
 14 36  1  0  0  0  0
 15 16  1  0  0  0  0
 15 37  1  0  0  0  0
 15 38  1  0  0  0  0
 16 17  1  0  0  0  0
 16 39  1  0  0  0  0
 16 40  1  0  0  0  0
 17 18  1  0  0  0  0
 17 41  1  0  0  0  0
 17 42  1  0  0  0  0
 18 43  1  0  0  0  0
 18 44  1  0  0  0  0
 19 20  2  0  0  0  0
 19 21  1  0  0  0  0
 21 22  1  0  0  0  0
 21 45  1  0  0  0  0
 22 23  1  0  0  0  0
 22 24  1  0  0  0  0
 22 25  1  0  0  0  0
 23 46  1  0  0  0  0
 23 47  1  0  0  0  0
 23 48  1  0  0  0  0
 24 49  1  0  0  0  0
 24 50  1  0  0  0  0
 24 51  1  0  0  0  0
 25 52  1  0  0  0  0
 25 53  1  0  0  0  0
 25 54  1  0  0  0  0
M  END
> <s_m_source_file>
AV-unprocessed.smi

> <i_m_source_file_index>
1040

> <i_lp_mmshare_version>
43012

> <i_f3d_flags>
0

> <s_epik_input>
W0NIM11DKFtDSDNdKShbQ0gzXSlbTkhdQyg9TylbQ0BIXShbQ0gzXSlbTkhdQyg9TylbTkhdYzFbY0hdW2NIXVtjSF1uYzFOMltDSDJdW0NIMl1bQ0gyXVtDSDJdW0NIMl0y

> <s_epik_cmdline>
J2VwaWtfcHl0aG9uJywgJy1waCcsICc3LjAnLCAnLXRuJywgJzgnLCAnLW1hJywgJzIwMCcsICctbWV0YWxfYmluZGluZycsICctaW1hZScsICc8aW5maWxlLm1hZT4nLCAnLW9tYWUnLCAnPG91dGZpbGUubWFlPic=

> <r_lp_tautomer_probability>
1

> <r_epik_Ionization_Penalty>
0.0878593

> <r_epik_Ionization_Penalty_Charging>
0

> <r_epik_Ionization_Penalty_Neutral>
0.0878593

> <r_epik_State_Penalty>
0.07381

> <r_epik_Charging_Adjusted_Penalty>
0.07381

> <i_epik_Tot_Q>
0

> <i_epik_Tot_abs_Q>
0

> <r_epik_Metal_State_Penalty>
0.0646628

> <b_epik_Metal_Only>
0

> <s_lp_Force_Field>
OPLS_2005

> <r_lp_Energy>
21.1097

> <b_lp_Chiralities_Consistent>
1

> <s_lp_Variant>
AV-unprocessed.smi:1040-1

> <Gold.Version>
5.8.1

> <Gold.Id.Protein>
6NUR|6NUR_protein|mol2

> <Gold.PLP.Fitness>
40.7567

> <Gold.PLP.PLP>
-35.3952

> <Gold.PLP.part.hbond>
-2.1438

> <Gold.PLP.part.metal>
0.0000

> <Gold.PLP.part.buried>
-3.3557

> <Gold.PLP.part.nonpolar>
-31.0861

> <Gold.PLP.part.repulsive>
0.1605

> <Gold.PLP.ligand.clash>
0.0000

> <Gold.PLP.ligand.torsion>
0.4500

> <Gold.PLP.Chemscore.Hbond>
1.9920

> <Gold.PLP.Chemscore.CHOScore>
0.0000

> <Gold.PLP.Chemscore.Metal>
0.0000

> <Gold.Chemscore.Hbonds>
donor molecule, donor type, donor heavy atom, donor atom, acceptor molecule, acceptor atom, score
      P1  H  6896  6909       L1    20  0.44
      P1  H  7989  7998       L1    11  1.00

> <Gold.PLP.Chemscore.Internal.Correction>
0.2856

> <Gold.Rescore>
     Score         DG    S(hbond)    S(metal)    S(lipo)     H(rot)  DE(clash)    DE(int)     intcor
     13.49     -18.08       1.70        0.00      94.49       1.61       0.07       4.51       ----

> <Gold.Chemscore.Fitness>
13.4880

> <Gold.Chemscore.DG>
-18.0759

> <Gold.Chemscore.ZeroCoef>
-5.4800

> <Gold.Chemscore.Hbond>
1.6987

> <Gold.Chemscore.Metal>
0.0000

> <Gold.Chemscore.Lipo>
94.4872

> <Gold.Chemscore.Internal_Hbond>
0.0000

> <Gold.Chemscore.DEClash>
0.0741

> <Gold.Chemscore.DEInternal>
4.5138

> <Gold.Chemscore.Rot>
1.6143

> <Gold.Chemscore.Internal.Correction>
   9.000000E+99

> <Gold.Chemscore.Hbonds>
donor molecule, donor type, donor heavy atom, donor atom, acceptor molecule, acceptor atom, score
      P1  H  6896  6909       L1    20  0.41
      P1  H  7989  7998       L1    11  0.85

> <Gold.Chemscore.Hbond.Weighted>
-5.6735

> <Gold.Chemscore.Metal.Weighted>
-0.0000

> <Gold.Chemscore.Lipo.Weighted>
-11.0550

> <Gold.Chemscore.Internal_Hbond.Weighted>
0.0000

> <Gold.Chemscore.DEClash.Weighted>
0.0741

> <Gold.Chemscore.DEInternal.Weighted>
4.5138

> <Gold.Chemscore.Rot.Weighted>
4.1326

> <Gold.Chemscore.Internal.Correction.Weighted>
   9.000000E+99

> <Gold.Protein.RotatedTorsions>
[ 6907 6896 6895 6894 ] final   46.81 input  -60.11 | X-H torsion
[ 7974 7965 7964 7962 ] final -178.25 input  175.53 | X-H torsion
[ 8008 7997 7996 7995 ] final  -47.77 input   59.86 | X-H torsion
[ 10167 10162 10161 10158 ] final  -69.19 input  -65.29 | X-H torsion
[ 10718 10713 10712 10709 ] final  -77.66 input   66.30 | X-H torsion
[ 10763 10752 10751 10750 ] final  -45.82 input  -60.55 | X-H torsion
[ 11005 11000 10999 10996 ] final  -27.60 input  -57.11 | X-H torsion

> <Gold.Protein.ActiveResidues>
 VAL166  LYS551  ARG553  GLY616  TRP617  ASP618  TYR619  PRO620  LYS621  CYS622 
 ASP623  PHE694  ASN695  SER759  ASP760  ASP761  ALA762  ILE779  LEU786  VAL792 
 PHE793  MET794  SER795  GLU796  ALA797  LYS798  CYS799  TRP800  GLU811  SER814 

> <Gold.Protein.RotatedAtoms>
  152.2608  134.8036  160.0430 H   0  0  0  0  0  0  0  0  0  0  0  0  # atno 6907 bound_to 6896
  151.8683  133.3465  159.3734 H   0  0  0  0  0  0  0  0  0  0  0  0  # atno 6908 bound_to 6896
  150.7116  134.5065  159.5631 H   0  0  0  0  0  0  0  0  0  0  0  0  # atno 6909 bound_to 6896
  144.7130  140.0896  143.6422 H   0  0  0  0  0  0  0  0  0  0  0  0  # atno 7974 bound_to 7965
  154.4020  140.1338  156.4229 H   0  0  0  0  0  0  0  0  0  0  0  0  # atno 8008 bound_to 7997
  155.7625  140.3486  155.5185 H   0  0  0  0  0  0  0  0  0  0  0  0  # atno 8009 bound_to 7997
  155.8845  140.0993  157.1452 H   0  0  0  0  0  0  0  0  0  0  0  0  # atno 8010 bound_to 7997
  140.5449  143.2313  151.7020 H   0  0  0  0  0  0  0  0  0  0  0  0  # atno 10167 bound_to 10162
  156.0139  130.4497  150.3379 H   0  0  0  0  0  0  0  0  0  0  0  0  # atno 10718 bound_to 10713
  154.0349  135.6652  153.4784 H   0  0  0  0  0  0  0  0  0  0  0  0  # atno 10763 bound_to 10752
  153.0525  135.5076  154.7898 H   0  0  0  0  0  0  0  0  0  0  0  0  # atno 10764 bound_to 10752
  154.6855  135.3052  154.9519 H   0  0  0  0  0  0  0  0  0  0  0  0  # atno 10765 bound_to 10752
  140.9134  133.7446  156.0701 H   0  0  0  0  0  0  0  0  0  0  0  0  # atno 11005 bound_to 11000
  145.9631  139.2815  143.1143 LP  0  0  0  0  0  0  0  0  0  0  0  0  # atno 17320 bound_to 7965
  145.9198  140.9123  143.0411 LP  0  0  0  0  0  0  0  0  0  0  0  0  # atno 17321 bound_to 7965
  139.5003  144.3910  152.0280 LP  0  0  0  0  0  0  0  0  0  0  0  0  # atno 17342 bound_to 10162
  140.3022  144.3634  150.6057 LP  0  0  0  0  0  0  0  0  0  0  0  0  # atno 17343 bound_to 10162
  157.1475  131.0312  151.2900 LP  0  0  0  0  0  0  0  0  0  0  0  0  # atno 17370 bound_to 10713
  157.4420  130.7549  149.7077 LP  0  0  0  0  0  0  0  0  0  0  0  0  # atno 17371 bound_to 10713
  140.8081  134.3431  157.5420 LP  0  0  0  0  0  0  0  0  0  0  0  0  # atno 17394 bound_to 11000
  139.8761  134.9238  156.3333 LP  0  0  0  0  0  0  0  0  0  0  0  0  # atno 17395 bound_to 11000

$$$$
