AV-unprocessed.smi:801|AV-procd|sdf|3790|dock8
  -GOLD-   22720 1223D 1   1.00000     0.00000
 Structure written by MMmdl.
 43 44  0  0  0  0  0  0  0  0  2 V2000
  153.7517  126.6170  153.3425 C   0  0  0  0  0  0  0  0  0  0  0  0
  152.3451  126.6973  153.4905 O   0  0  0  0  0  0  0  0  0  0  0  0
  151.9144  127.9904  153.8800 C   0  0  0  0  0  0  0  0  0  0  0  0
  150.3922  127.9677  154.0832 C   0  0  0  0  0  0  0  0  0  0  0  0
  149.8446  129.3365  154.1983 N   0  0  0  0  0  0  0  0  0  0  0  0
  149.0163  129.8418  153.1605 C   0  0  0  0  0  0  0  0  0  0  0  0
  148.7945  129.0427  152.0259 N   0  0  0  0  0  0  0  0  0  0  0  0
  148.1388  127.8680  152.0165 C   0  0  0  0  0  0  0  0  0  0  0  0
  148.1213  127.1263  150.6847 C   0  0  0  0  0  0  0  0  0  0  0  0
  147.5832  127.3779  152.9996 O   0  0  0  0  0  0  0  0  0  0  0  0
  148.4930  131.0994  153.2371 C   0  0  0  0  0  0  0  0  0  0  0  0
  147.7212  131.6325  152.2012 N   0  0  0  0  0  0  0  0  0  0  0  0
  147.0638  132.9213  152.0442 C   0  0  0  0  0  0  0  0  0  0  0  0
  145.8910  132.8885  151.0793 C   0  0  0  0  0  0  0  0  0  0  0  0
  146.0985  132.6409  149.7042 C   0  0  0  0  0  0  0  0  0  0  0  0
  145.0066  132.6172  148.8145 C   0  0  0  0  0  0  0  0  0  0  0  0
  143.7022  132.8447  149.2938 C   0  0  0  0  0  0  0  0  0  0  0  0
  143.4906  133.0987  150.6625 C   0  0  0  0  0  0  0  0  0  0  0  0
  144.5823  133.1229  151.5525 C   0  0  0  0  0  0  0  0  0  0  0  0
  148.7945  131.8985  154.4388 C   0  0  0  0  0  0  0  0  0  0  0  0
  148.3211  133.0232  154.5953 O   0  0  0  0  0  0  0  0  0  0  0  0
  149.6171  131.3558  155.3750 N   0  5  0  0  0  0  0  0  0  0  0  0
  150.1572  130.1098  155.2792 C   0  0  0  0  0  0  0  0  0  0  0  0
  150.9195  129.6666  156.1394 O   0  0  0  0  0  0  0  0  0  0  0  0
  154.0317  125.6064  153.0453 H   0  0  0  0  0  0  0  0  0  0  0  0
  154.2609  126.8452  154.2796 H   0  0  0  0  0  0  0  0  0  0  0  0
  154.1072  127.3047  152.5738 H   0  0  0  0  0  0  0  0  0  0  0  0
  152.4136  128.2891  154.8031 H   0  0  0  0  0  0  0  0  0  0  0  0
  152.1825  128.7163  153.1109 H   0  0  0  0  0  0  0  0  0  0  0  0
  149.9163  127.4197  153.2702 H   0  0  0  0  0  0  0  0  0  0  0  0
  150.1530  127.3698  154.9643 H   0  0  0  0  0  0  0  0  0  0  0  0
  149.3033  129.3017  151.1934 H   0  0  0  0  0  0  0  0  0  0  0  0
  149.1299  126.8156  150.4112 H   0  0  0  0  0  0  0  0  0  0  0  0
  147.7301  127.7684  149.8949 H   0  0  0  0  0  0  0  0  0  0  0  0
  147.4929  126.2370  150.7439 H   0  0  0  0  0  0  0  0  0  0  0  0
  147.5734  131.0142  151.4172 H   0  0  0  0  0  0  0  0  0  0  0  0
  146.7184  133.2615  153.0213 H   0  0  0  0  0  0  0  0  0  0  0  0
  147.7841  133.6530  151.6775 H   0  0  0  0  0  0  0  0  0  0  0  0
  147.0958  132.4697  149.3256 H   0  0  0  0  0  0  0  0  0  0  0  0
  145.1702  132.4261  147.7642 H   0  0  0  0  0  0  0  0  0  0  0  0
  142.8648  132.8268  148.6119 H   0  0  0  0  0  0  0  0  0  0  0  0
  142.4906  133.2755  151.0302 H   0  0  0  0  0  0  0  0  0  0  0  0
  144.4101  133.3203  152.6005 H   0  0  0  0  0  0  0  0  0  0  0  0
  1  2  1  0  0  0  0
  1 25  1  0  0  0  0
  1 26  1  0  0  0  0
  1 27  1  0  0  0  0
  2  3  1  0  0  0  0
  3  4  1  0  0  0  0
  3 28  1  0  0  0  0
  3 29  1  0  0  0  0
  4  5  1  0  0  0  0
  4 30  1  0  0  0  0
  4 31  1  0  0  0  0
  5 23  1  0  0  0  0
  5  6  1  0  0  0  0
  6  7  1  0  0  0  0
  6 11  2  0  0  0  0
  7  8  1  0  0  0  0
  7 32  1  0  0  0  0
  8  9  1  0  0  0  0
  8 10  2  0  0  0  0
  9 33  1  0  0  0  0
  9 34  1  0  0  0  0
  9 35  1  0  0  0  0
 11 12  1  0  0  0  0
 11 20  1  0  0  0  0
 12 13  1  0  0  0  0
 12 36  1  0  0  0  0
 13 14  1  0  0  0  0
 13 37  1  0  0  0  0
 13 38  1  0  0  0  0
 14 19  1  0  0  0  0
 14 15  2  0  0  0  0
 15 16  1  0  0  0  0
 15 39  1  0  0  0  0
 16 17  2  0  0  0  0
 16 40  1  0  0  0  0
 17 18  1  0  0  0  0
 17 41  1  0  0  0  0
 18 19  2  0  0  0  0
 18 42  1  0  0  0  0
 19 43  1  0  0  0  0
 20 21  2  0  0  0  0
 20 22  1  0  0  0  0
 22 23  1  0  0  0  0
 23 24  2  0  0  0  0
M  CHG  1  22  -1
M  END
> <s_m_source_file>
AV-unprocessed.smi

> <i_m_source_file_index>
801

> <i_lp_mmshare_version>
43012

> <i_f3d_flags>
0

> <s_epik_input>
W0NIM11PW0NIMl1bQ0gyXW4xYyhbTkhdQyg9TylbQ0gzXSljKGMoPU8pW25IXWMxPU8pW05IXVtDSDJdYzJbY0hdW2NIXVtjSF1bY0hdW2NIXTI=

> <s_epik_cmdline>
J2VwaWtfcHl0aG9uJywgJy1waCcsICc3LjAnLCAnLXRuJywgJzgnLCAnLW1hJywgJzIwMCcsICctbWV0YWxfYmluZGluZycsICctaW1hZScsICc8aW5maWxlLm1hZT4nLCAnLW9tYWUnLCAnPG91dGZpbGUubWFlPic=

> <r_lp_tautomer_probability>
0.999901

> <r_epik_Ionization_Penalty>
3.93073

> <r_epik_Ionization_Penalty_Charging>
1.379e-07

> <r_epik_Ionization_Penalty_Neutral>
3.93073

> <r_epik_State_Penalty>
3.9304

> <r_epik_Charging_Adjusted_Penalty>
3.9304

> <i_epik_Tot_Q>
-1

> <i_epik_Tot_abs_Q>
1

> <r_epik_Metal_State_Penalty>
0.600886

> <b_epik_Metal_Only>
1

> <s_lp_Force_Field>
OPLS_2005

> <r_lp_Energy>
31.5589

> <b_lp_Chiralities_Consistent>
1

> <s_lp_Variant>
AV-unprocessed.smi:801-2

> <Gold.Version>
5.8.1

> <Gold.Id.Protein>
6NUR|6NUR_protein|mol2

> <Gold.PLP.Fitness>
42.1444

> <Gold.PLP.PLP>
-41.3883

> <Gold.PLP.part.hbond>
-2.0000

> <Gold.PLP.part.metal>
0.0000

> <Gold.PLP.part.buried>
-1.3740

> <Gold.PLP.part.nonpolar>
-37.2240

> <Gold.PLP.part.repulsive>
0.3290

> <Gold.PLP.ligand.clash>
0.0000

> <Gold.PLP.ligand.torsion>
0.9093

> <Gold.PLP.Chemscore.Hbond>
0.4823

> <Gold.PLP.Chemscore.CHOScore>
0.0000

> <Gold.PLP.Chemscore.Metal>
0.0000

> <Gold.Chemscore.Hbonds>
donor molecule, donor type, donor heavy atom, donor atom, acceptor molecule, acceptor atom, score
      L1  H    12    36       P1 10747  0.30

> <Gold.PLP.Chemscore.Internal.Correction>
1.1278

> <Gold.Rescore>
     Score         DG    S(hbond)    S(metal)    S(lipo)     H(rot)  DE(clash)    DE(int)     intcor
      9.35     -13.00       0.51        0.00      93.23       1.98       1.23       2.42       ----

> <Gold.Chemscore.Fitness>
9.3536

> <Gold.Chemscore.DG>
-13.0008

> <Gold.Chemscore.ZeroCoef>
-5.4800

> <Gold.Chemscore.Hbond>
0.5052

> <Gold.Chemscore.Metal>
0.0000

> <Gold.Chemscore.Lipo>
93.2322

> <Gold.Chemscore.Internal_Hbond>
0.0000

> <Gold.Chemscore.DEClash>
1.2283

> <Gold.Chemscore.DEInternal>
2.4188

> <Gold.Chemscore.Rot>
1.9824

> <Gold.Chemscore.Internal.Correction>
   9.000000E+99

> <Gold.Chemscore.Hbonds>
donor molecule, donor type, donor heavy atom, donor atom, acceptor molecule, acceptor atom, score
      L1  H    12    36       P1 10747  0.32

> <Gold.Chemscore.Hbond.Weighted>
-1.6875

> <Gold.Chemscore.Metal.Weighted>
-0.0000

> <Gold.Chemscore.Lipo.Weighted>
-10.9082

> <Gold.Chemscore.Internal_Hbond.Weighted>
0.0000

> <Gold.Chemscore.DEClash.Weighted>
1.2283

> <Gold.Chemscore.DEInternal.Weighted>
2.4188

> <Gold.Chemscore.Rot.Weighted>
5.0749

> <Gold.Chemscore.Internal.Correction.Weighted>
   9.000000E+99

> <Gold.Protein.RotatedTorsions>
[ 6907 6896 6895 6894 ] final   39.22 input  -60.11 | X-H torsion
[ 7974 7965 7964 7962 ] final  158.26 input  175.53 | X-H torsion
[ 8008 7997 7996 7995 ] final   68.19 input   59.86 | X-H torsion
[ 10167 10162 10161 10158 ] final  178.43 input  -65.29 | X-H torsion
[ 10718 10713 10712 10709 ] final  155.78 input   66.30 | X-H torsion
[ 10763 10752 10751 10750 ] final -155.33 input  -60.55 | X-H torsion
[ 11005 11000 10999 10996 ] final  -18.63 input  -57.11 | X-H torsion

> <Gold.Protein.ActiveResidues>
 VAL166  LYS551  ARG553  GLY616  TRP617  ASP618  TYR619  PRO620  LYS621  CYS622 
 ASP623  PHE694  ASN695  SER759  ASP760  ASP761  ALA762  ILE779  LEU786  VAL792 
 PHE793  MET794  SER795  GLU796  ALA797  LYS798  CYS799  TRP800  GLU811  SER814 

> <Gold.Protein.RotatedAtoms>
  152.1667  134.8868  160.0537 H   0  0  0  0  0  0  0  0  0  0  0  0  # atno 6907 bound_to 6896
  151.9843  133.3764  159.4128 H   0  0  0  0  0  0  0  0  0  0  0  0  # atno 6908 bound_to 6896
  150.6895  134.3927  159.5127 H   0  0  0  0  0  0  0  0  0  0  0  0  # atno 6909 bound_to 6896
  144.7856  139.7454  143.6242 H   0  0  0  0  0  0  0  0  0  0  0  0  # atno 7974 bound_to 7965
  155.7045  140.3495  155.4947 H   0  0  0  0  0  0  0  0  0  0  0  0  # atno 8008 bound_to 7997
  155.9410  140.1101  157.1077 H   0  0  0  0  0  0  0  0  0  0  0  0  # atno 8009 bound_to 7997
  154.4103  140.1212  156.4914 H   0  0  0  0  0  0  0  0  0  0  0  0  # atno 8010 bound_to 7997
  139.5294  144.2681  152.0651 H   0  0  0  0  0  0  0  0  0  0  0  0  # atno 10167 bound_to 10162
  157.2137  131.0703  151.1954 H   0  0  0  0  0  0  0  0  0  0  0  0  # atno 10718 bound_to 10713
  154.7795  135.3170  154.8020 H   0  0  0  0  0  0  0  0  0  0  0  0  # atno 10763 bound_to 10752
  153.8735  135.6842  153.4776 H   0  0  0  0  0  0  0  0  0  0  0  0  # atno 10764 bound_to 10752
  153.1427  135.4732  154.9457 H   0  0  0  0  0  0  0  0  0  0  0  0  # atno 10765 bound_to 10752
  140.8287  133.8013  155.9735 H   0  0  0  0  0  0  0  0  0  0  0  0  # atno 11005 bound_to 11000
  146.2086  139.5426  142.9696 LP  0  0  0  0  0  0  0  0  0  0  0  0  # atno 17320 bound_to 7965
  145.5931  141.0366  143.2059 LP  0  0  0  0  0  0  0  0  0  0  0  0  # atno 17321 bound_to 7965
  140.2142  144.4532  150.6372 LP  0  0  0  0  0  0  0  0  0  0  0  0  # atno 17342 bound_to 10162
  140.6461  143.2214  151.6183 LP  0  0  0  0  0  0  0  0  0  0  0  0  # atno 17343 bound_to 10162
  157.3646  130.7149  149.6524 LP  0  0  0  0  0  0  0  0  0  0  0  0  # atno 17370 bound_to 10713
  155.9688  130.4216  150.4476 LP  0  0  0  0  0  0  0  0  0  0  0  0  # atno 17371 bound_to 10713
  140.9022  134.2365  157.5035 LP  0  0  0  0  0  0  0  0  0  0  0  0  # atno 17394 bound_to 11000
  139.8705  134.9711  156.4727 LP  0  0  0  0  0  0  0  0  0  0  0  0  # atno 17395 bound_to 11000

$$$$
