AV-unprocessed.smi:1971|AV-procd|sdf|7971|dock3
  -GOLD-   2272010143D 1   1.00000     0.00000
 Structure written by MMmdl.
 43 44  0  0  0  0  0  0  0  0  3 V2000
  150.6925  141.5126  155.9145 C   0  0  0  0  0  0  0  0  0  0  0  0
  151.1000  140.0326  155.8699 C   0  0  0  0  0  0  0  0  0  0  0  0
  150.9376  139.4600  154.5314 N   0  0  0  0  0  0  0  0  0  0  0  0
  151.3389  138.0539  154.4075 C   0  0  0  0  0  0  0  0  0  0  0  0
  150.3742  137.1028  155.1464 C   0  0  0  0  0  0  0  0  0  0  0  0
  148.9916  137.2763  154.6373 N   0  3  0  0  0  0  0  0  0  0  0  0
  148.0258  136.2681  155.1606 C   0  0  1  0  0  0  0  0  0  0  0  0
  146.5897  136.4692  154.6292 C   0  0  0  0  0  0  0  0  0  0  0  0
  148.5575  134.8363  154.9211 C   0  0  0  0  0  0  0  0  0  0  0  0
  148.2874  134.3587  153.5689 N   0  0  0  0  0  0  0  0  0  0  0  0
  147.5925  133.2570  153.2527 C   0  0  0  0  0  0  0  0  0  0  0  0
  147.1383  132.5395  154.1471 O   0  0  0  0  0  0  0  0  0  0  0  0
  147.4624  133.0609  151.9219 N   0  5  0  0  0  0  0  0  0  0  0  0
  146.2540  132.8042  151.3953 C   0  0  0  0  0  0  0  0  0  0  0  0
  145.7253  131.5759  151.3518 N   0  0  0  0  0  0  0  0  0  0  0  0
  144.4577  131.5374  150.7681 C   0  0  0  0  0  0  0  0  0  0  0  0
  144.0073  132.7666  150.3652 C   0  0  0  0  0  0  0  0  0  0  0  0
  145.1691  134.0164  150.7084 S   0  0  0  0  0  0  0  0  0  0  0  0
  148.5715  138.6966  154.7550 C   0  0  0  0  0  0  0  0  0  0  0  0
  149.5731  139.6110  154.0187 C   0  0  0  0  0  0  0  0  0  0  0  0
  150.7023  141.8789  156.9410 H   0  0  0  0  0  0  0  0  0  0  0  0
  149.6848  141.6574  155.5236 H   0  0  0  0  0  0  0  0  0  0  0  0
  151.3729  142.1436  155.3431 H   0  0  0  0  0  0  0  0  0  0  0  0
  152.1170  139.9106  156.2409 H   0  0  0  0  0  0  0  0  0  0  0  0
  150.4534  139.4868  156.5582 H   0  0  0  0  0  0  0  0  0  0  0  0
  151.3561  137.7955  153.3477 H   0  0  0  0  0  0  0  0  0  0  0  0
  152.3588  137.9125  154.7629 H   0  0  0  0  0  0  0  0  0  0  0  0
  150.6982  136.0754  154.9772 H   0  0  0  0  0  0  0  0  0  0  0  0
  150.4108  137.2653  156.2235 H   0  0  0  0  0  0  0  0  0  0  0  0
  147.9883  136.4090  156.2415 H   0  0  0  0  0  0  0  0  0  0  0  0
  145.8851  135.8209  155.1508 H   0  0  0  0  0  0  0  0  0  0  0  0
  146.5141  136.2364  153.5670 H   0  0  0  0  0  0  0  0  0  0  0  0
  146.2441  137.4923  154.7754 H   0  0  0  0  0  0  0  0  0  0  0  0
  149.6368  134.7985  155.0651 H   0  0  0  0  0  0  0  0  0  0  0  0
  148.1264  134.1428  155.6450 H   0  0  0  0  0  0  0  0  0  0  0  0
  148.6441  134.9151  152.8057 H   0  0  0  0  0  0  0  0  0  0  0  0
  143.9468  130.5901  150.6819 H   0  0  0  0  0  0  0  0  0  0  0  0
  143.0690  133.0124  149.8915 H   0  0  0  0  0  0  0  0  0  0  0  0
  147.5834  138.8305  154.3158 H   0  0  0  0  0  0  0  0  0  0  0  0
  148.4900  138.9907  155.8015 H   0  0  0  0  0  0  0  0  0  0  0  0
  149.2636  140.6539  154.0970 H   0  0  0  0  0  0  0  0  0  0  0  0
  149.5717  139.3713  152.9546 H   0  0  0  0  0  0  0  0  0  0  0  0
  149.0541  137.0876  153.6470 H   0  0  0  0  0  0  0  0  0  0  0  0
  1  2  1  0  0  0  0
  1 21  1  0  0  0  0
  1 22  1  0  0  0  0
  1 23  1  0  0  0  0
  2  3  1  0  0  0  0
  2 24  1  0  0  0  0
  2 25  1  0  0  0  0
  3 20  1  0  0  0  0
  3  4  1  0  0  0  0
  4  5  1  0  0  0  0
  4 26  1  0  0  0  0
  4 27  1  0  0  0  0
  5  6  1  0  0  0  0
  5 28  1  0  0  0  0
  5 29  1  0  0  0  0
  6  7  1  0  0  0  0
  6 19  1  0  0  0  0
  6 43  1  0  0  0  0
  7  8  1  0  0  0  0
  7  9  1  0  0  0  0
  7 30  1  0  0  0  0
  8 31  1  0  0  0  0
  8 32  1  0  0  0  0
  8 33  1  0  0  0  0
  9 10  1  0  0  0  0
  9 34  1  0  0  0  0
  9 35  1  0  0  0  0
 10 11  1  0  0  0  0
 10 36  1  0  0  0  0
 11 12  2  0  0  0  0
 11 13  1  0  0  0  0
 13 14  1  0  0  0  0
 14 18  1  0  0  0  0
 14 15  2  0  0  0  0
 15 16  1  0  0  0  0
 16 17  2  0  0  0  0
 16 37  1  0  0  0  0
 17 18  1  0  0  0  0
 17 38  1  0  0  0  0
 19 20  1  0  0  0  0
 19 39  1  0  0  0  0
 19 40  1  0  0  0  0
 20 41  1  0  0  0  0
 20 42  1  0  0  0  0
M  CHG  1   6   1
M  CHG  1  13  -1
M  END
> <s_m_source_file>
AV-unprocessed.smi

> <i_m_source_file_index>
1971

> <i_lp_mmshare_version>
43012

> <i_f3d_flags>
0

> <s_epik_input>
W0NIM11bQ0gyXU4xW0NIMl1bQ0gyXU4oW0NIMl1bQ0gyXTEpW0NASF0oW0NIM10pW0NIMl1bTkhdQyg9TylbTkhdYzJuW2NIXVtjSF1zMg==

> <s_epik_cmdline>
J2VwaWtfcHl0aG9uJywgJy1waCcsICc3LjAnLCAnLXRuJywgJzgnLCAnLW1hJywgJzIwMCcsICctbWV0YWxfYmluZGluZycsICctaW1hZScsICc8aW5maWxlLm1hZT4nLCAnLW9tYWUnLCAnPG91dGZpbGUubWFlPic=

> <r_epik_Ionization_Penalty>
6.3441

> <r_epik_Ionization_Penalty_Charging>
5.51153

> <r_epik_Ionization_Penalty_Neutral>
0.832567

> <r_epik_State_Penalty>
6.33945

> <r_epik_Charging_Adjusted_Penalty>
11.851

> <i_epik_Tot_Q>
0

> <i_epik_Tot_abs_Q>
2

> <r_epik_Metal_State_Penalty>
2.34542

> <b_epik_Metal_Only>
1

> <s_lp_Force_Field>
OPLS_2005

> <r_lp_Energy>
10.682

> <b_lp_Chiralities_Consistent>
1

> <s_lp_Variant>
AV-unprocessed.smi:1971-10

> <Gold.Version>
5.8.1

> <Gold.Id.Protein>
6NUR|6NUR_protein|mol2

> <Gold.PLP.Fitness>
44.5467

> <Gold.PLP.PLP>
-32.2448

> <Gold.PLP.part.hbond>
-3.0000

> <Gold.PLP.part.metal>
0.0000

> <Gold.PLP.part.buried>
-3.9492

> <Gold.PLP.part.nonpolar>
-26.2475

> <Gold.PLP.part.repulsive>
0.6195

> <Gold.PLP.ligand.clash>
0.0000

> <Gold.PLP.ligand.torsion>
1.3866

> <Gold.PLP.Chemscore.Hbond>
3.9500

> <Gold.PLP.Chemscore.CHOScore>
1.0000

> <Gold.PLP.Chemscore.Metal>
0.0000

> <Gold.Chemscore.Hbonds>
donor molecule, donor type, donor heavy atom, donor atom, acceptor molecule, acceptor atom, score
      L1  H     6    43       P1  7948  2.00
      L1  H    10    36       P1  7948  1.00
      P1  H  7989  7998       L1     3  0.70
      L1  C    17    38       P1 10186  1.00

> <Gold.PLP.Chemscore.Internal.Correction>
0.2252

> <Gold.Rescore>
     Score         DG    S(hbond)    S(metal)    S(lipo)     H(rot)  DE(clash)    DE(int)     intcor
     12.96     -14.67       1.77        0.00      66.33       1.75       0.30       1.40       ----

> <Gold.Chemscore.Fitness>
12.9638

> <Gold.Chemscore.DG>
-14.6659

> <Gold.Chemscore.ZeroCoef>
-5.4800

> <Gold.Chemscore.Hbond>
1.7684

> <Gold.Chemscore.Metal>
0.0000

> <Gold.Chemscore.Lipo>
66.3306

> <Gold.Chemscore.Internal_Hbond>
0.0000

> <Gold.Chemscore.DEClash>
0.3014

> <Gold.Chemscore.DEInternal>
1.4007

> <Gold.Chemscore.Rot>
1.7505

> <Gold.Chemscore.Internal.Correction>
   9.000000E+99

> <Gold.Chemscore.Hbonds>
donor molecule, donor type, donor heavy atom, donor atom, acceptor molecule, acceptor atom, score
      L1  H     6    43       P1  7948  0.98
      L1  H    10    36       P1  7948  0.30
      P1  H  7989  7998       L1     3  0.02

> <Gold.Chemscore.Hbond.Weighted>
-5.9065

> <Gold.Chemscore.Metal.Weighted>
-0.0000

> <Gold.Chemscore.Lipo.Weighted>
-7.7607

> <Gold.Chemscore.Internal_Hbond.Weighted>
0.0000

> <Gold.Chemscore.DEClash.Weighted>
0.3014

> <Gold.Chemscore.DEInternal.Weighted>
1.4007

> <Gold.Chemscore.Rot.Weighted>
4.4813

> <Gold.Chemscore.Internal.Correction.Weighted>
   9.000000E+99

> <Gold.Protein.RotatedTorsions>
[ 6907 6896 6895 6894 ] final  150.87 input  -60.11 | X-H torsion
[ 7974 7965 7964 7962 ] final   21.06 input  175.53 | X-H torsion
[ 8008 7997 7996 7995 ] final  178.68 input   59.86 | X-H torsion
[ 10167 10162 10161 10158 ] final  -61.21 input  -65.29 | X-H torsion
[ 10718 10713 10712 10709 ] final  -97.09 input   66.30 | X-H torsion
[ 10763 10752 10751 10750 ] final -139.79 input  -60.55 | X-H torsion
[ 11005 11000 10999 10996 ] final  -94.20 input  -57.11 | X-H torsion

> <Gold.Protein.ActiveResidues>
 VAL166  LYS551  ARG553  GLY616  TRP617  ASP618  TYR619  PRO620  LYS621  CYS622 
 ASP623  PHE694  ASN695  SER759  ASP760  ASP761  ALA762  ILE779  LEU786  VAL792 
 PHE793  MET794  SER795  GLU796  ALA797  LYS798  CYS799  TRP800  GLU811  SER814 

> <Gold.Protein.RotatedAtoms>
  152.1085  133.4288  159.4619 H   0  0  0  0  0  0  0  0  0  0  0  0  # atno 6907 bound_to 6896
  150.6866  134.2676  159.4584 H   0  0  0  0  0  0  0  0  0  0  0  0  # atno 6908 bound_to 6896
  152.0543  134.9634  160.0625 H   0  0  0  0  0  0  0  0  0  0  0  0  # atno 6909 bound_to 6896
  146.2087  139.8081  142.8706 H   0  0  0  0  0  0  0  0  0  0  0  0  # atno 7974 bound_to 7965
  156.0519  140.1327  157.0041 H   0  0  0  0  0  0  0  0  0  0  0  0  # atno 8008 bound_to 7997
  154.4439  140.1009  156.6459 H   0  0  0  0  0  0  0  0  0  0  0  0  # atno 8009 bound_to 7997
  155.5511  140.3463  155.4471 H   0  0  0  0  0  0  0  0  0  0  0  0  # atno 8010 bound_to 7997
  140.6021  143.2364  151.5905 H   0  0  0  0  0  0  0  0  0  0  0  0  # atno 10167 bound_to 10162
  156.0076  130.5179  150.6323 H   0  0  0  0  0  0  0  0  0  0  0  0  # atno 10718 bound_to 10713
  154.8598  135.3572  154.5604 H   0  0  0  0  0  0  0  0  0  0  0  0  # atno 10763 bound_to 10752
  153.6219  135.7005  153.5312 H   0  0  0  0  0  0  0  0  0  0  0  0  # atno 10764 bound_to 10752
  153.3122  135.4175  155.1305 H   0  0  0  0  0  0  0  0  0  0  0  0  # atno 10765 bound_to 10752
  141.1477  133.7939  157.0264 H   0  0  0  0  0  0  0  0  0  0  0  0  # atno 11005 bound_to 11000
  145.3225  141.0247  143.3492 LP  0  0  0  0  0  0  0  0  0  0  0  0  # atno 17320 bound_to 7965
  144.8857  139.4843  143.6702 LP  0  0  0  0  0  0  0  0  0  0  0  0  # atno 17321 bound_to 7965
  139.5298  144.2949  152.1121 LP  0  0  0  0  0  0  0  0  0  0  0  0  # atno 17342 bound_to 10162
  140.2132  144.4542  150.6376 LP  0  0  0  0  0  0  0  0  0  0  0  0  # atno 17343 bound_to 10162
  157.4119  131.0825  151.1213 LP  0  0  0  0  0  0  0  0  0  0  0  0  # atno 17370 bound_to 10713
  157.1842  130.6323  149.5682 LP  0  0  0  0  0  0  0  0  0  0  0  0  # atno 17371 bound_to 10713
  140.0782  134.9663  157.1581 LP  0  0  0  0  0  0  0  0  0  0  0  0  # atno 17394 bound_to 11000
  140.3614  134.2490  155.7187 LP  0  0  0  0  0  0  0  0  0  0  0  0  # atno 17395 bound_to 11000

$$$$
