AV-unprocessed.smi:3237|AV-procd|sdf|12365|dock3
  -GOLD-   2272018223D 1   1.00000     0.00000
 Structure written by MMmdl.
 37 39  0  0  0  0  0  0  0  0  2 V2000
  141.4327  134.1295  152.7945 C   0  0  0  0  0  0  0  0  0  0  0  0
  142.0960  135.3305  153.3763 C   0  0  0  0  0  0  0  0  0  0  0  0
  142.9611  136.2553  152.8633 C   0  0  0  0  0  0  0  0  0  0  0  0
  143.1893  137.1261  153.9686 C   0  0  0  0  0  0  0  0  0  0  0  0
  144.0236  138.2738  153.9770 N   0  0  0  0  0  0  0  0  0  0  0  0
  145.2847  138.3858  154.4268 C   0  0  0  0  0  0  0  0  0  0  0  0
  145.9483  137.4785  154.9280 O   0  0  0  0  0  0  0  0  0  0  0  0
  145.7505  139.6324  154.2635 N   0  0  0  0  0  0  0  0  0  0  0  0
  147.0862  140.0747  154.6491 C   0  0  2  0  0  0  0  0  0  0  0  0
  147.4344  141.4964  154.2190 C   0  0  0  0  0  0  0  0  0  0  0  0
  148.9663  141.4918  154.2699 C   0  0  0  0  0  0  0  0  0  0  0  0
  149.3982  140.0941  154.0177 N   0  3  1  0  0  0  0  0  0  0  0  0
  150.4130  139.6065  154.9770 C   0  0  0  0  0  0  0  0  0  0  0  0
  151.4639  138.7224  154.3487 C   0  0  0  0  0  0  0  0  0  0  0  0
  150.3681  138.1132  155.1961 C   0  0  0  0  0  0  0  0  0  0  0  0
  148.1804  139.2550  153.9665 C   0  0  0  0  0  0  0  0  0  0  0  0
  142.5254  136.7612  155.0498 N   0  0  0  0  0  0  0  0  0  0  0  0
  141.8207  135.6099  154.6789 O   0  0  0  0  0  0  0  0  0  0  0  0
  141.6570  134.0367  151.7317 H   0  0  0  0  0  0  0  0  0  0  0  0
  140.3503  134.1931  152.9070 H   0  0  0  0  0  0  0  0  0  0  0  0
  141.7728  133.2216  153.2928 H   0  0  0  0  0  0  0  0  0  0  0  0
  143.3546  136.2871  151.8586 H   0  0  0  0  0  0  0  0  0  0  0  0
  143.6078  139.1082  153.5902 H   0  0  0  0  0  0  0  0  0  0  0  0
  145.1408  140.3185  153.8425 H   0  0  0  0  0  0  0  0  0  0  0  0
  147.2036  139.9852  155.7313 H   0  0  0  0  0  0  0  0  0  0  0  0
  147.0951  141.6786  153.1980 H   0  0  0  0  0  0  0  0  0  0  0  0
  146.9933  142.2575  154.8636 H   0  0  0  0  0  0  0  0  0  0  0  0
  149.4029  142.1742  153.5402 H   0  0  0  0  0  0  0  0  0  0  0  0
  149.2959  141.8146  155.2590 H   0  0  0  0  0  0  0  0  0  0  0  0
  150.6713  140.2784  155.7939 H   0  0  0  0  0  0  0  0  0  0  0  0
  151.4207  138.5542  153.2739 H   0  0  0  0  0  0  0  0  0  0  0  0
  152.4648  138.7513  154.7746 H   0  0  0  0  0  0  0  0  0  0  0  0
  150.6471  137.7417  156.1800 H   0  0  0  0  0  0  0  0  0  0  0  0
  149.5973  137.5399  154.6840 H   0  0  0  0  0  0  0  0  0  0  0  0
  148.3188  138.2768  154.4299 H   0  0  0  0  0  0  0  0  0  0  0  0
  147.9328  139.0889  152.9170 H   0  0  0  0  0  0  0  0  0  0  0  0
  149.8174  140.0614  153.0992 H   0  0  0  0  0  0  0  0  0  0  0  0
  1  2  1  0  0  0  0
  1 19  1  0  0  0  0
  1 20  1  0  0  0  0
  1 21  1  0  0  0  0
  2 18  1  0  0  0  0
  2  3  2  0  0  0  0
  3  4  1  0  0  0  0
  3 22  1  0  0  0  0
  4  5  1  0  0  0  0
  4 17  2  0  0  0  0
  5  6  1  0  0  0  0
  5 23  1  0  0  0  0
  6  7  2  0  0  0  0
  6  8  1  0  0  0  0
  8  9  1  0  0  0  0
  8 24  1  0  0  0  0
  9 16  1  0  0  0  0
  9 10  1  0  0  0  0
  9 25  1  0  0  0  0
 10 11  1  0  0  0  0
 10 26  1  0  0  0  0
 10 27  1  0  0  0  0
 11 12  1  0  0  0  0
 11 28  1  0  0  0  0
 11 29  1  0  0  0  0
 12 13  1  0  0  0  0
 12 16  1  0  0  0  0
 12 37  1  0  0  0  0
 13 15  1  0  0  0  0
 13 14  1  0  0  0  0
 13 30  1  0  0  0  0
 14 15  1  0  0  0  0
 14 31  1  0  0  0  0
 14 32  1  0  0  0  0
 15 33  1  0  0  0  0
 15 34  1  0  0  0  0
 16 35  1  0  0  0  0
 16 36  1  0  0  0  0
 17 18  1  0  0  0  0
M  CHG  1  12   1
M  END
> <s_m_source_file>
AV-unprocessed.smi

> <i_m_source_file_index>
3237

> <i_lp_mmshare_version>
43012

> <i_f3d_flags>
0

> <s_epik_input>
W0NIM11jMVtjSF1jKG5vMSlbTkhdQyg9TylbTkhdW0NAQEhdMltDSDJdW0NIMl1OKFtDSDJdMilbQ0hdM1tDSDJdW0NIMl0z

> <s_epik_cmdline>
J2VwaWtfcHl0aG9uJywgJy1waCcsICc3LjAnLCAnLXRuJywgJzgnLCAnLW1hJywgJzIwMCcsICctbWV0YWxfYmluZGluZycsICctaW1hZScsICc8aW5maWxlLm1hZT4nLCAnLW9tYWUnLCAnPG91dGZpbGUubWFlPic=

> <r_epik_Ionization_Penalty>
0.000720579

> <r_epik_Ionization_Penalty_Charging>
0.000680516

> <r_epik_Ionization_Penalty_Neutral>
4.00628e-05

> <r_epik_State_Penalty>
0.000432256

> <r_epik_Charging_Adjusted_Penalty>
0.00111277

> <i_epik_Tot_Q>
1

> <i_epik_Tot_abs_Q>
1

> <r_epik_Metal_State_Penalty>
0.0255091

> <b_epik_Metal_Only>
0

> <s_lp_Force_Field>
OPLS_2005

> <r_lp_Energy>
36.5214

> <b_lp_Chiralities_Consistent>
1

> <s_lp_Variant>
AV-unprocessed.smi:3237-3

> <Gold.Version>
5.8.1

> <Gold.Id.Protein>
6NUR|6NUR_protein|mol2

> <Gold.PLP.Fitness>
35.8113

> <Gold.PLP.PLP>
-28.4709

> <Gold.PLP.part.hbond>
-4.0000

> <Gold.PLP.part.metal>
0.0000

> <Gold.PLP.part.buried>
-2.7334

> <Gold.PLP.part.nonpolar>
-21.5003

> <Gold.PLP.part.repulsive>
0.2796

> <Gold.PLP.ligand.clash>
0.0000

> <Gold.PLP.ligand.torsion>
1.6292

> <Gold.PLP.Chemscore.Hbond>
3.1114

> <Gold.PLP.Chemscore.CHOScore>
0.0000

> <Gold.PLP.Chemscore.Metal>
0.0000

> <Gold.Chemscore.Hbonds>
donor molecule, donor type, donor heavy atom, donor atom, acceptor molecule, acceptor atom, score
      L1  H     5    23       P1 10175  1.00
      L1  H     8    24       P1 10175  0.83
      L1  H    12    37       P1  7957  0.99
      P1  H 11000 11005       L1    18  0.26

> <Gold.PLP.Chemscore.Internal.Correction>
1.2644

> <Gold.Rescore>
     Score         DG    S(hbond)    S(metal)    S(lipo)     H(rot)  DE(clash)    DE(int)     intcor
     17.97     -19.69       3.01        0.00      63.20       1.26       0.11       1.60       ----

> <Gold.Chemscore.Fitness>
17.9744

> <Gold.Chemscore.DG>
-19.6896

> <Gold.Chemscore.ZeroCoef>
-5.4800

> <Gold.Chemscore.Hbond>
3.0057

> <Gold.Chemscore.Metal>
0.0000

> <Gold.Chemscore.Lipo>
63.1994

> <Gold.Chemscore.Internal_Hbond>
0.0000

> <Gold.Chemscore.DEClash>
0.1145

> <Gold.Chemscore.DEInternal>
1.6007

> <Gold.Chemscore.Rot>
1.2593

> <Gold.Chemscore.Internal.Correction>
   9.000000E+99

> <Gold.Chemscore.Hbonds>
donor molecule, donor type, donor heavy atom, donor atom, acceptor molecule, acceptor atom, score
      L1  H     5    23       P1 10175  0.95
      L1  H     8    24       P1 10175  0.80
      L1  H    12    37       P1  7957  0.93
      P1  H 11000 11005       L1    18  0.25

> <Gold.Chemscore.Hbond.Weighted>
-10.0390

> <Gold.Chemscore.Metal.Weighted>
-0.0000

> <Gold.Chemscore.Lipo.Weighted>
-7.3943

> <Gold.Chemscore.Internal_Hbond.Weighted>
0.0000

> <Gold.Chemscore.DEClash.Weighted>
0.1145

> <Gold.Chemscore.DEInternal.Weighted>
1.6007

> <Gold.Chemscore.Rot.Weighted>
3.2237

> <Gold.Chemscore.Internal.Correction.Weighted>
   9.000000E+99

> <Gold.Protein.RotatedTorsions>
[ 6907 6896 6895 6894 ] final  -58.33 input  -60.11 | X-H torsion
[ 7974 7965 7964 7962 ] final   16.66 input  175.53 | X-H torsion
[ 8008 7997 7996 7995 ] final  -76.14 input   59.86 | X-H torsion
[ 10167 10162 10161 10158 ] final  172.39 input  -65.29 | X-H torsion
[ 10718 10713 10712 10709 ] final    2.36 input   66.30 | X-H torsion
[ 10763 10752 10751 10750 ] final  -64.96 input  -60.55 | X-H torsion
[ 11005 11000 10999 10996 ] final   23.94 input  -57.11 | X-H torsion

> <Gold.Protein.ActiveResidues>
 VAL166  LYS551  ARG553  GLY616  TRP617  ASP618  TYR619  PRO620  LYS621  CYS622 
 ASP623  PHE694  ASN695  SER759  ASP760  ASP761  ALA762  ILE779  LEU786  VAL792 
 PHE793  MET794  SER795  GLU796  ALA797  LYS798  CYS799  TRP800  GLU811  SER814 

> <Gold.Protein.RotatedAtoms>
  150.8015  134.7112  159.6604 H   0  0  0  0  0  0  0  0  0  0  0  0  # atno 6907 bound_to 6896
  152.4132  134.6084  160.0028 H   0  0  0  0  0  0  0  0  0  0  0  0  # atno 6908 bound_to 6896
  151.6320  133.3294  159.3147 H   0  0  0  0  0  0  0  0  0  0  0  0  # atno 6909 bound_to 6896
  146.2242  139.8715  142.8586 H   0  0  0  0  0  0  0  0  0  0  0  0  # atno 7974 bound_to 7965
  154.5479  140.0732  156.8619 H   0  0  0  0  0  0  0  0  0  0  0  0  # atno 8008 bound_to 7997
  155.3051  140.3386  155.4228 H   0  0  0  0  0  0  0  0  0  0  0  0  # atno 8009 bound_to 7997
  156.1935  140.1695  156.8032 H   0  0  0  0  0  0  0  0  0  0  0  0  # atno 8010 bound_to 7997
  139.5075  144.3379  152.0047 H   0  0  0  0  0  0  0  0  0  0  0  0  # atno 10167 bound_to 10162
  156.8619  130.5590  149.5662 H   0  0  0  0  0  0  0  0  0  0  0  0  # atno 10718 bound_to 10713
  154.3379  135.6163  153.5582 H   0  0  0  0  0  0  0  0  0  0  0  0  # atno 10763 bound_to 10752
  152.9806  135.5762  154.4886 H   0  0  0  0  0  0  0  0  0  0  0  0  # atno 10764 bound_to 10752
  154.4585  135.2855  155.1707 H   0  0  0  0  0  0  0  0  0  0  0  0  # atno 10765 bound_to 10752
  140.3641  134.2093  155.7670 H   0  0  0  0  0  0  0  0  0  0  0  0  # atno 11005 bound_to 11000
  145.2603  141.0075  143.3830 LP  0  0  0  0  0  0  0  0  0  0  0  0  # atno 17320 bound_to 7965
  144.9303  139.4306  143.6498 LP  0  0  0  0  0  0  0  0  0  0  0  0  # atno 17321 bound_to 7965
  140.2817  144.3852  150.6117 LP  0  0  0  0  0  0  0  0  0  0  0  0  # atno 17342 bound_to 10162
  140.6013  143.2167  151.7067 LP  0  0  0  0  0  0  0  0  0  0  0  0  # atno 17343 bound_to 10162
  156.0772  130.5791  150.9496 LP  0  0  0  0  0  0  0  0  0  0  0  0  # atno 17370 bound_to 10713
  157.6245  131.0927  150.8560 LP  0  0  0  0  0  0  0  0  0  0  0  0  # atno 17371 bound_to 10713
  141.1975  133.8058  157.0625 LP  0  0  0  0  0  0  0  0  0  0  0  0  # atno 17394 bound_to 11000
  140.0603  134.9758  157.1293 LP  0  0  0  0  0  0  0  0  0  0  0  0  # atno 17395 bound_to 11000

$$$$
