AV-unprocessed.smi:1809|AV-procd|sdf|7324|dock9
  -GOLD-   22720 8583D 1   1.00000     0.00000
 Structure written by MMmdl.
 39 41  0  0  0  0  0  0  0  0  3 V2000
  146.5091  135.6006  162.7526 C   0  0  0  0  0  0  0  0  0  0  0  0
  147.4302  135.6240  161.5812 C   0  0  0  0  0  0  0  0  0  0  0  0
  148.1216  136.7102  161.2281 N   0  0  0  0  0  0  0  0  0  0  0  0
  148.9032  136.4894  160.1032 N   0  0  0  0  0  0  0  0  0  0  0  0
  148.7855  135.2454  159.6171 C   0  0  0  0  0  0  0  0  0  0  0  0
  149.4590  134.8298  158.5317 N   0  5  0  0  0  0  0  0  0  0  0  0
  148.9080  133.9140  157.7043 C   0  0  0  0  0  0  0  0  0  0  0  0
  148.1924  132.9656  158.0354 O   0  0  0  0  0  0  0  0  0  0  0  0
  149.2099  134.1033  156.4122 N   0  0  0  0  0  0  0  0  0  0  0  0
  148.7723  133.2613  155.3041 C   0  0  0  0  0  0  0  0  0  0  0  0
  148.0616  134.0820  154.2140 C   0  0  1  0  0  0  0  0  0  0  0  0
  147.7399  133.2346  152.9736 C   0  0  0  0  0  0  0  0  0  0  0  0
  147.0265  134.0333  151.9452 N   0  3  1  0  0  0  0  0  0  0  0  0
  146.4559  133.1869  150.8740 C   0  0  0  0  0  0  0  0  0  0  0  0
  144.9699  132.9775  151.2200 C   0  0  0  0  0  0  0  0  0  0  0  0
  144.7141  133.8181  152.4760 C   0  0  0  0  0  0  0  0  0  0  0  0
  145.8859  134.7995  152.4940 C   0  0  1  0  0  0  0  0  0  0  0  0
  146.1923  135.4642  153.8521 C   0  0  0  0  0  0  0  0  0  0  0  0
  146.8265  134.5539  154.7381 O   0  0  0  0  0  0  0  0  0  0  0  0
  147.6907  134.2262  160.5514 S   0  0  0  0  0  0  0  0  0  0  0  0
  145.5712  136.0943  162.4980 H   0  0  0  0  0  0  0  0  0  0  0  0
  146.9612  136.1178  163.5992 H   0  0  0  0  0  0  0  0  0  0  0  0
  146.2956  134.5728  163.0462 H   0  0  0  0  0  0  0  0  0  0  0  0
  149.7963  134.8928  156.1841 H   0  0  0  0  0  0  0  0  0  0  0  0
  149.6324  132.7359  154.8859 H   0  0  0  0  0  0  0  0  0  0  0  0
  148.1025  132.4954  155.6959 H   0  0  0  0  0  0  0  0  0  0  0  0
  148.6931  134.9238  153.9238 H   0  0  0  0  0  0  0  0  0  0  0  0
  148.6578  132.8371  152.5390 H   0  0  0  0  0  0  0  0  0  0  0  0
  147.1310  132.3777  153.2670 H   0  0  0  0  0  0  0  0  0  0  0  0
  146.5390  133.7274  149.9304 H   0  0  0  0  0  0  0  0  0  0  0  0
  146.9935  132.2449  150.7540 H   0  0  0  0  0  0  0  0  0  0  0  0
  144.3412  133.3145  150.3949 H   0  0  0  0  0  0  0  0  0  0  0  0
  144.7408  131.9265  151.3994 H   0  0  0  0  0  0  0  0  0  0  0  0
  143.7458  134.3194  152.4575 H   0  0  0  0  0  0  0  0  0  0  0  0
  144.7415  133.1801  153.3606 H   0  0  0  0  0  0  0  0  0  0  0  0
  145.6576  135.5895  151.7763 H   0  0  0  0  0  0  0  0  0  0  0  0
  146.8353  136.3346  153.7107 H   0  0  0  0  0  0  0  0  0  0  0  0
  145.2734  135.8299  154.3108 H   0  0  0  0  0  0  0  0  0  0  0  0
  147.6941  134.6798  151.5490 H   0  0  0  0  0  0  0  0  0  0  0  0
  1  2  1  0  0  0  0
  1 21  1  0  0  0  0
  1 22  1  0  0  0  0
  1 23  1  0  0  0  0
  2 20  1  0  0  0  0
  2  3  2  0  0  0  0
  3  4  1  0  0  0  0
  4  5  2  0  0  0  0
  5  6  1  0  0  0  0
  5 20  1  0  0  0  0
  6  7  1  0  0  0  0
  7  8  2  0  0  0  0
  7  9  1  0  0  0  0
  9 10  1  0  0  0  0
  9 24  1  0  0  0  0
 10 11  1  0  0  0  0
 10 25  1  0  0  0  0
 10 26  1  0  0  0  0
 11 19  1  0  0  0  0
 11 12  1  0  0  0  0
 11 27  1  0  0  0  0
 12 13  1  0  0  0  0
 12 28  1  0  0  0  0
 12 29  1  0  0  0  0
 13 17  1  0  0  0  0
 13 14  1  0  0  0  0
 13 39  1  0  0  0  0
 14 15  1  0  0  0  0
 14 30  1  0  0  0  0
 14 31  1  0  0  0  0
 15 16  1  0  0  0  0
 15 32  1  0  0  0  0
 15 33  1  0  0  0  0
 16 17  1  0  0  0  0
 16 34  1  0  0  0  0
 16 35  1  0  0  0  0
 17 18  1  0  0  0  0
 17 36  1  0  0  0  0
 18 19  1  0  0  0  0
 18 37  1  0  0  0  0
 18 38  1  0  0  0  0
M  CHG  1   6  -1
M  CHG  1  13   1
M  END
> <s_m_source_file>
AV-unprocessed.smi

> <i_m_source_file_index>
1809

> <i_lp_mmshare_version>
43012

> <i_f3d_flags>
0

> <s_epik_input>
W0NIM11jMW5uYyhzMSlbTkhdQyg9TylbTkhdW0NIMl1bQ0BIXShbQ0gyXTIpT1tDSDJdW0NAQEhdKE4yMylbQ0gyXVtDSDJdW0NIMl0z

> <s_epik_cmdline>
J2VwaWtfcHl0aG9uJywgJy1waCcsICc3LjAnLCAnLXRuJywgJzgnLCAnLW1hJywgJzIwMCcsICctbWV0YWxfYmluZGluZycsICctaW1hZScsICc8aW5maWxlLm1hZT4nLCAnLW9tYWUnLCAnPG91dGZpbGUubWFlPic=

> <r_lp_tautomer_probability>
1

> <r_epik_Ionization_Penalty>
3.2601

> <r_epik_Ionization_Penalty_Charging>
3.1406

> <r_epik_Ionization_Penalty_Neutral>
0.119497

> <r_epik_State_Penalty>
3.08894

> <r_epik_Charging_Adjusted_Penalty>
6.22954

> <i_epik_Tot_Q>
0

> <i_epik_Tot_abs_Q>
2

> <r_epik_Metal_State_Penalty>
0.510807

> <b_epik_Metal_Only>
1

> <s_lp_Force_Field>
OPLS_2005

> <r_lp_Energy>
28.9947

> <b_lp_Chiralities_Consistent>
1

> <s_lp_Variant>
AV-unprocessed.smi:1809-16

> <Gold.Version>
5.8.1

> <Gold.Id.Protein>
6NUR|6NUR_protein|mol2

> <Gold.PLP.Fitness>
40.5823

> <Gold.PLP.PLP>
-25.5572

> <Gold.PLP.part.hbond>
-4.7806

> <Gold.PLP.part.metal>
0.0000

> <Gold.PLP.part.buried>
-2.9733

> <Gold.PLP.part.nonpolar>
-18.4088

> <Gold.PLP.part.repulsive>
0.1350

> <Gold.PLP.ligand.clash>
0.0000

> <Gold.PLP.ligand.torsion>
0.5145

> <Gold.PLP.Chemscore.Hbond>
5.3456

> <Gold.PLP.Chemscore.CHOScore>
0.0000

> <Gold.PLP.Chemscore.Metal>
0.0000

> <Gold.Chemscore.Hbonds>
donor molecule, donor type, donor heavy atom, donor atom, acceptor molecule, acceptor atom, score
      L1  H    13    39       P1  7948  1.85
      P1  H  6896  6909       L1     6  1.20
      P1  H  6931  6943       L1     3  0.90

> <Gold.PLP.Chemscore.Internal.Correction>
0.0172

> <Gold.Rescore>
     Score         DG    S(hbond)    S(metal)    S(lipo)     H(rot)  DE(clash)    DE(int)     intcor
     12.00     -13.89       1.30        0.00      63.73       1.32       0.01       1.88       ----

> <Gold.Chemscore.Fitness>
12.0033

> <Gold.Chemscore.DG>
-13.8938

> <Gold.Chemscore.ZeroCoef>
-5.4800

> <Gold.Chemscore.Hbond>
1.3018

> <Gold.Chemscore.Metal>
0.0000

> <Gold.Chemscore.Lipo>
63.7337

> <Gold.Chemscore.Internal_Hbond>
0.0000

> <Gold.Chemscore.DEClash>
0.0106

> <Gold.Chemscore.DEInternal>
1.8799

> <Gold.Chemscore.Rot>
1.3246

> <Gold.Chemscore.Internal.Correction>
   9.000000E+99

> <Gold.Chemscore.Hbonds>
donor molecule, donor type, donor heavy atom, donor atom, acceptor molecule, acceptor atom, score
      L1  H    13    39       P1  7948  0.20
      P1  H  6896  6909       L1     6  0.04
      P1  H  6931  6943       L1     3  0.18

> <Gold.Chemscore.Hbond.Weighted>
-4.3480

> <Gold.Chemscore.Metal.Weighted>
-0.0000

> <Gold.Chemscore.Lipo.Weighted>
-7.4568

> <Gold.Chemscore.Internal_Hbond.Weighted>
0.0000

> <Gold.Chemscore.DEClash.Weighted>
0.0106

> <Gold.Chemscore.DEInternal.Weighted>
1.8799

> <Gold.Chemscore.Rot.Weighted>
3.3910

> <Gold.Chemscore.Internal.Correction.Weighted>
   9.000000E+99

> <Gold.Protein.RotatedTorsions>
[ 6907 6896 6895 6894 ] final   28.27 input  -60.11 | X-H torsion
[ 7974 7965 7964 7962 ] final   64.08 input  175.53 | X-H torsion
[ 8008 7997 7996 7995 ] final   86.27 input   59.86 | X-H torsion
[ 10167 10162 10161 10158 ] final   -6.39 input  -65.29 | X-H torsion
[ 10718 10713 10712 10709 ] final   71.65 input   66.30 | X-H torsion
[ 10763 10752 10751 10750 ] final -123.29 input  -60.55 | X-H torsion
[ 11005 11000 10999 10996 ] final -147.95 input  -57.11 | X-H torsion

> <Gold.Protein.ActiveResidues>
 VAL166  LYS551  ARG553  GLY616  TRP617  ASP618  TYR619  PRO620  LYS621  CYS622 
 ASP623  PHE694  ASN695  SER759  ASP760  ASP761  ALA762  ILE779  LEU786  VAL792 
 PHE793  MET794  SER795  GLU796  ALA797  LYS798  CYS799  TRP800  GLU811  SER814 

> <Gold.Protein.RotatedAtoms>
  152.0144  134.9858  160.0568 H   0  0  0  0  0  0  0  0  0  0  0  0  # atno 6907 bound_to 6896
  152.1397  133.4452  159.4769 H   0  0  0  0  0  0  0  0  0  0  0  0  # atno 6908 bound_to 6896
  150.6864  134.2238  159.4450 H   0  0  0  0  0  0  0  0  0  0  0  0  # atno 6909 bound_to 6896
  145.8543  139.3274  143.0856 H   0  0  0  0  0  0  0  0  0  0  0  0  # atno 7974 bound_to 7965
  155.9606  140.3393  155.6487 H   0  0  0  0  0  0  0  0  0  0  0  0  # atno 8008 bound_to 7997
  155.6803  140.0737  157.2505 H   0  0  0  0  0  0  0  0  0  0  0  0  # atno 8009 bound_to 7997
  154.4142  140.1675  156.1963 H   0  0  0  0  0  0  0  0  0  0  0  0  # atno 8010 bound_to 7997
  140.6995  143.6199  150.8622 H   0  0  0  0  0  0  0  0  0  0  0  0  # atno 10167 bound_to 10162
  157.6462  130.9539  150.0819 H   0  0  0  0  0  0  0  0  0  0  0  0  # atno 10718 bound_to 10713
  154.8705  135.4103  154.2919 H   0  0  0  0  0  0  0  0  0  0  0  0  # atno 10763 bound_to 10752
  153.3793  135.7011  153.6583 H   0  0  0  0  0  0  0  0  0  0  0  0  # atno 10764 bound_to 10752
  153.5411  135.3648  155.2690 H   0  0  0  0  0  0  0  0  0  0  0  0  # atno 10765 bound_to 10752
  140.7663  134.3240  157.5087 H   0  0  0  0  0  0  0  0  0  0  0  0  # atno 11005 bound_to 11000
  145.9321  140.9041  143.0351 LP  0  0  0  0  0  0  0  0  0  0  0  0  # atno 17320 bound_to 7965
  144.6728  140.1432  143.7435 LP  0  0  0  0  0  0  0  0  0  0  0  0  # atno 17321 bound_to 7965
  139.9920  143.5836  152.2906 LP  0  0  0  0  0  0  0  0  0  0  0  0  # atno 17342 bound_to 10162
  139.6495  144.7660  151.2177 LP  0  0  0  0  0  0  0  0  0  0  0  0  # atno 17343 bound_to 10162
  156.1793  130.3649  149.9057 LP  0  0  0  0  0  0  0  0  0  0  0  0  # atno 17370 bound_to 10713
  156.7013  130.8934  151.3599 LP  0  0  0  0  0  0  0  0  0  0  0  0  # atno 17371 bound_to 10713
  139.8762  134.9233  156.3322 LP  0  0  0  0  0  0  0  0  0  0  0  0  # atno 17394 bound_to 11000
  140.9615  133.7385  156.0408 LP  0  0  0  0  0  0  0  0  0  0  0  0  # atno 17395 bound_to 11000

$$$$
