AV-unprocessed.smi:104|AV-procd|sdf|999|dock1
  -GOLD-   2262017583D 1   1.00000     0.00000
 Structure written by MMmdl.
 47 49  0  0  0  0  0  0  0  0  1 V2000
  154.1922  137.1045  162.5602 C   0  0  0  0  0  0  0  0  0  0  0  0
  153.8572  137.4031  161.1048 C   0  0  0  0  0  0  0  0  0  0  0  0
  153.3848  136.5413  160.3631 O   0  0  0  0  0  0  0  0  0  0  0  0
  154.1354  138.6705  160.7655 O   0  0  0  0  0  0  0  0  0  0  0  0
  153.7700  139.1470  159.4813 C   0  0  0  0  0  0  0  0  0  0  0  0
  152.2426  139.1521  159.3568 C   0  0  2  0  0  0  0  0  0  0  0  0
  151.7875  137.8658  158.9668 O   0  0  0  0  0  0  0  0  0  0  0  0
  150.5541  137.9793  158.3317 C   0  0  2  0  0  0  0  0  0  0  0  0
  150.5397  137.0002  157.1970 N   0  0  0  0  0  0  0  0  0  0  0  0
  151.2157  137.0475  155.9991 C   0  0  0  0  0  0  0  0  0  0  0  0
  152.3943  138.4738  155.5493 Br  0  0  0  0  0  0  0  0  0  0  0  0
  151.0308  136.0573  155.1714 N   0  0  0  0  0  0  0  0  0  0  0  0
  150.1469  135.2396  155.8647 C   0  0  0  0  0  0  0  0  0  0  0  0
  149.5220  133.9994  155.5799 C   0  0  0  0  0  0  0  0  0  0  0  0
  149.7086  133.3329  154.4321 N   0  0  0  0  0  0  0  0  0  0  0  0
  148.6990  133.4611  156.5102 N   0  0  0  0  0  0  0  0  0  0  0  0
  148.4966  134.1054  157.6642 C   0  0  0  0  0  0  0  0  0  0  0  0
  149.0069  135.2704  158.0717 N   0  0  0  0  0  0  0  0  0  0  0  0
  149.8348  135.8144  157.1315 C   0  0  0  0  0  0  0  0  0  0  0  0
  150.3939  139.4414  157.8626 C   0  0  2  0  0  0  0  0  0  0  0  0
  150.1604  139.5437  156.4606 O   0  0  0  0  0  0  0  0  0  0  0  0
  148.9407  139.3029  155.9546 C   0  0  0  0  0  0  0  0  0  0  0  0
  148.9009  139.4644  154.4412 C   0  0  0  0  0  0  0  0  0  0  0  0
  147.9378  138.9889  156.5955 O   0  0  0  0  0  0  0  0  0  0  0  0
  151.7283  140.0670  158.2456 C   0  0  1  0  0  0  0  0  0  0  0  0
  151.5061  141.3858  158.7294 O   0  0  0  0  0  0  0  0  0  0  0  0
  151.2646  142.3945  157.8758 C   0  0  0  0  0  0  0  0  0  0  0  0
  151.7084  143.7404  158.4325 C   0  0  0  0  0  0  0  0  0  0  0  0
  150.7496  142.2980  156.7620 O   0  0  0  0  0  0  0  0  0  0  0  0
  153.4799  137.5990  163.2208 H   0  0  0  0  0  0  0  0  0  0  0  0
  155.1940  137.4608  162.8007 H   0  0  0  0  0  0  0  0  0  0  0  0
  154.1538  136.0318  162.7500 H   0  0  0  0  0  0  0  0  0  0  0  0
  154.1559  140.1603  159.3625 H   0  0  0  0  0  0  0  0  0  0  0  0
  154.2149  138.5323  158.6974 H   0  0  0  0  0  0  0  0  0  0  0  0
  151.7711  139.4192  160.3047 H   0  0  0  0  0  0  0  0  0  0  0  0
  149.7572  137.6610  159.0029 H   0  0  0  0  0  0  0  0  0  0  0  0
  150.3185  133.7129  153.7224 H   0  0  0  0  0  0  0  0  0  0  0  0
  149.2352  132.4548  154.2761 H   0  0  0  0  0  0  0  0  0  0  0  0
  147.8298  133.6188  158.3608 H   0  0  0  0  0  0  0  0  0  0  0  0
  149.5759  139.8752  158.4401 H   0  0  0  0  0  0  0  0  0  0  0  0
  149.5095  138.6967  153.9630 H   0  0  0  0  0  0  0  0  0  0  0  0
  149.2876  140.4424  154.1544 H   0  0  0  0  0  0  0  0  0  0  0  0
  147.8785  139.3760  154.0732 H   0  0  0  0  0  0  0  0  0  0  0  0
  152.4034  140.0311  157.3884 H   0  0  0  0  0  0  0  0  0  0  0  0
  152.7925  143.7652  158.5418 H   0  0  0  0  0  0  0  0  0  0  0  0
  151.2563  143.9143  159.4090 H   0  0  0  0  0  0  0  0  0  0  0  0
  151.4092  144.5486  157.7648 H   0  0  0  0  0  0  0  0  0  0  0  0
  1  2  1  0  0  0  0
  1 30  1  0  0  0  0
  1 31  1  0  0  0  0
  1 32  1  0  0  0  0
  2  3  2  0  0  0  0
  2  4  1  0  0  0  0
  4  5  1  0  0  0  0
  5  6  1  0  0  0  0
  5 33  1  0  0  0  0
  5 34  1  0  0  0  0
  6 25  1  0  0  0  0
  6  7  1  0  0  0  0
  6 35  1  0  0  0  0
  7  8  1  0  0  0  0
  8  9  1  0  0  0  0
  8 20  1  0  0  0  0
  8 36  1  0  0  0  0
  9 19  1  0  0  0  0
  9 10  1  0  0  0  0
 10 11  1  0  0  0  0
 10 12  2  0  0  0  0
 12 13  1  0  0  0  0
 13 19  2  0  0  0  0
 13 14  1  0  0  0  0
 14 15  1  0  0  0  0
 14 16  2  0  0  0  0
 15 37  1  0  0  0  0
 15 38  1  0  0  0  0
 16 17  1  0  0  0  0
 17 18  2  0  0  0  0
 17 39  1  0  0  0  0
 18 19  1  0  0  0  0
 20 21  1  0  0  0  0
 20 25  1  0  0  0  0
 20 40  1  0  0  0  0
 21 22  1  0  0  0  0
 22 23  1  0  0  0  0
 22 24  2  0  0  0  0
 23 41  1  0  0  0  0
 23 42  1  0  0  0  0
 23 43  1  0  0  0  0
 25 26  1  0  0  0  0
 25 44  1  0  0  0  0
 26 27  1  0  0  0  0
 27 28  1  0  0  0  0
 27 29  2  0  0  0  0
 28 45  1  0  0  0  0
 28 46  1  0  0  0  0
 28 47  1  0  0  0  0
M  END
> <s_m_source_file>
AV-unprocessed.smi

> <i_m_source_file_index>
104

> <i_lp_mmshare_version>
43012

> <i_f3d_flags>
0

> <s_epik_input>
W0NIM11DKD1PKU9bQ0gyXVtDQEBIXTFPW0NASF0oW0NAQEhdKE9DKD1PKVtDSDNdKVtDQEhdMU9DKD1PKVtDSDNdKW4oYyhCciluMiljKGMyMyluW2NIXW5jM1tOSDJd

> <s_epik_cmdline>
J2VwaWtfcHl0aG9uJywgJy1waCcsICc3LjAnLCAnLXRuJywgJzgnLCAnLW1hJywgJzIwMCcsICctbWV0YWxfYmluZGluZycsICctaW1hZScsICc8aW5maWxlLm1hZT4nLCAnLW9tYWUnLCAnPG91dGZpbGUubWFlPic=

> <r_lp_tautomer_probability>
1

> <r_epik_Ionization_Penalty>
7.36622e-05

> <r_epik_Ionization_Penalty_Charging>
0

> <r_epik_Ionization_Penalty_Neutral>
7.36622e-05

> <r_epik_State_Penalty>
-0

> <r_epik_Charging_Adjusted_Penalty>
0

> <i_epik_Tot_Q>
0

> <i_epik_Tot_abs_Q>
0

> <r_epik_Metal_State_Penalty>
-0

> <b_epik_Metal_Only>
0

> <s_epik_Chemistry_Notes>
This compound has an ester and may undergo hydrolysis at high or low pH. This compound contains an acetal/aminal-like group ( X-CH(R)-Y where X, Y are N, S, or O) that may be acid/base labile, releasing an aldehyde.

> <s_lp_Force_Field>
OPLS_2005

> <r_lp_Energy>
16.6292

> <b_lp_Chiralities_Consistent>
1

> <s_lp_Variant>
AV-unprocessed.smi:104-7

> <Gold.Version>
5.8.1

> <Gold.Id.Protein>
6NUR|6NUR_protein|mol2

> <Gold.PLP.Fitness>
38.4143

> <Gold.PLP.PLP>
-31.6549

> <Gold.PLP.part.hbond>
-2.9953

> <Gold.PLP.part.metal>
0.0000

> <Gold.PLP.part.buried>
-6.7468

> <Gold.PLP.part.nonpolar>
-23.3225

> <Gold.PLP.part.repulsive>
0.2344

> <Gold.PLP.ligand.clash>
0.0325

> <Gold.PLP.ligand.torsion>
1.1736

> <Gold.PLP.Chemscore.Hbond>
2.9750

> <Gold.PLP.Chemscore.CHOScore>
0.0000

> <Gold.PLP.Chemscore.Metal>
0.0000

> <Gold.Chemscore.Hbonds>
donor molecule, donor type, donor heavy atom, donor atom, acceptor molecule, acceptor atom, score
      P1  H  6896  6907       L1     3  1.00
      P1  H  6896  6909       L1    18  0.24
      P1  H 10752 10763       L1    12  0.94

> <Gold.PLP.Chemscore.Internal.Correction>
0.2140

> <Gold.Rescore>
     Score         DG    S(hbond)    S(metal)    S(lipo)     H(rot)  DE(clash)    DE(int)     intcor
      1.51      -6.97       1.84        0.00      54.58       4.31       0.11       5.36       ----

> <Gold.Chemscore.Fitness>
1.5063

> <Gold.Chemscore.DG>
-6.9719

> <Gold.Chemscore.ZeroCoef>
-5.4800

> <Gold.Chemscore.Hbond>
1.8360

> <Gold.Chemscore.Metal>
0.0000

> <Gold.Chemscore.Lipo>
54.5760

> <Gold.Chemscore.Internal_Hbond>
0.0000

> <Gold.Chemscore.DEClash>
0.1103

> <Gold.Chemscore.DEInternal>
5.3553

> <Gold.Chemscore.Rot>
4.3070

> <Gold.Chemscore.Internal.Correction>
   9.000000E+99

> <Gold.Chemscore.Hbonds>
donor molecule, donor type, donor heavy atom, donor atom, acceptor molecule, acceptor atom, score
      P1  H  6896  6907       L1     3  0.95
      P1  H  6896  6909       L1    18  0.01
      P1  H 10752 10763       L1    12  0.45

> <Gold.Chemscore.Hbond.Weighted>
-6.1324

> <Gold.Chemscore.Metal.Weighted>
-0.0000

> <Gold.Chemscore.Lipo.Weighted>
-6.3854

> <Gold.Chemscore.Internal_Hbond.Weighted>
0.0000

> <Gold.Chemscore.DEClash.Weighted>
0.1103

> <Gold.Chemscore.DEInternal.Weighted>
5.3553

> <Gold.Chemscore.Rot.Weighted>
11.0259

> <Gold.Chemscore.Internal.Correction.Weighted>
   9.000000E+99

> <Gold.Protein.RotatedTorsions>
[ 6907 6896 6895 6894 ] final   40.43 input  -60.11 | X-H torsion
[ 7974 7965 7964 7962 ] final   73.90 input  175.53 | X-H torsion
[ 8008 7997 7996 7995 ] final -133.75 input   59.86 | X-H torsion
[ 10167 10162 10161 10158 ] final -105.60 input  -65.29 | X-H torsion
[ 10718 10713 10712 10709 ] final -166.24 input   66.30 | X-H torsion
[ 10763 10752 10751 10750 ] final   53.15 input  -60.55 | X-H torsion
[ 11005 11000 10999 10996 ] final   85.08 input  -57.11 | X-H torsion

> <Gold.Protein.ActiveResidues>
 VAL166  LYS551  ARG553  GLY616  TRP617  ASP618  TYR619  PRO620  LYS621  CYS622 
 ASP623  PHE694  ASN695  SER759  ASP760  ASP761  ALA762  ILE779  LEU786  VAL792 
 PHE793  MET794  SER795  GLU796  ALA797  LYS798  CYS799  TRP800  GLU811  SER814 

> <Gold.Protein.RotatedAtoms>
  152.1824  134.8743  160.0524 H   0  0  0  0  0  0  0  0  0  0  0  0  # atno 6907 bound_to 6896
  151.9662  133.3706  159.4062 H   0  0  0  0  0  0  0  0  0  0  0  0  # atno 6908 bound_to 6896
  150.6920  134.4111  159.5206 H   0  0  0  0  0  0  0  0  0  0  0  0  # atno 6909 bound_to 6896
  145.7350  139.2698  143.1519 H   0  0  0  0  0  0  0  0  0  0  0  0  # atno 7974 bound_to 7965
  155.3507  140.0477  157.3046 H   0  0  0  0  0  0  0  0  0  0  0  0  # atno 8008 bound_to 7997
  154.5228  140.2231  155.8908 H   0  0  0  0  0  0  0  0  0  0  0  0  # atno 8009 bound_to 7997
  156.1708  140.3096  155.8976 H   0  0  0  0  0  0  0  0  0  0  0  0  # atno 8010 bound_to 7997
  140.1968  143.3849  152.1162 H   0  0  0  0  0  0  0  0  0  0  0  0  # atno 10167 bound_to 10162
  156.6651  130.9061  151.3035 H   0  0  0  0  0  0  0  0  0  0  0  0  # atno 10718 bound_to 10713
  152.9793  135.5788  154.4694 H   0  0  0  0  0  0  0  0  0  0  0  0  # atno 10763 bound_to 10752
  154.4259  135.2772  155.1947 H   0  0  0  0  0  0  0  0  0  0  0  0  # atno 10764 bound_to 10752
  154.3676  135.6175  153.5777 H   0  0  0  0  0  0  0  0  0  0  0  0  # atno 10765 bound_to 10752
  139.8981  134.8262  156.2533 H   0  0  0  0  0  0  0  0  0  0  0  0  # atno 11005 bound_to 11000
  146.0501  140.8078  142.9786 LP  0  0  0  0  0  0  0  0  0  0  0  0  # atno 17320 bound_to 7965
  144.6884  140.3040  143.7259 LP  0  0  0  0  0  0  0  0  0  0  0  0  # atno 17321 bound_to 7965
  139.5233  144.7070  151.5323 LP  0  0  0  0  0  0  0  0  0  0  0  0  # atno 17342 bound_to 10162
  140.6418  143.8874  150.6699 LP  0  0  0  0  0  0  0  0  0  0  0  0  # atno 17343 bound_to 10162
  157.7096  130.9425  150.1046 LP  0  0  0  0  0  0  0  0  0  0  0  0  # atno 17370 bound_to 10713
  156.1981  130.3658  149.8823 LP  0  0  0  0  0  0  0  0  0  0  0  0  # atno 17371 bound_to 10713
  141.0210  133.7041  156.1267 LP  0  0  0  0  0  0  0  0  0  0  0  0  # atno 17394 bound_to 11000
  140.7234  134.4333  157.5573 LP  0  0  0  0  0  0  0  0  0  0  0  0  # atno 17395 bound_to 11000

$$$$
