AV-unprocessed.smi:101|AV-procd|sdf|943|dock4
  -GOLD-   2262017463D 1   1.00000     0.00000
 Structure written by MMmdl.
 43 45  0  0  0  0  0  0  0  0  2 V2000
  145.1636  144.8010  151.5565 C   0  0  0  0  0  0  0  0  0  0  0  0
  144.7943  144.6282  153.0193 C   0  0  0  0  0  0  0  0  0  0  0  0
  145.3128  143.6406  153.7823 C   0  0  0  0  0  0  0  0  0  0  0  0
  144.9697  143.4845  155.1136 N   0  0  0  0  0  0  0  0  0  0  0  0
  145.5693  142.3615  155.9337 C   0  0  2  0  0  0  0  0  0  0  0  0
  146.9530  142.3566  155.7428 O   0  0  0  0  0  0  0  0  0  0  0  0
  147.4084  141.0193  155.5750 C   0  0  2  0  0  0  0  0  0  0  0  0
  148.7529  140.9843  154.8346 C   0  0  0  0  0  0  0  0  0  0  0  0
  149.6776  141.8234  155.5066 O   0  0  0  0  0  0  0  0  0  0  0  0
  150.8229  141.3093  155.9941 C   0  0  0  0  0  0  0  0  0  0  0  0
  151.4044  140.3439  155.4941 O   0  0  0  0  0  0  0  0  0  0  0  0
  151.3140  142.0296  157.2044 C   0  0  0  0  0  0  0  0  0  0  0  0
  151.0827  143.4200  157.3250 C   0  0  0  0  0  0  0  0  0  0  0  0
  151.5339  144.1265  158.4567 C   0  0  0  0  0  0  0  0  0  0  0  0
  152.2216  143.4514  159.4819 C   0  0  0  0  0  0  0  0  0  0  0  0
  152.4578  142.0685  159.3740 C   0  0  0  0  0  0  0  0  0  0  0  0
  152.0075  141.3601  158.2430 C   0  0  0  0  0  0  0  0  0  0  0  0
  146.2417  140.3192  154.8674 C   0  0  2  0  0  0  0  0  0  0  0  0
  146.2897  140.5500  153.4684 O   0  0  0  0  0  0  0  0  0  0  0  0
  145.0331  140.9699  155.5335 C   0  0  2  0  0  0  0  0  0  0  0  0
  143.8711  140.9605  154.7215 O   0  0  0  0  0  0  0  0  0  0  0  0
  144.0261  144.3653  155.7036 C   0  0  0  0  0  0  0  0  0  0  0  0
  143.7071  144.1732  156.8773 O   0  0  0  0  0  0  0  0  0  0  0  0
  143.5056  145.3713  154.9449 N   0  5  0  0  0  0  0  0  0  0  0  0
  143.8380  145.5565  153.6347 C   0  0  0  0  0  0  0  0  0  0  0  0
  143.3617  146.4708  152.9625 O   0  0  0  0  0  0  0  0  0  0  0  0
  145.8916  144.0532  151.2408 H   0  0  0  0  0  0  0  0  0  0  0  0
  145.5965  145.7871  151.3856 H   0  0  0  0  0  0  0  0  0  0  0  0
  144.2790  144.6984  150.9273 H   0  0  0  0  0  0  0  0  0  0  0  0
  146.0119  142.9504  153.3342 H   0  0  0  0  0  0  0  0  0  0  0  0
  145.3783  142.6036  156.9799 H   0  0  0  0  0  0  0  0  0  0  0  0
  147.5226  140.5749  156.5657 H   0  0  0  0  0  0  0  0  0  0  0  0
  149.1446  139.9663  154.8253 H   0  0  0  0  0  0  0  0  0  0  0  0
  148.6292  141.3022  153.7982 H   0  0  0  0  0  0  0  0  0  0  0  0
  150.5570  143.9599  156.5507 H   0  0  0  0  0  0  0  0  0  0  0  0
  151.3516  145.1880  158.5379 H   0  0  0  0  0  0  0  0  0  0  0  0
  152.5673  143.9935  160.3498 H   0  0  0  0  0  0  0  0  0  0  0  0
  152.9855  141.5490  160.1603 H   0  0  0  0  0  0  0  0  0  0  0  0
  152.2046  140.2992  158.1923 H   0  0  0  0  0  0  0  0  0  0  0  0
  146.2585  139.2416  155.0324 H   0  0  0  0  0  0  0  0  0  0  0  0
  145.4084  140.5340  153.1293 H   0  0  0  0  0  0  0  0  0  0  0  0
  144.8088  140.4391  156.4596 H   0  0  0  0  0  0  0  0  0  0  0  0
  144.1046  140.6137  153.8734 H   0  0  0  0  0  0  0  0  0  0  0  0
  1  2  1  0  0  0  0
  1 27  1  0  0  0  0
  1 28  1  0  0  0  0
  1 29  1  0  0  0  0
  2 25  1  0  0  0  0
  2  3  2  0  0  0  0
  3  4  1  0  0  0  0
  3 30  1  0  0  0  0
  4  5  1  0  0  0  0
  4 22  1  0  0  0  0
  5 20  1  0  0  0  0
  5  6  1  0  0  0  0
  5 31  1  0  0  0  0
  6  7  1  0  0  0  0
  7  8  1  0  0  0  0
  7 18  1  0  0  0  0
  7 32  1  0  0  0  0
  8  9  1  0  0  0  0
  8 33  1  0  0  0  0
  8 34  1  0  0  0  0
  9 10  1  0  0  0  0
 10 11  2  0  0  0  0
 10 12  1  0  0  0  0
 12 17  1  0  0  0  0
 12 13  2  0  0  0  0
 13 14  1  0  0  0  0
 13 35  1  0  0  0  0
 14 15  2  0  0  0  0
 14 36  1  0  0  0  0
 15 16  1  0  0  0  0
 15 37  1  0  0  0  0
 16 17  2  0  0  0  0
 16 38  1  0  0  0  0
 17 39  1  0  0  0  0
 18 19  1  0  0  0  0
 18 20  1  0  0  0  0
 18 40  1  0  0  0  0
 19 41  1  0  0  0  0
 20 21  1  0  0  0  0
 20 42  1  0  0  0  0
 21 43  1  0  0  0  0
 22 23  2  0  0  0  0
 22 24  1  0  0  0  0
 24 25  1  0  0  0  0
 25 26  2  0  0  0  0
M  CHG  1  24  -1
M  END
> <s_m_source_file>
AV-unprocessed.smi

> <i_m_source_file_index>
101

> <i_lp_mmshare_version>
43012

> <i_f3d_flags>
0

> <s_epik_input>
Tz1jMVtuSF1jKD1PKW4oW2NIXWMxW0NIM10pW0NAQEhdMk9bQ0BIXShbQ0BASF0oW09IXSlbQ0BIXTJbT0hdKVtDSDJdT0MoPU8pYzNbY0hdW2NIXVtjSF1bY0hdW2NIXTM=

> <s_epik_cmdline>
J2VwaWtfcHl0aG9uJywgJy1waCcsICc3LjAnLCAnLXRuJywgJzgnLCAnLW1hJywgJzIwMCcsICctbWV0YWxfYmluZGluZycsICctaW1hZScsICc8aW5maWxlLm1hZT4nLCAnLW9tYWUnLCAnPG91dGZpbGUubWFlPic=

> <r_lp_tautomer_probability>
0.999537

> <r_epik_Ionization_Penalty>
3.21006

> <r_epik_Ionization_Penalty_Charging>
5.75142e-08

> <r_epik_Ionization_Penalty_Neutral>
3.21006

> <r_epik_State_Penalty>
3.20925

> <r_epik_Charging_Adjusted_Penalty>
3.20925

> <i_epik_Tot_Q>
-1

> <i_epik_Tot_abs_Q>
1

> <r_epik_Metal_State_Penalty>
0.119957

> <b_epik_Metal_Only>
1

> <s_epik_Chemistry_Notes>
This compound has an ester and may undergo hydrolysis at high or low pH. This compound contains an acetal/aminal-like group ( X-CH(R)-Y where X, Y are N, S, or O) that may be acid/base labile, releasing an aldehyde.

> <s_lp_Force_Field>
OPLS_2005

> <r_lp_Energy>
51.0672

> <b_lp_Chiralities_Consistent>
1

> <s_lp_Variant>
AV-unprocessed.smi:101-31

> <Gold.Version>
5.8.1

> <Gold.Id.Protein>
6NUR|6NUR_protein|mol2

> <Gold.PLP.Fitness>
52.9599

> <Gold.PLP.PLP>
-46.9074

> <Gold.PLP.part.hbond>
-4.7404

> <Gold.PLP.part.metal>
0.0000

> <Gold.PLP.part.buried>
-7.7102

> <Gold.PLP.part.nonpolar>
-34.9259

> <Gold.PLP.part.repulsive>
1.1460

> <Gold.PLP.ligand.clash>
0.0000

> <Gold.PLP.ligand.torsion>
1.4718

> <Gold.PLP.Chemscore.Hbond>
2.9840

> <Gold.PLP.Chemscore.CHOScore>
0.0000

> <Gold.PLP.Chemscore.Metal>
0.0000

> <Gold.Chemscore.Hbonds>
donor molecule, donor type, donor heavy atom, donor atom, acceptor molecule, acceptor atom, score
      L1  H    19    41       P1 10175  1.00
      L1  H    21    43       P1 10175  0.67
      P1  H  7989  7998       L1    11  0.83

> <Gold.PLP.Chemscore.Internal.Correction>
0.0441

> <Gold.Rescore>
     Score         DG    S(hbond)    S(metal)    S(lipo)     H(rot)  DE(clash)    DE(int)     intcor
     12.38     -16.21       2.02        0.00     105.61       3.27       2.07       1.76       ----

> <Gold.Chemscore.Fitness>
12.3840

> <Gold.Chemscore.DG>
-16.2103

> <Gold.Chemscore.ZeroCoef>
-5.4800

> <Gold.Chemscore.Hbond>
2.0159

> <Gold.Chemscore.Metal>
0.0000

> <Gold.Chemscore.Lipo>
105.6147

> <Gold.Chemscore.Internal_Hbond>
0.0000

> <Gold.Chemscore.DEClash>
2.0664

> <Gold.Chemscore.DEInternal>
1.7599

> <Gold.Chemscore.Rot>
3.2656

> <Gold.Chemscore.Internal.Correction>
   9.000000E+99

> <Gold.Chemscore.Hbonds>
donor molecule, donor type, donor heavy atom, donor atom, acceptor molecule, acceptor atom, score
      L1  H    19    41       P1 10175  0.91
      L1  H    21    43       P1 10175  0.65
      P1  H  7989  7998       L1    11  0.35

> <Gold.Chemscore.Hbond.Weighted>
-6.7332

> <Gold.Chemscore.Metal.Weighted>
-0.0000

> <Gold.Chemscore.Lipo.Weighted>
-12.3569

> <Gold.Chemscore.Internal_Hbond.Weighted>
0.0000

> <Gold.Chemscore.DEClash.Weighted>
2.0664

> <Gold.Chemscore.DEInternal.Weighted>
1.7599

> <Gold.Chemscore.Rot.Weighted>
8.3598

> <Gold.Chemscore.Internal.Correction.Weighted>
   9.000000E+99

> <Gold.Protein.RotatedTorsions>
[ 6907 6896 6895 6894 ] final  105.79 input  -60.11 | X-H torsion
[ 7974 7965 7964 7962 ] final   97.61 input  175.53 | X-H torsion
[ 8008 7997 7996 7995 ] final  -16.33 input   59.86 | X-H torsion
[ 10167 10162 10161 10158 ] final   16.79 input  -65.29 | X-H torsion
[ 10718 10713 10712 10709 ] final  118.94 input   66.30 | X-H torsion
[ 10763 10752 10751 10750 ] final   63.89 input  -60.55 | X-H torsion
[ 11005 11000 10999 10996 ] final  111.14 input  -57.11 | X-H torsion

> <Gold.Protein.ActiveResidues>
 VAL166  LYS551  ARG553  GLY616  TRP617  ASP618  TYR619  PRO620  LYS621  CYS622 
 ASP623  PHE694  ASN695  SER759  ASP760  ASP761  ALA762  ILE779  LEU786  VAL792 
 PHE793  MET794  SER795  GLU796  ALA797  LYS798  CYS799  TRP800  GLU811  SER814 

> <Gold.Protein.RotatedAtoms>
  152.5217  133.9476  159.7656 H   0  0  0  0  0  0  0  0  0  0  0  0  # atno 6907 bound_to 6896
  150.9793  133.6254  159.2732 H   0  0  0  0  0  0  0  0  0  0  0  0  # atno 6908 bound_to 6896
  151.3438  135.0875  159.9433 H   0  0  0  0  0  0  0  0  0  0  0  0  # atno 6909 bound_to 6896
  145.4233  139.2319  143.3184 H   0  0  0  0  0  0  0  0  0  0  0  0  # atno 7974 bound_to 7965
  154.5061  140.2172  155.9248 H   0  0  0  0  0  0  0  0  0  0  0  0  # atno 8008 bound_to 7997
  156.1495  140.3164  155.8592 H   0  0  0  0  0  0  0  0  0  0  0  0  # atno 8009 bound_to 7997
  155.3965  140.0481  157.3029 H   0  0  0  0  0  0  0  0  0  0  0  0  # atno 8010 bound_to 7997
  140.5772  143.9050  150.6760 H   0  0  0  0  0  0  0  0  0  0  0  0  # atno 10167 bound_to 10162
  157.5996  131.1053  150.7827 H   0  0  0  0  0  0  0  0  0  0  0  0  # atno 10718 bound_to 10713
  153.0035  135.5413  154.6423 H   0  0  0  0  0  0  0  0  0  0  0  0  # atno 10763 bound_to 10752
  154.5675  135.2839  155.0862 H   0  0  0  0  0  0  0  0  0  0  0  0  # atno 10764 bound_to 10752
  154.2040  135.6479  153.5148 H   0  0  0  0  0  0  0  0  0  0  0  0  # atno 10765 bound_to 10752
  139.8897  134.9501  156.6387 H   0  0  0  0  0  0  0  0  0  0  0  0  # atno 11005 bound_to 11000
  146.2645  140.4960  142.8839 LP  0  0  0  0  0  0  0  0  0  0  0  0  # atno 17320 bound_to 7965
  144.8231  140.6583  143.6340 LP  0  0  0  0  0  0  0  0  0  0  0  0  # atno 17321 bound_to 7965
  140.2540  143.3572  152.1381 LP  0  0  0  0  0  0  0  0  0  0  0  0  # atno 17342 bound_to 10162
  139.5149  144.6955  151.5642 LP  0  0  0  0  0  0  0  0  0  0  0  0  # atno 17343 bound_to 10162
  156.8229  130.4990  149.5341 LP  0  0  0  0  0  0  0  0  0  0  0  0  # atno 17370 bound_to 10713
  156.1066  130.6009  150.9980 LP  0  0  0  0  0  0  0  0  0  0  0  0  # atno 17371 bound_to 10713
  140.7611  133.8817  155.8418 LP  0  0  0  0  0  0  0  0  0  0  0  0  # atno 17394 bound_to 11000
  140.9921  134.1264  157.4398 LP  0  0  0  0  0  0  0  0  0  0  0  0  # atno 17395 bound_to 11000

$$$$
