AV-unprocessed.smi:2316|AV-procd|sdf|9269|dock1
  -GOLD-   2272012493D 1   1.00000     0.00000
 Structure written by MMmdl.
 31 32  0  0  0  0  0  0  0  0  1 V2000
  148.4872  144.2527  161.5077 O   0  0  0  0  0  0  0  0  0  0  0  0
  148.2656  144.6558  160.3680 C   0  0  0  0  0  0  0  0  0  0  0  0
  147.0440  144.7392  159.8055 N   0  0  0  0  0  0  0  0  0  0  0  0
  145.7769  144.4100  160.3586 C   0  0  0  0  0  0  0  0  0  0  0  0
  145.5955  143.7311  161.5877 C   0  0  0  0  0  0  0  0  0  0  0  0
  144.2818  143.4814  162.0328 C   0  0  0  0  0  0  0  0  0  0  0  0
  143.1801  143.8617  161.3517 N   0  0  0  0  0  0  0  0  0  0  0  0
  143.3570  144.5206  160.1870 C   0  0  0  0  0  0  0  0  0  0  0  0
  144.6261  144.8208  159.6531 C   0  0  0  0  0  0  0  0  0  0  0  0
  144.7332  145.4895  158.4792 F   0  0  0  0  0  0  0  0  0  0  0  0
  149.2725  145.0326  159.5576 N   0  0  0  0  0  0  0  0  0  0  0  0
  150.7095  145.0672  159.8399 C   0  0  2  0  0  0  0  0  0  0  0  0
  151.5089  145.2350  158.5533 C   0  0  0  0  0  0  0  0  0  0  0  0
  152.6142  144.5278  158.2627 C   0  0  0  0  0  0  0  0  0  0  0  0
  153.2084  143.4843  159.1900 C   0  0  0  0  0  0  0  0  0  0  0  0
  152.6372  143.5844  160.6152 C   0  0  0  0  0  0  0  0  0  0  0  0
  151.1143  143.7872  160.6026 C   0  0  0  0  0  0  0  0  0  0  0  0
  147.0274  145.0157  158.8346 H   0  0  0  0  0  0  0  0  0  0  0  0
  146.4249  143.4108  162.1986 H   0  0  0  0  0  0  0  0  0  0  0  0
  144.1117  142.9664  162.9667 H   0  0  0  0  0  0  0  0  0  0  0  0
  142.4600  144.8190  159.6648 H   0  0  0  0  0  0  0  0  0  0  0  0
  149.0090  145.3121  158.6236 H   0  0  0  0  0  0  0  0  0  0  0  0
  150.9398  145.9234  160.4762 H   0  0  0  0  0  0  0  0  0  0  0  0
  151.1515  145.9691  157.8457 H   0  0  0  0  0  0  0  0  0  0  0  0
  153.1182  144.6846  157.3203 H   0  0  0  0  0  0  0  0  0  0  0  0
  153.0025  142.5001  158.7685 H   0  0  0  0  0  0  0  0  0  0  0  0
  154.2922  143.6001  159.2156 H   0  0  0  0  0  0  0  0  0  0  0  0
  152.8958  142.6902  161.1829 H   0  0  0  0  0  0  0  0  0  0  0  0
  153.1032  144.4234  161.1337 H   0  0  0  0  0  0  0  0  0  0  0  0
  150.7320  143.8249  161.6232 H   0  0  0  0  0  0  0  0  0  0  0  0
  150.6535  142.9157  160.1345 H   0  0  0  0  0  0  0  0  0  0  0  0
  1  2  2  0  0  0  0
  2  3  1  0  0  0  0
  2 11  1  0  0  0  0
  3  4  1  0  0  0  0
  3 18  1  0  0  0  0
  4  9  1  0  0  0  0
  4  5  2  0  0  0  0
  5  6  1  0  0  0  0
  5 19  1  0  0  0  0
  6  7  2  0  0  0  0
  6 20  1  0  0  0  0
  7  8  1  0  0  0  0
  8  9  2  0  0  0  0
  8 21  1  0  0  0  0
  9 10  1  0  0  0  0
 11 12  1  0  0  0  0
 11 22  1  0  0  0  0
 12 17  1  0  0  0  0
 12 13  1  0  0  0  0
 12 23  1  0  0  0  0
 13 14  2  0  0  0  0
 13 24  1  0  0  0  0
 14 15  1  0  0  0  0
 14 25  1  0  0  0  0
 15 16  1  0  0  0  0
 15 26  1  0  0  0  0
 15 27  1  0  0  0  0
 16 17  1  0  0  0  0
 16 28  1  0  0  0  0
 16 29  1  0  0  0  0
 17 30  1  0  0  0  0
 17 31  1  0  0  0  0
M  END
> <s_m_source_file>
AV-unprocessed.smi

> <i_m_source_file_index>
2316

> <i_lp_mmshare_version>
43012

> <i_f3d_flags>
0

> <s_epik_input>
W0NIMl0xW0NIMl1bQ0gyXVtDSF09W0NIXVtDQEhdMVtOSF1DKD1PKVtOSF1jMltjSF1bY0hdbltjSF1jMkY=

> <s_epik_cmdline>
J2VwaWtfcHl0aG9uJywgJy1waCcsICc3LjAnLCAnLXRuJywgJzgnLCAnLW1hJywgJzIwMCcsICctbWV0YWxfYmluZGluZycsICctaW1hZScsICc8aW5maWxlLm1hZT4nLCAnLW9tYWUnLCAnPG91dGZpbGUubWFlPic=

> <r_epik_Ionization_Penalty>
0.0032416

> <r_epik_Ionization_Penalty_Charging>
0

> <r_epik_Ionization_Penalty_Neutral>
0.0032416

> <r_epik_State_Penalty>
0.00226065

> <r_epik_Charging_Adjusted_Penalty>
0.00226065

> <i_epik_Tot_Q>
0

> <i_epik_Tot_abs_Q>
0

> <r_epik_Metal_State_Penalty>
-0

> <b_epik_Metal_Only>
0

> <s_lp_Force_Field>
OPLS_2005

> <r_lp_Energy>
22.3144

> <b_lp_Chiralities_Consistent>
1

> <s_lp_Variant>
AV-unprocessed.smi:2316-1

> <Gold.Version>
5.8.1

> <Gold.Id.Protein>
6NUR|6NUR_protein|mol2

> <Gold.PLP.Fitness>
47.0335

> <Gold.PLP.PLP>
-39.1872

> <Gold.PLP.part.hbond>
-3.0000

> <Gold.PLP.part.metal>
0.0000

> <Gold.PLP.part.buried>
-6.7876

> <Gold.PLP.part.nonpolar>
-30.9872

> <Gold.PLP.part.repulsive>
0.6335

> <Gold.PLP.ligand.clash>
0.0000

> <Gold.PLP.ligand.torsion>
0.2230

> <Gold.PLP.Chemscore.Hbond>
2.7613

> <Gold.PLP.Chemscore.CHOScore>
0.0000

> <Gold.PLP.Chemscore.Metal>
0.0000

> <Gold.Chemscore.Hbonds>
donor molecule, donor type, donor heavy atom, donor atom, acceptor molecule, acceptor atom, score
      L1  H     3    18       P1  8029  1.00
      L1  H    11    22       P1  8029  1.00
      P1  H  6933  6944       L1     1  0.82

> <Gold.PLP.Chemscore.Internal.Correction>
0.0085

> <Gold.Rescore>
     Score         DG    S(hbond)    S(metal)    S(lipo)     H(rot)  DE(clash)    DE(int)     intcor
     21.23     -23.83       2.77        0.00      99.64       1.00       0.04       2.56       ----

> <Gold.Chemscore.Fitness>
21.2282

> <Gold.Chemscore.DG>
-23.8334

> <Gold.Chemscore.ZeroCoef>
-5.4800

> <Gold.Chemscore.Hbond>
2.7710

> <Gold.Chemscore.Metal>
0.0000

> <Gold.Chemscore.Lipo>
99.6443

> <Gold.Chemscore.Internal_Hbond>
0.0000

> <Gold.Chemscore.DEClash>
0.0441

> <Gold.Chemscore.DEInternal>
2.5611

> <Gold.Chemscore.Rot>
1.0000

> <Gold.Chemscore.Internal.Correction>
   9.000000E+99

> <Gold.Chemscore.Hbonds>
donor molecule, donor type, donor heavy atom, donor atom, acceptor molecule, acceptor atom, score
      L1  H     3    18       P1  8029  0.92
      L1  H    11    22       P1  8029  0.97
      P1  H  6933  6944       L1     1  0.53

> <Gold.Chemscore.Hbond.Weighted>
-9.2551

> <Gold.Chemscore.Metal.Weighted>
-0.0000

> <Gold.Chemscore.Lipo.Weighted>
-11.6584

> <Gold.Chemscore.Internal_Hbond.Weighted>
0.0000

> <Gold.Chemscore.DEClash.Weighted>
0.0441

> <Gold.Chemscore.DEInternal.Weighted>
2.5611

> <Gold.Chemscore.Rot.Weighted>
2.5600

> <Gold.Chemscore.Internal.Correction.Weighted>
   9.000000E+99

> <Gold.Protein.RotatedTorsions>
[ 6907 6896 6895 6894 ] final   32.87 input  -60.11 | X-H torsion
[ 7974 7965 7964 7962 ] final   24.58 input  175.53 | X-H torsion
[ 8008 7997 7996 7995 ] final  -13.76 input   59.86 | X-H torsion
[ 10167 10162 10161 10158 ] final  119.71 input  -65.29 | X-H torsion
[ 10718 10713 10712 10709 ] final   22.17 input   66.30 | X-H torsion
[ 10763 10752 10751 10750 ] final   23.39 input  -60.55 | X-H torsion
[ 11005 11000 10999 10996 ] final  132.65 input  -57.11 | X-H torsion

> <Gold.Protein.ActiveResidues>
 VAL166  LYS551  ARG553  GLY616  TRP617  ASP618  TYR619  PRO620  LYS621  CYS622 
 ASP623  PHE694  ASN695  SER759  ASP760  ASP761  ALA762  ILE779  LEU786  VAL792 
 PHE793  MET794  SER795  GLU796  ALA797  LYS798  CYS799  TRP800  GLU811  SER814 

> <Gold.Protein.RotatedAtoms>
  152.0805  134.9474  160.0573 H   0  0  0  0  0  0  0  0  0  0  0  0  # atno 6907 bound_to 6896
  152.0764  133.4127  159.4490 H   0  0  0  0  0  0  0  0  0  0  0  0  # atno 6908 bound_to 6896
  150.6836  134.2952  159.4727 H   0  0  0  0  0  0  0  0  0  0  0  0  # atno 6909 bound_to 6896
  146.1931  139.7585  142.8817 H   0  0  0  0  0  0  0  0  0  0  0  0  # atno 7974 bound_to 7965
  154.5266  140.2241  155.8880 H   0  0  0  0  0  0  0  0  0  0  0  0  # atno 8008 bound_to 7997
  156.1719  140.3120  155.8954 H   0  0  0  0  0  0  0  0  0  0  0  0  # atno 8009 bound_to 7997
  155.3539  140.0457  157.3037 H   0  0  0  0  0  0  0  0  0  0  0  0  # atno 8010 bound_to 7997
  139.6028  144.7062  151.3022 H   0  0  0  0  0  0  0  0  0  0  0  0  # atno 10167 bound_to 10162
  157.1486  130.6664  149.6004 H   0  0  0  0  0  0  0  0  0  0  0  0  # atno 10718 bound_to 10713
  153.0842  135.6628  153.9983 H   0  0  0  0  0  0  0  0  0  0  0  0  # atno 10763 bound_to 10752
  153.9597  135.2975  155.3435 H   0  0  0  0  0  0  0  0  0  0  0  0  # atno 10764 bound_to 10752
  154.7247  135.5149  153.8940 H   0  0  0  0  0  0  0  0  0  0  0  0  # atno 10765 bound_to 10752
  139.9803  134.9550  156.9612 H   0  0  0  0  0  0  0  0  0  0  0  0  # atno 11005 bound_to 11000
  145.3731  141.0346  143.3220 LP  0  0  0  0  0  0  0  0  0  0  0  0  # atno 17320 bound_to 7965
  144.8525  139.5300  143.6850 LP  0  0  0  0  0  0  0  0  0  0  0  0  # atno 17321 bound_to 7965
  140.7263  143.6995  150.7857 LP  0  0  0  0  0  0  0  0  0  0  0  0  # atno 17342 bound_to 10162
  140.0574  143.5188  152.2644 LP  0  0  0  0  0  0  0  0  0  0  0  0  # atno 17343 bound_to 10162
  155.9775  130.4752  150.6595 LP  0  0  0  0  0  0  0  0  0  0  0  0  # atno 17370 bound_to 10713
  157.4241  131.0841  151.1102 LP  0  0  0  0  0  0  0  0  0  0  0  0  # atno 17371 bound_to 10713
  140.5110  134.1002  155.7270 LP  0  0  0  0  0  0  0  0  0  0  0  0  # atno 17394 bound_to 11000
  141.1476  133.9027  157.2178 LP  0  0  0  0  0  0  0  0  0  0  0  0  # atno 17395 bound_to 11000

$$$$
