AV-unprocessed.smi:1995|AV-procd|sdf|8080|dock7
  -GOLD-   2272010293D 1   1.00000     0.00000
 Structure written by MMmdl.
 41 42  0  0  0  0  0  0  0  0  2 V2000
  150.6227  139.4589  154.9963 C   0  0  0  0  0  0  0  0  0  0  0  0
  151.3749  140.2102  156.1101 C   0  0  0  0  0  0  0  0  0  0  0  0
  150.7009  140.1841  157.5189 C   0  0  1  0  0  0  0  0  0  0  0  0
  149.2618  140.7336  157.3239 C   0  0  0  0  0  0  0  0  0  0  0  0
  150.5925  138.7003  158.0003 C   0  0  0  0  0  0  0  0  0  0  0  0
  149.4815  138.4540  158.9209 N   0  0  0  0  0  0  0  0  0  0  0  0
  149.1038  137.2686  159.4216 C   0  0  0  0  0  0  0  0  0  0  0  0
  149.7222  136.2450  159.1209 O   0  0  0  0  0  0  0  0  0  0  0  0
  148.0230  137.3421  160.2313 N   0  5  0  0  0  0  0  0  0  0  0  0
  147.7859  136.3683  161.1252 C   0  0  0  0  0  0  0  0  0  0  0  0
  147.6776  135.0781  160.7880 N   0  0  0  0  0  0  0  0  0  0  0  0
  147.4382  134.2381  161.8771 C   0  0  0  0  0  0  0  0  0  0  0  0
  147.3704  134.9032  163.0725 C   0  0  0  0  0  0  0  0  0  0  0  0
  147.6073  136.6150  162.8649 S   0  0  0  0  0  0  0  0  0  0  0  0
  151.4590  141.0307  158.4844 N   0  0  0  0  0  0  0  0  0  0  0  0
  152.8037  140.5491  158.8204 C   0  0  0  0  0  0  0  0  0  0  0  0
  153.4561  141.3938  159.9283 C   0  0  0  0  0  0  0  0  0  0  0  0
  153.5000  142.7587  159.5298 O   0  0  0  0  0  0  0  0  0  0  0  0
  152.2087  143.2829  159.2434 C   0  0  0  0  0  0  0  0  0  0  0  0
  151.5475  142.4528  158.1302 C   0  0  0  0  0  0  0  0  0  0  0  0
  151.1675  139.5310  154.0548 H   0  0  0  0  0  0  0  0  0  0  0  0
  149.6280  139.8707  154.8273 H   0  0  0  0  0  0  0  0  0  0  0  0
  150.5136  138.3995  155.2256 H   0  0  0  0  0  0  0  0  0  0  0  0
  152.3746  139.7790  156.1680 H   0  0  0  0  0  0  0  0  0  0  0  0
  151.5423  141.2389  155.7907 H   0  0  0  0  0  0  0  0  0  0  0  0
  148.7659  140.2855  156.4621 H   0  0  0  0  0  0  0  0  0  0  0  0
  149.2588  141.8128  157.1704 H   0  0  0  0  0  0  0  0  0  0  0  0
  148.6262  140.5254  158.1847 H   0  0  0  0  0  0  0  0  0  0  0  0
  150.5277  138.0172  157.1535 H   0  0  0  0  0  0  0  0  0  0  0  0
  151.4923  138.4101  158.5414 H   0  0  0  0  0  0  0  0  0  0  0  0
  148.9403  139.2597  159.1980 H   0  0  0  0  0  0  0  0  0  0  0  0
  147.3304  133.1770  161.7094 H   0  0  0  0  0  0  0  0  0  0  0  0
  147.1987  134.4938  164.0565 H   0  0  0  0  0  0  0  0  0  0  0  0
  152.7738  139.5172  159.1655 H   0  0  0  0  0  0  0  0  0  0  0  0
  153.4456  140.5718  157.9401 H   0  0  0  0  0  0  0  0  0  0  0  0
  152.9014  141.2980  160.8630 H   0  0  0  0  0  0  0  0  0  0  0  0
  154.4712  141.0465  160.1212 H   0  0  0  0  0  0  0  0  0  0  0  0
  151.5960  143.2759  160.1460 H   0  0  0  0  0  0  0  0  0  0  0  0
  152.3082  144.3227  158.9319 H   0  0  0  0  0  0  0  0  0  0  0  0
  152.1241  142.5796  157.2141 H   0  0  0  0  0  0  0  0  0  0  0  0
  150.5610  142.8720  157.9420 H   0  0  0  0  0  0  0  0  0  0  0  0
  1  2  1  0  0  0  0
  1 21  1  0  0  0  0
  1 22  1  0  0  0  0
  1 23  1  0  0  0  0
  2  3  1  0  0  0  0
  2 24  1  0  0  0  0
  2 25  1  0  0  0  0
  3  4  1  0  0  0  0
  3  5  1  0  0  0  0
  3 15  1  0  0  0  0
  4 26  1  0  0  0  0
  4 27  1  0  0  0  0
  4 28  1  0  0  0  0
  5  6  1  0  0  0  0
  5 29  1  0  0  0  0
  5 30  1  0  0  0  0
  6  7  1  0  0  0  0
  6 31  1  0  0  0  0
  7  8  2  0  0  0  0
  7  9  1  0  0  0  0
  9 10  1  0  0  0  0
 10 14  1  0  0  0  0
 10 11  2  0  0  0  0
 11 12  1  0  0  0  0
 12 13  2  0  0  0  0
 12 32  1  0  0  0  0
 13 14  1  0  0  0  0
 13 33  1  0  0  0  0
 15 20  1  0  0  0  0
 15 16  1  0  0  0  0
 16 17  1  0  0  0  0
 16 34  1  0  0  0  0
 16 35  1  0  0  0  0
 17 18  1  0  0  0  0
 17 36  1  0  0  0  0
 17 37  1  0  0  0  0
 18 19  1  0  0  0  0
 19 20  1  0  0  0  0
 19 38  1  0  0  0  0
 19 39  1  0  0  0  0
 20 40  1  0  0  0  0
 20 41  1  0  0  0  0
M  CHG  1   9  -1
M  END
> <s_m_source_file>
AV-unprocessed.smi

> <i_m_source_file_index>
1995

> <i_lp_mmshare_version>
43012

> <i_f3d_flags>
0

> <s_epik_input>
W0NIMl0xW0NIMl1PW0NIMl1bQ0gyXU4xW0NAQF0oW0NIM10pKFtDSDJdW0NIM10pW0NIMl1bTkhdQyg9TylbTkhdYzJuW2NIXVtjSF1zMg==

> <s_epik_cmdline>
J2VwaWtfcHl0aG9uJywgJy1waCcsICc3LjAnLCAnLXRuJywgJzgnLCAnLW1hJywgJzIwMCcsICctbWV0YWxfYmluZGluZycsICctaW1hZScsICc8aW5maWxlLm1hZT4nLCAnLW9tYWUnLCAnPG91dGZpbGUubWFlPic=

> <r_lp_tautomer_probability>
0.999

> <r_epik_Ionization_Penalty>
8.86479

> <r_epik_Ionization_Penalty_Charging>
6.76546

> <r_epik_Ionization_Penalty_Neutral>
2.09933

> <r_epik_State_Penalty>
7.05418

> <r_epik_Charging_Adjusted_Penalty>
13.8196

> <i_epik_Tot_Q>
-1

> <i_epik_Tot_abs_Q>
1

> <r_epik_Metal_State_Penalty>
2.97744

> <b_epik_Metal_Only>
1

> <s_lp_Force_Field>
OPLS_2005

> <r_lp_Energy>
37.7031

> <b_lp_Chiralities_Consistent>
1

> <s_lp_Variant>
AV-unprocessed.smi:1995-5

> <Gold.Version>
5.8.1

> <Gold.Id.Protein>
6NUR|6NUR_protein|mol2

> <Gold.PLP.Fitness>
44.9546

> <Gold.PLP.PLP>
-39.3395

> <Gold.PLP.part.hbond>
-3.0000

> <Gold.PLP.part.metal>
0.0000

> <Gold.PLP.part.buried>
-5.4964

> <Gold.PLP.part.nonpolar>
-32.9593

> <Gold.PLP.part.repulsive>
0.2349

> <Gold.PLP.ligand.clash>
0.0000

> <Gold.PLP.ligand.torsion>
1.0812

> <Gold.PLP.Chemscore.Hbond>
2.5349

> <Gold.PLP.Chemscore.CHOScore>
0.0000

> <Gold.PLP.Chemscore.Metal>
0.0000

> <Gold.Chemscore.Hbonds>
donor molecule, donor type, donor heavy atom, donor atom, acceptor molecule, acceptor atom, score
      P1  H  6896  6909       L1     8  0.99
      P1  H  6931  6943       L1     9  0.14
      P1  H  6934  6947       L1     9  1.41

> <Gold.PLP.Chemscore.Internal.Correction>
0.1729

> <Gold.Rescore>
     Score         DG    S(hbond)    S(metal)    S(lipo)     H(rot)  DE(clash)    DE(int)     intcor
     14.45     -16.75       1.49        0.00      90.83       1.70       0.00       2.30       ----

> <Gold.Chemscore.Fitness>
14.4483

> <Gold.Chemscore.DG>
-16.7479

> <Gold.Chemscore.ZeroCoef>
-5.4800

> <Gold.Chemscore.Hbond>
1.4939

> <Gold.Chemscore.Metal>
0.0000

> <Gold.Chemscore.Lipo>
90.8253

> <Gold.Chemscore.Internal_Hbond>
0.0000

> <Gold.Chemscore.DEClash>
0.0021

> <Gold.Chemscore.DEInternal>
2.2975

> <Gold.Chemscore.Rot>
1.6985

> <Gold.Chemscore.Internal.Correction>
   9.000000E+99

> <Gold.Chemscore.Hbonds>
donor molecule, donor type, donor heavy atom, donor atom, acceptor molecule, acceptor atom, score
      P1  H  6896  6909       L1     8  0.92
      P1  H  6934  6947       L1     9  0.44

> <Gold.Chemscore.Hbond.Weighted>
-4.9895

> <Gold.Chemscore.Metal.Weighted>
-0.0000

> <Gold.Chemscore.Lipo.Weighted>
-10.6266

> <Gold.Chemscore.Internal_Hbond.Weighted>
0.0000

> <Gold.Chemscore.DEClash.Weighted>
0.0021

> <Gold.Chemscore.DEInternal.Weighted>
2.2975

> <Gold.Chemscore.Rot.Weighted>
4.3482

> <Gold.Chemscore.Internal.Correction.Weighted>
   9.000000E+99

> <Gold.Protein.RotatedTorsions>
[ 6907 6896 6895 6894 ] final   49.53 input  -60.11 | X-H torsion
[ 7974 7965 7964 7962 ] final   90.25 input  175.53 | X-H torsion
[ 8008 7997 7996 7995 ] final -100.28 input   59.86 | X-H torsion
[ 10167 10162 10161 10158 ] final  -33.08 input  -65.29 | X-H torsion
[ 10718 10713 10712 10709 ] final   64.40 input   66.30 | X-H torsion
[ 10763 10752 10751 10750 ] final   68.50 input  -60.55 | X-H torsion
[ 11005 11000 10999 10996 ] final  -19.27 input  -57.11 | X-H torsion

> <Gold.Protein.ActiveResidues>
 VAL166  LYS551  ARG553  GLY616  TRP617  ASP618  TYR619  PRO620  LYS621  CYS622 
 ASP623  PHE694  ASN695  SER759  ASP760  ASP761  ALA762  ILE779  LEU786  VAL792 
 PHE793  MET794  SER795  GLU796  ALA797  LYS798  CYS799  TRP800  GLU811  SER814 

> <Gold.Protein.RotatedAtoms>
  152.2918  134.7713  160.0376 H   0  0  0  0  0  0  0  0  0  0  0  0  # atno 6907 bound_to 6896
  151.8257  133.3396  159.3606 H   0  0  0  0  0  0  0  0  0  0  0  0  # atno 6908 bound_to 6896
  150.7233  134.5460  159.5815 H   0  0  0  0  0  0  0  0  0  0  0  0  # atno 6909 bound_to 6896
  145.5215  139.2279  143.2669 H   0  0  0  0  0  0  0  0  0  0  0  0  # atno 7974 bound_to 7965
  154.8264  140.0442  157.1447 H   0  0  0  0  0  0  0  0  0  0  0  0  # atno 8008 bound_to 7997
  154.9201  140.3025  155.5200 H   0  0  0  0  0  0  0  0  0  0  0  0  # atno 8009 bound_to 7997
  156.2984  140.2342  156.4250 H   0  0  0  0  0  0  0  0  0  0  0  0  # atno 8010 bound_to 7997
  140.7210  143.3647  151.1895 H   0  0  0  0  0  0  0  0  0  0  0  0  # atno 10167 bound_to 10162
  157.6037  130.9158  149.9841 H   0  0  0  0  0  0  0  0  0  0  0  0  # atno 10718 bound_to 10713
  153.0239  135.5245  154.7144 H   0  0  0  0  0  0  0  0  0  0  0  0  # atno 10763 bound_to 10752
  154.6217  135.2890  155.0320 H   0  0  0  0  0  0  0  0  0  0  0  0  # atno 10764 bound_to 10752
  154.1304  135.6594  153.4973 H   0  0  0  0  0  0  0  0  0  0  0  0  # atno 10765 bound_to 10752
  140.8350  133.7968  155.9799 H   0  0  0  0  0  0  0  0  0  0  0  0  # atno 11005 bound_to 11000
  146.2103  140.6027  142.9063 LP  0  0  0  0  0  0  0  0  0  0  0  0  # atno 17320 bound_to 7965
  144.7673  140.5560  143.6694 LP  0  0  0  0  0  0  0  0  0  0  0  0  # atno 17321 bound_to 7965
  139.7206  143.9230  152.2984 LP  0  0  0  0  0  0  0  0  0  0  0  0  # atno 17342 bound_to 10162
  139.8985  144.6925  150.8691 LP  0  0  0  0  0  0  0  0  0  0  0  0  # atno 17343 bound_to 10162
  156.1117  130.3649  150.0038 LP  0  0  0  0  0  0  0  0  0  0  0  0  # atno 17370 bound_to 10713
  156.8135  130.9333  151.3643 LP  0  0  0  0  0  0  0  0  0  0  0  0  # atno 17371 bound_to 10713
  140.8957  134.2440  157.5070 LP  0  0  0  0  0  0  0  0  0  0  0  0  # atno 17394 bound_to 11000
  139.8704  134.9683  156.4625 LP  0  0  0  0  0  0  0  0  0  0  0  0  # atno 17395 bound_to 11000

$$$$
