AV-unprocessed.smi:1456|AV-procd|sdf|5918|dock8
  -GOLD-   22720 6 03D 1   1.00000     0.00000
 Structure written by MMmdl.
 41 42  0  0  0  0  0  0  0  0  3 V2000
  150.1064  138.6823  156.0693 C   0  0  0  0  0  0  0  0  0  0  0  0
  149.8464  137.6878  154.9158 C   0  0  0  0  0  0  0  0  0  0  0  0
  151.1701  137.5682  154.1350 C   0  0  0  0  0  0  0  0  0  0  0  0
  149.4648  136.2734  155.4252 C   0  0  0  0  0  0  0  0  0  0  0  0
  148.0030  136.1138  155.8715 C   0  0  0  0  0  0  0  0  0  0  0  0
  147.7695  136.7162  157.1814 N   0  0  0  0  0  0  0  0  0  0  0  0
  148.2155  136.2650  158.3617 C   0  0  0  0  0  0  0  0  0  0  0  0
  148.9258  135.2588  158.4097 O   0  0  0  0  0  0  0  0  0  0  0  0
  147.7969  137.0060  159.4119 N   0  5  0  0  0  0  0  0  0  0  0  0
  147.5643  136.4196  160.5972 C   0  0  0  0  0  0  0  0  0  0  0  0
  147.5986  137.0827  161.7585 N   0  0  0  0  0  0  0  0  0  0  0  0
  147.3192  136.2784  162.8651 C   0  0  0  0  0  0  0  0  0  0  0  0
  147.0568  134.9745  162.5373 C   0  0  0  0  0  0  0  0  0  0  0  0
  147.1528  134.7164  160.8187 S   0  0  0  0  0  0  0  0  0  0  0  0
  147.0563  136.6384  154.7748 C   0  0  0  0  0  0  0  0  0  0  0  0
  147.3779  138.0619  154.2541 C   0  0  0  0  0  0  0  0  0  0  0  0
  146.6333  138.2565  152.9188 C   0  0  0  0  0  0  0  0  0  0  0  0
  146.8694  139.1679  155.2057 C   0  0  0  0  0  0  0  0  0  0  0  0
  148.8309  138.2141  153.9601 N   0  3  0  0  0  0  0  0  0  0  0  0
  150.9508  138.3572  156.6785 H   0  0  0  0  0  0  0  0  0  0  0  0
  149.2699  138.7947  156.7507 H   0  0  0  0  0  0  0  0  0  0  0  0
  150.3474  139.6753  155.6885 H   0  0  0  0  0  0  0  0  0  0  0  0
  151.9686  137.1705  154.7628 H   0  0  0  0  0  0  0  0  0  0  0  0
  151.5015  138.5371  153.7590 H   0  0  0  0  0  0  0  0  0  0  0  0
  151.0709  136.9042  153.2753 H   0  0  0  0  0  0  0  0  0  0  0  0
  149.6287  135.5570  154.6184 H   0  0  0  0  0  0  0  0  0  0  0  0
  150.1384  135.9634  156.2257 H   0  0  0  0  0  0  0  0  0  0  0  0
  147.8189  135.0442  155.9898 H   0  0  0  0  0  0  0  0  0  0  0  0
  147.2028  137.5513  157.2016 H   0  0  0  0  0  0  0  0  0  0  0  0
  147.3278  136.7188  163.8509 H   0  0  0  0  0  0  0  0  0  0  0  0
  146.8133  134.1552  163.1964 H   0  0  0  0  0  0  0  0  0  0  0  0
  147.1272  135.9400  153.9395 H   0  0  0  0  0  0  0  0  0  0  0  0
  146.0172  136.5826  155.1017 H   0  0  0  0  0  0  0  0  0  0  0  0
  145.5567  138.1310  153.0415 H   0  0  0  0  0  0  0  0  0  0  0  0
  146.9608  137.5365  152.1677 H   0  0  0  0  0  0  0  0  0  0  0  0
  146.8017  139.2531  152.5083 H   0  0  0  0  0  0  0  0  0  0  0  0
  145.7817  139.1422  155.2827 H   0  0  0  0  0  0  0  0  0  0  0  0
  147.1443  140.1593  154.8437 H   0  0  0  0  0  0  0  0  0  0  0  0
  147.2418  139.0802  156.2208 H   0  0  0  0  0  0  0  0  0  0  0  0
  149.0275  139.1873  153.7754 H   0  0  0  0  0  0  0  0  0  0  0  0
  148.9827  137.7024  153.1030 H   0  0  0  0  0  0  0  0  0  0  0  0
  1  2  1  0  0  0  0
  1 20  1  0  0  0  0
  1 21  1  0  0  0  0
  1 22  1  0  0  0  0
  2 19  1  0  0  0  0
  2  3  1  0  0  0  0
  2  4  1  0  0  0  0
  3 23  1  0  0  0  0
  3 24  1  0  0  0  0
  3 25  1  0  0  0  0
  4  5  1  0  0  0  0
  4 26  1  0  0  0  0
  4 27  1  0  0  0  0
  5  6  1  0  0  0  0
  5 15  1  0  0  0  0
  5 28  1  0  0  0  0
  6  7  1  0  0  0  0
  6 29  1  0  0  0  0
  7  8  2  0  0  0  0
  7  9  1  0  0  0  0
  9 10  1  0  0  0  0
 10 14  1  0  0  0  0
 10 11  2  0  0  0  0
 11 12  1  0  0  0  0
 12 13  2  0  0  0  0
 12 30  1  0  0  0  0
 13 14  1  0  0  0  0
 13 31  1  0  0  0  0
 15 16  1  0  0  0  0
 15 32  1  0  0  0  0
 15 33  1  0  0  0  0
 16 17  1  0  0  0  0
 16 18  1  0  0  0  0
 16 19  1  0  0  0  0
 17 34  1  0  0  0  0
 17 35  1  0  0  0  0
 17 36  1  0  0  0  0
 18 37  1  0  0  0  0
 18 38  1  0  0  0  0
 18 39  1  0  0  0  0
 19 40  1  0  0  0  0
 19 41  1  0  0  0  0
M  CHG  1   9  -1
M  CHG  1  19   1
M  END
> <s_m_source_file>
AV-unprocessed.smi

> <i_m_source_file_index>
1456

> <i_lp_mmshare_version>
43012

> <i_f3d_flags>
0

> <s_epik_input>
W0NIM11DMShbQ0gzXSlbQ0gyXVtDSF0oW0NIMl1DKFtDSDNdKShbQ0gzXSlbTkhdMSlbTkhdQyg9TylbTkhdYzJuW2NIXVtjSF1zMg==

> <s_epik_cmdline>
J2VwaWtfcHl0aG9uJywgJy1waCcsICc3LjAnLCAnLXRuJywgJzgnLCAnLW1hJywgJzIwMCcsICctbWV0YWxfYmluZGluZycsICctaW1hZScsICc8aW5maWxlLm1hZT4nLCAnLW9tYWUnLCAnPG91dGZpbGUubWFlPic=

> <r_lp_tautomer_probability>
1

> <r_epik_Ionization_Penalty>
7.98581

> <r_epik_Ionization_Penalty_Charging>
6.48842

> <r_epik_Ionization_Penalty_Neutral>
1.49739

> <r_epik_State_Penalty>
6.48831

> <r_epik_Charging_Adjusted_Penalty>
12.9767

> <i_epik_Tot_Q>
0

> <i_epik_Tot_abs_Q>
2

> <r_epik_Metal_State_Penalty>
2.41622

> <b_epik_Metal_Only>
1

> <s_lp_Force_Field>
OPLS_2005

> <r_lp_Energy>
15.6093

> <b_lp_Chiralities_Consistent>
1

> <s_lp_Variant>
AV-unprocessed.smi:1456-2

> <Gold.Version>
5.8.1

> <Gold.Id.Protein>
6NUR|6NUR_protein|mol2

> <Gold.PLP.Fitness>
39.5148

> <Gold.PLP.PLP>
-26.4917

> <Gold.PLP.part.hbond>
-4.0000

> <Gold.PLP.part.metal>
0.0000

> <Gold.PLP.part.buried>
-3.7026

> <Gold.PLP.part.nonpolar>
-19.3118

> <Gold.PLP.part.repulsive>
0.0061

> <Gold.PLP.ligand.clash>
0.0000

> <Gold.PLP.ligand.torsion>
0.4978

> <Gold.PLP.Chemscore.Hbond>
4.6681

> <Gold.PLP.Chemscore.CHOScore>
0.0000

> <Gold.PLP.Chemscore.Metal>
0.0000

> <Gold.Chemscore.Hbonds>
donor molecule, donor type, donor heavy atom, donor atom, acceptor molecule, acceptor atom, score
      L1  H    19    41       P1  7948  2.00
      P1  H  6896  6909       L1     8  0.55
      P1  H  6931  6943       L1    11  1.00
      P1  H  6934  6947       L1    11  0.46

> <Gold.PLP.Chemscore.Internal.Correction>
0.0142

> <Gold.Rescore>
     Score         DG    S(hbond)    S(metal)    S(lipo)     H(rot)  DE(clash)    DE(int)     intcor
     19.03     -19.69       2.95        0.00      59.21       1.00       0.04       0.62       ----

> <Gold.Chemscore.Fitness>
19.0268

> <Gold.Chemscore.DG>
-19.6894

> <Gold.Chemscore.ZeroCoef>
-5.4800

> <Gold.Chemscore.Hbond>
2.9466

> <Gold.Chemscore.Metal>
0.0000

> <Gold.Chemscore.Lipo>
59.2104

> <Gold.Chemscore.Internal_Hbond>
0.0000

> <Gold.Chemscore.DEClash>
0.0391

> <Gold.Chemscore.DEInternal>
0.6235

> <Gold.Chemscore.Rot>
1.0000

> <Gold.Chemscore.Internal.Correction>
   9.000000E+99

> <Gold.Chemscore.Hbonds>
donor molecule, donor type, donor heavy atom, donor atom, acceptor molecule, acceptor atom, score
      L1  H    19    41       P1  7948  0.99
      P1  H  6896  6909       L1     8  0.56
      P1  H  6931  6943       L1    11  0.80
      P1  H  6934  6947       L1    11  0.08

> <Gold.Chemscore.Hbond.Weighted>
-9.8417

> <Gold.Chemscore.Metal.Weighted>
-0.0000

> <Gold.Chemscore.Lipo.Weighted>
-6.9276

> <Gold.Chemscore.Internal_Hbond.Weighted>
0.0000

> <Gold.Chemscore.DEClash.Weighted>
0.0391

> <Gold.Chemscore.DEInternal.Weighted>
0.6235

> <Gold.Chemscore.Rot.Weighted>
2.5600

> <Gold.Chemscore.Internal.Correction.Weighted>
   9.000000E+99

> <Gold.Protein.RotatedTorsions>
[ 6907 6896 6895 6894 ] final   54.42 input  -60.11 | X-H torsion
[ 7974 7965 7964 7962 ] final  -28.42 input  175.53 | X-H torsion
[ 8008 7997 7996 7995 ] final  116.58 input   59.86 | X-H torsion
[ 10167 10162 10161 10158 ] final    4.65 input  -65.29 | X-H torsion
[ 10718 10713 10712 10709 ] final -169.45 input   66.30 | X-H torsion
[ 10763 10752 10751 10750 ] final  -56.09 input  -60.55 | X-H torsion
[ 11005 11000 10999 10996 ] final  115.97 input  -57.11 | X-H torsion

> <Gold.Protein.ActiveResidues>
 VAL166  LYS551  ARG553  GLY616  TRP617  ASP618  TYR619  PRO620  LYS621  CYS622 
 ASP623  PHE694  ASN695  SER759  ASP760  ASP761  ALA762  ILE779  LEU786  VAL792 
 PHE793  MET794  SER795  GLU796  ALA797  LYS798  CYS799  TRP800  GLU811  SER814 

> <Gold.Protein.RotatedAtoms>
  152.3437  134.7100  160.0256 H   0  0  0  0  0  0  0  0  0  0  0  0  # atno 6907 bound_to 6896
  151.7477  133.3320  159.3391 H   0  0  0  0  0  0  0  0  0  0  0  0  # atno 6908 bound_to 6896
  150.7496  134.6154  159.6152 H   0  0  0  0  0  0  0  0  0  0  0  0  # atno 6909 bound_to 6896
  146.1289  140.5281  142.8702 H   0  0  0  0  0  0  0  0  0  0  0  0  # atno 7974 bound_to 7965
  156.2447  140.2914  156.0545 H   0  0  0  0  0  0  0  0  0  0  0  0  # atno 8008 bound_to 7997
  155.1844  140.0405  157.2905 H   0  0  0  0  0  0  0  0  0  0  0  0  # atno 8009 bound_to 7997
  154.6237  140.2482  155.7524 H   0  0  0  0  0  0  0  0  0  0  0  0  # atno 8010 bound_to 7997
  140.6524  143.7512  150.7596 H   0  0  0  0  0  0  0  0  0  0  0  0  # atno 10167 bound_to 10162
  156.7117  130.9236  151.3090 H   0  0  0  0  0  0  0  0  0  0  0  0  # atno 10718 bound_to 10713
  154.2012  135.6410  153.5087 H   0  0  0  0  0  0  0  0  0  0  0  0  # atno 10763 bound_to 10752
  153.0011  135.5452  154.6313 H   0  0  0  0  0  0  0  0  0  0  0  0  # atno 10764 bound_to 10752
  154.5727  135.2918  155.0785 H   0  0  0  0  0  0  0  0  0  0  0  0  # atno 10765 bound_to 10752
  139.9026  134.9591  156.7126 H   0  0  0  0  0  0  0  0  0  0  0  0  # atno 11005 bound_to 11000
  144.7670  140.5553  143.6696 LP  0  0  0  0  0  0  0  0  0  0  0  0  # atno 17320 bound_to 7965
  145.5305  139.1475  143.3502 LP  0  0  0  0  0  0  0  0  0  0  0  0  # atno 17321 bound_to 7965
  140.1165  143.4651  152.2339 LP  0  0  0  0  0  0  0  0  0  0  0  0  # atno 17342 bound_to 10162
  139.5741  144.7478  151.3812 LP  0  0  0  0  0  0  0  0  0  0  0  0  # atno 17343 bound_to 10162
  157.6933  130.9256  150.0575 LP  0  0  0  0  0  0  0  0  0  0  0  0  # atno 17370 bound_to 10713
  156.1656  130.3645  149.9237 LP  0  0  0  0  0  0  0  0  0  0  0  0  # atno 17371 bound_to 10713
  140.7064  133.9262  155.8056 LP  0  0  0  0  0  0  0  0  0  0  0  0  # atno 17394 bound_to 11000
  141.0333  134.0725  157.3988 LP  0  0  0  0  0  0  0  0  0  0  0  0  # atno 17395 bound_to 11000

$$$$
