AV-unprocessed.smi:2353|AV-procd|sdf|9383|dock7
  -GOLD-   2272013 13D 1   1.00000     0.00000
 Structure written by MMmdl.
 46 48  0  0  0  0  0  0  0  0  2 V2000
  151.9717  141.7854  159.4988 C   0  0  0  0  0  0  0  0  0  0  0  0
  151.3559  141.2931  158.2050 C   0  0  0  0  0  0  0  0  0  0  0  0
  150.8278  142.2108  157.2767 C   0  0  0  0  0  0  0  0  0  0  0  0
  150.2555  141.7469  156.0788 C   0  0  0  0  0  0  0  0  0  0  0  0
  150.2070  140.3651  155.8016 C   0  0  0  0  0  0  0  0  0  0  0  0
  149.5870  139.8835  154.5032 C   0  0  0  0  0  0  0  0  0  0  0  0
  150.7334  139.4322  156.7251 C   0  0  0  0  0  0  0  0  0  0  0  0
  150.6543  138.0956  156.3919 O   0  0  0  0  0  0  0  0  0  0  0  0
  151.3066  137.1459  157.2247 C   0  0  0  0  0  0  0  0  0  0  0  0
  151.2814  135.7775  156.5217 C   0  0  1  0  0  0  0  0  0  0  0  0
  152.4870  135.1199  156.8597 O   0  0  0  0  0  0  0  0  0  0  0  0
  150.1041  134.8986  157.0008 C   0  0  0  0  0  0  0  0  0  0  0  0
  150.0846  133.5966  156.3221 N   0  0  0  0  0  0  0  0  0  0  0  0
  149.2034  133.5287  155.2568 N   0  0  0  0  0  0  0  0  0  0  0  0
  149.0881  132.4498  154.5532 C   0  0  0  0  0  0  0  0  0  0  0  0
  148.1612  132.3883  153.4335 N   0  0  0  0  0  0  0  0  0  0  0  0
  147.6837  133.4420  152.6935 C   0  0  0  0  0  0  0  0  0  0  0  0
  146.8442  132.9046  151.7522 C   0  0  0  0  0  0  0  0  0  0  0  0
  146.8448  131.5503  151.9570 N   0  3  0  0  0  0  0  0  0  0  0  0
  147.6462  131.2326  152.9802 C   0  0  0  0  0  0  0  0  0  0  0  0
  149.8979  131.2827  154.8863 C   0  0  0  0  0  0  0  0  0  0  0  0
  150.7566  131.3614  155.9256 C   0  0  0  0  0  0  0  0  0  0  0  0
  150.8990  132.5775  156.7232 C   0  0  0  0  0  0  0  0  0  0  0  0
  151.6842  132.6766  157.6648 O   0  0  0  0  0  0  0  0  0  0  0  0
  151.3070  139.9114  157.9307 C   0  0  0  0  0  0  0  0  0  0  0  0
  152.2242  142.8445  159.4380 H   0  0  0  0  0  0  0  0  0  0  0  0
  152.8848  141.2333  159.7229 H   0  0  0  0  0  0  0  0  0  0  0  0
  151.2735  141.6457  160.3243 H   0  0  0  0  0  0  0  0  0  0  0  0
  150.8590  143.2714  157.4791 H   0  0  0  0  0  0  0  0  0  0  0  0
  149.8535  142.4586  155.3726 H   0  0  0  0  0  0  0  0  0  0  0  0
  150.3447  139.4148  153.8753 H   0  0  0  0  0  0  0  0  0  0  0  0
  149.1431  140.7068  153.9431 H   0  0  0  0  0  0  0  0  0  0  0  0
  148.8047  139.1511  154.7034 H   0  0  0  0  0  0  0  0  0  0  0  0
  152.3297  137.4458  157.4588 H   0  0  0  0  0  0  0  0  0  0  0  0
  150.7527  137.0858  158.1629 H   0  0  0  0  0  0  0  0  0  0  0  0
  151.2250  135.9257  155.4421 H   0  0  0  0  0  0  0  0  0  0  0  0
  152.7682  135.4225  157.7099 H   0  0  0  0  0  0  0  0  0  0  0  0
  150.1031  134.7956  158.0879 H   0  0  0  0  0  0  0  0  0  0  0  0
  149.1609  135.3985  156.7730 H   0  0  0  0  0  0  0  0  0  0  0  0
  147.9660  134.4681  152.8823 H   0  0  0  0  0  0  0  0  0  0  0  0
  146.2617  133.3723  150.9717 H   0  0  0  0  0  0  0  0  0  0  0  0
  147.8155  130.2339  153.3371 H   0  0  0  0  0  0  0  0  0  0  0  0
  149.8390  130.3590  154.3350 H   0  0  0  0  0  0  0  0  0  0  0  0
  151.3594  130.5008  156.1767 H   0  0  0  0  0  0  0  0  0  0  0  0
  151.7184  139.2346  158.6641 H   0  0  0  0  0  0  0  0  0  0  0  0
  146.3144  130.8815  151.4122 H   0  0  0  0  0  0  0  0  0  0  0  0
  1  2  1  0  0  0  0
  1 26  1  0  0  0  0
  1 27  1  0  0  0  0
  1 28  1  0  0  0  0
  2 25  1  0  0  0  0
  2  3  2  0  0  0  0
  3  4  1  0  0  0  0
  3 29  1  0  0  0  0
  4  5  2  0  0  0  0
  4 30  1  0  0  0  0
  5  6  1  0  0  0  0
  5  7  1  0  0  0  0
  6 31  1  0  0  0  0
  6 32  1  0  0  0  0
  6 33  1  0  0  0  0
  7  8  1  0  0  0  0
  7 25  2  0  0  0  0
  8  9  1  0  0  0  0
  9 10  1  0  0  0  0
  9 34  1  0  0  0  0
  9 35  1  0  0  0  0
 10 11  1  0  0  0  0
 10 12  1  0  0  0  0
 10 36  1  0  0  0  0
 11 37  1  0  0  0  0
 12 13  1  0  0  0  0
 12 38  1  0  0  0  0
 12 39  1  0  0  0  0
 13 23  1  0  0  0  0
 13 14  1  0  0  0  0
 14 15  2  0  0  0  0
 15 16  1  0  0  0  0
 15 21  1  0  0  0  0
 16 20  1  0  0  0  0
 16 17  1  0  0  0  0
 17 18  2  0  0  0  0
 17 40  1  0  0  0  0
 18 19  1  0  0  0  0
 18 41  1  0  0  0  0
 19 20  2  0  0  0  0
 19 46  1  0  0  0  0
 20 42  1  0  0  0  0
 21 22  2  0  0  0  0
 21 43  1  0  0  0  0
 22 23  1  0  0  0  0
 22 44  1  0  0  0  0
 23 24  2  0  0  0  0
 25 45  1  0  0  0  0
M  CHG  1  19   1
M  END
> <s_m_source_file>
AV-unprocessed.smi

> <i_m_source_file_index>
2353

> <i_lp_mmshare_version>
43012

> <i_f3d_flags>
0

> <s_epik_input>
W0NIM11jMVtjSF1bY0hdYyhbQ0gzXSljKFtjSF0xKU9bQ0gyXVtDQEhdKFtPSF0pW0NIMl1uMm5jKFtjSF1bY0hdYzI9TyktbjNbY0hdW2NIXW5bY0hdMw==

> <s_epik_cmdline>
J2VwaWtfcHl0aG9uJywgJy1waCcsICc3LjAnLCAnLXRuJywgJzgnLCAnLW1hJywgJzIwMCcsICctbWV0YWxfYmluZGluZycsICctaW1hZScsICc8aW5maWxlLm1hZT4nLCAnLW9tYWUnLCAnPG91dGZpbGUubWFlPic=

> <r_lp_tautomer_probability>
1

> <r_epik_Ionization_Penalty>
1.66053

> <r_epik_Ionization_Penalty_Charging>
2.43903e-09

> <r_epik_Ionization_Penalty_Neutral>
1.66053

> <r_epik_State_Penalty>
1.76336

> <r_epik_Charging_Adjusted_Penalty>
1.76336

> <i_epik_Tot_Q>
1

> <i_epik_Tot_abs_Q>
1

> <r_epik_Metal_State_Penalty>
1.79856

> <b_epik_Metal_Only>
0

> <s_lp_Force_Field>
OPLS_2005

> <r_lp_Energy>
39.4345

> <b_lp_Chiralities_Consistent>
1

> <s_lp_Variant>
AV-unprocessed.smi:2353-4

> <Gold.Version>
5.8.1

> <Gold.Id.Protein>
6NUR|6NUR_protein|mol2

> <Gold.PLP.Fitness>
46.6461

> <Gold.PLP.PLP>
-39.8639

> <Gold.PLP.part.hbond>
-3.0000

> <Gold.PLP.part.metal>
0.0000

> <Gold.PLP.part.buried>
-1.5762

> <Gold.PLP.part.nonpolar>
-35.3772

> <Gold.PLP.part.repulsive>
0.0353

> <Gold.PLP.ligand.clash>
0.0000

> <Gold.PLP.ligand.torsion>
1.1003

> <Gold.PLP.Chemscore.Hbond>
1.9760

> <Gold.PLP.Chemscore.CHOScore>
1.0000

> <Gold.PLP.Chemscore.Metal>
0.0000

> <Gold.Chemscore.Hbonds>
donor molecule, donor type, donor heavy atom, donor atom, acceptor molecule, acceptor atom, score
      P1  H  6896  6908       L1    24  0.94
      P1  H 10752 10764       L1    11  1.00
      L1  C    17    40       P1  7948  1.00

> <Gold.PLP.Chemscore.Internal.Correction>
0.0548

> <Gold.Rescore>
     Score         DG    S(hbond)    S(metal)    S(lipo)     H(rot)  DE(clash)    DE(int)     intcor
     10.89     -14.58       1.63        0.00      89.21       2.65       0.09       3.60       ----

> <Gold.Chemscore.Fitness>
10.8927

> <Gold.Chemscore.DG>
-14.5802

> <Gold.Chemscore.ZeroCoef>
-5.4800

> <Gold.Chemscore.Hbond>
1.6335

> <Gold.Chemscore.Metal>
0.0000

> <Gold.Chemscore.Lipo>
89.2127

> <Gold.Chemscore.Internal_Hbond>
0.0000

> <Gold.Chemscore.DEClash>
0.0913

> <Gold.Chemscore.DEInternal>
3.5961

> <Gold.Chemscore.Rot>
2.6537

> <Gold.Chemscore.Internal.Correction>
   9.000000E+99

> <Gold.Chemscore.Hbonds>
donor molecule, donor type, donor heavy atom, donor atom, acceptor molecule, acceptor atom, score
      P1  H  6896  6908       L1    24  0.91
      P1  H 10752 10764       L1    11  0.43

> <Gold.Chemscore.Hbond.Weighted>
-5.4558

> <Gold.Chemscore.Metal.Weighted>
-0.0000

> <Gold.Chemscore.Lipo.Weighted>
-10.4379

> <Gold.Chemscore.Internal_Hbond.Weighted>
0.0000

> <Gold.Chemscore.DEClash.Weighted>
0.0913

> <Gold.Chemscore.DEInternal.Weighted>
3.5961

> <Gold.Chemscore.Rot.Weighted>
6.7935

> <Gold.Chemscore.Internal.Correction.Weighted>
   9.000000E+99

> <Gold.Protein.RotatedTorsions>
[ 6907 6896 6895 6894 ] final   53.70 input  -60.11 | X-H torsion
[ 7974 7965 7964 7962 ] final   64.35 input  175.53 | X-H torsion
[ 8008 7997 7996 7995 ] final -170.64 input   59.86 | X-H torsion
[ 10167 10162 10161 10158 ] final  168.56 input  -65.29 | X-H torsion
[ 10718 10713 10712 10709 ] final  159.05 input   66.30 | X-H torsion
[ 10763 10752 10751 10750 ] final    0.65 input  -60.55 | X-H torsion
[ 11005 11000 10999 10996 ] final -109.62 input  -57.11 | X-H torsion

> <Gold.Protein.ActiveResidues>
 VAL166  LYS551  ARG553  GLY616  TRP617  ASP618  TYR619  PRO620  LYS621  CYS622 
 ASP623  PHE694  ASN695  SER759  ASP760  ASP761  ALA762  ILE779  LEU786  VAL792 
 PHE793  MET794  SER795  GLU796  ALA797  LYS798  CYS799  TRP800  GLU811  SER814 

> <Gold.Protein.RotatedAtoms>
  152.3364  134.7192  160.0275 H   0  0  0  0  0  0  0  0  0  0  0  0  # atno 6907 bound_to 6896
  151.7592  133.3327  159.3421 H   0  0  0  0  0  0  0  0  0  0  0  0  # atno 6908 bound_to 6896
  150.7453  134.6054  159.6103 H   0  0  0  0  0  0  0  0  0  0  0  0  # atno 6909 bound_to 6896
  145.8512  139.3255  143.0874 H   0  0  0  0  0  0  0  0  0  0  0  0  # atno 7974 bound_to 7965
  155.9210  140.1074  157.1207 H   0  0  0  0  0  0  0  0  0  0  0  0  # atno 8008 bound_to 7997
  154.4054  140.1256  156.4744 H   0  0  0  0  0  0  0  0  0  0  0  0  # atno 8009 bound_to 7997
  155.7196  140.3470  155.5012 H   0  0  0  0  0  0  0  0  0  0  0  0  # atno 8010 bound_to 7997
  139.4971  144.3801  151.9632 H   0  0  0  0  0  0  0  0  0  0  0  0  # atno 10167 bound_to 10162
  157.1695  131.0606  151.2190 H   0  0  0  0  0  0  0  0  0  0  0  0  # atno 10718 bound_to 10713
  153.3180  135.6967  153.7056 H   0  0  0  0  0  0  0  0  0  0  0  0  # atno 10763 bound_to 10752
  153.5907  135.3480  155.2910 H   0  0  0  0  0  0  0  0  0  0  0  0  # atno 10764 bound_to 10752
  154.8591  135.4317  154.2337 H   0  0  0  0  0  0  0  0  0  0  0  0  # atno 10765 bound_to 10752
  141.0837  133.9175  157.2231 H   0  0  0  0  0  0  0  0  0  0  0  0  # atno 11005 bound_to 11000
  145.9355  140.9018  143.0334 LP  0  0  0  0  0  0  0  0  0  0  0  0  # atno 17320 bound_to 7965
  144.6729  140.1477  143.7432 LP  0  0  0  0  0  0  0  0  0  0  0  0  # atno 17321 bound_to 7965
  140.3237  144.3398  150.6003 LP  0  0  0  0  0  0  0  0  0  0  0  0  # atno 17342 bound_to 10162
  140.5702  143.2182  151.7613 LP  0  0  0  0  0  0  0  0  0  0  0  0  # atno 17343 bound_to 10162
  157.4057  130.7357  149.6800 LP  0  0  0  0  0  0  0  0  0  0  0  0  # atno 17370 bound_to 10713
  155.9741  130.4109  150.3953 LP  0  0  0  0  0  0  0  0  0  0  0  0  # atno 17371 bound_to 10713
  139.9654  135.0143  156.9372 LP  0  0  0  0  0  0  0  0  0  0  0  0  # atno 17394 bound_to 11000
  140.5410  134.0720  155.7341 LP  0  0  0  0  0  0  0  0  0  0  0  0  # atno 17395 bound_to 11000

$$$$
