AV-unprocessed.smi:573|AV-procd|sdf|2974|dock9
  -GOLD-   2262023483D 1   1.00000     0.00000
 Structure written by MMmdl.
 44 46  0  0  0  0  0  0  0  0  1 V2000
  148.0784  141.6224  154.6351 C   0  0  0  0  0  0  0  0  0  0  0  0
  148.6239  140.2045  154.4214 C   0  0  1  0  0  0  0  0  0  0  0  0
  148.1921  139.7769  153.1467 O   0  0  0  0  0  0  0  0  0  0  0  0
  150.1616  140.1702  154.4689 C   0  0  0  0  0  0  0  0  0  0  0  0
  150.6721  140.1413  155.8281 N   0  0  0  0  0  0  0  0  0  0  0  0
  151.0480  141.1456  156.7124 C   0  0  0  0  0  0  0  0  0  0  0  0
  150.9955  142.4458  156.4297 N   0  0  0  0  0  0  0  0  0  0  0  0
  151.4528  143.0195  157.6013 C   0  0  0  0  0  0  0  0  0  0  0  0
  151.6352  144.3776  157.9471 C   0  0  0  0  0  0  0  0  0  0  0  0
  152.1181  144.7305  159.2243 C   0  0  0  0  0  0  0  0  0  0  0  0
  152.4239  143.7330  160.1727 C   0  0  0  0  0  0  0  0  0  0  0  0
  152.2518  142.3734  159.8487 C   0  0  0  0  0  0  0  0  0  0  0  0
  151.7723  142.0255  158.5718 C   0  0  0  0  0  0  0  0  0  0  0  0
  151.4980  140.8132  157.9453 N   0  0  0  0  0  0  0  0  0  0  0  0
  151.6610  139.4834  158.5159 C   0  0  0  0  0  0  0  0  0  0  0  0
  152.7937  139.4367  159.5544 C   0  0  1  0  0  0  0  0  0  0  0  0
  153.0206  138.0118  160.0938 C   0  0  0  0  0  0  0  0  0  0  0  0
  154.2036  137.9862  161.0681 C   0  0  0  0  0  0  0  0  0  0  0  0
  155.4340  138.6113  160.4022 C   0  0  0  0  0  0  0  0  0  0  0  0
  155.0916  140.0028  159.8471 C   0  0  0  0  0  0  0  0  0  0  0  0
  153.9943  139.9087  158.9446 O   0  0  0  0  0  0  0  0  0  0  0  0
  148.3657  142.0093  155.6131 H   0  0  0  0  0  0  0  0  0  0  0  0
  146.9892  141.6372  154.5833 H   0  0  0  0  0  0  0  0  0  0  0  0
  148.4577  142.3129  153.8808 H   0  0  0  0  0  0  0  0  0  0  0  0
  148.2043  139.5460  155.1834 H   0  0  0  0  0  0  0  0  0  0  0  0
  148.8976  139.9146  152.5321 H   0  0  0  0  0  0  0  0  0  0  0  0
  150.5565  139.3283  153.8987 H   0  0  0  0  0  0  0  0  0  0  0  0
  150.5607  141.0734  154.0067 H   0  0  0  0  0  0  0  0  0  0  0  0
  150.7831  139.2063  156.1926 H   0  0  0  0  0  0  0  0  0  0  0  0
  151.4017  145.1493  157.2286 H   0  0  0  0  0  0  0  0  0  0  0  0
  152.2531  145.7718  159.4779 H   0  0  0  0  0  0  0  0  0  0  0  0
  152.7903  144.0121  161.1498 H   0  0  0  0  0  0  0  0  0  0  0  0
  152.4824  141.6072  160.5741 H   0  0  0  0  0  0  0  0  0  0  0  0
  150.7170  139.1699  158.9625 H   0  0  0  0  0  0  0  0  0  0  0  0
  151.8627  138.7806  157.7068 H   0  0  0  0  0  0  0  0  0  0  0  0
  152.5359  140.0984  160.3834 H   0  0  0  0  0  0  0  0  0  0  0  0
  152.1214  137.6473  160.5912 H   0  0  0  0  0  0  0  0  0  0  0  0
  153.2177  137.3312  159.2645 H   0  0  0  0  0  0  0  0  0  0  0  0
  153.9495  138.5450  161.9698 H   0  0  0  0  0  0  0  0  0  0  0  0
  154.4170  136.9639  161.3815 H   0  0  0  0  0  0  0  0  0  0  0  0
  156.2561  138.6798  161.1151 H   0  0  0  0  0  0  0  0  0  0  0  0
  155.7764  137.9697  159.5893 H   0  0  0  0  0  0  0  0  0  0  0  0
  154.8536  140.6969  160.6547 H   0  0  0  0  0  0  0  0  0  0  0  0
  155.9493  140.4152  159.3158 H   0  0  0  0  0  0  0  0  0  0  0  0
  1  2  1  0  0  0  0
  1 22  1  0  0  0  0
  1 23  1  0  0  0  0
  1 24  1  0  0  0  0
  2  3  1  0  0  0  0
  2  4  1  0  0  0  0
  2 25  1  0  0  0  0
  3 26  1  0  0  0  0
  4  5  1  0  0  0  0
  4 27  1  0  0  0  0
  4 28  1  0  0  0  0
  5  6  1  0  0  0  0
  5 29  1  0  0  0  0
  6 14  1  0  0  0  0
  6  7  2  0  0  0  0
  7  8  1  0  0  0  0
  8 13  2  0  0  0  0
  8  9  1  0  0  0  0
  9 10  2  0  0  0  0
  9 30  1  0  0  0  0
 10 11  1  0  0  0  0
 10 31  1  0  0  0  0
 11 12  2  0  0  0  0
 11 32  1  0  0  0  0
 12 13  1  0  0  0  0
 12 33  1  0  0  0  0
 13 14  1  0  0  0  0
 14 15  1  0  0  0  0
 15 16  1  0  0  0  0
 15 34  1  0  0  0  0
 15 35  1  0  0  0  0
 16 21  1  0  0  0  0
 16 17  1  0  0  0  0
 16 36  1  0  0  0  0
 17 18  1  0  0  0  0
 17 37  1  0  0  0  0
 17 38  1  0  0  0  0
 18 19  1  0  0  0  0
 18 39  1  0  0  0  0
 18 40  1  0  0  0  0
 19 20  1  0  0  0  0
 19 41  1  0  0  0  0
 19 42  1  0  0  0  0
 20 21  1  0  0  0  0
 20 43  1  0  0  0  0
 20 44  1  0  0  0  0
M  END
> <s_m_source_file>
AV-unprocessed.smi

> <i_m_source_file_index>
573

> <i_lp_mmshare_version>
43012

> <i_f3d_flags>
0

> <s_epik_input>
W0NIM11bQ0BIXShbT0hdKVtDSDJdW05IXWMobjEpbihjKGMxMilbY0hdW2NIXVtjSF1bY0hdMilbQ0gyXVtDQEBIXTNbQ0gyXVtDSDJdW0NIMl1bQ0gyXU8z

> <s_epik_cmdline>
J2VwaWtfcHl0aG9uJywgJy1waCcsICc3LjAnLCAnLXRuJywgJzgnLCAnLW1hJywgJzIwMCcsICctbWV0YWxfYmluZGluZycsICctaW1hZScsICc8aW5maWxlLm1hZT4nLCAnLW9tYWUnLCAnPG91dGZpbGUubWFlPic=

> <r_epik_Ionization_Penalty>
1.30635

> <r_epik_Ionization_Penalty_Charging>
0

> <r_epik_Ionization_Penalty_Neutral>
1.30635

> <r_epik_State_Penalty>
1.38073

> <r_epik_Charging_Adjusted_Penalty>
1.38073

> <i_epik_Tot_Q>
0

> <i_epik_Tot_abs_Q>
0

> <r_epik_Metal_State_Penalty>
0.00547412

> <b_epik_Metal_Only>
0

> <s_lp_Force_Field>
OPLS_2005

> <r_lp_Energy>
9.01344

> <b_lp_Chiralities_Consistent>
1

> <s_lp_Variant>
AV-unprocessed.smi:573-8

> <Gold.Version>
5.8.1

> <Gold.Id.Protein>
6NUR|6NUR_protein|mol2

> <Gold.PLP.Fitness>
48.3337

> <Gold.PLP.PLP>
-43.8591

> <Gold.PLP.part.hbond>
-1.8728

> <Gold.PLP.part.metal>
0.0000

> <Gold.PLP.part.buried>
-2.5813

> <Gold.PLP.part.nonpolar>
-38.8702

> <Gold.PLP.part.repulsive>
0.2088

> <Gold.PLP.ligand.clash>
0.0000

> <Gold.PLP.ligand.torsion>
0.7677

> <Gold.PLP.Chemscore.Hbond>
2.0000

> <Gold.PLP.Chemscore.CHOScore>
0.0000

> <Gold.PLP.Chemscore.Metal>
0.0000

> <Gold.Chemscore.Hbonds>
donor molecule, donor type, donor heavy atom, donor atom, acceptor molecule, acceptor atom, score
      L1  H     3    26       P1  7957  1.00
      P1  H  7997  8009       L1    21  1.00

> <Gold.PLP.Chemscore.Internal.Correction>
0.0101

> <Gold.Rescore>
     Score         DG    S(hbond)    S(metal)    S(lipo)     H(rot)  DE(clash)    DE(int)     intcor
     18.23     -20.21       1.54        0.00     126.07       2.02       0.31       1.67       ----

> <Gold.Chemscore.Fitness>
18.2274

> <Gold.Chemscore.DG>
-20.2089

> <Gold.Chemscore.ZeroCoef>
-5.4800

> <Gold.Chemscore.Hbond>
1.5438

> <Gold.Chemscore.Metal>
0.0000

> <Gold.Chemscore.Lipo>
126.0693

> <Gold.Chemscore.Internal_Hbond>
0.0000

> <Gold.Chemscore.DEClash>
0.3140

> <Gold.Chemscore.DEInternal>
1.6675

> <Gold.Chemscore.Rot>
2.0224

> <Gold.Chemscore.Internal.Correction>
   9.000000E+99

> <Gold.Chemscore.Hbonds>
donor molecule, donor type, donor heavy atom, donor atom, acceptor molecule, acceptor atom, score
      L1  H     3    26       P1  7957  0.94
      P1  H  7997  8009       L1    21  0.53

> <Gold.Chemscore.Hbond.Weighted>
-5.1562

> <Gold.Chemscore.Metal.Weighted>
-0.0000

> <Gold.Chemscore.Lipo.Weighted>
-14.7501

> <Gold.Chemscore.Internal_Hbond.Weighted>
0.0000

> <Gold.Chemscore.DEClash.Weighted>
0.3140

> <Gold.Chemscore.DEInternal.Weighted>
1.6675

> <Gold.Chemscore.Rot.Weighted>
5.1773

> <Gold.Chemscore.Internal.Correction.Weighted>
   9.000000E+99

> <Gold.Protein.RotatedTorsions>
[ 6907 6896 6895 6894 ] final  -33.99 input  -60.11 | X-H torsion
[ 7974 7965 7964 7962 ] final -119.59 input  175.53 | X-H torsion
[ 8008 7997 7996 7995 ] final  143.33 input   59.86 | X-H torsion
[ 10167 10162 10161 10158 ] final   84.22 input  -65.29 | X-H torsion
[ 10718 10713 10712 10709 ] final   62.40 input   66.30 | X-H torsion
[ 10763 10752 10751 10750 ] final -146.28 input  -60.55 | X-H torsion
[ 11005 11000 10999 10996 ] final   54.08 input  -57.11 | X-H torsion

> <Gold.Protein.ActiveResidues>
 VAL166  LYS551  ARG553  GLY616  TRP617  ASP618  TYR619  PRO620  LYS621  CYS622 
 ASP623  PHE694  ASN695  SER759  ASP760  ASP761  ALA762  ILE779  LEU786  VAL792 
 PHE793  MET794  SER795  GLU796  ALA797  LYS798  CYS799  TRP800  GLU811  SER814 

> <Gold.Protein.RotatedAtoms>
  151.0584  134.9720  159.8247 H   0  0  0  0  0  0  0  0  0  0  0  0  # atno 6907 bound_to 6896
  152.5391  134.2449  159.8886 H   0  0  0  0  0  0  0  0  0  0  0  0  # atno 6908 bound_to 6896
  151.2468  133.4328  159.2643 H   0  0  0  0  0  0  0  0  0  0  0  0  # atno 6909 bound_to 6896
  145.0608  140.8288  143.4153 H   0  0  0  0  0  0  0  0  0  0  0  0  # atno 7974 bound_to 7965
  156.2932  140.2265  156.4873 H   0  0  0  0  0  0  0  0  0  0  0  0  # atno 8008 bound_to 7997
  154.7801  140.0461  157.1142 H   0  0  0  0  0  0  0  0  0  0  0  0  # atno 8009 bound_to 7997
  154.9769  140.3073  155.4967 H   0  0  0  0  0  0  0  0  0  0  0  0  # atno 8010 bound_to 7997
  139.9102  144.6276  150.8545 H   0  0  0  0  0  0  0  0  0  0  0  0  # atno 10167 bound_to 10162
  157.5898  130.9048  149.9582 H   0  0  0  0  0  0  0  0  0  0  0  0  # atno 10718 bound_to 10713
  154.8344  135.3391  154.6636 H   0  0  0  0  0  0  0  0  0  0  0  0  # atno 10763 bound_to 10752
  153.7252  135.6955  153.5007 H   0  0  0  0  0  0  0  0  0  0  0  0  # atno 10764 bound_to 10752
  153.2352  135.4403  155.0591 H   0  0  0  0  0  0  0  0  0  0  0  0  # atno 10765 bound_to 10752
  140.0715  134.5463  155.9041 H   0  0  0  0  0  0  0  0  0  0  0  0  # atno 11005 bound_to 11000
  145.1411  139.2572  143.5489 LP  0  0  0  0  0  0  0  0  0  0  0  0  # atno 17320 bound_to 7965
  146.3524  140.1088  142.8605 LP  0  0  0  0  0  0  0  0  0  0  0  0  # atno 17321 bound_to 7965
  140.7687  143.3371  151.2286 LP  0  0  0  0  0  0  0  0  0  0  0  0  # atno 17342 bound_to 10162
  139.6949  143.9630  152.2877 LP  0  0  0  0  0  0  0  0  0  0  0  0  # atno 17343 bound_to 10162
  156.0951  130.3660  150.0322 LP  0  0  0  0  0  0  0  0  0  0  0  0  # atno 17370 bound_to 10713
  156.8447  130.9438  151.3629 LP  0  0  0  0  0  0  0  0  0  0  0  0  # atno 17371 bound_to 10713
  141.2014  133.6618  156.5946 LP  0  0  0  0  0  0  0  0  0  0  0  0  # atno 17394 bound_to 11000
  140.3620  134.7679  157.4540 LP  0  0  0  0  0  0  0  0  0  0  0  0  # atno 17395 bound_to 11000

$$$$
