AV-unprocessed.smi:53|AV-procd|sdf|518|dock10
  -GOLD-   2262016393D 1   1.00000     0.00000
 Structure written by MMmdl.
 30 31  0  0  0  0  0  0  0  0  1 V2000
  149.9594  143.3918  157.4808 N   0  0  0  0  0  0  0  0  0  0  0  0
  150.6452  142.2643  157.2462 C   0  0  0  0  0  0  0  0  0  0  0  0
  151.5139  141.7137  158.2607 C   0  0  0  0  0  0  0  0  0  0  0  0
  152.1699  140.5735  157.9513 C   0  0  0  0  0  0  0  0  0  0  0  0
  152.0134  139.9346  156.7253 N   0  0  0  0  0  0  0  0  0  0  0  0
  152.7729  138.6690  156.3577 C   0  0  1  0  0  0  0  0  0  0  0  0
  153.7135  138.3832  157.3507 O   0  0  0  0  0  0  0  0  0  0  0  0
  153.1625  137.4508  158.2750 C   0  0  2  0  0  0  0  0  0  0  0  0
  154.2568  136.8201  159.1530 C   0  0  0  0  0  0  0  0  0  0  0  0
  153.6772  135.9080  160.0614 O   0  0  0  0  0  0  0  0  0  0  0  0
  152.4173  136.4928  157.3413 C   0  0  2  0  0  0  0  0  0  0  0  0
  153.3112  135.5421  156.7827 O   0  0  0  0  0  0  0  0  0  0  0  0
  151.8301  137.4429  156.2957 C   0  0  2  0  0  0  0  0  0  0  0  0
  151.7577  136.8516  155.0110 O   0  0  0  0  0  0  0  0  0  0  0  0
  151.1771  140.5194  155.7428 C   0  0  0  0  0  0  0  0  0  0  0  0
  151.0442  140.0205  154.6263 O   0  0  0  0  0  0  0  0  0  0  0  0
  150.5179  141.6722  156.0752 N   0  0  0  0  0  0  0  0  0  0  0  0
  153.2836  138.9029  155.4215 H   0  0  0  0  0  0  0  0  0  0  0  0
  152.4241  137.9513  158.9042 H   0  0  0  0  0  0  0  0  0  0  0  0
  151.6347  135.9474  157.8697 H   0  0  0  0  0  0  0  0  0  0  0  0
  150.8272  137.7383  156.6075 H   0  0  0  0  0  0  0  0  0  0  0  0
  149.3565  143.7768  156.7684 H   0  0  0  0  0  0  0  0  0  0  0  0
  150.0446  143.8530  158.3753 H   0  0  0  0  0  0  0  0  0  0  0  0
  151.6564  142.1677  159.2310 H   0  0  0  0  0  0  0  0  0  0  0  0
  152.8282  140.1739  158.7077 H   0  0  0  0  0  0  0  0  0  0  0  0
  154.9608  136.2628  158.5345 H   0  0  0  0  0  0  0  0  0  0  0  0
  154.8244  137.5796  159.6915 H   0  0  0  0  0  0  0  0  0  0  0  0
  154.3002  135.7343  160.7505 H   0  0  0  0  0  0  0  0  0  0  0  0
  153.0443  134.6813  157.0680 H   0  0  0  0  0  0  0  0  0  0  0  0
  151.3372  137.4630  154.4258 H   0  0  0  0  0  0  0  0  0  0  0  0
  1  2  1  0  0  0  0
  1 22  1  0  0  0  0
  1 23  1  0  0  0  0
  2 17  2  0  0  0  0
  2  3  1  0  0  0  0
  3  4  2  0  0  0  0
  3 24  1  0  0  0  0
  4  5  1  0  0  0  0
  4 25  1  0  0  0  0
  5  6  1  0  0  0  0
  5 15  1  0  0  0  0
  6 18  1  0  0  0  0
  6 13  1  0  0  0  0
  6  7  1  0  0  0  0
  7  8  1  0  0  0  0
  8 19  1  0  0  0  0
  8  9  1  0  0  0  0
  8 11  1  0  0  0  0
  9 10  1  0  0  0  0
  9 26  1  0  0  0  0
  9 27  1  0  0  0  0
 10 28  1  0  0  0  0
 11 20  1  0  0  0  0
 11 12  1  0  0  0  0
 11 13  1  0  0  0  0
 12 29  1  0  0  0  0
 13 21  1  0  0  0  0
 13 14  1  0  0  0  0
 14 30  1  0  0  0  0
 15 16  2  0  0  0  0
 15 17  1  0  0  0  0
M  END
> <s_m_source_file>
AV-unprocessed.smi

> <i_m_source_file_index>
53

> <i_lp_mmshare_version>
43012

> <i_f3d_flags>
0

> <s_epik_input>
W05IMl1jMVtjSF1bY0hdbihjKD1PKW4xKVtDQEBIXTJPW0NASF0oW0NIMl1bT0hdKVtDQEBIXShbT0hdKVtDQEBIXTJbT0hd

> <s_epik_cmdline>
J2VwaWtfcHl0aG9uJywgJy1waCcsICc3LjAnLCAnLXRuJywgJzgnLCAnLW1hJywgJzIwMCcsICctbWV0YWxfYmluZGluZycsICctaW1hZScsICc8aW5maWxlLm1hZT4nLCAnLW9tYWUnLCAnPG91dGZpbGUubWFlPic=

> <r_lp_tautomer_probability>
0.99996

> <r_epik_Ionization_Penalty>
0.00069087

> <r_epik_Ionization_Penalty_Charging>
2.61959e-08

> <r_epik_Ionization_Penalty_Neutral>
0.000690844

> <r_epik_State_Penalty>
1.15523e-05

> <r_epik_Charging_Adjusted_Penalty>
1.15785e-05

> <i_epik_Tot_Q>
0

> <i_epik_Tot_abs_Q>
0

> <r_epik_Metal_State_Penalty>
-0

> <b_epik_Metal_Only>
0

> <s_epik_Chemistry_Notes>
This compound contains an acetal/aminal-like group ( X-CH(R)-Y where X, Y are N, S, or O) that may be acid/base labile, releasing an aldehyde.

> <s_lp_Force_Field>
OPLS_2005

> <r_lp_Energy>
34.5248

> <b_lp_Chiralities_Consistent>
1

> <s_lp_Variant>
AV-unprocessed.smi:53-6

> <Gold.Version>
5.8.1

> <Gold.Id.Protein>
6NUR|6NUR_protein|mol2

> <Gold.PLP.Fitness>
37.9471

> <Gold.PLP.PLP>
-22.2983

> <Gold.PLP.part.hbond>
-5.9252

> <Gold.PLP.part.metal>
0.0000

> <Gold.PLP.part.buried>
-2.7302

> <Gold.PLP.part.nonpolar>
-13.4160

> <Gold.PLP.part.repulsive>
0.1708

> <Gold.PLP.ligand.clash>
0.0000

> <Gold.PLP.ligand.torsion>
0.2050

> <Gold.PLP.Chemscore.Hbond>
5.3432

> <Gold.PLP.Chemscore.CHOScore>
0.0000

> <Gold.PLP.Chemscore.Metal>
0.0000

> <Gold.Chemscore.Hbonds>
donor molecule, donor type, donor heavy atom, donor atom, acceptor molecule, acceptor atom, score
      L1  H     1    22       P1  8028  0.98
      P1  H  6896  6907       L1    10  1.00
      P1  H  7989  7998       L1    16  0.99
      P1  H  7997  8008       L1     7  0.59
      P1  H 10752 10763       L1    12  0.90
      P1  H 10752 10765       L1    14  0.69

> <Gold.PLP.Chemscore.Internal.Correction>
0.0293

> <Gold.Rescore>
     Score         DG    S(hbond)    S(metal)    S(lipo)     H(rot)  DE(clash)    DE(int)     intcor
     13.36     -13.74       4.24        0.00      30.70       3.71       0.13       0.25       ----

> <Gold.Chemscore.Fitness>
13.3640

> <Gold.Chemscore.DG>
-13.7396

> <Gold.Chemscore.ZeroCoef>
-5.4800

> <Gold.Chemscore.Hbond>
4.2409

> <Gold.Chemscore.Metal>
0.0000

> <Gold.Chemscore.Lipo>
30.6957

> <Gold.Chemscore.Internal_Hbond>
0.0000

> <Gold.Chemscore.DEClash>
0.1288

> <Gold.Chemscore.DEInternal>
0.2468

> <Gold.Chemscore.Rot>
3.7095

> <Gold.Chemscore.Internal.Correction>
   9.000000E+99

> <Gold.Chemscore.Hbonds>
donor molecule, donor type, donor heavy atom, donor atom, acceptor molecule, acceptor atom, score
      L1  H     1    22       P1  8028  0.82
      P1  H  6896  6907       L1    10  0.93
      P1  H  7989  7998       L1    16  0.81
      P1  H  7997  8008       L1     7  0.06
      P1  H 10752 10763       L1    12  0.43
      P1  H 10752 10765       L1    14  0.55

> <Gold.Chemscore.Hbond.Weighted>
-14.1646

> <Gold.Chemscore.Metal.Weighted>
-0.0000

> <Gold.Chemscore.Lipo.Weighted>
-3.5914

> <Gold.Chemscore.Internal_Hbond.Weighted>
0.0000

> <Gold.Chemscore.DEClash.Weighted>
0.1288

> <Gold.Chemscore.DEInternal.Weighted>
0.2468

> <Gold.Chemscore.Rot.Weighted>
9.4964

> <Gold.Chemscore.Internal.Correction.Weighted>
   9.000000E+99

> <Gold.Protein.RotatedTorsions>
[ 6907 6896 6895 6894 ] final   39.88 input  -60.11 | X-H torsion
[ 7974 7965 7964 7962 ] final -113.89 input  175.53 | X-H torsion
[ 8008 7997 7996 7995 ] final  -93.40 input   59.86 | X-H torsion
[ 10167 10162 10161 10158 ] final   59.20 input  -65.29 | X-H torsion
[ 10718 10713 10712 10709 ] final  110.85 input   66.30 | X-H torsion
[ 10763 10752 10751 10750 ] final  147.90 input  -60.55 | X-H torsion
[ 11005 11000 10999 10996 ] final   10.55 input  -57.11 | X-H torsion

> <Gold.Protein.ActiveResidues>
 VAL166  LYS551  ARG553  GLY616  TRP617  ASP618  TYR619  PRO620  LYS621  CYS622 
 ASP623  PHE694  ASN695  SER759  ASP760  ASP761  ALA762  ILE779  LEU786  VAL792 
 PHE793  MET794  SER795  GLU796  ALA797  LYS798  CYS799  TRP800  GLU811  SER814 

> <Gold.Protein.RotatedAtoms>
  152.1752  134.8800  160.0530 H   0  0  0  0  0  0  0  0  0  0  0  0  # atno 6907 bound_to 6896
  151.9745  133.3732  159.4092 H   0  0  0  0  0  0  0  0  0  0  0  0  # atno 6908 bound_to 6896
  150.6908  134.4028  159.5170 H   0  0  0  0  0  0  0  0  0  0  0  0  # atno 6909 bound_to 6896
  145.1267  140.8701  143.3782 H   0  0  0  0  0  0  0  0  0  0  0  0  # atno 7974 bound_to 7965
  154.7352  140.0499  157.0762 H   0  0  0  0  0  0  0  0  0  0  0  0  # atno 8008 bound_to 7997
  155.0250  140.3151  155.4760 H   0  0  0  0  0  0  0  0  0  0  0  0  # atno 8009 bound_to 7997
  156.2851  140.2160  156.5369 H   0  0  0  0  0  0  0  0  0  0  0  0  # atno 8010 bound_to 7997
  140.1790  144.4201  150.6624 H   0  0  0  0  0  0  0  0  0  0  0  0  # atno 10167 bound_to 10162
  157.6474  131.0940  150.6663 H   0  0  0  0  0  0  0  0  0  0  0  0  # atno 10718 bound_to 10713
  154.0460  135.2885  155.3348 H   0  0  0  0  0  0  0  0  0  0  0  0  # atno 10763 bound_to 10752
  154.6899  135.5230  153.8381 H   0  0  0  0  0  0  0  0  0  0  0  0  # atno 10764 bound_to 10752
  153.0580  135.6603  154.0660 H   0  0  0  0  0  0  0  0  0  0  0  0  # atno 10765 bound_to 10752
  140.5133  134.0631  155.7824 H   0  0  0  0  0  0  0  0  0  0  0  0  # atno 11005 bound_to 11000
  145.0680  139.3053  143.5846 LP  0  0  0  0  0  0  0  0  0  0  0  0  # atno 17320 bound_to 7965
  146.3517  140.0145  142.8664 LP  0  0  0  0  0  0  0  0  0  0  0  0  # atno 17321 bound_to 7965
  140.6532  143.2230  151.6029 LP  0  0  0  0  0  0  0  0  0  0  0  0  # atno 17342 bound_to 10162
  139.5304  144.2932  152.1134 LP  0  0  0  0  0  0  0  0  0  0  0  0  # atno 17343 bound_to 10162
  156.6978  130.4614  149.5581 LP  0  0  0  0  0  0  0  0  0  0  0  0  # atno 17370 bound_to 10713
  156.1816  130.6503  151.0958 LP  0  0  0  0  0  0  0  0  0  0  0  0  # atno 17371 bound_to 10713
  141.1374  133.9198  157.2403 LP  0  0  0  0  0  0  0  0  0  0  0  0  # atno 17394 bound_to 11000
  139.9647  135.0145  156.9354 LP  0  0  0  0  0  0  0  0  0  0  0  0  # atno 17395 bound_to 11000

$$$$
