AV-unprocessed.smi:2118|AV-procd|sdf|8629|dock10
  -GOLD-   2272011373D 1   1.00000     0.00000
 Structure written by MMmdl.
 39 40  0  0  0  0  0  0  0  0  2 V2000
  153.3547  142.2412  161.2336 C   0  0  0  0  0  0  0  0  0  0  0  0
  152.6340  141.5022  160.0972 C   0  0  0  0  0  0  0  0  0  0  0  0
  153.4604  140.3233  159.5683 C   0  0  0  0  0  0  0  0  0  0  0  0
  152.7313  139.5854  158.4327 C   0  0  0  0  0  0  0  0  0  0  0  0
  152.3542  140.5000  157.3351 N   0  0  0  0  0  0  0  0  0  0  0  0
  151.8640  139.7609  155.8378 S   0  0  0  0  0  0  0  0  0  0  0  0
  150.8589  140.6538  155.2379 O   0  0  0  0  0  0  0  0  0  0  0  0
  153.1059  139.5224  155.0837 O   0  0  0  0  0  0  0  0  0  0  0  0
  151.2071  138.4172  156.4638 N   0  5  0  0  0  0  0  0  0  0  0  0
  149.9300  137.9567  155.9498 C   0  0  0  0  0  0  0  0  0  0  0  0
  150.1541  136.8099  154.9435 C   0  0  0  0  0  0  0  0  0  0  0  0
  150.0142  135.4213  155.5542 C   0  0  0  0  0  0  0  0  0  0  0  0
  150.0072  134.2675  154.7403 C   0  0  0  0  0  0  0  0  0  0  0  0
  149.8873  133.0040  155.3503 C   0  0  0  0  0  0  0  0  0  0  0  0
  149.7823  132.9446  156.7541 C   0  0  0  0  0  0  0  0  0  0  0  0
  149.7947  134.0381  157.5459 N   0  0  0  0  0  0  0  0  0  0  0  0
  149.9098  135.2464  156.9530 C   0  0  0  0  0  0  0  0  0  0  0  0
  151.5908  141.6852  157.7901 C   0  0  0  0  0  0  0  0  0  0  0  0
  152.3170  142.4334  158.9200 C   0  0  0  0  0  0  0  0  0  0  0  0
  154.3039  142.6593  160.8965 H   0  0  0  0  0  0  0  0  0  0  0  0
  153.5635  141.5702  162.0674 H   0  0  0  0  0  0  0  0  0  0  0  0
  152.7464  143.0615  161.6157 H   0  0  0  0  0  0  0  0  0  0  0  0
  151.6941  141.1142  160.4933 H   0  0  0  0  0  0  0  0  0  0  0  0
  154.4261  140.6799  159.2067 H   0  0  0  0  0  0  0  0  0  0  0  0
  153.6736  139.6242  160.3777 H   0  0  0  0  0  0  0  0  0  0  0  0
  153.3804  138.7976  158.0513 H   0  0  0  0  0  0  0  0  0  0  0  0
  151.8317  139.0980  158.8108 H   0  0  0  0  0  0  0  0  0  0  0  0
  149.2789  137.6014  156.7494 H   0  0  0  0  0  0  0  0  0  0  0  0
  149.3865  138.7633  155.4563 H   0  0  0  0  0  0  0  0  0  0  0  0
  149.4464  136.8978  154.1177 H   0  0  0  0  0  0  0  0  0  0  0  0
  151.1478  136.8943  154.5010 H   0  0  0  0  0  0  0  0  0  0  0  0
  150.0906  134.3492  153.6662 H   0  0  0  0  0  0  0  0  0  0  0  0
  149.8759  132.1022  154.7564 H   0  0  0  0  0  0  0  0  0  0  0  0
  149.6882  131.9923  157.2548 H   0  0  0  0  0  0  0  0  0  0  0  0
  149.9171  136.1002  157.6146 H   0  0  0  0  0  0  0  0  0  0  0  0
  151.4242  142.3711  156.9603 H   0  0  0  0  0  0  0  0  0  0  0  0
  150.6054  141.3604  158.1266 H   0  0  0  0  0  0  0  0  0  0  0  0
  151.6998  143.2663  159.2583 H   0  0  0  0  0  0  0  0  0  0  0  0
  153.2386  142.8702  158.5321 H   0  0  0  0  0  0  0  0  0  0  0  0
  1  2  1  0  0  0  0
  1 20  1  0  0  0  0
  1 21  1  0  0  0  0
  1 22  1  0  0  0  0
  2 19  1  0  0  0  0
  2  3  1  0  0  0  0
  2 23  1  0  0  0  0
  3  4  1  0  0  0  0
  3 24  1  0  0  0  0
  3 25  1  0  0  0  0
  4  5  1  0  0  0  0
  4 26  1  0  0  0  0
  4 27  1  0  0  0  0
  5  6  1  0  0  0  0
  5 18  1  0  0  0  0
  6  7  2  0  0  0  0
  6  8  2  0  0  0  0
  6  9  1  0  0  0  0
  9 10  1  0  0  0  0
 10 11  1  0  0  0  0
 10 28  1  0  0  0  0
 10 29  1  0  0  0  0
 11 12  1  0  0  0  0
 11 30  1  0  0  0  0
 11 31  1  0  0  0  0
 12 17  1  0  0  0  0
 12 13  2  0  0  0  0
 13 14  1  0  0  0  0
 13 32  1  0  0  0  0
 14 15  2  0  0  0  0
 14 33  1  0  0  0  0
 15 16  1  0  0  0  0
 15 34  1  0  0  0  0
 16 17  2  0  0  0  0
 17 35  1  0  0  0  0
 18 19  1  0  0  0  0
 18 36  1  0  0  0  0
 18 37  1  0  0  0  0
 19 38  1  0  0  0  0
 19 39  1  0  0  0  0
M  CHG  1   9  -1
M  END
> <s_m_source_file>
AV-unprocessed.smi

> <i_m_source_file_index>
2118

> <i_lp_mmshare_version>
43012

> <i_f3d_flags>
0

> <s_epik_input>
W0NIM11bQ0hdMVtDSDJdW0NIMl1OKFtDSDJdW0NIMl0xKVMoPU8pKD1PKVtOSF1bQ0gyXVtDSDJdYzJbY0hdW2NIXVtjSF1uW2NIXTI=

> <s_epik_cmdline>
J2VwaWtfcHl0aG9uJywgJy1waCcsICc3LjAnLCAnLXRuJywgJzgnLCAnLW1hJywgJzIwMCcsICctbWV0YWxfYmluZGluZycsICctaW1hZScsICc8aW5maWxlLm1hZT4nLCAnLW9tYWUnLCAnPG91dGZpbGUubWFlPic=

> <r_epik_Ionization_Penalty>
1.98317

> <r_epik_Ionization_Penalty_Charging>
1.95606

> <r_epik_Ionization_Penalty_Neutral>
0.0271171

> <r_epik_State_Penalty>
2.28376

> <r_epik_Charging_Adjusted_Penalty>
4.23982

> <i_epik_Tot_Q>
-1

> <i_epik_Tot_abs_Q>
1

> <r_epik_Metal_State_Penalty>
0.598332

> <b_epik_Metal_Only>
0

> <s_lp_Force_Field>
OPLS_2005

> <r_lp_Energy>
6.66289

> <b_lp_Chiralities_Consistent>
1

> <s_lp_Variant>
AV-unprocessed.smi:2118-2

> <Gold.Version>
5.8.1

> <Gold.Id.Protein>
6NUR|6NUR_protein|mol2

> <Gold.PLP.Fitness>
39.0191

> <Gold.PLP.PLP>
-32.2921

> <Gold.PLP.part.hbond>
-4.6009

> <Gold.PLP.part.metal>
0.0000

> <Gold.PLP.part.buried>
-2.8179

> <Gold.PLP.part.nonpolar>
-24.4370

> <Gold.PLP.part.repulsive>
0.0627

> <Gold.PLP.ligand.clash>
0.0000

> <Gold.PLP.ligand.torsion>
1.7680

> <Gold.PLP.Chemscore.Hbond>
2.9120

> <Gold.PLP.Chemscore.CHOScore>
0.0000

> <Gold.PLP.Chemscore.Metal>
0.0000

> <Gold.Chemscore.Hbonds>
donor molecule, donor type, donor heavy atom, donor atom, acceptor molecule, acceptor atom, score
      P1  H  6896  6909       L1    16  1.00
      P1  H  7989  7998       L1     7  0.91
      P1  H  7997  8008       L1     8  1.00

> <Gold.PLP.Chemscore.Internal.Correction>
1.5268

> <Gold.Rescore>
     Score         DG    S(hbond)    S(metal)    S(lipo)     H(rot)  DE(clash)    DE(int)     intcor
     17.78     -19.51       2.38        0.00      83.14       1.42       0.01       1.71       ----

> <Gold.Chemscore.Fitness>
17.7804

> <Gold.Chemscore.DG>
-19.5074

> <Gold.Chemscore.ZeroCoef>
-5.4800

> <Gold.Chemscore.Hbond>
2.3769

> <Gold.Chemscore.Metal>
0.0000

> <Gold.Chemscore.Lipo>
83.1425

> <Gold.Chemscore.Internal_Hbond>
0.0000

> <Gold.Chemscore.DEClash>
0.0130

> <Gold.Chemscore.DEInternal>
1.7140

> <Gold.Chemscore.Rot>
1.4216

> <Gold.Chemscore.Internal.Correction>
   9.000000E+99

> <Gold.Chemscore.Hbonds>
donor molecule, donor type, donor heavy atom, donor atom, acceptor molecule, acceptor atom, score
      P1  H  6896  6909       L1    16  0.79
      P1  H  7989  7998       L1     7  0.22
      P1  H  7997  8008       L1     8  0.93

> <Gold.Chemscore.Hbond.Weighted>
-7.9390

> <Gold.Chemscore.Metal.Weighted>
-0.0000

> <Gold.Chemscore.Lipo.Weighted>
-9.7277

> <Gold.Chemscore.Internal_Hbond.Weighted>
0.0000

> <Gold.Chemscore.DEClash.Weighted>
0.0130

> <Gold.Chemscore.DEInternal.Weighted>
1.7140

> <Gold.Chemscore.Rot.Weighted>
3.6392

> <Gold.Chemscore.Internal.Correction.Weighted>
   9.000000E+99

> <Gold.Protein.RotatedTorsions>
[ 6907 6896 6895 6894 ] final    4.92 input  -60.11 | X-H torsion
[ 7974 7965 7964 7962 ] final  122.18 input  175.53 | X-H torsion
[ 8008 7997 7996 7995 ] final    3.22 input   59.86 | X-H torsion
[ 10167 10162 10161 10158 ] final  104.34 input  -65.29 | X-H torsion
[ 10718 10713 10712 10709 ] final  -35.49 input   66.30 | X-H torsion
[ 10763 10752 10751 10750 ] final   99.38 input  -60.55 | X-H torsion
[ 11005 11000 10999 10996 ] final  -79.80 input  -57.11 | X-H torsion

> <Gold.Protein.ActiveResidues>
 VAL166  LYS551  ARG553  GLY616  TRP617  ASP618  TYR619  PRO620  LYS621  CYS622 
 ASP623  PHE694  ASN695  SER759  ASP760  ASP761  ALA762  ILE779  LEU786  VAL792 
 PHE793  MET794  SER795  GLU796  ALA797  LYS798  CYS799  TRP800  GLU811  SER814 

> <Gold.Protein.RotatedAtoms>
  151.6492  135.1003  160.0156 H   0  0  0  0  0  0  0  0  0  0  0  0  # atno 6907 bound_to 6896
  152.4010  133.6814  159.6325 H   0  0  0  0  0  0  0  0  0  0  0  0  # atno 6908 bound_to 6896
  150.7910  133.8707  159.3299 H   0  0  0  0  0  0  0  0  0  0  0  0  # atno 6909 bound_to 6896
  145.1105  139.3456  143.4765 H   0  0  0  0  0  0  0  0  0  0  0  0  # atno 7974 bound_to 7965
  154.7011  140.2673  155.6719 H   0  0  0  0  0  0  0  0  0  0  0  0  # atno 8008 bound_to 7997
  156.2765  140.2772  156.1545 H   0  0  0  0  0  0  0  0  0  0  0  0  # atno 8009 bound_to 7997
  155.0764  140.0372  157.2615 H   0  0  0  0  0  0  0  0  0  0  0  0  # atno 8010 bound_to 7997
  139.7186  144.7063  151.0910 H   0  0  0  0  0  0  0  0  0  0  0  0  # atno 10167 bound_to 10162
  156.3380  130.4289  149.7812 H   0  0  0  0  0  0  0  0  0  0  0  0  # atno 10718 bound_to 10713
  153.3007  135.4115  155.1250 H   0  0  0  0  0  0  0  0  0  0  0  0  # atno 10763 bound_to 10752
  154.8548  135.3541  154.5855 H   0  0  0  0  0  0  0  0  0  0  0  0  # atno 10764 bound_to 10752
  153.6280  135.7062  153.5344 H   0  0  0  0  0  0  0  0  0  0  0  0  # atno 10765 bound_to 10752
  141.1667  133.7121  156.8176 H   0  0  0  0  0  0  0  0  0  0  0  0  # atno 11005 bound_to 11000
  146.3526  140.1022  142.8607 LP  0  0  0  0  0  0  0  0  0  0  0  0  # atno 17320 bound_to 7965
  145.0852  140.9248  143.4802 LP  0  0  0  0  0  0  0  0  0  0  0  0  # atno 17321 bound_to 7965
  140.7749  143.5197  150.9552 LP  0  0  0  0  0  0  0  0  0  0  0  0  # atno 17342 bound_to 10162
  139.8883  143.6985  152.3148 LP  0  0  0  0  0  0  0  0  0  0  0  0  # atno 17343 bound_to 10162
  156.5059  130.8150  151.3150 LP  0  0  0  0  0  0  0  0  0  0  0  0  # atno 17370 bound_to 10713
  157.7442  130.9929  150.2654 LP  0  0  0  0  0  0  0  0  0  0  0  0  # atno 17371 bound_to 10713
  140.2142  134.8805  157.3307 LP  0  0  0  0  0  0  0  0  0  0  0  0  # atno 17394 bound_to 11000
  140.2055  134.4202  155.7640 LP  0  0  0  0  0  0  0  0  0  0  0  0  # atno 17395 bound_to 11000

$$$$
