AV-unprocessed.smi:3128|AV-procd|sdf|11921|dock10
  -GOLD-   2272017303D 1   1.00000     0.00000
 Structure written by MMmdl.
 39 39  0  0  0  0  0  0  0  0  1 V2000
  144.4514  135.1308  149.7282 C   0  0  0  0  0  0  0  0  0  0  0  0
  145.5516  134.5124  150.6133 C   0  0  0  0  0  0  0  0  0  0  0  0
  145.2822  133.0066  150.7860 C   0  0  0  0  0  0  0  0  0  0  0  0
  145.6965  135.2476  151.9724 C   0  0  1  0  0  0  0  0  0  0  0  0
  146.4279  134.4125  153.0412 C   0  0  0  0  0  0  0  0  0  0  0  0
  146.4100  136.5107  151.7868 N   0  0  0  0  0  0  0  0  0  0  0  0
  145.8940  137.7363  151.9703 C   0  0  0  0  0  0  0  0  0  0  0  0
  144.7362  137.9385  152.3361 O   0  0  0  0  0  0  0  0  0  0  0  0
  146.8264  138.9149  151.6958 C   0  0  0  0  0  0  0  0  0  0  0  0
  148.0440  138.8347  152.5077 N   0  0  0  0  0  0  0  0  0  0  0  0
  147.7912  139.3176  153.8564 C   0  0  0  0  0  0  0  0  0  0  0  0
  148.9805  140.1660  154.3300 C   0  0  0  0  0  0  0  0  0  0  0  0
  150.1265  139.3416  154.6624 N   0  0  0  0  0  0  0  0  0  0  0  0
  150.2603  137.9739  154.5488 C   0  0  0  0  0  0  0  0  0  0  0  0
  151.5130  137.6505  154.9856 C   0  0  0  0  0  0  0  0  0  0  0  0
  152.0779  138.9048  155.3498 C   0  0  0  0  0  0  0  0  0  0  0  0
  151.2459  139.9150  155.1546 N   0  0  0  0  0  0  0  0  0  0  0  0
  143.4823  135.1042  150.2273 H   0  0  0  0  0  0  0  0  0  0  0  0
  144.3538  134.5884  148.7874 H   0  0  0  0  0  0  0  0  0  0  0  0
  144.6664  136.1687  149.4736 H   0  0  0  0  0  0  0  0  0  0  0  0
  146.4939  134.6133  150.0728 H   0  0  0  0  0  0  0  0  0  0  0  0
  144.3857  132.8299  151.3809 H   0  0  0  0  0  0  0  0  0  0  0  0
  146.1144  132.4980  151.2717 H   0  0  0  0  0  0  0  0  0  0  0  0
  145.1390  132.5208  149.8204 H   0  0  0  0  0  0  0  0  0  0  0  0
  144.6925  135.4680  152.3407 H   0  0  0  0  0  0  0  0  0  0  0  0
  145.8691  133.5155  153.3059 H   0  0  0  0  0  0  0  0  0  0  0  0
  146.5611  134.9799  153.9629 H   0  0  0  0  0  0  0  0  0  0  0  0
  147.4158  134.1044  152.6973 H   0  0  0  0  0  0  0  0  0  0  0  0
  147.3707  136.4464  151.4833 H   0  0  0  0  0  0  0  0  0  0  0  0
  147.0865  138.9078  150.6362 H   0  0  0  0  0  0  0  0  0  0  0  0
  146.3103  139.8561  151.8950 H   0  0  0  0  0  0  0  0  0  0  0  0
  148.3959  137.8892  152.5520 H   0  0  0  0  0  0  0  0  0  0  0  0
  146.8763  139.9121  153.8725 H   0  0  0  0  0  0  0  0  0  0  0  0
  147.6450  138.4712  154.5293 H   0  0  0  0  0  0  0  0  0  0  0  0
  149.2785  140.8733  153.5546 H   0  0  0  0  0  0  0  0  0  0  0  0
  148.7083  140.7542  155.2080 H   0  0  0  0  0  0  0  0  0  0  0  0
  149.4619  137.3515  154.1723 H   0  0  0  0  0  0  0  0  0  0  0  0
  151.9580  136.6679  155.0372 H   0  0  0  0  0  0  0  0  0  0  0  0
  153.0610  139.1097  155.7474 H   0  0  0  0  0  0  0  0  0  0  0  0
  1  2  1  0  0  0  0
  1 18  1  0  0  0  0
  1 19  1  0  0  0  0
  1 20  1  0  0  0  0
  2  3  1  0  0  0  0
  2  4  1  0  0  0  0
  2 21  1  0  0  0  0
  3 22  1  0  0  0  0
  3 23  1  0  0  0  0
  3 24  1  0  0  0  0
  4  5  1  0  0  0  0
  4  6  1  0  0  0  0
  4 25  1  0  0  0  0
  5 26  1  0  0  0  0
  5 27  1  0  0  0  0
  5 28  1  0  0  0  0
  6  7  1  0  0  0  0
  6 29  1  0  0  0  0
  7  8  2  0  0  0  0
  7  9  1  0  0  0  0
  9 10  1  0  0  0  0
  9 30  1  0  0  0  0
  9 31  1  0  0  0  0
 10 11  1  0  0  0  0
 10 32  1  0  0  0  0
 11 12  1  0  0  0  0
 11 33  1  0  0  0  0
 11 34  1  0  0  0  0
 12 13  1  0  0  0  0
 12 35  1  0  0  0  0
 12 36  1  0  0  0  0
 13 17  1  0  0  0  0
 13 14  1  0  0  0  0
 14 15  2  0  0  0  0
 14 37  1  0  0  0  0
 15 16  1  0  0  0  0
 15 38  1  0  0  0  0
 16 17  2  0  0  0  0
 16 39  1  0  0  0  0
M  END
> <s_m_source_file>
AV-unprocessed.smi

> <i_m_source_file_index>
3128

> <i_lp_mmshare_version>
43012

> <i_f3d_flags>
0

> <s_epik_input>
W0NIM11bQ0hdKFtDSDNdKVtDQEhdKFtDSDNdKVtOSF1DKD1PKVtDSDJdW05IXVtDSDJdW0NIMl1uMVtjSF1bY0hdW2NIXW4x

> <s_epik_cmdline>
J2VwaWtfcHl0aG9uJywgJy1waCcsICc3LjAnLCAnLXRuJywgJzgnLCAnLW1hJywgJzIwMCcsICctbWV0YWxfYmluZGluZycsICctaW1hZScsICc8aW5maWxlLm1hZT4nLCAnLW9tYWUnLCAnPG91dGZpbGUubWFlPic=

> <r_lp_tautomer_probability>
1

> <r_epik_Ionization_Penalty>
0.724947

> <r_epik_Ionization_Penalty_Charging>
0

> <r_epik_Ionization_Penalty_Neutral>
0.724947

> <r_epik_State_Penalty>
0.747959

> <r_epik_Charging_Adjusted_Penalty>
0.747959

> <i_epik_Tot_Q>
0

> <i_epik_Tot_abs_Q>
0

> <r_epik_Metal_State_Penalty>
0.746178

> <b_epik_Metal_Only>
0

> <s_lp_Force_Field>
OPLS_2005

> <r_lp_Energy>
7.09657

> <b_lp_Chiralities_Consistent>
1

> <s_lp_Variant>
AV-unprocessed.smi:3128-4

> <Gold.Version>
5.8.1

> <Gold.Id.Protein>
6NUR|6NUR_protein|mol2

> <Gold.PLP.Fitness>
46.8548

> <Gold.PLP.PLP>
-36.4808

> <Gold.PLP.part.hbond>
-3.8385

> <Gold.PLP.part.metal>
0.0000

> <Gold.PLP.part.buried>
-3.9543

> <Gold.PLP.part.nonpolar>
-30.3574

> <Gold.PLP.part.repulsive>
0.3212

> <Gold.PLP.ligand.clash>
0.0000

> <Gold.PLP.ligand.torsion>
0.8363

> <Gold.PLP.Chemscore.Hbond>
2.9600

> <Gold.PLP.Chemscore.CHOScore>
1.0000

> <Gold.PLP.Chemscore.Metal>
0.0000

> <Gold.Chemscore.Hbonds>
donor molecule, donor type, donor heavy atom, donor atom, acceptor molecule, acceptor atom, score
      L1  H     6    29       P1  7948  1.00
      L1  H    10    32       P1  7948  1.00
      P1  H  7989  7998       L1    17  0.70
      L1  C    14    37       P1  7948  0.84

> <Gold.PLP.Chemscore.Internal.Correction>
0.1665

> <Gold.Rescore>
     Score         DG    S(hbond)    S(metal)    S(lipo)     H(rot)  DE(clash)    DE(int)     intcor
     16.34     -17.43       2.71        0.00      71.76       2.15       0.17       0.91       ----

> <Gold.Chemscore.Fitness>
16.3420

> <Gold.Chemscore.DG>
-17.4273

> <Gold.Chemscore.ZeroCoef>
-5.4800

> <Gold.Chemscore.Hbond>
2.7102

> <Gold.Chemscore.Metal>
0.0000

> <Gold.Chemscore.Lipo>
71.7629

> <Gold.Chemscore.Internal_Hbond>
0.0000

> <Gold.Chemscore.DEClash>
0.1717

> <Gold.Chemscore.DEInternal>
0.9136

> <Gold.Chemscore.Rot>
2.1488

> <Gold.Chemscore.Internal.Correction>
   9.000000E+99

> <Gold.Chemscore.Hbonds>
donor molecule, donor type, donor heavy atom, donor atom, acceptor molecule, acceptor atom, score
      L1  H     6    29       P1  7948  0.94
      L1  H    10    32       P1  7948  0.98
      P1  H  7989  7998       L1    17  0.06

> <Gold.Chemscore.Hbond.Weighted>
-9.0521

> <Gold.Chemscore.Metal.Weighted>
-0.0000

> <Gold.Chemscore.Lipo.Weighted>
-8.3963

> <Gold.Chemscore.Internal_Hbond.Weighted>
0.0000

> <Gold.Chemscore.DEClash.Weighted>
0.1717

> <Gold.Chemscore.DEInternal.Weighted>
0.9136

> <Gold.Chemscore.Rot.Weighted>
5.5010

> <Gold.Chemscore.Internal.Correction.Weighted>
   9.000000E+99

> <Gold.Protein.RotatedTorsions>
[ 6907 6896 6895 6894 ] final  145.92 input  -60.11 | X-H torsion
[ 7974 7965 7964 7962 ] final  -30.92 input  175.53 | X-H torsion
[ 8008 7997 7996 7995 ] final   43.11 input   59.86 | X-H torsion
[ 10167 10162 10161 10158 ] final -124.58 input  -65.29 | X-H torsion
[ 10718 10713 10712 10709 ] final   44.80 input   66.30 | X-H torsion
[ 10763 10752 10751 10750 ] final -126.35 input  -60.55 | X-H torsion
[ 11005 11000 10999 10996 ] final  -10.74 input  -57.11 | X-H torsion

> <Gold.Protein.ActiveResidues>
 VAL166  LYS551  ARG553  GLY616  TRP617  ASP618  TYR619  PRO620  LYS621  CYS622 
 ASP623  PHE694  ASN695  SER759  ASP760  ASP761  ALA762  ILE779  LEU786  VAL792 
 PHE793  MET794  SER795  GLU796  ALA797  LYS798  CYS799  TRP800  GLU811  SER814 

> <Gold.Protein.RotatedAtoms>
  152.1746  133.4666  159.4926 H   0  0  0  0  0  0  0  0  0  0  0  0  # atno 6907 bound_to 6896
  150.6925  134.1910  159.4294 H   0  0  0  0  0  0  0  0  0  0  0  0  # atno 6908 bound_to 6896
  151.9818  135.0024  160.0608 H   0  0  0  0  0  0  0  0  0  0  0  0  # atno 6909 bound_to 6896
  146.1106  140.5602  142.8779 H   0  0  0  0  0  0  0  0  0  0  0  0  # atno 7974 bound_to 7965
  155.2972  140.3382  155.4249 H   0  0  0  0  0  0  0  0  0  0  0  0  # atno 8008 bound_to 7997
  156.2018  140.1736  156.7923 H   0  0  0  0  0  0  0  0  0  0  0  0  # atno 8009 bound_to 7997
  154.5569  140.0695  156.8741 H   0  0  0  0  0  0  0  0  0  0  0  0  # atno 8010 bound_to 7997
  139.9913  143.5638  152.2341 H   0  0  0  0  0  0  0  0  0  0  0  0  # atno 10167 bound_to 10162
  157.4308  130.8023  149.7601 H   0  0  0  0  0  0  0  0  0  0  0  0  # atno 10718 bound_to 10713
  154.8745  135.3998  154.3417 H   0  0  0  0  0  0  0  0  0  0  0  0  # atno 10763 bound_to 10752
  153.4215  135.7023  153.6296 H   0  0  0  0  0  0  0  0  0  0  0  0  # atno 10764 bound_to 10752
  153.4956  135.3739  155.2484 H   0  0  0  0  0  0  0  0  0  0  0  0  # atno 10765 bound_to 10752
  140.7479  133.8616  155.9021 H   0  0  0  0  0  0  0  0  0  0  0  0  # atno 11005 bound_to 11000
  144.7508  140.5187  143.6803 LP  0  0  0  0  0  0  0  0  0  0  0  0  # atno 17320 bound_to 7965
  145.5670  139.1482  143.3309 LP  0  0  0  0  0  0  0  0  0  0  0  0  # atno 17321 bound_to 7965
  139.6338  144.7647  151.2480 LP  0  0  0  0  0  0  0  0  0  0  0  0  # atno 17342 bound_to 10162
  140.7454  143.6433  150.8315 LP  0  0  0  0  0  0  0  0  0  0  0  0  # atno 17343 bound_to 10162
  155.9912  130.3939  150.2993 LP  0  0  0  0  0  0  0  0  0  0  0  0  # atno 17370 bound_to 10713
  157.1150  131.0231  151.3033 LP  0  0  0  0  0  0  0  0  0  0  0  0  # atno 17371 bound_to 10713
  140.9777  134.1446  157.4521 LP  0  0  0  0  0  0  0  0  0  0  0  0  # atno 17394 bound_to 11000
  139.8793  135.0000  156.5987 LP  0  0  0  0  0  0  0  0  0  0  0  0  # atno 17395 bound_to 11000

$$$$
