AV-unprocessed.smi:1205|AV-procd|sdf|5046|dock4
  -GOLD-   22720 4 73D 1   1.00000     0.00000
 Structure written by MMmdl.
 49 50  0  0  0  0  0  0  0  0  2 V2000
  147.6232  136.1643  163.2243 C   0  0  0  0  0  0  0  0  0  0  0  0
  147.8295  135.9842  161.7492 C   0  0  0  0  0  0  0  0  0  0  0  0
  147.8659  134.7660  161.0096 C   0  0  0  0  0  0  0  0  0  0  0  0
  148.0809  135.1981  159.7295 C   0  0  0  0  0  0  0  0  0  0  0  0
  148.2140  134.4667  158.5912 N   0  0  0  0  0  0  0  0  0  0  0  0
  147.4404  134.4756  157.4919 C   0  0  0  0  0  0  0  0  0  0  0  0
  146.4436  135.1782  157.3225 O   0  0  0  0  0  0  0  0  0  0  0  0
  147.8976  133.6150  156.5713 N   0  0  0  0  0  0  0  0  0  0  0  0
  147.2902  133.3907  155.2635 C   0  0  0  0  0  0  0  0  0  0  0  0
  148.1216  134.0065  154.1085 C   0  0  1  0  0  0  0  0  0  0  0  0
  149.3756  133.1776  153.7705 C   0  0  0  0  0  0  0  0  0  0  0  0
  147.3160  134.2679  152.8800 N   0  3  2  0  0  0  0  0  0  0  0  0
  146.2336  135.2669  153.0827 C   0  0  0  0  0  0  0  0  0  0  0  0
  145.6199  135.6847  151.7367 C   0  0  0  0  0  0  0  0  0  0  0  0
  145.1084  134.4633  150.9610 C   0  0  0  0  0  0  0  0  0  0  0  0
  146.2300  133.4231  150.7946 C   0  0  2  0  0  0  0  0  0  0  0  0
  145.7337  132.1780  150.0464 C   0  0  0  0  0  0  0  0  0  0  0  0
  146.8218  133.0560  152.1699 C   0  0  0  0  0  0  0  0  0  0  0  0
  148.1667  136.5726  159.7317 N   0  0  0  0  0  0  0  0  0  0  0  0
  148.3922  137.4842  158.6268 C   0  0  0  0  0  0  0  0  0  0  0  0
  148.0091  137.0545  160.9832 N   0  0  0  0  0  0  0  0  0  0  0  0
  147.4680  135.2063  163.7206 H   0  0  0  0  0  0  0  0  0  0  0  0
  146.7513  136.7870  163.4260 H   0  0  0  0  0  0  0  0  0  0  0  0
  148.4883  136.6407  163.6861 H   0  0  0  0  0  0  0  0  0  0  0  0
  147.7544  133.7573  161.3776 H   0  0  0  0  0  0  0  0  0  0  0  0
  149.0109  133.8478  158.5708 H   0  0  0  0  0  0  0  0  0  0  0  0
  148.7217  133.0745  156.7914 H   0  0  0  0  0  0  0  0  0  0  0  0
  147.2006  132.3118  155.1377 H   0  0  0  0  0  0  0  0  0  0  0  0
  146.2738  133.7866  155.2689 H   0  0  0  0  0  0  0  0  0  0  0  0
  148.4944  134.9755  154.4431 H   0  0  0  0  0  0  0  0  0  0  0  0
  150.0625  133.1371  154.6164 H   0  0  0  0  0  0  0  0  0  0  0  0
  149.9228  133.6168  152.9357 H   0  0  0  0  0  0  0  0  0  0  0  0
  149.1281  132.1501  153.5048 H   0  0  0  0  0  0  0  0  0  0  0  0
  145.4609  134.8539  153.7320 H   0  0  0  0  0  0  0  0  0  0  0  0
  146.6290  136.1520  153.5827 H   0  0  0  0  0  0  0  0  0  0  0  0
  144.8043  136.3894  151.9013 H   0  0  0  0  0  0  0  0  0  0  0  0
  146.3673  136.2106  151.1408 H   0  0  0  0  0  0  0  0  0  0  0  0
  144.2652  134.0195  151.4924 H   0  0  0  0  0  0  0  0  0  0  0  0
  144.7327  134.7748  149.9856 H   0  0  0  0  0  0  0  0  0  0  0  0
  147.0231  133.8724  150.1947 H   0  0  0  0  0  0  0  0  0  0  0  0
  144.9371  131.6755  150.5962 H   0  0  0  0  0  0  0  0  0  0  0  0
  146.5403  131.4593  149.8992 H   0  0  0  0  0  0  0  0  0  0  0  0
  145.3441  132.4409  149.0625 H   0  0  0  0  0  0  0  0  0  0  0  0
  147.6359  132.3455  152.0297 H   0  0  0  0  0  0  0  0  0  0  0  0
  146.0627  132.5551  152.7721 H   0  0  0  0  0  0  0  0  0  0  0  0
  147.7261  137.2339  157.8007 H   0  0  0  0  0  0  0  0  0  0  0  0
  149.4258  137.4013  158.2904 H   0  0  0  0  0  0  0  0  0  0  0  0
  148.1996  138.5133  158.9333 H   0  0  0  0  0  0  0  0  0  0  0  0
  147.9603  134.7124  152.2417 H   0  0  0  0  0  0  0  0  0  0  0  0
  1  2  1  0  0  0  0
  1 22  1  0  0  0  0
  1 23  1  0  0  0  0
  1 24  1  0  0  0  0
  2 21  2  0  0  0  0
  2  3  1  0  0  0  0
  3  4  2  0  0  0  0
  3 25  1  0  0  0  0
  4  5  1  0  0  0  0
  4 19  1  0  0  0  0
  5  6  1  0  0  0  0
  5 26  1  0  0  0  0
  6  7  2  0  0  0  0
  6  8  1  0  0  0  0
  8  9  1  0  0  0  0
  8 27  1  0  0  0  0
  9 10  1  0  0  0  0
  9 28  1  0  0  0  0
  9 29  1  0  0  0  0
 10 11  1  0  0  0  0
 10 12  1  0  0  0  0
 10 30  1  0  0  0  0
 11 31  1  0  0  0  0
 11 32  1  0  0  0  0
 11 33  1  0  0  0  0
 12 18  1  0  0  0  0
 12 13  1  0  0  0  0
 12 49  1  0  0  0  0
 13 14  1  0  0  0  0
 13 34  1  0  0  0  0
 13 35  1  0  0  0  0
 14 15  1  0  0  0  0
 14 36  1  0  0  0  0
 14 37  1  0  0  0  0
 15 16  1  0  0  0  0
 15 38  1  0  0  0  0
 15 39  1  0  0  0  0
 16 17  1  0  0  0  0
 16 18  1  0  0  0  0
 16 40  1  0  0  0  0
 17 41  1  0  0  0  0
 17 42  1  0  0  0  0
 17 43  1  0  0  0  0
 18 44  1  0  0  0  0
 18 45  1  0  0  0  0
 19 20  1  0  0  0  0
 19 21  1  0  0  0  0
 20 46  1  0  0  0  0
 20 47  1  0  0  0  0
 20 48  1  0  0  0  0
M  CHG  1  12   1
M  END
> <s_m_source_file>
AV-unprocessed.smi

> <i_m_source_file_index>
1205

> <i_lp_mmshare_version>
43012

> <i_f3d_flags>
0

> <s_epik_input>
W0NIM11jMVtjSF1jKG4objEpW0NIM10pW05IXUMoPU8pW05IXVtDSDJdW0NASF0oW0NIM10pTjJbQ0gyXVtDSDJdW0NIMl1bQ0BASF0oW0NIM10pW0NIMl0y

> <s_epik_cmdline>
J2VwaWtfcHl0aG9uJywgJy1waCcsICc3LjAnLCAnLXRuJywgJzgnLCAnLW1hJywgJzIwMCcsICctbWV0YWxfYmluZGluZycsICctaW1hZScsICc8aW5maWxlLm1hZT4nLCAnLW9tYWUnLCAnPG91dGZpbGUubWFlPic=

> <r_lp_tautomer_probability>
1

> <r_epik_Ionization_Penalty>
0.0020309

> <r_epik_Ionization_Penalty_Charging>
0.00195276

> <r_epik_Ionization_Penalty_Neutral>
7.81448e-05

> <r_epik_State_Penalty>
0.00133177

> <r_epik_Charging_Adjusted_Penalty>
0.00328452

> <i_epik_Tot_Q>
1

> <i_epik_Tot_abs_Q>
1

> <r_epik_Metal_State_Penalty>
-0

> <b_epik_Metal_Only>
0

> <s_lp_Force_Field>
OPLS_2005

> <r_lp_Energy>
21.2667

> <b_lp_Chiralities_Consistent>
1

> <s_lp_Variant>
AV-unprocessed.smi:1205-8

> <Gold.Version>
5.8.1

> <Gold.Id.Protein>
6NUR|6NUR_protein|mol2

> <Gold.PLP.Fitness>
44.1851

> <Gold.PLP.PLP>
-34.4334

> <Gold.PLP.part.hbond>
-3.0000

> <Gold.PLP.part.metal>
0.0000

> <Gold.PLP.part.buried>
-4.0554

> <Gold.PLP.part.nonpolar>
-27.9179

> <Gold.PLP.part.repulsive>
0.0721

> <Gold.PLP.ligand.clash>
0.0000

> <Gold.PLP.ligand.torsion>
0.8846

> <Gold.PLP.Chemscore.Hbond>
3.8004

> <Gold.PLP.Chemscore.CHOScore>
0.0000

> <Gold.PLP.Chemscore.Metal>
0.0000

> <Gold.Chemscore.Hbonds>
donor molecule, donor type, donor heavy atom, donor atom, acceptor molecule, acceptor atom, score
      L1  H    12    49       P1  7948  1.92
      P1  H  6931  6943       L1    21  1.00
      P1  H  6934  6947       L1    21  0.56

> <Gold.PLP.Chemscore.Internal.Correction>
0.1197

> <Gold.Rescore>
     Score         DG    S(hbond)    S(metal)    S(lipo)     H(rot)  DE(clash)    DE(int)     intcor
     16.48     -17.37       2.05        0.00      75.14       1.47       0.02       0.87       ----

> <Gold.Chemscore.Fitness>
16.4844

> <Gold.Chemscore.DG>
-17.3683

> <Gold.Chemscore.ZeroCoef>
-5.4800

> <Gold.Chemscore.Hbond>
2.0506

> <Gold.Chemscore.Metal>
0.0000

> <Gold.Chemscore.Lipo>
75.1443

> <Gold.Chemscore.Internal_Hbond>
0.0000

> <Gold.Chemscore.DEClash>
0.0174

> <Gold.Chemscore.DEInternal>
0.8665

> <Gold.Chemscore.Rot>
1.4658

> <Gold.Chemscore.Internal.Correction>
   9.000000E+99

> <Gold.Chemscore.Hbonds>
donor molecule, donor type, donor heavy atom, donor atom, acceptor molecule, acceptor atom, score
      L1  H    12    49       P1  7948  0.46
      P1  H  6931  6943       L1    21  0.66
      P1  H  6934  6947       L1    21  0.44

> <Gold.Chemscore.Hbond.Weighted>
-6.8490

> <Gold.Chemscore.Metal.Weighted>
-0.0000

> <Gold.Chemscore.Lipo.Weighted>
-8.7919

> <Gold.Chemscore.Internal_Hbond.Weighted>
0.0000

> <Gold.Chemscore.DEClash.Weighted>
0.0174

> <Gold.Chemscore.DEInternal.Weighted>
0.8665

> <Gold.Chemscore.Rot.Weighted>
3.7526

> <Gold.Chemscore.Internal.Correction.Weighted>
   9.000000E+99

> <Gold.Protein.RotatedTorsions>
[ 6907 6896 6895 6894 ] final -154.43 input  -60.11 | X-H torsion
[ 7974 7965 7964 7962 ] final  -47.57 input  175.53 | X-H torsion
[ 8008 7997 7996 7995 ] final   18.81 input   59.86 | X-H torsion
[ 10167 10162 10161 10158 ] final  139.90 input  -65.29 | X-H torsion
[ 10718 10713 10712 10709 ] final  -78.26 input   66.30 | X-H torsion
[ 10763 10752 10751 10750 ] final   87.41 input  -60.55 | X-H torsion
[ 11005 11000 10999 10996 ] final   86.10 input  -57.11 | X-H torsion

> <Gold.Protein.ActiveResidues>
 VAL166  LYS551  ARG553  GLY616  TRP617  ASP618  TYR619  PRO620  LYS621  CYS622 
 ASP623  PHE694  ASN695  SER759  ASP760  ASP761  ALA762  ILE779  LEU786  VAL792 
 PHE793  MET794  SER795  GLU796  ALA797  LYS798  CYS799  TRP800  GLU811  SER814 

> <Gold.Protein.RotatedAtoms>
  151.2574  133.4319  159.2614 H   0  0  0  0  0  0  0  0  0  0  0  0  # atno 6907 bound_to 6896
  151.0562  134.9706  159.8247 H   0  0  0  0  0  0  0  0  0  0  0  0  # atno 6908 bound_to 6896
  152.5391  134.2526  159.8957 H   0  0  0  0  0  0  0  0  0  0  0  0  # atno 6909 bound_to 6896
  145.9603  140.7486  142.9461 H   0  0  0  0  0  0  0  0  0  0  0  0  # atno 7974 bound_to 7965
  154.9115  140.3015  155.5263 H   0  0  0  0  0  0  0  0  0  0  0  0  # atno 8008 bound_to 7997
  156.3014  140.2388  156.4091 H   0  0  0  0  0  0  0  0  0  0  0  0  # atno 8009 bound_to 7997
  154.8420  140.0413  157.1537 H   0  0  0  0  0  0  0  0  0  0  0  0  # atno 8010 bound_to 7997
  139.5065  144.6267  151.5920 H   0  0  0  0  0  0  0  0  0  0  0  0  # atno 10167 bound_to 10162
  156.0122  130.4513  150.3469 H   0  0  0  0  0  0  0  0  0  0  0  0  # atno 10718 bound_to 10713
  153.1666  135.4544  154.9845 H   0  0  0  0  0  0  0  0  0  0  0  0  # atno 10763 bound_to 10752
  154.7936  135.3229  154.7722 H   0  0  0  0  0  0  0  0  0  0  0  0  # atno 10764 bound_to 10752
  153.8204  135.6947  153.4882 H   0  0  0  0  0  0  0  0  0  0  0  0  # atno 10765 bound_to 10752
  139.8953  134.8332  156.2673 H   0  0  0  0  0  0  0  0  0  0  0  0  # atno 11005 bound_to 11000
  144.6813  140.2579  143.7323 LP  0  0  0  0  0  0  0  0  0  0  0  0  # atno 17320 bound_to 7965
  145.8050  139.1979  143.2026 LP  0  0  0  0  0  0  0  0  0  0  0  0  # atno 17321 bound_to 7965
  140.5986  143.9651  150.6371 LP  0  0  0  0  0  0  0  0  0  0  0  0  # atno 17342 bound_to 10162
  140.2855  143.3360  152.1111 LP  0  0  0  0  0  0  0  0  0  0  0  0  # atno 17343 bound_to 10162
  157.1563  131.0333  151.2862 LP  0  0  0  0  0  0  0  0  0  0  0  0  # atno 17370 bound_to 10713
  157.4349  130.7511  149.7021 LP  0  0  0  0  0  0  0  0  0  0  0  0  # atno 17371 bound_to 10713
  141.0123  133.7088  156.1132 LP  0  0  0  0  0  0  0  0  0  0  0  0  # atno 17394 bound_to 11000
  140.7349  134.4213  157.5561 LP  0  0  0  0  0  0  0  0  0  0  0  0  # atno 17395 bound_to 11000

$$$$
