AV-unprocessed.smi:2072|AV-procd|sdf|8447|dock10
  -GOLD-   2272011143D 1   1.00000     0.00000
 Structure written by MMmdl.
 40 42  0  0  0  0  0  0  0  0  2 V2000
  145.5640  137.9956  153.7845 O   0  0  0  0  0  0  0  0  0  0  0  0
  146.5712  137.4804  153.3013 C   0  0  0  0  0  0  0  0  0  0  0  0
  147.7963  138.0332  153.2652 N   0  0  0  0  0  0  0  0  0  0  0  0
  148.2334  139.2994  153.7462 C   0  0  0  0  0  0  0  0  0  0  0  0
  147.4569  140.4850  153.7402 C   0  0  0  0  0  0  0  0  0  0  0  0
  148.0228  141.6718  154.2445 C   0  0  0  0  0  0  0  0  0  0  0  0
  149.3425  141.6347  154.7334 C   0  0  0  0  0  0  0  0  0  0  0  0
  150.0959  140.5155  154.7420 N   0  0  0  0  0  0  0  0  0  0  0  0
  149.5467  139.3815  154.2573 C   0  0  0  0  0  0  0  0  0  0  0  0
  146.5747  136.2621  152.7416 N   0  0  0  0  0  0  0  0  0  0  0  0
  145.4080  135.3927  152.6154 C   0  0  1  0  0  0  0  0  0  0  0  0
  144.3197  135.9787  151.6985 C   0  0  0  0  0  0  0  0  0  0  0  0
  143.7258  134.7714  150.9460 C   0  0  0  0  0  0  0  0  0  0  0  0
  144.4142  133.5887  151.4977 N   0  3  1  0  0  0  0  0  0  0  0  0
  144.4861  132.3883  150.6366 C   0  0  0  0  0  0  0  0  0  0  0  0
  145.1568  131.2417  151.4191 C   0  0  0  0  0  0  0  0  0  0  0  0
  146.5216  131.6673  151.9971 C   0  0  0  0  0  0  0  0  0  0  0  0
  146.4017  132.9740  152.8051 C   0  0  0  0  0  0  0  0  0  0  0  0
  145.7365  134.0581  151.9398 C   0  0  2  0  0  0  0  0  0  0  0  0
  148.5206  137.4649  152.8510 H   0  0  0  0  0  0  0  0  0  0  0  0
  146.4490  140.5210  153.3604 H   0  0  0  0  0  0  0  0  0  0  0  0
  147.4572  142.5916  154.2545 H   0  0  0  0  0  0  0  0  0  0  0  0
  149.8051  142.5281  155.1259 H   0  0  0  0  0  0  0  0  0  0  0  0
  150.1809  138.5070  154.2798 H   0  0  0  0  0  0  0  0  0  0  0  0
  147.4463  135.9140  152.3694 H   0  0  0  0  0  0  0  0  0  0  0  0
  144.9641  135.2042  153.5955 H   0  0  0  0  0  0  0  0  0  0  0  0
  143.5630  136.5119  152.2754 H   0  0  0  0  0  0  0  0  0  0  0  0
  144.7414  136.6850  150.9815 H   0  0  0  0  0  0  0  0  0  0  0  0
  142.6472  134.6866  151.0808 H   0  0  0  0  0  0  0  0  0  0  0  0
  143.9280  134.8603  149.8775 H   0  0  0  0  0  0  0  0  0  0  0  0
  143.4813  132.0969  150.3293 H   0  0  0  0  0  0  0  0  0  0  0  0
  145.0495  132.6135  149.7299 H   0  0  0  0  0  0  0  0  0  0  0  0
  144.5028  130.9308  152.2351 H   0  0  0  0  0  0  0  0  0  0  0  0
  145.2788  130.3705  150.7748 H   0  0  0  0  0  0  0  0  0  0  0  0
  146.9285  130.8735  152.6242 H   0  0  0  0  0  0  0  0  0  0  0  0
  147.2312  131.8101  151.1810 H   0  0  0  0  0  0  0  0  0  0  0  0
  145.8160  132.8015  153.7090 H   0  0  0  0  0  0  0  0  0  0  0  0
  147.3907  133.2986  153.1290 H   0  0  0  0  0  0  0  0  0  0  0  0
  146.3524  134.2457  151.0569 H   0  0  0  0  0  0  0  0  0  0  0  0
  143.9111  133.3288  152.3342 H   0  0  0  0  0  0  0  0  0  0  0  0
  1  2  2  0  0  0  0
  2  3  1  0  0  0  0
  2 10  1  0  0  0  0
  3  4  1  0  0  0  0
  3 20  1  0  0  0  0
  4  9  1  0  0  0  0
  4  5  2  0  0  0  0
  5  6  1  0  0  0  0
  5 21  1  0  0  0  0
  6  7  2  0  0  0  0
  6 22  1  0  0  0  0
  7  8  1  0  0  0  0
  7 23  1  0  0  0  0
  8  9  2  0  0  0  0
  9 24  1  0  0  0  0
 10 11  1  0  0  0  0
 10 25  1  0  0  0  0
 11 19  1  0  0  0  0
 11 12  1  0  0  0  0
 11 26  1  0  0  0  0
 12 13  1  0  0  0  0
 12 27  1  0  0  0  0
 12 28  1  0  0  0  0
 13 14  1  0  0  0  0
 13 29  1  0  0  0  0
 13 30  1  0  0  0  0
 14 19  1  0  0  0  0
 14 15  1  0  0  0  0
 14 40  1  0  0  0  0
 15 16  1  0  0  0  0
 15 31  1  0  0  0  0
 15 32  1  0  0  0  0
 16 17  1  0  0  0  0
 16 33  1  0  0  0  0
 16 34  1  0  0  0  0
 17 18  1  0  0  0  0
 17 35  1  0  0  0  0
 17 36  1  0  0  0  0
 18 19  1  0  0  0  0
 18 37  1  0  0  0  0
 18 38  1  0  0  0  0
 19 39  1  0  0  0  0
M  CHG  1  14   1
M  END
> <s_m_source_file>
AV-unprocessed.smi

> <i_m_source_file_index>
2072

> <i_lp_mmshare_version>
43012

> <i_f3d_flags>
0

> <s_epik_input>
W0NIMl0xW0NIMl1bQ0gyXVtDSDJdW0NASF0oTjEyKVtDQEBIXShbQ0gyXVtDSDJdMilbTkhdQyg9TylbTkhdYzNbY0hdW2NIXVtjSF1uW2NIXTM=

> <s_epik_cmdline>
J2VwaWtfcHl0aG9uJywgJy1waCcsICc3LjAnLCAnLXRuJywgJzgnLCAnLW1hJywgJzIwMCcsICctbWV0YWxfYmluZGluZycsICctaW1hZScsICc8aW5maWxlLm1hZT4nLCAnLW9tYWUnLCAnPG91dGZpbGUubWFlPic=

> <r_lp_tautomer_probability>
1

> <r_epik_Ionization_Penalty>
0.00482425

> <r_epik_Ionization_Penalty_Charging>
0.000974069

> <r_epik_Ionization_Penalty_Neutral>
0.00385018

> <r_epik_State_Penalty>
-0

> <r_epik_Charging_Adjusted_Penalty>
0.000974069

> <i_epik_Tot_Q>
1

> <i_epik_Tot_abs_Q>
1

> <r_epik_Metal_State_Penalty>
-0

> <b_epik_Metal_Only>
0

> <s_lp_Force_Field>
OPLS_2005

> <r_lp_Energy>
37.8914

> <b_lp_Chiralities_Consistent>
1

> <s_lp_Variant>
AV-unprocessed.smi:2072-6

> <Gold.Version>
5.8.1

> <Gold.Id.Protein>
6NUR|6NUR_protein|mol2

> <Gold.PLP.Fitness>
40.3275

> <Gold.PLP.PLP>
-29.1736

> <Gold.PLP.part.hbond>
-2.9825

> <Gold.PLP.part.metal>
0.0000

> <Gold.PLP.part.buried>
1.8118

> <Gold.PLP.part.nonpolar>
-27.1987

> <Gold.PLP.part.repulsive>
0.3193

> <Gold.PLP.ligand.clash>
0.0000

> <Gold.PLP.ligand.torsion>
0.2474

> <Gold.PLP.Chemscore.Hbond>
2.8800

> <Gold.PLP.Chemscore.CHOScore>
1.0000

> <Gold.PLP.Chemscore.Metal>
0.0000

> <Gold.Chemscore.Hbonds>
donor molecule, donor type, donor heavy atom, donor atom, acceptor molecule, acceptor atom, score
      L1  H     3    20       P1  7948  1.00
      L1  H    10    25       P1  7948  0.99
      P1  H  7989  7998       L1     8  0.91
      L1  C     7    23       P1  8028  1.00

> <Gold.PLP.Chemscore.Internal.Correction>
0.0088

> <Gold.Rescore>
     Score         DG    S(hbond)    S(metal)    S(lipo)     H(rot)  DE(clash)    DE(int)     intcor
     18.54     -19.99       2.29        0.00      80.49       1.00       0.43       1.02       ----

> <Gold.Chemscore.Fitness>
18.5366

> <Gold.Chemscore.DG>
-19.9923

> <Gold.Chemscore.ZeroCoef>
-5.4800

> <Gold.Chemscore.Hbond>
2.2919

> <Gold.Chemscore.Metal>
0.0000

> <Gold.Chemscore.Lipo>
80.4912

> <Gold.Chemscore.Internal_Hbond>
0.0000

> <Gold.Chemscore.DEClash>
0.4348

> <Gold.Chemscore.DEInternal>
1.0210

> <Gold.Chemscore.Rot>
1.0000

> <Gold.Chemscore.Internal.Correction>
   9.000000E+99

> <Gold.Chemscore.Hbonds>
donor molecule, donor type, donor heavy atom, donor atom, acceptor molecule, acceptor atom, score
      L1  H     3    20       P1  7948  0.94
      L1  H    10    25       P1  7948  0.92
      P1  H  7989  7998       L1     8  0.19

> <Gold.Chemscore.Hbond.Weighted>
-7.6548

> <Gold.Chemscore.Metal.Weighted>
-0.0000

> <Gold.Chemscore.Lipo.Weighted>
-9.4175

> <Gold.Chemscore.Internal_Hbond.Weighted>
0.0000

> <Gold.Chemscore.DEClash.Weighted>
0.4348

> <Gold.Chemscore.DEInternal.Weighted>
1.0210

> <Gold.Chemscore.Rot.Weighted>
2.5600

> <Gold.Chemscore.Internal.Correction.Weighted>
   9.000000E+99

> <Gold.Protein.RotatedTorsions>
[ 6907 6896 6895 6894 ] final   -5.84 input  -60.11 | X-H torsion
[ 7974 7965 7964 7962 ] final   93.43 input  175.53 | X-H torsion
[ 8008 7997 7996 7995 ] final   12.68 input   59.86 | X-H torsion
[ 10167 10162 10161 10158 ] final   34.68 input  -65.29 | X-H torsion
[ 10718 10713 10712 10709 ] final   46.10 input   66.30 | X-H torsion
[ 10763 10752 10751 10750 ] final   23.15 input  -60.55 | X-H torsion
[ 11005 11000 10999 10996 ] final -168.49 input  -57.11 | X-H torsion

> <Gold.Protein.ActiveResidues>
 VAL166  LYS551  ARG553  GLY616  TRP617  ASP618  TYR619  PRO620  LYS621  CYS622 
 ASP623  PHE694  ASN695  SER759  ASP760  ASP761  ALA762  ILE779  LEU786  VAL792 
 PHE793  MET794  SER795  GLU796  ALA797  LYS798  CYS799  TRP800  GLU811  SER814 

> <Gold.Protein.RotatedAtoms>
  151.4752  135.1048  159.9762 H   0  0  0  0  0  0  0  0  0  0  0  0  # atno 6907 bound_to 6896
  152.4801  133.8229  159.7073 H   0  0  0  0  0  0  0  0  0  0  0  0  # atno 6908 bound_to 6896
  150.8866  133.7238  159.2943 H   0  0  0  0  0  0  0  0  0  0  0  0  # atno 6909 bound_to 6896
  145.4790  139.2279  143.2893 H   0  0  0  0  0  0  0  0  0  0  0  0  # atno 7974 bound_to 7965
  154.8240  140.2888  155.5767 H   0  0  0  0  0  0  0  0  0  0  0  0  # atno 8008 bound_to 7997
  156.3000  140.2544  156.3083 H   0  0  0  0  0  0  0  0  0  0  0  0  # atno 8009 bound_to 7997
  154.9306  140.0383  157.2035 H   0  0  0  0  0  0  0  0  0  0  0  0  # atno 8010 bound_to 7997
  140.4292  144.1349  150.6157 H   0  0  0  0  0  0  0  0  0  0  0  0  # atno 10167 bound_to 10162
  157.4446  130.8102  149.7728 H   0  0  0  0  0  0  0  0  0  0  0  0  # atno 10718 bound_to 10713
  153.0861  135.6633  153.9947 H   0  0  0  0  0  0  0  0  0  0  0  0  # atno 10763 bound_to 10752
  153.9556  135.2979  155.3438 H   0  0  0  0  0  0  0  0  0  0  0  0  # atno 10764 bound_to 10752
  154.7269  135.5140  153.8973 H   0  0  0  0  0  0  0  0  0  0  0  0  # atno 10765 bound_to 10752
  140.5414  134.5518  157.5100 H   0  0  0  0  0  0  0  0  0  0  0  0  # atno 11005 bound_to 11000
  146.2352  140.5575  142.8958 LP  0  0  0  0  0  0  0  0  0  0  0  0  # atno 17320 bound_to 7965
  144.7900  140.6012  143.6548 LP  0  0  0  0  0  0  0  0  0  0  0  0  # atno 17321 bound_to 7965
  140.4446  143.2512  151.9428 LP  0  0  0  0  0  0  0  0  0  0  0  0  # atno 17342 bound_to 10162
  139.4784  144.5621  151.8223 LP  0  0  0  0  0  0  0  0  0  0  0  0  # atno 17343 bound_to 10162
  155.9962  130.3907  150.2788 LP  0  0  0  0  0  0  0  0  0  0  0  0  # atno 17370 bound_to 10713
  157.0955  131.0181  151.3105 LP  0  0  0  0  0  0  0  0  0  0  0  0  # atno 17371 bound_to 10713
  139.9502  134.7631  156.0467 LP  0  0  0  0  0  0  0  0  0  0  0  0  # atno 17394 bound_to 11000
  141.1225  133.6609  156.3251 LP  0  0  0  0  0  0  0  0  0  0  0  0  # atno 17395 bound_to 11000

$$$$
