AV-unprocessed.smi:2999|AV-procd|sdf|11425|dock8
  -GOLD-   2272016353D 1   1.00000     0.00000
 Structure written by MMmdl.
 37 39  0  0  0  0  0  0  0  0  3 V2000
  153.0045  139.8057  157.1779 O   0  0  0  0  0  0  0  0  0  0  0  0
  152.0091  140.4154  156.7807 C   0  0  0  0  0  0  0  0  0  0  0  0
  151.3832  140.0173  155.6667 N   0  0  0  0  0  0  0  0  0  0  0  0
  151.7647  138.8750  154.8462 C   0  0  0  0  0  0  0  0  0  0  0  0
  150.5345  138.0403  154.4608 C   0  0  2  0  0  0  0  0  0  0  0  0
  149.3475  138.9054  153.9848 C   0  0  0  0  0  0  0  0  0  0  0  0
  148.1707  138.0546  153.6987 N   0  3  2  0  0  0  0  0  0  0  0  0
  147.0188  138.8347  153.1977 C   0  0  0  0  0  0  0  0  0  0  0  0
  146.2540  138.1461  152.0915 C   0  0  0  0  0  0  0  0  0  0  0  0
  147.1772  139.3004  151.7693 C   0  0  0  0  0  0  0  0  0  0  0  0
  147.8258  137.2289  154.8776 C   0  0  0  0  0  0  0  0  0  0  0  0
  149.0488  136.4164  155.3326 C   0  0  0  0  0  0  0  0  0  0  0  0
  150.1309  137.2981  155.6078 O   0  0  0  0  0  0  0  0  0  0  0  0
  151.4394  141.4943  157.3630 N   0  5  0  0  0  0  0  0  0  0  0  0
  152.0340  142.0843  158.4129 C   0  0  0  0  0  0  0  0  0  0  0  0
  152.6551  141.3980  159.3790 N   0  0  0  0  0  0  0  0  0  0  0  0
  153.1943  142.2106  160.3781 C   0  0  0  0  0  0  0  0  0  0  0  0
  152.9710  143.5462  160.1723 C   0  0  0  0  0  0  0  0  0  0  0  0
  152.0732  143.8252  158.7077 S   0  0  0  0  0  0  0  0  0  0  0  0
  150.5766  140.5488  155.3738 H   0  0  0  0  0  0  0  0  0  0  0  0
  152.2646  139.2410  153.9485 H   0  0  0  0  0  0  0  0  0  0  0  0
  152.4830  138.2517  155.3815 H   0  0  0  0  0  0  0  0  0  0  0  0
  150.8199  137.3417  153.6715 H   0  0  0  0  0  0  0  0  0  0  0  0
  149.0886  139.6429  154.7465 H   0  0  0  0  0  0  0  0  0  0  0  0
  149.6178  139.4583  153.0843 H   0  0  0  0  0  0  0  0  0  0  0  0
  146.5003  139.4558  153.9262 H   0  0  0  0  0  0  0  0  0  0  0  0
  146.5711  137.1502  151.7868 H   0  0  0  0  0  0  0  0  0  0  0  0
  145.1838  138.3321  152.0301 H   0  0  0  0  0  0  0  0  0  0  0  0
  146.7156  140.2473  151.4967 H   0  0  0  0  0  0  0  0  0  0  0  0
  148.1078  139.0717  151.2527 H   0  0  0  0  0  0  0  0  0  0  0  0
  147.4824  137.8731  155.6886 H   0  0  0  0  0  0  0  0  0  0  0  0
  147.0034  136.5567  154.6310 H   0  0  0  0  0  0  0  0  0  0  0  0
  148.8122  135.8547  156.2363 H   0  0  0  0  0  0  0  0  0  0  0  0
  149.3394  135.6893  154.5726 H   0  0  0  0  0  0  0  0  0  0  0  0
  153.7201  141.7521  161.2022 H   0  0  0  0  0  0  0  0  0  0  0  0
  153.2762  144.3781  160.7891 H   0  0  0  0  0  0  0  0  0  0  0  0
  148.4403  137.4194  152.9611 H   0  0  0  0  0  0  0  0  0  0  0  0
  1  2  2  0  0  0  0
  2  3  1  0  0  0  0
  2 14  1  0  0  0  0
  3  4  1  0  0  0  0
  3 20  1  0  0  0  0
  4  5  1  0  0  0  0
  4 21  1  0  0  0  0
  4 22  1  0  0  0  0
  5 13  1  0  0  0  0
  5  6  1  0  0  0  0
  5 23  1  0  0  0  0
  6  7  1  0  0  0  0
  6 24  1  0  0  0  0
  6 25  1  0  0  0  0
  7  8  1  0  0  0  0
  7 11  1  0  0  0  0
  7 37  1  0  0  0  0
  8 10  1  0  0  0  0
  8  9  1  0  0  0  0
  8 26  1  0  0  0  0
  9 10  1  0  0  0  0
  9 27  1  0  0  0  0
  9 28  1  0  0  0  0
 10 29  1  0  0  0  0
 10 30  1  0  0  0  0
 11 12  1  0  0  0  0
 11 31  1  0  0  0  0
 11 32  1  0  0  0  0
 12 13  1  0  0  0  0
 12 33  1  0  0  0  0
 12 34  1  0  0  0  0
 14 15  1  0  0  0  0
 15 19  1  0  0  0  0
 15 16  2  0  0  0  0
 16 17  1  0  0  0  0
 17 18  2  0  0  0  0
 17 35  1  0  0  0  0
 18 19  1  0  0  0  0
 18 36  1  0  0  0  0
M  CHG  1   7   1
M  CHG  1  14  -1
M  END
> <s_m_source_file>
AV-unprocessed.smi

> <i_m_source_file_index>
2999

> <i_lp_mmshare_version>
43012

> <i_f3d_flags>
0

> <s_epik_input>
czFbY0hdW2NIXW5jMVtOSF1DKD1PKVtOSF1bQ0gyXVtDQEBIXTJbQ0gyXU4oW0NIMl1bQ0gyXU8yKVtDSF0zW0NIMl1bQ0gyXTM=

> <s_epik_cmdline>
J2VwaWtfcHl0aG9uJywgJy1waCcsICc3LjAnLCAnLXRuJywgJzgnLCAnLW1hJywgJzIwMCcsICctbWV0YWxfYmluZGluZycsICctaW1hZScsICc8aW5maWxlLm1hZT4nLCAnLW9tYWUnLCAnPG91dGZpbGUubWFlPic=

> <r_lp_tautomer_probability>
0.999

> <r_epik_Ionization_Penalty>
7.79196

> <r_epik_Ionization_Penalty_Charging>
6.93299

> <r_epik_Ionization_Penalty_Neutral>
0.858963

> <r_epik_State_Penalty>
7.05108

> <r_epik_Charging_Adjusted_Penalty>
13.9841

> <i_epik_Tot_Q>
0

> <i_epik_Tot_abs_Q>
2

> <r_epik_Metal_State_Penalty>
3.05936

> <b_epik_Metal_Only>
1

> <s_lp_Force_Field>
OPLS_2005

> <r_lp_Energy>
14.1159

> <b_lp_Chiralities_Consistent>
1

> <s_lp_Variant>
AV-unprocessed.smi:2999-9

> <Gold.Version>
5.8.1

> <Gold.Id.Protein>
6NUR|6NUR_protein|mol2

> <Gold.PLP.Fitness>
42.3618

> <Gold.PLP.PLP>
-34.3791

> <Gold.PLP.part.hbond>
-2.0000

> <Gold.PLP.part.metal>
0.0000

> <Gold.PLP.part.buried>
0.2536

> <Gold.PLP.part.nonpolar>
-32.9503

> <Gold.PLP.part.repulsive>
0.2585

> <Gold.PLP.ligand.clash>
0.0000

> <Gold.PLP.ligand.torsion>
1.1430

> <Gold.PLP.Chemscore.Hbond>
3.0000

> <Gold.PLP.Chemscore.CHOScore>
0.0000

> <Gold.PLP.Chemscore.Metal>
0.0000

> <Gold.Chemscore.Hbonds>
donor molecule, donor type, donor heavy atom, donor atom, acceptor molecule, acceptor atom, score
      L1  H     7    37       P1  7948  2.00
      P1  H  7997  8010       L1     1  1.00

> <Gold.PLP.Chemscore.Internal.Correction>
1.2687

> <Gold.Rescore>
     Score         DG    S(hbond)    S(metal)    S(lipo)     H(rot)  DE(clash)    DE(int)     intcor
     14.73     -18.05       2.00        0.00      84.37       1.55       0.64       2.68       ----

> <Gold.Chemscore.Fitness>
14.7296

> <Gold.Chemscore.DG>
-18.0461

> <Gold.Chemscore.ZeroCoef>
-5.4800

> <Gold.Chemscore.Hbond>
1.9951

> <Gold.Chemscore.Metal>
0.0000

> <Gold.Chemscore.Lipo>
84.3714

> <Gold.Chemscore.Internal_Hbond>
0.0000

> <Gold.Chemscore.DEClash>
0.6369

> <Gold.Chemscore.DEInternal>
2.6796

> <Gold.Chemscore.Rot>
1.5504

> <Gold.Chemscore.Internal.Correction>
   9.000000E+99

> <Gold.Chemscore.Hbonds>
donor molecule, donor type, donor heavy atom, donor atom, acceptor molecule, acceptor atom, score
      L1  H     7    37       P1  7948  1.00
      P1  H  7997  8010       L1     1  0.86

> <Gold.Chemscore.Hbond.Weighted>
-6.6637

> <Gold.Chemscore.Metal.Weighted>
-0.0000

> <Gold.Chemscore.Lipo.Weighted>
-9.8715

> <Gold.Chemscore.Internal_Hbond.Weighted>
0.0000

> <Gold.Chemscore.DEClash.Weighted>
0.6369

> <Gold.Chemscore.DEInternal.Weighted>
2.6796

> <Gold.Chemscore.Rot.Weighted>
3.9690

> <Gold.Chemscore.Internal.Correction.Weighted>
   9.000000E+99

> <Gold.Protein.RotatedTorsions>
[ 6907 6896 6895 6894 ] final   55.49 input  -60.11 | X-H torsion
[ 7974 7965 7964 7962 ] final -175.44 input  175.53 | X-H torsion
[ 8008 7997 7996 7995 ] final   70.64 input   59.86 | X-H torsion
[ 10167 10162 10161 10158 ] final    0.55 input  -65.29 | X-H torsion
[ 10718 10713 10712 10709 ] final  -34.69 input   66.30 | X-H torsion
[ 10763 10752 10751 10750 ] final  -26.11 input  -60.55 | X-H torsion
[ 11005 11000 10999 10996 ] final   70.93 input  -57.11 | X-H torsion

> <Gold.Protein.ActiveResidues>
 VAL166  LYS551  ARG553  GLY616  TRP617  ASP618  TYR619  PRO620  LYS621  CYS622 
 ASP623  PHE694  ASN695  SER759  ASP760  ASP761  ALA762  ILE779  LEU786  VAL792 
 PHE793  MET794  SER795  GLU796  ALA797  LYS798  CYS799  TRP800  GLU811  SER814 

> <Gold.Protein.RotatedAtoms>
  152.3543  134.6961  160.0226 H   0  0  0  0  0  0  0  0  0  0  0  0  # atno 6907 bound_to 6896
  151.7305  133.3312  159.3347 H   0  0  0  0  0  0  0  0  0  0  0  0  # atno 6908 bound_to 6896
  150.7561  134.6301  159.6226 H   0  0  0  0  0  0  0  0  0  0  0  0  # atno 6909 bound_to 6896
  144.7128  140.1320  143.6398 H   0  0  0  0  0  0  0  0  0  0  0  0  # atno 7974 bound_to 7965
  155.7418  140.3490  155.5108 H   0  0  0  0  0  0  0  0  0  0  0  0  # atno 8008 bound_to 7997
  155.9087  140.1046  157.1317 H   0  0  0  0  0  0  0  0  0  0  0  0  # atno 8009 bound_to 7997
  154.4053  140.1272  156.4516 H   0  0  0  0  0  0  0  0  0  0  0  0  # atno 8010 bound_to 7997
  140.6724  143.7013  150.7950 H   0  0  0  0  0  0  0  0  0  0  0  0  # atno 10167 bound_to 10162
  156.3476  130.4303  149.7732 H   0  0  0  0  0  0  0  0  0  0  0  0  # atno 10718 bound_to 10713
  153.7107  135.6951  153.5038 H   0  0  0  0  0  0  0  0  0  0  0  0  # atno 10763 bound_to 10752
  153.2275  135.4349  155.0557 H   0  0  0  0  0  0  0  0  0  0  0  0  # atno 10764 bound_to 10752
  154.8316  135.3476  154.6643 H   0  0  0  0  0  0  0  0  0  0  0  0  # atno 10765 bound_to 10752
  139.9571  134.7126  156.0729 H   0  0  0  0  0  0  0  0  0  0  0  0  # atno 11005 bound_to 11000
  145.9278  139.2586  143.1343 LP  0  0  0  0  0  0  0  0  0  0  0  0  # atno 17320 bound_to 7965
  145.9554  140.8876  143.0238 LP  0  0  0  0  0  0  0  0  0  0  0  0  # atno 17321 bound_to 7965
  140.0700  143.5070  152.2584 LP  0  0  0  0  0  0  0  0  0  0  0  0  # atno 17342 bound_to 10162
  139.5998  144.7579  151.3199 LP  0  0  0  0  0  0  0  0  0  0  0  0  # atno 17343 bound_to 10162
  156.4945  130.8100  151.3108 LP  0  0  0  0  0  0  0  0  0  0  0  0  # atno 17370 bound_to 10713
  157.7456  130.9964  150.2780 LP  0  0  0  0  0  0  0  0  0  0  0  0  # atno 17371 bound_to 10713
  141.1243  133.6603  156.3297 LP  0  0  0  0  0  0  0  0  0  0  0  0  # atno 17394 bound_to 11000
  140.5585  134.5957  157.5427 LP  0  0  0  0  0  0  0  0  0  0  0  0  # atno 17395 bound_to 11000

$$$$
