AV-unprocessed.smi:2243|AV-procd|sdf|9068|dock1
  -GOLD-   2272012273D 1   1.00000     0.00000
 Structure written by MMmdl.
 34 35  0  0  0  0  0  0  0  0  1 V2000
  150.3238  144.7131  159.6339 C   0  0  0  0  0  0  0  0  0  0  0  0
  151.6077  143.9751  159.2173 C   0  0  2  0  0  0  0  0  0  0  0  0
  151.3778  143.3804  157.8997 N   0  0  0  0  0  0  0  0  0  0  0  0
  150.7725  142.2098  157.6442 C   0  0  0  0  0  0  0  0  0  0  0  0
  150.3301  141.4951  158.5492 O   0  0  0  0  0  0  0  0  0  0  0  0
  150.7386  141.9867  156.2749 N   0  0  0  0  0  0  0  0  0  0  0  0
  150.5777  140.7842  155.8131 C   0  0  0  0  0  0  0  0  0  0  0  0
  150.4180  139.5441  156.4258 N   0  0  0  0  0  0  0  0  0  0  0  0
  150.2877  138.5985  155.4476 C   0  0  0  0  0  0  0  0  0  0  0  0
  150.3609  139.2114  154.2701 C   0  0  0  0  0  0  0  0  0  0  0  0
  150.5387  140.5487  154.4618 O   0  0  0  0  0  0  0  0  0  0  0  0
  152.0493  142.8880  160.2331 C   0  0  0  0  0  0  0  0  0  0  0  0
  152.2543  143.4514  161.6541 C   0  0  0  0  0  0  0  0  0  0  0  0
  152.7642  142.3677  162.6182 C   0  0  0  0  0  0  0  0  0  0  0  0
  153.9725  141.8039  162.1243 O   0  0  0  0  0  0  0  0  0  0  0  0
  153.8012  141.1563  160.8700 C   0  0  0  0  0  0  0  0  0  0  0  0
  153.3512  142.1740  159.8100 C   0  0  0  0  0  0  0  0  0  0  0  0
  150.4682  145.2947  160.5437 H   0  0  0  0  0  0  0  0  0  0  0  0
  149.5028  144.0164  159.8065 H   0  0  0  0  0  0  0  0  0  0  0  0
  150.0072  145.4130  158.8597 H   0  0  0  0  0  0  0  0  0  0  0  0
  152.4029  144.7197  159.1552 H   0  0  0  0  0  0  0  0  0  0  0  0
  151.7098  143.9105  157.1069 H   0  0  0  0  0  0  0  0  0  0  0  0
  150.3975  139.3331  157.4134 H   0  0  0  0  0  0  0  0  0  0  0  0
  150.1527  137.5585  155.7059 H   0  0  0  0  0  0  0  0  0  0  0  0
  150.3075  138.8538  153.2525 H   0  0  0  0  0  0  0  0  0  0  0  0
  151.2611  142.1348  160.2837 H   0  0  0  0  0  0  0  0  0  0  0  0
  152.9686  144.2751  161.6260 H   0  0  0  0  0  0  0  0  0  0  0  0
  151.3232  143.8578  162.0477 H   0  0  0  0  0  0  0  0  0  0  0  0
  152.9557  142.8017  163.5996 H   0  0  0  0  0  0  0  0  0  0  0  0
  152.0151  141.5866  162.7573 H   0  0  0  0  0  0  0  0  0  0  0  0
  154.7488  140.7047  160.5758 H   0  0  0  0  0  0  0  0  0  0  0  0
  153.0776  140.3447  160.9620 H   0  0  0  0  0  0  0  0  0  0  0  0
  153.2198  141.6567  158.8595 H   0  0  0  0  0  0  0  0  0  0  0  0
  154.1415  142.9100  159.6561 H   0  0  0  0  0  0  0  0  0  0  0  0
  1  2  1  0  0  0  0
  1 18  1  0  0  0  0
  1 19  1  0  0  0  0
  1 20  1  0  0  0  0
  2  3  1  0  0  0  0
  2 12  1  0  0  0  0
  2 21  1  0  0  0  0
  3 22  1  0  0  0  0
  3  4  1  0  0  0  0
  4  6  1  0  0  0  0
  4  5  2  0  0  0  0
  6  7  2  0  0  0  0
  7 11  1  0  0  0  0
  7  8  1  0  0  0  0
  8 23  1  0  0  0  0
  8  9  1  0  0  0  0
  9 24  1  0  0  0  0
  9 10  2  0  0  0  0
 10 25  1  0  0  0  0
 10 11  1  0  0  0  0
 12 17  1  0  0  0  0
 12 13  1  0  0  0  0
 12 26  1  0  0  0  0
 13 14  1  0  0  0  0
 13 27  1  0  0  0  0
 13 28  1  0  0  0  0
 14 15  1  0  0  0  0
 14 29  1  0  0  0  0
 14 30  1  0  0  0  0
 15 16  1  0  0  0  0
 16 17  1  0  0  0  0
 16 31  1  0  0  0  0
 16 32  1  0  0  0  0
 17 33  1  0  0  0  0
 17 34  1  0  0  0  0
M  END
> <s_m_source_file>
AV-unprocessed.smi

> <i_m_source_file_index>
2243

> <i_lp_mmshare_version>
43012

> <i_f3d_flags>
0

> <s_epik_input>
W0NIMl0xW0NIMl1PW0NIMl1bQ0gyXVtDSF0xW0NASF0oW0NIM10pW05IXUMoPU8pW05IXWMybltjSF1bY0hdbzI=

> <s_epik_cmdline>
J2VwaWtfcHl0aG9uJywgJy1waCcsICc3LjAnLCAnLXRuJywgJzgnLCAnLW1hJywgJzIwMCcsICctbWV0YWxfYmluZGluZycsICctaW1hZScsICc8aW5maWxlLm1hZT4nLCAnLW9tYWUnLCAnPG91dGZpbGUubWFlPic=

> <r_lp_tautomer_probability>
0.107061

> <r_epik_Ionization_Penalty>
1.44639

> <r_epik_Ionization_Penalty_Charging>
1.44602

> <r_epik_Ionization_Penalty_Neutral>
0.000368208

> <r_epik_State_Penalty>
2.61815

> <r_epik_Charging_Adjusted_Penalty>
4.06418

> <i_epik_Tot_Q>
0

> <i_epik_Tot_abs_Q>
0

> <r_epik_Metal_State_Penalty>
3.54171

> <b_epik_Metal_Only>
0

> <s_lp_Force_Field>
OPLS_2005

> <r_lp_Energy>
34.9147

> <b_lp_Chiralities_Consistent>
1

> <s_lp_Variant>
AV-unprocessed.smi:2243-7

> <Gold.Version>
5.8.1

> <Gold.Id.Protein>
6NUR|6NUR_protein|mol2

> <Gold.PLP.Fitness>
44.8694

> <Gold.PLP.PLP>
-39.8463

> <Gold.PLP.part.hbond>
-1.8689

> <Gold.PLP.part.metal>
0.0000

> <Gold.PLP.part.buried>
-5.2365

> <Gold.PLP.part.nonpolar>
-32.4183

> <Gold.PLP.part.repulsive>
0.2756

> <Gold.PLP.ligand.clash>
0.0000

> <Gold.PLP.ligand.torsion>
0.3949

> <Gold.PLP.Chemscore.Hbond>
0.9280

> <Gold.PLP.Chemscore.CHOScore>
1.0000

> <Gold.PLP.Chemscore.Metal>
0.0000

> <Gold.Chemscore.Hbonds>
donor molecule, donor type, donor heavy atom, donor atom, acceptor molecule, acceptor atom, score
      P1  H  7989  7998       L1    11  0.87
      L1  C    10    25       P1  7957  1.00

> <Gold.PLP.Chemscore.Internal.Correction>
0.0289

> <Gold.Rescore>
     Score         DG    S(hbond)    S(metal)    S(lipo)     H(rot)  DE(clash)    DE(int)     intcor
     13.75     -15.35       0.94        0.00      86.50       1.32       0.00       1.59       ----

> <Gold.Chemscore.Fitness>
13.7536

> <Gold.Chemscore.DG>
-15.3464

> <Gold.Chemscore.ZeroCoef>
-5.4800

> <Gold.Chemscore.Hbond>
0.9357

> <Gold.Chemscore.Metal>
0.0000

> <Gold.Chemscore.Lipo>
86.4991

> <Gold.Chemscore.Internal_Hbond>
0.0000

> <Gold.Chemscore.DEClash>
0.0000

> <Gold.Chemscore.DEInternal>
1.5928

> <Gold.Chemscore.Rot>
1.3201

> <Gold.Chemscore.Internal.Correction>
   9.000000E+99

> <Gold.Chemscore.Hbonds>
donor molecule, donor type, donor heavy atom, donor atom, acceptor molecule, acceptor atom, score
      P1  H  7989  7998       L1    11  0.32

> <Gold.Chemscore.Hbond.Weighted>
-3.1254

> <Gold.Chemscore.Metal.Weighted>
-0.0000

> <Gold.Chemscore.Lipo.Weighted>
-10.1204

> <Gold.Chemscore.Internal_Hbond.Weighted>
0.0000

> <Gold.Chemscore.DEClash.Weighted>
0.0000

> <Gold.Chemscore.DEInternal.Weighted>
1.5928

> <Gold.Chemscore.Rot.Weighted>
3.3794

> <Gold.Chemscore.Internal.Correction.Weighted>
   9.000000E+99

> <Gold.Protein.RotatedTorsions>
[ 6907 6896 6895 6894 ] final   92.10 input  -60.11 | X-H torsion
[ 7974 7965 7964 7962 ] final  -32.40 input  175.53 | X-H torsion
[ 8008 7997 7996 7995 ] final  -45.74 input   59.86 | X-H torsion
[ 10167 10162 10161 10158 ] final   68.53 input  -65.29 | X-H torsion
[ 10718 10713 10712 10709 ] final  170.91 input   66.30 | X-H torsion
[ 10763 10752 10751 10750 ] final  -48.33 input  -60.55 | X-H torsion
[ 11005 11000 10999 10996 ] final  126.28 input  -57.11 | X-H torsion

> <Gold.Protein.ActiveResidues>
 VAL166  LYS551  ARG553  GLY616  TRP617  ASP618  TYR619  PRO620  LYS621  CYS622 
 ASP623  PHE694  ASN695  SER759  ASP760  ASP761  ALA762  ILE779  LEU786  VAL792 
 PHE793  MET794  SER795  GLU796  ALA797  LYS798  CYS799  TRP800  GLU811  SER814 

> <Gold.Protein.RotatedAtoms>
  152.5452  134.1554  159.8535 H   0  0  0  0  0  0  0  0  0  0  0  0  # atno 6907 bound_to 6896
  151.1577  133.4858  159.2602 H   0  0  0  0  0  0  0  0  0  0  0  0  # atno 6908 bound_to 6896
  151.1406  135.0188  159.8679 H   0  0  0  0  0  0  0  0  0  0  0  0  # atno 6909 bound_to 6896
  146.0992  140.5788  142.8828 H   0  0  0  0  0  0  0  0  0  0  0  0  # atno 7974 bound_to 7965
  154.4002  140.1389  156.3896 H   0  0  0  0  0  0  0  0  0  0  0  0  # atno 8008 bound_to 7997
  155.7927  140.3478  155.5337 H   0  0  0  0  0  0  0  0  0  0  0  0  # atno 8009 bound_to 7997
  155.8563  140.0949  157.1632 H   0  0  0  0  0  0  0  0  0  0  0  0  # atno 8010 bound_to 7997
  140.0777  144.5098  150.7183 H   0  0  0  0  0  0  0  0  0  0  0  0  # atno 10167 bound_to 10162
  157.0013  131.0177  151.2830 H   0  0  0  0  0  0  0  0  0  0  0  0  # atno 10718 bound_to 10713
  154.0760  135.6598  153.4831 H   0  0  0  0  0  0  0  0  0  0  0  0  # atno 10763 bound_to 10752
  153.0373  135.5168  154.7520 H   0  0  0  0  0  0  0  0  0  0  0  0  # atno 10764 bound_to 10752
  154.6600  135.3013  154.9846 H   0  0  0  0  0  0  0  0  0  0  0  0  # atno 10765 bound_to 10752
  139.9448  134.9631  156.8684 H   0  0  0  0  0  0  0  0  0  0  0  0  # atno 11005 bound_to 11000
  144.7419  140.4966  143.6863 LP  0  0  0  0  0  0  0  0  0  0  0  0  # atno 17320 bound_to 7965
  145.5887  139.1494  143.3194 LP  0  0  0  0  0  0  0  0  0  0  0  0  # atno 17321 bound_to 7965
  140.7094  143.2493  151.4629 LP  0  0  0  0  0  0  0  0  0  0  0  0  # atno 17342 bound_to 10162
  139.5798  144.1736  152.1953 LP  0  0  0  0  0  0  0  0  0  0  0  0  # atno 17343 bound_to 10162
  157.5388  130.8106  149.8004 LP  0  0  0  0  0  0  0  0  0  0  0  0  # atno 17370 bound_to 10713
  156.0170  130.3810  150.2079 LP  0  0  0  0  0  0  0  0  0  0  0  0  # atno 17371 bound_to 10713
  140.5861  134.0306  155.7482 LP  0  0  0  0  0  0  0  0  0  0  0  0  # atno 17394 bound_to 11000
  141.1095  133.9639  157.2936 LP  0  0  0  0  0  0  0  0  0  0  0  0  # atno 17395 bound_to 11000

$$$$
