AV-unprocessed.smi:2224|AV-procd|sdf|8991|dock7
  -GOLD-   2272012203D 1   1.00000     0.00000
 Structure written by MMmdl.
 44 46  0  0  0  0  0  0  0  0  1 V2000
  153.4917  141.3027  160.6994 C   0  0  0  0  0  0  0  0  0  0  0  0
  152.7258  142.4351  160.0484 C   0  0  0  0  0  0  0  0  0  0  0  0
  152.7995  143.7462  160.5567 C   0  0  0  0  0  0  0  0  0  0  0  0
  152.0610  144.7539  159.9055 C   0  0  0  0  0  0  0  0  0  0  0  0
  152.0963  146.1864  160.3954 C   0  0  0  0  0  0  0  0  0  0  0  0
  151.2893  144.5190  158.8225 N   0  0  0  0  0  0  0  0  0  0  0  0
  151.2099  143.2597  158.3257 C   0  0  0  0  0  0  0  0  0  0  0  0
  150.4286  142.9066  157.1940 N   0  0  0  0  0  0  0  0  0  0  0  0
  150.5565  141.8312  156.3974 C   0  0  0  0  0  0  0  0  0  0  0  0
  151.4055  140.9477  156.5205 O   0  0  0  0  0  0  0  0  0  0  0  0
  149.6340  141.8380  155.4258 N   0  0  0  0  0  0  0  0  0  0  0  0
  149.5196  140.8223  154.3859 C   0  0  2  0  0  0  0  0  0  0  0  0
  148.0740  140.3755  154.1662 C   0  0  1  0  0  0  0  0  0  0  0  0
  147.0984  140.5013  153.0509 C   0  0  0  0  0  0  0  0  0  0  0  0
  146.6009  139.0308  153.0371 C   0  0  0  0  0  0  0  0  0  0  0  0
  147.5069  138.2963  153.8967 O   0  0  0  0  0  0  0  0  0  0  0  0
  148.7071  139.0390  153.8326 C   0  0  2  0  0  0  0  0  0  0  0  0
  149.7771  139.3544  154.8974 C   0  0  0  0  0  0  0  0  0  0  0  0
  151.1698  138.7953  154.6047 C   0  0  0  0  0  0  0  0  0  0  0  0
  149.4628  138.9895  156.3627 C   0  0  0  0  0  0  0  0  0  0  0  0
  151.9220  142.1921  158.9168 C   0  0  0  0  0  0  0  0  0  0  0  0
  154.0208  141.6412  161.5907 H   0  0  0  0  0  0  0  0  0  0  0  0
  154.2232  140.8928  160.0027 H   0  0  0  0  0  0  0  0  0  0  0  0
  152.8096  140.5037  160.9914 H   0  0  0  0  0  0  0  0  0  0  0  0
  153.4054  143.9733  161.4219 H   0  0  0  0  0  0  0  0  0  0  0  0
  152.6695  146.2754  161.3187 H   0  0  0  0  0  0  0  0  0  0  0  0
  151.0855  146.5481  160.5869 H   0  0  0  0  0  0  0  0  0  0  0  0
  152.5560  146.8302  159.6452 H   0  0  0  0  0  0  0  0  0  0  0  0
  149.6949  143.5565  156.9545 H   0  0  0  0  0  0  0  0  0  0  0  0
  148.9716  142.5991  155.3974 H   0  0  0  0  0  0  0  0  0  0  0  0
  150.0380  141.0728  153.4557 H   0  0  0  0  0  0  0  0  0  0  0  0
  147.5316  140.3673  155.1146 H   0  0  0  0  0  0  0  0  0  0  0  0
  146.2992  141.2117  153.2640 H   0  0  0  0  0  0  0  0  0  0  0  0
  147.5828  140.7785  152.1135 H   0  0  0  0  0  0  0  0  0  0  0  0
  145.5834  138.9411  153.4185 H   0  0  0  0  0  0  0  0  0  0  0  0
  146.6206  138.6236  152.0254 H   0  0  0  0  0  0  0  0  0  0  0  0
  149.1355  138.9922  152.8246 H   0  0  0  0  0  0  0  0  0  0  0  0
  151.1954  137.7102  154.7084 H   0  0  0  0  0  0  0  0  0  0  0  0
  151.9194  139.2097  155.2798 H   0  0  0  0  0  0  0  0  0  0  0  0
  151.4901  139.0297  153.5890 H   0  0  0  0  0  0  0  0  0  0  0  0
  149.4708  137.9089  156.5077 H   0  0  0  0  0  0  0  0  0  0  0  0
  148.4909  139.3406  156.7043 H   0  0  0  0  0  0  0  0  0  0  0  0
  150.2036  139.4108  157.0430 H   0  0  0  0  0  0  0  0  0  0  0  0
  151.8515  141.1931  158.5107 H   0  0  0  0  0  0  0  0  0  0  0  0
  1  2  1  0  0  0  0
  1 22  1  0  0  0  0
  1 23  1  0  0  0  0
  1 24  1  0  0  0  0
  2 21  1  0  0  0  0
  2  3  2  0  0  0  0
  3  4  1  0  0  0  0
  3 25  1  0  0  0  0
  4  5  1  0  0  0  0
  4  6  2  0  0  0  0
  5 26  1  0  0  0  0
  5 27  1  0  0  0  0
  5 28  1  0  0  0  0
  6  7  1  0  0  0  0
  7  8  1  0  0  0  0
  7 21  2  0  0  0  0
  8  9  1  0  0  0  0
  8 29  1  0  0  0  0
  9 10  2  0  0  0  0
  9 11  1  0  0  0  0
 11 12  1  0  0  0  0
 11 30  1  0  0  0  0
 12 18  1  0  0  0  0
 12 13  1  0  0  0  0
 12 31  1  0  0  0  0
 13 17  1  0  0  0  0
 13 14  1  0  0  0  0
 13 32  1  0  0  0  0
 14 15  1  0  0  0  0
 14 33  1  0  0  0  0
 14 34  1  0  0  0  0
 15 16  1  0  0  0  0
 15 35  1  0  0  0  0
 15 36  1  0  0  0  0
 16 17  1  0  0  0  0
 17 18  1  0  0  0  0
 17 37  1  0  0  0  0
 18 19  1  0  0  0  0
 18 20  1  0  0  0  0
 19 38  1  0  0  0  0
 19 39  1  0  0  0  0
 19 40  1  0  0  0  0
 20 41  1  0  0  0  0
 20 42  1  0  0  0  0
 20 43  1  0  0  0  0
 21 44  1  0  0  0  0
M  END
> <s_m_source_file>
AV-unprocessed.smi

> <i_m_source_file_index>
2224

> <i_lp_mmshare_version>
43012

> <i_f3d_flags>
0

> <s_epik_input>
W0NIM11jMVtjSF1jKFtDSDNdKW5jKFtjSF0xKVtOSF1DKD1PKVtOSF1bQ0BIXTJDKFtDSDNdKShbQ0gzXSlbQ0BIXShbQ0BASF0yMylPW0NIMl1bQ0gyXTM=

> <s_epik_cmdline>
J2VwaWtfcHl0aG9uJywgJy1waCcsICc3LjAnLCAnLXRuJywgJzgnLCAnLW1hJywgJzIwMCcsICctbWV0YWxfYmluZGluZycsICctaW1hZScsICc8aW5maWxlLm1hZT4nLCAnLW9tYWUnLCAnPG91dGZpbGUubWFlPic=

> <r_lp_tautomer_probability>
1

> <r_epik_Ionization_Penalty>
0.000276544

> <r_epik_Ionization_Penalty_Charging>
0

> <r_epik_Ionization_Penalty_Neutral>
0.000276544

> <r_epik_State_Penalty>
-0

> <r_epik_Charging_Adjusted_Penalty>
0

> <i_epik_Tot_Q>
0

> <i_epik_Tot_abs_Q>
0

> <r_epik_Metal_State_Penalty>
-0

> <b_epik_Metal_Only>
0

> <s_lp_Force_Field>
OPLS_2005

> <r_lp_Energy>
62.2425

> <b_lp_Chiralities_Consistent>
1

> <s_lp_Variant>
AV-unprocessed.smi:2224-1

> <Gold.Version>
5.8.1

> <Gold.Id.Protein>
6NUR|6NUR_protein|mol2

> <Gold.PLP.Fitness>
45.0785

> <Gold.PLP.PLP>
-40.7071

> <Gold.PLP.part.hbond>
-2.0000

> <Gold.PLP.part.metal>
0.0000

> <Gold.PLP.part.buried>
-1.3148

> <Gold.PLP.part.nonpolar>
-37.3488

> <Gold.PLP.part.repulsive>
0.4713

> <Gold.PLP.ligand.clash>
0.0363

> <Gold.PLP.ligand.torsion>
0.3323

> <Gold.PLP.Chemscore.Hbond>
1.6020

> <Gold.PLP.Chemscore.CHOScore>
0.0000

> <Gold.PLP.Chemscore.Metal>
0.0000

> <Gold.Chemscore.Hbonds>
donor molecule, donor type, donor heavy atom, donor atom, acceptor molecule, acceptor atom, score
      L1  H     8    29       P1  8028  0.99
      L1  H    11    30       P1  8028  0.61

> <Gold.PLP.Chemscore.Internal.Correction>
0.2664

> <Gold.Rescore>
     Score         DG    S(hbond)    S(metal)    S(lipo)     H(rot)  DE(clash)    DE(int)     intcor
     15.33     -21.48       1.38        0.00     119.20       1.00       0.53       5.62       ----

> <Gold.Chemscore.Fitness>
15.3327

> <Gold.Chemscore.DG>
-21.4822

> <Gold.Chemscore.ZeroCoef>
-5.4800

> <Gold.Chemscore.Hbond>
1.3820

> <Gold.Chemscore.Metal>
0.0000

> <Gold.Chemscore.Lipo>
119.1980

> <Gold.Chemscore.Internal_Hbond>
0.0000

> <Gold.Chemscore.DEClash>
0.5341

> <Gold.Chemscore.DEInternal>
5.6153

> <Gold.Chemscore.Rot>
1.0000

> <Gold.Chemscore.Internal.Correction>
   9.000000E+99

> <Gold.Chemscore.Hbonds>
donor molecule, donor type, donor heavy atom, donor atom, acceptor molecule, acceptor atom, score
      L1  H     8    29       P1  8028  0.92
      L1  H    11    30       P1  8028  0.61

> <Gold.Chemscore.Hbond.Weighted>
-4.6160

> <Gold.Chemscore.Metal.Weighted>
-0.0000

> <Gold.Chemscore.Lipo.Weighted>
-13.9462

> <Gold.Chemscore.Internal_Hbond.Weighted>
0.0000

> <Gold.Chemscore.DEClash.Weighted>
0.5341

> <Gold.Chemscore.DEInternal.Weighted>
5.6153

> <Gold.Chemscore.Rot.Weighted>
2.5600

> <Gold.Chemscore.Internal.Correction.Weighted>
   9.000000E+99

> <Gold.Protein.RotatedTorsions>
[ 6907 6896 6895 6894 ] final  140.56 input  -60.11 | X-H torsion
[ 7974 7965 7964 7962 ] final  -84.35 input  175.53 | X-H torsion
[ 8008 7997 7996 7995 ] final -168.83 input   59.86 | X-H torsion
[ 10167 10162 10161 10158 ] final  176.69 input  -65.29 | X-H torsion
[ 10718 10713 10712 10709 ] final  152.80 input   66.30 | X-H torsion
[ 10763 10752 10751 10750 ] final -112.32 input  -60.55 | X-H torsion
[ 11005 11000 10999 10996 ] final  171.58 input  -57.11 | X-H torsion

> <Gold.Protein.ActiveResidues>
 VAL166  LYS551  ARG553  GLY616  TRP617  ASP618  TYR619  PRO620  LYS621  CYS622 
 ASP623  PHE694  ASN695  SER759  ASP760  ASP761  ALA762  ILE779  LEU786  VAL792 
 PHE793  MET794  SER795  GLU796  ALA797  LYS798  CYS799  TRP800  GLU811  SER814 

> <Gold.Protein.RotatedAtoms>
  152.2416  133.5140  159.5272 H   0  0  0  0  0  0  0  0  0  0  0  0  # atno 6907 bound_to 6896
  150.7066  134.1082  159.3999 H   0  0  0  0  0  0  0  0  0  0  0  0  # atno 6908 bound_to 6896
  151.9002  135.0381  160.0556 H   0  0  0  0  0  0  0  0  0  0  0  0  # atno 6909 bound_to 6896
  145.5078  140.9542  143.1724 H   0  0  0  0  0  0  0  0  0  0  0  0  # atno 7974 bound_to 7965
  155.8967  140.1034  157.1379 H   0  0  0  0  0  0  0  0  0  0  0  0  # atno 8008 bound_to 7997
  154.4021  140.1300  156.4448 H   0  0  0  0  0  0  0  0  0  0  0  0  # atno 8009 bound_to 7997
  155.7470  140.3466  155.5134 H   0  0  0  0  0  0  0  0  0  0  0  0  # atno 8010 bound_to 7997
  139.5224  144.2886  152.0483 H   0  0  0  0  0  0  0  0  0  0  0  0  # atno 10167 bound_to 10162
  157.2531  131.0783  151.1717 H   0  0  0  0  0  0  0  0  0  0  0  0  # atno 10718 bound_to 10713
  154.8344  135.4495  154.1176 H   0  0  0  0  0  0  0  0  0  0  0  0  # atno 10763 bound_to 10752
  153.2421  135.6917  153.7778 H   0  0  0  0  0  0  0  0  0  0  0  0  # atno 10764 bound_to 10752
  153.7122  135.3355  155.3224 H   0  0  0  0  0  0  0  0  0  0  0  0  # atno 10765 bound_to 10752
  140.3205  134.7441  157.4060 H   0  0  0  0  0  0  0  0  0  0  0  0  # atno 11005 bound_to 11000
  144.7744  139.6663  143.7181 LP  0  0  0  0  0  0  0  0  0  0  0  0  # atno 17320 bound_to 7965
  146.2185  139.5593  142.9634 LP  0  0  0  0  0  0  0  0  0  0  0  0  # atno 17321 bound_to 7965
  140.2338  144.4341  150.6288 LP  0  0  0  0  0  0  0  0  0  0  0  0  # atno 17342 bound_to 10162
  140.6337  143.2191  151.6441 LP  0  0  0  0  0  0  0  0  0  0  0  0  # atno 17343 bound_to 10162
  157.3257  130.6959  149.6295 LP  0  0  0  0  0  0  0  0  0  0  0  0  # atno 17370 bound_to 10713
  155.9665  130.4322  150.4954 LP  0  0  0  0  0  0  0  0  0  0  0  0  # atno 17371 bound_to 10713
  140.0946  134.5555  155.8411 LP  0  0  0  0  0  0  0  0  0  0  0  0  # atno 17394 bound_to 11000
  141.2087  133.6677  156.6392 LP  0  0  0  0  0  0  0  0  0  0  0  0  # atno 17395 bound_to 11000

$$$$
