AV-unprocessed.smi:1205|AV-procd|sdf|5042|dock6
  -GOLD-   22720 4 63D 1   1.00000     0.00000
 Structure written by MMmdl.
 49 50  0  0  0  0  0  0  0  0  2 V2000
  154.0144  141.7263  160.5888 C   0  0  0  0  0  0  0  0  0  0  0  0
  153.0421  142.3939  159.6618 C   0  0  0  0  0  0  0  0  0  0  0  0
  151.8920  141.8276  159.0389 C   0  0  0  0  0  0  0  0  0  0  0  0
  151.3953  142.8763  158.3142 C   0  0  0  0  0  0  0  0  0  0  0  0
  150.3020  142.9162  157.5073 N   0  0  0  0  0  0  0  0  0  0  0  0
  149.3699  141.9682  157.3083 C   0  0  0  0  0  0  0  0  0  0  0  0
  149.3484  140.8602  157.8447 O   0  0  0  0  0  0  0  0  0  0  0  0
  148.4352  142.3824  156.4413 N   0  0  0  0  0  0  0  0  0  0  0  0
  147.2838  141.5929  156.0157 C   0  0  0  0  0  0  0  0  0  0  0  0
  146.0299  141.8519  156.8901 C   0  0  1  0  0  0  0  0  0  0  0  0
  145.3215  143.1736  156.5373 C   0  0  0  0  0  0  0  0  0  0  0  0
  145.0619  140.7169  156.8786 N   0  3  2  0  0  0  0  0  0  0  0  0
  144.4250  140.4936  155.5542 C   0  0  0  0  0  0  0  0  0  0  0  0
  143.6668  139.1566  155.5330 C   0  0  0  0  0  0  0  0  0  0  0  0
  142.6351  139.0872  156.6690 C   0  0  0  0  0  0  0  0  0  0  0  0
  143.2798  139.3903  158.0352 C   0  0  1  0  0  0  0  0  0  0  0  0
  144.1456  138.2308  158.5584 C   0  0  0  0  0  0  0  0  0  0  0  0
  144.0592  140.7201  157.9801 C   0  0  0  0  0  0  0  0  0  0  0  0
  152.2064  143.9730  158.5047 N   0  0  0  0  0  0  0  0  0  0  0  0
  152.0993  145.3073  157.9472 C   0  0  0  0  0  0  0  0  0  0  0  0
  153.2234  143.6699  159.3400 N   0  0  0  0  0  0  0  0  0  0  0  0
  153.7266  140.6933  160.7850 H   0  0  0  0  0  0  0  0  0  0  0  0
  154.0633  142.2444  161.5469 H   0  0  0  0  0  0  0  0  0  0  0  0
  155.0180  141.7156  160.1628 H   0  0  0  0  0  0  0  0  0  0  0  0
  151.5163  140.8189  159.1213 H   0  0  0  0  0  0  0  0  0  0  0  0
  150.1726  143.7814  157.0038 H   0  0  0  0  0  0  0  0  0  0  0  0
  148.5272  143.3068  156.0454 H   0  0  0  0  0  0  0  0  0  0  0  0
  147.0866  141.8556  154.9765 H   0  0  0  0  0  0  0  0  0  0  0  0
  147.5538  140.5360  156.0211 H   0  0  0  0  0  0  0  0  0  0  0  0
  146.3585  141.9645  157.9242 H   0  0  0  0  0  0  0  0  0  0  0  0
  145.9671  144.0310  156.7292 H   0  0  0  0  0  0  0  0  0  0  0  0
  144.4222  143.3093  157.1386 H   0  0  0  0  0  0  0  0  0  0  0  0
  145.0313  143.2147  155.4878 H   0  0  0  0  0  0  0  0  0  0  0  0
  143.7428  141.3131  155.3251 H   0  0  0  0  0  0  0  0  0  0  0  0
  145.1831  140.4835  154.7702 H   0  0  0  0  0  0  0  0  0  0  0  0
  143.1674  139.0287  154.5721 H   0  0  0  0  0  0  0  0  0  0  0  0
  144.3738  138.3311  155.6208 H   0  0  0  0  0  0  0  0  0  0  0  0
  141.8470  139.8163  156.4763 H   0  0  0  0  0  0  0  0  0  0  0  0
  142.1496  138.1107  156.6812 H   0  0  0  0  0  0  0  0  0  0  0  0
  142.4695  139.5160  158.7544 H   0  0  0  0  0  0  0  0  0  0  0  0
  145.0028  138.0381  157.9135 H   0  0  0  0  0  0  0  0  0  0  0  0
  143.5669  137.3091  158.6252 H   0  0  0  0  0  0  0  0  0  0  0  0
  144.5278  138.4492  159.5559 H   0  0  0  0  0  0  0  0  0  0  0  0
  144.5417  140.8968  158.9409 H   0  0  0  0  0  0  0  0  0  0  0  0
  143.3548  141.5391  157.8289 H   0  0  0  0  0  0  0  0  0  0  0  0
  151.0787  145.6736  158.0609 H   0  0  0  0  0  0  0  0  0  0  0  0
  152.3538  145.2812  156.8874 H   0  0  0  0  0  0  0  0  0  0  0  0
  152.7771  145.9923  158.4587 H   0  0  0  0  0  0  0  0  0  0  0  0
  145.6299  139.8961  157.0323 H   0  0  0  0  0  0  0  0  0  0  0  0
  1  2  1  0  0  0  0
  1 22  1  0  0  0  0
  1 23  1  0  0  0  0
  1 24  1  0  0  0  0
  2 21  2  0  0  0  0
  2  3  1  0  0  0  0
  3  4  2  0  0  0  0
  3 25  1  0  0  0  0
  4  5  1  0  0  0  0
  4 19  1  0  0  0  0
  5  6  1  0  0  0  0
  5 26  1  0  0  0  0
  6  7  2  0  0  0  0
  6  8  1  0  0  0  0
  8  9  1  0  0  0  0
  8 27  1  0  0  0  0
  9 10  1  0  0  0  0
  9 28  1  0  0  0  0
  9 29  1  0  0  0  0
 10 11  1  0  0  0  0
 10 12  1  0  0  0  0
 10 30  1  0  0  0  0
 11 31  1  0  0  0  0
 11 32  1  0  0  0  0
 11 33  1  0  0  0  0
 12 18  1  0  0  0  0
 12 13  1  0  0  0  0
 12 49  1  0  0  0  0
 13 14  1  0  0  0  0
 13 34  1  0  0  0  0
 13 35  1  0  0  0  0
 14 15  1  0  0  0  0
 14 36  1  0  0  0  0
 14 37  1  0  0  0  0
 15 16  1  0  0  0  0
 15 38  1  0  0  0  0
 15 39  1  0  0  0  0
 16 17  1  0  0  0  0
 16 18  1  0  0  0  0
 16 40  1  0  0  0  0
 17 41  1  0  0  0  0
 17 42  1  0  0  0  0
 17 43  1  0  0  0  0
 18 44  1  0  0  0  0
 18 45  1  0  0  0  0
 19 20  1  0  0  0  0
 19 21  1  0  0  0  0
 20 46  1  0  0  0  0
 20 47  1  0  0  0  0
 20 48  1  0  0  0  0
M  CHG  1  12   1
M  END
> <s_m_source_file>
AV-unprocessed.smi

> <i_m_source_file_index>
1205

> <i_lp_mmshare_version>
43012

> <i_f3d_flags>
0

> <s_epik_input>
W0NIM11jMVtjSF1jKG4objEpW0NIM10pW05IXUMoPU8pW05IXVtDSDJdW0NASF0oW0NIM10pTjJbQ0gyXVtDSDJdW0NIMl1bQ0BASF0oW0NIM10pW0NIMl0y

> <s_epik_cmdline>
J2VwaWtfcHl0aG9uJywgJy1waCcsICc3LjAnLCAnLXRuJywgJzgnLCAnLW1hJywgJzIwMCcsICctbWV0YWxfYmluZGluZycsICctaW1hZScsICc8aW5maWxlLm1hZT4nLCAnLW9tYWUnLCAnPG91dGZpbGUubWFlPic=

> <r_lp_tautomer_probability>
1

> <r_epik_Ionization_Penalty>
0.0020309

> <r_epik_Ionization_Penalty_Charging>
0.00195276

> <r_epik_Ionization_Penalty_Neutral>
7.81448e-05

> <r_epik_State_Penalty>
0.00133177

> <r_epik_Charging_Adjusted_Penalty>
0.00328452

> <i_epik_Tot_Q>
1

> <i_epik_Tot_abs_Q>
1

> <r_epik_Metal_State_Penalty>
-0

> <b_epik_Metal_Only>
0

> <s_lp_Force_Field>
OPLS_2005

> <r_lp_Energy>
24.2005

> <b_lp_Chiralities_Consistent>
1

> <s_lp_Variant>
AV-unprocessed.smi:1205-4

> <Gold.Version>
5.8.1

> <Gold.Id.Protein>
6NUR|6NUR_protein|mol2

> <Gold.PLP.Fitness>
45.3868

> <Gold.PLP.PLP>
-40.5967

> <Gold.PLP.part.hbond>
-2.0000

> <Gold.PLP.part.metal>
0.0000

> <Gold.PLP.part.buried>
-2.8189

> <Gold.PLP.part.nonpolar>
-36.3464

> <Gold.PLP.part.repulsive>
0.2637

> <Gold.PLP.ligand.clash>
0.0000

> <Gold.PLP.ligand.torsion>
0.5045

> <Gold.PLP.Chemscore.Hbond>
1.8960

> <Gold.PLP.Chemscore.CHOScore>
0.0000

> <Gold.PLP.Chemscore.Metal>
0.0000

> <Gold.Chemscore.Hbonds>
donor molecule, donor type, donor heavy atom, donor atom, acceptor molecule, acceptor atom, score
      L1  H     5    26       P1  8028  0.79
      L1  H     8    27       P1  8028  0.93

> <Gold.PLP.Chemscore.Internal.Correction>
0.1112

> <Gold.Rescore>
     Score         DG    S(hbond)    S(metal)    S(lipo)     H(rot)  DE(clash)    DE(int)     intcor
     15.95     -17.79       1.76        0.00      86.93       1.47       0.39       1.45       ----

> <Gold.Chemscore.Fitness>
15.9480

> <Gold.Chemscore.DG>
-17.7915

> <Gold.Chemscore.ZeroCoef>
-5.4800

> <Gold.Chemscore.Hbond>
1.7646

> <Gold.Chemscore.Metal>
0.0000

> <Gold.Chemscore.Lipo>
86.9253

> <Gold.Chemscore.Internal_Hbond>
0.0000

> <Gold.Chemscore.DEClash>
0.3926

> <Gold.Chemscore.DEInternal>
1.4510

> <Gold.Chemscore.Rot>
1.4658

> <Gold.Chemscore.Internal.Correction>
   9.000000E+99

> <Gold.Chemscore.Hbonds>
donor molecule, donor type, donor heavy atom, donor atom, acceptor molecule, acceptor atom, score
      L1  H     5    26       P1  8028  0.73
      L1  H     8    27       P1  8028  0.82

> <Gold.Chemscore.Hbond.Weighted>
-5.8939

> <Gold.Chemscore.Metal.Weighted>
-0.0000

> <Gold.Chemscore.Lipo.Weighted>
-10.1703

> <Gold.Chemscore.Internal_Hbond.Weighted>
0.0000

> <Gold.Chemscore.DEClash.Weighted>
0.3926

> <Gold.Chemscore.DEInternal.Weighted>
1.4510

> <Gold.Chemscore.Rot.Weighted>
3.7526

> <Gold.Chemscore.Internal.Correction.Weighted>
   9.000000E+99

> <Gold.Protein.RotatedTorsions>
[ 6907 6896 6895 6894 ] final -168.54 input  -60.11 | X-H torsion
[ 7974 7965 7964 7962 ] final  -75.10 input  175.53 | X-H torsion
[ 8008 7997 7996 7995 ] final   59.50 input   59.86 | X-H torsion
[ 10167 10162 10161 10158 ] final   22.86 input  -65.29 | X-H torsion
[ 10718 10713 10712 10709 ] final   -6.91 input   66.30 | X-H torsion
[ 10763 10752 10751 10750 ] final   33.73 input  -60.55 | X-H torsion
[ 11005 11000 10999 10996 ] final   93.23 input  -57.11 | X-H torsion

> <Gold.Protein.ActiveResidues>
 VAL166  LYS551  ARG553  GLY616  TRP617  ASP618  TYR619  PRO620  LYS621  CYS622 
 ASP623  PHE694  ASN695  SER759  ASP760  ASP761  ALA762  ILE779  LEU786  VAL792 
 PHE793  MET794  SER795  GLU796  ALA797  LYS798  CYS799  TRP800  GLU811  SER814 

> <Gold.Protein.RotatedAtoms>
  151.4772  133.3555  159.2832 H   0  0  0  0  0  0  0  0  0  0  0  0  # atno 6907 bound_to 6896
  150.8921  134.8328  159.7312 H   0  0  0  0  0  0  0  0  0  0  0  0  # atno 6908 bound_to 6896
  152.4829  134.4683  159.9679 H   0  0  0  0  0  0  0  0  0  0  0  0  # atno 6909 bound_to 6896
  145.6304  140.9339  143.1090 H   0  0  0  0  0  0  0  0  0  0  0  0  # atno 7974 bound_to 7965
  155.5671  140.3489  155.4506 H   0  0  0  0  0  0  0  0  0  0  0  0  # atno 8008 bound_to 7997
  156.0471  140.1309  157.0117 H   0  0  0  0  0  0  0  0  0  0  0  0  # atno 8009 bound_to 7997
  154.4417  140.1012  156.6307 H   0  0  0  0  0  0  0  0  0  0  0  0  # atno 8010 bound_to 7997
  140.5315  143.9833  150.6468 H   0  0  0  0  0  0  0  0  0  0  0  0  # atno 10167 bound_to 10162
  156.7250  130.5162  149.5859 H   0  0  0  0  0  0  0  0  0  0  0  0  # atno 10718 bound_to 10713
  153.0198  135.6379  154.1557 H   0  0  0  0  0  0  0  0  0  0  0  0  # atno 10763 bound_to 10752
  154.1292  135.2841  155.3191 H   0  0  0  0  0  0  0  0  0  0  0  0  # atno 10764 bound_to 10752
  154.6207  135.5526  153.7633 H   0  0  0  0  0  0  0  0  0  0  0  0  # atno 10765 bound_to 10752
  139.8813  134.8778  156.3687 H   0  0  0  0  0  0  0  0  0  0  0  0  # atno 11005 bound_to 11000
  144.7196  139.8077  143.7387 LP  0  0  0  0  0  0  0  0  0  0  0  0  # atno 17320 bound_to 7965
  146.1361  139.4407  143.0138 LP  0  0  0  0  0  0  0  0  0  0  0  0  # atno 17321 bound_to 7965
  140.3210  143.3137  152.0784 LP  0  0  0  0  0  0  0  0  0  0  0  0  # atno 17342 bound_to 10162
  139.4956  144.6574  151.6542 LP  0  0  0  0  0  0  0  0  0  0  0  0  # atno 17343 bound_to 10162
  156.1568  130.6347  151.0667 LP  0  0  0  0  0  0  0  0  0  0  0  0  # atno 17370 bound_to 10713
  157.6882  131.0818  150.7182 LP  0  0  0  0  0  0  0  0  0  0  0  0  # atno 17371 bound_to 10713
  140.9479  133.7470  156.0233 LP  0  0  0  0  0  0  0  0  0  0  0  0  # atno 17394 bound_to 11000
  140.8141  134.3365  157.5402 LP  0  0  0  0  0  0  0  0  0  0  0  0  # atno 17395 bound_to 11000

$$$$
