AV-unprocessed.smi:686|AV-procd|sdf|3347|dock8
  -GOLD-   22720 0323D 1   1.00000     0.00000
 Structure written by MMmdl.
 40 41  0  0  0  0  0  0  0  0  3 V2000
  150.6199  139.2605  155.7710 C   0  0  0  0  0  0  0  0  0  0  0  0
  149.6745  138.2921  155.0341 C   0  0  2  0  0  0  0  0  0  0  0  0
  148.8248  138.9739  153.9598 C   0  0  0  0  0  0  0  0  0  0  0  0
  147.7232  138.0254  153.6859 N   0  3  2  0  0  0  0  0  0  0  0  0
  146.5203  138.6050  153.0231 C   0  0  0  0  0  0  0  0  0  0  0  0
  145.3898  137.5642  152.9142 C   0  0  0  0  0  0  0  0  0  0  0  0
  146.8513  139.1540  151.6223 C   0  0  0  0  0  0  0  0  0  0  0  0
  147.4595  137.2900  154.9485 C   0  0  0  0  0  0  0  0  0  0  0  0
  148.6200  137.5997  155.9133 C   0  0  1  0  0  0  0  0  0  0  0  0
  149.1556  136.3918  156.5294 N   0  5  0  0  0  0  0  0  0  0  0  0
  148.4237  135.6928  157.8044 S   0  0  0  0  0  0  0  0  0  0  0  0
  146.9984  135.3963  157.5779 O   0  0  0  0  0  0  0  0  0  0  0  0
  149.2431  134.5985  158.3461 O   0  0  0  0  0  0  0  0  0  0  0  0
  148.4861  137.0345  159.0780 C   0  0  0  0  0  0  0  0  0  0  0  0
  147.9443  136.5304  160.3868 C   0  0  0  0  0  0  0  0  0  0  0  0
  147.9377  135.1997  160.8905 C   0  0  0  0  0  0  0  0  0  0  0  0
  147.3248  135.3201  162.1040 C   0  0  0  0  0  0  0  0  0  0  0  0
  146.9710  136.6100  162.3316 O   0  0  0  0  0  0  0  0  0  0  0  0
  147.3675  137.3744  161.2285 N   0  0  0  0  0  0  0  0  0  0  0  0
  150.0806  140.0684  156.2692 H   0  0  0  0  0  0  0  0  0  0  0  0
  151.3141  139.7223  155.0687 H   0  0  0  0  0  0  0  0  0  0  0  0
  151.2207  138.7459  156.5231 H   0  0  0  0  0  0  0  0  0  0  0  0
  150.2795  137.5306  154.5370 H   0  0  0  0  0  0  0  0  0  0  0  0
  148.4230  139.9266  154.3160 H   0  0  0  0  0  0  0  0  0  0  0  0
  149.4059  139.1768  153.0595 H   0  0  0  0  0  0  0  0  0  0  0  0
  146.1641  139.4349  153.6356 H   0  0  0  0  0  0  0  0  0  0  0  0
  144.5195  137.9846  152.4095 H   0  0  0  0  0  0  0  0  0  0  0  0
  145.0519  137.2198  153.8915 H   0  0  0  0  0  0  0  0  0  0  0  0
  145.7102  136.6903  152.3458 H   0  0  0  0  0  0  0  0  0  0  0  0
  145.9546  139.5317  151.1300 H   0  0  0  0  0  0  0  0  0  0  0  0
  147.2766  138.3796  150.9829 H   0  0  0  0  0  0  0  0  0  0  0  0
  147.5588  139.9821  151.6639 H   0  0  0  0  0  0  0  0  0  0  0  0
  146.5192  137.6020  155.4056 H   0  0  0  0  0  0  0  0  0  0  0  0
  147.3735  136.2267  154.7185 H   0  0  0  0  0  0  0  0  0  0  0  0
  148.2677  138.3196  156.6532 H   0  0  0  0  0  0  0  0  0  0  0  0
  149.5227  137.3578  159.1782 H   0  0  0  0  0  0  0  0  0  0  0  0
  147.9053  137.8851  158.7239 H   0  0  0  0  0  0  0  0  0  0  0  0
  148.3289  134.3017  160.4357 H   0  0  0  0  0  0  0  0  0  0  0  0
  147.0769  134.6149  162.8834 H   0  0  0  0  0  0  0  0  0  0  0  0
  148.1091  137.3403  153.0523 H   0  0  0  0  0  0  0  0  0  0  0  0
  1  2  1  0  0  0  0
  1 20  1  0  0  0  0
  1 21  1  0  0  0  0
  1 22  1  0  0  0  0
  2  9  1  0  0  0  0
  2  3  1  0  0  0  0
  2 23  1  0  0  0  0
  3  4  1  0  0  0  0
  3 24  1  0  0  0  0
  3 25  1  0  0  0  0
  4  5  1  0  0  0  0
  4  8  1  0  0  0  0
  4 40  1  0  0  0  0
  5  6  1  0  0  0  0
  5  7  1  0  0  0  0
  5 26  1  0  0  0  0
  6 27  1  0  0  0  0
  6 28  1  0  0  0  0
  6 29  1  0  0  0  0
  7 30  1  0  0  0  0
  7 31  1  0  0  0  0
  7 32  1  0  0  0  0
  8  9  1  0  0  0  0
  8 33  1  0  0  0  0
  8 34  1  0  0  0  0
  9 10  1  0  0  0  0
  9 35  1  0  0  0  0
 10 11  1  0  0  0  0
 11 12  2  0  0  0  0
 11 13  2  0  0  0  0
 11 14  1  0  0  0  0
 14 15  1  0  0  0  0
 14 36  1  0  0  0  0
 14 37  1  0  0  0  0
 15 19  2  0  0  0  0
 15 16  1  0  0  0  0
 16 17  2  0  0  0  0
 16 38  1  0  0  0  0
 17 18  1  0  0  0  0
 17 39  1  0  0  0  0
 18 19  1  0  0  0  0
M  CHG  1   4   1
M  CHG  1  10  -1
M  END
> <s_m_source_file>
AV-unprocessed.smi

> <i_m_source_file_index>
686

> <i_lp_mmshare_version>
43012

> <i_f3d_flags>
0

> <s_epik_input>
W0NIM11bQ0BASF0xW0NIMl1OKFtDSF0oW0NIM10pW0NIM10pW0NIMl1bQ0BIXTFbTkhdUyg9TykoPU8pW0NIMl1jMltjSF1bY0hdb24y

> <s_epik_cmdline>
J2VwaWtfcHl0aG9uJywgJy1waCcsICc3LjAnLCAnLXRuJywgJzgnLCAnLW1hJywgJzIwMCcsICctbWV0YWxfYmluZGluZycsICctaW1hZScsICc8aW5maWxlLm1hZT4nLCAnLW9tYWUnLCAnPG91dGZpbGUubWFlPic=

> <r_epik_Ionization_Penalty>
3.62478

> <r_epik_Ionization_Penalty_Charging>
3.62478

> <r_epik_Ionization_Penalty_Neutral>
2.03645e-10

> <r_epik_State_Penalty>
3.6247

> <r_epik_Charging_Adjusted_Penalty>
7.24949

> <i_epik_Tot_Q>
0

> <i_epik_Tot_abs_Q>
2

> <r_epik_Metal_State_Penalty>
0.530836

> <b_epik_Metal_Only>
1

> <s_lp_Force_Field>
OPLS_2005

> <r_lp_Energy>
16.7108

> <b_lp_Chiralities_Consistent>
1

> <s_lp_Variant>
AV-unprocessed.smi:686-11

> <Gold.Version>
5.8.1

> <Gold.Id.Protein>
6NUR|6NUR_protein|mol2

> <Gold.PLP.Fitness>
38.8140

> <Gold.PLP.PLP>
-25.7230

> <Gold.PLP.part.hbond>
-4.0000

> <Gold.PLP.part.metal>
0.0000

> <Gold.PLP.part.buried>
-1.6647

> <Gold.PLP.part.nonpolar>
-20.0128

> <Gold.PLP.part.repulsive>
0.0251

> <Gold.PLP.ligand.clash>
0.0000

> <Gold.PLP.ligand.torsion>
1.2521

> <Gold.PLP.Chemscore.Hbond>
4.8484

> <Gold.PLP.Chemscore.CHOScore>
0.0000

> <Gold.PLP.Chemscore.Metal>
0.0000

> <Gold.Chemscore.Hbonds>
donor molecule, donor type, donor heavy atom, donor atom, acceptor molecule, acceptor atom, score
      L1  H     4    40       P1  7948  2.00
      P1  H  6896  6907       L1    13  1.00
      P1  H  6931  6943       L1    19  0.71
      P1  H  6934  6947       L1    19  0.99

> <Gold.PLP.Chemscore.Internal.Correction>
1.0499

> <Gold.Rescore>
     Score         DG    S(hbond)    S(metal)    S(lipo)     H(rot)  DE(clash)    DE(int)     intcor
     16.49     -19.02       3.06        0.00      63.73       1.61       0.13       2.40       ----

> <Gold.Chemscore.Fitness>
16.4868

> <Gold.Chemscore.DG>
-19.0201

> <Gold.Chemscore.ZeroCoef>
-5.4800

> <Gold.Chemscore.Hbond>
3.0591

> <Gold.Chemscore.Metal>
0.0000

> <Gold.Chemscore.Lipo>
63.7340

> <Gold.Chemscore.Internal_Hbond>
0.0000

> <Gold.Chemscore.DEClash>
0.1341

> <Gold.Chemscore.DEInternal>
2.3993

> <Gold.Chemscore.Rot>
1.6149

> <Gold.Chemscore.Internal.Correction>
   9.000000E+99

> <Gold.Chemscore.Hbonds>
donor molecule, donor type, donor heavy atom, donor atom, acceptor molecule, acceptor atom, score
      L1  H     4    40       P1  7948  1.00
      P1  H  6896  6907       L1    13  1.00
      P1  H  6931  6943       L1    19  0.05
      P1  H  6934  6947       L1    19  0.93

> <Gold.Chemscore.Hbond.Weighted>
-10.2174

> <Gold.Chemscore.Metal.Weighted>
-0.0000

> <Gold.Chemscore.Lipo.Weighted>
-7.4569

> <Gold.Chemscore.Internal_Hbond.Weighted>
0.0000

> <Gold.Chemscore.DEClash.Weighted>
0.1341

> <Gold.Chemscore.DEInternal.Weighted>
2.3993

> <Gold.Chemscore.Rot.Weighted>
4.1341

> <Gold.Chemscore.Internal.Correction.Weighted>
   9.000000E+99

> <Gold.Protein.RotatedTorsions>
[ 6907 6896 6895 6894 ] final  -90.14 input  -60.11 | X-H torsion
[ 7974 7965 7964 7962 ] final  -30.93 input  175.53 | X-H torsion
[ 8008 7997 7996 7995 ] final -148.34 input   59.86 | X-H torsion
[ 10167 10162 10161 10158 ] final  -18.77 input  -65.29 | X-H torsion
[ 10718 10713 10712 10709 ] final -135.18 input   66.30 | X-H torsion
[ 10763 10752 10751 10750 ] final  -27.68 input  -60.55 | X-H torsion
[ 11005 11000 10999 10996 ] final   21.89 input  -57.11 | X-H torsion

> <Gold.Protein.ActiveResidues>
 VAL166  LYS551  ARG553  GLY616  TRP617  ASP618  TYR619  PRO620  LYS621  CYS622 
 ASP623  PHE694  ASN695  SER759  ASP760  ASP761  ALA762  ILE779  LEU786  VAL792 
 PHE793  MET794  SER795  GLU796  ALA797  LYS798  CYS799  TRP800  GLU811  SER814 

> <Gold.Protein.RotatedAtoms>
  150.6879  134.2478  159.4497 H   0  0  0  0  0  0  0  0  0  0  0  0  # atno 6907 bound_to 6896
  152.0417  134.9705  160.0583 H   0  0  0  0  0  0  0  0  0  0  0  0  # atno 6908 bound_to 6896
  152.1204  133.4315  159.4709 H   0  0  0  0  0  0  0  0  0  0  0  0  # atno 6909 bound_to 6896
  146.1106  140.5602  142.8779 H   0  0  0  0  0  0  0  0  0  0  0  0  # atno 7974 bound_to 7965
  155.5900  140.0651  157.2761 H   0  0  0  0  0  0  0  0  0  0  0  0  # atno 8008 bound_to 7997
  154.4308  140.1837  156.1112 H   0  0  0  0  0  0  0  0  0  0  0  0  # atno 8009 bound_to 7997
  156.0240  140.3314  155.7072 H   0  0  0  0  0  0  0  0  0  0  0  0  # atno 8010 bound_to 7997
  140.7262  143.4884  151.0024 H   0  0  0  0  0  0  0  0  0  0  0  0  # atno 10167 bound_to 10162
  156.2634  130.7223  151.1165 H   0  0  0  0  0  0  0  0  0  0  0  0  # atno 10718 bound_to 10713
  153.7360  135.6935  153.4978 H   0  0  0  0  0  0  0  0  0  0  0  0  # atno 10763 bound_to 10752
  153.2102  135.4405  155.0370 H   0  0  0  0  0  0  0  0  0  0  0  0  # atno 10764 bound_to 10752
  154.8237  135.3435  154.6888 H   0  0  0  0  0  0  0  0  0  0  0  0  # atno 10765 bound_to 10752
  140.3866  134.1864  155.7663 H   0  0  0  0  0  0  0  0  0  0  0  0  # atno 11005 bound_to 11000
  144.7508  140.5186  143.6803 LP  0  0  0  0  0  0  0  0  0  0  0  0  # atno 17320 bound_to 7965
  145.5671  139.1482  143.3309 LP  0  0  0  0  0  0  0  0  0  0  0  0  # atno 17321 bound_to 7965
  139.8587  143.7343  152.3174 LP  0  0  0  0  0  0  0  0  0  0  0  0  # atno 17342 bound_to 10162
  139.7551  144.7523  151.0448 LP  0  0  0  0  0  0  0  0  0  0  0  0  # atno 17343 bound_to 10162
  157.7259  131.0650  150.5934 LP  0  0  0  0  0  0  0  0  0  0  0  0  # atno 17370 bound_to 10713
  156.6024  130.4358  149.5892 LP  0  0  0  0  0  0  0  0  0  0  0  0  # atno 17371 bound_to 10713
  141.1905  133.8215  157.0914 LP  0  0  0  0  0  0  0  0  0  0  0  0  # atno 17394 bound_to 11000
  140.0438  134.9840  157.1012 LP  0  0  0  0  0  0  0  0  0  0  0  0  # atno 17395 bound_to 11000

$$$$
