AV-unprocessed.smi:1622|AV-procd|sdf|6499|dock8
  -GOLD-   22720 7163D 1   1.00000     0.00000
 Structure written by MMmdl.
 40 41  0  0  0  0  0  0  0  0  3 V2000
  148.4402  130.5548  153.4790 C   0  0  0  0  0  0  0  0  0  0  0  0
  147.5444  131.7957  153.3410 C   0  0  0  0  0  0  0  0  0  0  0  0
  148.3126  133.1298  153.1327 C   0  0  2  0  0  0  0  0  0  0  0  0
  148.9052  133.6819  154.4532 C   0  0  0  0  0  0  0  0  0  0  0  0
  149.8268  134.7858  154.2140 N   0  0  0  0  0  0  0  0  0  0  0  0
  150.7156  135.2589  155.0966 C   0  0  0  0  0  0  0  0  0  0  0  0
  150.7877  134.7621  156.2228 O   0  0  0  0  0  0  0  0  0  0  0  0
  151.4665  136.2751  154.6166 N   0  5  0  0  0  0  0  0  0  0  0  0
  151.0708  137.5461  154.7977 C   0  0  0  0  0  0  0  0  0  0  0  0
  151.9394  138.5624  154.8960 N   0  0  0  0  0  0  0  0  0  0  0  0
  151.3212  139.7902  155.0848 N   0  0  0  0  0  0  0  0  0  0  0  0
  149.9915  139.6812  155.1358 C   0  0  0  0  0  0  0  0  0  0  0  0
  149.0949  140.8552  155.3332 C   0  0  0  0  0  0  0  0  0  0  0  0
  149.3864  138.0433  154.9557 S   0  0  0  0  0  0  0  0  0  0  0  0
  147.4606  134.1436  152.4443 N   0  3  0  0  0  0  0  0  0  0  0  0
  146.7738  133.6855  151.2171 C   0  0  0  0  0  0  0  0  0  0  0  0
  145.6480  134.6893  150.9973 C   0  0  0  0  0  0  0  0  0  0  0  0
  145.1837  135.0001  152.4153 C   0  0  0  0  0  0  0  0  0  0  0  0
  146.4254  134.7878  153.2926 C   0  0  0  0  0  0  0  0  0  0  0  0
  147.8357  129.6648  153.6550 H   0  0  0  0  0  0  0  0  0  0  0  0
  149.1336  130.6519  154.3142 H   0  0  0  0  0  0  0  0  0  0  0  0
  149.0225  130.3768  152.5748 H   0  0  0  0  0  0  0  0  0  0  0  0
  146.8555  131.6355  152.5112 H   0  0  0  0  0  0  0  0  0  0  0  0
  146.9017  131.8620  154.2182 H   0  0  0  0  0  0  0  0  0  0  0  0
  149.1526  132.9192  152.4685 H   0  0  0  0  0  0  0  0  0  0  0  0
  148.1186  134.0617  155.1055 H   0  0  0  0  0  0  0  0  0  0  0  0
  149.4090  132.8838  155.0009 H   0  0  0  0  0  0  0  0  0  0  0  0
  149.7974  135.2239  153.3049 H   0  0  0  0  0  0  0  0  0  0  0  0
  149.2777  141.3050  156.3092 H   0  0  0  0  0  0  0  0  0  0  0  0
  148.0500  140.5488  155.2795 H   0  0  0  0  0  0  0  0  0  0  0  0
  149.2799  141.6020  154.5608 H   0  0  0  0  0  0  0  0  0  0  0  0
  147.4493  133.6395  150.3623 H   0  0  0  0  0  0  0  0  0  0  0  0
  146.3547  132.6906  151.3780 H   0  0  0  0  0  0  0  0  0  0  0  0
  146.0426  135.5921  150.5294 H   0  0  0  0  0  0  0  0  0  0  0  0
  144.8499  134.3011  150.3637 H   0  0  0  0  0  0  0  0  0  0  0  0
  144.7717  136.0053  152.5066 H   0  0  0  0  0  0  0  0  0  0  0  0
  144.4038  134.2958  152.7075 H   0  0  0  0  0  0  0  0  0  0  0  0
  146.1628  134.1668  154.1501 H   0  0  0  0  0  0  0  0  0  0  0  0
  146.8107  135.7344  153.6729 H   0  0  0  0  0  0  0  0  0  0  0  0
  148.0773  134.8863  152.1471 H   0  0  0  0  0  0  0  0  0  0  0  0
  1  2  1  0  0  0  0
  1 20  1  0  0  0  0
  1 21  1  0  0  0  0
  1 22  1  0  0  0  0
  2  3  1  0  0  0  0
  2 23  1  0  0  0  0
  2 24  1  0  0  0  0
  3  4  1  0  0  0  0
  3 15  1  0  0  0  0
  3 25  1  0  0  0  0
  4  5  1  0  0  0  0
  4 26  1  0  0  0  0
  4 27  1  0  0  0  0
  5  6  1  0  0  0  0
  5 28  1  0  0  0  0
  6  7  2  0  0  0  0
  6  8  1  0  0  0  0
  8  9  1  0  0  0  0
  9 14  1  0  0  0  0
  9 10  2  0  0  0  0
 10 11  1  0  0  0  0
 11 12  2  0  0  0  0
 12 13  1  0  0  0  0
 12 14  1  0  0  0  0
 13 29  1  0  0  0  0
 13 30  1  0  0  0  0
 13 31  1  0  0  0  0
 15 19  1  0  0  0  0
 15 16  1  0  0  0  0
 15 40  1  0  0  0  0
 16 17  1  0  0  0  0
 16 32  1  0  0  0  0
 16 33  1  0  0  0  0
 17 18  1  0  0  0  0
 17 34  1  0  0  0  0
 17 35  1  0  0  0  0
 18 19  1  0  0  0  0
 18 36  1  0  0  0  0
 18 37  1  0  0  0  0
 19 38  1  0  0  0  0
 19 39  1  0  0  0  0
M  CHG  1   8  -1
M  CHG  1  15   1
M  END
> <s_m_source_file>
AV-unprocessed.smi

> <i_m_source_file_index>
1622

> <i_lp_mmshare_version>
43012

> <i_f3d_flags>
0

> <s_epik_input>
W0NIMl0xW0NIMl1bQ0gyXVtDSDJdTjFbQ0BIXShbQ0gyXVtDSDNdKVtDSDJdW05IXUMoPU8pW05IXWMybm5jKHMyKVtDSDNd

> <s_epik_cmdline>
J2VwaWtfcHl0aG9uJywgJy1waCcsICc3LjAnLCAnLXRuJywgJzgnLCAnLW1hJywgJzIwMCcsICctbWV0YWxfYmluZGluZycsICctaW1hZScsICc8aW5maWxlLm1hZT4nLCAnLW9tYWUnLCAnPG91dGZpbGUubWFlPic=

> <r_lp_tautomer_probability>
1

> <r_epik_Ionization_Penalty>
4.34497

> <r_epik_Ionization_Penalty_Charging>
4.23453

> <r_epik_Ionization_Penalty_Neutral>
0.110433

> <r_epik_State_Penalty>
4.23293

> <r_epik_Charging_Adjusted_Penalty>
8.46746

> <i_epik_Tot_Q>
0

> <i_epik_Tot_abs_Q>
2

> <r_epik_Metal_State_Penalty>
0.701092

> <b_epik_Metal_Only>
1

> <s_lp_Force_Field>
OPLS_2005

> <r_lp_Energy>
26.4527

> <b_lp_Chiralities_Consistent>
1

> <s_lp_Variant>
AV-unprocessed.smi:1622-3

> <Gold.Version>
5.8.1

> <Gold.Id.Protein>
6NUR|6NUR_protein|mol2

> <Gold.PLP.Fitness>
45.4196

> <Gold.PLP.PLP>
-31.7231

> <Gold.PLP.part.hbond>
-4.0000

> <Gold.PLP.part.metal>
0.0000

> <Gold.PLP.part.buried>
-5.0478

> <Gold.PLP.part.nonpolar>
-23.6168

> <Gold.PLP.part.repulsive>
0.3745

> <Gold.PLP.ligand.clash>
0.0000

> <Gold.PLP.ligand.torsion>
1.3931

> <Gold.PLP.Chemscore.Hbond>
5.4000

> <Gold.PLP.Chemscore.CHOScore>
0.0000

> <Gold.PLP.Chemscore.Metal>
0.0000

> <Gold.Chemscore.Hbonds>
donor molecule, donor type, donor heavy atom, donor atom, acceptor molecule, acceptor atom, score
      L1  H     5    28       P1  7948  0.20
      L1  H    15    40       P1  7948  2.00
      P1  H  7989  7998       L1    11  1.00
      P1  H 10752 10763       L1     8  2.00

> <Gold.PLP.Chemscore.Internal.Correction>
0.2826

> <Gold.Rescore>
     Score         DG    S(hbond)    S(metal)    S(lipo)     H(rot)  DE(clash)    DE(int)     intcor
     15.76     -16.91       3.01        0.00      49.84       1.73       0.00       1.14       ----

> <Gold.Chemscore.Fitness>
15.7629

> <Gold.Chemscore.DG>
-16.9091

> <Gold.Chemscore.ZeroCoef>
-5.4800

> <Gold.Chemscore.Hbond>
3.0058

> <Gold.Chemscore.Metal>
0.0000

> <Gold.Chemscore.Lipo>
49.8361

> <Gold.Chemscore.Internal_Hbond>
0.0000

> <Gold.Chemscore.DEClash>
0.0029

> <Gold.Chemscore.DEInternal>
1.1434

> <Gold.Chemscore.Rot>
1.7348

> <Gold.Chemscore.Internal.Correction>
   9.000000E+99

> <Gold.Chemscore.Hbonds>
donor molecule, donor type, donor heavy atom, donor atom, acceptor molecule, acceptor atom, score
      L1  H    15    40       P1  7948  0.44
      P1  H  7989  7998       L1    11  0.29
      P1  H 10752 10763       L1     8  0.44

> <Gold.Chemscore.Hbond.Weighted>
-10.0394

> <Gold.Chemscore.Metal.Weighted>
-0.0000

> <Gold.Chemscore.Lipo.Weighted>
-5.8308

> <Gold.Chemscore.Internal_Hbond.Weighted>
0.0000

> <Gold.Chemscore.DEClash.Weighted>
0.0029

> <Gold.Chemscore.DEInternal.Weighted>
1.1434

> <Gold.Chemscore.Rot.Weighted>
4.4411

> <Gold.Chemscore.Internal.Correction.Weighted>
   9.000000E+99

> <Gold.Protein.RotatedTorsions>
[ 6907 6896 6895 6894 ] final   72.99 input  -60.11 | X-H torsion
[ 7974 7965 7964 7962 ] final   17.41 input  175.53 | X-H torsion
[ 8008 7997 7996 7995 ] final -156.06 input   59.86 | X-H torsion
[ 10167 10162 10161 10158 ] final   87.99 input  -65.29 | X-H torsion
[ 10718 10713 10712 10709 ] final  -60.27 input   66.30 | X-H torsion
[ 10763 10752 10751 10750 ] final   47.74 input  -60.55 | X-H torsion
[ 11005 11000 10999 10996 ] final -167.00 input  -57.11 | X-H torsion

> <Gold.Protein.ActiveResidues>
 VAL166  LYS551  ARG553  GLY616  TRP617  ASP618  TYR619  PRO620  LYS621  CYS622 
 ASP623  PHE694  ASN695  SER759  ASP760  ASP761  ALA762  ILE779  LEU786  VAL792 
 PHE793  MET794  SER795  GLU796  ALA797  LYS798  CYS799  TRP800  GLU811  SER814 

> <Gold.Protein.RotatedAtoms>
  152.4899  134.4489  159.9567 H   0  0  0  0  0  0  0  0  0  0  0  0  # atno 6907 bound_to 6896
  151.4478  133.3619  159.2798 H   0  0  0  0  0  0  0  0  0  0  0  0  # atno 6908 bound_to 6896
  150.9043  134.8481  159.7441 H   0  0  0  0  0  0  0  0  0  0  0  0  # atno 6909 bound_to 6896
  146.2219  139.8607  142.8605 H   0  0  0  0  0  0  0  0  0  0  0  0  # atno 7974 bound_to 7965
  155.7114  140.0779  157.2369 H   0  0  0  0  0  0  0  0  0  0  0  0  # atno 8008 bound_to 7997
  154.4058  140.1629  156.2354 H   0  0  0  0  0  0  0  0  0  0  0  0  # atno 8009 bound_to 7997
  155.9279  140.3393  155.6228 H   0  0  0  0  0  0  0  0  0  0  0  0  # atno 8010 bound_to 7997
  139.8718  144.6488  150.8941 H   0  0  0  0  0  0  0  0  0  0  0  0  # atno 10167 bound_to 10162
  156.1002  130.4187  150.0831 H   0  0  0  0  0  0  0  0  0  0  0  0  # atno 10718 bound_to 10713
  152.9797  135.5967  154.3811 H   0  0  0  0  0  0  0  0  0  0  0  0  # atno 10763 bound_to 10752
  154.3476  135.2767  155.2391 H   0  0  0  0  0  0  0  0  0  0  0  0  # atno 10764 bound_to 10752
  154.4445  135.6005  153.6206 H   0  0  0  0  0  0  0  0  0  0  0  0  # atno 10765 bound_to 10752
  140.5581  134.5360  157.5137 H   0  0  0  0  0  0  0  0  0  0  0  0  # atno 11005 bound_to 11000
  145.2708  141.0108  143.3773 LP  0  0  0  0  0  0  0  0  0  0  0  0  # atno 17320 bound_to 7965
  144.9225  139.4394  143.6534 LP  0  0  0  0  0  0  0  0  0  0  0  0  # atno 17321 bound_to 7965
  140.7759  143.3657  151.1743 LP  0  0  0  0  0  0  0  0  0  0  0  0  # atno 17342 bound_to 10162
  139.7277  143.9123  152.3008 LP  0  0  0  0  0  0  0  0  0  0  0  0  # atno 17343 bound_to 10162
  156.8820  130.9559  151.3598 LP  0  0  0  0  0  0  0  0  0  0  0  0  # atno 17370 bound_to 10713
  157.6171  130.8627  149.9047 LP  0  0  0  0  0  0  0  0  0  0  0  0  # atno 17371 bound_to 10713
  139.9421  134.7768  156.0652 LP  0  0  0  0  0  0  0  0  0  0  0  0  # atno 17394 bound_to 11000
  141.1131  133.6636  156.3027 LP  0  0  0  0  0  0  0  0  0  0  0  0  # atno 17395 bound_to 11000

$$$$
