AV-unprocessed.smi:789|AV-procd|sdf|3739|dock1
  -GOLD-   22720 1173D 1   1.00000     0.00000
 Structure written by MMmdl.
 34 35  0  0  0  0  0  0  0  0  1 V2000
  144.0356  143.8502  162.9484 C   0  0  0  0  0  0  0  0  0  0  0  0
  144.8330  144.3107  161.7643 C   0  0  0  0  0  0  0  0  0  0  0  0
  146.2469  144.2732  161.5900 C   0  0  0  0  0  0  0  0  0  0  0  0
  146.4111  144.8149  160.3446 C   0  0  0  0  0  0  0  0  0  0  0  0
  147.5608  145.0284  159.6523 N   0  0  0  0  0  0  0  0  0  0  0  0
  148.8186  144.6518  159.9561 C   0  0  0  0  0  0  0  0  0  0  0  0
  149.1387  144.0058  160.9520 O   0  0  0  0  0  0  0  0  0  0  0  0
  149.7406  145.0566  159.0634 N   0  0  0  0  0  0  0  0  0  0  0  0
  151.1871  144.8222  159.0874 C   0  0  0  0  0  0  0  0  0  0  0  0
  151.4931  143.3122  159.1165 C   0  0  0  0  0  0  0  0  0  0  0  0
  152.5396  143.1120  160.2136 C   0  0  0  0  0  0  0  0  0  0  0  0
  152.2476  144.2211  161.2186 C   0  0  0  0  0  0  0  0  0  0  0  0
  151.8438  145.4143  160.3525 C   0  0  0  0  0  0  0  0  0  0  0  0
  145.1732  145.1415  159.8338 N   0  0  0  0  0  0  0  0  0  0  0  0
  144.8134  145.7367  158.5609 C   0  0  0  0  0  0  0  0  0  0  0  0
  144.2009  144.8267  160.7162 N   0  0  0  0  0  0  0  0  0  0  0  0
  144.6870  143.5117  163.7543 H   0  0  0  0  0  0  0  0  0  0  0  0
  143.3798  143.0213  162.6814 H   0  0  0  0  0  0  0  0  0  0  0  0
  143.4144  144.6556  163.3412 H   0  0  0  0  0  0  0  0  0  0  0  0
  146.9952  143.9066  162.2761 H   0  0  0  0  0  0  0  0  0  0  0  0
  147.4563  145.5608  158.8012 H   0  0  0  0  0  0  0  0  0  0  0  0
  149.4005  145.6058  158.2871 H   0  0  0  0  0  0  0  0  0  0  0  0
  151.6471  145.2581  158.1985 H   0  0  0  0  0  0  0  0  0  0  0  0
  150.5985  142.7428  159.3745 H   0  0  0  0  0  0  0  0  0  0  0  0
  151.8402  142.9438  158.1507 H   0  0  0  0  0  0  0  0  0  0  0  0
  152.4961  142.1178  160.6592 H   0  0  0  0  0  0  0  0  0  0  0  0
  153.5390  143.2477  159.7982 H   0  0  0  0  0  0  0  0  0  0  0  0
  151.4112  143.9286  161.8549 H   0  0  0  0  0  0  0  0  0  0  0  0
  153.0986  144.4390  161.8645 H   0  0  0  0  0  0  0  0  0  0  0  0
  152.7378  145.9691  160.0648 H   0  0  0  0  0  0  0  0  0  0  0  0
  151.2003  146.1081  160.8950 H   0  0  0  0  0  0  0  0  0  0  0  0
  145.7047  146.0258  158.0039 H   0  0  0  0  0  0  0  0  0  0  0  0
  144.2029  146.6243  158.7290 H   0  0  0  0  0  0  0  0  0  0  0  0
  144.2444  145.0193  157.9692 H   0  0  0  0  0  0  0  0  0  0  0  0
  1  2  1  0  0  0  0
  1 17  1  0  0  0  0
  1 18  1  0  0  0  0
  1 19  1  0  0  0  0
  2 16  2  0  0  0  0
  2  3  1  0  0  0  0
  3  4  2  0  0  0  0
  3 20  1  0  0  0  0
  4  5  1  0  0  0  0
  4 14  1  0  0  0  0
  5  6  1  0  0  0  0
  5 21  1  0  0  0  0
  6  7  2  0  0  0  0
  6  8  1  0  0  0  0
  8  9  1  0  0  0  0
  8 22  1  0  0  0  0
  9 13  1  0  0  0  0
  9 10  1  0  0  0  0
  9 23  1  0  0  0  0
 10 11  1  0  0  0  0
 10 24  1  0  0  0  0
 10 25  1  0  0  0  0
 11 12  1  0  0  0  0
 11 26  1  0  0  0  0
 11 27  1  0  0  0  0
 12 13  1  0  0  0  0
 12 28  1  0  0  0  0
 12 29  1  0  0  0  0
 13 30  1  0  0  0  0
 13 31  1  0  0  0  0
 14 15  1  0  0  0  0
 14 16  1  0  0  0  0
 15 32  1  0  0  0  0
 15 33  1  0  0  0  0
 15 34  1  0  0  0  0
M  END
> <s_m_source_file>
AV-unprocessed.smi

> <i_m_source_file_index>
789

> <i_lp_mmshare_version>
43012

> <i_f3d_flags>
0

> <s_epik_input>
W0NIM11jMVtjSF1jKG4objEpW0NIM10pW05IXUMoPU8pW05IXVtDSF0yW0NIMl1bQ0gyXVtDSDJdW0NIMl0y

> <s_epik_cmdline>
J2VwaWtfcHl0aG9uJywgJy1waCcsICc3LjAnLCAnLXRuJywgJzgnLCAnLW1hJywgJzIwMCcsICctbWV0YWxfYmluZGluZycsICctaW1hZScsICc8aW5maWxlLm1hZT4nLCAnLW9tYWUnLCAnPG91dGZpbGUubWFlPic=

> <r_lp_tautomer_probability>
1

> <r_epik_Ionization_Penalty>
0.000101808

> <r_epik_Ionization_Penalty_Charging>
0

> <r_epik_Ionization_Penalty_Neutral>
0.000101808

> <r_epik_State_Penalty>
-0

> <r_epik_Charging_Adjusted_Penalty>
0

> <i_epik_Tot_Q>
0

> <i_epik_Tot_abs_Q>
0

> <r_epik_Metal_State_Penalty>
-0

> <b_epik_Metal_Only>
0

> <s_lp_Force_Field>
OPLS_2005

> <r_lp_Energy>
29.7198

> <b_lp_Chiralities_Consistent>
1

> <s_lp_Variant>
AV-unprocessed.smi:789-1

> <Gold.Version>
5.8.1

> <Gold.Id.Protein>
6NUR|6NUR_protein|mol2

> <Gold.PLP.Fitness>
43.5752

> <Gold.PLP.PLP>
-36.4233

> <Gold.PLP.part.hbond>
-2.7110

> <Gold.PLP.part.metal>
0.0000

> <Gold.PLP.part.buried>
-4.7942

> <Gold.PLP.part.nonpolar>
-30.5605

> <Gold.PLP.part.repulsive>
0.6131

> <Gold.PLP.ligand.clash>
0.0000

> <Gold.PLP.ligand.torsion>
0.0131

> <Gold.PLP.Chemscore.Hbond>
2.3920

> <Gold.PLP.Chemscore.CHOScore>
0.0000

> <Gold.PLP.Chemscore.Metal>
0.0000

> <Gold.Chemscore.Hbonds>
donor molecule, donor type, donor heavy atom, donor atom, acceptor molecule, acceptor atom, score
      L1  H     5    21       P1  8029  1.00
      L1  H     8    22       P1  8029  0.88
      P1  H  6933  6944       L1     7  0.54

> <Gold.PLP.Chemscore.Internal.Correction>
0.0022

> <Gold.Rescore>
     Score         DG    S(hbond)    S(metal)    S(lipo)     H(rot)  DE(clash)    DE(int)     intcor
     18.56     -20.71       2.45        0.00      82.15       1.00       0.00       2.15       ----

> <Gold.Chemscore.Fitness>
18.5593

> <Gold.Chemscore.DG>
-20.7079

> <Gold.Chemscore.ZeroCoef>
-5.4800

> <Gold.Chemscore.Hbond>
2.4481

> <Gold.Chemscore.Metal>
0.0000

> <Gold.Chemscore.Lipo>
82.1461

> <Gold.Chemscore.Internal_Hbond>
0.0000

> <Gold.Chemscore.DEClash>
0.0029

> <Gold.Chemscore.DEInternal>
2.1457

> <Gold.Chemscore.Rot>
1.0000

> <Gold.Chemscore.Internal.Correction>
   9.000000E+99

> <Gold.Chemscore.Hbonds>
donor molecule, donor type, donor heavy atom, donor atom, acceptor molecule, acceptor atom, score
      L1  H     5    21       P1  8029  0.97
      L1  H     8    22       P1  8029  0.68
      P1  H  6933  6944       L1     7  0.54

> <Gold.Chemscore.Hbond.Weighted>
-8.1768

> <Gold.Chemscore.Metal.Weighted>
-0.0000

> <Gold.Chemscore.Lipo.Weighted>
-9.6111

> <Gold.Chemscore.Internal_Hbond.Weighted>
0.0000

> <Gold.Chemscore.DEClash.Weighted>
0.0029

> <Gold.Chemscore.DEInternal.Weighted>
2.1457

> <Gold.Chemscore.Rot.Weighted>
2.5600

> <Gold.Chemscore.Internal.Correction.Weighted>
   9.000000E+99

> <Gold.Protein.RotatedTorsions>
[ 6907 6896 6895 6894 ] final  -35.83 input  -60.11 | X-H torsion
[ 7974 7965 7964 7962 ] final  -12.14 input  175.53 | X-H torsion
[ 8008 7997 7996 7995 ] final -125.22 input   59.86 | X-H torsion
[ 10167 10162 10161 10158 ] final   51.25 input  -65.29 | X-H torsion
[ 10718 10713 10712 10709 ] final -170.90 input   66.30 | X-H torsion
[ 10763 10752 10751 10750 ] final   41.86 input  -60.55 | X-H torsion
[ 11005 11000 10999 10996 ] final  -85.19 input  -57.11 | X-H torsion

> <Gold.Protein.ActiveResidues>
 VAL166  LYS551  ARG553  GLY616  TRP617  ASP618  TYR619  PRO620  LYS621  CYS622 
 ASP623  PHE694  ASN695  SER759  ASP760  ASP761  ALA762  ILE779  LEU786  VAL792 
 PHE793  MET794  SER795  GLU796  ALA797  LYS798  CYS799  TRP800  GLU811  SER814 

> <Gold.Protein.RotatedAtoms>
  151.0348  134.9565  159.8130 H   0  0  0  0  0  0  0  0  0  0  0  0  # atno 6907 bound_to 6896
  152.5353  134.2733  159.8990 H   0  0  0  0  0  0  0  0  0  0  0  0  # atno 6908 bound_to 6896
  151.2744  133.4197  159.2657 H   0  0  0  0  0  0  0  0  0  0  0  0  # atno 6909 bound_to 6896
  146.2162  140.3014  142.8375 H   0  0  0  0  0  0  0  0  0  0  0  0  # atno 7974 bound_to 7965
  155.2096  140.0418  157.2931 H   0  0  0  0  0  0  0  0  0  0  0  0  # atno 8008 bound_to 7997
  154.6020  140.2454  155.7751 H   0  0  0  0  0  0  0  0  0  0  0  0  # atno 8009 bound_to 7997
  156.2327  140.2932  156.0239 H   0  0  0  0  0  0  0  0  0  0  0  0  # atno 8010 bound_to 7997
  140.2639  144.3342  150.6310 H   0  0  0  0  0  0  0  0  0  0  0  0  # atno 10167 bound_to 10162
  156.7330  130.9313  151.3105 H   0  0  0  0  0  0  0  0  0  0  0  0  # atno 10718 bound_to 10713
  152.9897  135.6149  154.2855 H   0  0  0  0  0  0  0  0  0  0  0  0  # atno 10763 bound_to 10752
  154.2583  135.2783  155.2790 H   0  0  0  0  0  0  0  0  0  0  0  0  # atno 10764 bound_to 10752
  154.5228  135.5810  153.6752 H   0  0  0  0  0  0  0  0  0  0  0  0  # atno 10765 bound_to 10752
  141.1643  133.7386  156.8978 H   0  0  0  0  0  0  0  0  0  0  0  0  # atno 11005 bound_to 11000
  144.9054  140.7694  143.5840 LP  0  0  0  0  0  0  0  0  0  0  0  0  # atno 17320 bound_to 7965
  145.2942  139.1873  143.4724 LP  0  0  0  0  0  0  0  0  0  0  0  0  # atno 17321 bound_to 7965
  140.5944  143.2167  151.7192 LP  0  0  0  0  0  0  0  0  0  0  0  0  # atno 17342 bound_to 10162
  139.5008  144.3890  152.0299 LP  0  0  0  0  0  0  0  0  0  0  0  0  # atno 17343 bound_to 10162
  157.6851  130.9177  150.0365 LP  0  0  0  0  0  0  0  0  0  0  0  0  # atno 17370 bound_to 10713
  156.1516  130.3642  149.9430 LP  0  0  0  0  0  0  0  0  0  0  0  0  # atno 17371 bound_to 10713
  140.1603  134.9170  157.2707 LP  0  0  0  0  0  0  0  0  0  0  0  0  # atno 17394 bound_to 11000
  140.2619  134.3562  155.7404 LP  0  0  0  0  0  0  0  0  0  0  0  0  # atno 17395 bound_to 11000

$$$$
