AV-unprocessed.smi:611|AV-procd|sdf|3061|dock6
  -GOLD-   2262023583D 1   1.00000     0.00000
 Structure written by MMmdl.
 41 42  0  0  0  0  0  0  0  0  1 V2000
  147.9383  141.9251  155.8841 C   0  0  0  0  0  0  0  0  0  0  0  0
  146.5687  141.6648  155.2133 C   0  0  0  0  0  0  0  0  0  0  0  0
  145.4487  141.7908  156.2624 C   0  0  0  0  0  0  0  0  0  0  0  0
  146.4011  142.7686  154.1425 C   0  0  0  0  0  0  0  0  0  0  0  0
  146.5220  140.2651  154.5757 C   0  0  0  0  0  0  0  0  0  0  0  0
  145.5268  139.4531  154.9571 N   0  0  0  0  0  0  0  0  0  0  0  0
  145.4057  138.2649  154.3272 C   0  0  0  0  0  0  0  0  0  0  0  0
  146.2767  137.8905  153.2764 C   0  0  0  0  0  0  0  0  0  0  0  0
  146.2145  136.6696  152.5535 N   0  0  0  0  0  0  0  0  0  0  0  0
  145.2287  135.7514  152.5370 C   0  0  0  0  0  0  0  0  0  0  0  0
  144.1775  135.8411  153.1668 O   0  0  0  0  0  0  0  0  0  0  0  0
  145.4920  134.6754  151.7732 N   0  0  0  0  0  0  0  0  0  0  0  0
  144.6459  133.5028  151.5354 C   0  0  0  0  0  0  0  0  0  0  0  0
  145.3557  132.2171  152.0030 C   0  0  0  0  0  0  0  0  0  0  0  0
  145.2111  131.2109  150.8601 C   0  0  0  0  0  0  0  0  0  0  0  0
  145.1535  132.0744  149.6046 C   0  0  0  0  0  0  0  0  0  0  0  0
  144.3525  133.3036  150.0336 C   0  0  0  0  0  0  0  0  0  0  0  0
  147.2491  138.8448  152.9183 C   0  0  0  0  0  0  0  0  0  0  0  0
  147.3594  140.0283  153.5572 N   0  0  0  0  0  0  0  0  0  0  0  0
  147.9959  142.9351  156.2913 H   0  0  0  0  0  0  0  0  0  0  0  0
  148.7568  141.8117  155.1724 H   0  0  0  0  0  0  0  0  0  0  0  0
  148.1243  141.2415  156.7134 H   0  0  0  0  0  0  0  0  0  0  0  0
  145.5595  141.0464  157.0517 H   0  0  0  0  0  0  0  0  0  0  0  0
  144.4661  141.6482  155.8114 H   0  0  0  0  0  0  0  0  0  0  0  0
  145.4544  142.7738  156.7341 H   0  0  0  0  0  0  0  0  0  0  0  0
  146.4835  143.7637  154.5812 H   0  0  0  0  0  0  0  0  0  0  0  0
  145.4266  142.7207  153.6553 H   0  0  0  0  0  0  0  0  0  0  0  0
  147.1632  142.6884  153.3663 H   0  0  0  0  0  0  0  0  0  0  0  0
  144.5920  137.6420  154.6638 H   0  0  0  0  0  0  0  0  0  0  0  0
  147.0467  136.4305  152.0341 H   0  0  0  0  0  0  0  0  0  0  0  0
  146.3915  134.6629  151.3146 H   0  0  0  0  0  0  0  0  0  0  0  0
  143.7068  133.6078  152.0817 H   0  0  0  0  0  0  0  0  0  0  0  0
  146.4169  132.4040  152.1755 H   0  0  0  0  0  0  0  0  0  0  0  0
  144.9419  131.8341  152.9363 H   0  0  0  0  0  0  0  0  0  0  0  0
  146.0234  130.4839  150.8345 H   0  0  0  0  0  0  0  0  0  0  0  0
  144.2754  130.6611  150.9698 H   0  0  0  0  0  0  0  0  0  0  0  0
  146.1624  132.3742  149.3181 H   0  0  0  0  0  0  0  0  0  0  0  0
  144.7050  131.5558  148.7570 H   0  0  0  0  0  0  0  0  0  0  0  0
  143.2888  133.1018  149.9018 H   0  0  0  0  0  0  0  0  0  0  0  0
  144.5895  134.1751  149.4218 H   0  0  0  0  0  0  0  0  0  0  0  0
  147.9448  138.6609  152.1124 H   0  0  0  0  0  0  0  0  0  0  0  0
  1  2  1  0  0  0  0
  1 20  1  0  0  0  0
  1 21  1  0  0  0  0
  1 22  1  0  0  0  0
  2  3  1  0  0  0  0
  2  4  1  0  0  0  0
  2  5  1  0  0  0  0
  3 23  1  0  0  0  0
  3 24  1  0  0  0  0
  3 25  1  0  0  0  0
  4 26  1  0  0  0  0
  4 27  1  0  0  0  0
  4 28  1  0  0  0  0
  5 19  1  0  0  0  0
  5  6  2  0  0  0  0
  6  7  1  0  0  0  0
  7  8  2  0  0  0  0
  7 29  1  0  0  0  0
  8  9  1  0  0  0  0
  8 18  1  0  0  0  0
  9 10  1  0  0  0  0
  9 30  1  0  0  0  0
 10 11  2  0  0  0  0
 10 12  1  0  0  0  0
 12 13  1  0  0  0  0
 12 31  1  0  0  0  0
 13 17  1  0  0  0  0
 13 14  1  0  0  0  0
 13 32  1  0  0  0  0
 14 15  1  0  0  0  0
 14 33  1  0  0  0  0
 14 34  1  0  0  0  0
 15 16  1  0  0  0  0
 15 35  1  0  0  0  0
 15 36  1  0  0  0  0
 16 17  1  0  0  0  0
 16 37  1  0  0  0  0
 16 38  1  0  0  0  0
 17 39  1  0  0  0  0
 17 40  1  0  0  0  0
 18 19  2  0  0  0  0
 18 41  1  0  0  0  0
M  END
> <s_m_source_file>
AV-unprocessed.smi

> <i_m_source_file_index>
611

> <i_lp_mmshare_version>
43012

> <i_f3d_flags>
0

> <s_epik_input>
W0NIM11DKFtDSDNdKShbQ0gzXSljMW5bY0hdYyhbY0hdbjEpW05IXUMoPU8pW05IXVtDSF0yW0NIMl1bQ0gyXVtDSDJdW0NIMl0y

> <s_epik_cmdline>
J2VwaWtfcHl0aG9uJywgJy1waCcsICc3LjAnLCAnLXRuJywgJzgnLCAnLW1hJywgJzIwMCcsICctbWV0YWxfYmluZGluZycsICctaW1hZScsICc8aW5maWxlLm1hZT4nLCAnLW9tYWUnLCAnPG91dGZpbGUubWFlPic=

> <r_lp_tautomer_probability>
1

> <r_epik_Ionization_Penalty>
2.83035e-05

> <r_epik_Ionization_Penalty_Charging>
0

> <r_epik_Ionization_Penalty_Neutral>
2.83035e-05

> <r_epik_State_Penalty>
-0

> <r_epik_Charging_Adjusted_Penalty>
0

> <i_epik_Tot_Q>
0

> <i_epik_Tot_abs_Q>
0

> <r_epik_Metal_State_Penalty>
-0

> <b_epik_Metal_Only>
0

> <s_lp_Force_Field>
OPLS_2005

> <r_lp_Energy>
27.5905

> <b_lp_Chiralities_Consistent>
1

> <s_lp_Variant>
AV-unprocessed.smi:611-1

> <Gold.Version>
5.8.1

> <Gold.Id.Protein>
6NUR|6NUR_protein|mol2

> <Gold.PLP.Fitness>
34.1185

> <Gold.PLP.PLP>
-25.6124

> <Gold.PLP.part.hbond>
-1.0000

> <Gold.PLP.part.metal>
0.0000

> <Gold.PLP.part.buried>
-2.4841

> <Gold.PLP.part.nonpolar>
-22.4393

> <Gold.PLP.part.repulsive>
0.3909

> <Gold.PLP.ligand.clash>
0.0000

> <Gold.PLP.ligand.torsion>
0.1108

> <Gold.PLP.Chemscore.Hbond>
1.0000

> <Gold.PLP.Chemscore.CHOScore>
1.8649

> <Gold.PLP.Chemscore.Metal>
0.0000

> <Gold.Chemscore.Hbonds>
donor molecule, donor type, donor heavy atom, donor atom, acceptor molecule, acceptor atom, score
      L1  H     9    30       P1  7948  1.00
      L1  C    18    41       P1  7948  0.64
      L1  C    18    41       P1  7957  1.00

> <Gold.PLP.Chemscore.Internal.Correction>
0.1329

> <Gold.Rescore>
     Score         DG    S(hbond)    S(metal)    S(lipo)     H(rot)  DE(clash)    DE(int)     intcor
     13.10     -14.54       0.96        0.00      75.49       1.16       0.17       1.28       ----

> <Gold.Chemscore.Fitness>
13.0995

> <Gold.Chemscore.DG>
-14.5446

> <Gold.Chemscore.ZeroCoef>
-5.4800

> <Gold.Chemscore.Hbond>
0.9616

> <Gold.Chemscore.Metal>
0.0000

> <Gold.Chemscore.Lipo>
75.4862

> <Gold.Chemscore.Internal_Hbond>
0.0000

> <Gold.Chemscore.DEClash>
0.1679

> <Gold.Chemscore.DEInternal>
1.2772

> <Gold.Chemscore.Rot>
1.1637

> <Gold.Chemscore.Internal.Correction>
   9.000000E+99

> <Gold.Chemscore.Hbonds>
donor molecule, donor type, donor heavy atom, donor atom, acceptor molecule, acceptor atom, score
      L1  H     9    30       P1  7948  0.97

> <Gold.Chemscore.Hbond.Weighted>
-3.2117

> <Gold.Chemscore.Metal.Weighted>
-0.0000

> <Gold.Chemscore.Lipo.Weighted>
-8.8319

> <Gold.Chemscore.Internal_Hbond.Weighted>
0.0000

> <Gold.Chemscore.DEClash.Weighted>
0.1679

> <Gold.Chemscore.DEInternal.Weighted>
1.2772

> <Gold.Chemscore.Rot.Weighted>
2.9790

> <Gold.Chemscore.Internal.Correction.Weighted>
   9.000000E+99

> <Gold.Protein.RotatedTorsions>
[ 6907 6896 6895 6894 ] final -114.89 input  -60.11 | X-H torsion
[ 7974 7965 7964 7962 ] final   35.60 input  175.53 | X-H torsion
[ 8008 7997 7996 7995 ] final  139.33 input   59.86 | X-H torsion
[ 10167 10162 10161 10158 ] final   34.38 input  -65.29 | X-H torsion
[ 10718 10713 10712 10709 ] final -143.05 input   66.30 | X-H torsion
[ 10763 10752 10751 10750 ] final   74.76 input  -60.55 | X-H torsion
[ 11005 11000 10999 10996 ] final  -38.29 input  -57.11 | X-H torsion

> <Gold.Protein.ActiveResidues>
 VAL166  LYS551  ARG553  GLY616  TRP617  ASP618  TYR619  PRO620  LYS621  CYS622 
 ASP623  PHE694  ASN695  SER759  ASP760  ASP761  ALA762  ILE779  LEU786  VAL792 
 PHE793  MET794  SER795  GLU796  ALA797  LYS798  CYS799  TRP800  GLU811  SER814 

> <Gold.Protein.RotatedAtoms>
  150.7936  133.8737  159.3265 H   0  0  0  0  0  0  0  0  0  0  0  0  # atno 6907 bound_to 6896
  151.6568  135.0992  160.0181 H   0  0  0  0  0  0  0  0  0  0  0  0  # atno 6908 bound_to 6896
  152.4014  133.6784  159.6355 H   0  0  0  0  0  0  0  0  0  0  0  0  # atno 6909 bound_to 6896
  146.1272  139.6122  142.9251 H   0  0  0  0  0  0  0  0  0  0  0  0  # atno 7974 bound_to 7965
  156.2990  140.2370  156.4220 H   0  0  0  0  0  0  0  0  0  0  0  0  # atno 8008 bound_to 7997
  154.8347  140.0431  157.1521 H   0  0  0  0  0  0  0  0  0  0  0  0  # atno 8009 bound_to 7997
  154.9169  140.2998  155.5240 H   0  0  0  0  0  0  0  0  0  0  0  0  # atno 8010 bound_to 7997
  140.4320  144.1310  150.6161 H   0  0  0  0  0  0  0  0  0  0  0  0  # atno 10167 bound_to 10162
  156.3532  130.7699  151.1855 H   0  0  0  0  0  0  0  0  0  0  0  0  # atno 10718 bound_to 10713
  153.0608  135.5014  154.8090 H   0  0  0  0  0  0  0  0  0  0  0  0  # atno 10763 bound_to 10752
  154.6880  135.2979  154.9522 H   0  0  0  0  0  0  0  0  0  0  0  0  # atno 10764 bound_to 10752
  154.0286  135.6732  153.4831 H   0  0  0  0  0  0  0  0  0  0  0  0  # atno 10765 bound_to 10752
  141.0017  133.6952  156.2034 H   0  0  0  0  0  0  0  0  0  0  0  0  # atno 11005 bound_to 11000
  145.5340  141.0425  143.2367 LP  0  0  0  0  0  0  0  0  0  0  0  0  # atno 17320 bound_to 7965
  144.7654  139.6859  143.7217 LP  0  0  0  0  0  0  0  0  0  0  0  0  # atno 17321 bound_to 7965
  140.4416  143.2524  151.9465 LP  0  0  0  0  0  0  0  0  0  0  0  0  # atno 17342 bound_to 10162
  139.4785  144.5649  151.8181 LP  0  0  0  0  0  0  0  0  0  0  0  0  # atno 17343 bound_to 10162
  157.7464  131.0421  150.4680 LP  0  0  0  0  0  0  0  0  0  0  0  0  # atno 17370 bound_to 10713
  156.4878  130.4088  149.6424 LP  0  0  0  0  0  0  0  0  0  0  0  0  # atno 17371 bound_to 10713
  140.6879  134.4697  157.5589 LP  0  0  0  0  0  0  0  0  0  0  0  0  # atno 17394 bound_to 11000
  139.9042  134.8487  156.1773 LP  0  0  0  0  0  0  0  0  0  0  0  0  # atno 17395 bound_to 11000

$$$$
