AV-unprocessed.smi:1106|AV-procd|sdf|4780|dock4
  -GOLD-   22720 3323D 1   1.00000     0.00000
 Structure written by MMmdl.
 48 49  0  0  0  0  0  0  0  0  2 V2000
  151.9306  145.5162  159.3121 C   0  0  0  0  0  0  0  0  0  0  0  0
  151.3375  144.2540  159.9556 C   0  0  0  0  0  0  0  0  0  0  0  0
  151.7542  143.0415  159.3005 N   0  0  0  0  0  0  0  0  0  0  0  0
  151.1845  142.6253  158.1129 C   0  0  0  0  0  0  0  0  0  0  0  0
  151.5552  141.4911  157.4804 C   0  0  0  0  0  0  0  0  0  0  0  0
  150.9566  141.0873  156.2513 C   0  0  0  0  0  0  0  0  0  0  0  0
  150.4879  140.7688  155.2421 N   0  0  0  0  0  0  0  0  0  0  0  0
  152.5947  140.6241  158.0312 C   0  0  0  0  0  0  0  0  0  0  0  0
  152.9912  139.5952  157.4798 O   0  0  0  0  0  0  0  0  0  0  0  0
  153.1389  141.0677  159.2630 N   0  0  0  0  0  0  0  0  0  0  0  0
  154.1842  140.2575  159.8682 C   0  0  0  0  0  0  0  0  0  0  0  0
  153.6386  139.0312  160.6322 C   0  0  1  0  0  0  0  0  0  0  0  0
  153.5261  137.9499  159.7275 O   0  0  0  0  0  0  0  0  0  0  0  0
  154.6043  138.5876  161.7489 C   0  0  0  0  0  0  0  0  0  0  0  0
  154.2425  137.2600  162.3073 N   0  3  2  0  0  0  0  0  0  0  0  0
  154.3665  137.1962  163.7876 C   0  0  0  0  0  0  0  0  0  0  0  0
  153.8444  135.8545  164.3315 C   0  0  0  0  0  0  0  0  0  0  0  0
  154.5423  134.6485  163.6762 C   0  0  2  0  0  0  0  0  0  0  0  0
  155.9820  134.4460  164.1798 C   0  0  0  0  0  0  0  0  0  0  0  0
  154.4617  134.7801  162.1441 C   0  0  0  0  0  0  0  0  0  0  0  0
  154.9701  136.1460  161.6481 C   0  0  0  0  0  0  0  0  0  0  0  0
  152.7617  142.2643  159.9183 C   0  0  0  0  0  0  0  0  0  0  0  0
  153.2894  142.6207  160.9754 O   0  0  0  0  0  0  0  0  0  0  0  0
  151.6207  146.4079  159.8569 H   0  0  0  0  0  0  0  0  0  0  0  0
  151.6049  145.6320  158.2782 H   0  0  0  0  0  0  0  0  0  0  0  0
  153.0205  145.4852  159.3186 H   0  0  0  0  0  0  0  0  0  0  0  0
  151.6631  144.1615  160.9925 H   0  0  0  0  0  0  0  0  0  0  0  0
  150.2460  144.2634  159.9711 H   0  0  0  0  0  0  0  0  0  0  0  0
  150.4101  143.2341  157.6683 H   0  0  0  0  0  0  0  0  0  0  0  0
  154.9164  139.9879  159.1051 H   0  0  0  0  0  0  0  0  0  0  0  0
  154.7334  140.9241  160.5357 H   0  0  0  0  0  0  0  0  0  0  0  0
  152.6559  139.2557  161.0466 H   0  0  0  0  0  0  0  0  0  0  0  0
  152.8923  137.3353  160.0670 H   0  0  0  0  0  0  0  0  0  0  0  0
  155.6172  138.5638  161.3427 H   0  0  0  0  0  0  0  0  0  0  0  0
  154.6232  139.3200  162.5576 H   0  0  0  0  0  0  0  0  0  0  0  0
  155.4085  137.3424  164.0754 H   0  0  0  0  0  0  0  0  0  0  0  0
  153.8027  138.0065  164.2487 H   0  0  0  0  0  0  0  0  0  0  0  0
  153.9631  135.8177  165.4150 H   0  0  0  0  0  0  0  0  0  0  0  0
  152.7715  135.7918  164.1437 H   0  0  0  0  0  0  0  0  0  0  0  0
  153.9877  133.7531  163.9604 H   0  0  0  0  0  0  0  0  0  0  0  0
  156.6269  135.2899  163.9360 H   0  0  0  0  0  0  0  0  0  0  0  0
  156.4267  133.5538  163.7383 H   0  0  0  0  0  0  0  0  0  0  0  0
  156.0024  134.3177  165.2625 H   0  0  0  0  0  0  0  0  0  0  0  0
  155.0203  133.9752  161.6650 H   0  0  0  0  0  0  0  0  0  0  0  0
  153.4244  134.6553  161.8306 H   0  0  0  0  0  0  0  0  0  0  0  0
  154.8266  136.2043  160.5685 H   0  0  0  0  0  0  0  0  0  0  0  0
  156.0411  136.2485  161.8285 H   0  0  0  0  0  0  0  0  0  0  0  0
  153.2665  137.1227  162.0849 H   0  0  0  0  0  0  0  0  0  0  0  0
  1  2  1  0  0  0  0
  1 24  1  0  0  0  0
  1 25  1  0  0  0  0
  1 26  1  0  0  0  0
  2  3  1  0  0  0  0
  2 27  1  0  0  0  0
  2 28  1  0  0  0  0
  3 22  1  0  0  0  0
  3  4  1  0  0  0  0
  4  5  2  0  0  0  0
  4 29  1  0  0  0  0
  5  6  1  0  0  0  0
  5  8  1  0  0  0  0
  6  7  3  0  0  0  0
  8  9  2  0  0  0  0
  8 10  1  0  0  0  0
 10 11  1  0  0  0  0
 10 22  1  0  0  0  0
 11 12  1  0  0  0  0
 11 30  1  0  0  0  0
 11 31  1  0  0  0  0
 12 13  1  0  0  0  0
 12 14  1  0  0  0  0
 12 32  1  0  0  0  0
 13 33  1  0  0  0  0
 14 15  1  0  0  0  0
 14 34  1  0  0  0  0
 14 35  1  0  0  0  0
 15 21  1  0  0  0  0
 15 16  1  0  0  0  0
 15 48  1  0  0  0  0
 16 17  1  0  0  0  0
 16 36  1  0  0  0  0
 16 37  1  0  0  0  0
 17 18  1  0  0  0  0
 17 38  1  0  0  0  0
 17 39  1  0  0  0  0
 18 19  1  0  0  0  0
 18 20  1  0  0  0  0
 18 40  1  0  0  0  0
 19 41  1  0  0  0  0
 19 42  1  0  0  0  0
 19 43  1  0  0  0  0
 20 21  1  0  0  0  0
 20 44  1  0  0  0  0
 20 45  1  0  0  0  0
 21 46  1  0  0  0  0
 21 47  1  0  0  0  0
 22 23  2  0  0  0  0
M  CHG  1  15   1
M  END
> <s_m_source_file>
AV-unprocessed.smi

> <i_m_source_file_index>
1106

> <i_lp_mmshare_version>
43012

> <i_f3d_flags>
0

> <s_epik_input>
W0NIM11bQ0gyXW4xW2NIXWMoQyNOKWMoPU8pbihjMT1PKVtDSDJdW0NASF0oW09IXSlbQ0gyXU4yW0NIMl1bQ0gyXVtDSF0oW0NIM10pW0NIMl1bQ0gyXTI=

> <s_epik_cmdline>
J2VwaWtfcHl0aG9uJywgJy1waCcsICc3LjAnLCAnLXRuJywgJzgnLCAnLW1hJywgJzIwMCcsICctbWV0YWxfYmluZGluZycsICctaW1hZScsICc8aW5maWxlLm1hZT4nLCAnLW9tYWUnLCAnPG91dGZpbGUubWFlPic=

> <r_epik_Ionization_Penalty>
0.00136816

> <r_epik_Ionization_Penalty_Charging>
0.00136813

> <r_epik_Ionization_Penalty_Neutral>
3.19882e-08

> <r_epik_State_Penalty>
0.000910892

> <r_epik_Charging_Adjusted_Penalty>
0.00227902

> <i_epik_Tot_Q>
1

> <i_epik_Tot_abs_Q>
1

> <r_epik_Metal_State_Penalty>
-0

> <b_epik_Metal_Only>
0

> <s_lp_Force_Field>
OPLS_2005

> <r_lp_Energy>
30.5318

> <b_lp_Chiralities_Consistent>
1

> <s_lp_Variant>
AV-unprocessed.smi:1106-4

> <Gold.Version>
5.8.1

> <Gold.Id.Protein>
6NUR|6NUR_protein|mol2

> <Gold.PLP.Fitness>
46.9849

> <Gold.PLP.PLP>
-43.7603

> <Gold.PLP.part.hbond>
-2.0000

> <Gold.PLP.part.metal>
0.0000

> <Gold.PLP.part.buried>
-4.3491

> <Gold.PLP.part.nonpolar>
-35.9933

> <Gold.PLP.part.repulsive>
0.0904

> <Gold.PLP.ligand.clash>
0.0000

> <Gold.PLP.ligand.torsion>
1.4139

> <Gold.PLP.Chemscore.Hbond>
1.8882

> <Gold.PLP.Chemscore.CHOScore>
0.1112

> <Gold.PLP.Chemscore.Metal>
0.0000

> <Gold.Chemscore.Hbonds>
donor molecule, donor type, donor heavy atom, donor atom, acceptor molecule, acceptor atom, score
      P1  H  7989  7998       L1     7  0.74
      P1  H  7997  8008       L1     9  1.00
      L1  C     4    29       P1  8028  0.04

> <Gold.PLP.Chemscore.Internal.Correction>
0.0544

> <Gold.Rescore>
     Score         DG    S(hbond)    S(metal)    S(lipo)     H(rot)  DE(clash)    DE(int)     intcor
     14.52     -16.18       1.52        0.00     102.48       2.48       0.23       1.42       ----

> <Gold.Chemscore.Fitness>
14.5235

> <Gold.Chemscore.DG>
-16.1776

> <Gold.Chemscore.ZeroCoef>
-5.4800

> <Gold.Chemscore.Hbond>
1.5168

> <Gold.Chemscore.Metal>
0.0000

> <Gold.Chemscore.Lipo>
102.4774

> <Gold.Chemscore.Internal_Hbond>
0.0000

> <Gold.Chemscore.DEClash>
0.2302

> <Gold.Chemscore.DEInternal>
1.4239

> <Gold.Chemscore.Rot>
2.4838

> <Gold.Chemscore.Internal.Correction>
   9.000000E+99

> <Gold.Chemscore.Hbonds>
donor molecule, donor type, donor heavy atom, donor atom, acceptor molecule, acceptor atom, score
      P1  H  7989  7998       L1     7  0.69
      P1  H  7997  8008       L1     9  0.44

> <Gold.Chemscore.Hbond.Weighted>
-5.0662

> <Gold.Chemscore.Metal.Weighted>
-0.0000

> <Gold.Chemscore.Lipo.Weighted>
-11.9899

> <Gold.Chemscore.Internal_Hbond.Weighted>
0.0000

> <Gold.Chemscore.DEClash.Weighted>
0.2302

> <Gold.Chemscore.DEInternal.Weighted>
1.4239

> <Gold.Chemscore.Rot.Weighted>
6.3585

> <Gold.Chemscore.Internal.Correction.Weighted>
   9.000000E+99

> <Gold.Protein.RotatedTorsions>
[ 6907 6896 6895 6894 ] final   19.42 input  -60.11 | X-H torsion
[ 7974 7965 7964 7962 ] final   31.00 input  175.53 | X-H torsion
[ 8008 7997 7996 7995 ] final  -56.20 input   59.86 | X-H torsion
[ 10167 10162 10161 10158 ] final  -43.57 input  -65.29 | X-H torsion
[ 10718 10713 10712 10709 ] final  130.27 input   66.30 | X-H torsion
[ 10763 10752 10751 10750 ] final  174.35 input  -60.55 | X-H torsion
[ 11005 11000 10999 10996 ] final -124.43 input  -57.11 | X-H torsion

> <Gold.Protein.ActiveResidues>
 VAL166  LYS551  ARG553  GLY616  TRP617  ASP618  TYR619  PRO620  LYS621  CYS622 
 ASP623  PHE694  ASN695  SER759  ASP760  ASP761  ALA762  ILE779  LEU786  VAL792 
 PHE793  MET794  SER795  GLU796  ALA797  LYS798  CYS799  TRP800  GLU811  SER814 

> <Gold.Protein.RotatedAtoms>
  151.8806  135.0455  160.0488 H   0  0  0  0  0  0  0  0  0  0  0  0  # atno 6907 bound_to 6896
  152.2516  133.5215  159.5337 H   0  0  0  0  0  0  0  0  0  0  0  0  # atno 6908 bound_to 6896
  150.7085  134.0869  159.3960 H   0  0  0  0  0  0  0  0  0  0  0  0  # atno 6909 bound_to 6896
  146.1577  139.6715  142.9055 H   0  0  0  0  0  0  0  0  0  0  0  0  # atno 7974 bound_to 7965
  154.4222  140.1135  156.5600 H   0  0  0  0  0  0  0  0  0  0  0  0  # atno 8008 bound_to 7997
  155.6321  140.3496  155.4667 H   0  0  0  0  0  0  0  0  0  0  0  0  # atno 8009 bound_to 7997
  155.9939  140.1185  157.0601 H   0  0  0  0  0  0  0  0  0  0  0  0  # atno 8010 bound_to 7997
  140.6929  143.2976  151.3371 H   0  0  0  0  0  0  0  0  0  0  0  0  # atno 10167 bound_to 10162
  157.5078  131.1096  150.9337 H   0  0  0  0  0  0  0  0  0  0  0  0  # atno 10718 bound_to 10713
  154.4527  135.2765  155.1770 H   0  0  0  0  0  0  0  0  0  0  0  0  # atno 10763 bound_to 10752
  154.3590  135.6133  153.5684 H   0  0  0  0  0  0  0  0  0  0  0  0  # atno 10764 bound_to 10752
  152.9848  135.5830  154.4874 H   0  0  0  0  0  0  0  0  0  0  0  0  # atno 10765 bound_to 10752
  140.9841  134.0631  157.3731 H   0  0  0  0  0  0  0  0  0  0  0  0  # atno 11005 bound_to 11000
  145.4666  141.0435  143.2722 LP  0  0  0  0  0  0  0  0  0  0  0  0  # atno 17320 bound_to 7965
  144.7985  139.6186  143.7082 LP  0  0  0  0  0  0  0  0  0  0  0  0  # atno 17321 bound_to 7965
  139.6351  144.0647  152.2508 LP  0  0  0  0  0  0  0  0  0  0  0  0  # atno 17342 bound_to 10162
  140.0134  144.6207  150.7628 LP  0  0  0  0  0  0  0  0  0  0  0  0  # atno 17343 bound_to 10162
  156.9987  130.5591  149.5309 LP  0  0  0  0  0  0  0  0  0  0  0  0  # atno 17370 bound_to 10713
  156.0269  130.5362  150.8431 LP  0  0  0  0  0  0  0  0  0  0  0  0  # atno 17371 bound_to 10713
  139.8963  135.0145  156.7044 LP  0  0  0  0  0  0  0  0  0  0  0  0  # atno 17394 bound_to 11000
  140.7141  133.9197  155.8103 LP  0  0  0  0  0  0  0  0  0  0  0  0  # atno 17395 bound_to 11000

$$$$
