AV-unprocessed.smi:528|AV-procd|sdf|2836|dock9
  -GOLD-   2262023323D 1   1.00000     0.00000
 Structure written by MMmdl.
 45 47  0  0  0  0  0  0  0  0  1 V2000
  152.3210  140.1019  158.9654 C   0  0  0  0  0  0  0  0  0  0  0  0
  151.3040  140.9330  158.1655 C   0  0  1  0  0  0  0  0  0  0  0  0
  150.0065  140.2628  158.2406 N   0  0  0  0  0  0  0  0  0  0  0  0
  149.7532  138.9896  157.8999 C   0  0  0  0  0  0  0  0  0  0  0  0
  150.6197  138.1990  157.5247 O   0  0  0  0  0  0  0  0  0  0  0  0
  148.2893  138.5435  158.0072 C   0  0  0  0  0  0  0  0  0  0  0  0
  148.1528  137.1587  158.4888 N   0  0  0  0  0  0  0  0  0  0  0  0
  147.5596  136.9705  159.7529 C   0  0  0  0  0  0  0  0  0  0  0  0
  147.3927  135.7558  160.3106 C   0  0  0  0  0  0  0  0  0  0  0  0
  146.7001  135.5785  161.6530 C   0  0  0  0  0  0  0  0  0  0  0  0
  147.3300  136.2593  162.6106 F   0  0  0  0  0  0  0  0  0  0  0  0
  145.4482  136.0286  161.5794 F   0  0  0  0  0  0  0  0  0  0  0  0
  146.6596  134.2942  162.0097 F   0  0  0  0  0  0  0  0  0  0  0  0
  147.8294  134.6190  159.5238 C   0  0  0  0  0  0  0  0  0  0  0  0
  148.3925  134.7808  158.3104 C   0  0  0  0  0  0  0  0  0  0  0  0
  148.5879  136.1099  157.7270 C   0  0  0  0  0  0  0  0  0  0  0  0
  149.1086  136.2709  156.6225 O   0  0  0  0  0  0  0  0  0  0  0  0
  151.1676  142.3863  158.6872 C   0  0  2  0  0  0  0  0  0  0  0  0
  151.6745  143.4621  157.6917 C   0  0  0  0  0  0  0  0  0  0  0  0
  152.6656  144.2858  158.5312 C   0  0  1  0  0  0  0  0  0  0  0  0
  151.8987  145.0888  159.5973 C   0  0  0  0  0  0  0  0  0  0  0  0
  151.4687  143.9981  160.5958 C   0  0  0  0  0  0  0  0  0  0  0  0
  152.0106  142.7092  159.9473 C   0  0  2  0  0  0  0  0  0  0  0  0
  153.3321  143.1995  159.3639 C   0  0  0  0  0  0  0  0  0  0  0  0
  153.3308  140.5004  158.8770 H   0  0  0  0  0  0  0  0  0  0  0  0
  152.3528  139.0732  158.6042 H   0  0  0  0  0  0  0  0  0  0  0  0
  152.0656  140.0726  160.0252 H   0  0  0  0  0  0  0  0  0  0  0  0
  151.6472  140.9672  157.1304 H   0  0  0  0  0  0  0  0  0  0  0  0
  149.2271  140.8284  158.5436 H   0  0  0  0  0  0  0  0  0  0  0  0
  147.7713  139.2403  158.6673 H   0  0  0  0  0  0  0  0  0  0  0  0
  147.7965  138.6470  157.0384 H   0  0  0  0  0  0  0  0  0  0  0  0
  147.2501  137.8810  160.2453 H   0  0  0  0  0  0  0  0  0  0  0  0
  147.7089  133.6201  159.9165 H   0  0  0  0  0  0  0  0  0  0  0  0
  148.7098  133.9112  157.7538 H   0  0  0  0  0  0  0  0  0  0  0  0
  150.1125  142.5643  158.9023 H   0  0  0  0  0  0  0  0  0  0  0  0
  152.2006  143.0157  156.8470 H   0  0  0  0  0  0  0  0  0  0  0  0
  150.8634  144.0694  157.2886 H   0  0  0  0  0  0  0  0  0  0  0  0
  153.3465  144.8913  157.9324 H   0  0  0  0  0  0  0  0  0  0  0  0
  152.5506  145.8172  160.0811 H   0  0  0  0  0  0  0  0  0  0  0  0
  151.0485  145.6262  159.1755 H   0  0  0  0  0  0  0  0  0  0  0  0
  151.9340  144.1659  161.5679 H   0  0  0  0  0  0  0  0  0  0  0  0
  150.3887  143.9707  160.7456 H   0  0  0  0  0  0  0  0  0  0  0  0
  152.1047  141.8895  160.6581 H   0  0  0  0  0  0  0  0  0  0  0  0
  153.8507  142.4497  158.7642 H   0  0  0  0  0  0  0  0  0  0  0  0
  154.0187  143.5918  160.1162 H   0  0  0  0  0  0  0  0  0  0  0  0
  1  2  1  0  0  0  0
  1 25  1  0  0  0  0
  1 26  1  0  0  0  0
  1 27  1  0  0  0  0
  2  3  1  0  0  0  0
  2 18  1  0  0  0  0
  2 28  1  0  0  0  0
  3  4  1  0  0  0  0
  3 29  1  0  0  0  0
  4  5  2  0  0  0  0
  4  6  1  0  0  0  0
  6  7  1  0  0  0  0
  6 30  1  0  0  0  0
  6 31  1  0  0  0  0
  7 16  1  0  0  0  0
  7  8  1  0  0  0  0
  8  9  2  0  0  0  0
  8 32  1  0  0  0  0
  9 10  1  0  0  0  0
  9 14  1  0  0  0  0
 10 11  1  0  0  0  0
 10 12  1  0  0  0  0
 10 13  1  0  0  0  0
 14 15  2  0  0  0  0
 14 33  1  0  0  0  0
 15 16  1  0  0  0  0
 15 34  1  0  0  0  0
 16 17  2  0  0  0  0
 18 23  1  0  0  0  0
 18 19  1  0  0  0  0
 18 35  1  0  0  0  0
 19 20  1  0  0  0  0
 19 36  1  0  0  0  0
 19 37  1  0  0  0  0
 20 24  1  0  0  0  0
 20 21  1  0  0  0  0
 20 38  1  0  0  0  0
 21 22  1  0  0  0  0
 21 39  1  0  0  0  0
 21 40  1  0  0  0  0
 22 23  1  0  0  0  0
 22 41  1  0  0  0  0
 22 42  1  0  0  0  0
 23 24  1  0  0  0  0
 23 43  1  0  0  0  0
 24 44  1  0  0  0  0
 24 45  1  0  0  0  0
M  END
> <s_m_source_file>
AV-unprocessed.smi

> <i_m_source_file_index>
528

> <i_lp_mmshare_version>
43012

> <i_f3d_flags>
0

> <s_epik_input>
W0NIMl0xW0NIMl1bQ0BASF0oW0NIMl0yKVtDQEBIXShbQ0gyXVtDQEhdMTIpW0NASF0oW0NIM10pW05IXUMoPU8pW0NIMl1uM1tjSF1jKEMoRikoRilGKVtjSF1bY0hdYzM9Tw==

> <s_epik_cmdline>
J2VwaWtfcHl0aG9uJywgJy1waCcsICc3LjAnLCAnLXRuJywgJzgnLCAnLW1hJywgJzIwMCcsICctbWV0YWxfYmluZGluZycsICctaW1hZScsICc8aW5maWxlLm1hZT4nLCAnLW9tYWUnLCAnPG91dGZpbGUubWFlPic=

> <r_lp_tautomer_probability>
1

> <r_epik_Ionization_Penalty>
4.09479e-08

> <r_epik_Ionization_Penalty_Charging>
1.9321e-08

> <r_epik_Ionization_Penalty_Neutral>
2.16269e-08

> <r_epik_State_Penalty>
-0

> <r_epik_Charging_Adjusted_Penalty>
1.9321e-08

> <i_epik_Tot_Q>
0

> <i_epik_Tot_abs_Q>
0

> <r_epik_Metal_State_Penalty>
-0

> <b_epik_Metal_Only>
0

> <s_lp_Force_Field>
OPLS_2005

> <r_lp_Energy>
62.8614

> <b_lp_Chiralities_Consistent>
1

> <s_lp_Variant>
AV-unprocessed.smi:528-6

> <Gold.Version>
5.8.1

> <Gold.Id.Protein>
6NUR|6NUR_protein|mol2

> <Gold.PLP.Fitness>
46.2353

> <Gold.PLP.PLP>
-49.9516

> <Gold.PLP.part.hbond>
0.0000

> <Gold.PLP.part.metal>
0.0000

> <Gold.PLP.part.buried>
-4.8576

> <Gold.PLP.part.nonpolar>
-45.8950

> <Gold.PLP.part.repulsive>
0.1968

> <Gold.PLP.ligand.clash>
0.0000

> <Gold.PLP.ligand.torsion>
1.8916

> <Gold.PLP.Chemscore.Hbond>
0.0000

> <Gold.PLP.Chemscore.CHOScore>
0.0000

> <Gold.PLP.Chemscore.Metal>
0.0000

> <Gold.PLP.Chemscore.Internal.Correction>
0.0669

> <Gold.Rescore>
     Score         DG    S(hbond)    S(metal)    S(lipo)     H(rot)  DE(clash)    DE(int)     intcor
      9.68     -15.24       0.00        0.00     120.88       1.71       0.14       5.42       ----

> <Gold.Chemscore.Fitness>
9.6781

> <Gold.Chemscore.DG>
-15.2389

> <Gold.Chemscore.ZeroCoef>
-5.4800

> <Gold.Chemscore.Hbond>
0.0000

> <Gold.Chemscore.Metal>
0.0000

> <Gold.Chemscore.Lipo>
120.8789

> <Gold.Chemscore.Internal_Hbond>
0.0000

> <Gold.Chemscore.DEClash>
0.1402

> <Gold.Chemscore.DEInternal>
5.4206

> <Gold.Chemscore.Rot>
1.7125

> <Gold.Chemscore.Internal.Correction>
   9.000000E+99

> <Gold.Chemscore.Hbond.Weighted>
-0.0000

> <Gold.Chemscore.Metal.Weighted>
-0.0000

> <Gold.Chemscore.Lipo.Weighted>
-14.1428

> <Gold.Chemscore.Internal_Hbond.Weighted>
0.0000

> <Gold.Chemscore.DEClash.Weighted>
0.1402

> <Gold.Chemscore.DEInternal.Weighted>
5.4206

> <Gold.Chemscore.Rot.Weighted>
4.3840

> <Gold.Chemscore.Internal.Correction.Weighted>
   9.000000E+99

> <Gold.Protein.RotatedTorsions>
[ 6907 6896 6895 6894 ] final  -54.32 input  -60.11 | X-H torsion
[ 7974 7965 7964 7962 ] final -175.53 input  175.53 | X-H torsion
[ 8008 7997 7996 7995 ] final  -27.87 input   59.86 | X-H torsion
[ 10167 10162 10161 10158 ] final    0.28 input  -65.29 | X-H torsion
[ 10718 10713 10712 10709 ] final   71.90 input   66.30 | X-H torsion
[ 10763 10752 10751 10750 ] final  147.96 input  -60.55 | X-H torsion
[ 11005 11000 10999 10996 ] final  -16.67 input  -57.11 | X-H torsion

> <Gold.Protein.ActiveResidues>
 VAL166  LYS551  ARG553  GLY616  TRP617  ASP618  TYR619  PRO620  LYS621  CYS622 
 ASP623  PHE694  ASN695  SER759  ASP760  ASP761  ALA762  ILE779  LEU786  VAL792 
 PHE793  MET794  SER795  GLU796  ALA797  LYS798  CYS799  TRP800  GLU811  SER814 

> <Gold.Protein.RotatedAtoms>
  150.8348  134.7617  159.6883 H   0  0  0  0  0  0  0  0  0  0  0  0  # atno 6907 bound_to 6896
  152.4447  134.5516  159.9878 H   0  0  0  0  0  0  0  0  0  0  0  0  # atno 6908 bound_to 6896
  151.5669  133.3357  159.3018 H   0  0  0  0  0  0  0  0  0  0  0  0  # atno 6909 bound_to 6896
  144.7128  140.1307  143.6399 H   0  0  0  0  0  0  0  0  0  0  0  0  # atno 7974 bound_to 7965
  154.4357  140.1860  156.1001 H   0  0  0  0  0  0  0  0  0  0  0  0  # atno 8008 bound_to 7997
  156.0299  140.3331  155.7102 H   0  0  0  0  0  0  0  0  0  0  0  0  # atno 8009 bound_to 7997
  155.5855  140.0626  157.2763 H   0  0  0  0  0  0  0  0  0  0  0  0  # atno 8010 bound_to 7997
  140.6736  143.6980  150.7974 H   0  0  0  0  0  0  0  0  0  0  0  0  # atno 10167 bound_to 10162
  157.6475  130.9552  150.0854 H   0  0  0  0  0  0  0  0  0  0  0  0  # atno 10718 bound_to 10713
  154.0469  135.2885  155.3346 H   0  0  0  0  0  0  0  0  0  0  0  0  # atno 10763 bound_to 10752
  154.6894  135.5232  153.8374 H   0  0  0  0  0  0  0  0  0  0  0  0  # atno 10764 bound_to 10752
  153.0577  135.6601  154.0669 H   0  0  0  0  0  0  0  0  0  0  0  0  # atno 10765 bound_to 10752
  140.8091  133.8154  155.9545 H   0  0  0  0  0  0  0  0  0  0  0  0  # atno 11005 bound_to 11000
  145.9289  139.2593  143.1337 LP  0  0  0  0  0  0  0  0  0  0  0  0  # atno 17320 bound_to 7965
  145.9543  140.8885  143.0243 LP  0  0  0  0  0  0  0  0  0  0  0  0  # atno 17321 bound_to 7965
  140.0670  143.5099  152.2599 LP  0  0  0  0  0  0  0  0  0  0  0  0  # atno 17342 bound_to 10162
  139.6016  144.7584  151.3159 LP  0  0  0  0  0  0  0  0  0  0  0  0  # atno 17343 bound_to 10162
  156.1818  130.3650  149.9025 LP  0  0  0  0  0  0  0  0  0  0  0  0  # atno 17370 bound_to 10713
  156.6975  130.8920  151.3595 LP  0  0  0  0  0  0  0  0  0  0  0  0  # atno 17371 bound_to 10713
  140.9216  134.2134  157.4922 LP  0  0  0  0  0  0  0  0  0  0  0  0  # atno 17394 bound_to 11000
  139.8715  134.9795  156.5038 LP  0  0  0  0  0  0  0  0  0  0  0  0  # atno 17395 bound_to 11000

$$$$
