AV-unprocessed.smi:1759|AV-procd|sdf|7088|dock1
  -GOLD-   22720 8303D 1   1.00000     0.00000
 Structure written by MMmdl.
 31 32  0  0  0  0  0  0  0  0  1 V2000
  147.1992  140.6601  152.9556 C   0  0  0  0  0  0  0  0  0  0  0  0
  148.3097  140.7052  153.9479 C   0  0  0  0  0  0  0  0  0  0  0  0
  148.5598  141.5030  155.0288 C   0  0  0  0  0  0  0  0  0  0  0  0
  149.7927  140.9977  155.5203 C   0  0  0  0  0  0  0  0  0  0  0  0
  150.4117  141.5718  156.6596 N   0  0  0  0  0  0  0  0  0  0  0  0
  151.4877  141.1169  157.3234 C   0  0  0  0  0  0  0  0  0  0  0  0
  152.1052  140.0865  157.0525 O   0  0  0  0  0  0  0  0  0  0  0  0
  151.8128  141.9292  158.3388 N   0  0  0  0  0  0  0  0  0  0  0  0
  152.9132  141.7036  159.2688 C   0  0  0  0  0  0  0  0  0  0  0  0
  152.4670  141.9083  160.7256 C   0  0  1  0  0  0  0  0  0  0  0  0
  153.5835  141.6869  161.7449 C   0  0  0  0  0  0  0  0  0  0  0  0
  153.1250  142.5515  162.8964 C   0  0  0  0  0  0  0  0  0  0  0  0
  152.5476  143.7565  162.1620 C   0  0  0  0  0  0  0  0  0  0  0  0
  152.0345  143.2524  160.9318 O   0  0  0  0  0  0  0  0  0  0  0  0
  150.2531  139.9826  154.8050 N   0  0  0  0  0  0  0  0  0  0  0  0
  149.3048  139.7900  153.7934 O   0  0  0  0  0  0  0  0  0  0  0  0
  146.4557  141.4286  153.1675 H   0  0  0  0  0  0  0  0  0  0  0  0
  146.7005  139.6911  152.9783 H   0  0  0  0  0  0  0  0  0  0  0  0
  147.5769  140.8237  151.9464 H   0  0  0  0  0  0  0  0  0  0  0  0
  147.9569  142.3166  155.4042 H   0  0  0  0  0  0  0  0  0  0  0  0
  149.9944  142.4245  157.0019 H   0  0  0  0  0  0  0  0  0  0  0  0
  151.2486  142.7518  158.4938 H   0  0  0  0  0  0  0  0  0  0  0  0
  153.3159  140.6981  159.1341 H   0  0  0  0  0  0  0  0  0  0  0  0
  153.7201  142.3944  159.0230 H   0  0  0  0  0  0  0  0  0  0  0  0
  151.6332  141.2472  160.9686 H   0  0  0  0  0  0  0  0  0  0  0  0
  153.7060  140.6387  162.0183 H   0  0  0  0  0  0  0  0  0  0  0  0
  154.5365  142.0542  161.3608 H   0  0  0  0  0  0  0  0  0  0  0  0
  152.3423  142.0424  163.4604 H   0  0  0  0  0  0  0  0  0  0  0  0
  153.9291  142.8151  163.5840 H   0  0  0  0  0  0  0  0  0  0  0  0
  151.7758  144.2666  162.7390 H   0  0  0  0  0  0  0  0  0  0  0  0
  153.3349  144.4772  161.9376 H   0  0  0  0  0  0  0  0  0  0  0  0
  1  2  1  0  0  0  0
  1 17  1  0  0  0  0
  1 18  1  0  0  0  0
  1 19  1  0  0  0  0
  2 16  1  0  0  0  0
  2  3  2  0  0  0  0
  3  4  1  0  0  0  0
  3 20  1  0  0  0  0
  4  5  1  0  0  0  0
  4 15  2  0  0  0  0
  5  6  1  0  0  0  0
  5 21  1  0  0  0  0
  6  7  2  0  0  0  0
  6  8  1  0  0  0  0
  8  9  1  0  0  0  0
  8 22  1  0  0  0  0
  9 10  1  0  0  0  0
  9 23  1  0  0  0  0
  9 24  1  0  0  0  0
 10 14  1  0  0  0  0
 10 11  1  0  0  0  0
 10 25  1  0  0  0  0
 11 12  1  0  0  0  0
 11 26  1  0  0  0  0
 11 27  1  0  0  0  0
 12 13  1  0  0  0  0
 12 28  1  0  0  0  0
 12 29  1  0  0  0  0
 13 14  1  0  0  0  0
 13 30  1  0  0  0  0
 13 31  1  0  0  0  0
 15 16  1  0  0  0  0
M  END
> <s_m_source_file>
AV-unprocessed.smi

> <i_m_source_file_index>
1759

> <i_lp_mmshare_version>
43012

> <i_f3d_flags>
0

> <s_epik_input>
W0NIM11jMVtjSF1jKG5vMSlbTkhdQyg9TylbTkhdW0NIMl1bQ0BASF0yW0NIMl1bQ0gyXVtDSDJdTzI=

> <s_epik_cmdline>
J2VwaWtfcHl0aG9uJywgJy1waCcsICc3LjAnLCAnLXRuJywgJzgnLCAnLW1hJywgJzIwMCcsICctbWV0YWxfYmluZGluZycsICctaW1hZScsICc8aW5maWxlLm1hZT4nLCAnLW9tYWUnLCAnPG91dGZpbGUubWFlPic=

> <r_lp_tautomer_probability>
1

> <r_epik_Ionization_Penalty>
2.1743e-05

> <r_epik_Ionization_Penalty_Charging>
0

> <r_epik_Ionization_Penalty_Neutral>
2.1743e-05

> <r_epik_State_Penalty>
-0

> <r_epik_Charging_Adjusted_Penalty>
0

> <i_epik_Tot_Q>
0

> <i_epik_Tot_abs_Q>
0

> <r_epik_Metal_State_Penalty>
-0

> <b_epik_Metal_Only>
0

> <s_lp_Force_Field>
OPLS_2005

> <r_lp_Energy>
14.348

> <b_lp_Chiralities_Consistent>
1

> <s_lp_Variant>
AV-unprocessed.smi:1759-2

> <Gold.Version>
5.8.1

> <Gold.Id.Protein>
6NUR|6NUR_protein|mol2

> <Gold.PLP.Fitness>
35.6935

> <Gold.PLP.PLP>
-31.1732

> <Gold.PLP.part.hbond>
-2.0739

> <Gold.PLP.part.metal>
0.0000

> <Gold.PLP.part.buried>
-4.1459

> <Gold.PLP.part.nonpolar>
-28.0921

> <Gold.PLP.part.repulsive>
3.6555

> <Gold.PLP.ligand.clash>
0.0000

> <Gold.PLP.ligand.torsion>
0.0887

> <Gold.PLP.Chemscore.Hbond>
1.5638

> <Gold.PLP.Chemscore.CHOScore>
0.0000

> <Gold.PLP.Chemscore.Metal>
0.0000

> <Gold.Chemscore.Hbonds>
donor molecule, donor type, donor heavy atom, donor atom, acceptor molecule, acceptor atom, score
      P1  H  7989  7998       L1    15  0.55
      P1  H  7997  8008       L1     7  0.32

> <Gold.PLP.Chemscore.Internal.Correction>
0.0065

> <Gold.Rescore>
     Score         DG    S(hbond)    S(metal)    S(lipo)     H(rot)  DE(clash)    DE(int)     intcor
     12.63     -14.23       0.93        0.00      76.52       1.30       0.28       1.32       ----

> <Gold.Chemscore.Fitness>
12.6299

> <Gold.Chemscore.DG>
-14.2312

> <Gold.Chemscore.ZeroCoef>
-5.4800

> <Gold.Chemscore.Hbond>
0.9334

> <Gold.Chemscore.Metal>
0.0000

> <Gold.Chemscore.Lipo>
76.5189

> <Gold.Chemscore.Internal_Hbond>
0.0000

> <Gold.Chemscore.DEClash>
0.2807

> <Gold.Chemscore.DEInternal>
1.3206

> <Gold.Chemscore.Rot>
1.2965

> <Gold.Chemscore.Internal.Correction>
   9.000000E+99

> <Gold.Chemscore.Hbonds>
donor molecule, donor type, donor heavy atom, donor atom, acceptor molecule, acceptor atom, score
      P1  H  7989  7998       L1    15  0.02
      P1  H  7997  8008       L1     7  0.30

> <Gold.Chemscore.Hbond.Weighted>
-3.1177

> <Gold.Chemscore.Metal.Weighted>
-0.0000

> <Gold.Chemscore.Lipo.Weighted>
-8.9527

> <Gold.Chemscore.Internal_Hbond.Weighted>
0.0000

> <Gold.Chemscore.DEClash.Weighted>
0.2807

> <Gold.Chemscore.DEInternal.Weighted>
1.3206

> <Gold.Chemscore.Rot.Weighted>
3.3192

> <Gold.Chemscore.Internal.Correction.Weighted>
   9.000000E+99

> <Gold.Protein.RotatedTorsions>
[ 6907 6896 6895 6894 ] final   93.80 input  -60.11 | X-H torsion
[ 7974 7965 7964 7962 ] final   45.08 input  175.53 | X-H torsion
[ 8008 7997 7996 7995 ] final  -51.24 input   59.86 | X-H torsion
[ 10167 10162 10161 10158 ] final   49.33 input  -65.29 | X-H torsion
[ 10718 10713 10712 10709 ] final   59.47 input   66.30 | X-H torsion
[ 10763 10752 10751 10750 ] final -170.06 input  -60.55 | X-H torsion
[ 11005 11000 10999 10996 ] final  -91.82 input  -57.11 | X-H torsion

> <Gold.Protein.ActiveResidues>
 VAL166  LYS551  ARG553  GLY616  TRP617  ASP618  TYR619  PRO620  LYS621  CYS622 
 ASP623  PHE694  ASN695  SER759  ASP760  ASP761  ALA762  ILE779  LEU786  VAL792 
 PHE793  MET794  SER795  GLU796  ALA797  LYS798  CYS799  TRP800  GLU811  SER814 

> <Gold.Protein.RotatedAtoms>
  152.5451  134.1292  159.8431 H   0  0  0  0  0  0  0  0  0  0  0  0  # atno 6907 bound_to 6896
  151.1340  133.5010  159.2606 H   0  0  0  0  0  0  0  0  0  0  0  0  # atno 6908 bound_to 6896
  151.1645  135.0299  159.8779 H   0  0  0  0  0  0  0  0  0  0  0  0  # atno 6909 bound_to 6896
  146.0512  139.5004  142.9717 H   0  0  0  0  0  0  0  0  0  0  0  0  # atno 7974 bound_to 7965
  154.4079  140.1252  156.4797 H   0  0  0  0  0  0  0  0  0  0  0  0  # atno 8008 bound_to 7997
  155.7097  140.3494  155.4949 H   0  0  0  0  0  0  0  0  0  0  0  0  # atno 8009 bound_to 7997
  155.9311  140.1070  157.1121 H   0  0  0  0  0  0  0  0  0  0  0  0  # atno 8010 bound_to 7997
  140.2840  144.3123  150.6257 H   0  0  0  0  0  0  0  0  0  0  0  0  # atno 10167 bound_to 10162
  157.5678  130.8884  149.9216 H   0  0  0  0  0  0  0  0  0  0  0  0  # atno 10718 bound_to 10713
  154.6456  135.2904  155.0051 H   0  0  0  0  0  0  0  0  0  0  0  0  # atno 10763 bound_to 10752
  154.1162  135.6555  153.4898 H   0  0  0  0  0  0  0  0  0  0  0  0  # atno 10764 bound_to 10752
  153.0349  135.5277  154.7341 H   0  0  0  0  0  0  0  0  0  0  0  0  # atno 10765 bound_to 10752
  141.1536  133.7780  156.9932 H   0  0  0  0  0  0  0  0  0  0  0  0  # atno 11005 bound_to 11000
  145.6721  141.0214  143.1652 LP  0  0  0  0  0  0  0  0  0  0  0  0  # atno 17320 bound_to 7965
  144.7123  139.8323  143.7410 LP  0  0  0  0  0  0  0  0  0  0  0  0  # atno 17321 bound_to 7965
  140.5788  143.2174  151.7467 LP  0  0  0  0  0  0  0  0  0  0  0  0  # atno 17342 bound_to 10162
  139.4955  144.4111  152.0080 LP  0  0  0  0  0  0  0  0  0  0  0  0  # atno 17343 bound_to 10162
  156.0725  130.3683  150.0746 LP  0  0  0  0  0  0  0  0  0  0  0  0  # atno 17370 bound_to 10713
  156.8903  130.9586  151.3589 LP  0  0  0  0  0  0  0  0  0  0  0  0  # atno 17371 bound_to 10713
  140.0989  134.9547  157.1892 LP  0  0  0  0  0  0  0  0  0  0  0  0  # atno 17394 bound_to 11000
  140.3345  134.2772  155.7222 LP  0  0  0  0  0  0  0  0  0  0  0  0  # atno 17395 bound_to 11000

$$$$
