AV-unprocessed.smi:3340|AV-procd|sdf|12880|dock1
  -GOLD-   2272019283D 1   1.00000     0.00000
 Structure written by MMmdl.
 42 43  0  0  0  0  0  0  0  0  2 V2000
  148.5151  138.6742  154.4926 C   0  0  0  0  0  0  0  0  0  0  0  0
  149.9190  139.2359  154.7277 C   0  0  0  0  0  0  0  0  0  0  0  0
  150.7758  139.0242  153.8693 O   0  0  0  0  0  0  0  0  0  0  0  0
  150.1731  139.9379  155.8584 N   0  0  0  0  0  0  0  0  0  0  0  0
  149.1376  140.2334  156.8606 C   0  0  0  0  0  0  0  0  0  0  0  0
  148.9346  141.7599  156.9402 C   0  0  0  0  0  0  0  0  0  0  0  0
  150.2198  142.3948  157.2901 N   0  0  0  0  0  0  0  0  0  0  0  0
  150.5229  142.9990  158.4663 C   0  0  0  0  0  0  0  0  0  0  0  0
  149.7786  142.9728  159.4468 O   0  0  0  0  0  0  0  0  0  0  0  0
  151.7341  143.5856  158.4970 N   0  0  0  0  0  0  0  0  0  0  0  0
  152.3604  144.2977  159.6152 C   0  0  1  0  0  0  0  0  0  0  0  0
  151.9377  145.7763  159.6427 C   0  0  0  0  0  0  0  0  0  0  0  0
  152.1393  143.6030  160.9788 C   0  0  0  0  0  0  0  0  0  0  0  0
  153.0599  142.4847  161.2058 N   0  0  0  0  0  0  0  0  0  0  0  0
  153.5391  141.6007  160.2735 C   0  0  0  0  0  0  0  0  0  0  0  0
  154.3630  140.7341  160.9444 C   0  0  0  0  0  0  0  0  0  0  0  0
  154.3497  141.1240  162.2569 N   0  3  0  0  0  0  0  0  0  0  0  0
  153.5544  142.1873  162.4142 C   0  0  0  0  0  0  0  0  0  0  0  0
  151.2435  142.1039  156.2750 C   0  0  0  0  0  0  0  0  0  0  0  0
  151.4542  140.5788  156.1958 C   0  0  0  0  0  0  0  0  0  0  0  0
  148.2407  137.9754  155.2831 H   0  0  0  0  0  0  0  0  0  0  0  0
  148.4704  138.1371  153.5445 H   0  0  0  0  0  0  0  0  0  0  0  0
  147.7782  139.4767  154.4543 H   0  0  0  0  0  0  0  0  0  0  0  0
  148.1843  139.7519  156.6384 H   0  0  0  0  0  0  0  0  0  0  0  0
  149.4525  139.8419  157.8292 H   0  0  0  0  0  0  0  0  0  0  0  0
  148.5993  142.1431  155.9752 H   0  0  0  0  0  0  0  0  0  0  0  0
  148.1260  141.9777  157.6372 H   0  0  0  0  0  0  0  0  0  0  0  0
  152.2768  143.5418  157.6465 H   0  0  0  0  0  0  0  0  0  0  0  0
  153.4305  144.2791  159.4062 H   0  0  0  0  0  0  0  0  0  0  0  0
  152.4994  146.3273  160.3972 H   0  0  0  0  0  0  0  0  0  0  0  0
  150.8786  145.8912  159.8750 H   0  0  0  0  0  0  0  0  0  0  0  0
  152.1224  146.2564  158.6811 H   0  0  0  0  0  0  0  0  0  0  0  0
  152.2840  144.3164  161.7915 H   0  0  0  0  0  0  0  0  0  0  0  0
  151.1203  143.2285  161.0790 H   0  0  0  0  0  0  0  0  0  0  0  0
  153.2668  141.6552  159.2290 H   0  0  0  0  0  0  0  0  0  0  0  0
  154.9419  139.8913  160.5955 H   0  0  0  0  0  0  0  0  0  0  0  0
  153.3536  142.7054  163.3350 H   0  0  0  0  0  0  0  0  0  0  0  0
  150.9128  142.4892  155.3094 H   0  0  0  0  0  0  0  0  0  0  0  0
  152.1942  142.5976  156.4803 H   0  0  0  0  0  0  0  0  0  0  0  0
  151.8014  140.1967  157.1571 H   0  0  0  0  0  0  0  0  0  0  0  0
  152.2526  140.3616  155.4882 H   0  0  0  0  0  0  0  0  0  0  0  0
  154.8648  140.6735  163.0031 H   0  0  0  0  0  0  0  0  0  0  0  0
  1  2  1  0  0  0  0
  1 21  1  0  0  0  0
  1 22  1  0  0  0  0
  1 23  1  0  0  0  0
  2  3  2  0  0  0  0
  2  4  1  0  0  0  0
  4 20  1  0  0  0  0
  4  5  1  0  0  0  0
  5  6  1  0  0  0  0
  5 24  1  0  0  0  0
  5 25  1  0  0  0  0
  6  7  1  0  0  0  0
  6 26  1  0  0  0  0
  6 27  1  0  0  0  0
  7  8  1  0  0  0  0
  7 19  1  0  0  0  0
  8  9  2  0  0  0  0
  8 10  1  0  0  0  0
 10 11  1  0  0  0  0
 10 28  1  0  0  0  0
 11 12  1  0  0  0  0
 11 13  1  0  0  0  0
 11 29  1  0  0  0  0
 12 30  1  0  0  0  0
 12 31  1  0  0  0  0
 12 32  1  0  0  0  0
 13 14  1  0  0  0  0
 13 33  1  0  0  0  0
 13 34  1  0  0  0  0
 14 18  1  0  0  0  0
 14 15  1  0  0  0  0
 15 16  2  0  0  0  0
 15 35  1  0  0  0  0
 16 17  1  0  0  0  0
 16 36  1  0  0  0  0
 17 18  2  0  0  0  0
 17 42  1  0  0  0  0
 18 37  1  0  0  0  0
 19 20  1  0  0  0  0
 19 38  1  0  0  0  0
 19 39  1  0  0  0  0
 20 40  1  0  0  0  0
 20 41  1  0  0  0  0
M  CHG  1  17   1
M  END
> <s_m_source_file>
AV-unprocessed.smi

> <i_m_source_file_index>
3340

> <i_lp_mmshare_version>
43012

> <i_f3d_flags>
0

> <s_epik_input>
W0NIM11DKD1PKU4xW0NIMl1bQ0gyXU4oW0NIMl1bQ0gyXTEpQyg9TylbTkhdW0NASF0oW0NIM10pW0NIMl1uMltjSF1bY0hdbltjSF0y

> <s_epik_cmdline>
J2VwaWtfcHl0aG9uJywgJy1waCcsICc3LjAnLCAnLXRuJywgJzgnLCAnLW1hJywgJzIwMCcsICctbWV0YWxfYmluZGluZycsICctaW1hZScsICc8aW5maWxlLm1hZT4nLCAnLW9tYWUnLCAnPG91dGZpbGUubWFlPic=

> <r_lp_tautomer_probability>
1

> <r_epik_Ionization_Penalty>
0.254791

> <r_epik_Ionization_Penalty_Charging>
0

> <r_epik_Ionization_Penalty_Neutral>
0.254791

> <r_epik_State_Penalty>
0.246235

> <r_epik_Charging_Adjusted_Penalty>
0.246235

> <i_epik_Tot_Q>
1

> <i_epik_Tot_abs_Q>
1

> <r_epik_Metal_State_Penalty>
0.536161

> <b_epik_Metal_Only>
0

> <s_lp_Force_Field>
OPLS_2005

> <r_lp_Energy>
52.654

> <b_lp_Chiralities_Consistent>
1

> <s_lp_Variant>
AV-unprocessed.smi:3340-2

> <Gold.Version>
5.8.1

> <Gold.Id.Protein>
6NUR|6NUR_protein|mol2

> <Gold.PLP.Fitness>
41.9459

> <Gold.PLP.PLP>
-42.0823

> <Gold.PLP.part.hbond>
-3.0000

> <Gold.PLP.part.metal>
0.0000

> <Gold.PLP.part.buried>
-2.3759

> <Gold.PLP.part.nonpolar>
-35.0588

> <Gold.PLP.part.repulsive>
0.5325

> <Gold.PLP.ligand.clash>
1.2498

> <Gold.PLP.ligand.torsion>
0.9887

> <Gold.PLP.Chemscore.Hbond>
1.0000

> <Gold.PLP.Chemscore.CHOScore>
0.0000

> <Gold.PLP.Chemscore.Metal>
0.0000

> <Gold.Chemscore.Hbonds>
donor molecule, donor type, donor heavy atom, donor atom, acceptor molecule, acceptor atom, score
      P1  H  7989  7998       L1     3  0.94

> <Gold.PLP.Chemscore.Internal.Correction>
0.0908

> <Gold.Rescore>
     Score         DG    S(hbond)    S(metal)    S(lipo)     H(rot)  DE(clash)    DE(int)     intcor
     11.98     -14.35       1.12        0.00      81.01       1.70       0.08       2.29       ----

> <Gold.Chemscore.Fitness>
11.9762

> <Gold.Chemscore.DG>
-14.3492

> <Gold.Chemscore.ZeroCoef>
-5.4800

> <Gold.Chemscore.Hbond>
1.1186

> <Gold.Chemscore.Metal>
0.0000

> <Gold.Chemscore.Lipo>
81.0125

> <Gold.Chemscore.Internal_Hbond>
0.0000

> <Gold.Chemscore.DEClash>
0.0844

> <Gold.Chemscore.DEInternal>
2.2886

> <Gold.Chemscore.Rot>
1.6975

> <Gold.Chemscore.Internal.Correction>
   9.000000E+99

> <Gold.Chemscore.Hbonds>
donor molecule, donor type, donor heavy atom, donor atom, acceptor molecule, acceptor atom, score
      P1  H  6933  6944       L1     9  0.01
      P1  H  7989  7998       L1     3  0.48

> <Gold.Chemscore.Hbond.Weighted>
-3.7363

> <Gold.Chemscore.Metal.Weighted>
-0.0000

> <Gold.Chemscore.Lipo.Weighted>
-9.4785

> <Gold.Chemscore.Internal_Hbond.Weighted>
0.0000

> <Gold.Chemscore.DEClash.Weighted>
0.0844

> <Gold.Chemscore.DEInternal.Weighted>
2.2886

> <Gold.Chemscore.Rot.Weighted>
4.3455

> <Gold.Chemscore.Internal.Correction.Weighted>
   9.000000E+99

> <Gold.Protein.RotatedTorsions>
[ 6907 6896 6895 6894 ] final  -54.76 input  -60.11 | X-H torsion
[ 7974 7965 7964 7962 ] final  -11.79 input  175.53 | X-H torsion
[ 8008 7997 7996 7995 ] final   33.95 input   59.86 | X-H torsion
[ 10167 10162 10161 10158 ] final  172.51 input  -65.29 | X-H torsion
[ 10718 10713 10712 10709 ] final  135.01 input   66.30 | X-H torsion
[ 10763 10752 10751 10750 ] final -147.91 input  -60.55 | X-H torsion
[ 11005 11000 10999 10996 ] final  -37.01 input  -57.11 | X-H torsion

> <Gold.Protein.ActiveResidues>
 VAL166  LYS551  ARG553  GLY616  TRP617  ASP618  TYR619  PRO620  LYS621  CYS622 
 ASP623  PHE694  ASN695  SER759  ASP760  ASP761  ALA762  ILE779  LEU786  VAL792 
 PHE793  MET794  SER795  GLU796  ALA797  LYS798  CYS799  TRP800  GLU811  SER814 

> <Gold.Protein.RotatedAtoms>
  150.8310  134.7563  159.6853 H   0  0  0  0  0  0  0  0  0  0  0  0  # atno 6907 bound_to 6896
  152.4415  134.5579  159.9895 H   0  0  0  0  0  0  0  0  0  0  0  0  # atno 6908 bound_to 6896
  151.5739  133.3348  159.3031 H   0  0  0  0  0  0  0  0  0  0  0  0  # atno 6909 bound_to 6896
  146.2175  140.2963  142.8372 H   0  0  0  0  0  0  0  0  0  0  0  0  # atno 7974 bound_to 7965
  155.1469  140.3271  155.4440 H   0  0  0  0  0  0  0  0  0  0  0  0  # atno 8008 bound_to 7997
  156.2587  140.1984  156.6532 H   0  0  0  0  0  0  0  0  0  0  0  0  # atno 8009 bound_to 7997
  154.6502  140.0559  156.9933 H   0  0  0  0  0  0  0  0  0  0  0  0  # atno 8010 bound_to 7997
  139.5079  144.3366  152.0059 H   0  0  0  0  0  0  0  0  0  0  0  0  # atno 10167 bound_to 10162
  157.4614  131.1074  150.9915 H   0  0  0  0  0  0  0  0  0  0  0  0  # atno 10718 bound_to 10713
  154.8261  135.3348  154.6892 H   0  0  0  0  0  0  0  0  0  0  0  0  # atno 10763 bound_to 10752
  153.7518  135.6939  153.4948 H   0  0  0  0  0  0  0  0  0  0  0  0  # atno 10764 bound_to 10752
  153.2171  135.4462  155.0397 H   0  0  0  0  0  0  0  0  0  0  0  0  # atno 10765 bound_to 10752
  140.9919  133.7000  156.1865 H   0  0  0  0  0  0  0  0  0  0  0  0  # atno 11005 bound_to 11000
  144.9090  140.7734  143.5819 LP  0  0  0  0  0  0  0  0  0  0  0  0  # atno 17320 bound_to 7965
  145.2892  139.1890  143.4749 LP  0  0  0  0  0  0  0  0  0  0  0  0  # atno 17321 bound_to 7965
  140.2804  144.3865  150.6121 LP  0  0  0  0  0  0  0  0  0  0  0  0  # atno 17342 bound_to 10162
  140.6022  143.2167  151.7050 LP  0  0  0  0  0  0  0  0  0  0  0  0  # atno 17343 bound_to 10162
  157.0711  130.5864  149.5402 LP  0  0  0  0  0  0  0  0  0  0  0  0  # atno 17370 bound_to 10713
  156.0030  130.5113  150.7732 LP  0  0  0  0  0  0  0  0  0  0  0  0  # atno 17371 bound_to 10713
  140.7026  134.4547  157.5585 LP  0  0  0  0  0  0  0  0  0  0  0  0  # atno 17394 bound_to 11000
  139.8996  134.8587  156.1952 LP  0  0  0  0  0  0  0  0  0  0  0  0  # atno 17395 bound_to 11000

$$$$
