AV-unprocessed.smi:1522|AV-procd|sdf|6137|dock8
  -GOLD-   22720 6283D 1   1.00000     0.00000
 Structure written by MMmdl.
 34 35  0  0  0  0  0  0  0  0  3 V2000
  149.4379  135.7965  155.3167 C   0  0  0  0  0  0  0  0  0  0  0  0
  149.5175  134.3753  154.7134 C   0  0  1  0  0  0  0  0  0  0  0  0
  149.3705  133.3020  155.8179 C   0  0  0  0  0  0  0  0  0  0  0  0
  148.3195  133.6449  156.7679 N   0  0  0  0  0  0  0  0  0  0  0  0
  148.4826  134.4028  157.8593 C   0  0  0  0  0  0  0  0  0  0  0  0
  149.5930  134.8711  158.1205 O   0  0  0  0  0  0  0  0  0  0  0  0
  147.3500  134.5679  158.5785 N   0  5  0  0  0  0  0  0  0  0  0  0
  147.3677  135.3078  159.6994 C   0  0  0  0  0  0  0  0  0  0  0  0
  147.5249  136.6411  159.6770 N   0  0  0  0  0  0  0  0  0  0  0  0
  147.5083  137.2138  160.9415 N   0  0  0  0  0  0  0  0  0  0  0  0
  147.3306  136.2938  161.8894 C   0  0  0  0  0  0  0  0  0  0  0  0
  147.1631  134.6455  161.3236 S   0  0  0  0  0  0  0  0  0  0  0  0
  148.4889  134.1832  153.6503 N   0  3  0  0  0  0  0  0  0  0  0  0
  148.5039  132.8677  152.9734 C   0  0  0  0  0  0  0  0  0  0  0  0
  147.1264  132.7349  152.3349 C   0  0  0  0  0  0  0  0  0  0  0  0
  146.2081  133.3832  153.3642 C   0  0  0  0  0  0  0  0  0  0  0  0
  147.0853  134.4244  154.0733 C   0  0  0  0  0  0  0  0  0  0  0  0
  150.1811  135.9456  156.1001 H   0  0  0  0  0  0  0  0  0  0  0  0
  148.4573  135.9844  155.7551 H   0  0  0  0  0  0  0  0  0  0  0  0
  149.6253  136.5694  154.5718 H   0  0  0  0  0  0  0  0  0  0  0  0
  150.4989  134.2604  154.2501 H   0  0  0  0  0  0  0  0  0  0  0  0
  149.1450  132.3328  155.3697 H   0  0  0  0  0  0  0  0  0  0  0  0
  150.2983  133.1840  156.3786 H   0  0  0  0  0  0  0  0  0  0  0  0
  147.3956  133.2798  156.5883 H   0  0  0  0  0  0  0  0  0  0  0  0
  147.2933  136.5881  162.9276 H   0  0  0  0  0  0  0  0  0  0  0  0
  149.3027  132.7953  152.2347 H   0  0  0  0  0  0  0  0  0  0  0  0
  148.6455  132.0752  153.7106 H   0  0  0  0  0  0  0  0  0  0  0  0
  147.0950  133.2977  151.4009 H   0  0  0  0  0  0  0  0  0  0  0  0
  146.8566  131.7013  152.1161 H   0  0  0  0  0  0  0  0  0  0  0  0
  145.3185  133.8216  152.9109 H   0  0  0  0  0  0  0  0  0  0  0  0
  145.8766  132.6331  154.0835 H   0  0  0  0  0  0  0  0  0  0  0  0
  146.9660  134.3265  155.1533 H   0  0  0  0  0  0  0  0  0  0  0  0
  146.7982  135.4397  153.7976 H   0  0  0  0  0  0  0  0  0  0  0  0
  148.6811  134.8646  152.9299 H   0  0  0  0  0  0  0  0  0  0  0  0
  1  2  1  0  0  0  0
  1 18  1  0  0  0  0
  1 19  1  0  0  0  0
  1 20  1  0  0  0  0
  2  3  1  0  0  0  0
  2 13  1  0  0  0  0
  2 21  1  0  0  0  0
  3  4  1  0  0  0  0
  3 22  1  0  0  0  0
  3 23  1  0  0  0  0
  4  5  1  0  0  0  0
  4 24  1  0  0  0  0
  5  6  2  0  0  0  0
  5  7  1  0  0  0  0
  7  8  1  0  0  0  0
  8 12  1  0  0  0  0
  8  9  2  0  0  0  0
  9 10  1  0  0  0  0
 10 11  2  0  0  0  0
 11 12  1  0  0  0  0
 11 25  1  0  0  0  0
 13 17  1  0  0  0  0
 13 14  1  0  0  0  0
 13 34  1  0  0  0  0
 14 15  1  0  0  0  0
 14 26  1  0  0  0  0
 14 27  1  0  0  0  0
 15 16  1  0  0  0  0
 15 28  1  0  0  0  0
 15 29  1  0  0  0  0
 16 17  1  0  0  0  0
 16 30  1  0  0  0  0
 16 31  1  0  0  0  0
 17 32  1  0  0  0  0
 17 33  1  0  0  0  0
M  CHG  1   7  -1
M  CHG  1  13   1
M  END
> <s_m_source_file>
AV-unprocessed.smi

> <i_m_source_file_index>
1522

> <i_lp_mmshare_version>
43012

> <i_f3d_flags>
0

> <s_epik_input>
W0NIMl0xW0NIMl1bQ0gyXVtDSDJdTjFbQ0BIXShbQ0gzXSlbQ0gyXVtOSF1DKD1PKVtOSF1jMm5uW2NIXXMy

> <s_epik_cmdline>
J2VwaWtfcHl0aG9uJywgJy1waCcsICc3LjAnLCAnLXRuJywgJzgnLCAnLW1hJywgJzIwMCcsICctbWV0YWxfYmluZGluZycsICctaW1hZScsICc8aW5maWxlLm1hZT4nLCAnLW9tYWUnLCAnPG91dGZpbGUubWFlPic=

> <r_lp_tautomer_probability>
1

> <r_epik_Ionization_Penalty>
3.04208

> <r_epik_Ionization_Penalty_Charging>
3.00964

> <r_epik_Ionization_Penalty_Neutral>
0.0324455

> <r_epik_State_Penalty>
3.0051

> <r_epik_Charging_Adjusted_Penalty>
6.01474

> <i_epik_Tot_Q>
0

> <i_epik_Tot_abs_Q>
2

> <r_epik_Metal_State_Penalty>
0.454155

> <b_epik_Metal_Only>
1

> <s_lp_Force_Field>
OPLS_2005

> <r_lp_Energy>
23.3187

> <b_lp_Chiralities_Consistent>
1

> <s_lp_Variant>
AV-unprocessed.smi:1522-4

> <Gold.Version>
5.8.1

> <Gold.Id.Protein>
6NUR|6NUR_protein|mol2

> <Gold.PLP.Fitness>
37.5497

> <Gold.PLP.PLP>
-24.8723

> <Gold.PLP.part.hbond>
-4.0000

> <Gold.PLP.part.metal>
0.0000

> <Gold.PLP.part.buried>
-3.8716

> <Gold.PLP.part.nonpolar>
-17.9086

> <Gold.PLP.part.repulsive>
0.0354

> <Gold.PLP.ligand.clash>
0.0000

> <Gold.PLP.ligand.torsion>
1.0324

> <Gold.PLP.Chemscore.Hbond>
4.8880

> <Gold.PLP.Chemscore.CHOScore>
0.0000

> <Gold.PLP.Chemscore.Metal>
0.0000

> <Gold.Chemscore.Hbonds>
donor molecule, donor type, donor heavy atom, donor atom, acceptor molecule, acceptor atom, score
      L1  H    13    34       P1  7948  2.00
      P1  H  6896  6908       L1     6  1.00
      P1  H  6931  6943       L1    10  0.62
      P1  H  6934  6947       L1    10  1.00

> <Gold.PLP.Chemscore.Internal.Correction>
0.0781

> <Gold.Rescore>
     Score         DG    S(hbond)    S(metal)    S(lipo)     H(rot)  DE(clash)    DE(int)     intcor
     14.11     -16.24       2.93        0.00      45.03       1.68       0.00       2.13       ----

> <Gold.Chemscore.Fitness>
14.1097

> <Gold.Chemscore.DG>
-16.2447

> <Gold.Chemscore.ZeroCoef>
-5.4800

> <Gold.Chemscore.Hbond>
2.9304

> <Gold.Chemscore.Metal>
0.0000

> <Gold.Chemscore.Lipo>
45.0268

> <Gold.Chemscore.Internal_Hbond>
0.0000

> <Gold.Chemscore.DEClash>
0.0000

> <Gold.Chemscore.DEInternal>
2.1350

> <Gold.Chemscore.Rot>
1.6762

> <Gold.Chemscore.Internal.Correction>
   9.000000E+99

> <Gold.Chemscore.Hbonds>
donor molecule, donor type, donor heavy atom, donor atom, acceptor molecule, acceptor atom, score
      L1  H    13    34       P1  7948  0.30
      P1  H  6896  6908       L1     6  0.99
      P1  H  6931  6943       L1    10  0.10
      P1  H  6934  6947       L1    10  0.83

> <Gold.Chemscore.Hbond.Weighted>
-9.7875

> <Gold.Chemscore.Metal.Weighted>
-0.0000

> <Gold.Chemscore.Lipo.Weighted>
-5.2681

> <Gold.Chemscore.Internal_Hbond.Weighted>
0.0000

> <Gold.Chemscore.DEClash.Weighted>
0.0000

> <Gold.Chemscore.DEInternal.Weighted>
2.1350

> <Gold.Chemscore.Rot.Weighted>
4.2910

> <Gold.Chemscore.Internal.Correction.Weighted>
   9.000000E+99

> <Gold.Protein.RotatedTorsions>
[ 6907 6896 6895 6894 ] final  151.04 input  -60.11 | X-H torsion
[ 7974 7965 7964 7962 ] final -105.62 input  175.53 | X-H torsion
[ 8008 7997 7996 7995 ] final   30.32 input   59.86 | X-H torsion
[ 10167 10162 10161 10158 ] final   98.76 input  -65.29 | X-H torsion
[ 10718 10713 10712 10709 ] final  148.55 input   66.30 | X-H torsion
[ 10763 10752 10751 10750 ] final  -15.84 input  -60.55 | X-H torsion
[ 11005 11000 10999 10996 ] final   72.45 input  -57.11 | X-H torsion

> <Gold.Protein.ActiveResidues>
 VAL166  LYS551  ARG553  GLY616  TRP617  ASP618  TYR619  PRO620  LYS621  CYS622 
 ASP623  PHE694  ASN695  SER759  ASP760  ASP761  ALA762  ILE779  LEU786  VAL792 
 PHE793  MET794  SER795  GLU796  ALA797  LYS798  CYS799  TRP800  GLU811  SER814 

> <Gold.Protein.RotatedAtoms>
  152.1062  133.4276  159.4609 H   0  0  0  0  0  0  0  0  0  0  0  0  # atno 6907 bound_to 6896
  150.6865  134.2702  159.4594 H   0  0  0  0  0  0  0  0  0  0  0  0  # atno 6908 bound_to 6896
  152.0567  134.9619  160.0625 H   0  0  0  0  0  0  0  0  0  0  0  0  # atno 6909 bound_to 6896
  145.2281  140.9160  143.3220 H   0  0  0  0  0  0  0  0  0  0  0  0  # atno 7974 bound_to 7965
  155.0886  140.3217  155.4580 H   0  0  0  0  0  0  0  0  0  0  0  0  # atno 8008 bound_to 7997
  156.2748  140.2082  156.5959 H   0  0  0  0  0  0  0  0  0  0  0  0  # atno 8009 bound_to 7997
  154.6921  140.0515  157.0361 H   0  0  0  0  0  0  0  0  0  0  0  0  # atno 8010 bound_to 7997
  139.7679  144.6932  151.0198 H   0  0  0  0  0  0  0  0  0  0  0  0  # atno 10167 bound_to 10162
  157.3071  131.0881  151.1345 H   0  0  0  0  0  0  0  0  0  0  0  0  # atno 10718 bound_to 10713
  153.5495  135.7012  153.5598 H   0  0  0  0  0  0  0  0  0  0  0  0  # atno 10763 bound_to 10752
  153.3528  135.3990  155.1659 H   0  0  0  0  0  0  0  0  0  0  0  0  # atno 10764 bound_to 10752
  154.8663  135.3769  154.5005 H   0  0  0  0  0  0  0  0  0  0  0  0  # atno 10765 bound_to 10752
  139.9490  134.7260  156.0908 H   0  0  0  0  0  0  0  0  0  0  0  0  # atno 11005 bound_to 11000
  144.9702  139.3888  143.6313 LP  0  0  0  0  0  0  0  0  0  0  0  0  # atno 17320 bound_to 7965
  146.3359  139.8796  142.8826 LP  0  0  0  0  0  0  0  0  0  0  0  0  # atno 17321 bound_to 7965
  140.7812  143.4622  151.0262 LP  0  0  0  0  0  0  0  0  0  0  0  0  # atno 17342 bound_to 10162
  139.8307  143.7695  152.3179 LP  0  0  0  0  0  0  0  0  0  0  0  0  # atno 17343 bound_to 10162
  157.2681  130.6691  149.6006 LP  0  0  0  0  0  0  0  0  0  0  0  0  # atno 17370 bound_to 10713
  155.9675  130.4487  150.5632 LP  0  0  0  0  0  0  0  0  0  0  0  0  # atno 17371 bound_to 10713
  141.1148  133.6631  156.3068 LP  0  0  0  0  0  0  0  0  0  0  0  0  # atno 17394 bound_to 11000
  140.5764  134.5789  157.5469 LP  0  0  0  0  0  0  0  0  0  0  0  0  # atno 17395 bound_to 11000

$$$$
