AV-unprocessed.smi:1673|AV-procd|sdf|6710|dock2
  -GOLD-   22720 7453D 1   1.00000     0.00000
 Structure written by MMmdl.
 39 40  0  0  0  0  0  0  0  0  1 V2000
  147.7124  141.4088  154.5876 C   0  0  0  0  0  0  0  0  0  0  0  0
  149.0495  140.7252  154.6622 C   0  0  0  0  0  0  0  0  0  0  0  0
  150.0805  141.3837  155.1714 N   0  0  0  0  0  0  0  0  0  0  0  0
  151.1648  140.4926  155.1797 O   0  0  0  0  0  0  0  0  0  0  0  0
  150.7585  139.3015  154.6677 C   0  0  0  0  0  0  0  0  0  0  0  0
  151.7707  138.2082  154.6075 C   0  0  0  0  0  0  0  0  0  0  0  0
  149.4489  139.4042  154.3027 C   0  0  0  0  0  0  0  0  0  0  0  0
  148.6801  138.3462  153.7569 N   0  0  0  0  0  0  0  0  0  0  0  0
  147.4415  137.9801  154.1193 C   0  0  0  0  0  0  0  0  0  0  0  0
  146.7525  138.5635  154.9556 O   0  0  0  0  0  0  0  0  0  0  0  0
  147.0368  136.8981  153.4392 N   0  0  0  0  0  0  0  0  0  0  0  0
  145.7460  136.2214  153.5829 C   0  0  1  0  0  0  0  0  0  0  0  0
  144.9119  136.4132  152.3002 C   0  0  0  0  0  0  0  0  0  0  0  0
  145.4892  135.6306  151.1077 C   0  0  0  0  0  0  0  0  0  0  0  0
  145.6512  134.1411  151.4457 C   0  0  0  0  0  0  0  0  0  0  0  0
  146.4993  133.9419  152.7121 C   0  0  0  0  0  0  0  0  0  0  0  0
  145.9163  134.7157  153.9128 C   0  0  1  0  0  0  0  0  0  0  0  0
  146.7266  134.4624  155.1959 C   0  0  0  0  0  0  0  0  0  0  0  0
  146.8965  140.6991  154.7245 H   0  0  0  0  0  0  0  0  0  0  0  0
  147.5762  141.8969  153.6227 H   0  0  0  0  0  0  0  0  0  0  0  0
  147.6104  142.1711  155.3604 H   0  0  0  0  0  0  0  0  0  0  0  0
  151.3145  137.2668  154.3011 H   0  0  0  0  0  0  0  0  0  0  0  0
  152.2346  138.0570  155.5822 H   0  0  0  0  0  0  0  0  0  0  0  0
  152.5564  138.4508  153.8922 H   0  0  0  0  0  0  0  0  0  0  0  0
  149.0849  137.8657  152.9668 H   0  0  0  0  0  0  0  0  0  0  0  0
  147.6782  136.4973  152.7707 H   0  0  0  0  0  0  0  0  0  0  0  0
  145.1889  136.6857  154.3987 H   0  0  0  0  0  0  0  0  0  0  0  0
  143.8912  136.0759  152.4847 H   0  0  0  0  0  0  0  0  0  0  0  0
  144.8390  137.4728  152.0520 H   0  0  0  0  0  0  0  0  0  0  0  0
  144.8388  135.7450  150.2402 H   0  0  0  0  0  0  0  0  0  0  0  0
  146.4555  136.0486  150.8230 H   0  0  0  0  0  0  0  0  0  0  0  0
  144.6684  133.6913  151.5911 H   0  0  0  0  0  0  0  0  0  0  0  0
  146.1085  133.6176  150.6057 H   0  0  0  0  0  0  0  0  0  0  0  0
  146.5547  132.8783  152.9466 H   0  0  0  0  0  0  0  0  0  0  0  0
  147.5230  134.2660  152.5212 H   0  0  0  0  0  0  0  0  0  0  0  0
  144.9171  134.3174  154.0956 H   0  0  0  0  0  0  0  0  0  0  0  0
  147.7684  134.7632  155.0831 H   0  0  0  0  0  0  0  0  0  0  0  0
  146.7185  133.4047  155.4599 H   0  0  0  0  0  0  0  0  0  0  0  0
  146.3093  135.0144  156.0385 H   0  0  0  0  0  0  0  0  0  0  0  0
  1  2  1  0  0  0  0
  1 19  1  0  0  0  0
  1 20  1  0  0  0  0
  1 21  1  0  0  0  0
  2  7  1  0  0  0  0
  2  3  2  0  0  0  0
  3  4  1  0  0  0  0
  4  5  1  0  0  0  0
  5  6  1  0  0  0  0
  5  7  2  0  0  0  0
  6 22  1  0  0  0  0
  6 23  1  0  0  0  0
  6 24  1  0  0  0  0
  7  8  1  0  0  0  0
  8  9  1  0  0  0  0
  8 25  1  0  0  0  0
  9 10  2  0  0  0  0
  9 11  1  0  0  0  0
 11 12  1  0  0  0  0
 11 26  1  0  0  0  0
 12 17  1  0  0  0  0
 12 13  1  0  0  0  0
 12 27  1  0  0  0  0
 13 14  1  0  0  0  0
 13 28  1  0  0  0  0
 13 29  1  0  0  0  0
 14 15  1  0  0  0  0
 14 30  1  0  0  0  0
 14 31  1  0  0  0  0
 15 16  1  0  0  0  0
 15 32  1  0  0  0  0
 15 33  1  0  0  0  0
 16 17  1  0  0  0  0
 16 34  1  0  0  0  0
 16 35  1  0  0  0  0
 17 18  1  0  0  0  0
 17 36  1  0  0  0  0
 18 37  1  0  0  0  0
 18 38  1  0  0  0  0
 18 39  1  0  0  0  0
M  END
> <s_m_source_file>
AV-unprocessed.smi

> <i_m_source_file_index>
1673

> <i_lp_mmshare_version>
43012

> <i_f3d_flags>
0

> <s_epik_input>
W0NIM11jMW5vYyhbQ0gzXSljMVtOSF1DKD1PKVtOSF1bQ0BASF0yW0NIMl1bQ0gyXVtDSDJdW0NIMl1bQ0BIXTJbQ0gzXQ==

> <s_epik_cmdline>
J2VwaWtfcHl0aG9uJywgJy1waCcsICc3LjAnLCAnLXRuJywgJzgnLCAnLW1hJywgJzIwMCcsICctbWV0YWxfYmluZGluZycsICctaW1hZScsICc8aW5maWxlLm1hZT4nLCAnLW9tYWUnLCAnPG91dGZpbGUubWFlPic=

> <r_lp_tautomer_probability>
1

> <r_epik_Ionization_Penalty>
4.01865e-05

> <r_epik_Ionization_Penalty_Charging>
0

> <r_epik_Ionization_Penalty_Neutral>
4.01865e-05

> <r_epik_State_Penalty>
-0

> <r_epik_Charging_Adjusted_Penalty>
0

> <i_epik_Tot_Q>
0

> <i_epik_Tot_abs_Q>
0

> <r_epik_Metal_State_Penalty>
-0

> <b_epik_Metal_Only>
0

> <s_lp_Force_Field>
OPLS_2005

> <r_lp_Energy>
11.4639

> <b_lp_Chiralities_Consistent>
1

> <s_lp_Variant>
AV-unprocessed.smi:1673-2

> <Gold.Version>
5.8.1

> <Gold.Id.Protein>
6NUR|6NUR_protein|mol2

> <Gold.PLP.Fitness>
34.4101

> <Gold.PLP.PLP>
-28.7158

> <Gold.PLP.part.hbond>
-4.4392

> <Gold.PLP.part.metal>
0.0000

> <Gold.PLP.part.buried>
-3.0045

> <Gold.PLP.part.nonpolar>
-21.9662

> <Gold.PLP.part.repulsive>
0.2531

> <Gold.PLP.ligand.clash>
0.0000

> <Gold.PLP.ligand.torsion>
0.4061

> <Gold.PLP.Chemscore.Hbond>
2.0864

> <Gold.PLP.Chemscore.CHOScore>
0.0000

> <Gold.PLP.Chemscore.Metal>
0.0000

> <Gold.Chemscore.Hbonds>
donor molecule, donor type, donor heavy atom, donor atom, acceptor molecule, acceptor atom, score
      L1  H     8    25       P1  7948  0.90
      L1  H    11    26       P1  7948  1.00
      P1  H  7989  7998       L1     4  0.20

> <Gold.PLP.Chemscore.Internal.Correction>
0.2472

> <Gold.Rescore>
     Score         DG    S(hbond)    S(metal)    S(lipo)     H(rot)  DE(clash)    DE(int)     intcor
     15.95     -16.38       1.91        0.00      60.57       1.00       0.01       0.41       ----

> <Gold.Chemscore.Fitness>
15.9539

> <Gold.Chemscore.DG>
-16.3814

> <Gold.Chemscore.ZeroCoef>
-5.4800

> <Gold.Chemscore.Hbond>
1.9085

> <Gold.Chemscore.Metal>
0.0000

> <Gold.Chemscore.Lipo>
60.5715

> <Gold.Chemscore.Internal_Hbond>
0.0000

> <Gold.Chemscore.DEClash>
0.0126

> <Gold.Chemscore.DEInternal>
0.4149

> <Gold.Chemscore.Rot>
1.0000

> <Gold.Chemscore.Internal.Correction>
   9.000000E+99

> <Gold.Chemscore.Hbonds>
donor molecule, donor type, donor heavy atom, donor atom, acceptor molecule, acceptor atom, score
      L1  H     8    25       P1  7948  0.87
      L1  H    11    26       P1  7948  0.98

> <Gold.Chemscore.Hbond.Weighted>
-6.3745

> <Gold.Chemscore.Metal.Weighted>
-0.0000

> <Gold.Chemscore.Lipo.Weighted>
-7.0869

> <Gold.Chemscore.Internal_Hbond.Weighted>
0.0000

> <Gold.Chemscore.DEClash.Weighted>
0.0126

> <Gold.Chemscore.DEInternal.Weighted>
0.4149

> <Gold.Chemscore.Rot.Weighted>
2.5600

> <Gold.Chemscore.Internal.Correction.Weighted>
   9.000000E+99

> <Gold.Protein.RotatedTorsions>
[ 6907 6896 6895 6894 ] final  -86.33 input  -60.11 | X-H torsion
[ 7974 7965 7964 7962 ] final  160.81 input  175.53 | X-H torsion
[ 8008 7997 7996 7995 ] final -121.62 input   59.86 | X-H torsion
[ 10167 10162 10161 10158 ] final  -61.78 input  -65.29 | X-H torsion
[ 10718 10713 10712 10709 ] final    2.99 input   66.30 | X-H torsion
[ 10763 10752 10751 10750 ] final   95.67 input  -60.55 | X-H torsion
[ 11005 11000 10999 10996 ] final -159.21 input  -57.11 | X-H torsion

> <Gold.Protein.ActiveResidues>
 VAL166  LYS551  ARG553  GLY616  TRP617  ASP618  TYR619  PRO620  LYS621  CYS622 
 ASP623  PHE694  ASN695  SER759  ASP760  ASP761  ALA762  ILE779  LEU786  VAL792 
 PHE793  MET794  SER795  GLU796  ALA797  LYS798  CYS799  TRP800  GLU811  SER814 

> <Gold.Protein.RotatedAtoms>
  150.6867  134.3067  159.4728 H   0  0  0  0  0  0  0  0  0  0  0  0  # atno 6907 bound_to 6896
  152.0957  134.9374  160.0580 H   0  0  0  0  0  0  0  0  0  0  0  0  # atno 6908 bound_to 6896
  152.0672  133.4055  159.4480 H   0  0  0  0  0  0  0  0  0  0  0  0  # atno 6909 bound_to 6896
  144.7718  139.7809  143.6294 H   0  0  0  0  0  0  0  0  0  0  0  0  # atno 7974 bound_to 7965
  155.1510  140.0404  157.2821 H   0  0  0  0  0  0  0  0  0  0  0  0  # atno 8008 bound_to 7997
  154.6404  140.2545  155.7302 H   0  0  0  0  0  0  0  0  0  0  0  0  # atno 8009 bound_to 7997
  156.2529  140.2857  156.0795 H   0  0  0  0  0  0  0  0  0  0  0  0  # atno 8010 bound_to 7997
  140.5983  143.2356  151.5985 H   0  0  0  0  0  0  0  0  0  0  0  0  # atno 10167 bound_to 10162
  156.8711  130.5620  149.5657 H   0  0  0  0  0  0  0  0  0  0  0  0  # atno 10718 bound_to 10713
  153.2559  135.4246  155.0845 H   0  0  0  0  0  0  0  0  0  0  0  0  # atno 10763 bound_to 10752
  154.8401  135.3437  154.6446 H   0  0  0  0  0  0  0  0  0  0  0  0  # atno 10764 bound_to 10752
  153.6867  135.7036  153.5159 H   0  0  0  0  0  0  0  0  0  0  0  0  # atno 10765 bound_to 10752
  140.6451  134.4510  157.5234 H   0  0  0  0  0  0  0  0  0  0  0  0  # atno 11005 bound_to 11000
  146.1869  139.5089  142.9830 LP  0  0  0  0  0  0  0  0  0  0  0  0  # atno 17320 bound_to 7965
  145.6302  141.0305  143.1867 LP  0  0  0  0  0  0  0  0  0  0  0  0  # atno 17321 bound_to 7965
  139.5273  144.3019  152.1066 LP  0  0  0  0  0  0  0  0  0  0  0  0  # atno 17342 bound_to 10162
  140.2196  144.4480  150.6348 LP  0  0  0  0  0  0  0  0  0  0  0  0  # atno 17343 bound_to 10162
  156.0726  130.5755  150.9412 LP  0  0  0  0  0  0  0  0  0  0  0  0  # atno 17370 bound_to 10713
  157.6195  131.0931  150.8649 LP  0  0  0  0  0  0  0  0  0  0  0  0  # atno 17371 bound_to 10713
  139.9066  134.8436  156.1683 LP  0  0  0  0  0  0  0  0  0  0  0  0  # atno 17394 bound_to 11000
  141.0578  133.6856  156.1894 LP  0  0  0  0  0  0  0  0  0  0  0  0  # atno 17395 bound_to 11000

$$$$
