AV-unprocessed.smi:2063|AV-procd|sdf|8413|dock8
  -GOLD-   2272011103D 1   1.00000     0.00000
 Structure written by MMmdl.
 38 39  0  0  0  0  0  0  0  0  2 V2000
  148.2666  141.3426  155.7538 C   0  0  0  0  0  0  0  0  0  0  0  0
  149.2066  140.6575  154.7513 C   0  0  0  0  0  0  0  0  0  0  0  0
  148.5431  139.4940  154.0005 C   0  0  0  0  0  0  0  0  0  0  0  0
  150.5048  140.2579  155.3801 C   0  0  0  0  0  0  0  0  0  0  0  0
  151.6264  140.0616  154.6799 N   0  0  0  0  0  0  0  0  0  0  0  0
  152.6909  139.6900  155.4878 N   0  0  0  0  0  0  0  0  0  0  0  0
  152.3608  139.5994  156.7839 C   0  0  0  0  0  0  0  0  0  0  0  0
  153.2466  139.2488  157.7311 N   0  5  0  0  0  0  0  0  0  0  0  0
  153.1057  139.7169  158.9927 C   0  0  0  0  0  0  0  0  0  0  0  0
  153.2113  139.0595  160.0307 O   0  0  0  0  0  0  0  0  0  0  0  0
  152.8254  141.0269  159.0553 N   0  0  0  0  0  0  0  0  0  0  0  0
  152.6087  141.8064  160.2727 C   0  0  1  0  0  0  0  0  0  0  0  0
  153.7070  141.4774  161.2997 C   0  0  0  0  0  0  0  0  0  0  0  0
  152.5740  143.3053  159.9155 C   0  0  2  0  0  0  0  0  0  0  0  0
  151.9756  144.2056  160.9970 C   0  0  0  0  0  0  0  0  0  0  0  0
  151.5649  145.4180  160.1934 C   0  0  0  0  0  0  0  0  0  0  0  0
  151.0748  144.7884  158.8922 C   0  0  0  0  0  0  0  0  0  0  0  0
  151.7396  143.5321  158.7816 O   0  0  0  0  0  0  0  0  0  0  0  0
  150.6758  140.0031  157.1096 S   0  0  0  0  0  0  0  0  0  0  0  0
  148.7436  142.2127  156.2061 H   0  0  0  0  0  0  0  0  0  0  0  0
  147.9814  140.6636  156.5580 H   0  0  0  0  0  0  0  0  0  0  0  0
  147.3528  141.6828  155.2663 H   0  0  0  0  0  0  0  0  0  0  0  0
  149.4494  141.4080  153.9981 H   0  0  0  0  0  0  0  0  0  0  0  0
  149.2106  139.0870  153.2404 H   0  0  0  0  0  0  0  0  0  0  0  0
  147.6310  139.8191  153.4994 H   0  0  0  0  0  0  0  0  0  0  0  0
  148.2779  138.6835  154.6801 H   0  0  0  0  0  0  0  0  0  0  0  0
  152.7425  141.5222  158.1795 H   0  0  0  0  0  0  0  0  0  0  0  0
  151.6401  141.5381  160.6986 H   0  0  0  0  0  0  0  0  0  0  0  0
  153.5525  142.0146  162.2352 H   0  0  0  0  0  0  0  0  0  0  0  0
  154.6946  141.7429  160.9214 H   0  0  0  0  0  0  0  0  0  0  0  0
  153.7186  140.4136  161.5384 H   0  0  0  0  0  0  0  0  0  0  0  0
  153.5767  143.6595  159.6694 H   0  0  0  0  0  0  0  0  0  0  0  0
  151.0969  143.7384  161.4437 H   0  0  0  0  0  0  0  0  0  0  0  0
  152.6808  144.4440  161.7935 H   0  0  0  0  0  0  0  0  0  0  0  0
  150.8051  146.0245  160.6868 H   0  0  0  0  0  0  0  0  0  0  0  0
  152.4341  146.0483  160.0012 H   0  0  0  0  0  0  0  0  0  0  0  0
  150.0001  144.6084  158.9320 H   0  0  0  0  0  0  0  0  0  0  0  0
  151.2798  145.4214  158.0287 H   0  0  0  0  0  0  0  0  0  0  0  0
  1  2  1  0  0  0  0
  1 20  1  0  0  0  0
  1 21  1  0  0  0  0
  1 22  1  0  0  0  0
  2  3  1  0  0  0  0
  2  4  1  0  0  0  0
  2 23  1  0  0  0  0
  3 24  1  0  0  0  0
  3 25  1  0  0  0  0
  3 26  1  0  0  0  0
  4 19  1  0  0  0  0
  4  5  2  0  0  0  0
  5  6  1  0  0  0  0
  6  7  2  0  0  0  0
  7  8  1  0  0  0  0
  7 19  1  0  0  0  0
  8  9  1  0  0  0  0
  9 10  2  0  0  0  0
  9 11  1  0  0  0  0
 11 12  1  0  0  0  0
 11 27  1  0  0  0  0
 12 13  1  0  0  0  0
 12 14  1  0  0  0  0
 12 28  1  0  0  0  0
 13 29  1  0  0  0  0
 13 30  1  0  0  0  0
 13 31  1  0  0  0  0
 14 18  1  0  0  0  0
 14 15  1  0  0  0  0
 14 32  1  0  0  0  0
 15 16  1  0  0  0  0
 15 33  1  0  0  0  0
 15 34  1  0  0  0  0
 16 17  1  0  0  0  0
 16 35  1  0  0  0  0
 16 36  1  0  0  0  0
 17 18  1  0  0  0  0
 17 37  1  0  0  0  0
 17 38  1  0  0  0  0
M  CHG  1   8  -1
M  END
> <s_m_source_file>
AV-unprocessed.smi

> <i_m_source_file_index>
2063

> <i_lp_mmshare_version>
43012

> <i_f3d_flags>
0

> <s_epik_input>
W0NIM11bQ0hdKFtDSDNdKWMxbm5jKHMxKVtOSF1DKD1PKVtOSF1bQ0BIXShbQ0gzXSlbQ0BASF0yW0NIMl1bQ0gyXVtDSDJdTzI=

> <s_epik_cmdline>
J2VwaWtfcHl0aG9uJywgJy1waCcsICc3LjAnLCAnLXRuJywgJzgnLCAnLW1hJywgJzIwMCcsICctbWV0YWxfYmluZGluZycsICctaW1hZScsICc8aW5maWxlLm1hZT4nLCAnLW9tYWUnLCAnPG91dGZpbGUubWFlPic=

> <r_lp_tautomer_probability>
1

> <r_epik_Ionization_Penalty>
4.37022

> <r_epik_Ionization_Penalty_Charging>
4.21437

> <r_epik_Ionization_Penalty_Neutral>
0.15585

> <r_epik_State_Penalty>
4.21389

> <r_epik_Charging_Adjusted_Penalty>
8.42826

> <i_epik_Tot_Q>
-1

> <i_epik_Tot_abs_Q>
1

> <r_epik_Metal_State_Penalty>
0.693772

> <b_epik_Metal_Only>
1

> <s_lp_Force_Field>
OPLS_2005

> <r_lp_Energy>
10.2416

> <b_lp_Chiralities_Consistent>
1

> <s_lp_Variant>
AV-unprocessed.smi:2063-6

> <Gold.Version>
5.8.1

> <Gold.Id.Protein>
6NUR|6NUR_protein|mol2

> <Gold.PLP.Fitness>
46.6161

> <Gold.PLP.PLP>
-40.3994

> <Gold.PLP.part.hbond>
-2.8122

> <Gold.PLP.part.metal>
0.0000

> <Gold.PLP.part.buried>
-3.5906

> <Gold.PLP.part.nonpolar>
-33.2694

> <Gold.PLP.part.repulsive>
0.1902

> <Gold.PLP.ligand.clash>
0.9874

> <Gold.PLP.ligand.torsion>
1.3761

> <Gold.PLP.Chemscore.Hbond>
3.2835

> <Gold.PLP.Chemscore.CHOScore>
0.0000

> <Gold.PLP.Chemscore.Metal>
0.0000

> <Gold.Chemscore.Hbonds>
donor molecule, donor type, donor heavy atom, donor atom, acceptor molecule, acceptor atom, score
      P1  H  7989  7998       L1     5  0.73
      P1  H  7997  8008       L1     6  0.22
      P1  H  7997  8010       L1     8  1.79

> <Gold.PLP.Chemscore.Internal.Correction>
0.1058

> <Gold.Rescore>
     Score         DG    S(hbond)    S(metal)    S(lipo)     H(rot)  DE(clash)    DE(int)     intcor
     14.99     -17.42       1.43        0.00      91.67       1.39       0.03       2.40       ----

> <Gold.Chemscore.Fitness>
14.9932

> <Gold.Chemscore.DG>
-17.4224

> <Gold.Chemscore.ZeroCoef>
-5.4800

> <Gold.Chemscore.Hbond>
1.4292

> <Gold.Chemscore.Metal>
0.0000

> <Gold.Chemscore.Lipo>
91.6726

> <Gold.Chemscore.Internal_Hbond>
0.0000

> <Gold.Chemscore.DEClash>
0.0308

> <Gold.Chemscore.DEInternal>
2.3985

> <Gold.Chemscore.Rot>
1.3893

> <Gold.Chemscore.Internal.Correction>
   9.000000E+99

> <Gold.Chemscore.Hbonds>
donor molecule, donor type, donor heavy atom, donor atom, acceptor molecule, acceptor atom, score
      P1  H  7989  7998       L1     5  0.59
      P1  H  7997  8008       L1     6  0.10
      P1  H  7997  8010       L1     8  0.16

> <Gold.Chemscore.Hbond.Weighted>
-4.7734

> <Gold.Chemscore.Metal.Weighted>
-0.0000

> <Gold.Chemscore.Lipo.Weighted>
-10.7257

> <Gold.Chemscore.Internal_Hbond.Weighted>
0.0000

> <Gold.Chemscore.DEClash.Weighted>
0.0308

> <Gold.Chemscore.DEInternal.Weighted>
2.3985

> <Gold.Chemscore.Rot.Weighted>
3.5567

> <Gold.Chemscore.Internal.Correction.Weighted>
   9.000000E+99

> <Gold.Protein.RotatedTorsions>
[ 6907 6896 6895 6894 ] final  107.24 input  -60.11 | X-H torsion
[ 7974 7965 7964 7962 ] final -157.02 input  175.53 | X-H torsion
[ 8008 7997 7996 7995 ] final   17.18 input   59.86 | X-H torsion
[ 10167 10162 10161 10158 ] final  -82.00 input  -65.29 | X-H torsion
[ 10718 10713 10712 10709 ] final -168.68 input   66.30 | X-H torsion
[ 10763 10752 10751 10750 ] final  -81.86 input  -60.55 | X-H torsion
[ 11005 11000 10999 10996 ] final  -35.73 input  -57.11 | X-H torsion

> <Gold.Protein.ActiveResidues>
 VAL166  LYS551  ARG553  GLY616  TRP617  ASP618  TYR619  PRO620  LYS621  CYS622 
 ASP623  PHE694  ASN695  SER759  ASP760  ASP761  ALA762  ILE779  LEU786  VAL792 
 PHE793  MET794  SER795  GLU796  ALA797  LYS798  CYS799  TRP800  GLU811  SER814 

> <Gold.Protein.RotatedAtoms>
  152.5162  133.9263  159.7558 H   0  0  0  0  0  0  0  0  0  0  0  0  # atno 6907 bound_to 6896
  150.9623  133.6423  159.2759 H   0  0  0  0  0  0  0  0  0  0  0  0  # atno 6908 bound_to 6896
  151.3664  135.0919  159.9504 H   0  0  0  0  0  0  0  0  0  0  0  0  # atno 6909 bound_to 6896
  144.7566  140.4027  143.6007 H   0  0  0  0  0  0  0  0  0  0  0  0  # atno 7974 bound_to 7965
  154.8877  140.2982  155.5389 H   0  0  0  0  0  0  0  0  0  0  0  0  # atno 8008 bound_to 7997
  156.3021  140.2430  156.3822 H   0  0  0  0  0  0  0  0  0  0  0  0  # atno 8009 bound_to 7997
  154.8651  140.0403  157.1678 H   0  0  0  0  0  0  0  0  0  0  0  0  # atno 8010 bound_to 7997
  140.4361  143.2531  151.8692 H   0  0  0  0  0  0  0  0  0  0  0  0  # atno 10167 bound_to 10162
  156.7004  130.9194  151.3079 H   0  0  0  0  0  0  0  0  0  0  0  0  # atno 10718 bound_to 10713
  154.5688  135.5611  153.7075 H   0  0  0  0  0  0  0  0  0  0  0  0  # atno 10763 bound_to 10752
  153.0041  135.6292  154.2143 H   0  0  0  0  0  0  0  0  0  0  0  0  # atno 10764 bound_to 10752
  154.2083  135.2875  155.2947 H   0  0  0  0  0  0  0  0  0  0  0  0  # atno 10765 bound_to 10752
  140.9819  133.7051  156.1699 H   0  0  0  0  0  0  0  0  0  0  0  0  # atno 11005 bound_to 11000
  145.6757  139.1608  143.2729 LP  0  0  0  0  0  0  0  0  0  0  0  0  # atno 17320 bound_to 7965
  146.1584  140.6824  142.9289 LP  0  0  0  0  0  0  0  0  0  0  0  0  # atno 17321 bound_to 7965
  139.4787  144.5281  151.8705 LP  0  0  0  0  0  0  0  0  0  0  0  0  # atno 17342 bound_to 10162
  140.4372  144.2035  150.5890 LP  0  0  0  0  0  0  0  0  0  0  0  0  # atno 17343 bound_to 10162
  157.6975  130.9297  150.0687 LP  0  0  0  0  0  0  0  0  0  0  0  0  # atno 17370 bound_to 10713
  156.1733  130.3647  149.9135 LP  0  0  0  0  0  0  0  0  0  0  0  0  # atno 17371 bound_to 10713
  140.7173  134.4396  157.5577 LP  0  0  0  0  0  0  0  0  0  0  0  0  # atno 17394 bound_to 11000
  139.8954  134.8684  156.2134 LP  0  0  0  0  0  0  0  0  0  0  0  0  # atno 17395 bound_to 11000

$$$$
