AV-unprocessed.smi:102|AV-procd|sdf|975|dock2
  -GOLD-   2262017533D 1   1.00000     0.00000
 Structure written by MMmdl.
 43 44  0  0  0  0  0  0  0  0  2 V2000
  145.3180  136.4619  151.4127 C   0  0  0  0  0  0  0  0  0  0  0  0
  146.0610  137.7452  151.7598 C   0  0  0  0  0  0  0  0  0  0  0  0
  146.6078  138.4273  150.8928 O   0  0  0  0  0  0  0  0  0  0  0  0
  146.0362  138.0115  153.0739 O   0  0  0  0  0  0  0  0  0  0  0  0
  146.9172  138.9866  153.6061 C   0  0  0  0  0  0  0  0  0  0  0  0
  148.2526  138.3244  153.9723 C   0  0  2  0  0  0  0  0  0  0  0  0
  148.0735  137.3159  154.9596 O   0  0  0  0  0  0  0  0  0  0  0  0
  149.2883  137.0885  155.6120 C   0  0  2  0  0  0  0  0  0  0  0  0
  149.0243  136.9735  157.0993 N   0  0  0  0  0  0  0  0  0  0  0  0
  147.7594  137.2112  157.6101 C   0  0  0  0  0  0  0  0  0  0  0  0
  147.5142  137.1372  158.9337 C   0  0  0  0  0  0  0  0  0  0  0  0
  146.2762  137.3765  159.3993 F   0  0  0  0  0  0  0  0  0  0  0  0
  148.6001  136.7998  159.8521 C   0  0  0  0  0  0  0  0  0  0  0  0
  148.3699  136.7282  161.0582 O   0  0  0  0  0  0  0  0  0  0  0  0
  149.8379  136.5779  159.3220 N   0  5  0  0  0  0  0  0  0  0  0  0
  150.0934  136.6615  157.9835 C   0  0  0  0  0  0  0  0  0  0  0  0
  151.2132  136.4920  157.5011 O   0  0  0  0  0  0  0  0  0  0  0  0
  150.2313  138.2604  155.2628 C   0  0  2  0  0  0  0  0  0  0  0  0
  150.9193  138.7894  156.3936 O   0  0  0  0  0  0  0  0  0  0  0  0
  151.9388  139.6461  156.2287 C   0  0  0  0  0  0  0  0  0  0  0  0
  152.3306  140.3324  157.5300 C   0  0  0  0  0  0  0  0  0  0  0  0
  152.5159  139.8931  155.1698 O   0  0  0  0  0  0  0  0  0  0  0  0
  149.2848  139.2607  154.6049 C   0  0  2  0  0  0  0  0  0  0  0  0
  148.6353  140.0886  155.5689 O   0  0  0  0  0  0  0  0  0  0  0  0
  148.1946  141.3163  155.2440 C   0  0  0  0  0  0  0  0  0  0  0  0
  147.4988  142.0101  156.4077 C   0  0  0  0  0  0  0  0  0  0  0  0
  148.3173  141.8674  154.1503 O   0  0  0  0  0  0  0  0  0  0  0  0
  144.3012  136.4945  151.8047 H   0  0  0  0  0  0  0  0  0  0  0  0
  145.8290  135.6009  151.8437 H   0  0  0  0  0  0  0  0  0  0  0  0
  145.2671  136.3287  150.3319 H   0  0  0  0  0  0  0  0  0  0  0  0
  147.0818  139.7584  152.8531 H   0  0  0  0  0  0  0  0  0  0  0  0
  146.4760  139.4678  154.4804 H   0  0  0  0  0  0  0  0  0  0  0  0
  148.6962  137.8673  153.0858 H   0  0  0  0  0  0  0  0  0  0  0  0
  149.6755  136.1215  155.2885 H   0  0  0  0  0  0  0  0  0  0  0  0
  146.9474  137.4656  156.9458 H   0  0  0  0  0  0  0  0  0  0  0  0
  150.9344  137.8818  154.5191 H   0  0  0  0  0  0  0  0  0  0  0  0
  152.5669  139.5897  158.2924 H   0  0  0  0  0  0  0  0  0  0  0  0
  151.5100  140.9520  157.8916 H   0  0  0  0  0  0  0  0  0  0  0  0
  153.2048  140.9666  157.3816 H   0  0  0  0  0  0  0  0  0  0  0  0
  149.7896  139.8556  153.8425 H   0  0  0  0  0  0  0  0  0  0  0  0
  147.6723  141.4729  157.3406 H   0  0  0  0  0  0  0  0  0  0  0  0
  146.4247  142.0574  156.2298 H   0  0  0  0  0  0  0  0  0  0  0  0
  147.8768  143.0263  156.5210 H   0  0  0  0  0  0  0  0  0  0  0  0
  1  2  1  0  0  0  0
  1 28  1  0  0  0  0
  1 29  1  0  0  0  0
  1 30  1  0  0  0  0
  2  3  2  0  0  0  0
  2  4  1  0  0  0  0
  4  5  1  0  0  0  0
  5  6  1  0  0  0  0
  5 31  1  0  0  0  0
  5 32  1  0  0  0  0
  6 23  1  0  0  0  0
  6  7  1  0  0  0  0
  6 33  1  0  0  0  0
  7  8  1  0  0  0  0
  8  9  1  0  0  0  0
  8 18  1  0  0  0  0
  8 34  1  0  0  0  0
  9 16  1  0  0  0  0
  9 10  1  0  0  0  0
 10 11  2  0  0  0  0
 10 35  1  0  0  0  0
 11 12  1  0  0  0  0
 11 13  1  0  0  0  0
 13 14  2  0  0  0  0
 13 15  1  0  0  0  0
 15 16  1  0  0  0  0
 16 17  2  0  0  0  0
 18 19  1  0  0  0  0
 18 23  1  0  0  0  0
 18 36  1  0  0  0  0
 19 20  1  0  0  0  0
 20 21  1  0  0  0  0
 20 22  2  0  0  0  0
 21 37  1  0  0  0  0
 21 38  1  0  0  0  0
 21 39  1  0  0  0  0
 23 24  1  0  0  0  0
 23 40  1  0  0  0  0
 24 25  1  0  0  0  0
 25 26  1  0  0  0  0
 25 27  2  0  0  0  0
 26 41  1  0  0  0  0
 26 42  1  0  0  0  0
 26 43  1  0  0  0  0
M  CHG  1  15  -1
M  END
> <s_m_source_file>
AV-unprocessed.smi

> <i_m_source_file_index>
102

> <i_lp_mmshare_version>
43012

> <i_f3d_flags>
0

> <s_epik_input>
W0NIM11DKD1PKU9bQ0gyXVtDQEBIXTFPW0NASF0oW0NAQEhdKE9DKD1PKVtDSDNdKVtDQEhdMU9DKD1PKVtDSDNdKW4yW2NIXWMoRiljKD1PKVtuSF1jMj1P

> <s_epik_cmdline>
J2VwaWtfcHl0aG9uJywgJy1waCcsICc3LjAnLCAnLXRuJywgJzgnLCAnLW1hJywgJzIwMCcsICctbWV0YWxfYmluZGluZycsICctaW1hZScsICc8aW5maWxlLm1hZT4nLCAnLW9tYWUnLCAnPG91dGZpbGUubWFlPic=

> <r_epik_Ionization_Penalty>
1.40304

> <r_epik_Ionization_Penalty_Charging>
1.43915e-08

> <r_epik_Ionization_Penalty_Neutral>
1.40304

> <r_epik_State_Penalty>
1.48536

> <r_epik_Charging_Adjusted_Penalty>
1.48536

> <i_epik_Tot_Q>
-1

> <i_epik_Tot_abs_Q>
1

> <r_epik_Metal_State_Penalty>
0.00663881

> <b_epik_Metal_Only>
0

> <s_epik_Chemistry_Notes>
This compound has an ester and may undergo hydrolysis at high or low pH. This compound contains an acetal/aminal-like group ( X-CH(R)-Y where X, Y are N, S, or O) that may be acid/base labile, releasing an aldehyde.

> <s_lp_Force_Field>
OPLS_2005

> <r_lp_Energy>
23.9264

> <b_lp_Chiralities_Consistent>
1

> <s_lp_Variant>
AV-unprocessed.smi:102-31

> <Gold.Version>
5.8.1

> <Gold.Id.Protein>
6NUR|6NUR_protein|mol2

> <Gold.PLP.Fitness>
40.9066

> <Gold.PLP.PLP>
-26.3214

> <Gold.PLP.part.hbond>
-5.7857

> <Gold.PLP.part.metal>
0.0000

> <Gold.PLP.part.buried>
-0.2919

> <Gold.PLP.part.nonpolar>
-21.7142

> <Gold.PLP.part.repulsive>
1.2261

> <Gold.PLP.ligand.clash>
0.0000

> <Gold.PLP.ligand.torsion>
1.0129

> <Gold.PLP.Chemscore.Hbond>
5.4686

> <Gold.PLP.Chemscore.CHOScore>
0.0000

> <Gold.PLP.Chemscore.Metal>
0.0000

> <Gold.Chemscore.Hbonds>
donor molecule, donor type, donor heavy atom, donor atom, acceptor molecule, acceptor atom, score
      P1  H  6896  6909       L1    15  2.00
      P1  H  6931  6943       L1    14  1.00
      P1  H  7954  7966       L1     3  1.00
      P1  H  7989  7998       L1    22  0.50
      P1  H  7997  8008       L1    22  0.75
      P1  H  8011  8017       L1    27  0.04

> <Gold.PLP.Chemscore.Internal.Correction>
0.2053

> <Gold.Rescore>
     Score         DG    S(hbond)    S(metal)    S(lipo)     H(rot)  DE(clash)    DE(int)     intcor
      3.03      -8.74       2.69        0.00      38.36       4.00       1.93       3.78       ----

> <Gold.Chemscore.Fitness>
3.0347

> <Gold.Chemscore.DG>
-8.7421

> <Gold.Chemscore.ZeroCoef>
-5.4800

> <Gold.Chemscore.Hbond>
2.6949

> <Gold.Chemscore.Metal>
0.0000

> <Gold.Chemscore.Lipo>
38.3640

> <Gold.Chemscore.Internal_Hbond>
0.0000

> <Gold.Chemscore.DEClash>
1.9262

> <Gold.Chemscore.DEInternal>
3.7812

> <Gold.Chemscore.Rot>
3.9951

> <Gold.Chemscore.Internal.Correction>
   9.000000E+99

> <Gold.Chemscore.Hbonds>
donor molecule, donor type, donor heavy atom, donor atom, acceptor molecule, acceptor atom, score
      P1  H  6896  6909       L1    15  0.24
      P1  H  6931  6943       L1    14  0.70
      P1  H  7954  7966       L1     3  0.94
      P1  H  7989  7998       L1    22  0.48
      P1  H  7997  8008       L1    22  0.13
      P1  H  8011  8017       L1    27  0.06

> <Gold.Chemscore.Hbond.Weighted>
-9.0010

> <Gold.Chemscore.Metal.Weighted>
-0.0000

> <Gold.Chemscore.Lipo.Weighted>
-4.4886

> <Gold.Chemscore.Internal_Hbond.Weighted>
0.0000

> <Gold.Chemscore.DEClash.Weighted>
1.9262

> <Gold.Chemscore.DEInternal.Weighted>
3.7812

> <Gold.Chemscore.Rot.Weighted>
10.2274

> <Gold.Chemscore.Internal.Correction.Weighted>
   9.000000E+99

> <Gold.Protein.RotatedTorsions>
[ 6907 6896 6895 6894 ] final   82.52 input  -60.11 | X-H torsion
[ 7974 7965 7964 7962 ] final -110.69 input  175.53 | X-H torsion
[ 8008 7997 7996 7995 ] final  -22.23 input   59.86 | X-H torsion
[ 10167 10162 10161 10158 ] final   13.12 input  -65.29 | X-H torsion
[ 10718 10713 10712 10709 ] final   34.02 input   66.30 | X-H torsion
[ 10763 10752 10751 10750 ] final  142.54 input  -60.55 | X-H torsion
[ 11005 11000 10999 10996 ] final  -27.31 input  -57.11 | X-H torsion

> <Gold.Protein.ActiveResidues>
 VAL166  LYS551  ARG553  GLY616  TRP617  ASP618  TYR619  PRO620  LYS621  CYS622 
 ASP623  PHE694  ASN695  SER759  ASP760  ASP761  ALA762  ILE779  LEU786  VAL792 
 PHE793  MET794  SER795  GLU796  ALA797  LYS798  CYS799  TRP800  GLU811  SER814 

> <Gold.Protein.RotatedAtoms>
  152.5301  134.3037  159.9087 H   0  0  0  0  0  0  0  0  0  0  0  0  # atno 6907 bound_to 6896
  151.2988  133.4125  159.2646 H   0  0  0  0  0  0  0  0  0  0  0  0  # atno 6908 bound_to 6896
  151.0137  134.9433  159.8078 H   0  0  0  0  0  0  0  0  0  0  0  0  # atno 6909 bound_to 6896
  145.1651  140.8898  143.3568 H   0  0  0  0  0  0  0  0  0  0  0  0  # atno 7974 bound_to 7965
  154.4656  140.2013  156.0126 H   0  0  0  0  0  0  0  0  0  0  0  0  # atno 8008 bound_to 7997
  156.0921  140.3256  155.7801 H   0  0  0  0  0  0  0  0  0  0  0  0  # atno 8009 bound_to 7997
  155.4939  140.0548  157.2940 H   0  0  0  0  0  0  0  0  0  0  0  0  # atno 8010 bound_to 7997
  140.6023  143.8579  150.6978 H   0  0  0  0  0  0  0  0  0  0  0  0  # atno 10167 bound_to 10162
  157.3051  130.7370  149.6690 H   0  0  0  0  0  0  0  0  0  0  0  0  # atno 10718 bound_to 10713
  153.9576  135.2963  155.3435 H   0  0  0  0  0  0  0  0  0  0  0  0  # atno 10763 bound_to 10752
  154.7392  135.5032  153.9097 H   0  0  0  0  0  0  0  0  0  0  0  0  # atno 10764 bound_to 10752
  153.0963  135.6722  153.9867 H   0  0  0  0  0  0  0  0  0  0  0  0  # atno 10765 bound_to 10752
  140.9107  133.7462  156.0667 H   0  0  0  0  0  0  0  0  0  0  0  0  # atno 11005 bound_to 11000
  145.0290  139.3357  143.6034 LP  0  0  0  0  0  0  0  0  0  0  0  0  # atno 17320 bound_to 7965
  146.3477  139.9620  142.8716 LP  0  0  0  0  0  0  0  0  0  0  0  0  # atno 17321 bound_to 7965
  140.2128  143.3870  152.1705 LP  0  0  0  0  0  0  0  0  0  0  0  0  # atno 17342 bound_to 10162
  139.5300  144.7148  151.5091 LP  0  0  0  0  0  0  0  0  0  0  0  0  # atno 17343 bound_to 10162
  155.9674  130.4268  150.4716 LP  0  0  0  0  0  0  0  0  0  0  0  0  # atno 17370 bound_to 10713
  157.2704  131.0586  151.2263 LP  0  0  0  0  0  0  0  0  0  0  0  0  # atno 17371 bound_to 10713
  140.8113  134.3396  157.5411 LP  0  0  0  0  0  0  0  0  0  0  0  0  # atno 17394 bound_to 11000
  139.8757  134.9256  156.3378 LP  0  0  0  0  0  0  0  0  0  0  0  0  # atno 17395 bound_to 11000

$$$$
