AV-unprocessed.smi:1622|AV-procd|sdf|6498|dock10
  -GOLD-   22720 7163D 1   1.00000     0.00000
 Structure written by MMmdl.
 41 42  0  0  0  0  0  0  0  0  2 V2000
  143.6277  136.2445  153.1177 C   0  0  0  0  0  0  0  0  0  0  0  0
  143.9734  135.1694  154.1590 C   0  0  0  0  0  0  0  0  0  0  0  0
  145.0584  134.1562  153.7032 C   0  0  1  0  0  0  0  0  0  0  0  0
  145.7994  133.5079  154.9066 C   0  0  0  0  0  0  0  0  0  0  0  0
  146.3951  134.4887  155.8135 N   0  0  0  0  0  0  0  0  0  0  0  0
  146.3469  134.4441  157.1525 C   0  0  0  0  0  0  0  0  0  0  0  0
  145.7901  133.5456  157.7819 O   0  0  0  0  0  0  0  0  0  0  0  0
  146.9850  135.4931  157.6955 N   0  0  0  0  0  0  0  0  0  0  0  0
  147.1433  135.8002  159.0701 C   0  0  0  0  0  0  0  0  0  0  0  0
  147.4891  137.0479  159.3985 N   0  0  0  0  0  0  0  0  0  0  0  0
  147.6038  137.2091  160.7729 N   0  0  0  0  0  0  0  0  0  0  0  0
  147.3423  136.0795  161.4428 C   0  0  0  0  0  0  0  0  0  0  0  0
  147.3901  135.9940  162.9300 C   0  0  0  0  0  0  0  0  0  0  0  0
  146.9283  134.7005  160.4320 S   0  0  0  0  0  0  0  0  0  0  0  0
  144.4909  133.1069  152.8018 N   0  3  0  0  0  0  0  0  0  0  0  0
  143.7456  133.5903  151.6188 C   0  0  0  0  0  0  0  0  0  0  0  0
  143.7128  132.4053  150.6611 C   0  0  0  0  0  0  0  0  0  0  0  0
  145.0814  131.7650  150.8579 C   0  0  0  0  0  0  0  0  0  0  0  0
  145.4727  132.1101  152.3014 C   0  0  0  0  0  0  0  0  0  0  0  0
  142.7843  136.8466  153.4561 H   0  0  0  0  0  0  0  0  0  0  0  0
  143.3493  135.7952  152.1640 H   0  0  0  0  0  0  0  0  0  0  0  0
  144.4558  136.9288  152.9401 H   0  0  0  0  0  0  0  0  0  0  0  0
  144.2663  135.6450  155.0952 H   0  0  0  0  0  0  0  0  0  0  0  0
  143.0404  134.6488  154.3707 H   0  0  0  0  0  0  0  0  0  0  0  0
  145.7939  134.7153  153.1225 H   0  0  0  0  0  0  0  0  0  0  0  0
  145.0959  132.9224  155.4981 H   0  0  0  0  0  0  0  0  0  0  0  0
  146.5417  132.7817  154.5762 H   0  0  0  0  0  0  0  0  0  0  0  0
  146.8638  135.2745  155.3868 H   0  0  0  0  0  0  0  0  0  0  0  0
  147.4012  136.1532  157.0554 H   0  0  0  0  0  0  0  0  0  0  0  0
  148.0116  136.7906  163.3401 H   0  0  0  0  0  0  0  0  0  0  0  0
  147.8062  135.0346  163.2375 H   0  0  0  0  0  0  0  0  0  0  0  0
  146.3843  136.0874  163.3396 H   0  0  0  0  0  0  0  0  0  0  0  0
  142.7407  133.9263  151.8760 H   0  0  0  0  0  0  0  0  0  0  0  0
  144.2813  134.4229  151.1593 H   0  0  0  0  0  0  0  0  0  0  0  0
  142.9300  131.7076  150.9618 H   0  0  0  0  0  0  0  0  0  0  0  0
  143.5242  132.6989  149.6279 H   0  0  0  0  0  0  0  0  0  0  0  0
  145.0668  130.6901  150.6732 H   0  0  0  0  0  0  0  0  0  0  0  0
  145.7987  132.2099  150.1666 H   0  0  0  0  0  0  0  0  0  0  0  0
  146.4899  132.5041  152.3168 H   0  0  0  0  0  0  0  0  0  0  0  0
  145.4485  131.2275  152.9412 H   0  0  0  0  0  0  0  0  0  0  0  0
  143.8206  132.5853  153.3484 H   0  0  0  0  0  0  0  0  0  0  0  0
  1  2  1  0  0  0  0
  1 20  1  0  0  0  0
  1 21  1  0  0  0  0
  1 22  1  0  0  0  0
  2  3  1  0  0  0  0
  2 23  1  0  0  0  0
  2 24  1  0  0  0  0
  3  4  1  0  0  0  0
  3 15  1  0  0  0  0
  3 25  1  0  0  0  0
  4  5  1  0  0  0  0
  4 26  1  0  0  0  0
  4 27  1  0  0  0  0
  5  6  1  0  0  0  0
  5 28  1  0  0  0  0
  6  7  2  0  0  0  0
  6  8  1  0  0  0  0
  8  9  1  0  0  0  0
  8 29  1  0  0  0  0
  9 14  1  0  0  0  0
  9 10  2  0  0  0  0
 10 11  1  0  0  0  0
 11 12  2  0  0  0  0
 12 13  1  0  0  0  0
 12 14  1  0  0  0  0
 13 30  1  0  0  0  0
 13 31  1  0  0  0  0
 13 32  1  0  0  0  0
 15 19  1  0  0  0  0
 15 16  1  0  0  0  0
 15 41  1  0  0  0  0
 16 17  1  0  0  0  0
 16 33  1  0  0  0  0
 16 34  1  0  0  0  0
 17 18  1  0  0  0  0
 17 35  1  0  0  0  0
 17 36  1  0  0  0  0
 18 19  1  0  0  0  0
 18 37  1  0  0  0  0
 18 38  1  0  0  0  0
 19 39  1  0  0  0  0
 19 40  1  0  0  0  0
M  CHG  1  15   1
M  END
> <s_m_source_file>
AV-unprocessed.smi

> <i_m_source_file_index>
1622

> <i_lp_mmshare_version>
43012

> <i_f3d_flags>
0

> <s_epik_input>
W0NIMl0xW0NIMl1bQ0gyXVtDSDJdTjFbQ0BIXShbQ0gyXVtDSDNdKVtDSDJdW05IXUMoPU8pW05IXWMybm5jKHMyKVtDSDNd

> <s_epik_cmdline>
J2VwaWtfcHl0aG9uJywgJy1waCcsICc3LjAnLCAnLXRuJywgJzgnLCAnLW1hJywgJzIwMCcsICctbWV0YWxfYmluZGluZycsICctaW1hZScsICc8aW5maWxlLm1hZT4nLCAnLW9tYWUnLCAnPG91dGZpbGUubWFlPic=

> <r_lp_tautomer_probability>
1

> <r_epik_Ionization_Penalty>
0.00164835

> <r_epik_Ionization_Penalty_Charging>
0.00115997

> <r_epik_Ionization_Penalty_Neutral>
0.00048838

> <r_epik_State_Penalty>
-0

> <r_epik_Charging_Adjusted_Penalty>
0.00115997

> <i_epik_Tot_Q>
1

> <i_epik_Tot_abs_Q>
1

> <r_epik_Metal_State_Penalty>
0.216651

> <b_epik_Metal_Only>
0

> <s_lp_Force_Field>
OPLS_2005

> <r_lp_Energy>
37.4677

> <b_lp_Chiralities_Consistent>
1

> <s_lp_Variant>
AV-unprocessed.smi:1622-2

> <Gold.Version>
5.8.1

> <Gold.Id.Protein>
6NUR|6NUR_protein|mol2

> <Gold.PLP.Fitness>
37.0969

> <Gold.PLP.PLP>
-26.9174

> <Gold.PLP.part.hbond>
-3.0000

> <Gold.PLP.part.metal>
0.0000

> <Gold.PLP.part.buried>
-4.5849

> <Gold.PLP.part.nonpolar>
-19.3434

> <Gold.PLP.part.repulsive>
0.0114

> <Gold.PLP.ligand.clash>
0.0000

> <Gold.PLP.ligand.torsion>
0.4176

> <Gold.PLP.Chemscore.Hbond>
3.6480

> <Gold.PLP.Chemscore.CHOScore>
0.0000

> <Gold.PLP.Chemscore.Metal>
0.0000

> <Gold.Chemscore.Hbonds>
donor molecule, donor type, donor heavy atom, donor atom, acceptor molecule, acceptor atom, score
      L1  H    15    41       P1 10957  2.00
      P1  H  6931  6943       L1    11  0.68
      P1  H  6934  6947       L1    11  0.96

> <Gold.PLP.Chemscore.Internal.Correction>
0.0707

> <Gold.Rescore>
     Score         DG    S(hbond)    S(metal)    S(lipo)     H(rot)  DE(clash)    DE(int)     intcor
     13.31     -14.45       1.91        0.00      60.87       1.77       0.01       1.12       ----

> <Gold.Chemscore.Fitness>
13.3112

> <Gold.Chemscore.DG>
-14.4461

> <Gold.Chemscore.ZeroCoef>
-5.4800

> <Gold.Chemscore.Hbond>
1.9117

> <Gold.Chemscore.Metal>
0.0000

> <Gold.Chemscore.Lipo>
60.8725

> <Gold.Chemscore.Internal_Hbond>
0.0000

> <Gold.Chemscore.DEClash>
0.0133

> <Gold.Chemscore.DEInternal>
1.1216

> <Gold.Chemscore.Rot>
1.7738

> <Gold.Chemscore.Internal.Correction>
   9.000000E+99

> <Gold.Chemscore.Hbonds>
donor molecule, donor type, donor heavy atom, donor atom, acceptor molecule, acceptor atom, score
      L1  H    15    41       P1 10957  0.29
      P1  H  6931  6943       L1    11  0.39
      P1  H  6934  6947       L1    11  0.24

> <Gold.Chemscore.Hbond.Weighted>
-6.3850

> <Gold.Chemscore.Metal.Weighted>
-0.0000

> <Gold.Chemscore.Lipo.Weighted>
-7.1221

> <Gold.Chemscore.Internal_Hbond.Weighted>
0.0000

> <Gold.Chemscore.DEClash.Weighted>
0.0133

> <Gold.Chemscore.DEInternal.Weighted>
1.1216

> <Gold.Chemscore.Rot.Weighted>
4.5411

> <Gold.Chemscore.Internal.Correction.Weighted>
   9.000000E+99

> <Gold.Protein.RotatedTorsions>
[ 6907 6896 6895 6894 ] final  -67.18 input  -60.11 | X-H torsion
[ 7974 7965 7964 7962 ] final  -57.13 input  175.53 | X-H torsion
[ 8008 7997 7996 7995 ] final -156.88 input   59.86 | X-H torsion
[ 10167 10162 10161 10158 ] final   19.77 input  -65.29 | X-H torsion
[ 10718 10713 10712 10709 ] final -141.51 input   66.30 | X-H torsion
[ 10763 10752 10751 10750 ] final  -20.85 input  -60.55 | X-H torsion
[ 11005 11000 10999 10996 ] final   80.84 input  -57.11 | X-H torsion

> <Gold.Protein.ActiveResidues>
 VAL166  LYS551  ARG553  GLY616  TRP617  ASP618  TYR619  PRO620  LYS621  CYS622 
 ASP623  PHE694  ASN695  SER759  ASP760  ASP761  ALA762  ILE779  LEU786  VAL792 
 PHE793  MET794  SER795  GLU796  ALA797  LYS798  CYS799  TRP800  GLU811  SER814 

> <Gold.Protein.RotatedAtoms>
  150.7424  134.5917  159.5990 H   0  0  0  0  0  0  0  0  0  0  0  0  # atno 6907 bound_to 6896
  152.3303  134.7264  160.0300 H   0  0  0  0  0  0  0  0  0  0  0  0  # atno 6908 bound_to 6896
  151.7750  133.3308  159.3492 H   0  0  0  0  0  0  0  0  0  0  0  0  # atno 6909 bound_to 6896
  145.8546  140.8328  142.9968 H   0  0  0  0  0  0  0  0  0  0  0  0  # atno 7974 bound_to 7965
  155.7240  140.0793  157.2318 H   0  0  0  0  0  0  0  0  0  0  0  0  # atno 8008 bound_to 7997
  154.4041  140.1607  156.2488 H   0  0  0  0  0  0  0  0  0  0  0  0  # atno 8009 bound_to 7997
  155.9170  140.3400  155.6146 H   0  0  0  0  0  0  0  0  0  0  0  0  # atno 8010 bound_to 7997
  140.5554  143.9434  150.6605 H   0  0  0  0  0  0  0  0  0  0  0  0  # atno 10167 bound_to 10162
  156.3349  130.7606  151.1731 H   0  0  0  0  0  0  0  0  0  0  0  0  # atno 10718 bound_to 10713
  153.6269  135.6990  153.5290 H   0  0  0  0  0  0  0  0  0  0  0  0  # atno 10763 bound_to 10752
  153.2891  135.4162  155.1150 H   0  0  0  0  0  0  0  0  0  0  0  0  # atno 10764 bound_to 10752
  154.8531  135.3621  154.5811 H   0  0  0  0  0  0  0  0  0  0  0  0  # atno 10765 bound_to 10752
  139.9119  134.7951  156.1963 H   0  0  0  0  0  0  0  0  0  0  0  0  # atno 11005 bound_to 11000
  144.6728  140.1004  143.7461 LP  0  0  0  0  0  0  0  0  0  0  0  0  # atno 17320 bound_to 7965
  145.9319  139.2611  143.1320 LP  0  0  0  0  0  0  0  0  0  0  0  0  # atno 17321 bound_to 7965
  140.2871  143.3349  152.1097 LP  0  0  0  0  0  0  0  0  0  0  0  0  # atno 17342 bound_to 10162
  139.5045  144.6777  151.6086 LP  0  0  0  0  0  0  0  0  0  0  0  0  # atno 17343 bound_to 10162
  157.7437  131.0471  150.4925 LP  0  0  0  0  0  0  0  0  0  0  0  0  # atno 17370 bound_to 10713
  156.5097  130.4136  149.6308 LP  0  0  0  0  0  0  0  0  0  0  0  0  # atno 17371 bound_to 10713
  141.0552  133.6868  156.1848 LP  0  0  0  0  0  0  0  0  0  0  0  0  # atno 17394 bound_to 11000
  140.6747  134.4830  157.5588 LP  0  0  0  0  0  0  0  0  0  0  0  0  # atno 17395 bound_to 11000

$$$$
