AV-unprocessed.smi:2148|AV-procd|sdf|8750|dock7
  -GOLD-   2272011523D 1   1.00000     0.00000
 Structure written by MMmdl.
 44 45  0  0  0  0  0  0  0  0  1 V2000
  157.5798  139.9762  165.3574 C   0  0  0  0  0  0  0  0  0  0  0  0
  156.3018  139.7724  166.6283 S   0  0  0  0  0  0  0  0  0  0  0  0
  155.8763  141.5065  166.9730 C   0  0  2  0  0  0  0  0  0  0  0  0
  155.0575  141.6039  168.2698 C   0  0  0  0  0  0  0  0  0  0  0  0
  155.1315  142.1567  165.7998 C   0  0  0  0  0  0  0  0  0  0  0  0
  154.6809  143.2953  165.9217 O   0  0  0  0  0  0  0  0  0  0  0  0
  154.9987  141.3938  164.6982 N   0  0  0  0  0  0  0  0  0  0  0  0
  154.3575  141.7000  163.4668 C   0  0  0  0  0  0  0  0  0  0  0  0
  153.6252  142.9004  163.3885 C   0  0  0  0  0  0  0  0  0  0  0  0
  152.9654  143.2304  162.1898 C   0  0  0  0  0  0  0  0  0  0  0  0
  153.0505  142.3456  161.0890 C   0  0  0  0  0  0  0  0  0  0  0  0
  152.4016  142.6550  159.8733 N   0  0  0  0  0  0  0  0  0  0  0  0
  151.6134  141.5805  159.2779 C   0  0  0  0  0  0  0  0  0  0  0  0
  151.2869  141.9065  157.8096 C   0  0  1  0  0  0  0  0  0  0  0  0
  150.3548  140.8625  157.1858 C   0  0  0  0  0  0  0  0  0  0  0  0
  150.6413  143.1767  157.7339 O   0  0  0  0  0  0  0  0  0  0  0  0
  151.3932  144.2628  158.2793 C   0  0  2  0  0  0  0  0  0  0  0  0
  152.5989  144.6353  157.3985 C   0  0  0  0  0  0  0  0  0  0  0  0
  151.7712  143.9678  159.7444 C   0  0  0  0  0  0  0  0  0  0  0  0
  153.7392  141.1809  161.1713 N   0  0  0  0  0  0  0  0  0  0  0  0
  154.3707  140.8677  162.3223 C   0  0  0  0  0  0  0  0  0  0  0  0
  157.9750  139.0030  165.0661 H   0  0  0  0  0  0  0  0  0  0  0  0
  158.4017  140.5833  165.7362 H   0  0  0  0  0  0  0  0  0  0  0  0
  157.1695  140.4573  164.4696 H   0  0  0  0  0  0  0  0  0  0  0  0
  156.8137  142.0410  167.1357 H   0  0  0  0  0  0  0  0  0  0  0  0
  154.7920  142.6375  168.4954 H   0  0  0  0  0  0  0  0  0  0  0  0
  155.6261  141.2207  169.1176 H   0  0  0  0  0  0  0  0  0  0  0  0
  154.1336  141.0273  168.2064 H   0  0  0  0  0  0  0  0  0  0  0  0
  155.3629  140.4549  164.7710 H   0  0  0  0  0  0  0  0  0  0  0  0
  153.5669  143.5660  164.2374 H   0  0  0  0  0  0  0  0  0  0  0  0
  152.3949  144.1455  162.1356 H   0  0  0  0  0  0  0  0  0  0  0  0
  152.1321  140.6239  159.3220 H   0  0  0  0  0  0  0  0  0  0  0  0
  150.6924  141.4663  159.8509 H   0  0  0  0  0  0  0  0  0  0  0  0
  152.2076  141.9259  157.2262 H   0  0  0  0  0  0  0  0  0  0  0  0
  150.8052  139.8697  157.2105 H   0  0  0  0  0  0  0  0  0  0  0  0
  150.1410  141.1045  156.1443 H   0  0  0  0  0  0  0  0  0  0  0  0
  149.4047  140.8129  157.7186 H   0  0  0  0  0  0  0  0  0  0  0  0
  150.7258  145.1249  158.2779 H   0  0  0  0  0  0  0  0  0  0  0  0
  153.0700  145.5504  157.7578 H   0  0  0  0  0  0  0  0  0  0  0  0
  152.2883  144.8074  156.3678 H   0  0  0  0  0  0  0  0  0  0  0  0
  153.3641  143.8595  157.3932 H   0  0  0  0  0  0  0  0  0  0  0  0
  150.8736  143.9851  160.3643 H   0  0  0  0  0  0  0  0  0  0  0  0
  152.4329  144.7518  160.1147 H   0  0  0  0  0  0  0  0  0  0  0  0
  154.8749  139.9148  162.3078 H   0  0  0  0  0  0  0  0  0  0  0  0
  1  2  1  0  0  0  0
  1 22  1  0  0  0  0
  1 23  1  0  0  0  0
  1 24  1  0  0  0  0
  2  3  1  0  0  0  0
  3  4  1  0  0  0  0
  3  5  1  0  0  0  0
  3 25  1  0  0  0  0
  4 26  1  0  0  0  0
  4 27  1  0  0  0  0
  4 28  1  0  0  0  0
  5  6  2  0  0  0  0
  5  7  1  0  0  0  0
  7  8  1  0  0  0  0
  7 29  1  0  0  0  0
  8 21  1  0  0  0  0
  8  9  2  0  0  0  0
  9 10  1  0  0  0  0
  9 30  1  0  0  0  0
 10 11  2  0  0  0  0
 10 31  1  0  0  0  0
 11 12  1  0  0  0  0
 11 20  1  0  0  0  0
 12 19  1  0  0  0  0
 12 13  1  0  0  0  0
 13 14  1  0  0  0  0
 13 32  1  0  0  0  0
 13 33  1  0  0  0  0
 14 15  1  0  0  0  0
 14 16  1  0  0  0  0
 14 34  1  0  0  0  0
 15 35  1  0  0  0  0
 15 36  1  0  0  0  0
 15 37  1  0  0  0  0
 16 17  1  0  0  0  0
 17 18  1  0  0  0  0
 17 19  1  0  0  0  0
 17 38  1  0  0  0  0
 18 39  1  0  0  0  0
 18 40  1  0  0  0  0
 18 41  1  0  0  0  0
 19 42  1  0  0  0  0
 19 43  1  0  0  0  0
 20 21  2  0  0  0  0
 21 44  1  0  0  0  0
M  END
> <s_m_source_file>
AV-unprocessed.smi

> <i_m_source_file_index>
2148

> <i_lp_mmshare_version>
43012

> <i_f3d_flags>
0

> <s_epik_input>
W0NIM11TW0NASF0oW0NIM10pQyg9TylbTkhdYzFbY0hdW2NIXWMobltjSF0xKU4yW0NIMl1bQ0BASF0oW0NIM10pT1tDQEBIXShbQ0gzXSlbQ0gyXTI=

> <s_epik_cmdline>
J2VwaWtfcHl0aG9uJywgJy1waCcsICc3LjAnLCAnLXRuJywgJzgnLCAnLW1hJywgJzIwMCcsICctbWV0YWxfYmluZGluZycsICctaW1hZScsICc8aW5maWxlLm1hZT4nLCAnLW9tYWUnLCAnPG91dGZpbGUubWFlPic=

> <r_lp_tautomer_probability>
1

> <r_epik_Ionization_Penalty>
0.000646494

> <r_epik_Ionization_Penalty_Charging>
0

> <r_epik_Ionization_Penalty_Neutral>
0.000646494

> <r_epik_State_Penalty>
0.000408447

> <r_epik_Charging_Adjusted_Penalty>
0.000408447

> <i_epik_Tot_Q>
0

> <i_epik_Tot_abs_Q>
0

> <r_epik_Metal_State_Penalty>
-0

> <b_epik_Metal_Only>
0

> <s_lp_Force_Field>
OPLS_2005

> <r_lp_Energy>
25.6467

> <b_lp_Chiralities_Consistent>
1

> <s_lp_Variant>
AV-unprocessed.smi:2148-5

> <Gold.Version>
5.8.1

> <Gold.Id.Protein>
6NUR|6NUR_protein|mol2

> <Gold.PLP.Fitness>
41.4760

> <Gold.PLP.PLP>
-41.8394

> <Gold.PLP.part.hbond>
-0.7585

> <Gold.PLP.part.metal>
0.0000

> <Gold.PLP.part.buried>
-4.5564

> <Gold.PLP.part.nonpolar>
-35.5176

> <Gold.PLP.part.repulsive>
0.2296

> <Gold.PLP.ligand.clash>
0.0000

> <Gold.PLP.ligand.torsion>
0.3660

> <Gold.PLP.Chemscore.Hbond>
0.0000

> <Gold.PLP.Chemscore.CHOScore>
0.0000

> <Gold.PLP.Chemscore.Metal>
0.0000

> <Gold.PLP.Chemscore.Internal.Correction>
0.3686

> <Gold.Rescore>
     Score         DG    S(hbond)    S(metal)    S(lipo)     H(rot)  DE(clash)    DE(int)     intcor
     13.09     -15.77       0.00        0.00     115.61       1.27       0.80       1.88       ----

> <Gold.Chemscore.Fitness>
13.0932

> <Gold.Chemscore.DG>
-15.7655

> <Gold.Chemscore.ZeroCoef>
-5.4800

> <Gold.Chemscore.Hbond>
0.0000

> <Gold.Chemscore.Metal>
0.0000

> <Gold.Chemscore.Lipo>
115.6074

> <Gold.Chemscore.Internal_Hbond>
0.0000

> <Gold.Chemscore.DEClash>
0.7955

> <Gold.Chemscore.DEInternal>
1.8768

> <Gold.Chemscore.Rot>
1.2659

> <Gold.Chemscore.Internal.Correction>
   9.000000E+99

> <Gold.Chemscore.Hbond.Weighted>
-0.0000

> <Gold.Chemscore.Metal.Weighted>
-0.0000

> <Gold.Chemscore.Lipo.Weighted>
-13.5261

> <Gold.Chemscore.Internal_Hbond.Weighted>
0.0000

> <Gold.Chemscore.DEClash.Weighted>
0.7955

> <Gold.Chemscore.DEInternal.Weighted>
1.8768

> <Gold.Chemscore.Rot.Weighted>
3.2406

> <Gold.Chemscore.Internal.Correction.Weighted>
   9.000000E+99

> <Gold.Protein.RotatedTorsions>
[ 6907 6896 6895 6894 ] final    0.44 input  -60.11 | X-H torsion
[ 7974 7965 7964 7962 ] final   55.83 input  175.53 | X-H torsion
[ 8008 7997 7996 7995 ] final   37.75 input   59.86 | X-H torsion
[ 10167 10162 10161 10158 ] final  104.96 input  -65.29 | X-H torsion
[ 10718 10713 10712 10709 ] final  -93.31 input   66.30 | X-H torsion
[ 10763 10752 10751 10750 ] final   18.41 input  -60.55 | X-H torsion
[ 11005 11000 10999 10996 ] final  -63.30 input  -57.11 | X-H torsion

> <Gold.Protein.ActiveResidues>
 VAL166  LYS551  ARG553  GLY616  TRP617  ASP618  TYR619  PRO620  LYS621  CYS622 
 ASP623  PHE694  ASN695  SER759  ASP760  ASP761  ALA762  ILE779  LEU786  VAL792 
 PHE793  MET794  SER795  GLU796  ALA797  LYS798  CYS799  TRP800  GLU811  SER814 

> <Gold.Protein.RotatedAtoms>
  151.5765  135.1060  160.0007 H   0  0  0  0  0  0  0  0  0  0  0  0  # atno 6907 bound_to 6896
  152.4375  133.7383  159.6637 H   0  0  0  0  0  0  0  0  0  0  0  0  # atno 6908 bound_to 6896
  150.8275  133.8077  159.3135 H   0  0  0  0  0  0  0  0  0  0  0  0  # atno 6909 bound_to 6896
  145.9463  139.3932  143.0333 H   0  0  0  0  0  0  0  0  0  0  0  0  # atno 7974 bound_to 7965
  155.2090  140.3322  155.4331 H   0  0  0  0  0  0  0  0  0  0  0  0  # atno 8008 bound_to 7997
  156.2378  140.1880  156.7121 H   0  0  0  0  0  0  0  0  0  0  0  0  # atno 8009 bound_to 7997
  154.6091  140.0611  156.9455 H   0  0  0  0  0  0  0  0  0  0  0  0  # atno 8010 bound_to 7997
  139.7133  144.7073  151.0991 H   0  0  0  0  0  0  0  0  0  0  0  0  # atno 10167 bound_to 10162
  156.0012  130.5022  150.5757 H   0  0  0  0  0  0  0  0  0  0  0  0  # atno 10718 bound_to 10713
  153.1252  135.6728  153.9269 H   0  0  0  0  0  0  0  0  0  0  0  0  # atno 10763 bound_to 10752
  153.8772  135.3062  155.3445 H   0  0  0  0  0  0  0  0  0  0  0  0  # atno 10764 bound_to 10752
  154.7658  135.4965  153.9632 H   0  0  0  0  0  0  0  0  0  0  0  0  # atno 10765 bound_to 10752
  141.1388  133.6650  156.5659 H   0  0  0  0  0  0  0  0  0  0  0  0  # atno 11005 bound_to 11000
  145.8232  140.9668  143.0888 LP  0  0  0  0  0  0  0  0  0  0  0  0  # atno 17320 bound_to 7965
  144.6787  140.0068  143.7484 LP  0  0  0  0  0  0  0  0  0  0  0  0  # atno 17321 bound_to 7965
  140.7738  143.5264  150.9475 LP  0  0  0  0  0  0  0  0  0  0  0  0  # atno 17342 bound_to 10162
  139.8949  143.6907  152.3140 LP  0  0  0  0  0  0  0  0  0  0  0  0  # atno 17343 bound_to 10162
  157.3645  131.0755  151.1609 LP  0  0  0  0  0  0  0  0  0  0  0  0  # atno 17370 bound_to 10713
  157.2383  130.6557  149.5879 LP  0  0  0  0  0  0  0  0  0  0  0  0  # atno 17371 bound_to 10713
  140.3951  134.7406  157.4745 LP  0  0  0  0  0  0  0  0  0  0  0  0  # atno 17394 bound_to 11000
  140.0537  134.6093  155.8830 LP  0  0  0  0  0  0  0  0  0  0  0  0  # atno 17395 bound_to 11000

$$$$
