AV-unprocessed.smi:2342|AV-procd|sdf|9355|dock5
  -GOLD-   2272012573D 1   1.00000     0.00000
 Structure written by MMmdl.
 38 38  0  0  0  0  0  0  0  0  2 V2000
  149.6559  141.4315  155.1138 C   0  0  0  0  0  0  0  0  0  0  0  0
  150.8838  141.1916  156.0177 C   0  0  1  0  0  0  0  0  0  0  0  0
  150.5121  141.0767  157.5183 C   0  0  0  0  0  0  0  0  0  0  0  0
  150.6694  139.7165  158.0200 N   0  0  0  0  0  0  0  0  0  0  0  0
  149.6676  138.8812  158.3354 C   0  0  0  0  0  0  0  0  0  0  0  0
  148.4801  139.2049  158.3224 O   0  0  0  0  0  0  0  0  0  0  0  0
  150.0692  137.4517  158.7024 C   0  0  0  0  0  0  0  0  0  0  0  0
  148.8704  136.7013  159.2074 C   0  0  0  0  0  0  0  0  0  0  0  0
  148.0095  135.9298  158.4686 C   0  0  0  0  0  0  0  0  0  0  0  0
  146.7779  135.2018  159.4604 S   0  0  0  0  0  0  0  0  0  0  0  0
  147.4797  135.9906  160.8779 C   0  0  0  0  0  0  0  0  0  0  0  0
  146.9730  135.8436  162.2924 C   0  0  0  0  0  0  0  0  0  0  0  0
  147.0092  134.3595  162.7061 C   0  0  0  0  0  0  0  0  0  0  0  0
  145.5130  136.3299  162.4186 C   0  0  0  0  0  0  0  0  0  0  0  0
  147.8308  136.6953  163.2481 C   0  0  0  0  0  0  0  0  0  0  0  0
  148.5459  136.7364  160.5675 N   0  0  0  0  0  0  0  0  0  0  0  0
  151.6709  139.9627  155.5211 C   0  0  0  0  0  0  0  0  0  0  0  0
  151.3303  139.4293  154.4414 O   0  0  0  0  0  0  0  0  0  0  0  0
  152.6124  139.5657  156.2430 O   0  5  0  0  0  0  0  0  0  0  0  0
  149.9261  141.4678  154.0580 H   0  0  0  0  0  0  0  0  0  0  0  0
  149.1764  142.3823  155.3454 H   0  0  0  0  0  0  0  0  0  0  0  0
  148.9105  140.6458  155.2404 H   0  0  0  0  0  0  0  0  0  0  0  0
  151.5533  142.0446  155.8996 H   0  0  0  0  0  0  0  0  0  0  0  0
  151.1580  141.7204  158.1168 H   0  0  0  0  0  0  0  0  0  0  0  0
  149.4888  141.4144  157.6932 H   0  0  0  0  0  0  0  0  0  0  0  0
  151.6120  139.3572  158.0623 H   0  0  0  0  0  0  0  0  0  0  0  0
  150.4982  136.9609  157.8278 H   0  0  0  0  0  0  0  0  0  0  0  0
  150.8541  137.4783  159.4593 H   0  0  0  0  0  0  0  0  0  0  0  0
  148.0355  135.7342  157.4067 H   0  0  0  0  0  0  0  0  0  0  0  0
  146.6397  134.2198  163.7227 H   0  0  0  0  0  0  0  0  0  0  0  0
  148.0229  133.9585  162.6714 H   0  0  0  0  0  0  0  0  0  0  0  0
  146.3933  133.7484  162.0451 H   0  0  0  0  0  0  0  0  0  0  0  0
  144.8402  135.7558  161.7802 H   0  0  0  0  0  0  0  0  0  0  0  0
  145.4144  137.3815  162.1466 H   0  0  0  0  0  0  0  0  0  0  0  0
  145.1486  136.2272  163.4416 H   0  0  0  0  0  0  0  0  0  0  0  0
  147.4750  136.6200  164.2761 H   0  0  0  0  0  0  0  0  0  0  0  0
  147.8091  137.7493  162.9678 H   0  0  0  0  0  0  0  0  0  0  0  0
  148.8733  136.3754  163.2422 H   0  0  0  0  0  0  0  0  0  0  0  0
  1  2  1  0  0  0  0
  1 20  1  0  0  0  0
  1 21  1  0  0  0  0
  1 22  1  0  0  0  0
  2  3  1  0  0  0  0
  2 17  1  0  0  0  0
  2 23  1  0  0  0  0
  3  4  1  0  0  0  0
  3 24  1  0  0  0  0
  3 25  1  0  0  0  0
  4  5  1  0  0  0  0
  4 26  1  0  0  0  0
  5  6  2  0  0  0  0
  5  7  1  0  0  0  0
  7  8  1  0  0  0  0
  7 27  1  0  0  0  0
  7 28  1  0  0  0  0
  8 16  1  0  0  0  0
  8  9  2  0  0  0  0
  9 10  1  0  0  0  0
  9 29  1  0  0  0  0
 10 11  1  0  0  0  0
 11 12  1  0  0  0  0
 11 16  2  0  0  0  0
 12 13  1  0  0  0  0
 12 14  1  0  0  0  0
 12 15  1  0  0  0  0
 13 30  1  0  0  0  0
 13 31  1  0  0  0  0
 13 32  1  0  0  0  0
 14 33  1  0  0  0  0
 14 34  1  0  0  0  0
 14 35  1  0  0  0  0
 15 36  1  0  0  0  0
 15 37  1  0  0  0  0
 15 38  1  0  0  0  0
 17 18  2  0  0  0  0
 17 19  1  0  0  0  0
M  CHG  1  19  -1
M  END
> <s_m_source_file>
AV-unprocessed.smi

> <i_m_source_file_index>
2342

> <i_lp_mmshare_version>
43012

> <i_f3d_flags>
0

> <s_epik_input>
Tz1DKFtPSF0pW0NASF0oW0NIM10pW0NIMl1bTkhdQyg9TylbQ0gyXWMxW2NIXXNjKG4xKUMoW0NIM10pKFtDSDNdKVtDSDNd

> <s_epik_cmdline>
J2VwaWtfcHl0aG9uJywgJy1waCcsICc3LjAnLCAnLXRuJywgJzgnLCAnLW1hJywgJzIwMCcsICctbWV0YWxfYmluZGluZycsICctaW1hZScsICc8aW5maWxlLm1hZT4nLCAnLW9tYWUnLCAnPG91dGZpbGUubWFlPic=

> <r_epik_Ionization_Penalty>
0.00120065

> <r_epik_Ionization_Penalty_Charging>
0.00115909

> <r_epik_Ionization_Penalty_Neutral>
4.15663e-05

> <r_epik_State_Penalty>
0.00076313

> <r_epik_Charging_Adjusted_Penalty>
0.00192222

> <i_epik_Tot_Q>
-1

> <i_epik_Tot_abs_Q>
1

> <r_epik_Metal_State_Penalty>
-0

> <b_epik_Metal_Only>
0

> <s_lp_Force_Field>
OPLS_2005

> <r_lp_Energy>
-2.08659

> <b_lp_Chiralities_Consistent>
1

> <s_lp_Variant>
AV-unprocessed.smi:2342-2

> <Gold.Version>
5.8.1

> <Gold.Id.Protein>
6NUR|6NUR_protein|mol2

> <Gold.PLP.Fitness>
44.5471

> <Gold.PLP.PLP>
-37.0519

> <Gold.PLP.part.hbond>
-3.9465

> <Gold.PLP.part.metal>
0.0000

> <Gold.PLP.part.buried>
-3.0583

> <Gold.PLP.part.nonpolar>
-30.1843

> <Gold.PLP.part.repulsive>
0.1950

> <Gold.PLP.ligand.clash>
1.6816

> <Gold.PLP.ligand.torsion>
1.3769

> <Gold.PLP.Chemscore.Hbond>
3.9440

> <Gold.PLP.Chemscore.CHOScore>
0.0000

> <Gold.PLP.Chemscore.Metal>
0.0000

> <Gold.Chemscore.Hbonds>
donor molecule, donor type, donor heavy atom, donor atom, acceptor molecule, acceptor atom, score
      P1  H  6931  6943       L1    16  0.83
      P1  H  7989  7998       L1    18  0.70
      P1  H  7997  8008       L1    19  2.00

> <Gold.PLP.Chemscore.Internal.Correction>
0.0987

> <Gold.Rescore>
     Score         DG    S(hbond)    S(metal)    S(lipo)     H(rot)  DE(clash)    DE(int)     intcor
     14.77     -18.04       2.82        0.00      79.02       2.38       0.01       3.26       ----

> <Gold.Chemscore.Fitness>
14.7674

> <Gold.Chemscore.DG>
-18.0371

> <Gold.Chemscore.ZeroCoef>
-5.4800

> <Gold.Chemscore.Hbond>
2.8166

> <Gold.Chemscore.Metal>
0.0000

> <Gold.Chemscore.Lipo>
79.0230

> <Gold.Chemscore.Internal_Hbond>
0.0000

> <Gold.Chemscore.DEClash>
0.0125

> <Gold.Chemscore.DEInternal>
3.2572

> <Gold.Chemscore.Rot>
2.3812

> <Gold.Chemscore.Internal.Correction>
   9.000000E+99

> <Gold.Chemscore.Hbonds>
donor molecule, donor type, donor heavy atom, donor atom, acceptor molecule, acceptor atom, score
      P1  H  6931  6943       L1    16  0.73
      P1  H  7989  7998       L1    18  0.07
      P1  H  7997  8008       L1    19  1.00

> <Gold.Chemscore.Hbond.Weighted>
-9.4073

> <Gold.Chemscore.Metal.Weighted>
-0.0000

> <Gold.Chemscore.Lipo.Weighted>
-9.2457

> <Gold.Chemscore.Internal_Hbond.Weighted>
0.0000

> <Gold.Chemscore.DEClash.Weighted>
0.0125

> <Gold.Chemscore.DEInternal.Weighted>
3.2572

> <Gold.Chemscore.Rot.Weighted>
6.0959

> <Gold.Chemscore.Internal.Correction.Weighted>
   9.000000E+99

> <Gold.Protein.RotatedTorsions>
[ 6907 6896 6895 6894 ] final   78.05 input  -60.11 | X-H torsion
[ 7974 7965 7964 7962 ] final  169.57 input  175.53 | X-H torsion
[ 8008 7997 7996 7995 ] final  -38.48 input   59.86 | X-H torsion
[ 10167 10162 10161 10158 ] final  169.18 input  -65.29 | X-H torsion
[ 10718 10713 10712 10709 ] final  139.23 input   66.30 | X-H torsion
[ 10763 10752 10751 10750 ] final -168.69 input  -60.55 | X-H torsion
[ 11005 11000 10999 10996 ] final   95.46 input  -57.11 | X-H torsion

> <Gold.Protein.ActiveResidues>
 VAL166  LYS551  ARG553  GLY616  TRP617  ASP618  TYR619  PRO620  LYS621  CYS622 
 ASP623  PHE694  ASN695  SER759  ASP760  ASP761  ALA762  ILE779  LEU786  VAL792 
 PHE793  MET794  SER795  GLU796  ALA797  LYS798  CYS799  TRP800  GLU811  SER814 

> <Gold.Protein.RotatedAtoms>
  152.5143  134.3723  159.9322 H   0  0  0  0  0  0  0  0  0  0  0  0  # atno 6907 bound_to 6896
  151.3678  133.3859  159.2704 H   0  0  0  0  0  0  0  0  0  0  0  0  # atno 6908 bound_to 6896
  150.9601  134.9010  159.7784 H   0  0  0  0  0  0  0  0  0  0  0  0  # atno 6909 bound_to 6896
  144.7351  139.9074  143.6413 H   0  0  0  0  0  0  0  0  0  0  0  0  # atno 7974 bound_to 7965
  154.4036  140.1577  156.2707 H   0  0  0  0  0  0  0  0  0  0  0  0  # atno 8008 bound_to 7997
  155.8956  140.3436  155.5966 H   0  0  0  0  0  0  0  0  0  0  0  0  # atno 8009 bound_to 7997
  155.7508  140.0804  157.2193 H   0  0  0  0  0  0  0  0  0  0  0  0  # atno 8010 bound_to 7997
  139.4986  144.3734  151.9700 H   0  0  0  0  0  0  0  0  0  0  0  0  # atno 10167 bound_to 10162
  157.4166  131.1034  151.0398 H   0  0  0  0  0  0  0  0  0  0  0  0  # atno 10718 bound_to 10713
  154.6602  135.2924  154.9876 H   0  0  0  0  0  0  0  0  0  0  0  0  # atno 10763 bound_to 10752
  154.0938  135.6587  153.4861 H   0  0  0  0  0  0  0  0  0  0  0  0  # atno 10764 bound_to 10752
  153.0425  135.5226  154.7550 H   0  0  0  0  0  0  0  0  0  0  0  0  # atno 10765 bound_to 10752
  139.8789  134.8900  156.4015 H   0  0  0  0  0  0  0  0  0  0  0  0  # atno 11005 bound_to 11000
  146.1026  139.4023  143.0337 LP  0  0  0  0  0  0  0  0  0  0  0  0  # atno 17320 bound_to 7965
  145.7556  140.9955  143.1227 LP  0  0  0  0  0  0  0  0  0  0  0  0  # atno 17321 bound_to 7965
  140.3170  144.3472  150.6019 LP  0  0  0  0  0  0  0  0  0  0  0  0  # atno 17342 bound_to 10162
  140.5753  143.2177  151.7526 LP  0  0  0  0  0  0  0  0  0  0  0  0  # atno 17343 bound_to 10162
  157.1343  130.6116  149.5538 LP  0  0  0  0  0  0  0  0  0  0  0  0  # atno 17370 bound_to 10713
  155.9867  130.4903  150.7091 LP  0  0  0  0  0  0  0  0  0  0  0  0  # atno 17371 bound_to 10713
  140.9264  133.7609  155.9969 LP  0  0  0  0  0  0  0  0  0  0  0  0  # atno 17394 bound_to 11000
  140.8381  134.3099  157.5324 LP  0  0  0  0  0  0  0  0  0  0  0  0  # atno 17395 bound_to 11000

$$$$
