AV-unprocessed.smi:1978|AV-procd|sdf|8014|dock6
  -GOLD-   2272010203D 1   1.00000     0.00000
 Structure written by MMmdl.
 44 45  0  0  0  0  0  0  0  0  3 V2000
  153.2751  142.4577  161.2942 C   0  0  0  0  0  0  0  0  0  0  0  0
  152.9472  141.7110  160.0471 C   0  0  0  0  0  0  0  0  0  0  0  0
  152.1279  141.9831  158.9879 C   0  0  0  0  0  0  0  0  0  0  0  0
  152.2890  140.8434  158.1557 C   0  0  0  0  0  0  0  0  0  0  0  0
  151.5865  140.7410  156.9257 N   0  0  0  0  0  0  0  0  0  0  0  0
  151.9472  140.0988  155.7995 C   0  0  0  0  0  0  0  0  0  0  0  0
  153.0139  139.4747  155.7509 O   0  0  0  0  0  0  0  0  0  0  0  0
  151.0229  140.2380  154.8097 N   0  5  0  0  0  0  0  0  0  0  0  0
  150.0615  139.2055  154.4244 C   0  0  0  0  0  0  0  0  0  0  0  0
  148.9439  139.8086  153.5163 C   0  0  2  0  0  0  0  0  0  0  0  0
  148.3770  141.0979  154.1873 C   0  0  0  0  0  0  0  0  0  0  0  0
  147.8994  138.7665  153.1970 N   0  3  2  0  0  0  0  0  0  0  0  0
  146.8900  139.1784  152.1675 C   0  0  0  0  0  0  0  0  0  0  0  0
  146.1436  137.9519  151.6167 C   0  0  0  0  0  0  0  0  0  0  0  0
  145.4643  137.1576  152.7384 C   0  0  0  0  0  0  0  0  0  0  0  0
  146.4768  136.8278  153.8465 C   0  0  0  0  0  0  0  0  0  0  0  0
  147.2271  138.0804  154.3496 C   0  0  2  0  0  0  0  0  0  0  0  0
  146.2990  139.0083  155.1712 C   0  0  0  0  0  0  0  0  0  0  0  0
  153.1329  139.9565  158.6622 N   0  0  0  0  0  0  0  0  0  0  0  0
  153.5586  140.5076  159.8764 O   0  0  0  0  0  0  0  0  0  0  0  0
  152.7460  143.4101  161.3289 H   0  0  0  0  0  0  0  0  0  0  0  0
  154.3443  142.6624  161.3518 H   0  0  0  0  0  0  0  0  0  0  0  0
  152.9919  141.8810  162.1749 H   0  0  0  0  0  0  0  0  0  0  0  0
  151.5127  142.8571  158.8348 H   0  0  0  0  0  0  0  0  0  0  0  0
  150.6991  141.2202  156.8902 H   0  0  0  0  0  0  0  0  0  0  0  0
  150.5653  138.3968  153.8961 H   0  0  0  0  0  0  0  0  0  0  0  0
  149.5980  138.7313  155.2905 H   0  0  0  0  0  0  0  0  0  0  0  0
  149.3830  140.1076  152.5626 H   0  0  0  0  0  0  0  0  0  0  0  0
  149.1542  141.8343  154.4041 H   0  0  0  0  0  0  0  0  0  0  0  0
  147.8658  140.8855  155.1285 H   0  0  0  0  0  0  0  0  0  0  0  0
  147.6714  141.6278  153.5521 H   0  0  0  0  0  0  0  0  0  0  0  0
  146.1898  139.8989  152.5891 H   0  0  0  0  0  0  0  0  0  0  0  0
  147.3487  139.6891  151.3224 H   0  0  0  0  0  0  0  0  0  0  0  0
  145.4014  138.2653  150.8818 H   0  0  0  0  0  0  0  0  0  0  0  0
  146.8475  137.3074  151.0883 H   0  0  0  0  0  0  0  0  0  0  0  0
  144.6309  137.7305  153.1449 H   0  0  0  0  0  0  0  0  0  0  0  0
  145.0343  136.2385  152.3387 H   0  0  0  0  0  0  0  0  0  0  0  0
  145.9722  136.3304  154.6756 H   0  0  0  0  0  0  0  0  0  0  0  0
  147.2017  136.1098  153.4601 H   0  0  0  0  0  0  0  0  0  0  0  0
  147.9921  137.6951  155.0222 H   0  0  0  0  0  0  0  0  0  0  0  0
  145.9667  138.5059  156.0801 H   0  0  0  0  0  0  0  0  0  0  0  0
  145.4024  139.2959  154.6243 H   0  0  0  0  0  0  0  0  0  0  0  0
  146.7880  139.9320  155.4744 H   0  0  0  0  0  0  0  0  0  0  0  0
  148.4378  138.0336  152.7574 H   0  0  0  0  0  0  0  0  0  0  0  0
  1  2  1  0  0  0  0
  1 21  1  0  0  0  0
  1 22  1  0  0  0  0
  1 23  1  0  0  0  0
  2 20  1  0  0  0  0
  2  3  2  0  0  0  0
  3  4  1  0  0  0  0
  3 24  1  0  0  0  0
  4  5  1  0  0  0  0
  4 19  2  0  0  0  0
  5  6  1  0  0  0  0
  5 25  1  0  0  0  0
  6  7  2  0  0  0  0
  6  8  1  0  0  0  0
  8  9  1  0  0  0  0
  9 10  1  0  0  0  0
  9 26  1  0  0  0  0
  9 27  1  0  0  0  0
 10 11  1  0  0  0  0
 10 12  1  0  0  0  0
 10 28  1  0  0  0  0
 11 29  1  0  0  0  0
 11 30  1  0  0  0  0
 11 31  1  0  0  0  0
 12 17  1  0  0  0  0
 12 13  1  0  0  0  0
 12 44  1  0  0  0  0
 13 14  1  0  0  0  0
 13 32  1  0  0  0  0
 13 33  1  0  0  0  0
 14 15  1  0  0  0  0
 14 34  1  0  0  0  0
 14 35  1  0  0  0  0
 15 16  1  0  0  0  0
 15 36  1  0  0  0  0
 15 37  1  0  0  0  0
 16 17  1  0  0  0  0
 16 38  1  0  0  0  0
 16 39  1  0  0  0  0
 17 18  1  0  0  0  0
 17 40  1  0  0  0  0
 18 41  1  0  0  0  0
 18 42  1  0  0  0  0
 18 43  1  0  0  0  0
 19 20  1  0  0  0  0
M  CHG  1   8  -1
M  CHG  1  12   1
M  END
> <s_m_source_file>
AV-unprocessed.smi

> <i_m_source_file_index>
1978

> <i_lp_mmshare_version>
43012

> <i_f3d_flags>
0

> <s_epik_input>
W0NIM11jMVtjSF1jKG5vMSlbTkhdQyg9TylbTkhdW0NIMl1bQ0BIXShbQ0gzXSlOMltDSDJdW0NIMl1bQ0gyXVtDSDJdW0NASF0yW0NIM10=

> <s_epik_cmdline>
J2VwaWtfcHl0aG9uJywgJy1waCcsICc3LjAnLCAnLXRuJywgJzgnLCAnLW1hJywgJzIwMCcsICctbWV0YWxfYmluZGluZycsICctaW1hZScsICc8aW5maWxlLm1hZT4nLCAnLW9tYWUnLCAnPG91dGZpbGUubWFlPic=

> <r_epik_Ionization_Penalty>
6.7666

> <r_epik_Ionization_Penalty_Charging>
6.7666

> <r_epik_Ionization_Penalty_Neutral>
5.77131e-06

> <r_epik_State_Penalty>
6.79217

> <r_epik_Charging_Adjusted_Penalty>
13.5588

> <i_epik_Tot_Q>
0

> <i_epik_Tot_abs_Q>
2

> <r_epik_Metal_State_Penalty>
2.72569

> <b_epik_Metal_Only>
1

> <s_lp_Force_Field>
OPLS_2005

> <r_lp_Energy>
25.8045

> <b_lp_Chiralities_Consistent>
1

> <s_lp_Variant>
AV-unprocessed.smi:1978-23

> <Gold.Version>
5.8.1

> <Gold.Id.Protein>
6NUR|6NUR_protein|mol2

> <Gold.PLP.Fitness>
43.9000

> <Gold.PLP.PLP>
-33.8856

> <Gold.PLP.part.hbond>
-4.1171

> <Gold.PLP.part.metal>
0.0000

> <Gold.PLP.part.buried>
2.9856

> <Gold.PLP.part.nonpolar>
-32.9826

> <Gold.PLP.part.repulsive>
0.2075

> <Gold.PLP.ligand.clash>
0.0000

> <Gold.PLP.ligand.torsion>
1.0524

> <Gold.PLP.Chemscore.Hbond>
4.0000

> <Gold.PLP.Chemscore.CHOScore>
0.0000

> <Gold.PLP.Chemscore.Metal>
0.0000

> <Gold.Chemscore.Hbonds>
donor molecule, donor type, donor heavy atom, donor atom, acceptor molecule, acceptor atom, score
      L1  H    12    44       P1  7948  1.89
      P1  H  7989  7998       L1     8  1.00
      P1  H  7997  8010       L1     7  1.00

> <Gold.PLP.Chemscore.Internal.Correction>
0.1191

> <Gold.Rescore>
     Score         DG    S(hbond)    S(metal)    S(lipo)     H(rot)  DE(clash)    DE(int)     intcor
     17.14     -20.20       2.79        0.00      79.42       1.52       1.59       1.47       ----

> <Gold.Chemscore.Fitness>
17.1352

> <Gold.Chemscore.DG>
-20.2011

> <Gold.Chemscore.ZeroCoef>
-5.4800

> <Gold.Chemscore.Hbond>
2.7896

> <Gold.Chemscore.Metal>
0.0000

> <Gold.Chemscore.Lipo>
79.4231

> <Gold.Chemscore.Internal_Hbond>
0.0000

> <Gold.Chemscore.DEClash>
1.5935

> <Gold.Chemscore.DEInternal>
1.4724

> <Gold.Chemscore.Rot>
1.5190

> <Gold.Chemscore.Internal.Correction>
   9.000000E+99

> <Gold.Chemscore.Hbonds>
donor molecule, donor type, donor heavy atom, donor atom, acceptor molecule, acceptor atom, score
      L1  H    12    44       P1  7948  0.90
      P1  H  7989  7998       L1     8  0.56
      P1  H  7997  8010       L1     7  0.95

> <Gold.Chemscore.Hbond.Weighted>
-9.3172

> <Gold.Chemscore.Metal.Weighted>
-0.0000

> <Gold.Chemscore.Lipo.Weighted>
-9.2925

> <Gold.Chemscore.Internal_Hbond.Weighted>
0.0000

> <Gold.Chemscore.DEClash.Weighted>
1.5935

> <Gold.Chemscore.DEInternal.Weighted>
1.4724

> <Gold.Chemscore.Rot.Weighted>
3.8886

> <Gold.Chemscore.Internal.Correction.Weighted>
   9.000000E+99

> <Gold.Protein.RotatedTorsions>
[ 6907 6896 6895 6894 ] final  119.00 input  -60.11 | X-H torsion
[ 7974 7965 7964 7962 ] final  174.63 input  175.53 | X-H torsion
[ 8008 7997 7996 7995 ] final   81.73 input   59.86 | X-H torsion
[ 10167 10162 10161 10158 ] final -117.56 input  -65.29 | X-H torsion
[ 10718 10713 10712 10709 ] final  -26.39 input   66.30 | X-H torsion
[ 10763 10752 10751 10750 ] final  -71.53 input  -60.55 | X-H torsion
[ 11005 11000 10999 10996 ] final  118.50 input  -57.11 | X-H torsion

> <Gold.Protein.ActiveResidues>
 VAL166  LYS551  ARG553  GLY616  TRP617  ASP618  TYR619  PRO620  LYS621  CYS622 
 ASP623  PHE694  ASN695  SER759  ASP760  ASP761  ALA762  ILE779  LEU786  VAL792 
 PHE793  MET794  SER795  GLU796  ALA797  LYS798  CYS799  TRP800  GLU811  SER814 

> <Gold.Protein.RotatedAtoms>
  152.4503  133.7616  159.6749 H   0  0  0  0  0  0  0  0  0  0  0  0  # atno 6907 bound_to 6896
  150.8413  133.7921  159.3066 H   0  0  0  0  0  0  0  0  0  0  0  0  # atno 6908 bound_to 6896
  151.5545  135.1069  160.0009 H   0  0  0  0  0  0  0  0  0  0  0  0  # atno 6909 bound_to 6896
  144.7217  139.9826  143.6439 H   0  0  0  0  0  0  0  0  0  0  0  0  # atno 7974 bound_to 7965
  155.9011  140.3433  155.6027 H   0  0  0  0  0  0  0  0  0  0  0  0  # atno 8008 bound_to 7997
  155.7499  140.0818  157.2225 H   0  0  0  0  0  0  0  0  0  0  0  0  # atno 8009 bound_to 7997
  154.4044  140.1555  156.2699 H   0  0  0  0  0  0  0  0  0  0  0  0  # atno 8010 bound_to 7997
  140.0670  143.4913  152.2000 H   0  0  0  0  0  0  0  0  0  0  0  0  # atno 10167 bound_to 10162
  156.4518  130.4485  149.6985 H   0  0  0  0  0  0  0  0  0  0  0  0  # atno 10718 bound_to 10713
  154.4331  135.5959  153.6081 H   0  0  0  0  0  0  0  0  0  0  0  0  # atno 10763 bound_to 10752
  152.9800  135.5980  154.3815 H   0  0  0  0  0  0  0  0  0  0  0  0  # atno 10764 bound_to 10752
  154.3655  135.2841  155.2274 H   0  0  0  0  0  0  0  0  0  0  0  0  # atno 10765 bound_to 10752
  139.9112  134.9621  156.7512 H   0  0  0  0  0  0  0  0  0  0  0  0  # atno 11005 bound_to 11000
  146.0475  139.3479  143.0660 LP  0  0  0  0  0  0  0  0  0  0  0  0  # atno 17320 bound_to 7965
  145.8257  140.9656  143.0875 LP  0  0  0  0  0  0  0  0  0  0  0  0  # atno 17321 bound_to 7965
  139.5859  144.7530  151.3522 LP  0  0  0  0  0  0  0  0  0  0  0  0  # atno 17342 bound_to 10162
  140.7144  143.7306  150.7627 LP  0  0  0  0  0  0  0  0  0  0  0  0  # atno 17343 bound_to 10162
  156.3808  130.7578  151.2571 LP  0  0  0  0  0  0  0  0  0  0  0  0  # atno 17370 bound_to 10713
  157.7502  131.0296  150.4100 LP  0  0  0  0  0  0  0  0  0  0  0  0  # atno 17371 bound_to 10713
  140.6772  133.9507  155.7890 LP  0  0  0  0  0  0  0  0  0  0  0  0  # atno 17394 bound_to 11000
  141.0536  134.0449  157.3752 LP  0  0  0  0  0  0  0  0  0  0  0  0  # atno 17395 bound_to 11000

$$$$
