AV-unprocessed.smi:2362|AV-procd|sdf|9413|dock2
  -GOLD-   2272013 53D 1   1.00000     0.00000
 Structure written by MMmdl.
 45 46  0  0  0  0  0  0  0  0  2 V2000
  136.6464  136.9657  153.4435 C   0  0  0  0  0  0  0  0  0  0  0  0
  138.1044  137.3189  153.2356 C   0  0  0  0  0  0  0  0  0  0  0  0
  138.4843  138.4076  152.4279 C   0  0  0  0  0  0  0  0  0  0  0  0
  139.8551  138.6885  152.2688 C   0  0  0  0  0  0  0  0  0  0  0  0
  140.8116  137.8775  152.9199 C   0  0  0  0  0  0  0  0  0  0  0  0
  142.1657  138.2422  152.6921 N   0  0  0  0  0  0  0  0  0  0  0  0
  143.2485  137.4452  152.6861 C   0  0  0  0  0  0  0  0  0  0  0  0
  143.2445  136.2369  152.9218 O   0  0  0  0  0  0  0  0  0  0  0  0
  144.3593  138.1311  152.3746 N   0  0  0  0  0  0  0  0  0  0  0  0
  145.7139  137.5809  152.2992 C   0  0  2  0  0  0  0  0  0  0  0  0
  146.7199  138.7369  152.2175 C   0  0  0  0  0  0  0  0  0  0  0  0
  145.8699  136.6187  151.0982 C   0  0  0  0  0  0  0  0  0  0  0  0
  146.3738  135.2754  151.4841 N   0  3  0  0  0  0  0  0  0  0  0  0
  145.9373  134.8650  152.8435 C   0  0  0  0  0  0  0  0  0  0  0  0
  146.6114  133.5479  153.2652 C   0  0  0  0  0  0  0  0  0  0  0  0
  146.3407  132.4370  152.2420 C   0  0  0  0  0  0  0  0  0  0  0  0
  146.7620  132.8999  150.8413 C   0  0  0  0  0  0  0  0  0  0  0  0
  146.0776  134.2264  150.4728 C   0  0  0  0  0  0  0  0  0  0  0  0
  140.4356  136.8293  153.6945 N   0  0  0  0  0  0  0  0  0  0  0  0
  139.1217  136.5609  153.8468 C   0  0  0  0  0  0  0  0  0  0  0  0
  135.9901  137.6753  152.9386 H   0  0  0  0  0  0  0  0  0  0  0  0
  136.4030  136.9733  154.5062 H   0  0  0  0  0  0  0  0  0  0  0  0
  136.4400  135.9701  153.0505 H   0  0  0  0  0  0  0  0  0  0  0  0
  137.7420  139.0193  151.9364 H   0  0  0  0  0  0  0  0  0  0  0  0
  140.1632  139.5203  151.6521 H   0  0  0  0  0  0  0  0  0  0  0  0
  142.3237  139.2203  152.4992 H   0  0  0  0  0  0  0  0  0  0  0  0
  144.2654  139.1208  152.1968 H   0  0  0  0  0  0  0  0  0  0  0  0
  145.9313  137.0428  153.2228 H   0  0  0  0  0  0  0  0  0  0  0  0
  147.7445  138.3639  152.2086 H   0  0  0  0  0  0  0  0  0  0  0  0
  146.6227  139.4051  153.0741 H   0  0  0  0  0  0  0  0  0  0  0  0
  146.5748  139.3297  151.3136 H   0  0  0  0  0  0  0  0  0  0  0  0
  144.8927  136.5134  150.6242 H   0  0  0  0  0  0  0  0  0  0  0  0
  146.5264  137.0496  150.3405 H   0  0  0  0  0  0  0  0  0  0  0  0
  146.1948  135.6415  153.5647 H   0  0  0  0  0  0  0  0  0  0  0  0
  144.8516  134.7590  152.8627 H   0  0  0  0  0  0  0  0  0  0  0  0
  147.6871  133.7025  153.3607 H   0  0  0  0  0  0  0  0  0  0  0  0
  146.2539  133.2435  154.2493 H   0  0  0  0  0  0  0  0  0  0  0  0
  146.8793  131.5298  152.5177 H   0  0  0  0  0  0  0  0  0  0  0  0
  145.2796  132.1843  152.2438 H   0  0  0  0  0  0  0  0  0  0  0  0
  147.8453  133.0253  150.8055 H   0  0  0  0  0  0  0  0  0  0  0  0
  146.5145  132.1345  150.1051 H   0  0  0  0  0  0  0  0  0  0  0  0
  144.9984  134.0841  150.3978 H   0  0  0  0  0  0  0  0  0  0  0  0
  146.4223  134.5416  149.4883 H   0  0  0  0  0  0  0  0  0  0  0  0
  138.8771  135.7161  154.4742 H   0  0  0  0  0  0  0  0  0  0  0  0
  147.3799  135.3573  151.5280 H   0  0  0  0  0  0  0  0  0  0  0  0
  1  2  1  0  0  0  0
  1 21  1  0  0  0  0
  1 22  1  0  0  0  0
  1 23  1  0  0  0  0
  2 20  1  0  0  0  0
  2  3  2  0  0  0  0
  3  4  1  0  0  0  0
  3 24  1  0  0  0  0
  4  5  2  0  0  0  0
  4 25  1  0  0  0  0
  5  6  1  0  0  0  0
  5 19  1  0  0  0  0
  6  7  1  0  0  0  0
  6 26  1  0  0  0  0
  7  8  2  0  0  0  0
  7  9  1  0  0  0  0
  9 10  1  0  0  0  0
  9 27  1  0  0  0  0
 10 11  1  0  0  0  0
 10 12  1  0  0  0  0
 10 28  1  0  0  0  0
 11 29  1  0  0  0  0
 11 30  1  0  0  0  0
 11 31  1  0  0  0  0
 12 13  1  0  0  0  0
 12 32  1  0  0  0  0
 12 33  1  0  0  0  0
 13 18  1  0  0  0  0
 13 14  1  0  0  0  0
 13 45  1  0  0  0  0
 14 15  1  0  0  0  0
 14 34  1  0  0  0  0
 14 35  1  0  0  0  0
 15 16  1  0  0  0  0
 15 36  1  0  0  0  0
 15 37  1  0  0  0  0
 16 17  1  0  0  0  0
 16 38  1  0  0  0  0
 16 39  1  0  0  0  0
 17 18  1  0  0  0  0
 17 40  1  0  0  0  0
 17 41  1  0  0  0  0
 18 42  1  0  0  0  0
 18 43  1  0  0  0  0
 19 20  2  0  0  0  0
 20 44  1  0  0  0  0
M  CHG  1  13   1
M  END
> <s_m_source_file>
AV-unprocessed.smi

> <i_m_source_file_index>
2362

> <i_lp_mmshare_version>
43012

> <i_f3d_flags>
0

> <s_epik_input>
W0NIM11jMVtjSF1bY0hdYyhuW2NIXTEpW05IXUMoPU8pW05IXVtDQEhdKFtDSDNdKVtDSDJdTjJbQ0gyXVtDSDJdW0NIMl1bQ0gyXVtDSDJdMg==

> <s_epik_cmdline>
J2VwaWtfcHl0aG9uJywgJy1waCcsICc3LjAnLCAnLXRuJywgJzgnLCAnLW1hJywgJzIwMCcsICctbWV0YWxfYmluZGluZycsICctaW1hZScsICc8aW5maWxlLm1hZT4nLCAnLW9tYWUnLCAnPG91dGZpbGUubWFlPic=

> <r_epik_Ionization_Penalty>
0.00215987

> <r_epik_Ionization_Penalty_Charging>
0.00211816

> <r_epik_Ionization_Penalty_Neutral>
4.17101e-05

> <r_epik_State_Penalty>
0.00145254

> <r_epik_Charging_Adjusted_Penalty>
0.0035707

> <i_epik_Tot_Q>
1

> <i_epik_Tot_abs_Q>
1

> <r_epik_Metal_State_Penalty>
-0

> <b_epik_Metal_Only>
0

> <s_lp_Force_Field>
OPLS_2005

> <r_lp_Energy>
24.6446

> <b_lp_Chiralities_Consistent>
1

> <s_lp_Variant>
AV-unprocessed.smi:2362-1

> <Gold.Version>
5.8.1

> <Gold.Id.Protein>
6NUR|6NUR_protein|mol2

> <Gold.PLP.Fitness>
47.2621

> <Gold.PLP.PLP>
-35.0697

> <Gold.PLP.part.hbond>
-3.7658

> <Gold.PLP.part.metal>
0.0000

> <Gold.PLP.part.buried>
2.8514

> <Gold.PLP.part.nonpolar>
-34.2714

> <Gold.PLP.part.repulsive>
0.2735

> <Gold.PLP.ligand.clash>
0.0000

> <Gold.PLP.ligand.torsion>
1.2843

> <Gold.PLP.Chemscore.Hbond>
3.9033

> <Gold.PLP.Chemscore.CHOScore>
1.0000

> <Gold.PLP.Chemscore.Metal>
0.0000

> <Gold.Chemscore.Hbonds>
donor molecule, donor type, donor heavy atom, donor atom, acceptor molecule, acceptor atom, score
      L1  H     6    26       P1 10175  0.86
      L1  H     9    27       P1 10175  0.84
      L1  H    13    45       P1  7948  2.00

> <Gold.PLP.Chemscore.Internal.Correction>
0.0511

> <Gold.Rescore>
     Score         DG    S(hbond)    S(metal)    S(lipo)     H(rot)  DE(clash)    DE(int)     intcor
     17.06     -20.20       2.82        0.00      76.66       1.44       0.25       2.88       ----

> <Gold.Chemscore.Fitness>
17.0600

> <Gold.Chemscore.DG>
-20.1951

> <Gold.Chemscore.ZeroCoef>
-5.4800

> <Gold.Chemscore.Hbond>
2.8245

> <Gold.Chemscore.Metal>
0.0000

> <Gold.Chemscore.Lipo>
76.6557

> <Gold.Chemscore.Internal_Hbond>
0.0000

> <Gold.Chemscore.DEClash>
0.2510

> <Gold.Chemscore.DEInternal>
2.8841

> <Gold.Chemscore.Rot>
1.4404

> <Gold.Chemscore.Internal.Correction>
   9.000000E+99

> <Gold.Chemscore.Hbonds>
donor molecule, donor type, donor heavy atom, donor atom, acceptor molecule, acceptor atom, score
      L1  H     6    26       P1 10175  0.72
      L1  H     9    27       P1 10175  0.81
      L1  H    13    45       P1  7948  0.89

> <Gold.Chemscore.Hbond.Weighted>
-9.4339

> <Gold.Chemscore.Metal.Weighted>
-0.0000

> <Gold.Chemscore.Lipo.Weighted>
-8.9687

> <Gold.Chemscore.Internal_Hbond.Weighted>
0.0000

> <Gold.Chemscore.DEClash.Weighted>
0.2510

> <Gold.Chemscore.DEInternal.Weighted>
2.8841

> <Gold.Chemscore.Rot.Weighted>
3.6875

> <Gold.Chemscore.Internal.Correction.Weighted>
   9.000000E+99

> <Gold.Protein.RotatedTorsions>
[ 6907 6896 6895 6894 ] final -177.53 input  -60.11 | X-H torsion
[ 7974 7965 7964 7962 ] final -162.60 input  175.53 | X-H torsion
[ 8008 7997 7996 7995 ] final   61.03 input   59.86 | X-H torsion
[ 10167 10162 10161 10158 ] final  138.33 input  -65.29 | X-H torsion
[ 10718 10713 10712 10709 ] final   22.00 input   66.30 | X-H torsion
[ 10763 10752 10751 10750 ] final -151.89 input  -60.55 | X-H torsion
[ 11005 11000 10999 10996 ] final -100.23 input  -57.11 | X-H torsion

> <Gold.Protein.ActiveResidues>
 VAL166  LYS551  ARG553  GLY616  TRP617  ASP618  TYR619  PRO620  LYS621  CYS622 
 ASP623  PHE694  ASN695  SER759  ASP760  ASP761  ALA762  ILE779  LEU786  VAL792 
 PHE793  MET794  SER795  GLU796  ALA797  LYS798  CYS799  TRP800  GLU811  SER814 

> <Gold.Protein.RotatedAtoms>
  151.6224  133.3338  159.3090 H   0  0  0  0  0  0  0  0  0  0  0  0  # atno 6907 bound_to 6896
  150.8099  134.7251  159.6689 H   0  0  0  0  0  0  0  0  0  0  0  0  # atno 6908 bound_to 6896
  152.4195  134.5986  160.0045 H   0  0  0  0  0  0  0  0  0  0  0  0  # atno 6909 bound_to 6896
  144.7352  140.3229  143.6167 H   0  0  0  0  0  0  0  0  0  0  0  0  # atno 7974 bound_to 7965
  155.5918  140.3493  155.4568 H   0  0  0  0  0  0  0  0  0  0  0  0  # atno 8008 bound_to 7997
  156.0295  140.1271  157.0297 H   0  0  0  0  0  0  0  0  0  0  0  0  # atno 8009 bound_to 7997
  154.4347  140.1046  156.6065 H   0  0  0  0  0  0  0  0  0  0  0  0  # atno 8010 bound_to 7997
  139.5114  144.6359  151.5697 H   0  0  0  0  0  0  0  0  0  0  0  0  # atno 10167 bound_to 10162
  157.1462  130.6654  149.5997 H   0  0  0  0  0  0  0  0  0  0  0  0  # atno 10718 bound_to 10713
  154.8029  135.3249  154.7505 H   0  0  0  0  0  0  0  0  0  0  0  0  # atno 10763 bound_to 10752
  153.8169  135.6891  153.4837 H   0  0  0  0  0  0  0  0  0  0  0  0  # atno 10764 bound_to 10752
  153.1756  135.4606  154.9905 H   0  0  0  0  0  0  0  0  0  0  0  0  # atno 10765 bound_to 10752
  141.1279  133.8382  157.1075 H   0  0  0  0  0  0  0  0  0  0  0  0  # atno 11005 bound_to 11000
  145.7550  139.1806  143.2300 LP  0  0  0  0  0  0  0  0  0  0  0  0  # atno 17320 bound_to 7965
  146.1031  140.7520  142.9539 LP  0  0  0  0  0  0  0  0  0  0  0  0  # atno 17321 bound_to 7965
  140.6108  143.9439  150.6452 LP  0  0  0  0  0  0  0  0  0  0  0  0  # atno 17342 bound_to 10162
  140.2681  143.3475  152.1263 LP  0  0  0  0  0  0  0  0  0  0  0  0  # atno 17343 bound_to 10162
  155.9779  130.4760  150.6622 LP  0  0  0  0  0  0  0  0  0  0  0  0  # atno 17370 bound_to 10713
  157.4262  131.0843  151.1083 LP  0  0  0  0  0  0  0  0  0  0  0  0  # atno 17371 bound_to 10713
  140.0295  134.9908  157.0753 LP  0  0  0  0  0  0  0  0  0  0  0  0  # atno 17394 bound_to 11000
  140.4307  134.1783  155.7168 LP  0  0  0  0  0  0  0  0  0  0  0  0  # atno 17395 bound_to 11000

$$$$
