AV-unprocessed.smi:160|AV-procd|sdf|1359|dock5
  -GOLD-   2262019 63D 1   1.00000     0.00000
 Structure written by MMmdl.
 28 29  0  0  0  0  0  0  0  0  2 V2000
  149.5187  134.8345  157.9104 N   0  5  0  0  0  0  0  0  0  0  0  0
  149.5363  136.1840  157.9720 C   0  0  0  0  0  0  0  0  0  0  0  0
  149.2551  136.8717  158.9529 O   0  0  0  0  0  0  0  0  0  0  0  0
  149.9486  136.8637  156.6880 C   0  0  0  0  0  0  0  0  0  0  0  0
  150.3742  136.1305  155.6143 N   0  0  0  0  0  0  0  0  0  0  0  0
  150.6167  137.1196  154.7641 C   0  0  0  0  0  0  0  0  0  0  0  0
  150.3575  138.3362  155.2515 N   0  0  0  0  0  0  0  0  0  0  0  0
  150.5301  139.6811  154.6223 C   0  0  2  0  0  0  0  0  0  0  0  0
  151.2587  140.4669  155.5187 O   0  0  0  0  0  0  0  0  0  0  0  0
  150.5266  141.6311  155.8988 C   0  0  2  0  0  0  0  0  0  0  0  0
  150.8068  141.9536  157.3749 C   0  0  0  0  0  0  0  0  0  0  0  0
  150.1506  143.1466  157.7475 O   0  0  0  0  0  0  0  0  0  0  0  0
  149.0671  141.2609  155.6254 C   0  0  1  0  0  0  0  0  0  0  0  0
  148.2340  142.3858  155.4116 O   0  0  0  0  0  0  0  0  0  0  0  0
  149.1705  140.3587  154.4024 C   0  0  1  0  0  0  0  0  0  0  0  0
  149.1603  141.0807  153.1842 O   0  0  0  0  0  0  0  0  0  0  0  0
  149.9259  138.1903  156.5283 N   0  0  0  0  0  0  0  0  0  0  0  0
  151.0863  139.4846  153.7046 H   0  0  0  0  0  0  0  0  0  0  0  0
  150.8186  142.4567  155.2468 H   0  0  0  0  0  0  0  0  0  0  0  0
  148.6688  140.6885  156.4641 H   0  0  0  0  0  0  0  0  0  0  0  0
  148.3653  139.6231  154.3658 H   0  0  0  0  0  0  0  0  0  0  0  0
  148.6328  134.3673  157.6835 H   0  0  0  0  0  0  0  0  0  0  0  0
  150.9918  136.9534  153.7650 H   0  0  0  0  0  0  0  0  0  0  0  0
  150.4221  141.1583  158.0134 H   0  0  0  0  0  0  0  0  0  0  0  0
  151.8779  142.0313  157.5657 H   0  0  0  0  0  0  0  0  0  0  0  0
  150.0635  143.6922  156.9807 H   0  0  0  0  0  0  0  0  0  0  0  0
  148.7078  143.1615  155.6699 H   0  0  0  0  0  0  0  0  0  0  0  0
  149.1136  140.4583  152.4745 H   0  0  0  0  0  0  0  0  0  0  0  0
  1  2  1  0  0  0  0
  1 22  1  0  0  0  0
  2  3  2  0  0  0  0
  2  4  1  0  0  0  0
  4 17  2  0  0  0  0
  4  5  1  0  0  0  0
  5  6  2  0  0  0  0
  6  7  1  0  0  0  0
  6 23  1  0  0  0  0
  7  8  1  0  0  0  0
  7 17  1  0  0  0  0
  8 18  1  0  0  0  0
  8 15  1  0  0  0  0
  8  9  1  0  0  0  0
  9 10  1  0  0  0  0
 10 19  1  0  0  0  0
 10 11  1  0  0  0  0
 10 13  1  0  0  0  0
 11 12  1  0  0  0  0
 11 24  1  0  0  0  0
 11 25  1  0  0  0  0
 12 26  1  0  0  0  0
 13 20  1  0  0  0  0
 13 14  1  0  0  0  0
 13 15  1  0  0  0  0
 14 27  1  0  0  0  0
 15 21  1  0  0  0  0
 15 16  1  0  0  0  0
 16 28  1  0  0  0  0
M  CHG  1   1  -1
M  END
> <s_m_source_file>
AV-unprocessed.smi

> <i_m_source_file_index>
160

> <i_lp_mmshare_version>
43012

> <i_f3d_flags>
0

> <s_epik_input>
W05IMl1DKD1PKWMxbltjSF1uKG4xKVtDQEBIXTJPW0NASF0oW0NIMl1bT0hdKVtDQEBIXShbT0hdKVtDQEhdMltPSF0=

> <s_epik_cmdline>
J2VwaWtfcHl0aG9uJywgJy1waCcsICc3LjAnLCAnLXRuJywgJzgnLCAnLW1hJywgJzIwMCcsICctbWV0YWxfYmluZGluZycsICctaW1hZScsICc8aW5maWxlLm1hZT4nLCAnLW9tYWUnLCAnPG91dGZpbGUubWFlPic=

> <r_lp_tautomer_probability>
1

> <r_epik_Ionization_Penalty>
6.6993

> <r_epik_Ionization_Penalty_Charging>
6.6993

> <r_epik_Ionization_Penalty_Neutral>
6.01698e-06

> <r_epik_State_Penalty>
6.69929

> <r_epik_Charging_Adjusted_Penalty>
13.3986

> <i_epik_Tot_Q>
-1

> <i_epik_Tot_abs_Q>
1

> <r_epik_Metal_State_Penalty>
2.62798

> <b_epik_Metal_Only>
1

> <s_epik_Chemistry_Notes>
This compound contains an acetal/aminal-like group ( X-CH(R)-Y where X, Y are N, S, or O) that may be acid/base labile, releasing an aldehyde.

> <s_lp_Force_Field>
OPLS_2005

> <r_lp_Energy>
41.4703

> <b_lp_Chiralities_Consistent>
1

> <s_lp_Variant>
AV-unprocessed.smi:160-17

> <Gold.Version>
5.8.1

> <Gold.Id.Protein>
6NUR|6NUR_protein|mol2

> <Gold.PLP.Fitness>
44.2797

> <Gold.PLP.PLP>
-24.0386

> <Gold.PLP.part.hbond>
-6.1881

> <Gold.PLP.part.metal>
0.0000

> <Gold.PLP.part.buried>
-3.8865

> <Gold.PLP.part.nonpolar>
-15.5287

> <Gold.PLP.part.repulsive>
0.1149

> <Gold.PLP.ligand.clash>
0.0000

> <Gold.PLP.ligand.torsion>
0.1741

> <Gold.PLP.Chemscore.Hbond>
5.8080

> <Gold.PLP.Chemscore.CHOScore>
1.0475

> <Gold.PLP.Chemscore.Metal>
0.0000

> <Gold.Chemscore.Hbonds>
donor molecule, donor type, donor heavy atom, donor atom, acceptor molecule, acceptor atom, score
      L1  H    12    26       P1  8028  0.99
      L1  H    14    27       P1  8028  0.99
      L1  H    16    28       P1  7957  0.78
      P1  H  6896  6908       L1     1  2.00
      P1  H  8011  8017       L1    16  0.95
      L1  C     6    23       P1  7948  0.05
      L1  C     6    23       P1  7949  1.00

> <Gold.PLP.Chemscore.Internal.Correction>
0.0227

> <Gold.Rescore>
     Score         DG    S(hbond)    S(metal)    S(lipo)     H(rot)  DE(clash)    DE(int)     intcor
     11.92     -12.12       4.14        0.00      26.92       4.04       0.01       0.19       ----

> <Gold.Chemscore.Fitness>
11.9154

> <Gold.Chemscore.DG>
-12.1170

> <Gold.Chemscore.ZeroCoef>
-5.4800

> <Gold.Chemscore.Hbond>
4.1407

> <Gold.Chemscore.Metal>
0.0000

> <Gold.Chemscore.Lipo>
26.9236

> <Gold.Chemscore.Internal_Hbond>
0.0000

> <Gold.Chemscore.DEClash>
0.0073

> <Gold.Chemscore.DEInternal>
0.1943

> <Gold.Chemscore.Rot>
4.0403

> <Gold.Chemscore.Internal.Correction>
   9.000000E+99

> <Gold.Chemscore.Hbonds>
donor molecule, donor type, donor heavy atom, donor atom, acceptor molecule, acceptor atom, score
      L1  H    12    26       P1  8028  0.86
      L1  H    14    27       P1  8028  0.90
      L1  H    16    28       P1  7957  0.75
      P1  H  6896  6908       L1     1  0.39
      P1  H  8011  8017       L1    16  0.21

> <Gold.Chemscore.Hbond.Weighted>
-13.8300

> <Gold.Chemscore.Metal.Weighted>
-0.0000

> <Gold.Chemscore.Lipo.Weighted>
-3.1501

> <Gold.Chemscore.Internal_Hbond.Weighted>
0.0000

> <Gold.Chemscore.DEClash.Weighted>
0.0073

> <Gold.Chemscore.DEInternal.Weighted>
0.1943

> <Gold.Chemscore.Rot.Weighted>
10.3431

> <Gold.Chemscore.Internal.Correction.Weighted>
   9.000000E+99

> <Gold.Protein.RotatedTorsions>
[ 6907 6896 6895 6894 ] final  152.10 input  -60.11 | X-H torsion
[ 7974 7965 7964 7962 ] final -178.30 input  175.53 | X-H torsion
[ 8008 7997 7996 7995 ] final  -97.61 input   59.86 | X-H torsion
[ 10167 10162 10161 10158 ] final  -22.93 input  -65.29 | X-H torsion
[ 10718 10713 10712 10709 ] final   -0.33 input   66.30 | X-H torsion
[ 10763 10752 10751 10750 ] final  -66.96 input  -60.55 | X-H torsion
[ 11005 11000 10999 10996 ] final    2.06 input  -57.11 | X-H torsion

> <Gold.Protein.ActiveResidues>
 VAL166  LYS551  ARG553  GLY616  TRP617  ASP618  TYR619  PRO620  LYS621  CYS622 
 ASP623  PHE694  ASN695  SER759  ASP760  ASP761  ALA762  ILE779  LEU786  VAL792 
 PHE793  MET794  SER795  GLU796  ALA797  LYS798  CYS799  TRP800  GLU811  SER814 

> <Gold.Protein.RotatedAtoms>
  152.0914  133.4202  159.4545 H   0  0  0  0  0  0  0  0  0  0  0  0  # atno 6907 bound_to 6896
  150.6862  134.2867  159.4659 H   0  0  0  0  0  0  0  0  0  0  0  0  # atno 6908 bound_to 6896
  152.0719  134.9527  160.0625 H   0  0  0  0  0  0  0  0  0  0  0  0  # atno 6909 bound_to 6896
  144.7130  140.0890  143.6422 H   0  0  0  0  0  0  0  0  0  0  0  0  # atno 7974 bound_to 7965
  154.7901  140.0461  157.1194 H   0  0  0  0  0  0  0  0  0  0  0  0  # atno 8008 bound_to 7997
  154.9602  140.3076  155.5015 H   0  0  0  0  0  0  0  0  0  0  0  0  # atno 8009 bound_to 7997
  156.2948  140.2272  156.4686 H   0  0  0  0  0  0  0  0  0  0  0  0  # atno 8010 bound_to 7997
  140.7287  143.4490  151.0545 H   0  0  0  0  0  0  0  0  0  0  0  0  # atno 10167 bound_to 10162
  156.8220  130.5459  149.5696 H   0  0  0  0  0  0  0  0  0  0  0  0  # atno 10718 bound_to 10713
  154.3675  135.6102  153.5722 H   0  0  0  0  0  0  0  0  0  0  0  0  # atno 10763 bound_to 10752
  152.9791  135.5830  154.4561 H   0  0  0  0  0  0  0  0  0  0  0  0  # atno 10764 bound_to 10752
  154.4309  135.2848  155.1891 H   0  0  0  0  0  0  0  0  0  0  0  0  # atno 10765 bound_to 10752
  140.6084  133.9770  155.8165 H   0  0  0  0  0  0  0  0  0  0  0  0  # atno 11005 bound_to 11000
  145.9637  139.2819  143.1140 LP  0  0  0  0  0  0  0  0  0  0  0  0  # atno 17320 bound_to 7965
  145.9193  140.9126  143.0413 LP  0  0  0  0  0  0  0  0  0  0  0  0  # atno 17321 bound_to 7965
  139.8164  143.7880  152.3174 LP  0  0  0  0  0  0  0  0  0  0  0  0  # atno 17342 bound_to 10162
  139.7947  144.7397  150.9906 LP  0  0  0  0  0  0  0  0  0  0  0  0  # atno 17343 bound_to 10162
  156.0983  130.5949  150.9851 LP  0  0  0  0  0  0  0  0  0  0  0  0  # atno 17370 bound_to 10713
  157.6452  131.0905  150.8169 LP  0  0  0  0  0  0  0  0  0  0  0  0  # atno 17371 bound_to 10713
  141.0824  134.0041  157.3365 LP  0  0  0  0  0  0  0  0  0  0  0  0  # atno 17394 bound_to 11000
  139.9202  135.0200  156.8036 LP  0  0  0  0  0  0  0  0  0  0  0  0  # atno 17395 bound_to 11000

$$$$
