AV-unprocessed.smi:212|AV-procd|sdf|1623|dock3
  -GOLD-   2262019563D 1   1.00000     0.00000
 Structure written by MMmdl.
 65 68  0  0  0  0  0  0  0  0  2 V2000
  143.2767  137.1332  152.8185 C   0  0  0  0  0  0  0  0  0  0  0  0
  144.7786  136.8295  152.6848 C   0  0  2  0  0  0  0  0  0  0  0  0
  145.0998  136.0277  151.4058 C   0  0  0  0  0  0  0  0  0  0  0  0
  144.6404  134.6174  151.5134 N   0  3  1  0  0  0  0  0  0  0  0  0
  144.8138  133.8428  150.2563 C   0  0  0  0  0  0  0  0  0  0  0  0
  143.9178  132.5828  150.2049 C   0  0  0  0  0  0  0  0  0  0  0  0
  143.6289  132.1998  148.7435 C   0  0  0  0  0  0  0  0  0  0  0  0
  144.5410  131.3908  150.9554 C   0  0  0  0  0  0  0  0  0  0  0  0
  142.6685  132.8762  150.7982 O   0  0  0  0  0  0  0  0  0  0  0  0
  145.2068  133.9350  152.7038 C   0  0  0  0  0  0  0  0  0  0  0  0
  144.9008  134.7238  153.9904 C   0  0  0  0  0  0  0  0  0  0  0  0
  145.2959  136.1277  153.8626 N   0  0  0  0  0  0  0  0  0  0  0  0
  146.5355  136.4983  154.2787 C   0  0  0  0  0  0  0  0  0  0  0  0
  147.3349  135.6010  154.9151 N   0  0  0  0  0  0  0  0  0  0  0  0
  148.5600  135.9525  155.3172 C   0  0  0  0  0  0  0  0  0  0  0  0
  149.1744  137.1298  155.1881 N   0  0  0  0  0  0  0  0  0  0  0  0
  148.3749  138.0368  154.5582 C   0  0  0  0  0  0  0  0  0  0  0  0
  147.0555  137.8080  154.0759 C   0  0  0  0  0  0  0  0  0  0  0  0
  146.5542  138.9707  153.5015 N   0  0  0  0  0  0  0  0  0  0  0  0
  147.5242  139.8348  153.6308 C   0  0  0  0  0  0  0  0  0  0  0  0
  148.6567  139.3546  154.2486 N   0  0  0  0  0  0  0  0  0  0  0  0
  149.8800  140.0877  154.5216 C   0  0  0  0  0  0  0  0  0  0  0  0
  149.6851  141.2421  155.5358 C   0  0  1  0  0  0  0  0  0  0  0  0
  148.3738  141.1081  156.3477 C   0  0  0  0  0  0  0  0  0  0  0  0
  147.9630  142.3527  156.8759 O   0  0  0  0  0  0  0  0  0  0  0  0
  150.9283  141.4149  156.4444 C   0  0  2  0  0  0  0  0  0  0  0  0
  151.0821  140.3633  157.5291 C   0  0  0  0  0  0  0  0  0  0  0  0
  152.0479  141.0379  158.4965 C   0  0  0  0  0  0  0  0  0  0  0  0
  151.7604  142.4293  158.4170 O   0  0  0  0  0  0  0  0  0  0  0  0
  150.9235  142.6902  157.2944 C   0  0  0  0  0  0  0  0  0  0  0  0
  142.9186  137.7079  151.9640 H   0  0  0  0  0  0  0  0  0  0  0  0
  143.0782  137.7218  153.7147 H   0  0  0  0  0  0  0  0  0  0  0  0
  142.6765  136.2250  152.8765 H   0  0  0  0  0  0  0  0  0  0  0  0
  145.2781  137.7926  152.5817 H   0  0  0  0  0  0  0  0  0  0  0  0
  144.6460  136.5124  150.5416 H   0  0  0  0  0  0  0  0  0  0  0  0
  146.1774  136.0341  151.2337 H   0  0  0  0  0  0  0  0  0  0  0  0
  144.6327  134.4833  149.3910 H   0  0  0  0  0  0  0  0  0  0  0  0
  145.8530  133.5222  150.1647 H   0  0  0  0  0  0  0  0  0  0  0  0
  144.5478  131.9481  148.2128 H   0  0  0  0  0  0  0  0  0  0  0  0
  143.1516  133.0183  148.2031 H   0  0  0  0  0  0  0  0  0  0  0  0
  142.9673  131.3349  148.6799 H   0  0  0  0  0  0  0  0  0  0  0  0
  145.5187  131.1352  150.5452 H   0  0  0  0  0  0  0  0  0  0  0  0
  143.9122  130.5028  150.8799 H   0  0  0  0  0  0  0  0  0  0  0  0
  144.6733  131.6024  152.0172 H   0  0  0  0  0  0  0  0  0  0  0  0
  142.1798  133.4343  150.2121 H   0  0  0  0  0  0  0  0  0  0  0  0
  144.7878  132.9317  152.7887 H   0  0  0  0  0  0  0  0  0  0  0  0
  146.2837  133.8197  152.5732 H   0  0  0  0  0  0  0  0  0  0  0  0
  143.8311  134.6861  154.1973 H   0  0  0  0  0  0  0  0  0  0  0  0
  145.3832  134.2571  154.8503 H   0  0  0  0  0  0  0  0  0  0  0  0
  149.1298  135.1806  155.8131 H   0  0  0  0  0  0  0  0  0  0  0  0
  147.4427  140.8507  153.2719 H   0  0  0  0  0  0  0  0  0  0  0  0
  150.6303  139.3852  154.8869 H   0  0  0  0  0  0  0  0  0  0  0  0
  150.2534  140.4690  153.5710 H   0  0  0  0  0  0  0  0  0  0  0  0
  149.5875  142.1594  154.9534 H   0  0  0  0  0  0  0  0  0  0  0  0
  147.5717  140.7092  155.7273 H   0  0  0  0  0  0  0  0  0  0  0  0
  148.4923  140.4013  157.1689 H   0  0  0  0  0  0  0  0  0  0  0  0
  148.1636  143.0279  156.2458 H   0  0  0  0  0  0  0  0  0  0  0  0
  151.8320  141.4129  155.8327 H   0  0  0  0  0  0  0  0  0  0  0  0
  150.1263  140.1793  158.0220 H   0  0  0  0  0  0  0  0  0  0  0  0
  151.4646  139.4122  157.1574 H   0  0  0  0  0  0  0  0  0  0  0  0
  151.9467  140.6656  159.5162 H   0  0  0  0  0  0  0  0  0  0  0  0
  153.0786  140.8778  158.1774 H   0  0  0  0  0  0  0  0  0  0  0  0
  151.2746  143.5612  156.7405 H   0  0  0  0  0  0  0  0  0  0  0  0
  149.9197  142.9078  157.6620 H   0  0  0  0  0  0  0  0  0  0  0  0
  143.6437  134.6586  151.6720 H   0  0  0  0  0  0  0  0  0  0  0  0
  1  2  1  0  0  0  0
  1 31  1  0  0  0  0
  1 32  1  0  0  0  0
  1 33  1  0  0  0  0
  2 12  1  0  0  0  0
  2  3  1  0  0  0  0
  2 34  1  0  0  0  0
  3  4  1  0  0  0  0
  3 35  1  0  0  0  0
  3 36  1  0  0  0  0
  4  5  1  0  0  0  0
  4 10  1  0  0  0  0
  4 65  1  0  0  0  0
  5  6  1  0  0  0  0
  5 37  1  0  0  0  0
  5 38  1  0  0  0  0
  6  7  1  0  0  0  0
  6  8  1  0  0  0  0
  6  9  1  0  0  0  0
  7 39  1  0  0  0  0
  7 40  1  0  0  0  0
  7 41  1  0  0  0  0
  8 42  1  0  0  0  0
  8 43  1  0  0  0  0
  8 44  1  0  0  0  0
  9 45  1  0  0  0  0
 10 11  1  0  0  0  0
 10 46  1  0  0  0  0
 10 47  1  0  0  0  0
 11 12  1  0  0  0  0
 11 48  1  0  0  0  0
 11 49  1  0  0  0  0
 12 13  1  0  0  0  0
 13 18  1  0  0  0  0
 13 14  2  0  0  0  0
 14 15  1  0  0  0  0
 15 16  2  0  0  0  0
 15 50  1  0  0  0  0
 16 17  1  0  0  0  0
 17 21  1  0  0  0  0
 17 18  2  0  0  0  0
 18 19  1  0  0  0  0
 19 20  2  0  0  0  0
 20 21  1  0  0  0  0
 20 51  1  0  0  0  0
 21 22  1  0  0  0  0
 22 23  1  0  0  0  0
 22 52  1  0  0  0  0
 22 53  1  0  0  0  0
 23 24  1  0  0  0  0
 23 26  1  0  0  0  0
 23 54  1  0  0  0  0
 24 25  1  0  0  0  0
 24 55  1  0  0  0  0
 24 56  1  0  0  0  0
 25 57  1  0  0  0  0
 26 30  1  0  0  0  0
 26 27  1  0  0  0  0
 26 58  1  0  0  0  0
 27 28  1  0  0  0  0
 27 59  1  0  0  0  0
 27 60  1  0  0  0  0
 28 29  1  0  0  0  0
 28 61  1  0  0  0  0
 28 62  1  0  0  0  0
 29 30  1  0  0  0  0
 30 63  1  0  0  0  0
 30 64  1  0  0  0  0
M  CHG  1   4   1
M  END
> <s_m_source_file>
AV-unprocessed.smi

> <i_m_source_file_index>
212

> <i_lp_mmshare_version>
43012

> <i_f3d_flags>
0

> <s_epik_input>
W0NIM11bQ0BASF0xW0NIMl1OKFtDSDJdQyhbQ0gzXSkoW0NIM10pW09IXSlbQ0gyXVtDSDJdTjFjKG5bY0hdbjIpYyhjMjMpbltjSF1uM1tDSDJdW0NASF0oW0NIMl1bT0hdKVtDQEBIXTRbQ0gyXVtDSDJdT1tDSDJdNA==

> <s_epik_cmdline>
J2VwaWtfcHl0aG9uJywgJy1waCcsICc3LjAnLCAnLXRuJywgJzgnLCAnLW1hJywgJzIwMCcsICctbWV0YWxfYmluZGluZycsICctaW1hZScsICc8aW5maWxlLm1hZT4nLCAnLW9tYWUnLCAnPG91dGZpbGUubWFlPic=

> <r_lp_tautomer_probability>
1

> <r_epik_Ionization_Penalty>
0.00182193

> <r_epik_Ionization_Penalty_Charging>
0.00173996

> <r_epik_Ionization_Penalty_Neutral>
8.19718e-05

> <r_epik_State_Penalty>
-0

> <r_epik_Charging_Adjusted_Penalty>
0.00173996

> <i_epik_Tot_Q>
1

> <i_epik_Tot_abs_Q>
1

> <r_epik_Metal_State_Penalty>
-0

> <b_epik_Metal_Only>
0

> <s_lp_Force_Field>
OPLS_2005

> <r_lp_Energy>
57.8669

> <b_lp_Chiralities_Consistent>
1

> <s_lp_Variant>
AV-unprocessed.smi:212-7

> <Gold.Version>
5.8.1

> <Gold.Id.Protein>
6NUR|6NUR_protein|mol2

> <Gold.PLP.Fitness>
46.7312

> <Gold.PLP.PLP>
-42.5450

> <Gold.PLP.part.hbond>
-1.9090

> <Gold.PLP.part.metal>
0.0000

> <Gold.PLP.part.buried>
-1.2898

> <Gold.PLP.part.nonpolar>
-39.4668

> <Gold.PLP.part.repulsive>
0.4519

> <Gold.PLP.ligand.clash>
0.0000

> <Gold.PLP.ligand.torsion>
1.5328

> <Gold.PLP.Chemscore.Hbond>
2.0000

> <Gold.PLP.Chemscore.CHOScore>
0.0000

> <Gold.PLP.Chemscore.Metal>
0.0000

> <Gold.Chemscore.Hbonds>
donor molecule, donor type, donor heavy atom, donor atom, acceptor molecule, acceptor atom, score
      L1  H     9    45       P1 10186  1.00
      L1  H    25    57       P1  8028  1.00

> <Gold.PLP.Chemscore.Internal.Correction>
1.2518

> <Gold.Rescore>
     Score         DG    S(hbond)    S(metal)    S(lipo)     H(rot)  DE(clash)    DE(int)     intcor
     11.62     -14.59       1.58        0.00     107.26       3.40       0.15       2.83       ----

> <Gold.Chemscore.Fitness>
11.6157

> <Gold.Chemscore.DG>
-14.5927

> <Gold.Chemscore.ZeroCoef>
-5.4800

> <Gold.Chemscore.Hbond>
1.5761

> <Gold.Chemscore.Metal>
0.0000

> <Gold.Chemscore.Lipo>
107.2565

> <Gold.Chemscore.Internal_Hbond>
0.0000

> <Gold.Chemscore.DEClash>
0.1451

> <Gold.Chemscore.DEInternal>
2.8319

> <Gold.Chemscore.Rot>
3.3986

> <Gold.Chemscore.Internal.Correction>
   9.000000E+99

> <Gold.Chemscore.Hbonds>
donor molecule, donor type, donor heavy atom, donor atom, acceptor molecule, acceptor atom, score
      L1  H     9    45       P1 10186  1.00
      L1  H    25    57       P1  8028  0.59

> <Gold.Chemscore.Hbond.Weighted>
-5.2642

> <Gold.Chemscore.Metal.Weighted>
-0.0000

> <Gold.Chemscore.Lipo.Weighted>
-12.5490

> <Gold.Chemscore.Internal_Hbond.Weighted>
0.0000

> <Gold.Chemscore.DEClash.Weighted>
0.1451

> <Gold.Chemscore.DEInternal.Weighted>
2.8319

> <Gold.Chemscore.Rot.Weighted>
8.7005

> <Gold.Chemscore.Internal.Correction.Weighted>
   9.000000E+99

> <Gold.Protein.RotatedTorsions>
[ 6907 6896 6895 6894 ] final  110.76 input  -60.11 | X-H torsion
[ 7974 7965 7964 7962 ] final  -46.85 input  175.53 | X-H torsion
[ 8008 7997 7996 7995 ] final  108.09 input   59.86 | X-H torsion
[ 10167 10162 10161 10158 ] final -115.10 input  -65.29 | X-H torsion
[ 10718 10713 10712 10709 ] final -150.96 input   66.30 | X-H torsion
[ 10763 10752 10751 10750 ] final   46.65 input  -60.55 | X-H torsion
[ 11005 11000 10999 10996 ] final  -43.63 input  -57.11 | X-H torsion

> <Gold.Protein.ActiveResidues>
 VAL166  LYS551  ARG553  GLY616  TRP617  ASP618  TYR619  PRO620  LYS621  CYS622 
 ASP623  PHE694  ASN695  SER759  ASP760  ASP761  ALA762  ILE779  LEU786  VAL792 
 PHE793  MET794  SER795  GLU796  ALA797  LYS798  CYS799  TRP800  GLU811  SER814 

> <Gold.Protein.RotatedAtoms>
  152.5004  133.8755  159.7319 H   0  0  0  0  0  0  0  0  0  0  0  0  # atno 6907 bound_to 6896
  150.9230  133.6848  159.2834 H   0  0  0  0  0  0  0  0  0  0  0  0  # atno 6908 bound_to 6896
  151.4218  135.1003  159.9669 H   0  0  0  0  0  0  0  0  0  0  0  0  # atno 6909 bound_to 6896
  145.9677  140.7415  142.9426 H   0  0  0  0  0  0  0  0  0  0  0  0  # atno 7974 bound_to 7965
  156.1876  140.3083  155.9269 H   0  0  0  0  0  0  0  0  0  0  0  0  # atno 8008 bound_to 7997
  155.3246  140.0457  157.3057 H   0  0  0  0  0  0  0  0  0  0  0  0  # atno 8009 bound_to 7997
  154.5414  140.2262  155.8645 H   0  0  0  0  0  0  0  0  0  0  0  0  # atno 8010 bound_to 7997
  140.0938  143.4676  152.1854 H   0  0  0  0  0  0  0  0  0  0  0  0  # atno 10167 bound_to 10162
  156.4529  130.8176  151.2407 H   0  0  0  0  0  0  0  0  0  0  0  0  # atno 10718 bound_to 10713
  152.9808  135.6001  154.3634 H   0  0  0  0  0  0  0  0  0  0  0  0  # atno 10763 bound_to 10752
  154.3313  135.2768  155.2472 H   0  0  0  0  0  0  0  0  0  0  0  0  # atno 10764 bound_to 10752
  154.4594  135.5969  153.6301 H   0  0  0  0  0  0  0  0  0  0  0  0  # atno 10765 bound_to 10752
  141.0397  133.6785  156.2760 H   0  0  0  0  0  0  0  0  0  0  0  0  # atno 11005 bound_to 11000
  144.6829  140.2696  143.7307 LP  0  0  0  0  0  0  0  0  0  0  0  0  # atno 17320 bound_to 7965
  145.7950  139.1942  143.2081 LP  0  0  0  0  0  0  0  0  0  0  0  0  # atno 17321 bound_to 7965
  139.5710  144.7462  151.3892 LP  0  0  0  0  0  0  0  0  0  0  0  0  # atno 17342 bound_to 10162
  140.7015  143.7621  150.7410 LP  0  0  0  0  0  0  0  0  0  0  0  0  # atno 17343 bound_to 10162
  157.7502  131.0132  150.3414 LP  0  0  0  0  0  0  0  0  0  0  0  0  # atno 17370 bound_to 10713
  156.3797  130.3878  149.7111 LP  0  0  0  0  0  0  0  0  0  0  0  0  # atno 17371 bound_to 10713
  140.6257  134.5315  157.5553 LP  0  0  0  0  0  0  0  0  0  0  0  0  # atno 17394 bound_to 11000
  139.9266  134.8043  156.1050 LP  0  0  0  0  0  0  0  0  0  0  0  0  # atno 17395 bound_to 11000

$$$$
