AV-unprocessed.smi:2775|AV-procd|sdf|10688|dock3
  -GOLD-   2272015133D 1   1.00000     0.00000
 Structure written by MMmdl.
 42 45  0  0  0  0  0  0  0  0  1 V2000
  144.1153  132.5894  150.6294 C   0  0  0  0  0  0  0  0  0  0  0  0
  144.0709  133.8537  151.4668 C   0  0  0  0  0  0  0  0  0  0  0  0
  142.8468  134.2236  151.9020 N   0  0  0  0  0  0  0  0  0  0  0  0
  142.7499  135.3428  152.6481 C   0  0  0  0  0  0  0  0  0  0  0  0
  143.8574  136.1362  153.0021 C   0  0  0  0  0  0  0  0  0  0  0  0
  145.1439  135.7421  152.5626 C   0  0  0  0  0  0  0  0  0  0  0  0
  146.3300  136.4722  152.8507 N   0  0  0  0  0  0  0  0  0  0  0  0
  146.6297  137.2123  153.9361 C   0  0  0  0  0  0  0  0  0  0  0  0
  145.8652  137.4344  154.8722 O   0  0  0  0  0  0  0  0  0  0  0  0
  147.8828  137.6976  153.9318 N   0  0  0  0  0  0  0  0  0  0  0  0
  148.5169  138.5349  154.9597 C   0  0  2  0  0  0  0  0  0  0  0  0
  148.0709  140.0038  154.9356 C   0  0  2  0  0  0  0  0  0  0  0  0
  146.8717  140.7397  154.4578 C   0  0  0  0  0  0  0  0  0  0  0  0
  147.6187  141.9695  153.8821 C   0  0  0  0  0  0  0  0  0  0  0  0
  149.0285  141.6329  153.9277 O   0  0  0  0  0  0  0  0  0  0  0  0
  149.0623  140.2228  153.8042 C   0  0  1  0  0  0  0  0  0  0  0  0
  149.8910  139.1424  154.5197 C   0  0  0  0  0  0  0  0  0  0  0  0
  150.9756  139.5120  155.5450 C   0  0  0  0  0  0  0  0  0  0  0  0
  151.7618  138.2826  155.0798 C   0  0  0  0  0  0  0  0  0  0  0  0
  150.9469  138.3072  153.7824 C   0  0  0  0  0  0  0  0  0  0  0  0
  145.2480  134.5807  151.7615 C   0  0  0  0  0  0  0  0  0  0  0  0
  146.7844  134.0548  151.1583 Cl  0  0  0  0  0  0  0  0  0  0  0  0
  144.7485  131.8414  151.1073 H   0  0  0  0  0  0  0  0  0  0  0  0
  144.5195  132.8026  149.6396 H   0  0  0  0  0  0  0  0  0  0  0  0
  143.1218  132.1573  150.5024 H   0  0  0  0  0  0  0  0  0  0  0  0
  141.7564  135.6185  152.9698 H   0  0  0  0  0  0  0  0  0  0  0  0
  143.6955  137.0275  153.5880 H   0  0  0  0  0  0  0  0  0  0  0  0
  147.0869  136.3322  152.1973 H   0  0  0  0  0  0  0  0  0  0  0  0
  148.4585  137.4619  153.1363 H   0  0  0  0  0  0  0  0  0  0  0  0
  148.5400  138.0890  155.9552 H   0  0  0  0  0  0  0  0  0  0  0  0
  148.4134  140.4620  155.8707 H   0  0  0  0  0  0  0  0  0  0  0  0
  146.3292  140.1932  153.6853 H   0  0  0  0  0  0  0  0  0  0  0  0
  146.1857  141.0041  155.2622 H   0  0  0  0  0  0  0  0  0  0  0  0
  147.3073  142.1659  152.8554 H   0  0  0  0  0  0  0  0  0  0  0  0
  147.4372  142.8696  154.4699 H   0  0  0  0  0  0  0  0  0  0  0  0
  148.7015  139.8985  152.8236 H   0  0  0  0  0  0  0  0  0  0  0  0
  151.4789  140.4499  155.3054 H   0  0  0  0  0  0  0  0  0  0  0  0
  150.6566  139.4792  156.5872 H   0  0  0  0  0  0  0  0  0  0  0  0
  152.8318  138.4472  154.9496 H   0  0  0  0  0  0  0  0  0  0  0  0
  151.5586  137.3994  155.6874 H   0  0  0  0  0  0  0  0  0  0  0  0
  150.6118  137.3276  153.4412 H   0  0  0  0  0  0  0  0  0  0  0  0
  151.4416  138.8643  152.9855 H   0  0  0  0  0  0  0  0  0  0  0  0
  1  2  1  0  0  0  0
  1 23  1  0  0  0  0
  1 24  1  0  0  0  0
  1 25  1  0  0  0  0
  2 21  1  0  0  0  0
  2  3  2  0  0  0  0
  3  4  1  0  0  0  0
  4  5  2  0  0  0  0
  4 26  1  0  0  0  0
  5  6  1  0  0  0  0
  5 27  1  0  0  0  0
  6  7  1  0  0  0  0
  6 21  2  0  0  0  0
  7  8  1  0  0  0  0
  7 28  1  0  0  0  0
  8  9  2  0  0  0  0
  8 10  1  0  0  0  0
 10 11  1  0  0  0  0
 10 29  1  0  0  0  0
 11 17  1  0  0  0  0
 11 12  1  0  0  0  0
 11 30  1  0  0  0  0
 12 16  1  0  0  0  0
 12 13  1  0  0  0  0
 12 31  1  0  0  0  0
 13 14  1  0  0  0  0
 13 32  1  0  0  0  0
 13 33  1  0  0  0  0
 14 15  1  0  0  0  0
 14 34  1  0  0  0  0
 14 35  1  0  0  0  0
 15 16  1  0  0  0  0
 16 17  1  0  0  0  0
 16 36  1  0  0  0  0
 17 20  1  0  0  0  0
 17 18  1  0  0  0  0
 18 19  1  0  0  0  0
 18 37  1  0  0  0  0
 18 38  1  0  0  0  0
 19 20  1  0  0  0  0
 19 39  1  0  0  0  0
 19 40  1  0  0  0  0
 20 41  1  0  0  0  0
 20 42  1  0  0  0  0
 21 22  1  0  0  0  0
M  END
> <s_m_source_file>
AV-unprocessed.smi

> <i_m_source_file_index>
2775

> <i_lp_mmshare_version>
43012

> <i_f3d_flags>
0

> <s_epik_input>
W0NIM11jMW5bY0hdW2NIXWMoYzFDbClbTkhdQyg9TylbTkhdW0NAQEhdMltDQEhdKFtDSDJdW0NIMl1PMylbQ0BASF0zQzI0W0NIMl1bQ0gyXVtDSDJdNA==

> <s_epik_cmdline>
J2VwaWtfcHl0aG9uJywgJy1waCcsICc3LjAnLCAnLXRuJywgJzgnLCAnLW1hJywgJzIwMCcsICctbWV0YWxfYmluZGluZycsICctaW1hZScsICc8aW5maWxlLm1hZT4nLCAnLW9tYWUnLCAnPG91dGZpbGUubWFlPic=

> <r_epik_Ionization_Penalty>
0.01026

> <r_epik_Ionization_Penalty_Charging>
0

> <r_epik_Ionization_Penalty_Neutral>
0.01026

> <r_epik_State_Penalty>
0.00780685

> <r_epik_Charging_Adjusted_Penalty>
0.00780685

> <i_epik_Tot_Q>
0

> <i_epik_Tot_abs_Q>
0

> <r_epik_Metal_State_Penalty>
0.00767411

> <b_epik_Metal_Only>
0

> <s_lp_Force_Field>
OPLS_2005

> <r_lp_Energy>
81.865

> <b_lp_Chiralities_Consistent>
1

> <s_lp_Variant>
AV-unprocessed.smi:2775-1

> <Gold.Version>
5.8.1

> <Gold.Id.Protein>
6NUR|6NUR_protein|mol2

> <Gold.PLP.Fitness>
40.0242

> <Gold.PLP.PLP>
-32.3605

> <Gold.PLP.part.hbond>
-3.5775

> <Gold.PLP.part.metal>
0.0000

> <Gold.PLP.part.buried>
-2.8787

> <Gold.PLP.part.nonpolar>
-25.5820

> <Gold.PLP.part.repulsive>
0.4710

> <Gold.PLP.ligand.clash>
0.0000

> <Gold.PLP.ligand.torsion>
0.3583

> <Gold.PLP.Chemscore.Hbond>
2.6880

> <Gold.PLP.Chemscore.CHOScore>
0.0000

> <Gold.PLP.Chemscore.Metal>
0.0000

> <Gold.Chemscore.Hbonds>
donor molecule, donor type, donor heavy atom, donor atom, acceptor molecule, acceptor atom, score
      L1  H     7    28       P1  7948  1.00
      L1  H    10    29       P1  7948  0.99
      P1  H  8011  8017       L1    15  0.64

> <Gold.PLP.Chemscore.Internal.Correction>
0.3163

> <Gold.Rescore>
     Score         DG    S(hbond)    S(metal)    S(lipo)     H(rot)  DE(clash)    DE(int)     intcor
     18.21     -19.89       1.96        0.00      89.20       1.00       1.21       0.47       ----

> <Gold.Chemscore.Fitness>
18.2133

> <Gold.Chemscore.DG>
-19.8878

> <Gold.Chemscore.ZeroCoef>
-5.4800

> <Gold.Chemscore.Hbond>
1.9553

> <Gold.Chemscore.Metal>
0.0000

> <Gold.Chemscore.Lipo>
89.2047

> <Gold.Chemscore.Internal_Hbond>
0.0000

> <Gold.Chemscore.DEClash>
1.2089

> <Gold.Chemscore.DEInternal>
0.4656

> <Gold.Chemscore.Rot>
1.0000

> <Gold.Chemscore.Internal.Correction>
   9.000000E+99

> <Gold.Chemscore.Hbonds>
donor molecule, donor type, donor heavy atom, donor atom, acceptor molecule, acceptor atom, score
      L1  H     7    28       P1  7948  0.94
      L1  H    10    29       P1  7948  0.94
      P1  H  8011  8017       L1    15  0.22

> <Gold.Chemscore.Hbond.Weighted>
-6.5309

> <Gold.Chemscore.Metal.Weighted>
-0.0000

> <Gold.Chemscore.Lipo.Weighted>
-10.4370

> <Gold.Chemscore.Internal_Hbond.Weighted>
0.0000

> <Gold.Chemscore.DEClash.Weighted>
1.2089

> <Gold.Chemscore.DEInternal.Weighted>
0.4656

> <Gold.Chemscore.Rot.Weighted>
2.5600

> <Gold.Chemscore.Internal.Correction.Weighted>
   9.000000E+99

> <Gold.Protein.RotatedTorsions>
[ 6907 6896 6895 6894 ] final   96.47 input  -60.11 | X-H torsion
[ 7974 7965 7964 7962 ] final -137.76 input  175.53 | X-H torsion
[ 8008 7997 7996 7995 ] final  -20.73 input   59.86 | X-H torsion
[ 10167 10162 10161 10158 ] final  114.14 input  -65.29 | X-H torsion
[ 10718 10713 10712 10709 ] final  174.84 input   66.30 | X-H torsion
[ 10763 10752 10751 10750 ] final   99.00 input  -60.55 | X-H torsion
[ 11005 11000 10999 10996 ] final   90.23 input  -57.11 | X-H torsion

> <Gold.Protein.ActiveResidues>
 VAL166  LYS551  ARG553  GLY616  TRP617  ASP618  TYR619  PRO620  LYS621  CYS622 
 ASP623  PHE694  ASN695  SER759  ASP760  ASP761  ALA762  ILE779  LEU786  VAL792 
 PHE793  MET794  SER795  GLU796  ALA797  LYS798  CYS799  TRP800  GLU811  SER814 

> <Gold.Protein.RotatedAtoms>
  152.5434  134.0882  159.8264 H   0  0  0  0  0  0  0  0  0  0  0  0  # atno 6907 bound_to 6896
  151.0974  133.5262  159.2619 H   0  0  0  0  0  0  0  0  0  0  0  0  # atno 6908 bound_to 6896
  151.2029  135.0459  159.8934 H   0  0  0  0  0  0  0  0  0  0  0  0  # atno 6909 bound_to 6896
  144.8815  140.6513  143.5203 H   0  0  0  0  0  0  0  0  0  0  0  0  # atno 7974 bound_to 7965
  154.4751  140.2054  155.9898 H   0  0  0  0  0  0  0  0  0  0  0  0  # atno 8008 bound_to 7997
  156.1075  140.3234  155.7997 H   0  0  0  0  0  0  0  0  0  0  0  0  # atno 8009 bound_to 7997
  155.4691  140.0530  157.2972 H   0  0  0  0  0  0  0  0  0  0  0  0  # atno 8010 bound_to 7997
  139.6410  144.7124  151.2237 H   0  0  0  0  0  0  0  0  0  0  0  0  # atno 10167 bound_to 10162
  156.9436  131.0009  151.2963 H   0  0  0  0  0  0  0  0  0  0  0  0  # atno 10718 bound_to 10713
  153.2960  135.4129  155.1209 H   0  0  0  0  0  0  0  0  0  0  0  0  # atno 10763 bound_to 10752
  154.8535  135.3530  154.5917 H   0  0  0  0  0  0  0  0  0  0  0  0  # atno 10764 bound_to 10752
  153.6341  135.7059  153.5323 H   0  0  0  0  0  0  0  0  0  0  0  0  # atno 10765 bound_to 10752
  139.8860  134.8601  156.3255 H   0  0  0  0  0  0  0  0  0  0  0  0  # atno 11005 bound_to 11000
  145.3946  139.1609  143.4210 LP  0  0  0  0  0  0  0  0  0  0  0  0  # atno 17320 bound_to 7965
  146.2997  140.4038  142.8708 LP  0  0  0  0  0  0  0  0  0  0  0  0  # atno 17321 bound_to 7965
  140.7491  143.6312  150.8421 LP  0  0  0  0  0  0  0  0  0  0  0  0  # atno 17342 bound_to 10162
  139.9949  143.5807  152.2897 LP  0  0  0  0  0  0  0  0  0  0  0  0  # atno 17343 bound_to 10162
  157.5769  130.8349  149.8467 LP  0  0  0  0  0  0  0  0  0  0  0  0  # atno 17370 bound_to 10713
  156.0393  130.3743  150.1476 LP  0  0  0  0  0  0  0  0  0  0  0  0  # atno 17371 bound_to 10713
  140.9758  133.7298  156.0600 LP  0  0  0  0  0  0  0  0  0  0  0  0  # atno 17394 bound_to 11000
  140.7813  134.3722  157.5486 LP  0  0  0  0  0  0  0  0  0  0  0  0  # atno 17395 bound_to 11000

$$$$
