AV-unprocessed.smi:255|AV-procd|sdf|1949|dock10
  -GOLD-   2262021 83D 1   1.00000     0.00000
 Structure written by MMmdl.
 44 47  0  0  0  0  0  0  0  0  1 V2000
  148.8159  142.2784  154.5075 O   0  0  0  0  0  0  0  0  0  0  0  0
  148.3656  141.2434  155.3558 C   0  0  0  0  0  0  0  0  0  0  0  0
  149.3252  141.0635  156.5474 C   0  0  2  0  0  0  0  0  0  0  0  0
  149.3934  142.2931  157.4540 C   0  0  0  0  0  0  0  0  0  0  0  0
  150.6949  142.0483  158.2077 C   0  0  2  0  0  0  0  0  0  0  0  0
  151.2160  143.1688  158.7065 F   0  0  0  0  0  0  0  0  0  0  0  0
  151.5987  141.3928  157.1600 C   0  0  0  0  0  0  0  0  0  0  0  0
  150.7109  140.8527  156.1319 N   0  0  0  0  0  0  0  0  0  0  0  0
  150.9952  139.5984  155.7167 C   0  0  0  0  0  0  0  0  0  0  0  0
  151.2071  139.3463  154.3980 N   0  0  0  0  0  0  0  0  0  0  0  0
  151.5062  138.1068  153.9968 C   0  0  0  0  0  0  0  0  0  0  0  0
  151.6411  137.0005  154.7323 N   0  0  0  0  0  0  0  0  0  0  0  0
  151.4298  137.2551  156.0559 C   0  0  0  0  0  0  0  0  0  0  0  0
  151.1082  138.5171  156.6279 C   0  0  0  0  0  0  0  0  0  0  0  0
  150.9771  138.3995  158.0053 N   0  0  0  0  0  0  0  0  0  0  0  0
  151.2019  137.1343  158.2355 C   0  0  0  0  0  0  0  0  0  0  0  0
  151.4748  136.3724  157.1208 N   0  0  0  0  0  0  0  0  0  0  0  0
  151.7559  134.9453  157.0902 C   0  0  0  0  0  0  0  0  0  0  0  0
  150.5860  134.1027  156.5309 C   0  0  1  0  0  0  0  0  0  0  0  0
  149.4377  134.3220  157.3324 O   0  0  0  0  0  0  0  0  0  0  0  0
  150.2310  134.4115  155.0790 C   0  0  0  0  0  0  0  0  0  0  0  0
  149.7388  133.0692  154.5570 C   0  0  0  0  0  0  0  0  0  0  0  0
  150.6316  132.1551  155.1704 O   0  0  0  0  0  0  0  0  0  0  0  0
  150.8792  132.5891  156.5040 C   0  0  0  0  0  0  0  0  0  0  0  0
  148.9913  140.2231  157.1595 H   0  0  0  0  0  0  0  0  0  0  0  0
  150.5236  141.3630  159.0390 H   0  0  0  0  0  0  0  0  0  0  0  0
  149.0657  143.0168  155.0418 H   0  0  0  0  0  0  0  0  0  0  0  0
  147.3439  141.4359  155.6858 H   0  0  0  0  0  0  0  0  0  0  0  0
  148.3417  140.3320  154.7577 H   0  0  0  0  0  0  0  0  0  0  0  0
  149.4692  143.2034  156.8567 H   0  0  0  0  0  0  0  0  0  0  0  0
  148.5304  142.3870  158.1138 H   0  0  0  0  0  0  0  0  0  0  0  0
  152.2319  142.1433  156.6862 H   0  0  0  0  0  0  0  0  0  0  0  0
  152.2575  140.6491  157.6101 H   0  0  0  0  0  0  0  0  0  0  0  0
  151.6610  137.9839  152.9350 H   0  0  0  0  0  0  0  0  0  0  0  0
  151.1694  136.7166  159.2314 H   0  0  0  0  0  0  0  0  0  0  0  0
  152.6524  134.7871  156.4894 H   0  0  0  0  0  0  0  0  0  0  0  0
  152.0060  134.6224  158.1017 H   0  0  0  0  0  0  0  0  0  0  0  0
  148.7563  133.7323  157.0469 H   0  0  0  0  0  0  0  0  0  0  0  0
  149.5026  135.2153  154.9624 H   0  0  0  0  0  0  0  0  0  0  0  0
  151.1265  134.6913  154.5228 H   0  0  0  0  0  0  0  0  0  0  0  0
  148.7181  132.8684  154.8862 H   0  0  0  0  0  0  0  0  0  0  0  0
  149.7740  132.9993  153.4697 H   0  0  0  0  0  0  0  0  0  0  0  0
  151.9136  132.3618  156.7642 H   0  0  0  0  0  0  0  0  0  0  0  0
  150.2409  132.0338  157.1932 H   0  0  0  0  0  0  0  0  0  0  0  0
  1  2  1  0  0  0  0
  1 27  1  0  0  0  0
  2  3  1  0  0  0  0
  2 28  1  0  0  0  0
  2 29  1  0  0  0  0
  3 25  1  0  0  0  0
  3  8  1  0  0  0  0
  3  4  1  0  0  0  0
  4  5  1  0  0  0  0
  4 30  1  0  0  0  0
  4 31  1  0  0  0  0
  5 26  1  0  0  0  0
  5  6  1  0  0  0  0
  5  7  1  0  0  0  0
  7  8  1  0  0  0  0
  7 32  1  0  0  0  0
  7 33  1  0  0  0  0
  8  9  1  0  0  0  0
  9 14  1  0  0  0  0
  9 10  2  0  0  0  0
 10 11  1  0  0  0  0
 11 12  2  0  0  0  0
 11 34  1  0  0  0  0
 12 13  1  0  0  0  0
 13 17  1  0  0  0  0
 13 14  2  0  0  0  0
 14 15  1  0  0  0  0
 15 16  2  0  0  0  0
 16 17  1  0  0  0  0
 16 35  1  0  0  0  0
 17 18  1  0  0  0  0
 18 19  1  0  0  0  0
 18 36  1  0  0  0  0
 18 37  1  0  0  0  0
 19 24  1  0  0  0  0
 19 20  1  0  0  0  0
 19 21  1  0  0  0  0
 20 38  1  0  0  0  0
 21 22  1  0  0  0  0
 21 39  1  0  0  0  0
 21 40  1  0  0  0  0
 22 23  1  0  0  0  0
 22 41  1  0  0  0  0
 22 42  1  0  0  0  0
 23 24  1  0  0  0  0
 24 43  1  0  0  0  0
 24 44  1  0  0  0  0
M  END
> <s_m_source_file>
AV-unprocessed.smi

> <i_m_source_file_index>
255

> <i_lp_mmshare_version>
43012

> <i_f3d_flags>
0

> <s_epik_input>
W09IXVtDSDJdW0NAQEhdMVtDSDJdW0NASF0oRilbQ0gyXU4xYyhuW2NIXW4yKWMoYzIzKW5bY0hdbjNbQ0gyXVtDQEBdNChbT0hdKVtDSDJdW0NIMl1PW0NIMl00

> <s_epik_cmdline>
J2VwaWtfcHl0aG9uJywgJy1waCcsICc3LjAnLCAnLXRuJywgJzgnLCAnLW1hJywgJzIwMCcsICctbWV0YWxfYmluZGluZycsICctaW1hZScsICc8aW5maWxlLm1hZT4nLCAnLW9tYWUnLCAnPG91dGZpbGUubWFlPic=

> <r_lp_tautomer_probability>
1

> <r_epik_Ionization_Penalty>
0.0058098

> <r_epik_Ionization_Penalty_Charging>
0

> <r_epik_Ionization_Penalty_Neutral>
0.0058098

> <r_epik_State_Penalty>
0.00411166

> <r_epik_Charging_Adjusted_Penalty>
0.00411166

> <i_epik_Tot_Q>
0

> <i_epik_Tot_abs_Q>
0

> <r_epik_Metal_State_Penalty>
-0

> <b_epik_Metal_Only>
0

> <s_lp_Force_Field>
OPLS_2005

> <r_lp_Energy>
52.3254

> <b_lp_Chiralities_Consistent>
1

> <s_lp_Variant>
AV-unprocessed.smi:255-1

> <Gold.Version>
5.8.1

> <Gold.Id.Protein>
6NUR|6NUR_protein|mol2

> <Gold.PLP.Fitness>
40.5706

> <Gold.PLP.PLP>
-29.0047

> <Gold.PLP.part.hbond>
-4.0000

> <Gold.PLP.part.metal>
0.0000

> <Gold.PLP.part.buried>
-2.1551

> <Gold.PLP.part.nonpolar>
-22.5671

> <Gold.PLP.part.repulsive>
0.3092

> <Gold.PLP.ligand.clash>
0.0000

> <Gold.PLP.ligand.torsion>
0.3472

> <Gold.PLP.Chemscore.Hbond>
3.1014

> <Gold.PLP.Chemscore.CHOScore>
0.9575

> <Gold.PLP.Chemscore.Metal>
0.0000

> <Gold.Chemscore.Hbonds>
donor molecule, donor type, donor heavy atom, donor atom, acceptor molecule, acceptor atom, score
      L1  H     1    27       P1  8028  1.00
      P1  H  7989  7998       L1    10  1.00
      P1  H  8011  8017       L1     1  0.04
      P1  H 10752 10765       L1    12  1.00
      L1  C    11    34       P1  7949  0.99

> <Gold.PLP.Chemscore.Internal.Correction>
0.0836

> <Gold.Rescore>
     Score         DG    S(hbond)    S(metal)    S(lipo)     H(rot)  DE(clash)    DE(int)     intcor
     11.48     -12.99       2.87        0.00      54.93       3.33       0.54       0.97       ----

> <Gold.Chemscore.Fitness>
11.4767

> <Gold.Chemscore.DG>
-12.9885

> <Gold.Chemscore.ZeroCoef>
-5.4800

> <Gold.Chemscore.Hbond>
2.8740

> <Gold.Chemscore.Metal>
0.0000

> <Gold.Chemscore.Lipo>
54.9333

> <Gold.Chemscore.Internal_Hbond>
0.0000

> <Gold.Chemscore.DEClash>
0.5409

> <Gold.Chemscore.DEInternal>
0.9709

> <Gold.Chemscore.Rot>
3.3273

> <Gold.Chemscore.Internal.Correction>
   9.000000E+99

> <Gold.Chemscore.Hbonds>
donor molecule, donor type, donor heavy atom, donor atom, acceptor molecule, acceptor atom, score
      L1  H     1    27       P1  8028  0.97
      P1  H  7989  7998       L1    10  0.82
      P1  H  8011  8017       L1     1  0.03
      P1  H 10752 10765       L1    12  0.69

> <Gold.Chemscore.Hbond.Weighted>
-9.5992

> <Gold.Chemscore.Metal.Weighted>
-0.0000

> <Gold.Chemscore.Lipo.Weighted>
-6.4272

> <Gold.Chemscore.Internal_Hbond.Weighted>
0.0000

> <Gold.Chemscore.DEClash.Weighted>
0.5409

> <Gold.Chemscore.DEInternal.Weighted>
0.9709

> <Gold.Chemscore.Rot.Weighted>
8.5179

> <Gold.Chemscore.Internal.Correction.Weighted>
   9.000000E+99

> <Gold.Protein.RotatedTorsions>
[ 6907 6896 6895 6894 ] final   -7.49 input  -60.11 | X-H torsion
[ 7974 7965 7964 7962 ] final  140.28 input  175.53 | X-H torsion
[ 8008 7997 7996 7995 ] final   78.57 input   59.86 | X-H torsion
[ 10167 10162 10161 10158 ] final   65.40 input  -65.29 | X-H torsion
[ 10718 10713 10712 10709 ] final   86.16 input   66.30 | X-H torsion
[ 10763 10752 10751 10750 ] final  179.88 input  -60.55 | X-H torsion
[ 11005 11000 10999 10996 ] final  114.18 input  -57.11 | X-H torsion

> <Gold.Protein.ActiveResidues>
 VAL166  LYS551  ARG553  GLY616  TRP617  ASP618  TYR619  PRO620  LYS621  CYS622 
 ASP623  PHE694  ASN695  SER759  ASP760  ASP761  ALA762  ILE779  LEU786  VAL792 
 PHE793  MET794  SER795  GLU796  ALA797  LYS798  CYS799  TRP800  GLU811  SER814 

> <Gold.Protein.RotatedAtoms>
  151.4487  135.1027  159.9691 H   0  0  0  0  0  0  0  0  0  0  0  0  # atno 6907 bound_to 6896
  152.4896  133.8460  159.7188 H   0  0  0  0  0  0  0  0  0  0  0  0  # atno 6908 bound_to 6896
  150.9037  133.7026  159.2899 H   0  0  0  0  0  0  0  0  0  0  0  0  # atno 6909 bound_to 6896
  144.9201  139.5179  143.5667 H   0  0  0  0  0  0  0  0  0  0  0  0  # atno 7974 bound_to 7965
  155.8576  140.3455  155.5735 H   0  0  0  0  0  0  0  0  0  0  0  0  # atno 8008 bound_to 7997
  155.7969  140.0879  157.1998 H   0  0  0  0  0  0  0  0  0  0  0  0  # atno 8009 bound_to 7997
  154.4010  140.1473  156.3215 H   0  0  0  0  0  0  0  0  0  0  0  0  # atno 8010 bound_to 7997
  140.1117  144.4812  150.6974 H   0  0  0  0  0  0  0  0  0  0  0  0  # atno 10167 bound_to 10162
  157.6925  131.0204  150.2931 H   0  0  0  0  0  0  0  0  0  0  0  0  # atno 10718 bound_to 10713
  154.5264  135.2797  155.1218 H   0  0  0  0  0  0  0  0  0  0  0  0  # atno 10763 bound_to 10752
  154.2756  135.6295  153.5330 H   0  0  0  0  0  0  0  0  0  0  0  0  # atno 10764 bound_to 10752
  152.9947  135.5639  154.5766 H   0  0  0  0  0  0  0  0  0  0  0  0  # atno 10765 bound_to 10752
  139.8973  134.9563  156.6852 H   0  0  0  0  0  0  0  0  0  0  0  0  # atno 11005 bound_to 11000
  146.3200  139.8074  142.8953 LP  0  0  0  0  0  0  0  0  0  0  0  0  # atno 17320 bound_to 7965
  145.3310  141.0266  143.3446 LP  0  0  0  0  0  0  0  0  0  0  0  0  # atno 17321 bound_to 7965
  140.6922  143.2382  151.5100 LP  0  0  0  0  0  0  0  0  0  0  0  0  # atno 17342 bound_to 10162
  139.5616  144.2144  152.1699 LP  0  0  0  0  0  0  0  0  0  0  0  0  # atno 17343 bound_to 10162
  156.3459  130.3823  149.7369 LP  0  0  0  0  0  0  0  0  0  0  0  0  # atno 17370 bound_to 10713
  156.4863  130.8064  151.3076 LP  0  0  0  0  0  0  0  0  0  0  0  0  # atno 17371 bound_to 10713
  140.7268  133.9093  155.8184 LP  0  0  0  0  0  0  0  0  0  0  0  0  # atno 17394 bound_to 11000
  141.0185  134.0922  157.4146 LP  0  0  0  0  0  0  0  0  0  0  0  0  # atno 17395 bound_to 11000

$$$$
