AV-unprocessed.smi:2588|AV-procd|sdf|10150|dock4
  -GOLD-   2272014163D 1   1.00000     0.00000
 Structure written by MMmdl.
 39 40  0  0  0  0  0  0  0  0  1 V2000
  152.3776  143.7064  161.7236 C   0  0  0  0  0  0  0  0  0  0  0  0
  152.4658  144.1118  160.2352 C   0  0  0  0  0  0  0  0  0  0  0  0
  151.9140  145.5484  160.0943 C   0  0  0  0  0  0  0  0  0  0  0  0
  151.7500  143.1596  159.3595 N   0  0  0  0  0  0  0  0  0  0  0  0
  152.2811  141.7938  159.5023 C   0  0  0  0  0  0  0  0  0  0  0  0
  151.4870  140.7842  158.6555 C   0  0  0  0  0  0  0  0  0  0  0  0
  151.5186  141.1629  157.1693 C   0  0  0  0  0  0  0  0  0  0  0  0
  150.6590  140.2816  156.3851 N   0  0  0  0  0  0  0  0  0  0  0  0
  151.0208  139.6532  155.2561 C   0  0  0  0  0  0  0  0  0  0  0  0
  152.1344  139.7751  154.7435 O   0  0  0  0  0  0  0  0  0  0  0  0
  149.9494  138.7700  154.6033 C   0  0  0  0  0  0  0  0  0  0  0  0
  148.7542  139.5176  154.2095 N   0  0  0  0  0  0  0  0  0  0  0  0
  147.5919  138.8313  154.0394 N   0  0  0  0  0  0  0  0  0  0  0  0
  146.6305  139.6116  153.7093 C   0  0  0  0  0  0  0  0  0  0  0  0
  147.0350  141.3264  153.5547 S   0  0  0  0  0  0  0  0  0  0  0  0
  148.7093  140.8929  153.9978 C   0  0  0  0  0  0  0  0  0  0  0  0
  149.6226  141.7118  154.0854 O   0  0  0  0  0  0  0  0  0  0  0  0
  151.0475  142.6137  157.0331 C   0  0  0  0  0  0  0  0  0  0  0  0
  151.8614  143.5489  157.9441 C   0  0  0  0  0  0  0  0  0  0  0  0
  152.7662  144.4951  162.3685 H   0  0  0  0  0  0  0  0  0  0  0  0
  152.9716  142.8218  161.9510 H   0  0  0  0  0  0  0  0  0  0  0  0
  151.3470  143.5158  162.0256 H   0  0  0  0  0  0  0  0  0  0  0  0
  153.5191  144.1243  159.9507 H   0  0  0  0  0  0  0  0  0  0  0  0
  152.3340  146.2059  160.8560 H   0  0  0  0  0  0  0  0  0  0  0  0
  150.8292  145.5721  160.2057 H   0  0  0  0  0  0  0  0  0  0  0  0
  152.1711  146.0038  159.1388 H   0  0  0  0  0  0  0  0  0  0  0  0
  153.3369  141.7715  159.2274 H   0  0  0  0  0  0  0  0  0  0  0  0
  152.2121  141.4549  160.5339 H   0  0  0  0  0  0  0  0  0  0  0  0
  151.9002  139.7850  158.7981 H   0  0  0  0  0  0  0  0  0  0  0  0
  150.4561  140.7457  159.0108 H   0  0  0  0  0  0  0  0  0  0  0  0
  152.5436  141.0940  156.7996 H   0  0  0  0  0  0  0  0  0  0  0  0
  149.7234  140.1304  156.7333 H   0  0  0  0  0  0  0  0  0  0  0  0
  150.3656  138.2799  153.7215 H   0  0  0  0  0  0  0  0  0  0  0  0
  149.6844  137.9746  155.3016 H   0  0  0  0  0  0  0  0  0  0  0  0
  145.5989  139.3162  153.5179 H   0  0  0  0  0  0  0  0  0  0  0  0
  151.1401  142.9392  155.9965 H   0  0  0  0  0  0  0  0  0  0  0  0
  149.9895  142.6913  157.2890 H   0  0  0  0  0  0  0  0  0  0  0  0
  151.4745  144.5531  157.7851 H   0  0  0  0  0  0  0  0  0  0  0  0
  152.9094  143.5576  157.6404 H   0  0  0  0  0  0  0  0  0  0  0  0
  1  2  1  0  0  0  0
  1 20  1  0  0  0  0
  1 21  1  0  0  0  0
  1 22  1  0  0  0  0
  2  3  1  0  0  0  0
  2  4  1  0  0  0  0
  2 23  1  0  0  0  0
  3 24  1  0  0  0  0
  3 25  1  0  0  0  0
  3 26  1  0  0  0  0
  4 19  1  0  0  0  0
  4  5  1  0  0  0  0
  5  6  1  0  0  0  0
  5 27  1  0  0  0  0
  5 28  1  0  0  0  0
  6  7  1  0  0  0  0
  6 29  1  0  0  0  0
  6 30  1  0  0  0  0
  7  8  1  0  0  0  0
  7 18  1  0  0  0  0
  7 31  1  0  0  0  0
  8  9  1  0  0  0  0
  8 32  1  0  0  0  0
  9 10  2  0  0  0  0
  9 11  1  0  0  0  0
 11 12  1  0  0  0  0
 11 33  1  0  0  0  0
 11 34  1  0  0  0  0
 12 16  1  0  0  0  0
 12 13  1  0  0  0  0
 13 14  2  0  0  0  0
 14 15  1  0  0  0  0
 14 35  1  0  0  0  0
 15 16  1  0  0  0  0
 16 17  2  0  0  0  0
 18 19  1  0  0  0  0
 18 36  1  0  0  0  0
 18 37  1  0  0  0  0
 19 38  1  0  0  0  0
 19 39  1  0  0  0  0
M  END
> <s_m_source_file>
AV-unprocessed.smi

> <i_m_source_file_index>
2588

> <i_lp_mmshare_version>
43012

> <i_f3d_flags>
0

> <s_epik_input>
W0NIM11bQ0hdKFtDSDNdKU4xW0NIMl1bQ0gyXVtDSF0oW0NIMl1bQ0gyXTEpW05IXUMoPU8pW0NIMl1uMm5bY0hdc2MyPU8=

> <s_epik_cmdline>
J2VwaWtfcHl0aG9uJywgJy1waCcsICc3LjAnLCAnLXRuJywgJzgnLCAnLW1hJywgJzIwMCcsICctbWV0YWxfYmluZGluZycsICctaW1hZScsICc8aW5maWxlLm1hZT4nLCAnLW9tYWUnLCAnPG91dGZpbGUubWFlPic=

> <r_lp_tautomer_probability>
1

> <r_epik_Ionization_Penalty>
2.47038

> <r_epik_Ionization_Penalty_Charging>
1.38606e-08

> <r_epik_Ionization_Penalty_Neutral>
2.47038

> <r_epik_State_Penalty>
2.63325

> <r_epik_Charging_Adjusted_Penalty>
2.63325

> <i_epik_Tot_Q>
0

> <i_epik_Tot_abs_Q>
0

> <r_epik_Metal_State_Penalty>
2.63325

> <b_epik_Metal_Only>
0

> <s_lp_Force_Field>
OPLS_2005

> <r_lp_Energy>
19.6439

> <b_lp_Chiralities_Consistent>
1

> <s_lp_Variant>
AV-unprocessed.smi:2588-3

> <Gold.Version>
5.8.1

> <Gold.Id.Protein>
6NUR|6NUR_protein|mol2

> <Gold.PLP.Fitness>
47.9992

> <Gold.PLP.PLP>
-41.6940

> <Gold.PLP.part.hbond>
-3.0000

> <Gold.PLP.part.metal>
0.0000

> <Gold.PLP.part.buried>
-3.7284

> <Gold.PLP.part.nonpolar>
-34.0766

> <Gold.PLP.part.repulsive>
0.4795

> <Gold.PLP.ligand.clash>
0.0000

> <Gold.PLP.ligand.torsion>
0.4105

> <Gold.PLP.Chemscore.Hbond>
1.3920

> <Gold.PLP.Chemscore.CHOScore>
0.9807

> <Gold.PLP.Chemscore.Metal>
0.0000

> <Gold.Chemscore.Hbonds>
donor molecule, donor type, donor heavy atom, donor atom, acceptor molecule, acceptor atom, score
      P1  H  7989  7998       L1    10  0.68
      P1  H  8011  8017       L1    17  0.53
      L1  C    14    35       P1 10175  1.00

> <Gold.PLP.Chemscore.Internal.Correction>
0.0079

> <Gold.Rescore>
     Score         DG    S(hbond)    S(metal)    S(lipo)     H(rot)  DE(clash)    DE(int)     intcor
     15.30     -17.43       1.69        0.00      94.09       1.83       0.17       1.96       ----

> <Gold.Chemscore.Fitness>
15.3006

> <Gold.Chemscore.DG>
-17.4305

> <Gold.Chemscore.ZeroCoef>
-5.4800

> <Gold.Chemscore.Hbond>
1.6870

> <Gold.Chemscore.Metal>
0.0000

> <Gold.Chemscore.Lipo>
94.0933

> <Gold.Chemscore.Internal_Hbond>
0.0000

> <Gold.Chemscore.DEClash>
0.1712

> <Gold.Chemscore.DEInternal>
1.9587

> <Gold.Chemscore.Rot>
1.8332

> <Gold.Chemscore.Internal.Correction>
   9.000000E+99

> <Gold.Chemscore.Hbonds>
donor molecule, donor type, donor heavy atom, donor atom, acceptor molecule, acceptor atom, score
      P1  H  7989  7998       L1    10  0.12
      P1  H  8011  8017       L1    17  0.27

> <Gold.Chemscore.Hbond.Weighted>
-5.6346

> <Gold.Chemscore.Metal.Weighted>
-0.0000

> <Gold.Chemscore.Lipo.Weighted>
-11.0089

> <Gold.Chemscore.Internal_Hbond.Weighted>
0.0000

> <Gold.Chemscore.DEClash.Weighted>
0.1712

> <Gold.Chemscore.DEInternal.Weighted>
1.9587

> <Gold.Chemscore.Rot.Weighted>
4.6930

> <Gold.Chemscore.Internal.Correction.Weighted>
   9.000000E+99

> <Gold.Protein.RotatedTorsions>
[ 6907 6896 6895 6894 ] final -126.08 input  -60.11 | X-H torsion
[ 7974 7965 7964 7962 ] final  164.78 input  175.53 | X-H torsion
[ 8008 7997 7996 7995 ] final  -16.91 input   59.86 | X-H torsion
[ 10167 10162 10161 10158 ] final -155.31 input  -65.29 | X-H torsion
[ 10718 10713 10712 10709 ] final  136.91 input   66.30 | X-H torsion
[ 10763 10752 10751 10750 ] final    2.58 input  -60.55 | X-H torsion
[ 11005 11000 10999 10996 ] final  156.32 input  -57.11 | X-H torsion

> <Gold.Protein.ActiveResidues>
 VAL166  LYS551  ARG553  GLY616  TRP617  ASP618  TYR619  PRO620  LYS621  CYS622 
 ASP623  PHE694  ASN695  SER759  ASP760  ASP761  ALA762  ILE779  LEU786  VAL792 
 PHE793  MET794  SER795  GLU796  ALA797  LYS798  CYS799  TRP800  GLU811  SER814 

> <Gold.Protein.RotatedAtoms>
  150.8933  133.7214  159.2898 H   0  0  0  0  0  0  0  0  0  0  0  0  # atno 6907 bound_to 6896
  151.4757  135.1047  159.9773 H   0  0  0  0  0  0  0  0  0  0  0  0  # atno 6908 bound_to 6896
  152.4833  133.8262  159.7135 H   0  0  0  0  0  0  0  0  0  0  0  0  # atno 6909 bound_to 6896
  144.7530  139.8376  143.6359 H   0  0  0  0  0  0  0  0  0  0  0  0  # atno 7974 bound_to 7965
  154.5017  140.2157  155.9333 H   0  0  0  0  0  0  0  0  0  0  0  0  # atno 8008 bound_to 7997
  156.1442  140.3174  155.8511 H   0  0  0  0  0  0  0  0  0  0  0  0  # atno 8009 bound_to 7997
  155.4062  140.0487  157.3025 H   0  0  0  0  0  0  0  0  0  0  0  0  # atno 8010 bound_to 7997
  139.6941  143.9371  152.2399 H   0  0  0  0  0  0  0  0  0  0  0  0  # atno 10167 bound_to 10162
  157.4417  131.1058  151.0136 H   0  0  0  0  0  0  0  0  0  0  0  0  # atno 10718 bound_to 10713
  153.2938  135.6950  153.7267 H   0  0  0  0  0  0  0  0  0  0  0  0  # atno 10763 bound_to 10752
  153.6208  135.3427  155.3011 H   0  0  0  0  0  0  0  0  0  0  0  0  # atno 10764 bound_to 10752
  154.8532  135.4385  154.2029 H   0  0  0  0  0  0  0  0  0  0  0  0  # atno 10765 bound_to 10752
  140.1664  134.8574  157.2637 H   0  0  0  0  0  0  0  0  0  0  0  0  # atno 11005 bound_to 11000
  146.1505  139.4587  143.0051 LP  0  0  0  0  0  0  0  0  0  0  0  0  # atno 17320 bound_to 7965
  145.6876  141.0173  143.1572 LP  0  0  0  0  0  0  0  0  0  0  0  0  # atno 17321 bound_to 7965
  139.9195  144.6808  150.8476 LP  0  0  0  0  0  0  0  0  0  0  0  0  # atno 17342 bound_to 10162
  140.7691  143.3385  151.2258 LP  0  0  0  0  0  0  0  0  0  0  0  0  # atno 17343 bound_to 10162
  157.0997  130.5976  149.5457 LP  0  0  0  0  0  0  0  0  0  0  0  0  # atno 17370 bound_to 10713
  155.9951  130.5017  150.7446 LP  0  0  0  0  0  0  0  0  0  0  0  0  # atno 17371 bound_to 10713
  140.2429  134.3774  155.7473 LP  0  0  0  0  0  0  0  0  0  0  0  0  # atno 17394 bound_to 11000
  141.2214  133.7275  156.8816 LP  0  0  0  0  0  0  0  0  0  0  0  0  # atno 17395 bound_to 11000

$$$$
