AV-unprocessed.smi:27|AV-procd|sdf|187|dock6
  -GOLD-   2262015453D 1   1.00000     0.00000
 Structure written by MMmdl.
 53 56  0  0  0  0  0  0  0  0  1 V2000
  153.0789  139.3274  155.4832 O   0  0  0  0  0  0  0  0  0  0  0  0
  152.2497  138.9868  156.3256 C   0  0  0  0  0  0  0  0  0  0  0  0
  152.3025  137.5631  156.9117 C   0  0  0  0  0  0  0  0  0  0  0  0
  150.9733  136.9322  157.0980 N   0  0  0  0  0  0  0  0  0  0  0  0
  150.4077  136.2083  156.0198 C   0  0  0  0  0  0  0  0  0  0  0  0
  151.0107  136.0728  154.9544 O   0  0  0  0  0  0  0  0  0  0  0  0
  149.0769  135.6633  156.2583 C   0  0  0  0  0  0  0  0  0  0  0  0
  148.4726  134.9424  155.2986 F   0  0  0  0  0  0  0  0  0  0  0  0
  148.4358  135.8748  157.4265 C   0  0  0  0  0  0  0  0  0  0  0  0
  148.9896  136.6029  158.4662 N   0  0  0  0  0  0  0  0  0  0  0  0
  148.2449  136.9187  159.7480 C   0  0  2  0  0  0  0  0  0  0  0  0
  147.8720  135.7145  160.6169 C   0  0  0  0  0  0  0  0  0  0  0  0
  146.7504  136.3215  161.4274 C   0  0  0  0  0  0  0  0  0  0  0  0
  146.0358  137.1673  160.3735 C   0  0  0  0  0  0  0  0  0  0  0  0
  147.0295  137.5191  159.4115 O   0  0  0  0  0  0  0  0  0  0  0  0
  150.2889  137.1377  158.3200 C   0  0  0  0  0  0  0  0  0  0  0  0
  150.8074  137.7875  159.2307 O   0  0  0  0  0  0  0  0  0  0  0  0
  151.2803  139.8016  156.7712 N   0  0  0  0  0  0  0  0  0  0  0  0
  151.0425  141.1878  156.3833 C   0  0  0  0  0  0  0  0  0  0  0  0
  151.5026  142.1533  157.4712 C   0  0  0  0  0  0  0  0  0  0  0  0
  152.0393  141.6835  158.6940 C   0  0  0  0  0  0  0  0  0  0  0  0
  152.4589  142.5930  159.6836 C   0  0  0  0  0  0  0  0  0  0  0  0
  152.3420  143.9782  159.4632 C   0  0  0  0  0  0  0  0  0  0  0  0
  151.8010  144.4534  158.2537 C   0  0  0  0  0  0  0  0  0  0  0  0
  151.3819  143.5444  157.2628 C   0  0  0  0  0  0  0  0  0  0  0  0
  149.5861  141.4433  156.0105 C   0  0  0  0  0  0  0  0  0  0  0  0
  148.5825  141.5270  157.0033 C   0  0  0  0  0  0  0  0  0  0  0  0
  147.2431  141.7683  156.6416 C   0  0  0  0  0  0  0  0  0  0  0  0
  146.8971  141.9324  155.2868 C   0  0  0  0  0  0  0  0  0  0  0  0
  147.8923  141.8581  154.2937 C   0  0  0  0  0  0  0  0  0  0  0  0
  149.2318  141.6155  154.6548 C   0  0  0  0  0  0  0  0  0  0  0  0
  152.9433  136.9546  156.2719 H   0  0  0  0  0  0  0  0  0  0  0  0
  152.8431  137.6057  157.8584 H   0  0  0  0  0  0  0  0  0  0  0  0
  147.4591  135.4308  157.5243 H   0  0  0  0  0  0  0  0  0  0  0  0
  148.8798  137.6233  160.2899 H   0  0  0  0  0  0  0  0  0  0  0  0
  147.4590  134.9038  160.0174 H   0  0  0  0  0  0  0  0  0  0  0  0
  148.7177  135.3603  161.2068 H   0  0  0  0  0  0  0  0  0  0  0  0
  146.1007  135.5777  161.8895 H   0  0  0  0  0  0  0  0  0  0  0  0
  147.1568  136.9587  162.2141 H   0  0  0  0  0  0  0  0  0  0  0  0
  145.2605  136.5856  159.8745 H   0  0  0  0  0  0  0  0  0  0  0  0
  145.5697  138.0537  160.8044 H   0  0  0  0  0  0  0  0  0  0  0  0
  150.6512  139.4258  157.4654 H   0  0  0  0  0  0  0  0  0  0  0  0
  151.6543  141.3914  155.5021 H   0  0  0  0  0  0  0  0  0  0  0  0
  152.1324  140.6247  158.8872 H   0  0  0  0  0  0  0  0  0  0  0  0
  152.8689  142.2267  160.6130 H   0  0  0  0  0  0  0  0  0  0  0  0
  152.6638  144.6756  160.2223 H   0  0  0  0  0  0  0  0  0  0  0  0
  151.7068  145.5162  158.0854 H   0  0  0  0  0  0  0  0  0  0  0  0
  150.9674  143.9195  156.3384 H   0  0  0  0  0  0  0  0  0  0  0  0
  148.8333  141.4100  158.0475 H   0  0  0  0  0  0  0  0  0  0  0  0
  146.4810  141.8287  157.4044 H   0  0  0  0  0  0  0  0  0  0  0  0
  145.8698  142.1175  155.0098 H   0  0  0  0  0  0  0  0  0  0  0  0
  147.6282  141.9877  153.2545 H   0  0  0  0  0  0  0  0  0  0  0  0
  149.9882  141.5610  153.8854 H   0  0  0  0  0  0  0  0  0  0  0  0
  1  2  2  0  0  0  0
  2  3  1  0  0  0  0
  2 18  1  0  0  0  0
  3  4  1  0  0  0  0
  3 32  1  0  0  0  0
  3 33  1  0  0  0  0
  4 16  1  0  0  0  0
  4  5  1  0  0  0  0
  5  6  2  0  0  0  0
  5  7  1  0  0  0  0
  7  8  1  0  0  0  0
  7  9  2  0  0  0  0
  9 10  1  0  0  0  0
  9 34  1  0  0  0  0
 10 11  1  0  0  0  0
 10 16  1  0  0  0  0
 11 15  1  0  0  0  0
 11 12  1  0  0  0  0
 11 35  1  0  0  0  0
 12 13  1  0  0  0  0
 12 36  1  0  0  0  0
 12 37  1  0  0  0  0
 13 14  1  0  0  0  0
 13 38  1  0  0  0  0
 13 39  1  0  0  0  0
 14 15  1  0  0  0  0
 14 40  1  0  0  0  0
 14 41  1  0  0  0  0
 16 17  2  0  0  0  0
 18 19  1  0  0  0  0
 18 42  1  0  0  0  0
 19 20  1  0  0  0  0
 19 26  1  0  0  0  0
 19 43  1  0  0  0  0
 20 25  1  0  0  0  0
 20 21  2  0  0  0  0
 21 22  1  0  0  0  0
 21 44  1  0  0  0  0
 22 23  2  0  0  0  0
 22 45  1  0  0  0  0
 23 24  1  0  0  0  0
 23 46  1  0  0  0  0
 24 25  2  0  0  0  0
 24 47  1  0  0  0  0
 25 48  1  0  0  0  0
 26 31  1  0  0  0  0
 26 27  2  0  0  0  0
 27 28  1  0  0  0  0
 27 49  1  0  0  0  0
 28 29  2  0  0  0  0
 28 50  1  0  0  0  0
 29 30  1  0  0  0  0
 29 51  1  0  0  0  0
 30 31  2  0  0  0  0
 30 52  1  0  0  0  0
 31 53  1  0  0  0  0
M  END
> <s_m_source_file>
AV-unprocessed.smi

> <i_m_source_file_index>
27

> <i_lp_mmshare_version>
43012

> <i_f3d_flags>
0

> <s_epik_input>
W2NIXTFbY0hdW2NIXVtjSF1bY0hdYzFbQ0hdKGMyW2NIXVtjSF1bY0hdW2NIXVtjSF0yKVtOSF1DKD1PKVtDSDJdbjNjKD1PKWMoRilbY0hdbihjMz1PKVtDQEBIXTRbQ0gyXVtDSDJdW0NIMl1PNA==

> <s_epik_cmdline>
J2VwaWtfcHl0aG9uJywgJy1waCcsICc3LjAnLCAnLXRuJywgJzgnLCAnLW1hJywgJzIwMCcsICctbWV0YWxfYmluZGluZycsICctaW1hZScsICc8aW5maWxlLm1hZT4nLCAnLW9tYWUnLCAnPG91dGZpbGUubWFlPic=

> <r_lp_tautomer_probability>
1

> <r_epik_Ionization_Penalty>
5.29953e-08

> <r_epik_Ionization_Penalty_Charging>
3.6115e-09

> <r_epik_Ionization_Penalty_Neutral>
4.93838e-08

> <r_epik_State_Penalty>
-0

> <r_epik_Charging_Adjusted_Penalty>
3.6115e-09

> <i_epik_Tot_Q>
0

> <i_epik_Tot_abs_Q>
0

> <r_epik_Metal_State_Penalty>
-0

> <b_epik_Metal_Only>
0

> <s_epik_Chemistry_Notes>
This compound contains an acetal/aminal-like group ( X-CH(R)-Y where X, Y are N, S, or O) that may be acid/base labile, releasing an aldehyde.

> <s_lp_Force_Field>
OPLS_2005

> <r_lp_Energy>
32.38

> <b_lp_Chiralities_Consistent>
1

> <s_lp_Variant>
AV-unprocessed.smi:27-1

> <Gold.Version>
5.8.1

> <Gold.Id.Protein>
6NUR|6NUR_protein|mol2

> <Gold.PLP.Fitness>
55.3049

> <Gold.PLP.PLP>
-51.2561

> <Gold.PLP.part.hbond>
-3.4706

> <Gold.PLP.part.metal>
0.0000

> <Gold.PLP.part.buried>
-7.5810

> <Gold.PLP.part.nonpolar>
-41.7565

> <Gold.PLP.part.repulsive>
0.1882

> <Gold.PLP.ligand.clash>
0.0000

> <Gold.PLP.ligand.torsion>
1.1087

> <Gold.PLP.Chemscore.Hbond>
2.0000

> <Gold.PLP.Chemscore.CHOScore>
0.0000

> <Gold.PLP.Chemscore.Metal>
0.0000

> <Gold.Chemscore.Hbonds>
donor molecule, donor type, donor heavy atom, donor atom, acceptor molecule, acceptor atom, score
      P1  H  7997  8010       L1     1  1.00
      P1  H 10752 10765       L1     6  0.99

> <Gold.PLP.Chemscore.Internal.Correction>
0.2662

> <Gold.Rescore>
     Score         DG    S(hbond)    S(metal)    S(lipo)     H(rot)  DE(clash)    DE(int)     intcor
     20.11     -21.50       1.89        0.00     130.21       2.16       0.06       1.33       ----

> <Gold.Chemscore.Fitness>
20.1131

> <Gold.Chemscore.DG>
-21.4987

> <Gold.Chemscore.ZeroCoef>
-5.4800

> <Gold.Chemscore.Hbond>
1.8935

> <Gold.Chemscore.Metal>
0.0000

> <Gold.Chemscore.Lipo>
130.2130

> <Gold.Chemscore.Internal_Hbond>
0.0000

> <Gold.Chemscore.DEClash>
0.0585

> <Gold.Chemscore.DEInternal>
1.3271

> <Gold.Chemscore.Rot>
2.1642

> <Gold.Chemscore.Internal.Correction>
   9.000000E+99

> <Gold.Chemscore.Hbonds>
donor molecule, donor type, donor heavy atom, donor atom, acceptor molecule, acceptor atom, score
      P1  H  7997  8010       L1     1  0.74
      P1  H 10752 10765       L1     6  0.92

> <Gold.Chemscore.Hbond.Weighted>
-6.3242

> <Gold.Chemscore.Metal.Weighted>
-0.0000

> <Gold.Chemscore.Lipo.Weighted>
-15.2349

> <Gold.Chemscore.Internal_Hbond.Weighted>
0.0000

> <Gold.Chemscore.DEClash.Weighted>
0.0585

> <Gold.Chemscore.DEInternal.Weighted>
1.3271

> <Gold.Chemscore.Rot.Weighted>
5.5404

> <Gold.Chemscore.Internal.Correction.Weighted>
   9.000000E+99

> <Gold.Protein.RotatedTorsions>
[ 6907 6896 6895 6894 ] final   86.57 input  -60.11 | X-H torsion
[ 7974 7965 7964 7962 ] final  114.85 input  175.53 | X-H torsion
[ 8008 7997 7996 7995 ] final   82.96 input   59.86 | X-H torsion
[ 10167 10162 10161 10158 ] final  140.55 input  -65.29 | X-H torsion
[ 10718 10713 10712 10709 ] final   16.93 input   66.30 | X-H torsion
[ 10763 10752 10751 10750 ] final  168.62 input  -60.55 | X-H torsion
[ 11005 11000 10999 10996 ] final   67.69 input  -57.11 | X-H torsion

> <Gold.Protein.ActiveResidues>
 VAL166  LYS551  ARG553  GLY616  TRP617  ASP618  TYR619  PRO620  LYS621  CYS622 
 ASP623  PHE694  ASN695  SER759  ASP760  ASP761  ALA762  ILE779  LEU786  VAL792 
 PHE793  MET794  SER795  GLU796  ALA797  LYS798  CYS799  TRP800  GLU811  SER814 

> <Gold.Protein.RotatedAtoms>
  152.5396  134.2411  159.8861 H   0  0  0  0  0  0  0  0  0  0  0  0  # atno 6907 bound_to 6896
  151.2378  133.4409  159.2614 H   0  0  0  0  0  0  0  0  0  0  0  0  # atno 6908 bound_to 6896
  151.0655  134.9778  159.8338 H   0  0  0  0  0  0  0  0  0  0  0  0  # atno 6909 bound_to 6896
  145.1992  139.2961  143.4327 H   0  0  0  0  0  0  0  0  0  0  0  0  # atno 7974 bound_to 7965
  155.9176  140.3423  155.6147 H   0  0  0  0  0  0  0  0  0  0  0  0  # atno 8008 bound_to 7997
  155.7312  140.0795  157.2306 H   0  0  0  0  0  0  0  0  0  0  0  0  # atno 8009 bound_to 7997
  154.4065  140.1588  156.2498 H   0  0  0  0  0  0  0  0  0  0  0  0  # atno 8010 bound_to 7997
  139.5046  144.6227  151.6012 H   0  0  0  0  0  0  0  0  0  0  0  0  # atno 10167 bound_to 10162
  157.0748  130.6363  149.5813 H   0  0  0  0  0  0  0  0  0  0  0  0  # atno 10718 bound_to 10713
  154.3712  135.2753  155.2265 H   0  0  0  0  0  0  0  0  0  0  0  0  # atno 10763 bound_to 10752
  154.4412  135.5954  153.6134 H   0  0  0  0  0  0  0  0  0  0  0  0  # atno 10764 bound_to 10752
  152.9838  135.6019  154.3944 H   0  0  0  0  0  0  0  0  0  0  0  0  # atno 10765 bound_to 10752
  139.9755  134.6829  156.0362 H   0  0  0  0  0  0  0  0  0  0  0  0  # atno 11005 bound_to 11000
  146.3421  140.2231  142.8592 LP  0  0  0  0  0  0  0  0  0  0  0  0  # atno 17320 bound_to 7965
  144.9964  140.8593  143.5308 LP  0  0  0  0  0  0  0  0  0  0  0  0  # atno 17321 bound_to 7965
  140.5934  143.9738  150.6339 LP  0  0  0  0  0  0  0  0  0  0  0  0  # atno 17342 bound_to 10162
  140.2926  143.3314  152.1047 LP  0  0  0  0  0  0  0  0  0  0  0  0  # atno 17343 bound_to 10162
  155.9940  130.5003  150.7402 LP  0  0  0  0  0  0  0  0  0  0  0  0  # atno 17370 bound_to 10713
  157.4848  131.0905  151.0495 LP  0  0  0  0  0  0  0  0  0  0  0  0  # atno 17371 bound_to 10713
  141.1433  133.6560  156.3792 LP  0  0  0  0  0  0  0  0  0  0  0  0  # atno 17394 bound_to 11000
  140.5203  134.6310  157.5316 LP  0  0  0  0  0  0  0  0  0  0  0  0  # atno 17395 bound_to 11000

$$$$
