AV-unprocessed.smi:1966|AV-procd|sdf|7952|dock9
  -GOLD-   2272010123D 1   1.00000     0.00000
 Structure written by MMmdl.
 53 54  0  0  0  0  0  0  0  0  1 V2000
  151.3581  137.8482  154.8706 C   0  0  0  0  0  0  0  0  0  0  0  0
  152.0688  139.0197  155.5395 C   0  0  0  0  0  0  0  0  0  0  0  0
  152.9616  139.6216  154.9437 O   0  0  0  0  0  0  0  0  0  0  0  0
  151.6602  139.3354  156.7788 N   0  0  0  0  0  0  0  0  0  0  0  0
  152.2078  140.4151  157.6036 C   0  0  2  0  0  0  0  0  0  0  0  0
  152.8112  139.8055  158.8844 C   0  0  0  0  0  0  0  0  0  0  0  0
  153.1673  140.5410  159.8062 O   0  0  0  0  0  0  0  0  0  0  0  0
  152.9038  138.4631  158.9036 N   0  0  0  0  0  0  0  0  0  0  0  0
  153.4454  137.6330  159.9213 C   0  0  0  0  0  0  0  0  0  0  0  0
  153.5783  138.0256  161.2740 C   0  0  0  0  0  0  0  0  0  0  0  0
  154.1545  137.1256  162.1906 C   0  0  0  0  0  0  0  0  0  0  0  0
  154.5871  135.8663  161.7276 C   0  0  0  0  0  0  0  0  0  0  0  0
  155.1612  134.9691  162.6392 N   0  0  0  0  0  0  0  0  0  0  0  0
  155.6211  133.7300  162.0258 C   0  0  0  0  0  0  0  0  0  0  0  0
  156.3656  132.8554  163.0540 C   0  0  1  0  0  0  0  0  0  0  0  0
  157.7760  133.3700  163.3926 C   0  0  0  0  0  0  0  0  0  0  0  0
  155.5617  132.6781  164.2240 O   0  0  0  0  0  0  0  0  0  0  0  0
  155.1233  133.8891  164.8414 C   0  0  2  0  0  0  0  0  0  0  0  0
  154.2658  133.5193  166.0559 C   0  0  0  0  0  0  0  0  0  0  0  0
  154.3405  134.7318  163.8182 C   0  0  0  0  0  0  0  0  0  0  0  0
  154.4762  135.4888  160.4319 N   0  0  0  0  0  0  0  0  0  0  0  0
  153.9243  136.3572  159.5577 C   0  0  0  0  0  0  0  0  0  0  0  0
  151.0598  141.4011  157.9726 C   0  0  0  0  0  0  0  0  0  0  0  0
  150.3075  141.9018  156.7237 C   0  0  0  0  0  0  0  0  0  0  0  0
  151.5478  142.6176  158.7869 C   0  0  0  0  0  0  0  0  0  0  0  0
  151.2052  137.0327  155.5781 H   0  0  0  0  0  0  0  0  0  0  0  0
  151.9460  137.4674  154.0348 H   0  0  0  0  0  0  0  0  0  0  0  0
  150.3864  138.1640  154.4906 H   0  0  0  0  0  0  0  0  0  0  0  0
  150.9257  138.7790  157.1915 H   0  0  0  0  0  0  0  0  0  0  0  0
  152.9777  140.9500  157.0430 H   0  0  0  0  0  0  0  0  0  0  0  0
  152.4818  137.9784  158.1245 H   0  0  0  0  0  0  0  0  0  0  0  0
  153.2662  138.9986  161.6207 H   0  0  0  0  0  0  0  0  0  0  0  0
  154.2658  137.4019  163.2289 H   0  0  0  0  0  0  0  0  0  0  0  0
  154.7608  133.1812  161.6398 H   0  0  0  0  0  0  0  0  0  0  0  0
  156.2667  133.9495  161.1745 H   0  0  0  0  0  0  0  0  0  0  0  0
  156.4892  131.8643  162.6170 H   0  0  0  0  0  0  0  0  0  0  0  0
  158.4048  133.3846  162.5020 H   0  0  0  0  0  0  0  0  0  0  0  0
  158.2597  132.7249  164.1262 H   0  0  0  0  0  0  0  0  0  0  0  0
  157.7622  134.3828  163.7942 H   0  0  0  0  0  0  0  0  0  0  0  0
  155.9859  134.4533  165.1962 H   0  0  0  0  0  0  0  0  0  0  0  0
  153.9079  134.4115  166.5700 H   0  0  0  0  0  0  0  0  0  0  0  0
  154.8391  132.9308  166.7726 H   0  0  0  0  0  0  0  0  0  0  0  0
  153.3966  132.9308  165.7608 H   0  0  0  0  0  0  0  0  0  0  0  0
  154.0475  135.6847  164.2610 H   0  0  0  0  0  0  0  0  0  0  0  0
  153.4247  134.2140  163.5293 H   0  0  0  0  0  0  0  0  0  0  0  0
  153.8596  136.0181  158.5340 H   0  0  0  0  0  0  0  0  0  0  0  0
  150.3326  140.8708  158.5903 H   0  0  0  0  0  0  0  0  0  0  0  0
  150.9819  142.4120  156.0354 H   0  0  0  0  0  0  0  0  0  0  0  0
  149.5188  142.6040  156.9952 H   0  0  0  0  0  0  0  0  0  0  0  0
  149.8305  141.0864  156.1798 H   0  0  0  0  0  0  0  0  0  0  0  0
  152.3184  143.1693  158.2477 H   0  0  0  0  0  0  0  0  0  0  0  0
  151.9590  142.3284  159.7541 H   0  0  0  0  0  0  0  0  0  0  0  0
  150.7283  143.3080  158.9891 H   0  0  0  0  0  0  0  0  0  0  0  0
  1  2  1  0  0  0  0
  1 26  1  0  0  0  0
  1 27  1  0  0  0  0
  1 28  1  0  0  0  0
  2  3  2  0  0  0  0
  2  4  1  0  0  0  0
  4  5  1  0  0  0  0
  4 29  1  0  0  0  0
  5  6  1  0  0  0  0
  5 23  1  0  0  0  0
  5 30  1  0  0  0  0
  6  7  2  0  0  0  0
  6  8  1  0  0  0  0
  8  9  1  0  0  0  0
  8 31  1  0  0  0  0
  9 22  1  0  0  0  0
  9 10  2  0  0  0  0
 10 11  1  0  0  0  0
 10 32  1  0  0  0  0
 11 12  2  0  0  0  0
 11 33  1  0  0  0  0
 12 13  1  0  0  0  0
 12 21  1  0  0  0  0
 13 20  1  0  0  0  0
 13 14  1  0  0  0  0
 14 15  1  0  0  0  0
 14 34  1  0  0  0  0
 14 35  1  0  0  0  0
 15 16  1  0  0  0  0
 15 17  1  0  0  0  0
 15 36  1  0  0  0  0
 16 37  1  0  0  0  0
 16 38  1  0  0  0  0
 16 39  1  0  0  0  0
 17 18  1  0  0  0  0
 18 19  1  0  0  0  0
 18 20  1  0  0  0  0
 18 40  1  0  0  0  0
 19 41  1  0  0  0  0
 19 42  1  0  0  0  0
 19 43  1  0  0  0  0
 20 44  1  0  0  0  0
 20 45  1  0  0  0  0
 21 22  2  0  0  0  0
 22 46  1  0  0  0  0
 23 24  1  0  0  0  0
 23 25  1  0  0  0  0
 23 47  1  0  0  0  0
 24 48  1  0  0  0  0
 24 49  1  0  0  0  0
 24 50  1  0  0  0  0
 25 51  1  0  0  0  0
 25 52  1  0  0  0  0
 25 53  1  0  0  0  0
M  END
> <s_m_source_file>
AV-unprocessed.smi

> <i_m_source_file_index>
1966

> <i_lp_mmshare_version>
43012

> <i_f3d_flags>
0

> <s_epik_input>
W0NIM11DKD1PKVtOSF1bQ0BASF0oW0NIXShbQ0gzXSlbQ0gzXSlDKD1PKVtOSF1jMVtjSF1bY0hdYyhuW2NIXTEpTjJbQ0gyXVtDQEBIXShbQ0gzXSlPW0NAQEhdKFtDSDNdKVtDSDJdMg==

> <s_epik_cmdline>
J2VwaWtfcHl0aG9uJywgJy1waCcsICc3LjAnLCAnLXRuJywgJzgnLCAnLW1hJywgJzIwMCcsICctbWV0YWxfYmluZGluZycsICctaW1hZScsICc8aW5maWxlLm1hZT4nLCAnLW9tYWUnLCAnPG91dGZpbGUubWFlPic=

> <r_lp_tautomer_probability>
1

> <r_epik_Ionization_Penalty>
0.000679699

> <r_epik_Ionization_Penalty_Charging>
0

> <r_epik_Ionization_Penalty_Neutral>
0.000679699

> <r_epik_State_Penalty>
0.000430485

> <r_epik_Charging_Adjusted_Penalty>
0.000430485

> <i_epik_Tot_Q>
0

> <i_epik_Tot_abs_Q>
0

> <r_epik_Metal_State_Penalty>
-0

> <b_epik_Metal_Only>
0

> <s_lp_Force_Field>
OPLS_2005

> <r_lp_Energy>
29.6381

> <b_lp_Chiralities_Consistent>
1

> <s_lp_Variant>
AV-unprocessed.smi:1966-5

> <Gold.Version>
5.8.1

> <Gold.Id.Protein>
6NUR|6NUR_protein|mol2

> <Gold.PLP.Fitness>
37.7970

> <Gold.PLP.PLP>
-32.8405

> <Gold.PLP.part.hbond>
-3.0000

> <Gold.PLP.part.metal>
0.0000

> <Gold.PLP.part.buried>
-3.1469

> <Gold.PLP.part.nonpolar>
-27.5655

> <Gold.PLP.part.repulsive>
0.2094

> <Gold.PLP.ligand.clash>
0.0000

> <Gold.PLP.ligand.torsion>
0.3753

> <Gold.PLP.Chemscore.Hbond>
1.8536

> <Gold.PLP.Chemscore.CHOScore>
0.0000

> <Gold.PLP.Chemscore.Metal>
0.0000

> <Gold.Chemscore.Hbonds>
donor molecule, donor type, donor heavy atom, donor atom, acceptor molecule, acceptor atom, score
      P1  H  6896  6907       L1    21  0.02
      P1  H  7989  7998       L1     3  0.16
      P1  H  7997  8008       L1     3  1.00

> <Gold.PLP.Chemscore.Internal.Correction>
0.1465

> <Gold.Rescore>
     Score         DG    S(hbond)    S(metal)    S(lipo)     H(rot)  DE(clash)    DE(int)     intcor
     11.87     -14.74       1.01        0.00      87.12       1.68       0.12       2.75       ----

> <Gold.Chemscore.Fitness>
11.8728

> <Gold.Chemscore.DG>
-14.7413

> <Gold.Chemscore.ZeroCoef>
-5.4800

> <Gold.Chemscore.Hbond>
1.0055

> <Gold.Chemscore.Metal>
0.0000

> <Gold.Chemscore.Lipo>
87.1221

> <Gold.Chemscore.Internal_Hbond>
0.0000

> <Gold.Chemscore.DEClash>
0.1214

> <Gold.Chemscore.DEInternal>
2.7471

> <Gold.Chemscore.Rot>
1.6759

> <Gold.Chemscore.Internal.Correction>
   9.000000E+99

> <Gold.Chemscore.Hbonds>
donor molecule, donor type, donor heavy atom, donor atom, acceptor molecule, acceptor atom, score
      P1  H  7989  7998       L1     3  0.04
      P1  H  7997  8008       L1     3  0.97

> <Gold.Chemscore.Hbond.Weighted>
-3.3582

> <Gold.Chemscore.Metal.Weighted>
-0.0000

> <Gold.Chemscore.Lipo.Weighted>
-10.1933

> <Gold.Chemscore.Internal_Hbond.Weighted>
0.0000

> <Gold.Chemscore.DEClash.Weighted>
0.1214

> <Gold.Chemscore.DEInternal.Weighted>
2.7471

> <Gold.Chemscore.Rot.Weighted>
4.2902

> <Gold.Chemscore.Internal.Correction.Weighted>
   9.000000E+99

> <Gold.Protein.RotatedTorsions>
[ 6907 6896 6895 6894 ] final   90.36 input  -60.11 | X-H torsion
[ 7974 7965 7964 7962 ] final   52.31 input  175.53 | X-H torsion
[ 8008 7997 7996 7995 ] final  -16.37 input   59.86 | X-H torsion
[ 10167 10162 10161 10158 ] final -174.93 input  -65.29 | X-H torsion
[ 10718 10713 10712 10709 ] final -139.68 input   66.30 | X-H torsion
[ 10763 10752 10751 10750 ] final  -56.62 input  -60.55 | X-H torsion
[ 11005 11000 10999 10996 ] final -163.16 input  -57.11 | X-H torsion

> <Gold.Protein.ActiveResidues>
 VAL166  LYS551  ARG553  GLY616  TRP617  ASP618  TYR619  PRO620  LYS621  CYS622 
 ASP623  PHE694  ASN695  SER759  ASP760  ASP761  ALA762  ILE779  LEU786  VAL792 
 PHE793  MET794  SER795  GLU796  ALA797  LYS798  CYS799  TRP800  GLU811  SER814 

> <Gold.Protein.RotatedAtoms>
  152.5444  134.1824  159.8640 H   0  0  0  0  0  0  0  0  0  0  0  0  # atno 6907 bound_to 6896
  151.1825  133.4709  159.2601 H   0  0  0  0  0  0  0  0  0  0  0  0  # atno 6908 bound_to 6896
  151.1164  135.0067  159.8573 H   0  0  0  0  0  0  0  0  0  0  0  0  # atno 6909 bound_to 6896
  145.9826  139.4258  143.0122 H   0  0  0  0  0  0  0  0  0  0  0  0  # atno 7974 bound_to 7965
  154.5058  140.2171  155.9254 H   0  0  0  0  0  0  0  0  0  0  0  0  # atno 8008 bound_to 7997
  156.1492  140.3165  155.8587 H   0  0  0  0  0  0  0  0  0  0  0  0  # atno 8009 bound_to 7997
  155.3972  140.0482  157.3029 H   0  0  0  0  0  0  0  0  0  0  0  0  # atno 8010 bound_to 7997
  139.5607  144.1876  152.1234 H   0  0  0  0  0  0  0  0  0  0  0  0  # atno 10167 bound_to 10162
  156.3136  130.7495  151.1577 H   0  0  0  0  0  0  0  0  0  0  0  0  # atno 10718 bound_to 10713
  154.2095  135.6397  153.5111 H   0  0  0  0  0  0  0  0  0  0  0  0  # atno 10763 bound_to 10752
  152.9993  135.5470  154.6230 H   0  0  0  0  0  0  0  0  0  0  0  0  # atno 10764 bound_to 10752
  154.5663  135.2913  155.0844 H   0  0  0  0  0  0  0  0  0  0  0  0  # atno 10765 bound_to 10752
  140.6011  134.4946  157.5205 H   0  0  0  0  0  0  0  0  0  0  0  0  # atno 11005 bound_to 11000
  145.7747  140.9882  143.1131 LP  0  0  0  0  0  0  0  0  0  0  0  0  # atno 17320 bound_to 7965
  144.6866  139.9490  143.7477 LP  0  0  0  0  0  0  0  0  0  0  0  0  # atno 17321 bound_to 7965
  140.1389  144.5220  150.6756 LP  0  0  0  0  0  0  0  0  0  0  0  0  # atno 17342 bound_to 10162
  140.6887  143.2364  151.5191 LP  0  0  0  0  0  0  0  0  0  0  0  0  # atno 17343 bound_to 10162
  157.7396  131.0526  150.5218 LP  0  0  0  0  0  0  0  0  0  0  0  0  # atno 17370 bound_to 10713
  156.5361  130.4196  149.6177 LP  0  0  0  0  0  0  0  0  0  0  0  0  # atno 17371 bound_to 10713
  139.9232  134.8108  156.1148 LP  0  0  0  0  0  0  0  0  0  0  0  0  # atno 17394 bound_to 11000
  141.0871  133.6729  156.2460 LP  0  0  0  0  0  0  0  0  0  0  0  0  # atno 17395 bound_to 11000

$$$$
