AV-unprocessed.smi:2152|AV-procd|sdf|8763|dock7
  -GOLD-   2272011543D 1   1.00000     0.00000
 Structure written by MMmdl.
 41 42  0  0  0  0  0  0  0  0  1 V2000
  153.1166  141.9249  159.6508 C   0  0  0  0  0  0  0  0  0  0  0  0
  152.1551  143.1030  159.8849 C   0  0  1  0  0  0  0  0  0  0  0  0
  152.7587  144.4346  159.3913 C   0  0  0  0  0  0  0  0  0  0  0  0
  151.8208  145.6199  159.6704 C   0  0  0  0  0  0  0  0  0  0  0  0
  150.4312  145.3905  159.0577 C   0  0  0  0  0  0  0  0  0  0  0  0
  149.8200  144.0662  159.5465 C   0  0  0  0  0  0  0  0  0  0  0  0
  150.7497  142.8617  159.2794 C   0  0  1  0  0  0  0  0  0  0  0  0
  150.8353  142.5746  157.8473 N   0  0  0  0  0  0  0  0  0  0  0  0
  149.9422  141.8711  157.1355 C   0  0  0  0  0  0  0  0  0  0  0  0
  148.9397  141.3526  157.6284 O   0  0  0  0  0  0  0  0  0  0  0  0
  150.2432  141.7216  155.6387 C   0  0  0  0  0  0  0  0  0  0  0  0
  150.5964  140.3466  155.2631 N   0  0  0  0  0  0  0  0  0  0  0  0
  149.8853  139.7044  154.2654 C   0  0  0  0  0  0  0  0  0  0  0  0
  150.1526  138.4465  153.8520 C   0  0  0  0  0  0  0  0  0  0  0  0
  151.2349  137.6774  154.4527 C   0  0  0  0  0  0  0  0  0  0  0  0
  151.5272  136.5325  154.1043 O   0  0  0  0  0  0  0  0  0  0  0  0
  151.9406  138.3521  155.4749 N   0  0  0  0  0  0  0  0  0  0  0  0
  153.0349  137.6291  156.0883 C   0  0  0  0  0  0  0  0  0  0  0  0
  151.6617  139.6722  155.9001 C   0  0  0  0  0  0  0  0  0  0  0  0
  152.3115  140.2332  156.7858 O   0  0  0  0  0  0  0  0  0  0  0  0
  153.3426  141.7902  158.5928 H   0  0  0  0  0  0  0  0  0  0  0  0
  152.6912  140.9925  160.0230 H   0  0  0  0  0  0  0  0  0  0  0  0
  154.0619  142.0843  160.1700 H   0  0  0  0  0  0  0  0  0  0  0  0
  152.0263  143.1903  160.9650 H   0  0  0  0  0  0  0  0  0  0  0  0
  153.7189  144.6104  159.8775 H   0  0  0  0  0  0  0  0  0  0  0  0
  152.9644  144.3773  158.3218 H   0  0  0  0  0  0  0  0  0  0  0  0
  151.7255  145.7638  160.7473 H   0  0  0  0  0  0  0  0  0  0  0  0
  152.2549  146.5380  159.2735 H   0  0  0  0  0  0  0  0  0  0  0  0
  149.7717  146.2196  159.3152 H   0  0  0  0  0  0  0  0  0  0  0  0
  150.5054  145.3840  157.9693 H   0  0  0  0  0  0  0  0  0  0  0  0
  149.6292  144.1380  160.6180 H   0  0  0  0  0  0  0  0  0  0  0  0
  148.8469  143.9110  159.0791 H   0  0  0  0  0  0  0  0  0  0  0  0
  150.3218  141.9867  159.7725 H   0  0  0  0  0  0  0  0  0  0  0  0
  151.6321  142.9560  157.3584 H   0  0  0  0  0  0  0  0  0  0  0  0
  149.3882  142.0583  155.0491 H   0  0  0  0  0  0  0  0  0  0  0  0
  151.0589  142.4012  155.3884 H   0  0  0  0  0  0  0  0  0  0  0  0
  149.0759  140.2354  153.7856 H   0  0  0  0  0  0  0  0  0  0  0  0
  149.5601  138.0046  153.0643 H   0  0  0  0  0  0  0  0  0  0  0  0
  153.4207  138.1588  156.9587 H   0  0  0  0  0  0  0  0  0  0  0  0
  153.8115  137.5243  155.3290 H   0  0  0  0  0  0  0  0  0  0  0  0
  152.6534  136.6567  156.4054 H   0  0  0  0  0  0  0  0  0  0  0  0
  1  2  1  0  0  0  0
  1 21  1  0  0  0  0
  1 22  1  0  0  0  0
  1 23  1  0  0  0  0
  2  7  1  0  0  0  0
  2  3  1  0  0  0  0
  2 24  1  0  0  0  0
  3  4  1  0  0  0  0
  3 25  1  0  0  0  0
  3 26  1  0  0  0  0
  4  5  1  0  0  0  0
  4 27  1  0  0  0  0
  4 28  1  0  0  0  0
  5  6  1  0  0  0  0
  5 29  1  0  0  0  0
  5 30  1  0  0  0  0
  6  7  1  0  0  0  0
  6 31  1  0  0  0  0
  6 32  1  0  0  0  0
  7  8  1  0  0  0  0
  7 33  1  0  0  0  0
  8  9  1  0  0  0  0
  8 34  1  0  0  0  0
  9 10  2  0  0  0  0
  9 11  1  0  0  0  0
 11 12  1  0  0  0  0
 11 35  1  0  0  0  0
 11 36  1  0  0  0  0
 12 19  1  0  0  0  0
 12 13  1  0  0  0  0
 13 14  2  0  0  0  0
 13 37  1  0  0  0  0
 14 15  1  0  0  0  0
 14 38  1  0  0  0  0
 15 16  2  0  0  0  0
 15 17  1  0  0  0  0
 17 18  1  0  0  0  0
 17 19  1  0  0  0  0
 18 39  1  0  0  0  0
 18 40  1  0  0  0  0
 18 41  1  0  0  0  0
 19 20  2  0  0  0  0
M  END
> <s_m_source_file>
AV-unprocessed.smi

> <i_m_source_file_index>
2152

> <i_lp_mmshare_version>
43012

> <i_f3d_flags>
0

> <s_epik_input>
W0NIM11bQ0BASF0xW0NIMl1bQ0gyXVtDSDJdW0NIMl1bQ0BIXTFbTkhdQyg9TylbQ0gyXW4yW2NIXVtjSF1jKD1PKW4oW0NIM10pYzI9Tw==

> <s_epik_cmdline>
J2VwaWtfcHl0aG9uJywgJy1waCcsICc3LjAnLCAnLXRuJywgJzgnLCAnLW1hJywgJzIwMCcsICctbWV0YWxfYmluZGluZycsICctaW1hZScsICc8aW5maWxlLm1hZT4nLCAnLW9tYWUnLCAnPG91dGZpbGUubWFlPic=

> <r_lp_tautomer_probability>
1

> <r_epik_Ionization_Penalty>
3.20555e-08

> <r_epik_Ionization_Penalty_Charging>
1.30086e-08

> <r_epik_Ionization_Penalty_Neutral>
1.90469e-08

> <r_epik_State_Penalty>
-0

> <r_epik_Charging_Adjusted_Penalty>
1.30086e-08

> <i_epik_Tot_Q>
0

> <i_epik_Tot_abs_Q>
0

> <r_epik_Metal_State_Penalty>
-0

> <b_epik_Metal_Only>
0

> <s_lp_Force_Field>
OPLS_2005

> <r_lp_Energy>
17.5723

> <b_lp_Chiralities_Consistent>
1

> <s_lp_Variant>
AV-unprocessed.smi:2152-2

> <Gold.Version>
5.8.1

> <Gold.Id.Protein>
6NUR|6NUR_protein|mol2

> <Gold.PLP.Fitness>
42.8454

> <Gold.PLP.PLP>
-36.7166

> <Gold.PLP.part.hbond>
-1.9176

> <Gold.PLP.part.metal>
0.0000

> <Gold.PLP.part.buried>
0.2957

> <Gold.PLP.part.nonpolar>
-36.0607

> <Gold.PLP.part.repulsive>
1.3514

> <Gold.PLP.ligand.clash>
0.0000

> <Gold.PLP.ligand.torsion>
0.4239

> <Gold.PLP.Chemscore.Hbond>
2.0000

> <Gold.PLP.Chemscore.CHOScore>
0.3222

> <Gold.PLP.Chemscore.Metal>
0.0000

> <Gold.Chemscore.Hbonds>
donor molecule, donor type, donor heavy atom, donor atom, acceptor molecule, acceptor atom, score
      P1  H  7997  8009       L1    20  0.89
      P1  H 10752 10763       L1    16  1.00
      L1  C    13    37       P1  7957  0.30

> <Gold.PLP.Chemscore.Internal.Correction>
0.0100

> <Gold.Rescore>
     Score         DG    S(hbond)    S(metal)    S(lipo)     H(rot)  DE(clash)    DE(int)     intcor
     16.81     -19.74       1.92        0.00     100.46       1.52       0.34       2.59       ----

> <Gold.Chemscore.Fitness>
16.8087

> <Gold.Chemscore.DG>
-19.7383

> <Gold.Chemscore.ZeroCoef>
-5.4800

> <Gold.Chemscore.Hbond>
1.9180

> <Gold.Chemscore.Metal>
0.0000

> <Gold.Chemscore.Lipo>
100.4616

> <Gold.Chemscore.Internal_Hbond>
0.0000

> <Gold.Chemscore.DEClash>
0.3441

> <Gold.Chemscore.DEInternal>
2.5856

> <Gold.Chemscore.Rot>
1.5242

> <Gold.Chemscore.Internal.Correction>
   9.000000E+99

> <Gold.Chemscore.Hbonds>
donor molecule, donor type, donor heavy atom, donor atom, acceptor molecule, acceptor atom, score
      P1  H  7997  8009       L1    20  0.75
      P1  H 10752 10763       L1    16  1.00

> <Gold.Chemscore.Hbond.Weighted>
-6.4062

> <Gold.Chemscore.Metal.Weighted>
-0.0000

> <Gold.Chemscore.Lipo.Weighted>
-11.7540

> <Gold.Chemscore.Internal_Hbond.Weighted>
0.0000

> <Gold.Chemscore.DEClash.Weighted>
0.3441

> <Gold.Chemscore.DEInternal.Weighted>
2.5856

> <Gold.Chemscore.Rot.Weighted>
3.9019

> <Gold.Chemscore.Internal.Correction.Weighted>
   9.000000E+99

> <Gold.Protein.RotatedTorsions>
[ 6907 6896 6895 6894 ] final   82.26 input  -60.11 | X-H torsion
[ 7974 7965 7964 7962 ] final -149.28 input  175.53 | X-H torsion
[ 8008 7997 7996 7995 ] final  177.93 input   59.86 | X-H torsion
[ 10167 10162 10161 10158 ] final  -45.76 input  -65.29 | X-H torsion
[ 10718 10713 10712 10709 ] final -153.31 input   66.30 | X-H torsion
[ 10763 10752 10751 10750 ] final   32.78 input  -60.55 | X-H torsion
[ 11005 11000 10999 10996 ] final -152.30 input  -57.11 | X-H torsion

> <Gold.Protein.ActiveResidues>
 VAL166  LYS551  ARG553  GLY616  TRP617  ASP618  TYR619  PRO620  LYS621  CYS622 
 ASP623  PHE694  ASN695  SER759  ASP760  ASP761  ALA762  ILE779  LEU786  VAL792 
 PHE793  MET794  SER795  GLU796  ALA797  LYS798  CYS799  TRP800  GLU811  SER814 

> <Gold.Protein.RotatedAtoms>
  152.5294  134.3077  159.9101 H   0  0  0  0  0  0  0  0  0  0  0  0  # atno 6907 bound_to 6896
  151.3027  133.4109  159.2648 H   0  0  0  0  0  0  0  0  0  0  0  0  # atno 6908 bound_to 6896
  151.0105  134.9409  159.8062 H   0  0  0  0  0  0  0  0  0  0  0  0  # atno 6909 bound_to 6896
  144.7977  140.5085  143.5729 H   0  0  0  0  0  0  0  0  0  0  0  0  # atno 7974 bound_to 7965
  156.0602  140.1346  156.9950 H   0  0  0  0  0  0  0  0  0  0  0  0  # atno 8008 bound_to 7997
  154.4478  140.0993  156.6577 H   0  0  0  0  0  0  0  0  0  0  0  0  # atno 8009 bound_to 7997
  155.5389  140.3460  155.4444 H   0  0  0  0  0  0  0  0  0  0  0  0  # atno 8010 bound_to 7997
  140.6845  143.2863  151.3686 H   0  0  0  0  0  0  0  0  0  0  0  0  # atno 10167 bound_to 10162
  156.4841  130.8317  151.2542 H   0  0  0  0  0  0  0  0  0  0  0  0  # atno 10718 bound_to 10713
  153.0245  135.6404  154.1408 H   0  0  0  0  0  0  0  0  0  0  0  0  # atno 10763 bound_to 10752
  154.1139  135.2851  155.3226 H   0  0  0  0  0  0  0  0  0  0  0  0  # atno 10764 bound_to 10752
  154.6312  135.5492  153.7745 H   0  0  0  0  0  0  0  0  0  0  0  0  # atno 10765 bound_to 10752
  140.7204  134.3734  157.5184 H   0  0  0  0  0  0  0  0  0  0  0  0  # atno 11005 bound_to 11000
  145.5631  139.1480  143.3330 LP  0  0  0  0  0  0  0  0  0  0  0  0  # atno 17320 bound_to 7965
  146.2250  140.5767  142.9000 LP  0  0  0  0  0  0  0  0  0  0  0  0  # atno 17321 bound_to 7965
  139.6192  144.0941  152.2375 LP  0  0  0  0  0  0  0  0  0  0  0  0  # atno 17342 bound_to 10162
  140.0380  144.6030  150.7434 LP  0  0  0  0  0  0  0  0  0  0  0  0  # atno 17343 bound_to 10162
  157.7480  131.0035  150.3041 LP  0  0  0  0  0  0  0  0  0  0  0  0  # atno 17370 bound_to 10713
  156.3492  130.3828  149.7343 LP  0  0  0  0  0  0  0  0  0  0  0  0  # atno 17371 bound_to 10713
  139.8849  134.8951  156.2672 LP  0  0  0  0  0  0  0  0  0  0  0  0  # atno 17394 bound_to 11000
  141.0008  133.7152  156.0958 LP  0  0  0  0  0  0  0  0  0  0  0  0  # atno 17395 bound_to 11000

$$$$
