AV-unprocessed.smi:2831|AV-procd|sdf|10909|dock3
  -GOLD-   2272015353D 1   1.00000     0.00000
 Structure written by MMmdl.
 30 31  0  0  0  0  0  0  0  0  1 V2000
  147.0609  133.8859  162.6056 C   0  0  0  0  0  0  0  0  0  0  0  0
  147.3635  135.0308  161.7003 C   0  0  0  0  0  0  0  0  0  0  0  0
  147.1464  136.3041  162.0508 N   0  0  0  0  0  0  0  0  0  0  0  0
  147.5085  137.1946  161.0497 N   0  0  0  0  0  0  0  0  0  0  0  0
  147.9912  136.5639  159.9702 C   0  0  0  0  0  0  0  0  0  0  0  0
  148.4386  137.2321  158.7998 N   0  0  0  0  0  0  0  0  0  0  0  0
  149.4668  136.9073  157.9966 C   0  0  0  0  0  0  0  0  0  0  0  0
  150.2200  135.9474  158.1605 O   0  0  0  0  0  0  0  0  0  0  0  0
  149.5735  137.7731  156.9750 N   0  0  0  0  0  0  0  0  0  0  0  0
  150.5458  137.7382  155.8766 C   0  0  2  0  0  0  0  0  0  0  0  0
  150.4594  136.3973  155.1152 C   0  0  0  0  0  0  0  0  0  0  0  0
  151.9811  138.0385  156.3462 C   0  0  0  0  0  0  0  0  0  0  0  0
  152.3798  139.3145  155.6067 C   0  0  0  0  0  0  0  0  0  0  0  0
  151.5372  139.3211  154.4692 O   0  0  0  0  0  0  0  0  0  0  0  0
  150.2591  138.9094  154.9211 C   0  0  0  0  0  0  0  0  0  0  0  0
  148.0397  134.8133  160.0902 S   0  0  0  0  0  0  0  0  0  0  0  0
  146.1120  134.0494  163.1171 H   0  0  0  0  0  0  0  0  0  0  0  0
  147.8491  133.7824  163.3515 H   0  0  0  0  0  0  0  0  0  0  0  0
  146.9940  132.9590  162.0356 H   0  0  0  0  0  0  0  0  0  0  0  0
  147.9049  138.0475  158.5370 H   0  0  0  0  0  0  0  0  0  0  0  0
  148.9050  138.5288  156.9424 H   0  0  0  0  0  0  0  0  0  0  0  0
  151.1093  136.4007  154.2393 H   0  0  0  0  0  0  0  0  0  0  0  0
  149.4439  136.2040  154.7676 H   0  0  0  0  0  0  0  0  0  0  0  0
  150.7610  135.5547  155.7374 H   0  0  0  0  0  0  0  0  0  0  0  0
  152.0753  138.1762  157.4239 H   0  0  0  0  0  0  0  0  0  0  0  0
  152.6540  137.2256  156.0698 H   0  0  0  0  0  0  0  0  0  0  0  0
  152.1738  140.1963  156.2158 H   0  0  0  0  0  0  0  0  0  0  0  0
  153.4337  139.3288  155.3279 H   0  0  0  0  0  0  0  0  0  0  0  0
  149.6116  138.6366  154.0869 H   0  0  0  0  0  0  0  0  0  0  0  0
  149.7915  139.7479  155.4415 H   0  0  0  0  0  0  0  0  0  0  0  0
  1  2  1  0  0  0  0
  1 17  1  0  0  0  0
  1 18  1  0  0  0  0
  1 19  1  0  0  0  0
  2 16  1  0  0  0  0
  2  3  2  0  0  0  0
  3  4  1  0  0  0  0
  4  5  2  0  0  0  0
  5  6  1  0  0  0  0
  5 16  1  0  0  0  0
  6  7  1  0  0  0  0
  6 20  1  0  0  0  0
  7  8  2  0  0  0  0
  7  9  1  0  0  0  0
  9 10  1  0  0  0  0
  9 21  1  0  0  0  0
 10 15  1  0  0  0  0
 10 11  1  0  0  0  0
 10 12  1  0  0  0  0
 11 22  1  0  0  0  0
 11 23  1  0  0  0  0
 11 24  1  0  0  0  0
 12 13  1  0  0  0  0
 12 25  1  0  0  0  0
 12 26  1  0  0  0  0
 13 14  1  0  0  0  0
 13 27  1  0  0  0  0
 13 28  1  0  0  0  0
 14 15  1  0  0  0  0
 15 29  1  0  0  0  0
 15 30  1  0  0  0  0
M  END
> <s_m_source_file>
AV-unprocessed.smi

> <i_m_source_file_index>
2831

> <i_lp_mmshare_version>
43012

> <i_f3d_flags>
0

> <s_epik_input>
W0NIM11jMW5uYyhzMSlbTkhdQyg9TylbTkhdW0NAQF0yKFtDSDNdKVtDSDJdW0NIMl1PW0NIMl0y

> <s_epik_cmdline>
J2VwaWtfcHl0aG9uJywgJy1waCcsICc3LjAnLCAnLXRuJywgJzgnLCAnLW1hJywgJzIwMCcsICctbWV0YWxfYmluZGluZycsICctaW1hZScsICc8aW5maWxlLm1hZT4nLCAnLW9tYWUnLCAnPG91dGZpbGUubWFlPic=

> <r_lp_tautomer_probability>
1

> <r_epik_Ionization_Penalty>
0.00277018

> <r_epik_Ionization_Penalty_Charging>
0

> <r_epik_Ionization_Penalty_Neutral>
0.00277018

> <r_epik_State_Penalty>
-0

> <r_epik_Charging_Adjusted_Penalty>
0

> <i_epik_Tot_Q>
0

> <i_epik_Tot_abs_Q>
0

> <r_epik_Metal_State_Penalty>
0.356997

> <b_epik_Metal_Only>
0

> <s_lp_Force_Field>
OPLS_2005

> <r_lp_Energy>
14.9894

> <b_lp_Chiralities_Consistent>
1

> <s_lp_Variant>
AV-unprocessed.smi:2831-2

> <Gold.Version>
5.8.1

> <Gold.Id.Protein>
6NUR|6NUR_protein|mol2

> <Gold.PLP.Fitness>
34.3037

> <Gold.PLP.PLP>
-23.6772

> <Gold.PLP.part.hbond>
-4.0000

> <Gold.PLP.part.metal>
0.0000

> <Gold.PLP.part.buried>
-3.2917

> <Gold.PLP.part.nonpolar>
-17.0488

> <Gold.PLP.part.repulsive>
0.2786

> <Gold.PLP.ligand.clash>
0.0000

> <Gold.PLP.ligand.torsion>
0.3059

> <Gold.PLP.Chemscore.Hbond>
3.7360

> <Gold.PLP.Chemscore.CHOScore>
0.0000

> <Gold.PLP.Chemscore.Metal>
0.0000

> <Gold.Chemscore.Hbonds>
donor molecule, donor type, donor heavy atom, donor atom, acceptor molecule, acceptor atom, score
      P1  H  6896  6907       L1     8  0.88
      P1  H  6931  6943       L1     4  0.84
      P1  H  6934  6947       L1     4  0.98
      P1  H  7989  7998       L1    14  1.00

> <Gold.PLP.Chemscore.Internal.Correction>
0.0303

> <Gold.Rescore>
     Score         DG    S(hbond)    S(metal)    S(lipo)     H(rot)  DE(clash)    DE(int)     intcor
     18.75     -19.05       3.07        0.00      50.21       1.00       0.00       0.29       ----

> <Gold.Chemscore.Fitness>
18.7529

> <Gold.Chemscore.DG>
-19.0466

> <Gold.Chemscore.ZeroCoef>
-5.4800

> <Gold.Chemscore.Hbond>
3.0694

> <Gold.Chemscore.Metal>
0.0000

> <Gold.Chemscore.Lipo>
50.2135

> <Gold.Chemscore.Internal_Hbond>
0.0000

> <Gold.Chemscore.DEClash>
0.0009

> <Gold.Chemscore.DEInternal>
0.2929

> <Gold.Chemscore.Rot>
1.0000

> <Gold.Chemscore.Internal.Correction>
   9.000000E+99

> <Gold.Chemscore.Hbonds>
donor molecule, donor type, donor heavy atom, donor atom, acceptor molecule, acceptor atom, score
      P1  H  6896  6907       L1     8  0.85
      P1  H  6931  6943       L1     4  0.20
      P1  H  6934  6947       L1     4  0.89
      P1  H  7989  7998       L1    14  0.83

> <Gold.Chemscore.Hbond.Weighted>
-10.2516

> <Gold.Chemscore.Metal.Weighted>
-0.0000

> <Gold.Chemscore.Lipo.Weighted>
-5.8750

> <Gold.Chemscore.Internal_Hbond.Weighted>
0.0000

> <Gold.Chemscore.DEClash.Weighted>
0.0009

> <Gold.Chemscore.DEInternal.Weighted>
0.2929

> <Gold.Chemscore.Rot.Weighted>
2.5600

> <Gold.Chemscore.Internal.Correction.Weighted>
   9.000000E+99

> <Gold.Protein.RotatedTorsions>
[ 6907 6896 6895 6894 ] final  -57.55 input  -60.11 | X-H torsion
[ 7974 7965 7964 7962 ] final  165.87 input  175.53 | X-H torsion
[ 8008 7997 7996 7995 ] final -154.73 input   59.86 | X-H torsion
[ 10167 10162 10161 10158 ] final   66.24 input  -65.29 | X-H torsion
[ 10718 10713 10712 10709 ] final   15.27 input   66.30 | X-H torsion
[ 10763 10752 10751 10750 ] final  -98.57 input  -60.55 | X-H torsion
[ 11005 11000 10999 10996 ] final  -11.81 input  -57.11 | X-H torsion

> <Gold.Protein.ActiveResidues>
 VAL166  LYS551  ARG553  GLY616  TRP617  ASP618  TYR619  PRO620  LYS621  CYS622 
 ASP623  PHE694  ASN695  SER759  ASP760  ASP761  ALA762  ILE779  LEU786  VAL792 
 PHE793  MET794  SER795  GLU796  ALA797  LYS798  CYS799  TRP800  GLU811  SER814 

> <Gold.Protein.RotatedAtoms>
  150.8077  134.7213  159.6659 H   0  0  0  0  0  0  0  0  0  0  0  0  # atno 6907 bound_to 6896
  152.4197  134.5974  160.0000 H   0  0  0  0  0  0  0  0  0  0  0  0  # atno 6908 bound_to 6896
  151.6193  133.3303  159.3120 H   0  0  0  0  0  0  0  0  0  0  0  0  # atno 6909 bound_to 6896
  144.7485  139.8533  143.6374 H   0  0  0  0  0  0  0  0  0  0  0  0  # atno 7974 bound_to 7965
  155.6909  140.0755  157.2448 H   0  0  0  0  0  0  0  0  0  0  0  0  # atno 8008 bound_to 7997
  154.4089  140.1665  156.2138 H   0  0  0  0  0  0  0  0  0  0  0  0  # atno 8009 bound_to 7997
  155.9453  140.3381  155.6364 H   0  0  0  0  0  0  0  0  0  0  0  0  # atno 8010 bound_to 7997
  140.1026  144.4890  150.7028 H   0  0  0  0  0  0  0  0  0  0  0  0  # atno 10167 bound_to 10162
  157.0511  130.6270  149.5768 H   0  0  0  0  0  0  0  0  0  0  0  0  # atno 10718 bound_to 10713
  154.7426  135.5004  153.9148 H   0  0  0  0  0  0  0  0  0  0  0  0  # atno 10763 bound_to 10752
  153.1058  135.6697  153.9597 H   0  0  0  0  0  0  0  0  0  0  0  0  # atno 10764 bound_to 10752
  153.9370  135.3072  155.3423 H   0  0  0  0  0  0  0  0  0  0  0  0  # atno 10765 bound_to 10752
  140.7591  133.8529  155.9110 H   0  0  0  0  0  0  0  0  0  0  0  0  # atno 11005 bound_to 11000
  146.1400  139.4455  143.0115 LP  0  0  0  0  0  0  0  0  0  0  0  0  # atno 17320 bound_to 7965
  145.7033  141.0129  143.1493 LP  0  0  0  0  0  0  0  0  0  0  0  0  # atno 17321 bound_to 7965
  140.6969  143.2410  151.4974 LP  0  0  0  0  0  0  0  0  0  0  0  0  # atno 17342 bound_to 10162
  139.5663  144.2035  152.1769 LP  0  0  0  0  0  0  0  0  0  0  0  0  # atno 17343 bound_to 10162
  156.0007  130.5086  150.7653 LP  0  0  0  0  0  0  0  0  0  0  0  0  # atno 17370 bound_to 10713
  157.5029  131.0920  151.0292 LP  0  0  0  0  0  0  0  0  0  0  0  0  # atno 17371 bound_to 10713
  140.9679  134.1569  157.4600 LP  0  0  0  0  0  0  0  0  0  0  0  0  # atno 17394 bound_to 11000
  139.8774  134.9968  156.5815 LP  0  0  0  0  0  0  0  0  0  0  0  0  # atno 17395 bound_to 11000

$$$$
