AV-unprocessed.smi:53|AV-procd|sdf|521|dock3
  -GOLD-   2262016393D 1   1.00000     0.00000
 Structure written by MMmdl.
 30 31  0  0  0  0  0  0  0  0  1 V2000
  154.1569  139.7574  160.0253 N   0  0  0  0  0  0  0  0  0  0  0  0
  153.6099  139.4705  158.8357 C   0  0  0  0  0  0  0  0  0  0  0  0
  152.8085  140.4547  158.1439 C   0  0  0  0  0  0  0  0  0  0  0  0
  152.2952  140.0922  156.9478 C   0  0  0  0  0  0  0  0  0  0  0  0
  152.5295  138.8422  156.3912 N   0  0  0  0  0  0  0  0  0  0  0  0
  151.9372  138.4537  155.0555 C   0  0  2  0  0  0  0  0  0  0  0  0
  151.1550  139.5114  154.5827 O   0  0  0  0  0  0  0  0  0  0  0  0
  149.8867  139.0288  154.1511 C   0  0  2  0  0  0  0  0  0  0  0  0
  148.8385  140.1444  154.2790 C   0  0  0  0  0  0  0  0  0  0  0  0
  148.8565  140.9582  153.1260 O   0  0  0  0  0  0  0  0  0  0  0  0
  149.6432  137.8480  155.0913 C   0  0  1  0  0  0  0  0  0  0  0  0
  148.6622  136.9471  154.6132 O   0  0  0  0  0  0  0  0  0  0  0  0
  151.0284  137.2237  155.2140 C   0  0  1  0  0  0  0  0  0  0  0  0
  151.2904  136.2650  154.2050 O   0  0  0  0  0  0  0  0  0  0  0  0
  153.2969  137.8905  157.1043 C   0  0  0  0  0  0  0  0  0  0  0  0
  153.4907  136.7559  156.6694 O   0  0  0  0  0  0  0  0  0  0  0  0
  153.8116  138.2762  158.3130 N   0  0  0  0  0  0  0  0  0  0  0  0
  152.7745  138.3089  154.3697 H   0  0  0  0  0  0  0  0  0  0  0  0
  149.9661  138.6700  153.1228 H   0  0  0  0  0  0  0  0  0  0  0  0
  149.3342  138.2188  156.0697 H   0  0  0  0  0  0  0  0  0  0  0  0
  151.1705  136.7478  156.1855 H   0  0  0  0  0  0  0  0  0  0  0  0
  154.7130  139.0669  160.5081 H   0  0  0  0  0  0  0  0  0  0  0  0
  154.0066  140.6661  160.4395 H   0  0  0  0  0  0  0  0  0  0  0  0
  152.6096  141.4418  158.5364 H   0  0  0  0  0  0  0  0  0  0  0  0
  151.6844  140.8136  156.4250 H   0  0  0  0  0  0  0  0  0  0  0  0
  147.8398  139.7147  154.3604 H   0  0  0  0  0  0  0  0  0  0  0  0
  149.0056  140.7473  155.1721 H   0  0  0  0  0  0  0  0  0  0  0  0
  147.9893  141.3105  152.9952 H   0  0  0  0  0  0  0  0  0  0  0  0
  148.8569  136.7428  153.7113 H   0  0  0  0  0  0  0  0  0  0  0  0
  150.6673  136.3893  153.5051 H   0  0  0  0  0  0  0  0  0  0  0  0
  1  2  1  0  0  0  0
  1 22  1  0  0  0  0
  1 23  1  0  0  0  0
  2 17  2  0  0  0  0
  2  3  1  0  0  0  0
  3  4  2  0  0  0  0
  3 24  1  0  0  0  0
  4  5  1  0  0  0  0
  4 25  1  0  0  0  0
  5  6  1  0  0  0  0
  5 15  1  0  0  0  0
  6 18  1  0  0  0  0
  6 13  1  0  0  0  0
  6  7  1  0  0  0  0
  7  8  1  0  0  0  0
  8 19  1  0  0  0  0
  8  9  1  0  0  0  0
  8 11  1  0  0  0  0
  9 10  1  0  0  0  0
  9 26  1  0  0  0  0
  9 27  1  0  0  0  0
 10 28  1  0  0  0  0
 11 20  1  0  0  0  0
 11 12  1  0  0  0  0
 11 13  1  0  0  0  0
 12 29  1  0  0  0  0
 13 21  1  0  0  0  0
 13 14  1  0  0  0  0
 14 30  1  0  0  0  0
 15 16  2  0  0  0  0
 15 17  1  0  0  0  0
M  END
> <s_m_source_file>
AV-unprocessed.smi

> <i_m_source_file_index>
53

> <i_lp_mmshare_version>
43012

> <i_f3d_flags>
0

> <s_epik_input>
W05IMl1jMVtjSF1bY0hdbihjKD1PKW4xKVtDQEBIXTJPW0NASF0oW0NIMl1bT0hdKVtDQEBIXShbT0hdKVtDQEBIXTJbT0hd

> <s_epik_cmdline>
J2VwaWtfcHl0aG9uJywgJy1waCcsICc3LjAnLCAnLXRuJywgJzgnLCAnLW1hJywgJzIwMCcsICctbWV0YWxfYmluZGluZycsICctaW1hZScsICc8aW5maWxlLm1hZT4nLCAnLW9tYWUnLCAnPG91dGZpbGUubWFlPic=

> <r_lp_tautomer_probability>
0.99996

> <r_epik_Ionization_Penalty>
0.00069087

> <r_epik_Ionization_Penalty_Charging>
2.61959e-08

> <r_epik_Ionization_Penalty_Neutral>
0.000690844

> <r_epik_State_Penalty>
1.15523e-05

> <r_epik_Charging_Adjusted_Penalty>
1.15785e-05

> <i_epik_Tot_Q>
0

> <i_epik_Tot_abs_Q>
0

> <r_epik_Metal_State_Penalty>
-0

> <b_epik_Metal_Only>
0

> <s_epik_Chemistry_Notes>
This compound contains an acetal/aminal-like group ( X-CH(R)-Y where X, Y are N, S, or O) that may be acid/base labile, releasing an aldehyde.

> <s_lp_Force_Field>
OPLS_2005

> <r_lp_Energy>
32.5025

> <b_lp_Chiralities_Consistent>
1

> <s_lp_Variant>
AV-unprocessed.smi:53-9

> <Gold.Version>
5.8.1

> <Gold.Id.Protein>
6NUR|6NUR_protein|mol2

> <Gold.PLP.Fitness>
41.2636

> <Gold.PLP.PLP>
-25.8835

> <Gold.PLP.part.hbond>
-7.1633

> <Gold.PLP.part.metal>
0.0000

> <Gold.PLP.part.buried>
-4.1162

> <Gold.PLP.part.nonpolar>
-16.6149

> <Gold.PLP.part.repulsive>
0.1095

> <Gold.PLP.ligand.clash>
0.0000

> <Gold.PLP.ligand.torsion>
0.2386

> <Gold.PLP.Chemscore.Hbond>
5.2800

> <Gold.PLP.Chemscore.CHOScore>
0.0000

> <Gold.PLP.Chemscore.Metal>
0.0000

> <Gold.Chemscore.Hbonds>
donor molecule, donor type, donor heavy atom, donor atom, acceptor molecule, acceptor atom, score
      L1  H    12    29       P1  7948  1.00
      L1  H    14    30       P1  7949  0.19
      P1  H  7989  7998       L1     7  1.00
      P1  H  8011  8017       L1    10  0.80
      P1  H 10752 10763       L1    14  0.80
      P1  H 10752 10764       L1    16  0.82

> <Gold.PLP.Chemscore.Internal.Correction>
0.0173

> <Gold.Rescore>
     Score         DG    S(hbond)    S(metal)    S(lipo)     H(rot)  DE(clash)    DE(int)     intcor
     11.35     -12.88       3.81        0.00      35.75       3.71       0.06       1.47       ----

> <Gold.Chemscore.Fitness>
11.3482

> <Gold.Chemscore.DG>
-12.8774

> <Gold.Chemscore.ZeroCoef>
-5.4800

> <Gold.Chemscore.Hbond>
3.8056

> <Gold.Chemscore.Metal>
0.0000

> <Gold.Chemscore.Lipo>
35.7529

> <Gold.Chemscore.Internal_Hbond>
0.0000

> <Gold.Chemscore.DEClash>
0.0638

> <Gold.Chemscore.DEInternal>
1.4653

> <Gold.Chemscore.Rot>
3.7095

> <Gold.Chemscore.Internal.Correction>
   9.000000E+99

> <Gold.Chemscore.Hbonds>
donor molecule, donor type, donor heavy atom, donor atom, acceptor molecule, acceptor atom, score
      L1  H    12    29       P1  7948  1.00
      L1  H    14    30       P1  7949  0.01
      P1  H  7989  7998       L1     7  0.65
      P1  H  8011  8017       L1    10  0.12
      P1  H 10752 10763       L1    14  0.76
      P1  H 10752 10764       L1    16  0.81

> <Gold.Chemscore.Hbond.Weighted>
-12.7107

> <Gold.Chemscore.Metal.Weighted>
-0.0000

> <Gold.Chemscore.Lipo.Weighted>
-4.1831

> <Gold.Chemscore.Internal_Hbond.Weighted>
0.0000

> <Gold.Chemscore.DEClash.Weighted>
0.0638

> <Gold.Chemscore.DEInternal.Weighted>
1.4653

> <Gold.Chemscore.Rot.Weighted>
9.4964

> <Gold.Chemscore.Internal.Correction.Weighted>
   9.000000E+99

> <Gold.Protein.RotatedTorsions>
[ 6907 6896 6895 6894 ] final   10.76 input  -60.11 | X-H torsion
[ 7974 7965 7964 7962 ] final   58.50 input  175.53 | X-H torsion
[ 8008 7997 7996 7995 ] final   14.65 input   59.86 | X-H torsion
[ 10167 10162 10161 10158 ] final  -43.05 input  -65.29 | X-H torsion
[ 10718 10713 10712 10709 ] final  128.95 input   66.30 | X-H torsion
[ 10763 10752 10751 10750 ] final   15.36 input  -60.55 | X-H torsion
[ 11005 11000 10999 10996 ] final -148.47 input  -57.11 | X-H torsion

> <Gold.Protein.ActiveResidues>
 VAL166  LYS551  ARG553  GLY616  TRP617  ASP618  TYR619  PRO620  LYS621  CYS622 
 ASP623  PHE694  ASN695  SER759  ASP760  ASP761  ALA762  ILE779  LEU786  VAL792 
 PHE793  MET794  SER795  GLU796  ALA797  LYS798  CYS799  TRP800  GLU811  SER814 

> <Gold.Protein.RotatedAtoms>
  151.7434  135.0849  160.0319 H   0  0  0  0  0  0  0  0  0  0  0  0  # atno 6907 bound_to 6896
  152.3465  133.6123  159.5922 H   0  0  0  0  0  0  0  0  0  0  0  0  # atno 6908 bound_to 6896
  150.7512  133.9558  159.3541 H   0  0  0  0  0  0  0  0  0  0  0  0  # atno 6909 bound_to 6896
  145.9174  139.3702  143.0499 H   0  0  0  0  0  0  0  0  0  0  0  0  # atno 7974 bound_to 7965
  154.8515  140.2930  155.5595 H   0  0  0  0  0  0  0  0  0  0  0  0  # atno 8008 bound_to 7997
  156.3016  140.2495  156.3407 H   0  0  0  0  0  0  0  0  0  0  0  0  # atno 8009 bound_to 7997
  154.9016  140.0391  157.1885 H   0  0  0  0  0  0  0  0  0  0  0  0  # atno 8010 bound_to 7997
  140.6947  143.3004  151.3297 H   0  0  0  0  0  0  0  0  0  0  0  0  # atno 10167 bound_to 10162
  157.5198  131.1098  150.9170 H   0  0  0  0  0  0  0  0  0  0  0  0  # atno 10718 bound_to 10713
  153.1532  135.6782  153.8850 H   0  0  0  0  0  0  0  0  0  0  0  0  # atno 10763 bound_to 10752
  153.8270  135.3122  155.3416 H   0  0  0  0  0  0  0  0  0  0  0  0  # atno 10764 bound_to 10752
  154.7878  135.4852  154.0072 H   0  0  0  0  0  0  0  0  0  0  0  0  # atno 10765 bound_to 10752
  140.7609  134.3299  157.5102 H   0  0  0  0  0  0  0  0  0  0  0  0  # atno 11005 bound_to 11000
  145.8593  140.9484  143.0708 LP  0  0  0  0  0  0  0  0  0  0  0  0  # atno 17320 bound_to 7965
  144.6749  140.0510  143.7478 LP  0  0  0  0  0  0  0  0  0  0  0  0  # atno 17321 bound_to 7965
  139.6389  144.0576  152.2539 LP  0  0  0  0  0  0  0  0  0  0  0  0  # atno 17342 bound_to 10162
  140.0075  144.6248  150.7675 LP  0  0  0  0  0  0  0  0  0  0  0  0  # atno 17343 bound_to 10162
  156.9785  130.5518  149.5295 LP  0  0  0  0  0  0  0  0  0  0  0  0  # atno 17370 bound_to 10713
  156.0345  130.5434  150.8620 LP  0  0  0  0  0  0  0  0  0  0  0  0  # atno 17371 bound_to 10713
  139.8771  134.9201  156.3244 LP  0  0  0  0  0  0  0  0  0  0  0  0  # atno 17394 bound_to 11000
  140.9664  133.7355  156.0472 LP  0  0  0  0  0  0  0  0  0  0  0  0  # atno 17395 bound_to 11000

$$$$
