AV-unprocessed.smi:1076|AV-procd|sdf|4698|dock4
  -GOLD-   22720 3223D 1   1.00000     0.00000
 Structure written by MMmdl.
 45 46  0  0  0  0  0  0  0  0  2 V2000
  145.8045  132.9705  150.4419 C   0  0  0  0  0  0  0  0  0  0  0  0
  145.0382  134.0675  151.1231 C   0  0  0  0  0  0  0  0  0  0  0  0
  143.6373  134.1306  151.3700 C   0  0  0  0  0  0  0  0  0  0  0  0
  143.2761  135.2372  151.9989 N   0  0  0  0  0  0  0  0  0  0  0  0
  144.4292  135.9181  152.1724 N   0  0  0  0  0  0  0  0  0  0  0  0
  144.4133  137.2008  152.8527 C   0  0  0  0  0  0  0  0  0  0  0  0
  145.7902  137.8971  152.8482 C   0  0  1  0  0  0  0  0  0  0  0  0
  146.2737  138.1421  151.4128 C   0  0  0  0  0  0  0  0  0  0  0  0
  145.7360  139.1856  153.5741 N   0  3  0  0  0  0  0  0  0  0  0  0
  146.9780  139.9892  153.5179 C   0  0  0  0  0  0  0  0  0  0  0  0
  148.2290  139.1444  153.8300 C   0  0  0  0  0  0  0  0  0  0  0  0
  149.4700  139.9536  154.2524 C   0  0  0  0  0  0  0  0  0  0  0  0
  149.5854  141.1166  153.8621 O   0  0  0  0  0  0  0  0  0  0  0  0
  150.3934  139.3668  155.0510 N   0  0  0  0  0  0  0  0  0  0  0  0
  150.3420  137.9531  155.4330 C   0  0  0  0  0  0  0  0  0  0  0  0
  151.5479  137.2393  154.7946 C   0  0  0  0  0  0  0  0  0  0  0  0
  152.7580  137.8644  155.2170 O   0  0  0  0  0  0  0  0  0  0  0  0
  152.8189  139.2515  154.8921 C   0  0  0  0  0  0  0  0  0  0  0  0
  151.6304  139.9835  155.5398 C   0  0  0  0  0  0  0  0  0  0  0  0
  145.5083  135.2360  151.6524 C   0  0  0  0  0  0  0  0  0  0  0  0
  145.1823  132.4210  149.7353 H   0  0  0  0  0  0  0  0  0  0  0  0
  146.1922  132.2470  151.1592 H   0  0  0  0  0  0  0  0  0  0  0  0
  146.6564  133.3592  149.8836 H   0  0  0  0  0  0  0  0  0  0  0  0
  142.8767  133.4076  151.1140 H   0  0  0  0  0  0  0  0  0  0  0  0
  143.6748  137.8323  152.3571 H   0  0  0  0  0  0  0  0  0  0  0  0
  144.0585  137.0556  153.8745 H   0  0  0  0  0  0  0  0  0  0  0  0
  146.5191  137.2420  153.3290 H   0  0  0  0  0  0  0  0  0  0  0  0
  146.3427  137.2073  150.8556 H   0  0  0  0  0  0  0  0  0  0  0  0
  147.2626  138.6018  151.4052 H   0  0  0  0  0  0  0  0  0  0  0  0
  145.5953  138.8025  150.8711 H   0  0  0  0  0  0  0  0  0  0  0  0
  144.9945  139.7441  153.1749 H   0  0  0  0  0  0  0  0  0  0  0  0
  147.0837  140.4196  152.5218 H   0  0  0  0  0  0  0  0  0  0  0  0
  146.8997  140.8283  154.2111 H   0  0  0  0  0  0  0  0  0  0  0  0
  147.9796  138.4324  154.6180 H   0  0  0  0  0  0  0  0  0  0  0  0
  148.4879  138.5627  152.9445 H   0  0  0  0  0  0  0  0  0  0  0  0
  150.3847  137.8677  156.5197 H   0  0  0  0  0  0  0  0  0  0  0  0
  149.4178  137.4614  155.1269 H   0  0  0  0  0  0  0  0  0  0  0  0
  151.5689  136.1912  155.0936 H   0  0  0  0  0  0  0  0  0  0  0  0
  151.4794  137.2601  153.7057 H   0  0  0  0  0  0  0  0  0  0  0  0
  153.7604  139.6598  155.2598 H   0  0  0  0  0  0  0  0  0  0  0  0
  152.8137  139.3826  153.8089 H   0  0  0  0  0  0  0  0  0  0  0  0
  151.6998  141.0523  155.3445 H   0  0  0  0  0  0  0  0  0  0  0  0
  151.6770  139.8805  156.6250 H   0  0  0  0  0  0  0  0  0  0  0  0
  146.5117  135.6328  151.7041 H   0  0  0  0  0  0  0  0  0  0  0  0
  145.5099  138.9954  154.5402 H   0  0  0  0  0  0  0  0  0  0  0  0
  1  2  1  0  0  0  0
  1 21  1  0  0  0  0
  1 22  1  0  0  0  0
  1 23  1  0  0  0  0
  2 20  2  0  0  0  0
  2  3  1  0  0  0  0
  3  4  2  0  0  0  0
  3 24  1  0  0  0  0
  4  5  1  0  0  0  0
  5  6  1  0  0  0  0
  5 20  1  0  0  0  0
  6  7  1  0  0  0  0
  6 25  1  0  0  0  0
  6 26  1  0  0  0  0
  7  8  1  0  0  0  0
  7  9  1  0  0  0  0
  7 27  1  0  0  0  0
  8 28  1  0  0  0  0
  8 29  1  0  0  0  0
  8 30  1  0  0  0  0
  9 10  1  0  0  0  0
  9 31  1  0  0  0  0
  9 45  1  0  0  0  0
 10 11  1  0  0  0  0
 10 32  1  0  0  0  0
 10 33  1  0  0  0  0
 11 12  1  0  0  0  0
 11 34  1  0  0  0  0
 11 35  1  0  0  0  0
 12 13  2  0  0  0  0
 12 14  1  0  0  0  0
 14 19  1  0  0  0  0
 14 15  1  0  0  0  0
 15 16  1  0  0  0  0
 15 36  1  0  0  0  0
 15 37  1  0  0  0  0
 16 17  1  0  0  0  0
 16 38  1  0  0  0  0
 16 39  1  0  0  0  0
 17 18  1  0  0  0  0
 18 19  1  0  0  0  0
 18 40  1  0  0  0  0
 18 41  1  0  0  0  0
 19 42  1  0  0  0  0
 19 43  1  0  0  0  0
 20 44  1  0  0  0  0
M  CHG  1   9   1
M  END
> <s_m_source_file>
AV-unprocessed.smi

> <i_m_source_file_index>
1076

> <i_lp_mmshare_version>
43012

> <i_f3d_flags>
0

> <s_epik_input>
W0NIM11jMVtjSF1ubihbY0hdMSlbQ0gyXVtDQEhdKFtDSDNdKVtOSF1bQ0gyXVtDSDJdQyg9TylOMltDSDJdW0NIMl1PW0NIMl1bQ0gyXTI=

> <s_epik_cmdline>
J2VwaWtfcHl0aG9uJywgJy1waCcsICc3LjAnLCAnLXRuJywgJzgnLCAnLW1hJywgJzIwMCcsICctbWV0YWxfYmluZGluZycsICctaW1hZScsICc8aW5maWxlLm1hZT4nLCAnLW9tYWUnLCAnPG91dGZpbGUubWFlPic=

> <r_lp_tautomer_probability>
1

> <r_epik_Ionization_Penalty>
0.00797518

> <r_epik_Ionization_Penalty_Charging>
0.0079672

> <r_epik_Ionization_Penalty_Neutral>
7.97619e-06

> <r_epik_State_Penalty>
0.00597998

> <r_epik_Charging_Adjusted_Penalty>
0.0139472

> <i_epik_Tot_Q>
1

> <i_epik_Tot_abs_Q>
1

> <r_epik_Metal_State_Penalty>
0.00598062

> <b_epik_Metal_Only>
0

> <s_lp_Force_Field>
OPLS_2005

> <r_lp_Energy>
23.7914

> <b_lp_Chiralities_Consistent>
1

> <s_lp_Variant>
AV-unprocessed.smi:1076-2

> <Gold.Version>
5.8.1

> <Gold.Id.Protein>
6NUR|6NUR_protein|mol2

> <Gold.PLP.Fitness>
47.0370

> <Gold.PLP.PLP>
-34.0692

> <Gold.PLP.part.hbond>
-4.0000

> <Gold.PLP.part.metal>
0.0000

> <Gold.PLP.part.buried>
3.2344

> <Gold.PLP.part.nonpolar>
-34.7386

> <Gold.PLP.part.repulsive>
1.5568

> <Gold.PLP.ligand.clash>
0.0000

> <Gold.PLP.ligand.torsion>
0.5582

> <Gold.PLP.Chemscore.Hbond>
3.0343

> <Gold.PLP.Chemscore.CHOScore>
1.6268

> <Gold.PLP.Chemscore.Metal>
0.0000

> <Gold.Chemscore.Hbonds>
donor molecule, donor type, donor heavy atom, donor atom, acceptor molecule, acceptor atom, score
      L1  H     9    31       P1 10175  2.00
      P1  H  7989  7998       L1    13  0.20
      P1  H  8011  8017       L1    13  0.88
      L1  C     3    24       P1 10186  0.48
      L1  C    20    44       P1  7948  1.00

> <Gold.PLP.Chemscore.Internal.Correction>
0.1007

> <Gold.Rescore>
     Score         DG    S(hbond)    S(metal)    S(lipo)     H(rot)  DE(clash)    DE(int)     intcor
     14.08     -15.90       1.75        0.00      82.41       1.98       1.20       0.62       ----

> <Gold.Chemscore.Fitness>
14.0774

> <Gold.Chemscore.DG>
-15.9047

> <Gold.Chemscore.ZeroCoef>
-5.4800

> <Gold.Chemscore.Hbond>
1.7548

> <Gold.Chemscore.Metal>
0.0000

> <Gold.Chemscore.Lipo>
82.4078

> <Gold.Chemscore.Internal_Hbond>
0.0000

> <Gold.Chemscore.DEClash>
1.2034

> <Gold.Chemscore.DEInternal>
0.6239

> <Gold.Chemscore.Rot>
1.9837

> <Gold.Chemscore.Internal.Correction>
   9.000000E+99

> <Gold.Chemscore.Hbonds>
donor molecule, donor type, donor heavy atom, donor atom, acceptor molecule, acceptor atom, score
      L1  H     9    31       P1 10175  1.00
      P1  H  7989  7998       L1    13  0.02
      P1  H  8011  8017       L1    13  0.82

> <Gold.Chemscore.Hbond.Weighted>
-5.8612

> <Gold.Chemscore.Metal.Weighted>
-0.0000

> <Gold.Chemscore.Lipo.Weighted>
-9.6417

> <Gold.Chemscore.Internal_Hbond.Weighted>
0.0000

> <Gold.Chemscore.DEClash.Weighted>
1.2034

> <Gold.Chemscore.DEInternal.Weighted>
0.6239

> <Gold.Chemscore.Rot.Weighted>
5.0782

> <Gold.Chemscore.Internal.Correction.Weighted>
   9.000000E+99

> <Gold.Protein.RotatedTorsions>
[ 6907 6896 6895 6894 ] final -172.35 input  -60.11 | X-H torsion
[ 7974 7965 7964 7962 ] final -166.58 input  175.53 | X-H torsion
[ 8008 7997 7996 7995 ] final   87.81 input   59.86 | X-H torsion
[ 10167 10162 10161 10158 ] final  -86.83 input  -65.29 | X-H torsion
[ 10718 10713 10712 10709 ] final  167.27 input   66.30 | X-H torsion
[ 10763 10752 10751 10750 ] final  116.64 input  -60.55 | X-H torsion
[ 11005 11000 10999 10996 ] final  -32.84 input  -57.11 | X-H torsion

> <Gold.Protein.ActiveResidues>
 VAL166  LYS551  ARG553  GLY616  TRP617  ASP618  TYR619  PRO620  LYS621  CYS622 
 ASP623  PHE694  ASN695  SER759  ASP760  ASP761  ALA762  ILE779  LEU786  VAL792 
 PHE793  MET794  SER795  GLU796  ALA797  LYS798  CYS799  TRP800  GLU811  SER814 

> <Gold.Protein.RotatedAtoms>
  151.5386  133.3436  159.2931 H   0  0  0  0  0  0  0  0  0  0  0  0  # atno 6907 bound_to 6896
  150.8549  134.7888  159.7049 H   0  0  0  0  0  0  0  0  0  0  0  0  # atno 6908 bound_to 6896
  152.4585  134.5245  159.9844 H   0  0  0  0  0  0  0  0  0  0  0  0  # atno 6909 bound_to 6896
  144.7242  140.2645  143.6260 H   0  0  0  0  0  0  0  0  0  0  0  0  # atno 7974 bound_to 7965
  155.9800  140.3378  155.6654 H   0  0  0  0  0  0  0  0  0  0  0  0  # atno 8008 bound_to 7997
  155.6561  140.0711  157.2588 H   0  0  0  0  0  0  0  0  0  0  0  0  # atno 8009 bound_to 7997
  154.4189  140.1717  156.1714 H   0  0  0  0  0  0  0  0  0  0  0  0  # atno 8010 bound_to 7997
  140.3903  143.2708  151.9273 H   0  0  0  0  0  0  0  0  0  0  0  0  # atno 10167 bound_to 10162
  157.0540  131.0321  151.2671 H   0  0  0  0  0  0  0  0  0  0  0  0  # atno 10718 bound_to 10713
  153.5402  135.3560  155.2715 H   0  0  0  0  0  0  0  0  0  0  0  0  # atno 10763 bound_to 10752
  154.8718  135.4089  154.3052 H   0  0  0  0  0  0  0  0  0  0  0  0  # atno 10764 bound_to 10752
  153.3758  135.7066  153.6671 H   0  0  0  0  0  0  0  0  0  0  0  0  # atno 10765 bound_to 10752
  140.9586  133.7178  156.1333 H   0  0  0  0  0  0  0  0  0  0  0  0  # atno 11005 bound_to 11000
  145.8103  139.2000  143.1997 LP  0  0  0  0  0  0  0  0  0  0  0  0  # atno 17320 bound_to 7965
  146.0601  140.7979  142.9739 LP  0  0  0  0  0  0  0  0  0  0  0  0  # atno 17321 bound_to 7965
  139.4789  144.5734  151.8052 LP  0  0  0  0  0  0  0  0  0  0  0  0  # atno 17342 bound_to 10162
  140.4846  144.1399  150.5939 LP  0  0  0  0  0  0  0  0  0  0  0  0  # atno 17343 bound_to 10162
  157.5008  130.7878  149.7602 LP  0  0  0  0  0  0  0  0  0  0  0  0  # atno 17370 bound_to 10713
  155.9999  130.3886  150.2648 LP  0  0  0  0  0  0  0  0  0  0  0  0  # atno 17371 bound_to 10713
  140.7500  134.4055  157.5542 LP  0  0  0  0  0  0  0  0  0  0  0  0  # atno 17394 bound_to 11000
  139.8870  134.8893  156.2551 LP  0  0  0  0  0  0  0  0  0  0  0  0  # atno 17395 bound_to 11000

$$$$
