AV-unprocessed.smi:52|AV-procd|sdf|510|dock1
  -GOLD-   2262016383D 1   1.00000     0.00000
 Structure written by MMmdl.
 27 28  0  0  0  0  0  0  0  0  3 V2000
  153.9520  138.3144  157.9237 O   0  0  0  0  0  0  0  0  0  0  0  0
  153.2115  137.8154  157.0480 C   0  0  0  0  0  0  0  0  0  0  0  0
  153.2214  136.5914  156.7915 O   0  5  0  0  0  0  0  0  0  0  0  0
  152.2969  138.7043  156.2865 C   0  0  0  0  0  0  0  0  0  0  0  0
  151.9077  138.5580  154.9789 C   0  0  0  0  0  0  0  0  0  0  0  0
  151.0514  139.5731  154.6477 O   0  0  0  0  0  0  0  0  0  0  0  0
  150.9537  140.3119  155.7861 C   0  0  0  0  0  0  0  0  0  0  0  0
  150.0604  141.5079  155.8001 C   0  0  0  0  0  0  0  0  0  0  0  0
  148.7119  140.9549  155.5317 N   0  3  1  0  0  0  0  0  0  0  0  0
  147.5713  141.8369  155.8919 C   0  0  0  0  0  0  0  0  0  0  0  0
  146.5923  141.8030  154.7113 C   0  0  0  0  0  0  0  0  0  0  0  0
  146.9998  140.5594  153.9270 C   0  0  1  0  0  0  0  0  0  0  0  0
  146.6524  140.6531  152.5619 O   0  0  0  0  0  0  0  0  0  0  0  0
  148.5110  140.5147  154.1366 C   0  0  0  0  0  0  0  0  0  0  0  0
  151.6790  139.8390  156.7962 N   0  0  0  0  0  0  0  0  0  0  0  0
  146.5364  139.6740  154.3649 H   0  0  0  0  0  0  0  0  0  0  0  0
  152.1319  137.8349  154.2084 H   0  0  0  0  0  0  0  0  0  0  0  0
  150.1087  142.0254  156.7592 H   0  0  0  0  0  0  0  0  0  0  0  0
  150.3666  142.1957  155.0111 H   0  0  0  0  0  0  0  0  0  0  0  0
  147.1047  141.4469  156.7970 H   0  0  0  0  0  0  0  0  0  0  0  0
  147.8848  142.8614  156.0988 H   0  0  0  0  0  0  0  0  0  0  0  0
  145.5486  141.7828  155.0261 H   0  0  0  0  0  0  0  0  0  0  0  0
  146.7381  142.6956  154.1004 H   0  0  0  0  0  0  0  0  0  0  0  0
  145.7213  140.5140  152.4753 H   0  0  0  0  0  0  0  0  0  0  0  0
  149.0030  141.2187  153.4622 H   0  0  0  0  0  0  0  0  0  0  0  0
  148.9334  139.5252  153.9590 H   0  0  0  0  0  0  0  0  0  0  0  0
  148.6167  140.1263  156.1016 H   0  0  0  0  0  0  0  0  0  0  0  0
  1  2  2  0  0  0  0
  2  3  1  0  0  0  0
  2  4  1  0  0  0  0
  4 15  1  0  0  0  0
  4  5  2  0  0  0  0
  5  6  1  0  0  0  0
  5 17  1  0  0  0  0
  6  7  1  0  0  0  0
  7  8  1  0  0  0  0
  7 15  2  0  0  0  0
  8  9  1  0  0  0  0
  8 18  1  0  0  0  0
  8 19  1  0  0  0  0
  9 14  1  0  0  0  0
  9 10  1  0  0  0  0
  9 27  1  0  0  0  0
 10 11  1  0  0  0  0
 10 20  1  0  0  0  0
 10 21  1  0  0  0  0
 11 12  1  0  0  0  0
 11 22  1  0  0  0  0
 11 23  1  0  0  0  0
 12 16  1  0  0  0  0
 12 13  1  0  0  0  0
 12 14  1  0  0  0  0
 13 24  1  0  0  0  0
 14 25  1  0  0  0  0
 14 26  1  0  0  0  0
M  CHG  1   3  -1
M  CHG  1   9   1
M  END
> <s_m_source_file>
AV-unprocessed.smi

> <i_m_source_file_index>
52

> <i_lp_mmshare_version>
43012

> <i_f3d_flags>
0

> <s_epik_input>
Tz1DKFtPSF0pYzFbY0hdb2MobjEpW0NIMl1OMltDSDJdW0NIMl1bQ0BIXShbT0hdKVtDSDJdMg==

> <s_epik_cmdline>
J2VwaWtfcHl0aG9uJywgJy1waCcsICc3LjAnLCAnLXRuJywgJzgnLCAnLW1hJywgJzIwMCcsICctbWV0YWxfYmluZGluZycsICctaW1hZScsICc8aW5maWxlLm1hZT4nLCAnLW9tYWUnLCAnPG91dGZpbGUubWFlPic=

> <r_epik_Ionization_Penalty>
0.0376014

> <r_epik_Ionization_Penalty_Charging>
0.0376013

> <r_epik_Ionization_Penalty_Neutral>
1.78687e-08

> <r_epik_State_Penalty>
0.0314164

> <r_epik_Charging_Adjusted_Penalty>
0.0690177

> <i_epik_Tot_Q>
0

> <i_epik_Tot_abs_Q>
2

> <r_epik_Metal_State_Penalty>
0.0314164

> <b_epik_Metal_Only>
0

> <s_lp_Force_Field>
OPLS_2005

> <r_lp_Energy>
19.8896

> <b_lp_Chiralities_Consistent>
1

> <s_lp_Variant>
AV-unprocessed.smi:52-4

> <Gold.Version>
5.8.1

> <Gold.Id.Protein>
6NUR|6NUR_protein|mol2

> <Gold.PLP.Fitness>
40.5323

> <Gold.PLP.PLP>
-23.6911

> <Gold.PLP.part.hbond>
-4.1161

> <Gold.PLP.part.metal>
0.0000

> <Gold.PLP.part.buried>
-3.0725

> <Gold.PLP.part.nonpolar>
-17.8918

> <Gold.PLP.part.repulsive>
0.1545

> <Gold.PLP.ligand.clash>
0.0000

> <Gold.PLP.ligand.torsion>
0.5672

> <Gold.PLP.Chemscore.Hbond>
5.9840

> <Gold.PLP.Chemscore.CHOScore>
0.0000

> <Gold.PLP.Chemscore.Metal>
0.0000

> <Gold.Chemscore.Hbonds>
donor molecule, donor type, donor heavy atom, donor atom, acceptor molecule, acceptor atom, score
      L1  H    13    24       P1 10175  1.00
      P1  H  7989  7998       L1     6  1.00
      P1  H  7997  8009       L1     1  2.00
      P1  H 10752 10764       L1     3  2.00

> <Gold.PLP.Chemscore.Internal.Correction>
0.0237

> <Gold.Rescore>
     Score         DG    S(hbond)    S(metal)    S(lipo)     H(rot)  DE(clash)    DE(int)     intcor
     13.90     -16.08       3.28        0.00      40.58       1.99       0.00       2.17       ----

> <Gold.Chemscore.Fitness>
13.9019

> <Gold.Chemscore.DG>
-16.0755

> <Gold.Chemscore.ZeroCoef>
-5.4800

> <Gold.Chemscore.Hbond>
3.2774

> <Gold.Chemscore.Metal>
0.0000

> <Gold.Chemscore.Lipo>
40.5832

> <Gold.Chemscore.Internal_Hbond>
0.0000

> <Gold.Chemscore.DEClash>
0.0015

> <Gold.Chemscore.DEInternal>
2.1721

> <Gold.Chemscore.Rot>
1.9919

> <Gold.Chemscore.Internal.Correction>
   9.000000E+99

> <Gold.Chemscore.Hbonds>
donor molecule, donor type, donor heavy atom, donor atom, acceptor molecule, acceptor atom, score
      L1  H    13    24       P1 10175  0.42
      P1  H  7989  7998       L1     6  0.25
      P1  H  7997  8009       L1     1  0.55
      P1  H 10752 10764       L1     3  0.96

> <Gold.Chemscore.Hbond.Weighted>
-10.9464

> <Gold.Chemscore.Metal.Weighted>
-0.0000

> <Gold.Chemscore.Lipo.Weighted>
-4.7482

> <Gold.Chemscore.Internal_Hbond.Weighted>
0.0000

> <Gold.Chemscore.DEClash.Weighted>
0.0015

> <Gold.Chemscore.DEInternal.Weighted>
2.1721

> <Gold.Chemscore.Rot.Weighted>
5.0991

> <Gold.Chemscore.Internal.Correction.Weighted>
   9.000000E+99

> <Gold.Protein.RotatedTorsions>
[ 6907 6896 6895 6894 ] final  131.45 input  -60.11 | X-H torsion
[ 7974 7965 7964 7962 ] final -161.98 input  175.53 | X-H torsion
[ 8008 7997 7996 7995 ] final  143.43 input   59.86 | X-H torsion
[ 10167 10162 10161 10158 ] final   17.18 input  -65.29 | X-H torsion
[ 10718 10713 10712 10709 ] final  -91.07 input   66.30 | X-H torsion
[ 10763 10752 10751 10750 ] final   -1.46 input  -60.55 | X-H torsion
[ 11005 11000 10999 10996 ] final   77.32 input  -57.11 | X-H torsion

> <Gold.Protein.ActiveResidues>
 VAL166  LYS551  ARG553  GLY616  TRP617  ASP618  TYR619  PRO620  LYS621  CYS622 
 ASP623  PHE694  ASN695  SER759  ASP760  ASP761  ALA762  ILE779  LEU786  VAL792 
 PHE793  MET794  SER795  GLU796  ALA797  LYS798  CYS799  TRP800  GLU811  SER814 

> <Gold.Protein.RotatedAtoms>
  152.3425  133.6083  159.5886 H   0  0  0  0  0  0  0  0  0  0  0  0  # atno 6907 bound_to 6896
  150.7487  133.9700  159.3551 H   0  0  0  0  0  0  0  0  0  0  0  0  # atno 6908 bound_to 6896
  151.7563  135.0821  160.0389 H   0  0  0  0  0  0  0  0  0  0  0  0  # atno 6909 bound_to 6896
  144.7373  140.3319  143.6151 H   0  0  0  0  0  0  0  0  0  0  0  0  # atno 7974 bound_to 7965
  156.2930  140.2262  156.4889 H   0  0  0  0  0  0  0  0  0  0  0  0  # atno 8008 bound_to 7997
  154.7788  140.0461  157.1131 H   0  0  0  0  0  0  0  0  0  0  0  0  # atno 8009 bound_to 7997
  154.9784  140.3075  155.4960 H   0  0  0  0  0  0  0  0  0  0  0  0  # atno 8010 bound_to 7997
  140.5744  143.9100  150.6738 H   0  0  0  0  0  0  0  0  0  0  0  0  # atno 10167 bound_to 10162
  155.9991  130.4934  150.5419 H   0  0  0  0  0  0  0  0  0  0  0  0  # atno 10718 bound_to 10713
  153.3451  135.6982  153.6834 H   0  0  0  0  0  0  0  0  0  0  0  0  # atno 10763 bound_to 10752
  153.5583  135.3540  155.2789 H   0  0  0  0  0  0  0  0  0  0  0  0  # atno 10764 bound_to 10752
  154.8643  135.4243  154.2673 H   0  0  0  0  0  0  0  0  0  0  0  0  # atno 10765 bound_to 10752
  139.9259  134.7673  156.1507 H   0  0  0  0  0  0  0  0  0  0  0  0  # atno 11005 bound_to 11000
  145.7463  139.1779  143.2347 LP  0  0  0  0  0  0  0  0  0  0  0  0  # atno 17320 bound_to 7965
  146.1096  140.7445  142.9510 LP  0  0  0  0  0  0  0  0  0  0  0  0  # atno 17321 bound_to 7965
  140.2584  143.3542  152.1345 LP  0  0  0  0  0  0  0  0  0  0  0  0  # atno 17342 bound_to 10162
  139.5135  144.6933  151.5700 LP  0  0  0  0  0  0  0  0  0  0  0  0  # atno 17343 bound_to 10162
  157.3354  131.0707  151.1829 LP  0  0  0  0  0  0  0  0  0  0  0  0  # atno 17370 bound_to 10713
  157.2695  130.6697  149.6013 LP  0  0  0  0  0  0  0  0  0  0  0  0  # atno 17371 bound_to 10713
  141.0817  133.6751  156.2349 LP  0  0  0  0  0  0  0  0  0  0  0  0  # atno 17394 bound_to 11000
  140.6337  134.5238  157.5562 LP  0  0  0  0  0  0  0  0  0  0  0  0  # atno 17395 bound_to 11000

$$$$
