AV-unprocessed.smi:1667|AV-procd|sdf|6673|dock9
  -GOLD-   22720 7383D 1   1.00000     0.00000
 Structure written by MMmdl.
 45 47  0  0  0  0  0  0  0  0  1 V2000
  150.6069  134.2307  155.5753 C   0  0  0  0  0  0  0  0  0  0  0  0
  150.9157  135.6207  156.1203 C   0  0  0  0  0  0  0  0  0  0  0  0
  151.0010  135.7974  157.3344 O   0  0  0  0  0  0  0  0  0  0  0  0
  151.0800  136.5884  155.2024 N   0  0  0  0  0  0  0  0  0  0  0  0
  151.3976  138.0011  155.4270 C   0  0  1  0  0  0  0  0  0  0  0  0
  152.8040  138.4008  154.9394 C   0  0  0  0  0  0  0  0  0  0  0  0
  150.2838  138.8686  154.8886 C   0  0  0  0  0  0  0  0  0  0  0  0
  149.3171  138.3731  154.1124 N   0  0  0  0  0  0  0  0  0  0  0  0
  148.4887  139.4573  153.9149 C   0  0  0  0  0  0  0  0  0  0  0  0
  147.2896  139.5717  153.1762 C   0  0  0  0  0  0  0  0  0  0  0  0
  146.5963  140.7984  153.1265 C   0  0  0  0  0  0  0  0  0  0  0  0
  147.0903  141.9245  153.8157 C   0  0  0  0  0  0  0  0  0  0  0  0
  148.2833  141.8303  154.5577 C   0  0  0  0  0  0  0  0  0  0  0  0
  148.9758  140.6047  154.5999 C   0  0  0  0  0  0  0  0  0  0  0  0
  150.1494  140.1821  155.2204 N   0  0  0  0  0  0  0  0  0  0  0  0
  151.0104  141.0051  156.0674 C   0  0  0  0  0  0  0  0  0  0  0  0
  150.9133  140.6803  157.5772 C   0  0  2  0  0  0  0  0  0  0  0  0
  149.5605  140.5641  157.9717 O   0  0  0  0  0  0  0  0  0  0  0  0
  151.6979  141.6527  158.4482 C   0  0  0  0  0  0  0  0  0  0  0  0
  152.6560  141.1874  159.3775 C   0  0  0  0  0  0  0  0  0  0  0  0
  153.3606  142.0982  160.1880 C   0  0  0  0  0  0  0  0  0  0  0  0
  153.1104  143.4792  160.0780 C   0  0  0  0  0  0  0  0  0  0  0  0
  152.1570  143.9491  159.1547 C   0  0  0  0  0  0  0  0  0  0  0  0
  151.9122  145.2766  159.0507 F   0  0  0  0  0  0  0  0  0  0  0  0
  151.4548  143.0388  158.3411 C   0  0  0  0  0  0  0  0  0  0  0  0
  151.4307  138.1171  156.5071 H   0  0  0  0  0  0  0  0  0  0  0  0
  149.6823  134.2440  154.9978 H   0  0  0  0  0  0  0  0  0  0  0  0
  150.4915  133.5125  156.3877 H   0  0  0  0  0  0  0  0  0  0  0  0
  151.4146  133.8872  154.9287 H   0  0  0  0  0  0  0  0  0  0  0  0
  150.9822  136.3144  154.2358 H   0  0  0  0  0  0  0  0  0  0  0  0
  153.0344  139.4277  155.2226 H   0  0  0  0  0  0  0  0  0  0  0  0
  152.9018  138.3331  153.8561 H   0  0  0  0  0  0  0  0  0  0  0  0
  153.5669  137.7598  155.3814 H   0  0  0  0  0  0  0  0  0  0  0  0
  146.9012  138.7127  152.6493 H   0  0  0  0  0  0  0  0  0  0  0  0
  145.6801  140.8749  152.5597 H   0  0  0  0  0  0  0  0  0  0  0  0
  146.5530  142.8606  153.7749 H   0  0  0  0  0  0  0  0  0  0  0  0
  148.6626  142.6920  155.0862 H   0  0  0  0  0  0  0  0  0  0  0  0
  152.0387  140.8611  155.7337 H   0  0  0  0  0  0  0  0  0  0  0  0
  150.7996  142.0590  155.8889 H   0  0  0  0  0  0  0  0  0  0  0  0
  151.3463  139.6908  157.7281 H   0  0  0  0  0  0  0  0  0  0  0  0
  149.0870  140.1139  157.2889 H   0  0  0  0  0  0  0  0  0  0  0  0
  152.8473  140.1294  159.4818 H   0  0  0  0  0  0  0  0  0  0  0  0
  154.0882  141.7362  160.8992 H   0  0  0  0  0  0  0  0  0  0  0  0
  153.6477  144.1769  160.7030 H   0  0  0  0  0  0  0  0  0  0  0  0
  150.7216  143.4084  157.6393 H   0  0  0  0  0  0  0  0  0  0  0  0
  1  2  1  0  0  0  0
  1 27  1  0  0  0  0
  1 28  1  0  0  0  0
  1 29  1  0  0  0  0
  2  3  2  0  0  0  0
  2  4  1  0  0  0  0
  4  5  1  0  0  0  0
  4 30  1  0  0  0  0
  5 26  1  0  0  0  0
  5  6  1  0  0  0  0
  5  7  1  0  0  0  0
  6 31  1  0  0  0  0
  6 32  1  0  0  0  0
  6 33  1  0  0  0  0
  7 15  1  0  0  0  0
  7  8  2  0  0  0  0
  8  9  1  0  0  0  0
  9 14  2  0  0  0  0
  9 10  1  0  0  0  0
 10 11  2  0  0  0  0
 10 34  1  0  0  0  0
 11 12  1  0  0  0  0
 11 35  1  0  0  0  0
 12 13  2  0  0  0  0
 12 36  1  0  0  0  0
 13 14  1  0  0  0  0
 13 37  1  0  0  0  0
 14 15  1  0  0  0  0
 15 16  1  0  0  0  0
 16 17  1  0  0  0  0
 16 38  1  0  0  0  0
 16 39  1  0  0  0  0
 17 18  1  0  0  0  0
 17 19  1  0  0  0  0
 17 40  1  0  0  0  0
 18 41  1  0  0  0  0
 19 25  1  0  0  0  0
 19 20  2  0  0  0  0
 20 21  1  0  0  0  0
 20 42  1  0  0  0  0
 21 22  2  0  0  0  0
 21 43  1  0  0  0  0
 22 23  1  0  0  0  0
 22 44  1  0  0  0  0
 23 24  1  0  0  0  0
 23 25  2  0  0  0  0
 25 45  1  0  0  0  0
M  END
> <s_m_source_file>
AV-unprocessed.smi

> <i_m_source_file_index>
1667

> <i_lp_mmshare_version>
43012

> <i_f3d_flags>
0

> <s_epik_input>
W0NIM11DKD1PKVtOSF1bQ0BASF0oW0NIM10pYyhuMSluKGMoYzEyKVtjSF1bY0hdW2NIXVtjSF0yKVtDSDJdW0NASF0oW09IXSljM1tjSF1bY0hdW2NIXWMoRilbY0hdMw==

> <s_epik_cmdline>
J2VwaWtfcHl0aG9uJywgJy1waCcsICc3LjAnLCAnLXRuJywgJzgnLCAnLW1hJywgJzIwMCcsICctbWV0YWxfYmluZGluZycsICctaW1hZScsICc8aW5maWxlLm1hZT4nLCAnLW9tYWUnLCAnPG91dGZpbGUubWFlPic=

> <r_epik_Ionization_Penalty>
0.133011

> <r_epik_Ionization_Penalty_Charging>
0

> <r_epik_Ionization_Penalty_Neutral>
0.133011

> <r_epik_State_Penalty>
0.122384

> <r_epik_Charging_Adjusted_Penalty>
0.122384

> <i_epik_Tot_Q>
0

> <i_epik_Tot_abs_Q>
0

> <r_epik_Metal_State_Penalty>
0.0997374

> <b_epik_Metal_Only>
0

> <s_lp_Force_Field>
OPLS_2005

> <r_lp_Energy>
8.264

> <b_lp_Chiralities_Consistent>
1

> <s_lp_Variant>
AV-unprocessed.smi:1667-1

> <Gold.Version>
5.8.1

> <Gold.Id.Protein>
6NUR|6NUR_protein|mol2

> <Gold.PLP.Fitness>
52.1687

> <Gold.PLP.PLP>
-53.1325

> <Gold.PLP.part.hbond>
-0.7417

> <Gold.PLP.part.metal>
0.0000

> <Gold.PLP.part.buried>
-3.0587

> <Gold.PLP.part.nonpolar>
-50.6869

> <Gold.PLP.part.repulsive>
0.4911

> <Gold.PLP.ligand.clash>
0.0000

> <Gold.PLP.ligand.torsion>
0.5876

> <Gold.PLP.Chemscore.Hbond>
0.0000

> <Gold.PLP.Chemscore.CHOScore>
0.0000

> <Gold.PLP.Chemscore.Metal>
0.0000

> <Gold.PLP.Chemscore.Internal.Correction>
0.2112

> <Gold.Rescore>
     Score         DG    S(hbond)    S(metal)    S(lipo)     H(rot)  DE(clash)    DE(int)     intcor
     14.84     -15.90       0.18        0.00     138.05       2.48       0.71       0.36       ----

> <Gold.Chemscore.Fitness>
14.8352

> <Gold.Chemscore.DG>
-15.9029

> <Gold.Chemscore.ZeroCoef>
-5.4800

> <Gold.Chemscore.Hbond>
0.1825

> <Gold.Chemscore.Metal>
0.0000

> <Gold.Chemscore.Lipo>
138.0492

> <Gold.Chemscore.Internal_Hbond>
0.0000

> <Gold.Chemscore.DEClash>
0.7082

> <Gold.Chemscore.DEInternal>
0.3595

> <Gold.Chemscore.Rot>
2.4760

> <Gold.Chemscore.Internal.Correction>
   9.000000E+99

> <Gold.Chemscore.Hbond.Weighted>
-0.6096

> <Gold.Chemscore.Metal.Weighted>
-0.0000

> <Gold.Chemscore.Lipo.Weighted>
-16.1518

> <Gold.Chemscore.Internal_Hbond.Weighted>
0.0000

> <Gold.Chemscore.DEClash.Weighted>
0.7082

> <Gold.Chemscore.DEInternal.Weighted>
0.3595

> <Gold.Chemscore.Rot.Weighted>
6.3385

> <Gold.Chemscore.Internal.Correction.Weighted>
   9.000000E+99

> <Gold.Protein.RotatedTorsions>
[ 6907 6896 6895 6894 ] final   84.49 input  -60.11 | X-H torsion
[ 7974 7965 7964 7962 ] final  -10.28 input  175.53 | X-H torsion
[ 8008 7997 7996 7995 ] final   32.57 input   59.86 | X-H torsion
[ 10167 10162 10161 10158 ] final   92.60 input  -65.29 | X-H torsion
[ 10718 10713 10712 10709 ] final  -51.97 input   66.30 | X-H torsion
[ 10763 10752 10751 10750 ] final  173.82 input  -60.55 | X-H torsion
[ 11005 11000 10999 10996 ] final  -83.68 input  -57.11 | X-H torsion

> <Gold.Protein.ActiveResidues>
 VAL166  LYS551  ARG553  GLY616  TRP617  ASP618  TYR619  PRO620  LYS621  CYS622 
 ASP623  PHE694  ASN695  SER759  ASP760  ASP761  ALA762  ILE779  LEU786  VAL792 
 PHE793  MET794  SER795  GLU796  ALA797  LYS798  CYS799  TRP800  GLU811  SER814 

> <Gold.Protein.RotatedAtoms>
  152.5353  134.2732  159.8979 H   0  0  0  0  0  0  0  0  0  0  0  0  # atno 6907 bound_to 6896
  151.2688  133.4259  159.2628 H   0  0  0  0  0  0  0  0  0  0  0  0  # atno 6908 bound_to 6896
  151.0386  134.9606  159.8206 H   0  0  0  0  0  0  0  0  0  0  0  0  # atno 6909 bound_to 6896
  146.2226  140.2740  142.8358 H   0  0  0  0  0  0  0  0  0  0  0  0  # atno 7974 bound_to 7965
  155.1246  140.3251  155.4489 H   0  0  0  0  0  0  0  0  0  0  0  0  # atno 8008 bound_to 7997
  156.2653  140.2021  156.6315 H   0  0  0  0  0  0  0  0  0  0  0  0  # atno 8009 bound_to 7997
  154.6658  140.0542  157.0099 H   0  0  0  0  0  0  0  0  0  0  0  0  # atno 8010 bound_to 7997
  139.8261  144.6709  150.9458 H   0  0  0  0  0  0  0  0  0  0  0  0  # atno 10167 bound_to 10162
  156.1663  130.4149  149.9715 H   0  0  0  0  0  0  0  0  0  0  0  0  # atno 10718 bound_to 10713
  154.4454  135.2763  155.1819 H   0  0  0  0  0  0  0  0  0  0  0  0  # atno 10763 bound_to 10752
  154.3668  135.6117  153.5722 H   0  0  0  0  0  0  0  0  0  0  0  0  # atno 10764 bound_to 10752
  152.9843  135.5847  154.4789 H   0  0  0  0  0  0  0  0  0  0  0  0  # atno 10765 bound_to 10752
  141.1656  133.7306  156.8755 H   0  0  0  0  0  0  0  0  0  0  0  0  # atno 11005 bound_to 11000
  144.9246  140.7907  143.5727 LP  0  0  0  0  0  0  0  0  0  0  0  0  # atno 17320 bound_to 7965
  145.2679  139.1966  143.4857 LP  0  0  0  0  0  0  0  0  0  0  0  0  # atno 17321 bound_to 7965
  140.7810  143.4045  151.1093 LP  0  0  0  0  0  0  0  0  0  0  0  0  # atno 17342 bound_to 10162
  139.7702  143.8505  152.3119 LP  0  0  0  0  0  0  0  0  0  0  0  0  # atno 17343 bound_to 10162
  156.7529  130.9122  151.3638 LP  0  0  0  0  0  0  0  0  0  0  0  0  # atno 17370 bound_to 10713
  157.6770  130.9104  150.0174 LP  0  0  0  0  0  0  0  0  0  0  0  0  # atno 17371 bound_to 10713
  140.1751  134.9072  157.2881 LP  0  0  0  0  0  0  0  0  0  0  0  0  # atno 17394 bound_to 11000
  140.2458  134.3742  155.7462 LP  0  0  0  0  0  0  0  0  0  0  0  0  # atno 17395 bound_to 11000

$$$$
