AV-unprocessed.smi:148|AV-procd|sdf|1216|dock4
  -GOLD-   2262018403D 1   1.00000     0.00000
 Structure written by MMmdl.
 63 67  0  0  0  0  0  0  0  0  1 V2000
  149.1398  131.9059  154.1264 O   0  0  0  0  0  0  0  0  0  0  0  0
  149.4958  133.0275  153.3454 C   0  0  0  0  0  0  0  0  0  0  0  0
  149.3379  134.3441  154.1426 C   0  0  2  0  0  0  0  0  0  0  0  0
  150.2222  134.3454  155.4167 C   0  0  0  0  0  0  0  0  0  0  0  0
  150.3206  135.6608  156.0235 N   0  0  0  0  0  0  0  0  0  0  0  0
  149.8080  136.0416  157.2433 C   0  0  0  0  0  0  0  0  0  0  0  0
  150.0099  137.2899  157.5671 N   0  0  0  0  0  0  0  0  0  0  0  0
  150.7169  137.8049  156.4882 C   0  0  0  0  0  0  0  0  0  0  0  0
  151.2282  139.0888  156.1674 C   0  0  0  0  0  0  0  0  0  0  0  0
  151.0623  140.1495  156.9905 N   0  0  0  0  0  0  0  0  0  0  0  0
  152.3362  140.4890  157.6249 C   0  0  0  0  0  0  0  0  0  0  0  0
  152.1514  141.5398  158.7261 C   0  0  0  0  0  0  0  0  0  0  0  0
  151.4547  142.7798  158.1595 C   0  0  0  0  0  0  0  0  0  0  0  0
  150.1168  142.3826  157.5220 C   0  0  0  0  0  0  0  0  0  0  0  0
  150.2904  141.2813  156.4425 C   0  0  2  0  0  0  0  0  0  0  0  0
  148.9387  140.8332  155.7987 C   0  0  1  0  0  0  0  0  0  0  0  0
  147.6980  140.8885  156.7120 C   0  0  0  0  0  0  0  0  0  0  0  0
  146.4917  141.1365  155.7914 C   0  0  0  0  0  0  0  0  0  0  0  0
  147.0427  141.1772  154.3627 C   0  0  0  0  0  0  0  0  0  0  0  0
  148.5059  141.5847  154.5313 C   0  0  2  0  0  0  0  0  0  0  0  0
  149.2758  141.2205  153.4043 O   0  0  0  0  0  0  0  0  0  0  0  0
  151.8938  139.2353  154.9908 N   0  0  0  0  0  0  0  0  0  0  0  0
  152.0340  138.1892  154.1708 C   0  0  0  0  0  0  0  0  0  0  0  0
  151.5940  136.9386  154.3294 N   0  0  0  0  0  0  0  0  0  0  0  0
  150.9345  136.7916  155.5147 C   0  0  0  0  0  0  0  0  0  0  0  0
  147.8462  134.6702  154.4299 C   0  0  2  0  0  0  0  0  0  0  0  0
  146.8833  134.4667  153.2589 C   0  0  0  0  0  0  0  0  0  0  0  0
  146.0131  135.7250  153.2653 C   0  0  0  0  0  0  0  0  0  0  0  0
  146.1742  136.2608  154.5692 O   0  0  0  0  0  0  0  0  0  0  0  0
  147.5396  136.0935  154.9104 C   0  0  0  0  0  0  0  0  0  0  0  0
  148.8797  131.2064  153.5465 H   0  0  0  0  0  0  0  0  0  0  0  0
  150.5185  132.9100  152.9864 H   0  0  0  0  0  0  0  0  0  0  0  0
  148.8498  133.0184  152.4681 H   0  0  0  0  0  0  0  0  0  0  0  0
  149.7086  135.1458  153.5016 H   0  0  0  0  0  0  0  0  0  0  0  0
  149.8313  133.6664  156.1732 H   0  0  0  0  0  0  0  0  0  0  0  0
  151.2301  133.9998  155.1885 H   0  0  0  0  0  0  0  0  0  0  0  0
  149.2677  135.3610  157.8853 H   0  0  0  0  0  0  0  0  0  0  0  0
  152.7892  139.5928  158.0519 H   0  0  0  0  0  0  0  0  0  0  0  0
  153.0282  140.8663  156.8704 H   0  0  0  0  0  0  0  0  0  0  0  0
  151.5593  141.1213  159.5410 H   0  0  0  0  0  0  0  0  0  0  0  0
  153.1186  141.8127  159.1492 H   0  0  0  0  0  0  0  0  0  0  0  0
  151.2923  143.5145  158.9485 H   0  0  0  0  0  0  0  0  0  0  0  0
  152.0933  143.2553  157.4141 H   0  0  0  0  0  0  0  0  0  0  0  0
  149.4439  142.0461  158.3099 H   0  0  0  0  0  0  0  0  0  0  0  0
  149.6681  143.2773  157.0933 H   0  0  0  0  0  0  0  0  0  0  0  0
  150.8968  141.7163  155.6466 H   0  0  0  0  0  0  0  0  0  0  0  0
  149.0363  139.7913  155.4895 H   0  0  0  0  0  0  0  0  0  0  0  0
  147.5834  139.9583  157.2684 H   0  0  0  0  0  0  0  0  0  0  0  0
  147.7642  141.6891  157.4473 H   0  0  0  0  0  0  0  0  0  0  0  0
  145.7260  140.3682  155.9037 H   0  0  0  0  0  0  0  0  0  0  0  0
  146.0317  142.0938  156.0398 H   0  0  0  0  0  0  0  0  0  0  0  0
  146.9803  140.1794  153.9252 H   0  0  0  0  0  0  0  0  0  0  0  0
  146.4871  141.8572  153.7164 H   0  0  0  0  0  0  0  0  0  0  0  0
  148.5505  142.6640  154.6693 H   0  0  0  0  0  0  0  0  0  0  0  0
  148.7424  140.6855  152.8366 H   0  0  0  0  0  0  0  0  0  0  0  0
  152.5714  138.3829  153.2541 H   0  0  0  0  0  0  0  0  0  0  0  0
  147.4961  133.9969  155.2133 H   0  0  0  0  0  0  0  0  0  0  0  0
  147.3758  134.3328  152.2965 H   0  0  0  0  0  0  0  0  0  0  0  0
  146.2730  133.5795  153.4316 H   0  0  0  0  0  0  0  0  0  0  0  0
  146.3774  136.4470  152.5329 H   0  0  0  0  0  0  0  0  0  0  0  0
  144.9665  135.5143  153.0453 H   0  0  0  0  0  0  0  0  0  0  0  0
  147.7016  136.2182  155.9813 H   0  0  0  0  0  0  0  0  0  0  0  0
  148.1251  136.8490  154.3870 H   0  0  0  0  0  0  0  0  0  0  0  0
  1  2  1  0  0  0  0
  1 31  1  0  0  0  0
  2  3  1  0  0  0  0
  2 32  1  0  0  0  0
  2 33  1  0  0  0  0
  3  4  1  0  0  0  0
  3 26  1  0  0  0  0
  3 34  1  0  0  0  0
  4  5  1  0  0  0  0
  4 35  1  0  0  0  0
  4 36  1  0  0  0  0
  5 25  1  0  0  0  0
  5  6  1  0  0  0  0
  6  7  2  0  0  0  0
  6 37  1  0  0  0  0
  7  8  1  0  0  0  0
  8 25  2  0  0  0  0
  8  9  1  0  0  0  0
  9 10  1  0  0  0  0
  9 22  2  0  0  0  0
 10 15  1  0  0  0  0
 10 11  1  0  0  0  0
 11 12  1  0  0  0  0
 11 38  1  0  0  0  0
 11 39  1  0  0  0  0
 12 13  1  0  0  0  0
 12 40  1  0  0  0  0
 12 41  1  0  0  0  0
 13 14  1  0  0  0  0
 13 42  1  0  0  0  0
 13 43  1  0  0  0  0
 14 15  1  0  0  0  0
 14 44  1  0  0  0  0
 14 45  1  0  0  0  0
 15 16  1  0  0  0  0
 15 46  1  0  0  0  0
 16 20  1  0  0  0  0
 16 17  1  0  0  0  0
 16 47  1  0  0  0  0
 17 18  1  0  0  0  0
 17 48  1  0  0  0  0
 17 49  1  0  0  0  0
 18 19  1  0  0  0  0
 18 50  1  0  0  0  0
 18 51  1  0  0  0  0
 19 20  1  0  0  0  0
 19 52  1  0  0  0  0
 19 53  1  0  0  0  0
 20 21  1  0  0  0  0
 20 54  1  0  0  0  0
 21 55  1  0  0  0  0
 22 23  1  0  0  0  0
 23 24  2  0  0  0  0
 23 56  1  0  0  0  0
 24 25  1  0  0  0  0
 26 30  1  0  0  0  0
 26 27  1  0  0  0  0
 26 57  1  0  0  0  0
 27 28  1  0  0  0  0
 27 58  1  0  0  0  0
 27 59  1  0  0  0  0
 28 29  1  0  0  0  0
 28 60  1  0  0  0  0
 28 61  1  0  0  0  0
 29 30  1  0  0  0  0
 30 62  1  0  0  0  0
 30 63  1  0  0  0  0
M  END
> <s_m_source_file>
AV-unprocessed.smi

> <i_m_source_file_index>
148

> <i_lp_mmshare_version>
43012

> <i_f3d_flags>
0

> <s_epik_input>
W0NIMl0xT1tDSDJdW0NIMl1bQ0BIXTFbQ0BIXShbQ0gyXVtPSF0pW0NIMl1uKFtjSF1uMiljKGMyMyluW2NIXW5jM040W0NIMl1bQ0gyXVtDSDJdW0NIMl1bQ0BIXTRbQ0BASF01W0NIMl1bQ0gyXVtDSDJdW0NASF01W09IXQ==

> <s_epik_cmdline>
J2VwaWtfcHl0aG9uJywgJy1waCcsICc3LjAnLCAnLXRuJywgJzgnLCAnLW1hJywgJzIwMCcsICctbWV0YWxfYmluZGluZycsICctaW1hZScsICc8aW5maWxlLm1hZT4nLCAnLW9tYWUnLCAnPG91dGZpbGUubWFlPic=

> <r_lp_tautomer_probability>
1

> <r_epik_Ionization_Penalty>
0.00556303

> <r_epik_Ionization_Penalty_Charging>
0

> <r_epik_Ionization_Penalty_Neutral>
0.00556303

> <r_epik_State_Penalty>
0.00401767

> <r_epik_Charging_Adjusted_Penalty>
0.00401767

> <i_epik_Tot_Q>
0

> <i_epik_Tot_abs_Q>
0

> <r_epik_Metal_State_Penalty>
-0

> <b_epik_Metal_Only>
0

> <s_lp_Force_Field>
OPLS_2005

> <r_lp_Energy>
68.7662

> <b_lp_Chiralities_Consistent>
1

> <s_lp_Variant>
AV-unprocessed.smi:148-15

> <Gold.Version>
5.8.1

> <Gold.Id.Protein>
6NUR|6NUR_protein|mol2

> <Gold.PLP.Fitness>
44.9054

> <Gold.PLP.PLP>
-39.3266

> <Gold.PLP.part.hbond>
-3.6481

> <Gold.PLP.part.metal>
0.0000

> <Gold.PLP.part.buried>
-4.4424

> <Gold.PLP.part.nonpolar>
-31.4721

> <Gold.PLP.part.repulsive>
0.2340

> <Gold.PLP.ligand.clash>
0.0000

> <Gold.PLP.ligand.torsion>
1.2528

> <Gold.PLP.Chemscore.Hbond>
2.5401

> <Gold.PLP.Chemscore.CHOScore>
0.0000

> <Gold.PLP.Chemscore.Metal>
0.0000

> <Gold.Chemscore.Hbonds>
donor molecule, donor type, donor heavy atom, donor atom, acceptor molecule, acceptor atom, score
      L1  H    21    55       P1  7957  0.34
      P1  H  7989  7998       L1    22  0.54
      P1  H  8011  8017       L1    21  1.00
      P1  H 10752 10764       L1    24  0.78

> <Gold.PLP.Chemscore.Internal.Correction>
0.4640

> <Gold.Rescore>
     Score         DG    S(hbond)    S(metal)    S(lipo)     H(rot)  DE(clash)    DE(int)     intcor
     12.12     -13.36       1.81        0.00      88.21       3.32       0.20       1.04       ----

> <Gold.Chemscore.Fitness>
12.1195

> <Gold.Chemscore.DG>
-13.3572

> <Gold.Chemscore.ZeroCoef>
-5.4800

> <Gold.Chemscore.Hbond>
1.8132

> <Gold.Chemscore.Metal>
0.0000

> <Gold.Chemscore.Lipo>
88.2149

> <Gold.Chemscore.Internal_Hbond>
0.0000

> <Gold.Chemscore.DEClash>
0.1996

> <Gold.Chemscore.DEInternal>
1.0381

> <Gold.Chemscore.Rot>
3.3203

> <Gold.Chemscore.Internal.Correction>
   9.000000E+99

> <Gold.Chemscore.Hbonds>
donor molecule, donor type, donor heavy atom, donor atom, acceptor molecule, acceptor atom, score
      L1  H    21    55       P1  7957  0.31
      P1  H  7989  7998       L1    22  0.13
      P1  H  8011  8017       L1    21  0.28
      P1  H 10752 10764       L1    24  0.12

> <Gold.Chemscore.Hbond.Weighted>
-6.0561

> <Gold.Chemscore.Metal.Weighted>
-0.0000

> <Gold.Chemscore.Lipo.Weighted>
-10.3211

> <Gold.Chemscore.Internal_Hbond.Weighted>
0.0000

> <Gold.Chemscore.DEClash.Weighted>
0.1996

> <Gold.Chemscore.DEInternal.Weighted>
1.0381

> <Gold.Chemscore.Rot.Weighted>
8.5000

> <Gold.Chemscore.Internal.Correction.Weighted>
   9.000000E+99

> <Gold.Protein.RotatedTorsions>
[ 6907 6896 6895 6894 ] final  137.75 input  -60.11 | X-H torsion
[ 7974 7965 7964 7962 ] final -174.15 input  175.53 | X-H torsion
[ 8008 7997 7996 7995 ] final  -40.12 input   59.86 | X-H torsion
[ 10167 10162 10161 10158 ] final -131.43 input  -65.29 | X-H torsion
[ 10718 10713 10712 10709 ] final  142.62 input   66.30 | X-H torsion
[ 10763 10752 10751 10750 ] final  -55.02 input  -60.55 | X-H torsion
[ 11005 11000 10999 10996 ] final -178.43 input  -57.11 | X-H torsion

> <Gold.Protein.ActiveResidues>
 VAL166  LYS551  ARG553  GLY616  TRP617  ASP618  TYR619  PRO620  LYS621  CYS622 
 ASP623  PHE694  ASN695  SER759  ASP760  ASP761  ALA762  ILE779  LEU786  VAL792 
 PHE793  MET794  SER795  GLU796  ALA797  LYS798  CYS799  TRP800  GLU811  SER814 

> <Gold.Protein.RotatedAtoms>
  152.2745  133.5413  159.5459 H   0  0  0  0  0  0  0  0  0  0  0  0  # atno 6907 bound_to 6896
  150.7172  134.0651  159.3853 H   0  0  0  0  0  0  0  0  0  0  0  0  # atno 6908 bound_to 6896
  151.8564  135.0540  160.0515 H   0  0  0  0  0  0  0  0  0  0  0  0  # atno 6909 bound_to 6896
  144.7133  140.1515  143.6384 H   0  0  0  0  0  0  0  0  0  0  0  0  # atno 7974 bound_to 7965
  154.4015  140.1534  156.2975 H   0  0  0  0  0  0  0  0  0  0  0  0  # atno 8008 bound_to 7997
  155.8730  140.3448  155.5813 H   0  0  0  0  0  0  0  0  0  0  0  0  # atno 8009 bound_to 7997
  155.7752  140.0836  157.2078 H   0  0  0  0  0  0  0  0  0  0  0  0  # atno 8010 bound_to 7997
  139.9190  143.6404  152.2558 H   0  0  0  0  0  0  0  0  0  0  0  0  # atno 10167 bound_to 10162
  157.3784  131.0989  151.0762 H   0  0  0  0  0  0  0  0  0  0  0  0  # atno 10718 bound_to 10713
  154.1842  135.6438  153.5042 H   0  0  0  0  0  0  0  0  0  0  0  0  # atno 10763 bound_to 10752
  153.0051  135.5413  154.6483 H   0  0  0  0  0  0  0  0  0  0  0  0  # atno 10764 bound_to 10752
  154.5855  135.2929  155.0662 H   0  0  0  0  0  0  0  0  0  0  0  0  # atno 10765 bound_to 10752
  140.4298  134.6529  157.4706 H   0  0  0  0  0  0  0  0  0  0  0  0  # atno 11005 bound_to 11000
  145.9112  139.2488  143.1436 LP  0  0  0  0  0  0  0  0  0  0  0  0  # atno 17320 bound_to 7965
  145.9714  140.8757  143.0160 LP  0  0  0  0  0  0  0  0  0  0  0  0  # atno 17321 bound_to 7965
  139.6877  144.7650  151.1494 LP  0  0  0  0  0  0  0  0  0  0  0  0  # atno 17342 bound_to 10162
  140.7667  143.5633  150.9075 LP  0  0  0  0  0  0  0  0  0  0  0  0  # atno 17343 bound_to 10162
  157.1840  130.6322  149.5681 LP  0  0  0  0  0  0  0  0  0  0  0  0  # atno 17370 bound_to 10713
  155.9770  130.4744  150.6567 LP  0  0  0  0  0  0  0  0  0  0  0  0  # atno 17371 bound_to 10713
  140.0142  134.6644  155.9335 LP  0  0  0  0  0  0  0  0  0  0  0  0  # atno 17394 bound_to 11000
  141.1750  133.6539  156.4794 LP  0  0  0  0  0  0  0  0  0  0  0  0  # atno 17395 bound_to 11000

$$$$
