AV-unprocessed.smi:2840|AV-procd|sdf|10934|dock8
  -GOLD-   2272015383D 1   1.00000     0.00000
 Structure written by MMmdl.
 36 37  0  0  0  0  0  0  0  0  1 V2000
  146.2264  141.9091  156.1236 C   0  0  0  0  0  0  0  0  0  0  0  0
  147.2319  140.7797  155.8371 C   0  0  1  0  0  0  0  0  0  0  0  0
  146.5492  139.6395  155.0543 C   0  0  0  0  0  0  0  0  0  0  0  0
  147.5190  138.4865  154.7565 C   0  0  0  0  0  0  0  0  0  0  0  0
  148.7529  138.9891  153.9956 C   0  0  0  0  0  0  0  0  0  0  0  0
  149.4555  140.1125  154.7712 C   0  0  0  0  0  0  0  0  0  0  0  0
  148.4956  141.2767  155.0875 C   0  0  2  0  0  0  0  0  0  0  0  0
  149.2150  142.2732  155.8802 N   0  0  0  0  0  0  0  0  0  0  0  0
  149.7750  142.0707  157.0824 C   0  0  0  0  0  0  0  0  0  0  0  0
  149.7575  140.9891  157.6707 O   0  0  0  0  0  0  0  0  0  0  0  0
  150.3479  143.1965  157.5428 N   0  0  0  0  0  0  0  0  0  0  0  0
  151.0543  143.3896  158.7598 C   0  0  0  0  0  0  0  0  0  0  0  0
  151.1525  144.7331  159.1872 C   0  0  0  0  0  0  0  0  0  0  0  0
  151.8372  145.0320  160.3810 C   0  0  0  0  0  0  0  0  0  0  0  0
  152.4065  143.9784  161.1181 C   0  0  0  0  0  0  0  0  0  0  0  0
  152.2637  142.6694  160.6221 C   0  0  0  0  0  0  0  0  0  0  0  0
  151.6083  142.3808  159.4780 N   0  0  0  0  0  0  0  0  0  0  0  0
  145.9026  142.3918  155.2008 H   0  0  0  0  0  0  0  0  0  0  0  0
  146.6536  142.6768  156.7684 H   0  0  0  0  0  0  0  0  0  0  0  0
  145.3385  141.5252  156.6267 H   0  0  0  0  0  0  0  0  0  0  0  0
  147.5481  140.3730  156.7992 H   0  0  0  0  0  0  0  0  0  0  0  0
  145.6969  139.2586  155.6180 H   0  0  0  0  0  0  0  0  0  0  0  0
  146.1485  140.0261  154.1160 H   0  0  0  0  0  0  0  0  0  0  0  0
  147.8293  138.0173  155.6909 H   0  0  0  0  0  0  0  0  0  0  0  0
  147.0129  137.7151  154.1754 H   0  0  0  0  0  0  0  0  0  0  0  0
  149.4460  138.1651  153.8247 H   0  0  0  0  0  0  0  0  0  0  0  0
  148.4548  139.3533  153.0116 H   0  0  0  0  0  0  0  0  0  0  0  0
  149.8646  139.7071  155.6979 H   0  0  0  0  0  0  0  0  0  0  0  0
  150.3059  140.4771  154.1935 H   0  0  0  0  0  0  0  0  0  0  0  0
  148.1805  141.7110  154.1366 H   0  0  0  0  0  0  0  0  0  0  0  0
  149.2871  143.1964  155.4786 H   0  0  0  0  0  0  0  0  0  0  0  0
  150.2729  144.0108  156.9514 H   0  0  0  0  0  0  0  0  0  0  0  0
  150.7087  145.5305  158.6086 H   0  0  0  0  0  0  0  0  0  0  0  0
  151.9239  146.0523  160.7237 H   0  0  0  0  0  0  0  0  0  0  0  0
  152.9392  144.1681  162.0383 H   0  0  0  0  0  0  0  0  0  0  0  0
  152.6872  141.8321  161.1569 H   0  0  0  0  0  0  0  0  0  0  0  0
  1  2  1  0  0  0  0
  1 18  1  0  0  0  0
  1 19  1  0  0  0  0
  1 20  1  0  0  0  0
  2  7  1  0  0  0  0
  2  3  1  0  0  0  0
  2 21  1  0  0  0  0
  3  4  1  0  0  0  0
  3 22  1  0  0  0  0
  3 23  1  0  0  0  0
  4  5  1  0  0  0  0
  4 24  1  0  0  0  0
  4 25  1  0  0  0  0
  5  6  1  0  0  0  0
  5 26  1  0  0  0  0
  5 27  1  0  0  0  0
  6  7  1  0  0  0  0
  6 28  1  0  0  0  0
  6 29  1  0  0  0  0
  7  8  1  0  0  0  0
  7 30  1  0  0  0  0
  8  9  1  0  0  0  0
  8 31  1  0  0  0  0
  9 10  2  0  0  0  0
  9 11  1  0  0  0  0
 11 12  1  0  0  0  0
 11 32  1  0  0  0  0
 12 17  1  0  0  0  0
 12 13  2  0  0  0  0
 13 14  1  0  0  0  0
 13 33  1  0  0  0  0
 14 15  2  0  0  0  0
 14 34  1  0  0  0  0
 15 16  1  0  0  0  0
 15 35  1  0  0  0  0
 16 17  2  0  0  0  0
 16 36  1  0  0  0  0
M  END
> <s_m_source_file>
AV-unprocessed.smi

> <i_m_source_file_index>
2840

> <i_lp_mmshare_version>
43012

> <i_f3d_flags>
0

> <s_epik_input>
W0NIM11bQ0BASF0xW0NIMl1bQ0gyXVtDSDJdW0NIMl1bQ0BIXTFbTkhdQyg9TylbTkhdYzJbY0hdW2NIXVtjSF1bY0hdbjI=

> <s_epik_cmdline>
J2VwaWtfcHl0aG9uJywgJy1waCcsICc3LjAnLCAnLXRuJywgJzgnLCAnLW1hJywgJzIwMCcsICctbWV0YWxfYmluZGluZycsICctaW1hZScsICc8aW5maWxlLm1hZT4nLCAnLW9tYWUnLCAnPG91dGZpbGUubWFlPic=

> <r_lp_tautomer_probability>
1

> <r_epik_Ionization_Penalty>
5.29956e-05

> <r_epik_Ionization_Penalty_Charging>
0

> <r_epik_Ionization_Penalty_Neutral>
5.29956e-05

> <r_epik_State_Penalty>
-0

> <r_epik_Charging_Adjusted_Penalty>
0

> <i_epik_Tot_Q>
0

> <i_epik_Tot_abs_Q>
0

> <r_epik_Metal_State_Penalty>
-0

> <b_epik_Metal_Only>
0

> <s_lp_Force_Field>
OPLS_2005

> <r_lp_Energy>
13.2298

> <b_lp_Chiralities_Consistent>
1

> <s_lp_Variant>
AV-unprocessed.smi:2840-4

> <Gold.Version>
5.8.1

> <Gold.Id.Protein>
6NUR|6NUR_protein|mol2

> <Gold.PLP.Fitness>
34.3229

> <Gold.PLP.PLP>
-29.1773

> <Gold.PLP.part.hbond>
-1.8971

> <Gold.PLP.part.metal>
0.0000

> <Gold.PLP.part.buried>
-4.5932

> <Gold.PLP.part.nonpolar>
-22.7098

> <Gold.PLP.part.repulsive>
0.1612

> <Gold.PLP.ligand.clash>
0.0000

> <Gold.PLP.ligand.torsion>
0.0931

> <Gold.PLP.Chemscore.Hbond>
1.7760

> <Gold.PLP.Chemscore.CHOScore>
0.0000

> <Gold.PLP.Chemscore.Metal>
0.0000

> <Gold.Chemscore.Hbonds>
donor molecule, donor type, donor heavy atom, donor atom, acceptor molecule, acceptor atom, score
      L1  H     8    31       P1  8028  0.91
      L1  H    11    32       P1  8028  0.72

> <Gold.PLP.Chemscore.Internal.Correction>
0.0039

> <Gold.Rescore>
     Score         DG    S(hbond)    S(metal)    S(lipo)     H(rot)  DE(clash)    DE(int)     intcor
     15.57     -17.73       1.86        0.00      73.50       1.00       0.02       2.14       ----

> <Gold.Chemscore.Fitness>
15.5707

> <Gold.Chemscore.DG>
-17.7338

> <Gold.Chemscore.ZeroCoef>
-5.4800

> <Gold.Chemscore.Hbond>
1.8606

> <Gold.Chemscore.Metal>
0.0000

> <Gold.Chemscore.Lipo>
73.4988

> <Gold.Chemscore.Internal_Hbond>
0.0000

> <Gold.Chemscore.DEClash>
0.0187

> <Gold.Chemscore.DEInternal>
2.1444

> <Gold.Chemscore.Rot>
1.0000

> <Gold.Chemscore.Internal.Correction>
   9.000000E+99

> <Gold.Chemscore.Hbonds>
donor molecule, donor type, donor heavy atom, donor atom, acceptor molecule, acceptor atom, score
      L1  H     8    31       P1  8028  0.86
      L1  H    11    32       P1  8028  0.68

> <Gold.Chemscore.Hbond.Weighted>
-6.2145

> <Gold.Chemscore.Metal.Weighted>
-0.0000

> <Gold.Chemscore.Lipo.Weighted>
-8.5994

> <Gold.Chemscore.Internal_Hbond.Weighted>
0.0000

> <Gold.Chemscore.DEClash.Weighted>
0.0187

> <Gold.Chemscore.DEInternal.Weighted>
2.1444

> <Gold.Chemscore.Rot.Weighted>
2.5600

> <Gold.Chemscore.Internal.Correction.Weighted>
   9.000000E+99

> <Gold.Protein.RotatedTorsions>
[ 6907 6896 6895 6894 ] final  -78.03 input  -60.11 | X-H torsion
[ 7974 7965 7964 7962 ] final  153.20 input  175.53 | X-H torsion
[ 8008 7997 7996 7995 ] final    1.24 input   59.86 | X-H torsion
[ 10167 10162 10161 10158 ] final -160.42 input  -65.29 | X-H torsion
[ 10718 10713 10712 10709 ] final  176.21 input   66.30 | X-H torsion
[ 10763 10752 10751 10750 ] final  -41.40 input  -60.55 | X-H torsion
[ 11005 11000 10999 10996 ] final -156.94 input  -57.11 | X-H torsion

> <Gold.Protein.ActiveResidues>
 VAL166  LYS551  ARG553  GLY616  TRP617  ASP618  TYR619  PRO620  LYS621  CYS622 
 ASP623  PHE694  ASN695  SER759  ASP760  ASP761  ALA762  ILE779  LEU786  VAL792 
 PHE793  MET794  SER795  GLU796  ALA797  LYS798  CYS799  TRP800  GLU811  SER814 

> <Gold.Protein.RotatedAtoms>
  150.6983  134.4334  159.5258 H   0  0  0  0  0  0  0  0  0  0  0  0  # atno 6907 bound_to 6896
  152.2056  134.8545  160.0512 H   0  0  0  0  0  0  0  0  0  0  0  0  # atno 6908 bound_to 6896
  151.9449  133.3614  159.4015 H   0  0  0  0  0  0  0  0  0  0  0  0  # atno 6909 bound_to 6896
  144.8171  139.6768  143.6117 H   0  0  0  0  0  0  0  0  0  0  0  0  # atno 7974 bound_to 7965
  154.6775  140.2625  155.6943 H   0  0  0  0  0  0  0  0  0  0  0  0  # atno 8008 bound_to 7997
  156.2683  140.2817  156.1229 H   0  0  0  0  0  0  0  0  0  0  0  0  # atno 8009 bound_to 7997
  155.1080  140.0375  157.2706 H   0  0  0  0  0  0  0  0  0  0  0  0  # atno 8010 bound_to 7997
  139.6541  144.0030  152.2182 H   0  0  0  0  0  0  0  0  0  0  0  0  # atno 10167 bound_to 10162
  156.9234  130.9948  151.3000 H   0  0  0  0  0  0  0  0  0  0  0  0  # atno 10718 bound_to 10713
  153.9619  135.6738  153.4745 H   0  0  0  0  0  0  0  0  0  0  0  0  # atno 10763 bound_to 10752
  153.0834  135.4911  154.8545 H   0  0  0  0  0  0  0  0  0  0  0  0  # atno 10764 bound_to 10752
  154.7268  135.3129  154.8918 H   0  0  0  0  0  0  0  0  0  0  0  0  # atno 10765 bound_to 10752
  140.6701  134.4257  157.5232 H   0  0  0  0  0  0  0  0  0  0  0  0  # atno 11005 bound_to 11000
  146.2474  139.6128  142.9450 LP  0  0  0  0  0  0  0  0  0  0  0  0  # atno 17320 bound_to 7965
  145.5190  141.0432  143.2446 LP  0  0  0  0  0  0  0  0  0  0  0  0  # atno 17321 bound_to 7965
  139.9752  144.6466  150.7951 LP  0  0  0  0  0  0  0  0  0  0  0  0  # atno 17342 bound_to 10162
  140.7551  143.3040  151.3009 LP  0  0  0  0  0  0  0  0  0  0  0  0  # atno 17343 bound_to 10162
  157.5893  130.8432  149.8635 LP  0  0  0  0  0  0  0  0  0  0  0  0  # atno 17370 bound_to 10713
  156.0480  130.3723  150.1270 LP  0  0  0  0  0  0  0  0  0  0  0  0  # atno 17371 bound_to 10713
  139.8984  134.8613  156.2001 LP  0  0  0  0  0  0  0  0  0  0  0  0  # atno 17394 bound_to 11000
  141.0399  133.6943  156.1579 LP  0  0  0  0  0  0  0  0  0  0  0  0  # atno 17395 bound_to 11000

$$$$
