AV-unprocessed.smi:2069|AV-procd|sdf|8433|dock9
  -GOLD-   2272011133D 1   1.00000     0.00000
 Structure written by MMmdl.
 39 40  0  0  0  0  0  0  0  0  2 V2000
  151.8178  141.2071  158.0725 C   0  0  0  0  0  0  0  0  0  0  0  0
  151.4815  140.5081  156.7996 C   0  0  0  0  0  0  0  0  0  0  0  0
  152.3995  139.8898  156.0468 N   0  0  0  0  0  0  0  0  0  0  0  0
  151.8471  139.3116  154.9127 N   0  0  0  0  0  0  0  0  0  0  0  0
  150.5238  139.5110  154.8439 C   0  0  0  0  0  0  0  0  0  0  0  0
  149.7068  139.0254  153.7886 N   0  0  0  0  0  0  0  0  0  0  0  0
  148.4155  139.3061  153.5400 C   0  0  0  0  0  0  0  0  0  0  0  0
  147.7029  140.0439  154.2209 O   0  0  0  0  0  0  0  0  0  0  0  0
  147.9865  138.6828  152.4321 N   0  0  0  0  0  0  0  0  0  0  0  0
  146.6341  138.7679  151.8841 C   0  0  0  0  0  0  0  0  0  0  0  0
  145.6340  137.7948  152.5644 C   0  0  2  0  0  0  0  0  0  0  0  0
  145.5675  138.0487  154.0911 C   0  0  0  0  0  0  0  0  0  0  0  0
  145.9780  136.3766  152.2130 N   0  3  0  0  0  0  0  0  0  0  0  0
  145.7230  135.3669  153.2781 C   0  0  0  0  0  0  0  0  0  0  0  0
  146.1450  133.9591  152.8228 C   0  0  0  0  0  0  0  0  0  0  0  0
  145.4674  133.6143  151.6241 O   0  0  0  0  0  0  0  0  0  0  0  0
  145.7922  134.5070  150.5693 C   0  0  0  0  0  0  0  0  0  0  0  0
  145.3411  135.9279  150.9442 C   0  0  0  0  0  0  0  0  0  0  0  0
  149.8392  140.4304  156.1733 S   0  0  0  0  0  0  0  0  0  0  0  0
  152.8986  141.2799  158.1979 H   0  0  0  0  0  0  0  0  0  0  0  0
  151.4036  140.6588  158.9185 H   0  0  0  0  0  0  0  0  0  0  0  0
  151.3994  142.2136  158.0678 H   0  0  0  0  0  0  0  0  0  0  0  0
  150.1634  138.3985  153.1429 H   0  0  0  0  0  0  0  0  0  0  0  0
  148.6416  138.0970  151.9349 H   0  0  0  0  0  0  0  0  0  0  0  0
  146.3286  139.8033  152.0205 H   0  0  0  0  0  0  0  0  0  0  0  0
  146.6396  138.6006  150.8055 H   0  0  0  0  0  0  0  0  0  0  0  0
  144.6357  137.9989  152.1737 H   0  0  0  0  0  0  0  0  0  0  0  0
  145.3084  139.0817  154.3188 H   0  0  0  0  0  0  0  0  0  0  0  0
  146.5229  137.8371  154.5725 H   0  0  0  0  0  0  0  0  0  0  0  0
  144.7972  137.4495  154.5763 H   0  0  0  0  0  0  0  0  0  0  0  0
  146.2919  135.5979  154.1782 H   0  0  0  0  0  0  0  0  0  0  0  0
  144.6650  135.3736  153.5448 H   0  0  0  0  0  0  0  0  0  0  0  0
  147.2247  133.9059  152.6734 H   0  0  0  0  0  0  0  0  0  0  0  0
  145.8957  133.2268  153.5910 H   0  0  0  0  0  0  0  0  0  0  0  0
  146.8633  134.4772  150.3625 H   0  0  0  0  0  0  0  0  0  0  0  0
  145.2839  134.1790  149.6624 H   0  0  0  0  0  0  0  0  0  0  0  0
  144.2556  135.9519  151.0533 H   0  0  0  0  0  0  0  0  0  0  0  0
  145.5892  136.5929  150.1196 H   0  0  0  0  0  0  0  0  0  0  0  0
  146.9765  136.3626  152.0604 H   0  0  0  0  0  0  0  0  0  0  0  0
  1  2  1  0  0  0  0
  1 20  1  0  0  0  0
  1 21  1  0  0  0  0
  1 22  1  0  0  0  0
  2 19  1  0  0  0  0
  2  3  2  0  0  0  0
  3  4  1  0  0  0  0
  4  5  2  0  0  0  0
  5  6  1  0  0  0  0
  5 19  1  0  0  0  0
  6  7  1  0  0  0  0
  6 23  1  0  0  0  0
  7  8  2  0  0  0  0
  7  9  1  0  0  0  0
  9 10  1  0  0  0  0
  9 24  1  0  0  0  0
 10 11  1  0  0  0  0
 10 25  1  0  0  0  0
 10 26  1  0  0  0  0
 11 12  1  0  0  0  0
 11 13  1  0  0  0  0
 11 27  1  0  0  0  0
 12 28  1  0  0  0  0
 12 29  1  0  0  0  0
 12 30  1  0  0  0  0
 13 18  1  0  0  0  0
 13 14  1  0  0  0  0
 13 39  1  0  0  0  0
 14 15  1  0  0  0  0
 14 31  1  0  0  0  0
 14 32  1  0  0  0  0
 15 16  1  0  0  0  0
 15 33  1  0  0  0  0
 15 34  1  0  0  0  0
 16 17  1  0  0  0  0
 17 18  1  0  0  0  0
 17 35  1  0  0  0  0
 17 36  1  0  0  0  0
 18 37  1  0  0  0  0
 18 38  1  0  0  0  0
M  CHG  1  13   1
M  END
> <s_m_source_file>
AV-unprocessed.smi

> <i_m_source_file_index>
2069

> <i_lp_mmshare_version>
43012

> <i_f3d_flags>
0

> <s_epik_input>
W0NIM11jMW5uYyhzMSlbTkhdQyg9TylbTkhdW0NIMl1bQ0BIXShbQ0gzXSlOMltDSDJdW0NIMl1PW0NIMl1bQ0gyXTI=

> <s_epik_cmdline>
J2VwaWtfcHl0aG9uJywgJy1waCcsICc3LjAnLCAnLXRuJywgJzgnLCAnLW1hJywgJzIwMCcsICctbWV0YWxfYmluZGluZycsICctaW1hZScsICc8aW5maWxlLm1hZT4nLCAnLW9tYWUnLCAnPG91dGZpbGUubWFlPic=

> <r_lp_tautomer_probability>
1

> <r_epik_Ionization_Penalty>
0.70016

> <r_epik_Ionization_Penalty_Charging>
0.695697

> <r_epik_Ionization_Penalty_Neutral>
0.00446266

> <r_epik_State_Penalty>
0.717972

> <r_epik_Charging_Adjusted_Penalty>
1.41367

> <i_epik_Tot_Q>
1

> <i_epik_Tot_abs_Q>
1

> <r_epik_Metal_State_Penalty>
1.06969

> <b_epik_Metal_Only>
0

> <s_lp_Force_Field>
OPLS_2005

> <r_lp_Energy>
19.5762

> <b_lp_Chiralities_Consistent>
1

> <s_lp_Variant>
AV-unprocessed.smi:2069-3

> <Gold.Version>
5.8.1

> <Gold.Id.Protein>
6NUR|6NUR_protein|mol2

> <Gold.PLP.Fitness>
38.2132

> <Gold.PLP.PLP>
-29.0028

> <Gold.PLP.part.hbond>
-5.8766

> <Gold.PLP.part.metal>
0.0000

> <Gold.PLP.part.buried>
-1.3562

> <Gold.PLP.part.nonpolar>
-22.1735

> <Gold.PLP.part.repulsive>
0.4533

> <Gold.PLP.ligand.clash>
0.0000

> <Gold.PLP.ligand.torsion>
1.0714

> <Gold.PLP.Chemscore.Hbond>
3.7680

> <Gold.PLP.Chemscore.CHOScore>
0.0000

> <Gold.PLP.Chemscore.Metal>
0.0000

> <Gold.Chemscore.Hbonds>
donor molecule, donor type, donor heavy atom, donor atom, acceptor molecule, acceptor atom, score
      L1  H     9    24       P1  7948  0.72
      L1  H    13    39       P1  7948  2.00
      P1  H  7997  8008       L1     3  1.00

> <Gold.PLP.Chemscore.Internal.Correction>
0.0492

> <Gold.Rescore>
     Score         DG    S(hbond)    S(metal)    S(lipo)     H(rot)  DE(clash)    DE(int)     intcor
     12.78     -16.73       2.83        0.00      51.35       1.65       0.57       3.37       ----

> <Gold.Chemscore.Fitness>
12.7839

> <Gold.Chemscore.DG>
-16.7313

> <Gold.Chemscore.ZeroCoef>
-5.4800

> <Gold.Chemscore.Hbond>
2.8328

> <Gold.Chemscore.Metal>
0.0000

> <Gold.Chemscore.Lipo>
51.3476

> <Gold.Chemscore.Internal_Hbond>
0.0000

> <Gold.Chemscore.DEClash>
0.5733

> <Gold.Chemscore.DEInternal>
3.3741

> <Gold.Chemscore.Rot>
1.6476

> <Gold.Chemscore.Internal.Correction>
   9.000000E+99

> <Gold.Chemscore.Hbonds>
donor molecule, donor type, donor heavy atom, donor atom, acceptor molecule, acceptor atom, score
      L1  H     9    24       P1  7948  0.71
      L1  H    13    39       P1  7948  0.98
      P1  H  7997  8008       L1     3  0.91

> <Gold.Chemscore.Hbond.Weighted>
-9.4616

> <Gold.Chemscore.Metal.Weighted>
-0.0000

> <Gold.Chemscore.Lipo.Weighted>
-6.0077

> <Gold.Chemscore.Internal_Hbond.Weighted>
0.0000

> <Gold.Chemscore.DEClash.Weighted>
0.5733

> <Gold.Chemscore.DEInternal.Weighted>
3.3741

> <Gold.Chemscore.Rot.Weighted>
4.2179

> <Gold.Chemscore.Internal.Correction.Weighted>
   9.000000E+99

> <Gold.Protein.RotatedTorsions>
[ 6907 6896 6895 6894 ] final -140.19 input  -60.11 | X-H torsion
[ 7974 7965 7964 7962 ] final   36.58 input  175.53 | X-H torsion
[ 8008 7997 7996 7995 ] final  -25.78 input   59.86 | X-H torsion
[ 10167 10162 10161 10158 ] final  104.83 input  -65.29 | X-H torsion
[ 10718 10713 10712 10709 ] final -130.41 input   66.30 | X-H torsion
[ 10763 10752 10751 10750 ] final  169.33 input  -60.55 | X-H torsion
[ 11005 11000 10999 10996 ] final  173.67 input  -57.11 | X-H torsion

> <Gold.Protein.ActiveResidues>
 VAL166  LYS551  ARG553  GLY616  TRP617  ASP618  TYR619  PRO620  LYS621  CYS622 
 ASP623  PHE694  ASN695  SER759  ASP760  ASP761  ALA762  ILE779  LEU786  VAL792 
 PHE793  MET794  SER795  GLU796  ALA797  LYS798  CYS799  TRP800  GLU811  SER814 

> <Gold.Protein.RotatedAtoms>
  151.0575  133.5572  159.2636 H   0  0  0  0  0  0  0  0  0  0  0  0  # atno 6907 bound_to 6896
  151.2559  135.0637  159.9090 H   0  0  0  0  0  0  0  0  0  0  0  0  # atno 6908 bound_to 6896
  152.5392  134.0328  159.8086 H   0  0  0  0  0  0  0  0  0  0  0  0  # atno 6909 bound_to 6896
  146.1200  139.5999  142.9296 H   0  0  0  0  0  0  0  0  0  0  0  0  # atno 7974 bound_to 7965
  154.4458  140.1917  156.0672 H   0  0  0  0  0  0  0  0  0  0  0  0  # atno 8008 bound_to 7997
  156.0538  140.3305  155.7355 H   0  0  0  0  0  0  0  0  0  0  0  0  # atno 8009 bound_to 7997
  155.5517  140.0595  157.2839 H   0  0  0  0  0  0  0  0  0  0  0  0  # atno 8010 bound_to 7997
  139.7144  144.7071  151.0975 H   0  0  0  0  0  0  0  0  0  0  0  0  # atno 10167 bound_to 10162
  156.2141  130.6937  151.0683 H   0  0  0  0  0  0  0  0  0  0  0  0  # atno 10718 bound_to 10713
  154.3815  135.2753  155.2208 H   0  0  0  0  0  0  0  0  0  0  0  0  # atno 10763 bound_to 10752
  154.4313  135.5976  153.6074 H   0  0  0  0  0  0  0  0  0  0  0  0  # atno 10764 bound_to 10752
  152.9834  135.5996  154.4058 H   0  0  0  0  0  0  0  0  0  0  0  0  # atno 10765 bound_to 10752
  140.3430  134.7260  157.4215 H   0  0  0  0  0  0  0  0  0  0  0  0  # atno 11005 bound_to 11000
  145.5485  141.0415  143.2291 LP  0  0  0  0  0  0  0  0  0  0  0  0  # atno 17320 bound_to 7965
  144.7589  139.7006  143.7243 LP  0  0  0  0  0  0  0  0  0  0  0  0  # atno 17321 bound_to 7965
  140.7740  143.5250  150.9491 LP  0  0  0  0  0  0  0  0  0  0  0  0  # atno 17342 bound_to 10162
  139.8935  143.6923  152.3142 LP  0  0  0  0  0  0  0  0  0  0  0  0  # atno 17343 bound_to 10162
  157.7054  131.0758  150.6684 LP  0  0  0  0  0  0  0  0  0  0  0  0  # atno 17370 bound_to 10713
  156.6744  130.4549  149.5647 LP  0  0  0  0  0  0  0  0  0  0  0  0  # atno 17371 bound_to 10713
  140.0765  134.5789  155.8585 LP  0  0  0  0  0  0  0  0  0  0  0  0  # atno 17394 bound_to 11000
  141.2033  133.6631  156.6057 LP  0  0  0  0  0  0  0  0  0  0  0  0  # atno 17395 bound_to 11000

$$$$
