AV-unprocessed.smi:54|AV-procd|sdf|556|dock8
  -GOLD-   2262016453D 1   1.00000     0.00000
 Structure written by MMmdl.
 43 45  0  0  0  0  0  0  0  0  2 V2000
  145.6165  136.9136  161.5882 C   0  0  0  0  0  0  0  0  0  0  0  0
  146.6208  135.8218  161.1842 C   0  0  0  0  0  0  0  0  0  0  0  0
  147.2484  135.1557  162.4199 C   0  0  0  0  0  0  0  0  0  0  0  0
  147.7075  136.3972  160.2650 C   0  0  0  0  0  0  0  0  0  0  0  0
  148.4245  137.3095  160.6816 O   0  0  0  0  0  0  0  0  0  0  0  0
  147.7734  135.8436  159.0342 N   0  0  0  0  0  0  0  0  0  0  0  0
  148.6196  136.1654  157.9674 C   0  0  0  0  0  0  0  0  0  0  0  0
  148.0475  136.9337  157.0735 N   0  0  0  0  0  0  0  0  0  0  0  0
  148.8874  137.2505  156.0235 C   0  0  0  0  0  0  0  0  0  0  0  0
  150.1795  136.8408  155.8365 C   0  0  0  0  0  0  0  0  0  0  0  0
  150.7144  137.3608  154.6640 N   0  0  0  0  0  0  0  0  0  0  0  0
  149.6973  138.0770  154.1885 C   0  0  0  0  0  0  0  0  0  0  0  0
  148.5766  138.0642  154.9367 N   0  0  0  0  0  0  0  0  0  0  0  0
  147.3023  138.7840  154.6298 C   0  0  1  0  0  0  0  0  0  0  0  0
  147.1589  139.8224  155.5476 O   0  0  0  0  0  0  0  0  0  0  0  0
  146.6433  140.9693  154.8897 C   0  0  1  0  0  0  0  0  0  0  0  0
  146.9401  142.2394  155.7065 C   0  0  0  0  0  0  0  0  0  0  0  0
  148.3214  142.3361  155.9827 O   0  0  0  0  0  0  0  0  0  0  0  0
  147.2301  140.8935  153.4715 C   0  0  1  0  0  0  0  0  0  0  0  0
  148.5002  141.5107  153.3883 O   0  0  0  0  0  0  0  0  0  0  0  0
  147.3430  139.3927  153.2158 C   0  0  2  0  0  0  0  0  0  0  0  0
  146.2366  138.9595  152.4493 O   0  0  0  0  0  0  0  0  0  0  0  0
  150.7580  135.9526  156.8724 C   0  0  0  0  0  0  0  0  0  0  0  0
  151.9134  135.5535  156.7405 O   0  0  0  0  0  0  0  0  0  0  0  0
  149.9281  135.6456  157.9137 N   0  5  0  0  0  0  0  0  0  0  0  0
  146.5175  138.0382  154.7667 H   0  0  0  0  0  0  0  0  0  0  0  0
  145.5626  140.8304  154.8243 H   0  0  0  0  0  0  0  0  0  0  0  0
  146.5824  141.3930  152.7495 H   0  0  0  0  0  0  0  0  0  0  0  0
  148.2630  139.1240  152.6932 H   0  0  0  0  0  0  0  0  0  0  0  0
  145.1758  137.3904  160.7118 H   0  0  0  0  0  0  0  0  0  0  0  0
  146.0889  137.6918  162.1889 H   0  0  0  0  0  0  0  0  0  0  0  0
  144.8000  136.4934  162.1760 H   0  0  0  0  0  0  0  0  0  0  0  0
  146.0743  135.0541  160.6338 H   0  0  0  0  0  0  0  0  0  0  0  0
  147.9654  134.3856  162.1332 H   0  0  0  0  0  0  0  0  0  0  0  0
  146.4846  134.6789  163.0348 H   0  0  0  0  0  0  0  0  0  0  0  0
  147.7702  135.8806  163.0458 H   0  0  0  0  0  0  0  0  0  0  0  0
  147.0611  135.1554  158.8416 H   0  0  0  0  0  0  0  0  0  0  0  0
  149.7703  138.6321  153.2648 H   0  0  0  0  0  0  0  0  0  0  0  0
  146.6427  143.1208  155.1380 H   0  0  0  0  0  0  0  0  0  0  0  0
  146.3730  142.2603  156.6377 H   0  0  0  0  0  0  0  0  0  0  0  0
  148.6166  143.1992  155.7354 H   0  0  0  0  0  0  0  0  0  0  0  0
  149.0408  141.0031  152.8028 H   0  0  0  0  0  0  0  0  0  0  0  0
  145.5771  139.6359  152.4667 H   0  0  0  0  0  0  0  0  0  0  0  0
  1  2  1  0  0  0  0
  1 30  1  0  0  0  0
  1 31  1  0  0  0  0
  1 32  1  0  0  0  0
  2  3  1  0  0  0  0
  2  4  1  0  0  0  0
  2 33  1  0  0  0  0
  3 34  1  0  0  0  0
  3 35  1  0  0  0  0
  3 36  1  0  0  0  0
  4  5  2  0  0  0  0
  4  6  1  0  0  0  0
  6 37  1  0  0  0  0
  6  7  1  0  0  0  0
  7 25  1  0  0  0  0
  7  8  2  0  0  0  0
  8  9  1  0  0  0  0
  9 13  1  0  0  0  0
  9 10  2  0  0  0  0
 10 11  1  0  0  0  0
 10 23  1  0  0  0  0
 11 12  2  0  0  0  0
 12 13  1  0  0  0  0
 12 38  1  0  0  0  0
 13 14  1  0  0  0  0
 14 26  1  0  0  0  0
 14 21  1  0  0  0  0
 14 15  1  0  0  0  0
 15 16  1  0  0  0  0
 16 27  1  0  0  0  0
 16 17  1  0  0  0  0
 16 19  1  0  0  0  0
 17 18  1  0  0  0  0
 17 39  1  0  0  0  0
 17 40  1  0  0  0  0
 18 41  1  0  0  0  0
 19 28  1  0  0  0  0
 19 20  1  0  0  0  0
 19 21  1  0  0  0  0
 20 42  1  0  0  0  0
 21 29  1  0  0  0  0
 21 22  1  0  0  0  0
 22 43  1  0  0  0  0
 23 24  2  0  0  0  0
 23 25  1  0  0  0  0
M  CHG  1  25  -1
M  END
> <s_m_source_file>
AV-unprocessed.smi

> <i_m_source_file_index>
54

> <i_lp_mmshare_version>
43012

> <i_f3d_flags>
0

> <s_epik_input>
W0NIM11bQ0hdKFtDSDNdKUMoPU8pW05IXWMobjEpW25IXWMoPU8pYyhjMTIpbltjSF1uMltDQEBIXTNPW0NASF0oW0NIMl1bT0hdKVtDQEBIXShbT0hdKVtDQEhdM1tPSF0=

> <s_epik_cmdline>
J2VwaWtfcHl0aG9uJywgJy1waCcsICc3LjAnLCAnLXRuJywgJzgnLCAnLW1hJywgJzIwMCcsICctbWV0YWxfYmluZGluZycsICctaW1hZScsICc8aW5maWxlLm1hZT4nLCAnLW9tYWUnLCAnPG91dGZpbGUubWFlPic=

> <r_lp_tautomer_probability>
0.85571

> <r_epik_Ionization_Penalty>
1.75936

> <r_epik_Ionization_Penalty_Charging>
4.55893e-11

> <r_epik_Ionization_Penalty_Neutral>
1.75936

> <r_epik_State_Penalty>
1.72072

> <r_epik_Charging_Adjusted_Penalty>
1.72072

> <i_epik_Tot_Q>
-1

> <i_epik_Tot_abs_Q>
1

> <r_epik_Metal_State_Penalty>
0.400338

> <b_epik_Metal_Only>
1

> <s_epik_Chemistry_Notes>
This compound contains an acetal/aminal-like group ( X-CH(R)-Y where X, Y are N, S, or O) that may be acid/base labile, releasing an aldehyde.

> <s_lp_Force_Field>
OPLS_2005

> <r_lp_Energy>
57.3422

> <b_lp_Chiralities_Consistent>
1

> <s_lp_Variant>
AV-unprocessed.smi:54-28

> <Gold.Version>
5.8.1

> <Gold.Id.Protein>
6NUR|6NUR_protein|mol2

> <Gold.PLP.Fitness>
50.3343

> <Gold.PLP.PLP>
-29.0212

> <Gold.PLP.part.hbond>
-7.8337

> <Gold.PLP.part.metal>
0.0000

> <Gold.PLP.part.buried>
-1.4446

> <Gold.PLP.part.nonpolar>
-19.4365

> <Gold.PLP.part.repulsive>
0.2669

> <Gold.PLP.ligand.clash>
0.0000

> <Gold.PLP.ligand.torsion>
0.9259

> <Gold.PLP.Chemscore.Hbond>
6.7364

> <Gold.PLP.Chemscore.CHOScore>
0.9742

> <Gold.PLP.Chemscore.Metal>
0.0000

> <Gold.Chemscore.Hbonds>
donor molecule, donor type, donor heavy atom, donor atom, acceptor molecule, acceptor atom, score
      L1  H    18    41       P1  8028  1.00
      L1  H    20    42       P1  7957  1.00
      L1  H    22    43       P1 10175  0.91
      P1  H  6896  6908       L1    25  1.60
      P1  H  6931  6943       L1     5  0.75
      P1  H  6934  6947       L1     5  0.41
      P1  H 10752 10763       L1    24  0.84
      L1  C    12    38       P1  7948  0.03
      L1  C    12    38       P1  7957  1.00

> <Gold.PLP.Chemscore.Internal.Correction>
0.0331

> <Gold.Rescore>
     Score         DG    S(hbond)    S(metal)    S(lipo)     H(rot)  DE(clash)    DE(int)     intcor
     17.99     -19.24       5.64        0.00      44.57       4.02       0.26       1.00       ----

> <Gold.Chemscore.Fitness>
17.9855

> <Gold.Chemscore.DG>
-19.2428

> <Gold.Chemscore.ZeroCoef>
-5.4800

> <Gold.Chemscore.Hbond>
5.6398

> <Gold.Chemscore.Metal>
0.0000

> <Gold.Chemscore.Lipo>
44.5744

> <Gold.Chemscore.Internal_Hbond>
0.0000

> <Gold.Chemscore.DEClash>
0.2589

> <Gold.Chemscore.DEInternal>
0.9984

> <Gold.Chemscore.Rot>
4.0192

> <Gold.Chemscore.Internal.Correction>
   9.000000E+99

> <Gold.Chemscore.Hbonds>
donor molecule, donor type, donor heavy atom, donor atom, acceptor molecule, acceptor atom, score
      L1  H    18    41       P1  8028  0.93
      L1  H    20    42       P1  7957  0.97
      L1  H    22    43       P1 10175  0.86
      P1  H  6896  6908       L1    25  0.73
      P1  H  6931  6943       L1     5  0.76
      P1  H  6934  6947       L1     5  0.27
      P1  H 10752 10763       L1    24  0.82

> <Gold.Chemscore.Hbond.Weighted>
-18.8369

> <Gold.Chemscore.Metal.Weighted>
-0.0000

> <Gold.Chemscore.Lipo.Weighted>
-5.2152

> <Gold.Chemscore.Internal_Hbond.Weighted>
0.0000

> <Gold.Chemscore.DEClash.Weighted>
0.2589

> <Gold.Chemscore.DEInternal.Weighted>
0.9984

> <Gold.Chemscore.Rot.Weighted>
10.2893

> <Gold.Chemscore.Internal.Correction.Weighted>
   9.000000E+99

> <Gold.Protein.RotatedTorsions>
[ 6907 6896 6895 6894 ] final  168.73 input  -60.11 | X-H torsion
[ 7974 7965 7964 7962 ] final -172.37 input  175.53 | X-H torsion
[ 8008 7997 7996 7995 ] final -139.16 input   59.86 | X-H torsion
[ 10167 10162 10161 10158 ] final -112.07 input  -65.29 | X-H torsion
[ 10718 10713 10712 10709 ] final  164.47 input   66.30 | X-H torsion
[ 10763 10752 10751 10750 ] final   86.27 input  -60.55 | X-H torsion
[ 11005 11000 10999 10996 ] final -118.24 input  -57.11 | X-H torsion

> <Gold.Protein.ActiveResidues>
 VAL166  LYS551  ARG553  GLY616  TRP617  ASP618  TYR619  PRO620  LYS621  CYS622 
 ASP623  PHE694  ASN695  SER759  ASP760  ASP761  ALA762  ILE779  LEU786  VAL792 
 PHE793  MET794  SER795  GLU796  ALA797  LYS798  CYS799  TRP800  GLU811  SER814 

> <Gold.Protein.RotatedAtoms>
  151.8431  133.3427  159.3649 H   0  0  0  0  0  0  0  0  0  0  0  0  # atno 6907 bound_to 6896
  150.7229  134.5372  159.5739 H   0  0  0  0  0  0  0  0  0  0  0  0  # atno 6908 bound_to 6896
  152.2850  134.7787  160.0440 H   0  0  0  0  0  0  0  0  0  0  0  0  # atno 6909 bound_to 6896
  144.7147  140.1783  143.6361 H   0  0  0  0  0  0  0  0  0  0  0  0  # atno 7974 bound_to 7965
  155.4402  140.0531  157.3011 H   0  0  0  0  0  0  0  0  0  0  0  0  # atno 8008 bound_to 7997
  154.4821  140.2086  155.9696 H   0  0  0  0  0  0  0  0  0  0  0  0  # atno 8009 bound_to 7997
  156.1221  140.3186  155.8229 H   0  0  0  0  0  0  0  0  0  0  0  0  # atno 8010 bound_to 7997
  140.1267  143.4396  152.1655 H   0  0  0  0  0  0  0  0  0  0  0  0  # atno 10167 bound_to 10162
  157.0938  131.0425  151.2526 H   0  0  0  0  0  0  0  0  0  0  0  0  # atno 10718 bound_to 10713
  153.1554  135.4586  154.9697 H   0  0  0  0  0  0  0  0  0  0  0  0  # atno 10763 bound_to 10752
  154.7857  135.3203  154.7893 H   0  0  0  0  0  0  0  0  0  0  0  0  # atno 10764 bound_to 10752
  153.8391  135.6931  153.4859 H   0  0  0  0  0  0  0  0  0  0  0  0  # atno 10765 bound_to 10752
  141.0299  133.9996  157.3158 H   0  0  0  0  0  0  0  0  0  0  0  0  # atno 11005 bound_to 11000
  145.8880  139.2360  143.1566 LP  0  0  0  0  0  0  0  0  0  0  0  0  # atno 17320 bound_to 7965
  145.9931  140.8585  143.0056 LP  0  0  0  0  0  0  0  0  0  0  0  0  # atno 17321 bound_to 7965
  139.5540  144.7359  151.4348 LP  0  0  0  0  0  0  0  0  0  0  0  0  # atno 17342 bound_to 10162
  140.6841  143.8015  150.7161 LP  0  0  0  0  0  0  0  0  0  0  0  0  # atno 17343 bound_to 10162
  157.4698  130.7702  149.7313 LP  0  0  0  0  0  0  0  0  0  0  0  0  # atno 17370 bound_to 10713
  155.9891  130.3954  150.3088 LP  0  0  0  0  0  0  0  0  0  0  0  0  # atno 17371 bound_to 10713
  139.9201  135.0200  156.8031 LP  0  0  0  0  0  0  0  0  0  0  0  0  # atno 17394 bound_to 11000
  140.6424  133.9806  155.7714 LP  0  0  0  0  0  0  0  0  0  0  0  0  # atno 17395 bound_to 11000

$$$$
