AV-unprocessed.smi:1385|AV-procd|sdf|5631|dock5
  -GOLD-   22720 5243D 1   1.00000     0.00000
 Structure written by MMmdl.
 37 38  0  0  0  0  0  0  0  0  2 V2000
  153.0282  142.6558  162.5942 C   0  0  0  0  0  0  0  0  0  0  0  0
  153.4188  141.6630  161.5535 C   0  0  0  0  0  0  0  0  0  0  0  0
  154.4028  140.7784  161.7321 N   0  0  0  0  0  0  0  0  0  0  0  0
  154.5798  139.9628  160.6239 N   0  0  0  0  0  0  0  0  0  0  0  0
  153.7379  140.2491  159.6204 C   0  0  0  0  0  0  0  0  0  0  0  0
  153.7441  139.5751  158.4585 N   0  5  0  0  0  0  0  0  0  0  0  0
  152.5787  139.3134  157.8240 C   0  0  0  0  0  0  0  0  0  0  0  0
  151.4456  139.5359  158.2572 O   0  0  0  0  0  0  0  0  0  0  0  0
  152.7363  138.7603  156.6129 N   0  0  0  0  0  0  0  0  0  0  0  0
  151.6639  138.3799  155.6976 C   0  0  0  0  0  0  0  0  0  0  0  0
  150.8136  139.6078  155.3454 C   0  0  0  0  0  0  0  0  0  0  0  0
  149.6086  139.2128  154.4741 C   0  0  0  0  0  0  0  0  0  0  0  0
  148.7727  138.2240  155.1635 N   0  0  0  0  0  0  0  0  0  0  0  0
  147.5605  137.9616  154.3552 C   0  0  0  0  0  0  0  0  0  0  0  0
  146.6891  139.1975  154.1029 C   0  0  0  0  0  0  0  0  0  0  0  0
  145.5510  139.0156  153.4286 N   0  0  0  0  0  0  0  0  0  0  0  0
  147.0379  140.3005  154.5180 O   0  0  0  0  0  0  0  0  0  0  0  0
  149.5469  137.0030  155.4332 C   0  0  0  0  0  0  0  0  0  0  0  0
  150.7573  137.3127  156.3311 C   0  0  0  0  0  0  0  0  0  0  0  0
  152.6247  141.5655  159.9910 S   0  0  0  0  0  0  0  0  0  0  0  0
  153.7164  143.5009  162.5790 H   0  0  0  0  0  0  0  0  0  0  0  0
  153.0546  142.1977  163.5834 H   0  0  0  0  0  0  0  0  0  0  0  0
  152.0187  143.0221  162.4071 H   0  0  0  0  0  0  0  0  0  0  0  0
  153.6817  138.5979  156.2988 H   0  0  0  0  0  0  0  0  0  0  0  0
  152.0948  137.9851  154.7756 H   0  0  0  0  0  0  0  0  0  0  0  0
  150.4590  140.0923  156.2568 H   0  0  0  0  0  0  0  0  0  0  0  0
  151.4227  140.3444  154.8203 H   0  0  0  0  0  0  0  0  0  0  0  0
  149.0227  140.1076  154.2599 H   0  0  0  0  0  0  0  0  0  0  0  0
  149.9494  138.8200  153.5144 H   0  0  0  0  0  0  0  0  0  0  0  0
  147.8542  137.5761  153.3776 H   0  0  0  0  0  0  0  0  0  0  0  0
  146.9640  137.1789  154.8282 H   0  0  0  0  0  0  0  0  0  0  0  0
  144.9469  139.8013  153.2360 H   0  0  0  0  0  0  0  0  0  0  0  0
  145.3009  138.0906  153.1106 H   0  0  0  0  0  0  0  0  0  0  0  0
  148.9355  136.2578  155.9417 H   0  0  0  0  0  0  0  0  0  0  0  0
  149.8785  136.5534  154.4956 H   0  0  0  0  0  0  0  0  0  0  0  0
  151.3235  136.3979  156.5103 H   0  0  0  0  0  0  0  0  0  0  0  0
  150.4063  137.6536  157.3065 H   0  0  0  0  0  0  0  0  0  0  0  0
  1  2  1  0  0  0  0
  1 21  1  0  0  0  0
  1 22  1  0  0  0  0
  1 23  1  0  0  0  0
  2 20  1  0  0  0  0
  2  3  2  0  0  0  0
  3  4  1  0  0  0  0
  4  5  2  0  0  0  0
  5  6  1  0  0  0  0
  5 20  1  0  0  0  0
  6  7  1  0  0  0  0
  7  8  2  0  0  0  0
  7  9  1  0  0  0  0
  9 10  1  0  0  0  0
  9 24  1  0  0  0  0
 10 19  1  0  0  0  0
 10 11  1  0  0  0  0
 10 25  1  0  0  0  0
 11 12  1  0  0  0  0
 11 26  1  0  0  0  0
 11 27  1  0  0  0  0
 12 13  1  0  0  0  0
 12 28  1  0  0  0  0
 12 29  1  0  0  0  0
 13 14  1  0  0  0  0
 13 18  1  0  0  0  0
 14 15  1  0  0  0  0
 14 30  1  0  0  0  0
 14 31  1  0  0  0  0
 15 16  1  0  0  0  0
 15 17  2  0  0  0  0
 16 32  1  0  0  0  0
 16 33  1  0  0  0  0
 18 19  1  0  0  0  0
 18 34  1  0  0  0  0
 18 35  1  0  0  0  0
 19 36  1  0  0  0  0
 19 37  1  0  0  0  0
M  CHG  1   6  -1
M  END
> <s_m_source_file>
AV-unprocessed.smi

> <i_m_source_file_index>
1385

> <i_lp_mmshare_version>
43012

> <i_f3d_flags>
0

> <s_epik_input>
W0NIM11jMW5uYyhzMSlbTkhdQyg9TylbTkhdW0NIXTJbQ0gyXVtDSDJdTihbQ0gyXVtDSDJdMilbQ0gyXUMoPU8pW05IMl0=

> <s_epik_cmdline>
J2VwaWtfcHl0aG9uJywgJy1waCcsICc3LjAnLCAnLXRuJywgJzgnLCAnLW1hJywgJzIwMCcsICctbWV0YWxfYmluZGluZycsICctaW1hZScsICc8aW5maWxlLm1hZT4nLCAnLW9tYWUnLCAnPG91dGZpbGUubWFlPic=

> <r_lp_tautomer_probability>
1

> <r_epik_Ionization_Penalty>
3.72698

> <r_epik_Ionization_Penalty_Charging>
3.38897

> <r_epik_Ionization_Penalty_Neutral>
0.338006

> <r_epik_State_Penalty>
3.53372

> <r_epik_Charging_Adjusted_Penalty>
6.92269

> <i_epik_Tot_Q>
-1

> <i_epik_Tot_abs_Q>
1

> <r_epik_Metal_State_Penalty>
0.657042

> <b_epik_Metal_Only>
1

> <s_lp_Force_Field>
OPLS_2005

> <r_lp_Energy>
7.29134

> <b_lp_Chiralities_Consistent>
1

> <s_lp_Variant>
AV-unprocessed.smi:1385-4

> <Gold.Version>
5.8.1

> <Gold.Id.Protein>
6NUR|6NUR_protein|mol2

> <Gold.PLP.Fitness>
36.2635

> <Gold.PLP.PLP>
-27.7508

> <Gold.PLP.part.hbond>
-2.3164

> <Gold.PLP.part.metal>
0.0000

> <Gold.PLP.part.buried>
-4.7782

> <Gold.PLP.part.nonpolar>
-21.5427

> <Gold.PLP.part.repulsive>
0.6912

> <Gold.PLP.ligand.clash>
0.0000

> <Gold.PLP.ligand.torsion>
0.2862

> <Gold.PLP.Chemscore.Hbond>
3.0000

> <Gold.PLP.Chemscore.CHOScore>
0.0000

> <Gold.PLP.Chemscore.Metal>
0.0000

> <Gold.Chemscore.Hbonds>
donor molecule, donor type, donor heavy atom, donor atom, acceptor molecule, acceptor atom, score
      L1  H    16    32       P1 10175  1.00
      P1  H  7997  8008       L1     6  2.00

> <Gold.PLP.Chemscore.Internal.Correction>
0.0852

> <Gold.Rescore>
     Score         DG    S(hbond)    S(metal)    S(lipo)     H(rot)  DE(clash)    DE(int)     intcor
      8.55     -13.56       1.75        0.00      63.23       2.02       0.11       4.89       ----

> <Gold.Chemscore.Fitness>
8.5490

> <Gold.Chemscore.DG>
-13.5570

> <Gold.Chemscore.ZeroCoef>
-5.4800

> <Gold.Chemscore.Hbond>
1.7486

> <Gold.Chemscore.Metal>
0.0000

> <Gold.Chemscore.Lipo>
63.2340

> <Gold.Chemscore.Internal_Hbond>
0.0000

> <Gold.Chemscore.DEClash>
0.1139

> <Gold.Chemscore.DEInternal>
4.8941

> <Gold.Chemscore.Rot>
2.0163

> <Gold.Chemscore.Internal.Correction>
   9.000000E+99

> <Gold.Chemscore.Hbonds>
donor molecule, donor type, donor heavy atom, donor atom, acceptor molecule, acceptor atom, score
      L1  H    16    32       P1 10175  0.95
      P1  H  7997  8008       L1     6  0.25

> <Gold.Chemscore.Hbond.Weighted>
-5.8403

> <Gold.Chemscore.Metal.Weighted>
-0.0000

> <Gold.Chemscore.Lipo.Weighted>
-7.3984

> <Gold.Chemscore.Internal_Hbond.Weighted>
0.0000

> <Gold.Chemscore.DEClash.Weighted>
0.1139

> <Gold.Chemscore.DEInternal.Weighted>
4.8941

> <Gold.Chemscore.Rot.Weighted>
5.1617

> <Gold.Chemscore.Internal.Correction.Weighted>
   9.000000E+99

> <Gold.Protein.RotatedTorsions>
[ 6907 6896 6895 6894 ] final  148.97 input  -60.11 | X-H torsion
[ 7974 7965 7964 7962 ] final  -61.18 input  175.53 | X-H torsion
[ 8008 7997 7996 7995 ] final  -93.72 input   59.86 | X-H torsion
[ 10167 10162 10161 10158 ] final  -48.04 input  -65.29 | X-H torsion
[ 10718 10713 10712 10709 ] final  163.01 input   66.30 | X-H torsion
[ 10763 10752 10751 10750 ] final   22.04 input  -60.55 | X-H torsion
[ 11005 11000 10999 10996 ] final -147.28 input  -57.11 | X-H torsion

> <Gold.Protein.ActiveResidues>
 VAL166  LYS551  ARG553  GLY616  TRP617  ASP618  TYR619  PRO620  LYS621  CYS622 
 ASP623  PHE694  ASN695  SER759  ASP760  ASP761  ALA762  ILE779  LEU786  VAL792 
 PHE793  MET794  SER795  GLU796  ALA797  LYS798  CYS799  TRP800  GLU811  SER814 

> <Gold.Protein.RotatedAtoms>
  152.1343  133.4426  159.4735 H   0  0  0  0  0  0  0  0  0  0  0  0  # atno 6907 bound_to 6896
  150.6880  134.2382  159.4471 H   0  0  0  0  0  0  0  0  0  0  0  0  # atno 6908 bound_to 6896
  152.0268  134.9790  160.0622 H   0  0  0  0  0  0  0  0  0  0  0  0  # atno 6909 bound_to 6896
  145.8066  140.8624  143.0203 H   0  0  0  0  0  0  0  0  0  0  0  0  # atno 7974 bound_to 7965
  154.7392  140.0496  157.0796 H   0  0  0  0  0  0  0  0  0  0  0  0  # atno 8008 bound_to 7997
  155.0200  140.3146  155.4778 H   0  0  0  0  0  0  0  0  0  0  0  0  # atno 8009 bound_to 7997
  156.2860  140.2168  156.5318 H   0  0  0  0  0  0  0  0  0  0  0  0  # atno 8010 bound_to 7997
  140.6748  143.2757  151.4013 H   0  0  0  0  0  0  0  0  0  0  0  0  # atno 10167 bound_to 10162
  157.1145  131.0476  151.2442 H   0  0  0  0  0  0  0  0  0  0  0  0  # atno 10718 bound_to 10713
  153.0947  135.6656  153.9786 H   0  0  0  0  0  0  0  0  0  0  0  0  # atno 10763 bound_to 10752
  153.9373  135.2997  155.3445 H   0  0  0  0  0  0  0  0  0  0  0  0  # atno 10764 bound_to 10752
  154.7365  135.5099  153.9124 H   0  0  0  0  0  0  0  0  0  0  0  0  # atno 10765 bound_to 10752
  140.7733  134.3164  157.5068 H   0  0  0  0  0  0  0  0  0  0  0  0  # atno 11005 bound_to 11000
  144.6762  140.0335  143.7482 LP  0  0  0  0  0  0  0  0  0  0  0  0  # atno 17320 bound_to 7965
  145.9822  139.2949  143.1035 LP  0  0  0  0  0  0  0  0  0  0  0  0  # atno 17321 bound_to 7965
  139.6035  144.1245  152.2224 LP  0  0  0  0  0  0  0  0  0  0  0  0  # atno 17342 bound_to 10162
  140.0637  144.5836  150.7244 LP  0  0  0  0  0  0  0  0  0  0  0  0  # atno 17343 bound_to 10162
  157.4530  130.7609  149.7168 LP  0  0  0  0  0  0  0  0  0  0  0  0  # atno 17370 bound_to 10713
  155.9842  130.3993  150.3321 LP  0  0  0  0  0  0  0  0  0  0  0  0  # atno 17371 bound_to 10713
  139.8752  134.9274  156.3425 LP  0  0  0  0  0  0  0  0  0  0  0  0  # atno 17394 bound_to 11000
  140.9553  133.7424  156.0327 LP  0  0  0  0  0  0  0  0  0  0  0  0  # atno 17395 bound_to 11000

$$$$
