AV-unprocessed.smi:3116|AV-procd|sdf|11874|dock2
  -GOLD-   2272017253D 1   1.00000     0.00000
 Structure written by MMmdl.
 33 33  0  0  0  0  0  0  0  0  1 V2000
  148.0186  141.4057  156.2156 C   0  0  0  0  0  0  0  0  0  0  0  0
  149.5114  141.0391  156.0952 C   0  0  2  0  0  0  0  0  0  0  0  0
  150.3514  142.1655  156.5335 N   0  0  0  0  0  0  0  0  0  0  0  0
  150.5192  142.2976  157.9807 C   0  0  2  0  0  0  0  0  0  0  0  0
  149.2529  142.9002  158.6200 C   0  0  0  0  0  0  0  0  0  0  0  0
  151.7911  143.1327  158.2878 C   0  0  1  0  0  0  0  0  0  0  0  0
  151.7441  144.5523  157.6928 C   0  0  0  0  0  0  0  0  0  0  0  0
  152.1339  143.1574  159.7076 N   0  0  0  0  0  0  0  0  0  0  0  0
  153.0959  142.4316  160.3839 C   0  0  0  0  0  0  0  0  0  0  0  0
  153.0594  142.8197  161.6923 C   0  0  0  0  0  0  0  0  0  0  0  0
  152.0331  143.8037  161.7234 C   0  0  0  0  0  0  0  0  0  0  0  0
  151.4852  144.0059  160.5365 N   0  0  0  0  0  0  0  0  0  0  0  0
  149.8902  140.6283  154.6633 C   0  0  0  0  0  0  0  0  0  0  0  0
  149.0085  140.9190  153.7025 N   0  0  0  0  0  0  0  0  0  0  0  0
  150.9544  140.0636  154.4155 O   0  0  0  0  0  0  0  0  0  0  0  0
  147.3807  140.5783  155.9024 H   0  0  0  0  0  0  0  0  0  0  0  0
  147.7677  142.2712  155.6005 H   0  0  0  0  0  0  0  0  0  0  0  0
  147.7456  141.6478  157.2420 H   0  0  0  0  0  0  0  0  0  0  0  0
  149.7010  140.1652  156.7209 H   0  0  0  0  0  0  0  0  0  0  0  0
  150.0612  143.0411  156.1222 H   0  0  0  0  0  0  0  0  0  0  0  0
  150.6788  141.3039  158.4025 H   0  0  0  0  0  0  0  0  0  0  0  0
  149.4110  143.0985  159.6802 H   0  0  0  0  0  0  0  0  0  0  0  0
  148.4045  142.2201  158.5488 H   0  0  0  0  0  0  0  0  0  0  0  0
  148.9682  143.8410  158.1474 H   0  0  0  0  0  0  0  0  0  0  0  0
  152.6160  142.6321  157.7771 H   0  0  0  0  0  0  0  0  0  0  0  0
  151.5685  144.5186  156.6175 H   0  0  0  0  0  0  0  0  0  0  0  0
  152.6875  145.0743  157.8549 H   0  0  0  0  0  0  0  0  0  0  0  0
  150.9522  145.1561  158.1368 H   0  0  0  0  0  0  0  0  0  0  0  0
  153.7226  141.7081  159.8836 H   0  0  0  0  0  0  0  0  0  0  0  0
  153.6740  142.4578  162.5031 H   0  0  0  0  0  0  0  0  0  0  0  0
  151.6742  144.3753  162.5664 H   0  0  0  0  0  0  0  0  0  0  0  0
  149.2150  140.6803  152.7437 H   0  0  0  0  0  0  0  0  0  0  0  0
  148.1451  141.3861  153.9386 H   0  0  0  0  0  0  0  0  0  0  0  0
  1  2  1  0  0  0  0
  1 16  1  0  0  0  0
  1 17  1  0  0  0  0
  1 18  1  0  0  0  0
  2  3  1  0  0  0  0
  2 13  1  0  0  0  0
  2 19  1  0  0  0  0
  3  4  1  0  0  0  0
  3 20  1  0  0  0  0
  4  5  1  0  0  0  0
  4  6  1  0  0  0  0
  4 21  1  0  0  0  0
  5 22  1  0  0  0  0
  5 23  1  0  0  0  0
  5 24  1  0  0  0  0
  6  7  1  0  0  0  0
  6  8  1  0  0  0  0
  6 25  1  0  0  0  0
  7 26  1  0  0  0  0
  7 27  1  0  0  0  0
  7 28  1  0  0  0  0
  8 12  1  0  0  0  0
  8  9  1  0  0  0  0
  9 10  2  0  0  0  0
  9 29  1  0  0  0  0
 10 11  1  0  0  0  0
 10 30  1  0  0  0  0
 11 12  2  0  0  0  0
 11 31  1  0  0  0  0
 13 14  1  0  0  0  0
 13 15  2  0  0  0  0
 14 32  1  0  0  0  0
 14 33  1  0  0  0  0
M  END
> <s_m_source_file>
AV-unprocessed.smi

> <i_m_source_file_index>
3116

> <i_lp_mmshare_version>
43012

> <i_f3d_flags>
0

> <s_epik_input>
W05IMl1DKD1PKVtDQEhdKFtDSDNdKVtOSF1bQ0BIXShbQ0gzXSlbQ0BIXShbQ0gzXSluMVtjSF1bY0hdW2NIXW4x

> <s_epik_cmdline>
J2VwaWtfcHl0aG9uJywgJy1waCcsICc3LjAnLCAnLXRuJywgJzgnLCAnLW1hJywgJzIwMCcsICctbWV0YWxfYmluZGluZycsICctaW1hZScsICc8aW5maWxlLm1hZT4nLCAnLW9tYWUnLCAnPG91dGZpbGUubWFlPic=

> <r_lp_tautomer_probability>
1

> <r_epik_Ionization_Penalty>
0.865977

> <r_epik_Ionization_Penalty_Charging>
0

> <r_epik_Ionization_Penalty_Neutral>
0.865977

> <r_epik_State_Penalty>
0.901888

> <r_epik_Charging_Adjusted_Penalty>
0.901888

> <i_epik_Tot_Q>
0

> <i_epik_Tot_abs_Q>
0

> <r_epik_Metal_State_Penalty>
0.901181

> <b_epik_Metal_Only>
0

> <s_lp_Force_Field>
OPLS_2005

> <r_lp_Energy>
11.5103

> <b_lp_Chiralities_Consistent>
1

> <s_lp_Variant>
AV-unprocessed.smi:3116-13

> <Gold.Version>
5.8.1

> <Gold.Id.Protein>
6NUR|6NUR_protein|mol2

> <Gold.PLP.Fitness>
42.8377

> <Gold.PLP.PLP>
-36.0290

> <Gold.PLP.part.hbond>
-3.0000

> <Gold.PLP.part.metal>
0.0000

> <Gold.PLP.part.buried>
-4.9613

> <Gold.PLP.part.nonpolar>
-28.0459

> <Gold.PLP.part.repulsive>
0.8146

> <Gold.PLP.ligand.clash>
0.2009

> <Gold.PLP.ligand.torsion>
1.0997

> <Gold.PLP.Chemscore.Hbond>
3.0000

> <Gold.PLP.Chemscore.CHOScore>
0.0000

> <Gold.PLP.Chemscore.Metal>
0.0000

> <Gold.Chemscore.Hbonds>
donor molecule, donor type, donor heavy atom, donor atom, acceptor molecule, acceptor atom, score
      L1  H     3    20       P1  8028  0.83
      L1  H    14    32       P1  7957  1.00
      P1  H  7989  7998       L1    15  0.67

> <Gold.PLP.Chemscore.Internal.Correction>
0.2089

> <Gold.Rescore>
     Score         DG    S(hbond)    S(metal)    S(lipo)     H(rot)  DE(clash)    DE(int)     intcor
     16.95     -18.07       2.94        0.00      75.93       2.38       0.00       1.12       ----

> <Gold.Chemscore.Fitness>
16.9545

> <Gold.Chemscore.DG>
-18.0737

> <Gold.Chemscore.ZeroCoef>
-5.4800

> <Gold.Chemscore.Hbond>
2.9375

> <Gold.Chemscore.Metal>
0.0000

> <Gold.Chemscore.Lipo>
75.9348

> <Gold.Chemscore.Internal_Hbond>
0.0000

> <Gold.Chemscore.DEClash>
0.0015

> <Gold.Chemscore.DEInternal>
1.1178

> <Gold.Chemscore.Rot>
2.3836

> <Gold.Chemscore.Internal.Correction>
   9.000000E+99

> <Gold.Chemscore.Hbonds>
donor molecule, donor type, donor heavy atom, donor atom, acceptor molecule, acceptor atom, score
      L1  H     3    20       P1  8028  0.82
      L1  H    14    32       P1  7957  1.00
      P1  H  7989  7998       L1    15  0.40

> <Gold.Chemscore.Hbond.Weighted>
-9.8113

> <Gold.Chemscore.Metal.Weighted>
-0.0000

> <Gold.Chemscore.Lipo.Weighted>
-8.8844

> <Gold.Chemscore.Internal_Hbond.Weighted>
0.0000

> <Gold.Chemscore.DEClash.Weighted>
0.0015

> <Gold.Chemscore.DEInternal.Weighted>
1.1178

> <Gold.Chemscore.Rot.Weighted>
6.1020

> <Gold.Chemscore.Internal.Correction.Weighted>
   9.000000E+99

> <Gold.Protein.RotatedTorsions>
[ 6907 6896 6895 6894 ] final  169.12 input  -60.11 | X-H torsion
[ 7974 7965 7964 7962 ] final   -1.55 input  175.53 | X-H torsion
[ 8008 7997 7996 7995 ] final  -52.78 input   59.86 | X-H torsion
[ 10167 10162 10161 10158 ] final   79.51 input  -65.29 | X-H torsion
[ 10718 10713 10712 10709 ] final  168.85 input   66.30 | X-H torsion
[ 10763 10752 10751 10750 ] final -120.90 input  -60.55 | X-H torsion
[ 11005 11000 10999 10996 ] final  175.43 input  -57.11 | X-H torsion

> <Gold.Protein.ActiveResidues>
 VAL166  LYS551  ARG553  GLY616  TRP617  ASP618  TYR619  PRO620  LYS621  CYS622 
 ASP623  PHE694  ASN695  SER759  ASP760  ASP761  ALA762  ILE779  LEU786  VAL792 
 PHE793  MET794  SER795  GLU796  ALA797  LYS798  CYS799  TRP800  GLU811  SER814 

> <Gold.Protein.RotatedAtoms>
  151.8370  133.3417  159.3630 H   0  0  0  0  0  0  0  0  0  0  0  0  # atno 6907 bound_to 6896
  150.7246  134.5428  159.5765 H   0  0  0  0  0  0  0  0  0  0  0  0  # atno 6908 bound_to 6896
  152.2893  134.7740  160.0432 H   0  0  0  0  0  0  0  0  0  0  0  0  # atno 6909 bound_to 6896
  146.2415  140.1438  142.8335 H   0  0  0  0  0  0  0  0  0  0  0  0  # atno 7974 bound_to 7965
  154.4115  140.1216  156.5047 H   0  0  0  0  0  0  0  0  0  0  0  0  # atno 8008 bound_to 7997
  155.6860  140.3496  155.4855 H   0  0  0  0  0  0  0  0  0  0  0  0  # atno 8009 bound_to 7997
  155.9510  140.1105  157.0966 H   0  0  0  0  0  0  0  0  0  0  0  0  # atno 8010 bound_to 7997
  139.9596  144.5970  150.8085 H   0  0  0  0  0  0  0  0  0  0  0  0  # atno 10167 bound_to 10162
  157.0311  131.0260  151.2744 H   0  0  0  0  0  0  0  0  0  0  0  0  # atno 10718 bound_to 10713
  154.8655  135.4187  154.2534 H   0  0  0  0  0  0  0  0  0  0  0  0  # atno 10763 bound_to 10752
  153.3476  135.6997  153.6821 H   0  0  0  0  0  0  0  0  0  0  0  0  # atno 10764 bound_to 10752
  153.5774  135.3579  155.2834 H   0  0  0  0  0  0  0  0  0  0  0  0  # atno 10765 bound_to 10752
  140.3621  134.7104  157.4338 H   0  0  0  0  0  0  0  0  0  0  0  0  # atno 11005 bound_to 11000
  145.0225  140.8805  143.5158 LP  0  0  0  0  0  0  0  0  0  0  0  0  # atno 17320 bound_to 7965
  145.1488  139.2527  143.5451 LP  0  0  0  0  0  0  0  0  0  0  0  0  # atno 17321 bound_to 7965
  140.7557  143.3052  151.2980 LP  0  0  0  0  0  0  0  0  0  0  0  0  # atno 17342 bound_to 10162
  139.6565  144.0268  152.2663 LP  0  0  0  0  0  0  0  0  0  0  0  0  # atno 17343 bound_to 10162
  157.5176  130.7978  149.7774 LP  0  0  0  0  0  0  0  0  0  0  0  0  # atno 17370 bound_to 10713
  156.0069  130.3851  150.2399 LP  0  0  0  0  0  0  0  0  0  0  0  0  # atno 17371 bound_to 10713
  140.0618  134.5984  155.8740 LP  0  0  0  0  0  0  0  0  0  0  0  0  # atno 17394 bound_to 11000
  141.1981  133.6599  156.5774 LP  0  0  0  0  0  0  0  0  0  0  0  0  # atno 17395 bound_to 11000

$$$$
