AV-unprocessed.smi:2782|AV-procd|sdf|10721|dock3
  -GOLD-   2272015163D 1   1.00000     0.00000
 Structure written by MMmdl.
 38 39  0  0  0  0  0  0  0  0  1 V2000
  151.1609  144.0217  159.3937 C   0  0  0  0  0  0  0  0  0  0  0  0
  151.9817  142.7565  159.5361 C   0  0  0  0  0  0  0  0  0  0  0  0
  153.1856  142.7674  160.2675 C   0  0  0  0  0  0  0  0  0  0  0  0
  153.9398  141.5869  160.3945 C   0  0  0  0  0  0  0  0  0  0  0  0
  153.4947  140.3936  159.7933 C   0  0  0  0  0  0  0  0  0  0  0  0
  154.4393  138.9577  159.9666 Cl  0  0  0  0  0  0  0  0  0  0  0  0
  152.2903  140.3664  159.0556 C   0  0  0  0  0  0  0  0  0  0  0  0
  151.9178  139.1621  158.4963 O   0  0  0  0  0  0  0  0  0  0  0  0
  150.5322  138.8867  158.3311 C   0  0  0  0  0  0  0  0  0  0  0  0
  150.0990  137.7819  159.3098 C   0  0  2  0  0  0  0  0  0  0  0  0
  151.0490  136.7377  159.2345 O   0  0  0  0  0  0  0  0  0  0  0  0
  148.6815  137.2402  159.0226 C   0  0  0  0  0  0  0  0  0  0  0  0
  148.1851  136.3885  160.1097 N   0  0  0  0  0  0  0  0  0  0  0  0
  148.0349  137.0480  161.3177 N   0  0  0  0  0  0  0  0  0  0  0  0
  147.6050  136.4275  162.3672 C   0  0  0  0  0  0  0  0  0  0  0  0
  147.4715  137.2173  163.6355 C   0  0  0  0  0  0  0  0  0  0  0  0
  147.2760  135.0175  162.2783 C   0  0  0  0  0  0  0  0  0  0  0  0
  147.4206  134.3777  161.0980 C   0  0  0  0  0  0  0  0  0  0  0  0
  147.9016  135.0686  159.9035 C   0  0  0  0  0  0  0  0  0  0  0  0
  148.0347  134.5165  158.8116 O   0  0  0  0  0  0  0  0  0  0  0  0
  151.5381  141.5623  158.9318 C   0  0  0  0  0  0  0  0  0  0  0  0
  151.5781  144.8366  159.9863 H   0  0  0  0  0  0  0  0  0  0  0  0
  150.1373  143.8489  159.7276 H   0  0  0  0  0  0  0  0  0  0  0  0
  151.1335  144.3376  158.3506 H   0  0  0  0  0  0  0  0  0  0  0  0
  153.5349  143.6775  160.7326 H   0  0  0  0  0  0  0  0  0  0  0  0
  154.8624  141.5974  160.9560 H   0  0  0  0  0  0  0  0  0  0  0  0
  149.9297  139.7846  158.4793 H   0  0  0  0  0  0  0  0  0  0  0  0
  150.3608  138.5369  157.3117 H   0  0  0  0  0  0  0  0  0  0  0  0
  150.1497  138.1931  160.3186 H   0  0  0  0  0  0  0  0  0  0  0  0
  151.8435  137.0839  158.8580 H   0  0  0  0  0  0  0  0  0  0  0  0
  147.9909  138.0749  158.8878 H   0  0  0  0  0  0  0  0  0  0  0  0
  148.6632  136.7051  158.0709 H   0  0  0  0  0  0  0  0  0  0  0  0
  147.0083  136.6228  164.4233 H   0  0  0  0  0  0  0  0  0  0  0  0
  146.8544  138.1029  163.4802 H   0  0  0  0  0  0  0  0  0  0  0  0
  148.4485  137.5434  163.9930 H   0  0  0  0  0  0  0  0  0  0  0  0
  146.9195  134.4923  163.1520 H   0  0  0  0  0  0  0  0  0  0  0  0
  147.1750  133.3279  161.0327 H   0  0  0  0  0  0  0  0  0  0  0  0
  150.6129  141.5882  158.3765 H   0  0  0  0  0  0  0  0  0  0  0  0
  1  2  1  0  0  0  0
  1 22  1  0  0  0  0
  1 23  1  0  0  0  0
  1 24  1  0  0  0  0
  2 21  1  0  0  0  0
  2  3  2  0  0  0  0
  3  4  1  0  0  0  0
  3 25  1  0  0  0  0
  4  5  2  0  0  0  0
  4 26  1  0  0  0  0
  5  6  1  0  0  0  0
  5  7  1  0  0  0  0
  7  8  1  0  0  0  0
  7 21  2  0  0  0  0
  8  9  1  0  0  0  0
  9 10  1  0  0  0  0
  9 27  1  0  0  0  0
  9 28  1  0  0  0  0
 10 11  1  0  0  0  0
 10 12  1  0  0  0  0
 10 29  1  0  0  0  0
 11 30  1  0  0  0  0
 12 13  1  0  0  0  0
 12 31  1  0  0  0  0
 12 32  1  0  0  0  0
 13 19  1  0  0  0  0
 13 14  1  0  0  0  0
 14 15  2  0  0  0  0
 15 16  1  0  0  0  0
 15 17  1  0  0  0  0
 16 33  1  0  0  0  0
 16 34  1  0  0  0  0
 16 35  1  0  0  0  0
 17 18  2  0  0  0  0
 17 36  1  0  0  0  0
 18 19  1  0  0  0  0
 18 37  1  0  0  0  0
 19 20  2  0  0  0  0
 21 38  1  0  0  0  0
M  END
> <s_m_source_file>
AV-unprocessed.smi

> <i_m_source_file_index>
2782

> <i_lp_mmshare_version>
43012

> <i_f3d_flags>
0

> <s_epik_input>
W0NIM11jMVtjSF1bY0hdYyhDbCljKFtjSF0xKU9bQ0gyXVtDQEhdKFtPSF0pW0NIMl1uMm5jKFtDSDNdKVtjSF1bY0hdYzI9Tw==

> <s_epik_cmdline>
J2VwaWtfcHl0aG9uJywgJy1waCcsICc3LjAnLCAnLXRuJywgJzgnLCAnLW1hJywgJzIwMCcsICctbWV0YWxfYmluZGluZycsICctaW1hZScsICc8aW5maWxlLm1hZT4nLCAnLW9tYWUnLCAnPG91dGZpbGUubWFlPic=

> <r_lp_tautomer_probability>
1

> <r_epik_Ionization_Penalty>
2.96353e-07

> <r_epik_Ionization_Penalty_Charging>
1.79179e-07

> <r_epik_Ionization_Penalty_Neutral>
1.17174e-07

> <r_epik_State_Penalty>
-0

> <r_epik_Charging_Adjusted_Penalty>
1.79179e-07

> <i_epik_Tot_Q>
0

> <i_epik_Tot_abs_Q>
0

> <r_epik_Metal_State_Penalty>
-0

> <b_epik_Metal_Only>
0

> <s_lp_Force_Field>
OPLS_2005

> <r_lp_Energy>
32.0669

> <b_lp_Chiralities_Consistent>
1

> <s_lp_Variant>
AV-unprocessed.smi:2782-1

> <Gold.Version>
5.8.1

> <Gold.Id.Protein>
6NUR|6NUR_protein|mol2

> <Gold.PLP.Fitness>
50.6956

> <Gold.PLP.PLP>
-43.6177

> <Gold.PLP.part.hbond>
-4.0000

> <Gold.PLP.part.metal>
0.0000

> <Gold.PLP.part.buried>
-3.4611

> <Gold.PLP.part.nonpolar>
-36.2871

> <Gold.PLP.part.repulsive>
0.0000

> <Gold.PLP.ligand.clash>
0.0000

> <Gold.PLP.ligand.torsion>
0.8609

> <Gold.PLP.Chemscore.Hbond>
2.9176

> <Gold.PLP.Chemscore.CHOScore>
0.0000

> <Gold.PLP.Chemscore.Metal>
0.0000

> <Gold.Chemscore.Hbonds>
donor molecule, donor type, donor heavy atom, donor atom, acceptor molecule, acceptor atom, score
      P1  H  6896  6907       L1    11  1.00
      P1  H  6931  6943       L1    14  1.00
      P1  H  6934  6947       L1    14  0.45

> <Gold.PLP.Chemscore.Internal.Correction>
0.0468

> <Gold.Rescore>
     Score         DG    S(hbond)    S(metal)    S(lipo)     H(rot)  DE(clash)    DE(int)     intcor
     17.45     -18.75       1.46        0.00     120.41       2.22       0.15       1.15       ----

> <Gold.Chemscore.Fitness>
17.4513

> <Gold.Chemscore.DG>
-18.7474

> <Gold.Chemscore.ZeroCoef>
-5.4800

> <Gold.Chemscore.Hbond>
1.4556

> <Gold.Chemscore.Metal>
0.0000

> <Gold.Chemscore.Lipo>
120.4147

> <Gold.Chemscore.Internal_Hbond>
0.0000

> <Gold.Chemscore.DEClash>
0.1505

> <Gold.Chemscore.DEInternal>
1.1456

> <Gold.Chemscore.Rot>
2.2199

> <Gold.Chemscore.Internal.Correction>
   9.000000E+99

> <Gold.Chemscore.Hbonds>
donor molecule, donor type, donor heavy atom, donor atom, acceptor molecule, acceptor atom, score
      P1  H  6896  6907       L1    11  0.47
      P1  H  6931  6943       L1    14  0.49
      P1  H  6934  6947       L1    14  0.29

> <Gold.Chemscore.Hbond.Weighted>
-4.8617

> <Gold.Chemscore.Metal.Weighted>
-0.0000

> <Gold.Chemscore.Lipo.Weighted>
-14.0885

> <Gold.Chemscore.Internal_Hbond.Weighted>
0.0000

> <Gold.Chemscore.DEClash.Weighted>
0.1505

> <Gold.Chemscore.DEInternal.Weighted>
1.1456

> <Gold.Chemscore.Rot.Weighted>
5.6829

> <Gold.Chemscore.Internal.Correction.Weighted>
   9.000000E+99

> <Gold.Protein.RotatedTorsions>
[ 6907 6896 6895 6894 ] final   -2.43 input  -60.11 | X-H torsion
[ 7974 7965 7964 7962 ] final   -4.47 input  175.53 | X-H torsion
[ 8008 7997 7996 7995 ] final  -18.88 input   59.86 | X-H torsion
[ 10167 10162 10161 10158 ] final -125.98 input  -65.29 | X-H torsion
[ 10718 10713 10712 10709 ] final  -23.41 input   66.30 | X-H torsion
[ 10763 10752 10751 10750 ] final   53.48 input  -60.55 | X-H torsion
[ 11005 11000 10999 10996 ] final   59.70 input  -57.11 | X-H torsion

> <Gold.Protein.ActiveResidues>
 VAL166  LYS551  ARG553  GLY616  TRP617  ASP618  TYR619  PRO620  LYS621  CYS622 
 ASP623  PHE694  ASN695  SER759  ASP760  ASP761  ALA762  ILE779  LEU786  VAL792 
 PHE793  MET794  SER795  GLU796  ALA797  LYS798  CYS799  TRP800  GLU811  SER814 

> <Gold.Protein.RotatedAtoms>
  151.5300  135.1068  159.9899 H   0  0  0  0  0  0  0  0  0  0  0  0  # atno 6907 bound_to 6896
  152.4583  133.7764  159.6837 H   0  0  0  0  0  0  0  0  0  0  0  0  # atno 6908 bound_to 6896
  150.8535  133.7686  159.3042 H   0  0  0  0  0  0  0  0  0  0  0  0  # atno 6909 bound_to 6896
  146.2371  140.1877  142.8332 H   0  0  0  0  0  0  0  0  0  0  0  0  # atno 7974 bound_to 7965
  154.4875  140.2104  155.9622 H   0  0  0  0  0  0  0  0  0  0  0  0  # atno 8008 bound_to 7997
  156.1258  140.3205  155.8244 H   0  0  0  0  0  0  0  0  0  0  0  0  # atno 8009 bound_to 7997
  155.4386  140.0508  157.3003 H   0  0  0  0  0  0  0  0  0  0  0  0  # atno 8010 bound_to 7997
  139.9764  143.5790  152.2394 H   0  0  0  0  0  0  0  0  0  0  0  0  # atno 10167 bound_to 10162
  156.4914  130.4567  149.6753 H   0  0  0  0  0  0  0  0  0  0  0  0  # atno 10718 bound_to 10713
  152.9796  135.5777  154.4749 H   0  0  0  0  0  0  0  0  0  0  0  0  # atno 10763 bound_to 10752
  154.4306  135.2773  155.1917 H   0  0  0  0  0  0  0  0  0  0  0  0  # atno 10764 bound_to 10752
  154.3627  135.6185  153.5752 H   0  0  0  0  0  0  0  0  0  0  0  0  # atno 10765 bound_to 10752
  140.0285  134.6047  155.9540 H   0  0  0  0  0  0  0  0  0  0  0  0  # atno 11005 bound_to 11000
  144.9883  140.8524  143.5355 LP  0  0  0  0  0  0  0  0  0  0  0  0  # atno 17320 bound_to 7965
  145.1879  139.2316  143.5258 LP  0  0  0  0  0  0  0  0  0  0  0  0  # atno 17321 bound_to 7965
  139.6443  144.7657  151.2276 LP  0  0  0  0  0  0  0  0  0  0  0  0  # atno 17342 bound_to 10162
  140.7504  143.6265  150.8463 LP  0  0  0  0  0  0  0  0  0  0  0  0  # atno 17343 bound_to 10162
  156.3423  130.7388  151.2335 LP  0  0  0  0  0  0  0  0  0  0  0  0  # atno 17370 bound_to 10713
  157.7473  131.0400  150.4578 LP  0  0  0  0  0  0  0  0  0  0  0  0  # atno 17371 bound_to 10713
  141.1817  133.6548  156.5047 LP  0  0  0  0  0  0  0  0  0  0  0  0  # atno 17394 bound_to 11000
  140.4266  134.7140  157.4919 LP  0  0  0  0  0  0  0  0  0  0  0  0  # atno 17395 bound_to 11000

$$$$
