AV-unprocessed.smi:2567|AV-procd|sdf|10080|dock6
  -GOLD-   2272014103D 1   1.00000     0.00000
 Structure written by MMmdl.
 33 34  0  0  0  0  0  0  0  0  1 V2000
  152.2706  144.6027  157.9122 C   0  0  0  0  0  0  0  0  0  0  0  0
  151.5873  143.3458  158.4853 C   0  0  0  0  0  0  0  0  0  0  0  0
  152.5174  142.6701  159.5112 C   0  0  0  0  0  0  0  0  0  0  0  0
  150.3036  143.7942  159.2190 C   0  0  0  0  0  0  0  0  0  0  0  0
  151.2817  142.3786  157.3664 C   0  0  0  0  0  0  0  0  0  0  0  0
  150.4173  142.6393  156.3793 N   0  0  0  0  0  0  0  0  0  0  0  0
  150.3385  141.5780  155.5502 N   0  0  0  0  0  0  0  0  0  0  0  0
  151.1978  140.7269  156.1071 C   0  0  0  0  0  0  0  0  0  0  0  0
  151.4060  139.3600  155.5329 C   0  0  2  0  0  0  0  0  0  0  0  0
  150.4710  139.0843  154.3391 C   0  0  0  0  0  0  0  0  0  0  0  0
  150.6350  137.7075  153.8745 N   0  0  0  0  0  0  0  0  0  0  0  0
  150.4339  136.7548  154.9653 C   0  0  0  0  0  0  0  0  0  0  0  0
  151.3631  137.0874  156.1470 C   0  0  0  0  0  0  0  0  0  0  0  0
  151.1326  138.4255  156.5747 O   0  0  0  0  0  0  0  0  0  0  0  0
  151.8035  141.1590  157.2556 N   0  0  0  0  0  0  0  0  0  0  0  0
  152.4962  145.3259  158.6966 H   0  0  0  0  0  0  0  0  0  0  0  0
  151.6339  145.0994  157.1791 H   0  0  0  0  0  0  0  0  0  0  0  0
  153.2110  144.3576  157.4172 H   0  0  0  0  0  0  0  0  0  0  0  0
  153.4621  142.3684  159.0571 H   0  0  0  0  0  0  0  0  0  0  0  0
  152.0568  141.7765  159.9342 H   0  0  0  0  0  0  0  0  0  0  0  0
  152.7535  143.3414  160.3375 H   0  0  0  0  0  0  0  0  0  0  0  0
  150.5305  144.4995  160.0194 H   0  0  0  0  0  0  0  0  0  0  0  0
  149.7839  142.9492  159.6726 H   0  0  0  0  0  0  0  0  0  0  0  0
  149.6069  144.2885  158.5410 H   0  0  0  0  0  0  0  0  0  0  0  0
  152.4494  139.2636  155.2252 H   0  0  0  0  0  0  0  0  0  0  0  0
  149.4347  139.2519  154.6361 H   0  0  0  0  0  0  0  0  0  0  0  0
  150.6810  139.7810  153.5273 H   0  0  0  0  0  0  0  0  0  0  0  0
  149.3956  136.7852  155.2981 H   0  0  0  0  0  0  0  0  0  0  0  0
  150.6214  135.7397  154.6150 H   0  0  0  0  0  0  0  0  0  0  0  0
  151.1656  136.4131  156.9803 H   0  0  0  0  0  0  0  0  0  0  0  0
  152.4102  136.9535  155.8709 H   0  0  0  0  0  0  0  0  0  0  0  0
  149.9702  137.5184  153.1310 H   0  0  0  0  0  0  0  0  0  0  0  0
  149.8812  143.4843  156.2440 H   0  0  0  0  0  0  0  0  0  0  0  0
  1  2  1  0  0  0  0
  1 16  1  0  0  0  0
  1 17  1  0  0  0  0
  1 18  1  0  0  0  0
  2  3  1  0  0  0  0
  2  4  1  0  0  0  0
  2  5  1  0  0  0  0
  3 19  1  0  0  0  0
  3 20  1  0  0  0  0
  3 21  1  0  0  0  0
  4 22  1  0  0  0  0
  4 23  1  0  0  0  0
  4 24  1  0  0  0  0
  5 15  2  0  0  0  0
  5  6  1  0  0  0  0
  6  7  1  0  0  0  0
  6 33  1  0  0  0  0
  7  8  2  0  0  0  0
  8  9  1  0  0  0  0
  8 15  1  0  0  0  0
  9 14  1  0  0  0  0
  9 10  1  0  0  0  0
  9 25  1  0  0  0  0
 10 11  1  0  0  0  0
 10 26  1  0  0  0  0
 10 27  1  0  0  0  0
 11 12  1  0  0  0  0
 11 32  1  0  0  0  0
 12 13  1  0  0  0  0
 12 28  1  0  0  0  0
 12 29  1  0  0  0  0
 13 14  1  0  0  0  0
 13 30  1  0  0  0  0
 13 31  1  0  0  0  0
M  END
> <s_m_source_file>
AV-unprocessed.smi

> <i_m_source_file_index>
2567

> <i_lp_mmshare_version>
43012

> <i_f3d_flags>
0

> <s_epik_input>
W0NIM11DKFtDSDNdKShbQ0gzXSljMW5bbkhdYyhuMSlbQ0BASF0yW0NIMl1bTkhdW0NIMl1bQ0gyXU8y

> <s_epik_cmdline>
J2VwaWtfcHl0aG9uJywgJy1waCcsICc3LjAnLCAnLXRuJywgJzgnLCAnLW1hJywgJzIwMCcsICctbWV0YWxfYmluZGluZycsICctaW1hZScsICc8aW5maWxlLm1hZT4nLCAnLW9tYWUnLCAnPG91dGZpbGUubWFlPic=

> <r_lp_tautomer_probability>
0.948284

> <r_epik_Ionization_Penalty>
1.10045

> <r_epik_Ionization_Penalty_Charging>
0

> <r_epik_Ionization_Penalty_Neutral>
1.10045

> <r_epik_State_Penalty>
1.2625

> <r_epik_Charging_Adjusted_Penalty>
1.2625

> <i_epik_Tot_Q>
0

> <i_epik_Tot_abs_Q>
0

> <r_epik_Metal_State_Penalty>
1.57133

> <b_epik_Metal_Only>
0

> <s_lp_Force_Field>
OPLS_2005

> <r_lp_Energy>
14.8987

> <b_lp_Chiralities_Consistent>
1

> <s_lp_Variant>
AV-unprocessed.smi:2567-5

> <Gold.Version>
5.8.1

> <Gold.Id.Protein>
6NUR|6NUR_protein|mol2

> <Gold.PLP.Fitness>
35.9321

> <Gold.PLP.PLP>
-30.1742

> <Gold.PLP.part.hbond>
-3.5681

> <Gold.PLP.part.metal>
0.0000

> <Gold.PLP.part.buried>
-2.9912

> <Gold.PLP.part.nonpolar>
-23.7625

> <Gold.PLP.part.repulsive>
0.1895

> <Gold.PLP.ligand.clash>
0.0000

> <Gold.PLP.ligand.torsion>
0.1177

> <Gold.PLP.Chemscore.Hbond>
1.9913

> <Gold.PLP.Chemscore.CHOScore>
0.0000

> <Gold.PLP.Chemscore.Metal>
0.0000

> <Gold.Chemscore.Hbonds>
donor molecule, donor type, donor heavy atom, donor atom, acceptor molecule, acceptor atom, score
      L1  H     6    33       P1  8028  1.00
      L1  H    11    32       P1  7948  1.00

> <Gold.PLP.Chemscore.Internal.Correction>
0.0195

> <Gold.Rescore>
     Score         DG    S(hbond)    S(metal)    S(lipo)     H(rot)  DE(clash)    DE(int)     intcor
     16.07     -16.29       1.76        0.00      69.38       1.25       0.02       0.19       ----

> <Gold.Chemscore.Fitness>
16.0728

> <Gold.Chemscore.DG>
-16.2864

> <Gold.Chemscore.ZeroCoef>
-5.4800

> <Gold.Chemscore.Hbond>
1.7594

> <Gold.Chemscore.Metal>
0.0000

> <Gold.Chemscore.Lipo>
69.3778

> <Gold.Chemscore.Internal_Hbond>
0.0000

> <Gold.Chemscore.DEClash>
0.0250

> <Gold.Chemscore.DEInternal>
0.1886

> <Gold.Chemscore.Rot>
1.2450

> <Gold.Chemscore.Internal.Correction>
   9.000000E+99

> <Gold.Chemscore.Hbonds>
donor molecule, donor type, donor heavy atom, donor atom, acceptor molecule, acceptor atom, score
      L1  H     6    33       P1  8028  1.00
      L1  H    11    32       P1  7948  0.27

> <Gold.Chemscore.Hbond.Weighted>
-5.8764

> <Gold.Chemscore.Metal.Weighted>
-0.0000

> <Gold.Chemscore.Lipo.Weighted>
-8.1172

> <Gold.Chemscore.Internal_Hbond.Weighted>
0.0000

> <Gold.Chemscore.DEClash.Weighted>
0.0250

> <Gold.Chemscore.DEInternal.Weighted>
0.1886

> <Gold.Chemscore.Rot.Weighted>
3.1872

> <Gold.Chemscore.Internal.Correction.Weighted>
   9.000000E+99

> <Gold.Protein.RotatedTorsions>
[ 6907 6896 6895 6894 ] final  158.40 input  -60.11 | X-H torsion
[ 7974 7965 7964 7962 ] final  -79.98 input  175.53 | X-H torsion
[ 8008 7997 7996 7995 ] final -102.21 input   59.86 | X-H torsion
[ 10167 10162 10161 10158 ] final   72.73 input  -65.29 | X-H torsion
[ 10718 10713 10712 10709 ] final   19.60 input   66.30 | X-H torsion
[ 10763 10752 10751 10750 ] final   45.03 input  -60.55 | X-H torsion
[ 11005 11000 10999 10996 ] final  -66.79 input  -57.11 | X-H torsion

> <Gold.Protein.ActiveResidues>
 VAL166  LYS551  ARG553  GLY616  TRP617  ASP618  TYR619  PRO620  LYS621  CYS622 
 ASP623  PHE694  ASN695  SER759  ASP760  ASP761  ALA762  ILE779  LEU786  VAL792 
 PHE793  MET794  SER795  GLU796  ALA797  LYS798  CYS799  TRP800  GLU811  SER814 

> <Gold.Protein.RotatedAtoms>
  152.0009  133.3825  159.4181 H   0  0  0  0  0  0  0  0  0  0  0  0  # atno 6907 bound_to 6896
  150.6910  134.3835  159.5054 H   0  0  0  0  0  0  0  0  0  0  0  0  # atno 6908 bound_to 6896
  152.1582  134.8933  160.0594 H   0  0  0  0  0  0  0  0  0  0  0  0  # atno 6909 bound_to 6896
  145.5660  140.9474  143.1421 H   0  0  0  0  0  0  0  0  0  0  0  0  # atno 7974 bound_to 7965
  154.8534  140.0430  157.1619 H   0  0  0  0  0  0  0  0  0  0  0  0  # atno 8008 bound_to 7997
  154.8918  140.2987  155.5346 H   0  0  0  0  0  0  0  0  0  0  0  0  # atno 8009 bound_to 7997
  156.2997  140.2392  156.3934 H   0  0  0  0  0  0  0  0  0  0  0  0  # atno 8010 bound_to 7997
  140.0321  144.5457  150.7499 H   0  0  0  0  0  0  0  0  0  0  0  0  # atno 10167 bound_to 10162
  157.1127  130.6515  149.5902 H   0  0  0  0  0  0  0  0  0  0  0  0  # atno 10718 bound_to 10713
  152.9831  135.6052  154.3371 H   0  0  0  0  0  0  0  0  0  0  0  0  # atno 10763 bound_to 10752
  154.3070  135.2772  155.2586 H   0  0  0  0  0  0  0  0  0  0  0  0  # atno 10764 bound_to 10752
  154.4812  135.5916  153.6447 H   0  0  0  0  0  0  0  0  0  0  0  0  # atno 10765 bound_to 10752
  141.1491  133.6706  156.6194 H   0  0  0  0  0  0  0  0  0  0  0  0  # atno 11005 bound_to 11000
  144.7460  139.7319  143.7292 LP  0  0  0  0  0  0  0  0  0  0  0  0  # atno 17320 bound_to 7965
  146.1818  139.5014  142.9862 LP  0  0  0  0  0  0  0  0  0  0  0  0  # atno 17321 bound_to 7965
  140.7297  143.2675  151.3995 LP  0  0  0  0  0  0  0  0  0  0  0  0  # atno 17342 bound_to 10162
  139.6069  144.1179  152.2258 LP  0  0  0  0  0  0  0  0  0  0  0  0  # atno 17343 bound_to 10162
  155.9846  130.4872  150.6994 LP  0  0  0  0  0  0  0  0  0  0  0  0  # atno 17370 bound_to 10713
  157.4545  131.0876  151.0811 LP  0  0  0  0  0  0  0  0  0  0  0  0  # atno 17371 bound_to 10713
  140.3552  134.7734  157.4495 LP  0  0  0  0  0  0  0  0  0  0  0  0  # atno 17394 bound_to 11000
  140.0828  134.5707  155.8522 LP  0  0  0  0  0  0  0  0  0  0  0  0  # atno 17395 bound_to 11000

$$$$
