AV-unprocessed.smi:913|AV-procd|sdf|4148|dock2
  -GOLD-   22720 2 53D 1   1.00000     0.00000
 Structure written by MMmdl.
 21 21  0  0  0  0  0  0  0  0  2 V2000
  151.3075  144.3142  158.1704 C   0  0  0  0  0  0  0  0  0  0  0  0
  151.2170  142.9113  157.6079 C   0  0  0  0  0  0  0  0  0  0  0  0
  151.6076  141.8544  158.2430 N   0  0  0  0  0  0  0  0  0  0  0  0
  151.4642  140.6189  157.6035 C   0  0  0  0  0  0  0  0  0  0  0  0
  151.9102  139.5701  158.3822 N   0  0  0  0  0  0  0  0  0  0  0  0
  150.9379  140.4882  156.3544 C   0  0  0  0  0  0  0  0  0  0  0  0
  150.7872  139.1344  155.6615 C   0  0  0  0  0  0  0  0  0  0  0  0
  152.0962  138.3493  155.5251 C   0  0  0  0  0  0  0  0  0  0  0  0
  153.1208  139.0103  155.2485 O   0  0  0  0  0  0  0  0  0  0  0  0
  152.0583  137.1093  155.6888 O   0  5  0  0  0  0  0  0  0  0  0  0
  150.5013  141.7035  155.6409 C   0  0  0  0  0  0  0  0  0  0  0  0
  150.0163  141.7154  154.5105 O   0  0  0  0  0  0  0  0  0  0  0  0
  150.6690  142.8597  156.3245 N   0  0  0  0  0  0  0  0  0  0  0  0
  150.3828  143.7192  155.8796 H   0  0  0  0  0  0  0  0  0  0  0  0
  150.7409  144.3831  159.0996 H   0  0  0  0  0  0  0  0  0  0  0  0
  150.9116  145.0542  157.4732 H   0  0  0  0  0  0  0  0  0  0  0  0
  152.3468  144.5666  158.3823 H   0  0  0  0  0  0  0  0  0  0  0  0
  152.2890  139.7341  159.3046 H   0  0  0  0  0  0  0  0  0  0  0  0
  152.0973  138.6626  157.9814 H   0  0  0  0  0  0  0  0  0  0  0  0
  150.0590  138.5091  156.1786 H   0  0  0  0  0  0  0  0  0  0  0  0
  150.3738  139.2992  154.6656 H   0  0  0  0  0  0  0  0  0  0  0  0
  1  2  1  0  0  0  0
  1 15  1  0  0  0  0
  1 16  1  0  0  0  0
  1 17  1  0  0  0  0
  2 13  1  0  0  0  0
  2  3  2  0  0  0  0
  3  4  1  0  0  0  0
  4  5  1  0  0  0  0
  4  6  2  0  0  0  0
  5 18  1  0  0  0  0
  5 19  1  0  0  0  0
  6  7  1  0  0  0  0
  6 11  1  0  0  0  0
  7  8  1  0  0  0  0
  7 20  1  0  0  0  0
  7 21  1  0  0  0  0
  8  9  2  0  0  0  0
  8 10  1  0  0  0  0
 11 12  2  0  0  0  0
 11 13  1  0  0  0  0
 13 14  1  0  0  0  0
M  CHG  1  10  -1
M  END
> <s_m_source_file>
AV-unprocessed.smi

> <i_m_source_file_index>
913

> <i_lp_mmshare_version>
43012

> <i_f3d_flags>
0

> <s_epik_input>
W0NIM11jMW5jKFtOSDJdKWMoYyg9TylbbkhdMSlbQ0gyXUMoPU8pW09IXQ==

> <s_epik_cmdline>
J2VwaWtfcHl0aG9uJywgJy1waCcsICc3LjAnLCAnLXRuJywgJzgnLCAnLW1hJywgJzIwMCcsICctbWV0YWxfYmluZGluZycsICctaW1hZScsICc8aW5maWxlLm1hZT4nLCAnLW9tYWUnLCAnPG91dGZpbGUubWFlPic=

> <r_lp_tautomer_probability>
0.994035

> <r_epik_Ionization_Penalty>
0.00166212

> <r_epik_Ionization_Penalty_Charging>
0.00113713

> <r_epik_Ionization_Penalty_Neutral>
0.000524996

> <r_epik_State_Penalty>
7.90533e-05

> <r_epik_Charging_Adjusted_Penalty>
0.00121618

> <i_epik_Tot_Q>
-1

> <i_epik_Tot_abs_Q>
1

> <r_epik_Metal_State_Penalty>
0.236869

> <b_epik_Metal_Only>
0

> <s_lp_Force_Field>
OPLS_2005

> <r_lp_Energy>
5.01011

> <b_lp_Chiralities_Consistent>
1

> <s_lp_Variant>
AV-unprocessed.smi:913-1

> <Gold.Version>
5.8.1

> <Gold.Id.Protein>
6NUR|6NUR_protein|mol2

> <Gold.PLP.Fitness>
36.5233

> <Gold.PLP.PLP>
-22.2719

> <Gold.PLP.part.hbond>
-4.9760

> <Gold.PLP.part.metal>
0.0000

> <Gold.PLP.part.buried>
-2.8464

> <Gold.PLP.part.nonpolar>
-15.1265

> <Gold.PLP.part.repulsive>
0.3975

> <Gold.PLP.ligand.clash>
0.0000

> <Gold.PLP.ligand.torsion>
0.3075

> <Gold.PLP.Chemscore.Hbond>
4.9554

> <Gold.PLP.Chemscore.CHOScore>
0.0000

> <Gold.PLP.Chemscore.Metal>
0.0000

> <Gold.Chemscore.Hbonds>
donor molecule, donor type, donor heavy atom, donor atom, acceptor molecule, acceptor atom, score
      L1  H    13    14       P1  8028  0.82
      P1  H  7989  7998       L1    12  0.23
      P1  H  7997  8008       L1     9  2.00
      P1  H  8011  8017       L1    12  0.14
      P1  H 10752 10764       L1    10  1.92

> <Gold.PLP.Chemscore.Internal.Correction>
0.0003

> <Gold.Rescore>
     Score         DG    S(hbond)    S(metal)    S(lipo)     H(rot)  DE(clash)    DE(int)     intcor
     13.26     -13.59       2.94        0.00      22.07       1.68       0.00       0.33       ----

> <Gold.Chemscore.Fitness>
13.2563

> <Gold.Chemscore.DG>
-13.5888

> <Gold.Chemscore.ZeroCoef>
-5.4800

> <Gold.Chemscore.Hbond>
2.9427

> <Gold.Chemscore.Metal>
0.0000

> <Gold.Chemscore.Lipo>
22.0729

> <Gold.Chemscore.Internal_Hbond>
0.0000

> <Gold.Chemscore.DEClash>
0.0000

> <Gold.Chemscore.DEInternal>
0.3325

> <Gold.Chemscore.Rot>
1.6806

> <Gold.Chemscore.Internal.Correction>
   9.000000E+99

> <Gold.Chemscore.Hbonds>
donor molecule, donor type, donor heavy atom, donor atom, acceptor molecule, acceptor atom, score
      L1  H    13    14       P1  8028  0.80
      P1  H  7989  7998       L1    12  0.05
      P1  H  7997  8008       L1     9  0.98
      P1  H  8011  8017       L1    12  0.15
      P1  H 10752 10764       L1    10  0.87

> <Gold.Chemscore.Hbond.Weighted>
-9.8285

> <Gold.Chemscore.Metal.Weighted>
-0.0000

> <Gold.Chemscore.Lipo.Weighted>
-2.5825

> <Gold.Chemscore.Internal_Hbond.Weighted>
0.0000

> <Gold.Chemscore.DEClash.Weighted>
0.0000

> <Gold.Chemscore.DEInternal.Weighted>
0.3325

> <Gold.Chemscore.Rot.Weighted>
4.3022

> <Gold.Chemscore.Internal.Correction.Weighted>
   9.000000E+99

> <Gold.Protein.RotatedTorsions>
[ 6907 6896 6895 6894 ] final -177.59 input  -60.11 | X-H torsion
[ 7974 7965 7964 7962 ] final -165.95 input  175.53 | X-H torsion
[ 8008 7997 7996 7995 ] final  -34.07 input   59.86 | X-H torsion
[ 10167 10162 10161 10158 ] final   30.52 input  -65.29 | X-H torsion
[ 10718 10713 10712 10709 ] final  -77.85 input   66.30 | X-H torsion
[ 10763 10752 10751 10750 ] final  -43.13 input  -60.55 | X-H torsion
[ 11005 11000 10999 10996 ] final  168.03 input  -57.11 | X-H torsion

> <Gold.Protein.ActiveResidues>
 VAL166  LYS551  ARG553  GLY616  TRP617  ASP618  TYR619  PRO620  LYS621  CYS622 
 ASP623  PHE694  ASN695  SER759  ASP760  ASP761  ALA762  ILE779  LEU786  VAL792 
 PHE793  MET794  SER795  GLU796  ALA797  LYS798  CYS799  TRP800  GLU811  SER814 

> <Gold.Protein.RotatedAtoms>
  151.6235  133.3337  159.3092 H   0  0  0  0  0  0  0  0  0  0  0  0  # atno 6907 bound_to 6896
  150.8094  134.7242  159.6685 H   0  0  0  0  0  0  0  0  0  0  0  0  # atno 6908 bound_to 6896
  152.4190  134.5994  160.0047 H   0  0  0  0  0  0  0  0  0  0  0  0  # atno 6909 bound_to 6896
  144.7257  140.2739  143.6246 H   0  0  0  0  0  0  0  0  0  0  0  0  # atno 7974 bound_to 7965
  154.4131  140.1694  156.1990 H   0  0  0  0  0  0  0  0  0  0  0  0  # atno 8008 bound_to 7997
  155.9540  140.3398  155.6409 H   0  0  0  0  0  0  0  0  0  0  0  0  # atno 8009 bound_to 7997
  155.6834  140.0725  157.2467 H   0  0  0  0  0  0  0  0  0  0  0  0  # atno 8010 bound_to 7997
  140.4670  144.0820  150.6227 H   0  0  0  0  0  0  0  0  0  0  0  0  # atno 10167 bound_to 10162
  156.0133  130.4502  150.3408 H   0  0  0  0  0  0  0  0  0  0  0  0  # atno 10718 bound_to 10713
  153.9905  135.6706  153.4754 H   0  0  0  0  0  0  0  0  0  0  0  0  # atno 10763 bound_to 10752
  153.0707  135.4976  154.8294 H   0  0  0  0  0  0  0  0  0  0  0  0  # atno 10764 bound_to 10752
  154.7111  135.3097  154.9157 H   0  0  0  0  0  0  0  0  0  0  0  0  # atno 10765 bound_to 10752
  140.2830  134.7735  157.3774 H   0  0  0  0  0  0  0  0  0  0  0  0  # atno 11005 bound_to 11000
  145.8016  139.1966  143.2045 LP  0  0  0  0  0  0  0  0  0  0  0  0  # atno 17320 bound_to 7965
  146.0672  140.7908  142.9706 LP  0  0  0  0  0  0  0  0  0  0  0  0  # atno 17321 bound_to 7965
  140.4024  143.2697  151.9932 LP  0  0  0  0  0  0  0  0  0  0  0  0  # atno 17342 bound_to 10162
  139.4813  144.5986  151.7645 LP  0  0  0  0  0  0  0  0  0  0  0  0  # atno 17343 bound_to 10162
  157.1503  131.0319  151.2888 LP  0  0  0  0  0  0  0  0  0  0  0  0  # atno 17370 bound_to 10713
  157.4397  130.7537  149.7059 LP  0  0  0  0  0  0  0  0  0  0  0  0  # atno 17371 bound_to 10713
  140.1266  134.5150  155.8140 LP  0  0  0  0  0  0  0  0  0  0  0  0  # atno 17394 bound_to 11000
  141.2159  133.6775  156.6962 LP  0  0  0  0  0  0  0  0  0  0  0  0  # atno 17395 bound_to 11000

$$$$
