AV-unprocessed.smi:45|AV-procd|sdf|416|dock10
  -GOLD-   2262016293D 1   1.00000     0.00000
 Structure written by MMmdl.
 60 63  0  0  0  0  0  0  0  0  3 V2000
  143.1634  132.3916  148.4442 C   0  0  0  0  0  0  0  0  0  0  0  0
  143.6415  131.8030  149.6449 O   0  0  0  0  0  0  0  0  0  0  0  0
  144.3166  132.6051  150.5416 C   0  0  0  0  0  0  0  0  0  0  0  0
  144.3034  134.0226  150.4971 C   0  0  0  0  0  0  0  0  0  0  0  0
  145.0176  134.7754  151.4488 C   0  0  0  0  0  0  0  0  0  0  0  0
  145.7561  134.1279  152.4589 C   0  0  0  0  0  0  0  0  0  0  0  0
  146.5234  134.9396  153.4834 C   0  0  0  0  0  0  0  0  0  0  0  0
  145.8808  134.9654  154.7890 N   0  0  0  0  0  0  0  0  0  0  0  0
  145.7055  136.1644  155.5013 C   0  0  0  0  0  0  0  0  0  0  0  0
  146.0951  137.3155  154.9067 N   0  0  0  0  0  0  0  0  0  0  0  0
  145.9410  138.4902  155.5326 C   0  0  0  0  0  0  0  0  0  0  0  0
  146.3509  139.6511  154.8789 N   0  0  0  0  0  0  0  0  0  0  0  0
  146.5434  140.9064  155.5975 C   0  0  0  0  0  0  0  0  0  0  0  0
  147.6812  141.6346  154.8801 C   0  0  0  0  0  0  0  0  0  0  0  0
  147.5534  141.1450  153.4426 C   0  0  0  0  0  0  0  0  0  0  0  0
  147.0868  139.6916  153.6147 C   0  0  2  0  0  0  0  0  0  0  0  0
  146.3097  139.1222  152.4057 C   0  0  0  0  0  0  0  0  0  0  0  0
  147.1809  138.6651  151.3913 O   0  0  0  0  0  0  0  0  0  0  0  0
  145.3939  138.5767  156.7546 N   0  3  0  0  0  0  0  0  0  0  0  0
  144.9862  137.4543  157.3943 C   0  0  0  0  0  0  0  0  0  0  0  0
  145.1210  136.1841  156.7919 C   0  0  0  0  0  0  0  0  0  0  0  0
  144.6911  134.9376  157.5239 C   0  0  0  0  0  0  0  0  0  0  0  0
  143.7827  134.2521  157.0409 O   0  0  0  0  0  0  0  0  0  0  0  0
  145.3927  134.7656  158.6773 N   0  5  0  0  0  0  0  0  0  0  0  0
  146.8452  134.9006  158.7761 C   0  0  0  0  0  0  0  0  0  0  0  0
  147.2999  135.0140  160.2243 C   0  0  0  0  0  0  0  0  0  0  0  0
  147.0684  133.9589  161.0156 N   0  0  0  0  0  0  0  0  0  0  0  0
  147.4910  134.0479  162.2954 C   0  0  0  0  0  0  0  0  0  0  0  0
  148.1457  135.1968  162.7826 C   0  0  0  0  0  0  0  0  0  0  0  0
  148.3332  136.2453  161.8600 C   0  0  0  0  0  0  0  0  0  0  0  0
  147.9088  136.1517  160.5811 N   0  0  0  0  0  0  0  0  0  0  0  0
  145.7739  132.7205  152.5103 C   0  0  0  0  0  0  0  0  0  0  0  0
  145.0605  131.9654  151.5586 C   0  0  0  0  0  0  0  0  0  0  0  0
  145.1050  130.2409  151.6493 Cl  0  0  0  0  0  0  0  0  0  0  0  0
  147.9755  139.0765  153.7624 H   0  0  0  0  0  0  0  0  0  0  0  0
  142.6517  131.6338  147.8512 H   0  0  0  0  0  0  0  0  0  0  0  0
  143.9815  132.7856  147.8397 H   0  0  0  0  0  0  0  0  0  0  0  0
  142.4475  133.1887  148.6484 H   0  0  0  0  0  0  0  0  0  0  0  0
  143.7516  134.5587  149.7401 H   0  0  0  0  0  0  0  0  0  0  0  0
  144.9972  135.8543  151.4006 H   0  0  0  0  0  0  0  0  0  0  0  0
  147.5225  134.5131  153.5813 H   0  0  0  0  0  0  0  0  0  0  0  0
  146.6444  135.9623  153.1235 H   0  0  0  0  0  0  0  0  0  0  0  0
  145.5472  134.0987  155.1874 H   0  0  0  0  0  0  0  0  0  0  0  0
  145.6204  141.4844  155.5417 H   0  0  0  0  0  0  0  0  0  0  0  0
  146.7827  140.7513  156.6502 H   0  0  0  0  0  0  0  0  0  0  0  0
  147.6163  142.7192  154.9716 H   0  0  0  0  0  0  0  0  0  0  0  0
  148.6406  141.3176  155.2915 H   0  0  0  0  0  0  0  0  0  0  0  0
  146.8019  141.7455  152.9287 H   0  0  0  0  0  0  0  0  0  0  0  0
  148.4848  141.2253  152.8816 H   0  0  0  0  0  0  0  0  0  0  0  0
  145.6998  138.2788  152.7304 H   0  0  0  0  0  0  0  0  0  0  0  0
  145.6227  139.8513  151.9790 H   0  0  0  0  0  0  0  0  0  0  0  0
  147.9506  139.2139  151.3856 H   0  0  0  0  0  0  0  0  0  0  0  0
  144.5654  137.6110  158.3772 H   0  0  0  0  0  0  0  0  0  0  0  0
  147.3605  134.0545  158.3178 H   0  0  0  0  0  0  0  0  0  0  0  0
  147.2026  135.7787  158.2358 H   0  0  0  0  0  0  0  0  0  0  0  0
  147.3057  133.1974  162.9344 H   0  0  0  0  0  0  0  0  0  0  0  0
  148.4843  135.2697  163.8052 H   0  0  0  0  0  0  0  0  0  0  0  0
  148.8249  137.1623  162.1487 H   0  0  0  0  0  0  0  0  0  0  0  0
  146.3380  132.2141  153.2799 H   0  0  0  0  0  0  0  0  0  0  0  0
  145.2802  139.4802  157.2132 H   0  0  0  0  0  0  0  0  0  0  0  0
  1  2  1  0  0  0  0
  1 36  1  0  0  0  0
  1 37  1  0  0  0  0
  1 38  1  0  0  0  0
  2  3  1  0  0  0  0
  3 33  1  0  0  0  0
  3  4  2  0  0  0  0
  4  5  1  0  0  0  0
  4 39  1  0  0  0  0
  5  6  2  0  0  0  0
  5 40  1  0  0  0  0
  6  7  1  0  0  0  0
  6 32  1  0  0  0  0
  7  8  1  0  0  0  0
  7 41  1  0  0  0  0
  7 42  1  0  0  0  0
  8  9  1  0  0  0  0
  8 43  1  0  0  0  0
  9 21  1  0  0  0  0
  9 10  2  0  0  0  0
 10 11  1  0  0  0  0
 11 12  1  0  0  0  0
 11 19  2  0  0  0  0
 12 16  1  0  0  0  0
 12 13  1  0  0  0  0
 13 14  1  0  0  0  0
 13 44  1  0  0  0  0
 13 45  1  0  0  0  0
 14 15  1  0  0  0  0
 14 46  1  0  0  0  0
 14 47  1  0  0  0  0
 15 16  1  0  0  0  0
 15 48  1  0  0  0  0
 15 49  1  0  0  0  0
 16 35  1  0  0  0  0
 16 17  1  0  0  0  0
 17 18  1  0  0  0  0
 17 50  1  0  0  0  0
 17 51  1  0  0  0  0
 18 52  1  0  0  0  0
 19 20  1  0  0  0  0
 19 60  1  0  0  0  0
 20 21  2  0  0  0  0
 20 53  1  0  0  0  0
 21 22  1  0  0  0  0
 22 23  2  0  0  0  0
 22 24  1  0  0  0  0
 24 25  1  0  0  0  0
 25 26  1  0  0  0  0
 25 54  1  0  0  0  0
 25 55  1  0  0  0  0
 26 31  1  0  0  0  0
 26 27  2  0  0  0  0
 27 28  1  0  0  0  0
 28 29  2  0  0  0  0
 28 56  1  0  0  0  0
 29 30  1  0  0  0  0
 29 57  1  0  0  0  0
 30 31  2  0  0  0  0
 30 58  1  0  0  0  0
 32 33  2  0  0  0  0
 32 59  1  0  0  0  0
 33 34  1  0  0  0  0
M  CHG  1  19   1
M  CHG  1  24  -1
M  END
> <s_m_source_file>
AV-unprocessed.smi

> <i_m_source_file_index>
45

> <i_lp_mmshare_version>
43012

> <i_f3d_flags>
0

> <s_epik_input>
W0NIM11PYzFbY0hdW2NIXWMoW2NIXWMxQ2wpW0NIMl1bTkhdYzJuYyhOM1tDSDJdW0NIMl1bQ0gyXVtDQEhdM1tDSDJdW09IXSluW2NIXWMyQyg9TylbTkhdW0NIMl1jNG5bY0hdW2NIXVtjSF1uNA==

> <s_epik_cmdline>
J2VwaWtfcHl0aG9uJywgJy1waCcsICc3LjAnLCAnLXRuJywgJzgnLCAnLW1hJywgJzIwMCcsICctbWV0YWxfYmluZGluZycsICctaW1hZScsICc8aW5maWxlLm1hZT4nLCAnLW9tYWUnLCAnPG91dGZpbGUubWFlPic=

> <r_lp_tautomer_probability>
0.575011

> <r_epik_Ionization_Penalty>
6.73124

> <r_epik_Ionization_Penalty_Charging>
6.73106

> <r_epik_Ionization_Penalty_Neutral>
0.000179426

> <r_epik_State_Penalty>
8.26145

> <r_epik_Charging_Adjusted_Penalty>
14.9925

> <i_epik_Tot_Q>
0

> <i_epik_Tot_abs_Q>
2

> <r_epik_Metal_State_Penalty>
4.22532

> <b_epik_Metal_Only>
1

> <s_epik_Chemistry_Notes>
This compound contains an electron-poor aromatic ring that is susceptible to covalent hydrolysis at low pH, typically resulting in measured values for nitrogen ring protonation that are around two units higher than predicted values.

> <s_lp_Force_Field>
OPLS_2005

> <r_lp_Energy>
47.4245

> <b_lp_Chiralities_Consistent>
1

> <s_lp_Variant>
AV-unprocessed.smi:45-10

> <Gold.Version>
5.8.1

> <Gold.Id.Protein>
6NUR|6NUR_protein|mol2

> <Gold.PLP.Fitness>
51.2329

> <Gold.PLP.PLP>
-49.2699

> <Gold.PLP.part.hbond>
-4.5909

> <Gold.PLP.part.metal>
0.0000

> <Gold.PLP.part.buried>
-1.5878

> <Gold.PLP.part.nonpolar>
-41.2424

> <Gold.PLP.part.repulsive>
0.3808

> <Gold.PLP.ligand.clash>
0.0000

> <Gold.PLP.ligand.torsion>
2.4371

> <Gold.PLP.Chemscore.Hbond>
2.0751

> <Gold.PLP.Chemscore.CHOScore>
0.0000

> <Gold.PLP.Chemscore.Metal>
0.0000

> <Gold.Chemscore.Hbonds>
donor molecule, donor type, donor heavy atom, donor atom, acceptor molecule, acceptor atom, score
      L1  H    18    52       P1  7957  1.00
      P1  H 10785 10796       L1     2  0.19

> <Gold.PLP.Chemscore.Internal.Correction>
0.6120

> <Gold.Rescore>
     Score         DG    S(hbond)    S(metal)    S(lipo)     H(rot)  DE(clash)    DE(int)     intcor
     13.77     -16.67       1.22        0.00     124.16       2.90       0.56       2.35       ----

> <Gold.Chemscore.Fitness>
13.7685

> <Gold.Chemscore.DG>
-16.6735

> <Gold.Chemscore.ZeroCoef>
-5.4800

> <Gold.Chemscore.Hbond>
1.2240

> <Gold.Chemscore.Metal>
0.0000

> <Gold.Chemscore.Lipo>
124.1569

> <Gold.Chemscore.Internal_Hbond>
0.0000

> <Gold.Chemscore.DEClash>
0.5555

> <Gold.Chemscore.DEInternal>
2.3495

> <Gold.Chemscore.Rot>
2.8988

> <Gold.Chemscore.Internal.Correction>
   9.000000E+99

> <Gold.Chemscore.Hbonds>
donor molecule, donor type, donor heavy atom, donor atom, acceptor molecule, acceptor atom, score
      L1  H    18    52       P1  7957  0.85

> <Gold.Chemscore.Hbond.Weighted>
-4.0880

> <Gold.Chemscore.Metal.Weighted>
-0.0000

> <Gold.Chemscore.Lipo.Weighted>
-14.5264

> <Gold.Chemscore.Internal_Hbond.Weighted>
0.0000

> <Gold.Chemscore.DEClash.Weighted>
0.5555

> <Gold.Chemscore.DEInternal.Weighted>
2.3495

> <Gold.Chemscore.Rot.Weighted>
7.4209

> <Gold.Chemscore.Internal.Correction.Weighted>
   9.000000E+99

> <Gold.Protein.RotatedTorsions>
[ 6907 6896 6895 6894 ] final  -16.06 input  -60.11 | X-H torsion
[ 7974 7965 7964 7962 ] final   31.43 input  175.53 | X-H torsion
[ 8008 7997 7996 7995 ] final   54.99 input   59.86 | X-H torsion
[ 10167 10162 10161 10158 ] final   -8.56 input  -65.29 | X-H torsion
[ 10718 10713 10712 10709 ] final  102.13 input   66.30 | X-H torsion
[ 10763 10752 10751 10750 ] final  133.16 input  -60.55 | X-H torsion
[ 11005 11000 10999 10996 ] final  -81.55 input  -57.11 | X-H torsion

> <Gold.Protein.ActiveResidues>
 VAL166  LYS551  ARG553  GLY616  TRP617  ASP618  TYR619  PRO620  LYS621  CYS622 
 ASP623  PHE694  ASN695  SER759  ASP760  ASP761  ALA762  ILE779  LEU786  VAL792 
 PHE793  MET794  SER795  GLU796  ALA797  LYS798  CYS799  TRP800  GLU811  SER814 

> <Gold.Protein.RotatedAtoms>
  151.3145  135.0802  159.9283 H   0  0  0  0  0  0  0  0  0  0  0  0  # atno 6907 bound_to 6896
  152.5270  133.9702  159.7769 H   0  0  0  0  0  0  0  0  0  0  0  0  # atno 6908 bound_to 6896
  151.0012  133.6002  159.2725 H   0  0  0  0  0  0  0  0  0  0  0  0  # atno 6909 bound_to 6896
  146.1550  139.6657  142.9072 H   0  0  0  0  0  0  0  0  0  0  0  0  # atno 7974 bound_to 7965
  155.4938  140.3472  155.4359 H   0  0  0  0  0  0  0  0  0  0  0  0  # atno 8008 bound_to 7997
  156.0959  140.1423  156.9559 H   0  0  0  0  0  0  0  0  0  0  0  0  # atno 8009 bound_to 7997
  154.4663  140.0916  156.7007 H   0  0  0  0  0  0  0  0  0  0  0  0  # atno 8010 bound_to 7997
  140.7062  143.5955  150.8850 H   0  0  0  0  0  0  0  0  0  0  0  0  # atno 10167 bound_to 10162
  157.6811  131.0745  150.5357 H   0  0  0  0  0  0  0  0  0  0  0  0  # atno 10718 bound_to 10713
  153.8026  135.3140  155.3392 H   0  0  0  0  0  0  0  0  0  0  0  0  # atno 10763 bound_to 10752
  154.8083  135.4684  154.0452 H   0  0  0  0  0  0  0  0  0  0  0  0  # atno 10764 bound_to 10752
  153.1805  135.6892  153.8572 H   0  0  0  0  0  0  0  0  0  0  0  0  # atno 10765 bound_to 10752
  141.1666  133.7202  156.8439 H   0  0  0  0  0  0  0  0  0  0  0  0  # atno 11005 bound_to 11000
  145.4730  141.0436  143.2688 LP  0  0  0  0  0  0  0  0  0  0  0  0  # atno 17320 bound_to 7965
  144.7952  139.6248  143.7096 LP  0  0  0  0  0  0  0  0  0  0  0  0  # atno 17321 bound_to 7965
  139.9680  143.6089  152.2982 LP  0  0  0  0  0  0  0  0  0  0  0  0  # atno 17342 bound_to 10162
  139.6665  144.7662  151.1863 LP  0  0  0  0  0  0  0  0  0  0  0  0  # atno 17343 bound_to 10162
  156.5666  130.4269  149.6038 LP  0  0  0  0  0  0  0  0  0  0  0  0  # atno 17370 bound_to 10713
  156.2776  130.7052  151.1868 LP  0  0  0  0  0  0  0  0  0  0  0  0  # atno 17371 bound_to 10713
  140.1964  134.8929  157.3119 LP  0  0  0  0  0  0  0  0  0  0  0  0  # atno 17394 bound_to 11000
  140.2235  134.3995  155.7555 LP  0  0  0  0  0  0  0  0  0  0  0  0  # atno 17395 bound_to 11000

$$$$
