AV-unprocessed.smi:317|AV-procd|sdf|2326|dock3
  -GOLD-   2262022233D 1   1.00000     0.00000
 Structure written by MMmdl.
 39 40  0  0  0  0  0  0  0  0  1 V2000
  153.2680  143.9739  158.6835 C   0  0  0  0  0  0  0  0  0  0  0  0
  151.8301  144.5074  158.5712 C   0  0  2  0  0  0  0  0  0  0  0  0
  151.0356  144.2416  159.8626 C   0  0  0  0  0  0  0  0  0  0  0  0
  151.6426  144.8981  160.9556 O   0  0  0  0  0  0  0  0  0  0  0  0
  151.1613  143.8559  157.4481 N   0  0  0  0  0  0  0  0  0  0  0  0
  151.1917  142.5422  157.1841 C   0  0  0  0  0  0  0  0  0  0  0  0
  151.7864  141.7186  157.8797 O   0  0  0  0  0  0  0  0  0  0  0  0
  150.4755  142.2527  156.0855 N   0  0  0  0  0  0  0  0  0  0  0  0
  150.2280  140.9721  155.5173 C   0  0  0  0  0  0  0  0  0  0  0  0
  151.1814  139.9292  155.6108 C   0  0  0  0  0  0  0  0  0  0  0  0
  150.9275  138.7036  154.9718 C   0  0  0  0  0  0  0  0  0  0  0  0
  149.7326  138.5683  154.2455 C   0  0  0  0  0  0  0  0  0  0  0  0
  148.8208  139.5552  154.1364 N   0  0  0  0  0  0  0  0  0  0  0  0
  149.0445  140.7388  154.7596 C   0  0  0  0  0  0  0  0  0  0  0  0
  148.0450  141.7302  154.6260 N   0  0  0  0  0  0  0  0  0  0  0  0
  147.2236  141.7973  153.4220 C   0  0  0  0  0  0  0  0  0  0  0  0
  146.0425  142.6873  153.7981 C   0  0  0  0  0  0  0  0  0  0  0  0
  145.8076  142.3155  155.2585 C   0  0  0  0  0  0  0  0  0  0  0  0
  147.2163  142.0309  155.7902 C   0  0  0  0  0  0  0  0  0  0  0  0
  153.7995  144.4497  159.5080 H   0  0  0  0  0  0  0  0  0  0  0  0
  153.8364  144.1708  157.7738 H   0  0  0  0  0  0  0  0  0  0  0  0
  153.2803  142.8973  158.8573 H   0  0  0  0  0  0  0  0  0  0  0  0
  151.8836  145.5852  158.4037 H   0  0  0  0  0  0  0  0  0  0  0  0
  149.9933  144.5484  159.7671 H   0  0  0  0  0  0  0  0  0  0  0  0
  151.0333  143.1756  160.0921 H   0  0  0  0  0  0  0  0  0  0  0  0
  151.1013  144.7733  161.7200 H   0  0  0  0  0  0  0  0  0  0  0  0
  150.6474  144.4541  156.8182 H   0  0  0  0  0  0  0  0  0  0  0  0
  149.9595  143.0165  155.6738 H   0  0  0  0  0  0  0  0  0  0  0  0
  152.1122  140.0585  156.1419 H   0  0  0  0  0  0  0  0  0  0  0  0
  151.6383  137.8927  155.0264 H   0  0  0  0  0  0  0  0  0  0  0  0
  149.5048  137.6453  153.7332 H   0  0  0  0  0  0  0  0  0  0  0  0
  147.7852  142.2033  152.5804 H   0  0  0  0  0  0  0  0  0  0  0  0
  146.8570  140.8077  153.1457 H   0  0  0  0  0  0  0  0  0  0  0  0
  146.3265  143.7377  153.7216 H   0  0  0  0  0  0  0  0  0  0  0  0
  145.1680  142.5234  153.1678 H   0  0  0  0  0  0  0  0  0  0  0  0
  145.2921  143.0947  155.8201 H   0  0  0  0  0  0  0  0  0  0  0  0
  145.2054  141.4078  155.3120 H   0  0  0  0  0  0  0  0  0  0  0  0
  147.2113  141.2156  156.5149 H   0  0  0  0  0  0  0  0  0  0  0  0
  147.6124  142.9189  156.2830 H   0  0  0  0  0  0  0  0  0  0  0  0
  1  2  1  0  0  0  0
  1 20  1  0  0  0  0
  1 21  1  0  0  0  0
  1 22  1  0  0  0  0
  2  3  1  0  0  0  0
  2  5  1  0  0  0  0
  2 23  1  0  0  0  0
  3  4  1  0  0  0  0
  3 24  1  0  0  0  0
  3 25  1  0  0  0  0
  4 26  1  0  0  0  0
  5  6  1  0  0  0  0
  5 27  1  0  0  0  0
  6  7  2  0  0  0  0
  6  8  1  0  0  0  0
  8  9  1  0  0  0  0
  8 28  1  0  0  0  0
  9 14  1  0  0  0  0
  9 10  2  0  0  0  0
 10 11  1  0  0  0  0
 10 29  1  0  0  0  0
 11 12  2  0  0  0  0
 11 30  1  0  0  0  0
 12 13  1  0  0  0  0
 12 31  1  0  0  0  0
 13 14  2  0  0  0  0
 14 15  1  0  0  0  0
 15 19  1  0  0  0  0
 15 16  1  0  0  0  0
 16 17  1  0  0  0  0
 16 32  1  0  0  0  0
 16 33  1  0  0  0  0
 17 18  1  0  0  0  0
 17 34  1  0  0  0  0
 17 35  1  0  0  0  0
 18 19  1  0  0  0  0
 18 36  1  0  0  0  0
 18 37  1  0  0  0  0
 19 38  1  0  0  0  0
 19 39  1  0  0  0  0
M  END
> <s_m_source_file>
AV-unprocessed.smi

> <i_m_source_file_index>
317

> <i_lp_mmshare_version>
43012

> <i_f3d_flags>
0

> <s_epik_input>
W09IXVtDSDJdW0NAQEhdKFtDSDNdKVtOSF1DKD1PKVtOSF1jMVtjSF1bY0hdW2NIXW5jMU4yW0NIMl1bQ0gyXVtDSDJdW0NIMl0y

> <s_epik_cmdline>
J2VwaWtfcHl0aG9uJywgJy1waCcsICc3LjAnLCAnLXRuJywgJzgnLCAnLW1hJywgJzIwMCcsICctbWV0YWxfYmluZGluZycsICctaW1hZScsICc8aW5maWxlLm1hZT4nLCAnLW9tYWUnLCAnPG91dGZpbGUubWFlPic=

> <r_lp_tautomer_probability>
1

> <r_epik_Ionization_Penalty>
0.098371

> <r_epik_Ionization_Penalty_Charging>
0

> <r_epik_Ionization_Penalty_Neutral>
0.098371

> <r_epik_State_Penalty>
0.0879016

> <r_epik_Charging_Adjusted_Penalty>
0.0879016

> <i_epik_Tot_Q>
0

> <i_epik_Tot_abs_Q>
0

> <r_epik_Metal_State_Penalty>
0.0753294

> <b_epik_Metal_Only>
0

> <s_lp_Force_Field>
OPLS_2005

> <r_lp_Energy>
32.6275

> <b_lp_Chiralities_Consistent>
1

> <s_lp_Variant>
AV-unprocessed.smi:317-1

> <Gold.Version>
5.8.1

> <Gold.Id.Protein>
6NUR|6NUR_protein|mol2

> <Gold.PLP.Fitness>
48.1391

> <Gold.PLP.PLP>
-40.6017

> <Gold.PLP.part.hbond>
-3.0000

> <Gold.PLP.part.metal>
0.0000

> <Gold.PLP.part.buried>
-7.5435

> <Gold.PLP.part.nonpolar>
-31.0997

> <Gold.PLP.part.repulsive>
0.7191

> <Gold.PLP.ligand.clash>
0.0000

> <Gold.PLP.ligand.torsion>
0.8843

> <Gold.PLP.Chemscore.Hbond>
1.9920

> <Gold.PLP.Chemscore.CHOScore>
1.0000

> <Gold.PLP.Chemscore.Metal>
0.0000

> <Gold.Chemscore.Hbonds>
donor molecule, donor type, donor heavy atom, donor atom, acceptor molecule, acceptor atom, score
      L1  H     5    27       P1  8028  0.81
      L1  H     8    28       P1  8028  1.00
      L1  C    12    31       P1  7948  1.00

> <Gold.PLP.Chemscore.Internal.Correction>
0.3298

> <Gold.Rescore>
     Score         DG    S(hbond)    S(metal)    S(lipo)     H(rot)  DE(clash)    DE(int)     intcor
     13.46     -16.72       1.88        0.00      88.01       2.08       0.37       2.90       ----

> <Gold.Chemscore.Fitness>
13.4602

> <Gold.Chemscore.DG>
-16.7248

> <Gold.Chemscore.ZeroCoef>
-5.4800

> <Gold.Chemscore.Hbond>
1.8757

> <Gold.Chemscore.Metal>
0.0000

> <Gold.Chemscore.Lipo>
88.0150

> <Gold.Chemscore.Internal_Hbond>
0.0000

> <Gold.Chemscore.DEClash>
0.3671

> <Gold.Chemscore.DEInternal>
2.8975

> <Gold.Chemscore.Rot>
2.0773

> <Gold.Chemscore.Internal.Correction>
   9.000000E+99

> <Gold.Chemscore.Hbonds>
donor molecule, donor type, donor heavy atom, donor atom, acceptor molecule, acceptor atom, score
      L1  H     5    27       P1  8028  0.73
      L1  H     8    28       P1  8028  0.94

> <Gold.Chemscore.Hbond.Weighted>
-6.2649

> <Gold.Chemscore.Metal.Weighted>
-0.0000

> <Gold.Chemscore.Lipo.Weighted>
-10.2978

> <Gold.Chemscore.Internal_Hbond.Weighted>
0.0000

> <Gold.Chemscore.DEClash.Weighted>
0.3671

> <Gold.Chemscore.DEInternal.Weighted>
2.8975

> <Gold.Chemscore.Rot.Weighted>
5.3178

> <Gold.Chemscore.Internal.Correction.Weighted>
   9.000000E+99

> <Gold.Protein.RotatedTorsions>
[ 6907 6896 6895 6894 ] final  139.78 input  -60.11 | X-H torsion
[ 7974 7965 7964 7962 ] final   18.13 input  175.53 | X-H torsion
[ 8008 7997 7996 7995 ] final   40.63 input   59.86 | X-H torsion
[ 10167 10162 10161 10158 ] final  -74.92 input  -65.29 | X-H torsion
[ 10718 10713 10712 10709 ] final -104.23 input   66.30 | X-H torsion
[ 10763 10752 10751 10750 ] final -150.20 input  -60.55 | X-H torsion
[ 11005 11000 10999 10996 ] final  -88.14 input  -57.11 | X-H torsion

> <Gold.Protein.ActiveResidues>
 VAL166  LYS551  ARG553  GLY616  TRP617  ASP618  TYR619  PRO620  LYS621  CYS622 
 ASP623  PHE694  ASN695  SER759  ASP760  ASP761  ALA762  ILE779  LEU786  VAL792 
 PHE793  MET794  SER795  GLU796  ALA797  LYS798  CYS799  TRP800  GLU811  SER814 

> <Gold.Protein.RotatedAtoms>
  152.2509  133.5214  159.5324 H   0  0  0  0  0  0  0  0  0  0  0  0  # atno 6907 bound_to 6896
  150.7093  134.0961  159.3958 H   0  0  0  0  0  0  0  0  0  0  0  0  # atno 6908 bound_to 6896
  151.8881  135.0427  160.0546 H   0  0  0  0  0  0  0  0  0  0  0  0  # atno 6909 bound_to 6896
  146.2195  139.8502  142.8624 H   0  0  0  0  0  0  0  0  0  0  0  0  # atno 7974 bound_to 7965
  155.2562  140.3356  155.4277 H   0  0  0  0  0  0  0  0  0  0  0  0  # atno 8008 bound_to 7997
  156.2194  140.1803  156.7555 H   0  0  0  0  0  0  0  0  0  0  0  0  # atno 8009 bound_to 7997
  154.5803  140.0655  156.9078 H   0  0  0  0  0  0  0  0  0  0  0  0  # atno 8010 bound_to 7997
  140.4986  143.2365  151.7790 H   0  0  0  0  0  0  0  0  0  0  0  0  # atno 10167 bound_to 10162
  156.0296  130.5505  150.7366 H   0  0  0  0  0  0  0  0  0  0  0  0  # atno 10718 bound_to 10713
  154.8133  135.3290  154.7246 H   0  0  0  0  0  0  0  0  0  0  0  0  # atno 10763 bound_to 10752
  153.7892  135.6912  153.4879 H   0  0  0  0  0  0  0  0  0  0  0  0  # atno 10764 bound_to 10752
  153.1928  135.4544  155.0117 H   0  0  0  0  0  0  0  0  0  0  0  0  # atno 10765 bound_to 10752
  141.1606  133.7552  156.9409 H   0  0  0  0  0  0  0  0  0  0  0  0  # atno 11005 bound_to 11000
  145.2809  141.0138  143.3718 LP  0  0  0  0  0  0  0  0  0  0  0  0  # atno 17320 bound_to 7965
  144.9151  139.4481  143.6568 LP  0  0  0  0  0  0  0  0  0  0  0  0  # atno 17321 bound_to 7965
  139.4867  144.4553  151.9606 LP  0  0  0  0  0  0  0  0  0  0  0  0  # atno 17342 bound_to 10162
  140.3641  144.2936  150.5929 LP  0  0  0  0  0  0  0  0  0  0  0  0  # atno 17343 bound_to 10162
  157.4945  131.0913  151.0387 LP  0  0  0  0  0  0  0  0  0  0  0  0  # atno 17370 bound_to 10713
  157.0785  130.5893  149.5416 LP  0  0  0  0  0  0  0  0  0  0  0  0  # atno 17371 bound_to 10713
  140.1322  134.9348  157.2353 LP  0  0  0  0  0  0  0  0  0  0  0  0  # atno 17394 bound_to 11000
  140.2938  134.3209  155.7308 LP  0  0  0  0  0  0  0  0  0  0  0  0  # atno 17395 bound_to 11000

$$$$
