AV-unprocessed.smi:2229|AV-procd|sdf|9034|dock3
  -GOLD-   2272012243D 1   1.00000     0.00000
 Structure written by MMmdl.
 43 44  0  0  0  0  0  0  0  0  2 V2000
  152.7306  142.8390  159.8020 C   0  0  0  0  0  0  0  0  0  0  0  0
  152.2323  143.0460  158.3615 C   0  0  0  0  0  0  0  0  0  0  0  0
  151.8066  144.5071  158.1499 C   0  0  0  0  0  0  0  0  0  0  0  0
  151.0852  142.0847  157.9876 C   0  0  0  0  0  0  0  0  0  0  0  0
  150.7643  142.0446  156.4822 C   0  0  0  0  0  0  0  0  0  0  0  0
  149.5192  141.2026  156.1452 C   0  0  1  0  0  0  0  0  0  0  0  0
  148.1934  141.9574  156.3180 C   0  0  0  0  0  0  0  0  0  0  0  0
  147.2295  141.2620  155.3635 C   0  0  0  0  0  0  0  0  0  0  0  0
  148.0912  140.9445  154.1437 C   0  0  0  0  0  0  0  0  0  0  0  0
  149.5071  140.6818  154.6866 C   0  0  2  0  0  0  0  0  0  0  0  0
  149.8007  139.2532  154.6356 N   0  0  0  0  0  0  0  0  0  0  0  0
  151.0168  138.6936  154.7488 C   0  0  0  0  0  0  0  0  0  0  0  0
  152.0463  139.3548  154.8780 O   0  0  0  0  0  0  0  0  0  0  0  0
  151.1152  137.1588  154.7156 C   0  0  0  0  0  0  0  0  0  0  0  0
  150.4705  136.4729  155.8417 N   0  0  0  0  0  0  0  0  0  0  0  0
  149.1419  136.6284  156.1488 C   0  0  0  0  0  0  0  0  0  0  0  0
  148.8298  135.9344  157.1838 N   0  0  0  0  0  0  0  0  0  0  0  0
  150.0257  135.2662  157.5995 N   0  5  0  0  0  0  0  0  0  0  0  0
  150.9973  135.6339  156.7355 C   0  0  0  0  0  0  0  0  0  0  0  0
  152.1801  135.2966  156.7269 O   0  0  0  0  0  0  0  0  0  0  0  0
  151.9236  142.9702  160.5234 H   0  0  0  0  0  0  0  0  0  0  0  0
  153.5157  143.5537  160.0506 H   0  0  0  0  0  0  0  0  0  0  0  0
  153.1499  141.8437  159.9463 H   0  0  0  0  0  0  0  0  0  0  0  0
  153.0681  142.8532  157.6875 H   0  0  0  0  0  0  0  0  0  0  0  0
  150.9697  144.7731  158.7963 H   0  0  0  0  0  0  0  0  0  0  0  0
  151.4997  144.6839  157.1187 H   0  0  0  0  0  0  0  0  0  0  0  0
  152.6264  145.1921  158.3684 H   0  0  0  0  0  0  0  0  0  0  0  0
  151.3193  141.0791  158.3397 H   0  0  0  0  0  0  0  0  0  0  0  0
  150.1871  142.3898  158.5254 H   0  0  0  0  0  0  0  0  0  0  0  0
  150.6362  143.0592  156.1030 H   0  0  0  0  0  0  0  0  0  0  0  0
  151.6150  141.6257  155.9467 H   0  0  0  0  0  0  0  0  0  0  0  0
  149.4918  140.3450  156.8208 H   0  0  0  0  0  0  0  0  0  0  0  0
  147.8362  141.9457  157.3481 H   0  0  0  0  0  0  0  0  0  0  0  0
  148.3091  143.0001  156.0187 H   0  0  0  0  0  0  0  0  0  0  0  0
  146.8692  140.3353  155.8124 H   0  0  0  0  0  0  0  0  0  0  0  0
  146.3627  141.8759  155.1180 H   0  0  0  0  0  0  0  0  0  0  0  0
  147.6881  140.1160  153.5594 H   0  0  0  0  0  0  0  0  0  0  0  0
  148.1154  141.8155  153.4875 H   0  0  0  0  0  0  0  0  0  0  0  0
  150.2212  141.2275  154.0668 H   0  0  0  0  0  0  0  0  0  0  0  0
  149.0102  138.6317  154.5383 H   0  0  0  0  0  0  0  0  0  0  0  0
  150.6965  136.8071  153.7711 H   0  0  0  0  0  0  0  0  0  0  0  0
  152.1710  136.8842  154.6967 H   0  0  0  0  0  0  0  0  0  0  0  0
  148.5090  137.2778  155.5417 H   0  0  0  0  0  0  0  0  0  0  0  0
  1  2  1  0  0  0  0
  1 21  1  0  0  0  0
  1 22  1  0  0  0  0
  1 23  1  0  0  0  0
  2  3  1  0  0  0  0
  2  4  1  0  0  0  0
  2 24  1  0  0  0  0
  3 25  1  0  0  0  0
  3 26  1  0  0  0  0
  3 27  1  0  0  0  0
  4  5  1  0  0  0  0
  4 28  1  0  0  0  0
  4 29  1  0  0  0  0
  5  6  1  0  0  0  0
  5 30  1  0  0  0  0
  5 31  1  0  0  0  0
  6 10  1  0  0  0  0
  6  7  1  0  0  0  0
  6 32  1  0  0  0  0
  7  8  1  0  0  0  0
  7 33  1  0  0  0  0
  7 34  1  0  0  0  0
  8  9  1  0  0  0  0
  8 35  1  0  0  0  0
  8 36  1  0  0  0  0
  9 10  1  0  0  0  0
  9 37  1  0  0  0  0
  9 38  1  0  0  0  0
 10 11  1  0  0  0  0
 10 39  1  0  0  0  0
 11 12  1  0  0  0  0
 11 40  1  0  0  0  0
 12 13  2  0  0  0  0
 12 14  1  0  0  0  0
 14 15  1  0  0  0  0
 14 41  1  0  0  0  0
 14 42  1  0  0  0  0
 15 19  1  0  0  0  0
 15 16  1  0  0  0  0
 16 17  2  0  0  0  0
 16 43  1  0  0  0  0
 17 18  1  0  0  0  0
 18 19  1  0  0  0  0
 19 20  2  0  0  0  0
M  CHG  1  18  -1
M  END
> <s_m_source_file>
AV-unprocessed.smi

> <i_m_source_file_index>
2229

> <i_lp_mmshare_version>
43012

> <i_f3d_flags>
0

> <s_epik_input>
W0NIM11bQ0hdKFtDSDNdKVtDSDJdW0NIMl1bQ0BASF0xW0NIMl1bQ0gyXVtDSDJdW0NASF0xW05IXUMoPU8pW0NIMl1uMltjSF1uW25IXWMyPU8=

> <s_epik_cmdline>
J2VwaWtfcHl0aG9uJywgJy1waCcsICc3LjAnLCAnLXRuJywgJzgnLCAnLW1hJywgJzIwMCcsICctbWV0YWxfYmluZGluZycsICctaW1hZScsICc8aW5maWxlLm1hZT4nLCAnLW9tYWUnLCAnPG91dGZpbGUubWFlPic=

> <r_lp_tautomer_probability>
1

> <r_epik_Ionization_Penalty>
13.6733

> <r_epik_Ionization_Penalty_Charging>
13.6725

> <r_epik_Ionization_Penalty_Neutral>
0.000837689

> <r_epik_State_Penalty>
5.67062

> <r_epik_Charging_Adjusted_Penalty>
19.3431

> <i_epik_Tot_Q>
-1

> <i_epik_Tot_abs_Q>
1

> <r_epik_Metal_State_Penalty>
1.61781

> <b_epik_Metal_Only>
1

> <s_lp_Force_Field>
OPLS_2005

> <r_lp_Energy>
24.9867

> <b_lp_Chiralities_Consistent>
1

> <s_lp_Variant>
AV-unprocessed.smi:2229-8

> <Gold.Version>
5.8.1

> <Gold.Id.Protein>
6NUR|6NUR_protein|mol2

> <Gold.PLP.Fitness>
44.3736

> <Gold.PLP.PLP>
-35.5761

> <Gold.PLP.part.hbond>
-3.0000

> <Gold.PLP.part.metal>
0.0000

> <Gold.PLP.part.buried>
-3.7340

> <Gold.PLP.part.nonpolar>
-29.8243

> <Gold.PLP.part.repulsive>
0.1116

> <Gold.PLP.ligand.clash>
0.0000

> <Gold.PLP.ligand.torsion>
0.5648

> <Gold.PLP.Chemscore.Hbond>
3.3000

> <Gold.PLP.Chemscore.CHOScore>
0.0000

> <Gold.PLP.Chemscore.Metal>
0.0000

> <Gold.Chemscore.Hbonds>
donor molecule, donor type, donor heavy atom, donor atom, acceptor molecule, acceptor atom, score
      P1  H  6896  6908       L1    18  1.15
      P1  H  7989  7998       L1    13  0.82
      P1  H 10752 10764       L1    20  1.00

> <Gold.PLP.Chemscore.Internal.Correction>
0.0271

> <Gold.Rescore>
     Score         DG    S(hbond)    S(metal)    S(lipo)     H(rot)  DE(clash)    DE(int)     intcor
     15.96     -16.94       2.42        0.00      85.75       2.59       0.29       0.69       ----

> <Gold.Chemscore.Fitness>
15.9597

> <Gold.Chemscore.DG>
-16.9446

> <Gold.Chemscore.ZeroCoef>
-5.4800

> <Gold.Chemscore.Hbond>
2.4167

> <Gold.Chemscore.Metal>
0.0000

> <Gold.Chemscore.Lipo>
85.7540

> <Gold.Chemscore.Internal_Hbond>
0.0000

> <Gold.Chemscore.DEClash>
0.2925

> <Gold.Chemscore.DEInternal>
0.6924

> <Gold.Chemscore.Rot>
2.5939

> <Gold.Chemscore.Internal.Correction>
   9.000000E+99

> <Gold.Chemscore.Hbonds>
donor molecule, donor type, donor heavy atom, donor atom, acceptor molecule, acceptor atom, score
      P1  H  6896  6908       L1    18  0.52
      P1  H  7989  7998       L1    13  0.20
      P1  H 10752 10764       L1    20  0.99

> <Gold.Chemscore.Hbond.Weighted>
-8.0718

> <Gold.Chemscore.Metal.Weighted>
-0.0000

> <Gold.Chemscore.Lipo.Weighted>
-10.0332

> <Gold.Chemscore.Internal_Hbond.Weighted>
0.0000

> <Gold.Chemscore.DEClash.Weighted>
0.2925

> <Gold.Chemscore.DEInternal.Weighted>
0.6924

> <Gold.Chemscore.Rot.Weighted>
6.6405

> <Gold.Chemscore.Internal.Correction.Weighted>
   9.000000E+99

> <Gold.Protein.RotatedTorsions>
[ 6907 6896 6895 6894 ] final  163.06 input  -60.11 | X-H torsion
[ 7974 7965 7964 7962 ] final  109.41 input  175.53 | X-H torsion
[ 8008 7997 7996 7995 ] final -162.50 input   59.86 | X-H torsion
[ 10167 10162 10161 10158 ] final -106.53 input  -65.29 | X-H torsion
[ 10718 10713 10712 10709 ] final   70.25 input   66.30 | X-H torsion
[ 10763 10752 10751 10750 ] final  -17.76 input  -60.55 | X-H torsion
[ 11005 11000 10999 10996 ] final   66.55 input  -57.11 | X-H torsion

> <Gold.Protein.ActiveResidues>
 VAL166  LYS551  ARG553  GLY616  TRP617  ASP618  TYR619  PRO620  LYS621  CYS622 
 ASP623  PHE694  ASN695  SER759  ASP760  ASP761  ALA762  ILE779  LEU786  VAL792 
 PHE793  MET794  SER795  GLU796  ALA797  LYS798  CYS799  TRP800  GLU811  SER814 

> <Gold.Protein.RotatedAtoms>
  151.9309  133.3611  159.3930 H   0  0  0  0  0  0  0  0  0  0  0  0  # atno 6907 bound_to 6896
  150.7017  134.4538  159.5358 H   0  0  0  0  0  0  0  0  0  0  0  0  # atno 6908 bound_to 6896
  152.2178  134.8441  160.0540 H   0  0  0  0  0  0  0  0  0  0  0  0  # atno 6909 bound_to 6896
  145.2681  139.2677  143.3981 H   0  0  0  0  0  0  0  0  0  0  0  0  # atno 7974 bound_to 7965
  155.8078  140.0901  157.1921 H   0  0  0  0  0  0  0  0  0  0  0  0  # atno 8008 bound_to 7997
  154.3980  140.1460  156.3410 H   0  0  0  0  0  0  0  0  0  0  0  0  # atno 8009 bound_to 7997
  155.8397  140.3439  155.5626 H   0  0  0  0  0  0  0  0  0  0  0  0  # atno 8010 bound_to 7997
  140.1868  143.3923  152.1238 H   0  0  0  0  0  0  0  0  0  0  0  0  # atno 10167 bound_to 10162
  157.6390  130.9468  150.0625 H   0  0  0  0  0  0  0  0  0  0  0  0  # atno 10718 bound_to 10713
  153.5788  135.7005  153.5472 H   0  0  0  0  0  0  0  0  0  0  0  0  # atno 10763 bound_to 10752
  153.3279  135.4055  155.1471 H   0  0  0  0  0  0  0  0  0  0  0  0  # atno 10764 bound_to 10752
  154.8621  135.3711  154.5315 H   0  0  0  0  0  0  0  0  0  0  0  0  # atno 10765 bound_to 10752
  139.9825  134.6721  156.0237 H   0  0  0  0  0  0  0  0  0  0  0  0  # atno 11005 bound_to 11000
  146.3255  140.3117  142.8627 LP  0  0  0  0  0  0  0  0  0  0  0  0  # atno 17320 bound_to 7965
  144.9359  140.8025  143.5661 LP  0  0  0  0  0  0  0  0  0  0  0  0  # atno 17321 bound_to 7965
  139.5273  144.7117  151.5184 LP  0  0  0  0  0  0  0  0  0  0  0  0  # atno 17342 bound_to 10162
  140.6483  143.8750  150.6759 LP  0  0  0  0  0  0  0  0  0  0  0  0  # atno 17343 bound_to 10162
  156.1653  130.3645  149.9240 LP  0  0  0  0  0  0  0  0  0  0  0  0  # atno 17370 bound_to 10713
  156.7229  130.9013  151.3619 LP  0  0  0  0  0  0  0  0  0  0  0  0  # atno 17371 bound_to 10713
  141.1495  133.6550  156.3968 LP  0  0  0  0  0  0  0  0  0  0  0  0  # atno 17394 bound_to 11000
  140.5069  134.6432  157.5269 LP  0  0  0  0  0  0  0  0  0  0  0  0  # atno 17395 bound_to 11000

$$$$
