AV-unprocessed.smi:69|AV-procd|sdf|652|dock5
  -GOLD-   2262016553D 1   1.00000     0.00000
 Structure written by MMmdl.
 32 34  0  0  0  0  0  0  0  0  1 V2000
  147.6982  142.3456  154.4330 N   0  0  0  0  0  0  0  0  0  0  0  0
  148.3168  141.1582  154.3764 C   0  0  0  0  0  0  0  0  0  0  0  0
  147.7303  140.1596  153.6748 N   0  0  0  0  0  0  0  0  0  0  0  0
  148.3292  138.9661  153.6007 C   0  0  0  0  0  0  0  0  0  0  0  0
  149.4857  138.5754  154.1442 N   0  0  0  0  0  0  0  0  0  0  0  0
  150.0717  139.5845  154.8533 C   0  0  0  0  0  0  0  0  0  0  0  0
  149.5564  140.8995  155.0141 C   0  0  0  0  0  0  0  0  0  0  0  0
  150.4273  141.6554  155.7869 N   0  0  0  0  0  0  0  0  0  0  0  0
  151.4028  140.8300  156.0609 C   0  0  0  0  0  0  0  0  0  0  0  0
  151.2587  139.5542  155.5532 N   0  0  0  0  0  0  0  0  0  0  0  0
  152.1785  138.3744  155.6551 C   0  0  1  0  0  0  0  0  0  0  0  0
  153.2464  138.7091  156.4857 O   0  0  0  0  0  0  0  0  0  0  0  0
  152.9257  138.3568  157.8249 C   0  0  2  0  0  0  0  0  0  0  0  0
  154.2092  138.2619  158.6630 C   0  0  0  0  0  0  0  0  0  0  0  0
  154.7578  139.5486  158.8537 O   0  0  0  0  0  0  0  0  0  0  0  0
  152.2119  137.0146  157.6391 C   0  0  1  0  0  0  0  0  0  0  0  0
  151.3119  136.7863  158.7052 O   0  0  0  0  0  0  0  0  0  0  0  0
  151.4560  137.1868  156.3219 C   0  0  2  0  0  0  0  0  0  0  0  0
  151.5505  136.0133  155.5404 O   0  0  0  0  0  0  0  0  0  0  0  0
  152.5081  138.2006  154.6296 H   0  0  0  0  0  0  0  0  0  0  0  0
  152.2350  139.0894  158.2473 H   0  0  0  0  0  0  0  0  0  0  0  0
  152.9402  136.2044  157.5722 H   0  0  0  0  0  0  0  0  0  0  0  0
  150.4050  137.4302  156.4876 H   0  0  0  0  0  0  0  0  0  0  0  0
  148.1181  143.1053  154.9492 H   0  0  0  0  0  0  0  0  0  0  0  0
  146.8148  142.4775  153.9625 H   0  0  0  0  0  0  0  0  0  0  0  0
  147.8073  138.2171  153.0236 H   0  0  0  0  0  0  0  0  0  0  0  0
  152.2572  141.1387  156.6453 H   0  0  0  0  0  0  0  0  0  0  0  0
  153.9839  137.8533  159.6485 H   0  0  0  0  0  0  0  0  0  0  0  0
  154.9405  137.6009  158.1970 H   0  0  0  0  0  0  0  0  0  0  0  0
  155.4199  139.4961  159.5259 H   0  0  0  0  0  0  0  0  0  0  0  0
  150.6161  137.4238  158.6501 H   0  0  0  0  0  0  0  0  0  0  0  0
  150.9108  136.0660  154.8464 H   0  0  0  0  0  0  0  0  0  0  0  0
  1  2  1  0  0  0  0
  1 24  1  0  0  0  0
  1 25  1  0  0  0  0
  2  7  1  0  0  0  0
  2  3  2  0  0  0  0
  3  4  1  0  0  0  0
  4  5  2  0  0  0  0
  4 26  1  0  0  0  0
  5  6  1  0  0  0  0
  6 10  1  0  0  0  0
  6  7  2  0  0  0  0
  7  8  1  0  0  0  0
  8  9  2  0  0  0  0
  9 10  1  0  0  0  0
  9 27  1  0  0  0  0
 10 11  1  0  0  0  0
 11 20  1  0  0  0  0
 11 18  1  0  0  0  0
 11 12  1  0  0  0  0
 12 13  1  0  0  0  0
 13 21  1  0  0  0  0
 13 14  1  0  0  0  0
 13 16  1  0  0  0  0
 14 15  1  0  0  0  0
 14 28  1  0  0  0  0
 14 29  1  0  0  0  0
 15 30  1  0  0  0  0
 16 22  1  0  0  0  0
 16 17  1  0  0  0  0
 16 18  1  0  0  0  0
 17 31  1  0  0  0  0
 18 23  1  0  0  0  0
 18 19  1  0  0  0  0
 19 32  1  0  0  0  0
M  END
> <s_m_source_file>
AV-unprocessed.smi

> <i_m_source_file_index>
69

> <i_lp_mmshare_version>
43012

> <i_f3d_flags>
0

> <s_epik_input>
bjFbY0hdbmMoW05IMl0pYyhjMTIpbltjSF1uMltDQEBIXTNPW0NASF0oW0NIMl1bT0hdKVtDQEBIXShbT0hdKVtDQEhdM1tPSF0=

> <s_epik_cmdline>
J2VwaWtfcHl0aG9uJywgJy1waCcsICc3LjAnLCAnLXRuJywgJzgnLCAnLW1hJywgJzIwMCcsICctbWV0YWxfYmluZGluZycsICctaW1hZScsICc8aW5maWxlLm1hZT4nLCAnLW9tYWUnLCAnPG91dGZpbGUubWFlPic=

> <r_lp_tautomer_probability>
1

> <r_epik_Ionization_Penalty>
0.000428445

> <r_epik_Ionization_Penalty_Charging>
0

> <r_epik_Ionization_Penalty_Neutral>
0.000428445

> <r_epik_State_Penalty>
-0

> <r_epik_Charging_Adjusted_Penalty>
0

> <i_epik_Tot_Q>
0

> <i_epik_Tot_abs_Q>
0

> <r_epik_Metal_State_Penalty>
-0

> <b_epik_Metal_Only>
0

> <s_epik_Chemistry_Notes>
This compound contains an acetal/aminal-like group ( X-CH(R)-Y where X, Y are N, S, or O) that may be acid/base labile, releasing an aldehyde.

> <s_lp_Force_Field>
OPLS_2005

> <r_lp_Energy>
31.7018

> <b_lp_Chiralities_Consistent>
1

> <s_lp_Variant>
AV-unprocessed.smi:69-10

> <Gold.Version>
5.8.1

> <Gold.Id.Protein>
6NUR|6NUR_protein|mol2

> <Gold.PLP.Fitness>
41.8247

> <Gold.PLP.PLP>
-25.8705

> <Gold.PLP.part.hbond>
-5.0000

> <Gold.PLP.part.metal>
0.0000

> <Gold.PLP.part.buried>
-3.3493

> <Gold.PLP.part.nonpolar>
-18.8908

> <Gold.PLP.part.repulsive>
0.9043

> <Gold.PLP.ligand.clash>
0.0000

> <Gold.PLP.ligand.torsion>
0.0464

> <Gold.PLP.Chemscore.Hbond>
4.4400

> <Gold.PLP.Chemscore.CHOScore>
0.8989

> <Gold.PLP.Chemscore.Metal>
0.0000

> <Gold.Chemscore.Hbonds>
donor molecule, donor type, donor heavy atom, donor atom, acceptor molecule, acceptor atom, score
      L1  H     1    24       P1  8028  1.00
      P1  H  6896  6907       L1    17  0.88
      P1  H  7997  8008       L1    12  0.56
      P1  H  7997  8010       L1    15  1.00
      P1  H 10752 10764       L1    19  1.00
      L1  C     4    26       P1  7948  0.82

> <Gold.PLP.Chemscore.Internal.Correction>
0.0304

> <Gold.Rescore>
     Score         DG    S(hbond)    S(metal)    S(lipo)     H(rot)  DE(clash)    DE(int)     intcor
     11.26     -11.38       4.04        0.00      23.14       4.03       0.08       0.04       ----

> <Gold.Chemscore.Fitness>
11.2612

> <Gold.Chemscore.DG>
-11.3825

> <Gold.Chemscore.ZeroCoef>
-5.4800

> <Gold.Chemscore.Hbond>
4.0437

> <Gold.Chemscore.Metal>
0.0000

> <Gold.Chemscore.Lipo>
23.1423

> <Gold.Chemscore.Internal_Hbond>
0.0000

> <Gold.Chemscore.DEClash>
0.0785

> <Gold.Chemscore.DEInternal>
0.0427

> <Gold.Chemscore.Rot>
4.0277

> <Gold.Chemscore.Internal.Correction>
   9.000000E+99

> <Gold.Chemscore.Hbonds>
donor molecule, donor type, donor heavy atom, donor atom, acceptor molecule, acceptor atom, score
      L1  H     1    24       P1  8028  0.96
      P1  H  6896  6907       L1    17  0.81
      P1  H  7997  8008       L1    12  0.53
      P1  H  7997  8010       L1    15  0.47
      P1  H 10752 10764       L1    19  0.73

> <Gold.Chemscore.Hbond.Weighted>
-13.5058

> <Gold.Chemscore.Metal.Weighted>
-0.0000

> <Gold.Chemscore.Lipo.Weighted>
-2.7077

> <Gold.Chemscore.Internal_Hbond.Weighted>
0.0000

> <Gold.Chemscore.DEClash.Weighted>
0.0785

> <Gold.Chemscore.DEInternal.Weighted>
0.0427

> <Gold.Chemscore.Rot.Weighted>
10.3110

> <Gold.Chemscore.Internal.Correction.Weighted>
   9.000000E+99

> <Gold.Protein.RotatedTorsions>
[ 6907 6896 6895 6894 ] final  -16.55 input  -60.11 | X-H torsion
[ 7974 7965 7964 7962 ] final  176.86 input  175.53 | X-H torsion
[ 8008 7997 7996 7995 ] final  -17.78 input   59.86 | X-H torsion
[ 10167 10162 10161 10158 ] final -160.62 input  -65.29 | X-H torsion
[ 10718 10713 10712 10709 ] final   63.84 input   66.30 | X-H torsion
[ 10763 10752 10751 10750 ] final  -38.98 input  -60.55 | X-H torsion
[ 11005 11000 10999 10996 ] final   75.56 input  -57.11 | X-H torsion

> <Gold.Protein.ActiveResidues>
 VAL166  LYS551  ARG553  GLY616  TRP617  ASP618  TYR619  PRO620  LYS621  CYS622 
 ASP623  PHE694  ASN695  SER759  ASP760  ASP761  ALA762  ILE779  LEU786  VAL792 
 PHE793  MET794  SER795  GLU796  ALA797  LYS798  CYS799  TRP800  GLU811  SER814 

> <Gold.Protein.RotatedAtoms>
  151.3069  135.0784  159.9258 H   0  0  0  0  0  0  0  0  0  0  0  0  # atno 6907 bound_to 6896
  152.5286  133.9776  159.7801 H   0  0  0  0  0  0  0  0  0  0  0  0  # atno 6908 bound_to 6896
  151.0072  133.5947  159.2717 H   0  0  0  0  0  0  0  0  0  0  0  0  # atno 6909 bound_to 6896
  144.7177  140.0160  143.6440 H   0  0  0  0  0  0  0  0  0  0  0  0  # atno 7974 bound_to 7965
  154.4954  140.2133  155.9459 H   0  0  0  0  0  0  0  0  0  0  0  0  # atno 8008 bound_to 7997
  156.1362  140.3188  155.8393 H   0  0  0  0  0  0  0  0  0  0  0  0  # atno 8009 bound_to 7997
  155.4205  140.0496  157.3016 H   0  0  0  0  0  0  0  0  0  0  0  0  # atno 8010 bound_to 7997
  139.6526  144.0057  152.2172 H   0  0  0  0  0  0  0  0  0  0  0  0  # atno 10167 bound_to 10162
  157.5999  130.9127  149.9768 H   0  0  0  0  0  0  0  0  0  0  0  0  # atno 10718 bound_to 10713
  153.9219  135.6781  153.4747 H   0  0  0  0  0  0  0  0  0  0  0  0  # atno 10763 bound_to 10752
  153.1024  135.4821  154.8888 H   0  0  0  0  0  0  0  0  0  0  0  0  # atno 10764 bound_to 10752
  154.7473  135.3176  154.8577 H   0  0  0  0  0  0  0  0  0  0  0  0  # atno 10765 bound_to 10752
  139.9338  134.7527  156.1286 H   0  0  0  0  0  0  0  0  0  0  0  0  # atno 11005 bound_to 11000
  146.0219  139.3259  143.0807 LP  0  0  0  0  0  0  0  0  0  0  0  0  # atno 17320 bound_to 7965
  145.8558  140.9503  143.0726 LP  0  0  0  0  0  0  0  0  0  0  0  0  # atno 17321 bound_to 7965
  139.9775  144.6451  150.7932 LP  0  0  0  0  0  0  0  0  0  0  0  0  # atno 17342 bound_to 10162
  140.7544  143.3027  151.3039 LP  0  0  0  0  0  0  0  0  0  0  0  0  # atno 17343 bound_to 10162
  156.1070  130.3652  150.0116 LP  0  0  0  0  0  0  0  0  0  0  0  0  # atno 17370 bound_to 10713
  156.8222  130.9362  151.3641 LP  0  0  0  0  0  0  0  0  0  0  0  0  # atno 17371 bound_to 10713
  141.0941  133.6702  156.2607 LP  0  0  0  0  0  0  0  0  0  0  0  0  # atno 17394 bound_to 11000
  140.6130  134.5439  157.5536 LP  0  0  0  0  0  0  0  0  0  0  0  0  # atno 17395 bound_to 11000

$$$$
