AV-unprocessed.smi:2328|AV-procd|sdf|9301|dock8
  -GOLD-   2272012523D 1   1.00000     0.00000
 Structure written by MMmdl.
 40 40  0  0  0  0  0  0  0  0  1 V2000
  147.3762  138.7256  156.2085 C   0  0  0  0  0  0  0  0  0  0  0  0
  148.5492  137.7332  156.0628 C   0  0  0  0  0  0  0  0  0  0  0  0
  150.0091  138.3084  155.9925 C   0  0  2  0  0  0  0  0  0  0  0  0
  150.2906  139.0764  157.2268 N   0  0  0  0  0  0  0  0  0  0  0  0
  151.3703  139.7506  157.6760 C   0  0  0  0  0  0  0  0  0  0  0  0
  152.3837  139.8037  156.9809 O   0  0  0  0  0  0  0  0  0  0  0  0
  151.3541  140.4663  159.0386 C   0  0  0  0  0  0  0  0  0  0  0  0
  151.5111  141.9700  158.8829 C   0  0  0  0  0  0  0  0  0  0  0  0
  152.6077  142.6498  159.4528 C   0  0  0  0  0  0  0  0  0  0  0  0
  152.7059  144.0438  159.2788 C   0  0  0  0  0  0  0  0  0  0  0  0
  151.7010  144.6999  158.5401 C   0  0  0  0  0  0  0  0  0  0  0  0
  150.6464  144.0598  157.9905 N   0  0  0  0  0  0  0  0  0  0  0  0
  150.5596  142.7234  158.1624 C   0  0  0  0  0  0  0  0  0  0  0  0
  150.1930  139.1862  154.7155 C   0  0  0  0  0  0  0  0  0  0  0  0
  149.1829  139.2837  153.8427 N   0  0  0  0  0  0  0  0  0  0  0  0
  151.2378  139.8029  154.5220 O   0  0  0  0  0  0  0  0  0  0  0  0
  151.0651  137.1423  155.9560 C   0  0  0  0  0  0  0  0  0  0  0  0
  150.8405  136.1400  154.8004 C   0  0  0  0  0  0  0  0  0  0  0  0
  151.1733  136.3398  157.2752 C   0  0  0  0  0  0  0  0  0  0  0  0
  146.4313  138.1824  156.2312 H   0  0  0  0  0  0  0  0  0  0  0  0
  147.3155  139.4239  155.3752 H   0  0  0  0  0  0  0  0  0  0  0  0
  147.4255  139.3042  157.1290 H   0  0  0  0  0  0  0  0  0  0  0  0
  148.4597  137.0486  156.9035 H   0  0  0  0  0  0  0  0  0  0  0  0
  148.3595  137.1194  155.1813 H   0  0  0  0  0  0  0  0  0  0  0  0
  149.4906  139.1390  157.8398 H   0  0  0  0  0  0  0  0  0  0  0  0
  150.4257  140.2901  159.5774 H   0  0  0  0  0  0  0  0  0  0  0  0
  152.1642  140.0759  159.6554 H   0  0  0  0  0  0  0  0  0  0  0  0
  153.3614  142.1146  160.0114 H   0  0  0  0  0  0  0  0  0  0  0  0
  153.5320  144.5970  159.7003 H   0  0  0  0  0  0  0  0  0  0  0  0
  151.7454  145.7681  158.3875 H   0  0  0  0  0  0  0  0  0  0  0  0
  149.7057  142.2401  157.7103 H   0  0  0  0  0  0  0  0  0  0  0  0
  149.2906  139.8440  153.0094 H   0  0  0  0  0  0  0  0  0  0  0  0
  148.3188  138.7917  154.0184 H   0  0  0  0  0  0  0  0  0  0  0  0
  152.0504  137.5835  155.8018 H   0  0  0  0  0  0  0  0  0  0  0  0
  149.8869  135.6198  154.8938 H   0  0  0  0  0  0  0  0  0  0  0  0
  151.6222  135.3802  154.7898 H   0  0  0  0  0  0  0  0  0  0  0  0
  150.8608  136.6186  153.8225 H   0  0  0  0  0  0  0  0  0  0  0  0
  150.2290  135.8627  157.5392 H   0  0  0  0  0  0  0  0  0  0  0  0
  151.4797  136.9608  158.1167 H   0  0  0  0  0  0  0  0  0  0  0  0
  151.9200  135.5501  157.1885 H   0  0  0  0  0  0  0  0  0  0  0  0
  1  2  1  0  0  0  0
  1 20  1  0  0  0  0
  1 21  1  0  0  0  0
  1 22  1  0  0  0  0
  2  3  1  0  0  0  0
  2 23  1  0  0  0  0
  2 24  1  0  0  0  0
  3  4  1  0  0  0  0
  3 14  1  0  0  0  0
  3 17  1  0  0  0  0
  4  5  1  0  0  0  0
  4 25  1  0  0  0  0
  5  6  2  0  0  0  0
  5  7  1  0  0  0  0
  7  8  1  0  0  0  0
  7 26  1  0  0  0  0
  7 27  1  0  0  0  0
  8 13  1  0  0  0  0
  8  9  2  0  0  0  0
  9 10  1  0  0  0  0
  9 28  1  0  0  0  0
 10 11  2  0  0  0  0
 10 29  1  0  0  0  0
 11 12  1  0  0  0  0
 11 30  1  0  0  0  0
 12 13  2  0  0  0  0
 13 31  1  0  0  0  0
 14 15  1  0  0  0  0
 14 16  2  0  0  0  0
 15 32  1  0  0  0  0
 15 33  1  0  0  0  0
 17 18  1  0  0  0  0
 17 19  1  0  0  0  0
 17 34  1  0  0  0  0
 18 35  1  0  0  0  0
 18 36  1  0  0  0  0
 18 37  1  0  0  0  0
 19 38  1  0  0  0  0
 19 39  1  0  0  0  0
 19 40  1  0  0  0  0
M  END
> <s_m_source_file>
AV-unprocessed.smi

> <i_m_source_file_index>
2328

> <i_lp_mmshare_version>
43012

> <i_f3d_flags>
0

> <s_epik_input>
W0NIM11bQ0gyXVtDQEBdKEMoPU8pW05IMl0pKFtDSF0oW0NIM10pW0NIM10pW05IXUMoPU8pW0NIMl1jMVtjSF1bY0hdW2NIXW5bY0hdMQ==

> <s_epik_cmdline>
J2VwaWtfcHl0aG9uJywgJy1waCcsICc3LjAnLCAnLXRuJywgJzgnLCAnLW1hJywgJzIwMCcsICctbWV0YWxfYmluZGluZycsICctaW1hZScsICc8aW5maWxlLm1hZT4nLCAnLW9tYWUnLCAnPG91dGZpbGUubWFlPic=

> <r_epik_Ionization_Penalty>
0.00378489

> <r_epik_Ionization_Penalty_Charging>
0

> <r_epik_Ionization_Penalty_Neutral>
0.00378489

> <r_epik_State_Penalty>
0.00269972

> <r_epik_Charging_Adjusted_Penalty>
0.00269972

> <i_epik_Tot_Q>
0

> <i_epik_Tot_abs_Q>
0

> <r_epik_Metal_State_Penalty>
-0

> <b_epik_Metal_Only>
0

> <s_lp_Force_Field>
OPLS_2005

> <r_lp_Energy>
16.0565

> <b_lp_Chiralities_Consistent>
1

> <s_lp_Variant>
AV-unprocessed.smi:2328-2

> <Gold.Version>
5.8.1

> <Gold.Id.Protein>
6NUR|6NUR_protein|mol2

> <Gold.PLP.Fitness>
38.4775

> <Gold.PLP.PLP>
-29.7044

> <Gold.PLP.part.hbond>
-3.0000

> <Gold.PLP.part.metal>
0.0000

> <Gold.PLP.part.buried>
-5.2415

> <Gold.PLP.part.nonpolar>
-22.3394

> <Gold.PLP.part.repulsive>
0.3654

> <Gold.PLP.ligand.clash>
0.0000

> <Gold.PLP.ligand.torsion>
0.1868

> <Gold.PLP.Chemscore.Hbond>
3.0000

> <Gold.PLP.Chemscore.CHOScore>
0.0000

> <Gold.PLP.Chemscore.Metal>
0.0000

> <Gold.Chemscore.Hbonds>
donor molecule, donor type, donor heavy atom, donor atom, acceptor molecule, acceptor atom, score
      L1  H    15    32       P1  7957  1.00
      P1  H  7989  7998       L1    16  0.99
      P1  H  7997  8009       L1     6  0.99

> <Gold.PLP.Chemscore.Internal.Correction>
0.1466

> <Gold.Rescore>
     Score         DG    S(hbond)    S(metal)    S(lipo)     H(rot)  DE(clash)    DE(int)     intcor
     16.87     -18.72       2.95        0.00      79.21       2.29       0.00       1.85       ----

> <Gold.Chemscore.Fitness>
16.8685

> <Gold.Chemscore.DG>
-18.7195

> <Gold.Chemscore.ZeroCoef>
-5.4800

> <Gold.Chemscore.Hbond>
2.9460

> <Gold.Chemscore.Metal>
0.0000

> <Gold.Chemscore.Lipo>
79.2102

> <Gold.Chemscore.Internal_Hbond>
0.0000

> <Gold.Chemscore.DEClash>
0.0047

> <Gold.Chemscore.DEInternal>
1.8464

> <Gold.Chemscore.Rot>
2.2921

> <Gold.Chemscore.Internal.Correction>
   9.000000E+99

> <Gold.Chemscore.Hbonds>
donor molecule, donor type, donor heavy atom, donor atom, acceptor molecule, acceptor atom, score
      L1  H    15    32       P1  7957  0.96
      P1  H  7989  7998       L1    16  0.92
      P1  H  7997  8009       L1     6  0.92

> <Gold.Chemscore.Hbond.Weighted>
-9.8397

> <Gold.Chemscore.Metal.Weighted>
-0.0000

> <Gold.Chemscore.Lipo.Weighted>
-9.2676

> <Gold.Chemscore.Internal_Hbond.Weighted>
0.0000

> <Gold.Chemscore.DEClash.Weighted>
0.0047

> <Gold.Chemscore.DEInternal.Weighted>
1.8464

> <Gold.Chemscore.Rot.Weighted>
5.8677

> <Gold.Chemscore.Internal.Correction.Weighted>
   9.000000E+99

> <Gold.Protein.RotatedTorsions>
[ 6907 6896 6895 6894 ] final -179.48 input  -60.11 | X-H torsion
[ 7974 7965 7964 7962 ] final -163.50 input  175.53 | X-H torsion
[ 8008 7997 7996 7995 ] final -176.97 input   59.86 | X-H torsion
[ 10167 10162 10161 10158 ] final   23.09 input  -65.29 | X-H torsion
[ 10718 10713 10712 10709 ] final  -70.02 input   66.30 | X-H torsion
[ 10763 10752 10751 10750 ] final  142.70 input  -60.55 | X-H torsion
[ 11005 11000 10999 10996 ] final  146.59 input  -57.11 | X-H torsion

> <Gold.Protein.ActiveResidues>
 VAL166  LYS551  ARG553  GLY616  TRP617  ASP618  TYR619  PRO620  LYS621  CYS622 
 ASP623  PHE694  ASN695  SER759  ASP760  ASP761  ALA762  ILE779  LEU786  VAL792 
 PHE793  MET794  SER795  GLU796  ALA797  LYS798  CYS799  TRP800  GLU811  SER814 

> <Gold.Protein.RotatedAtoms>
  151.6542  133.3319  159.3158 H   0  0  0  0  0  0  0  0  0  0  0  0  # atno 6907 bound_to 6896
  150.7945  134.6998  159.6553 H   0  0  0  0  0  0  0  0  0  0  0  0  # atno 6908 bound_to 6896
  152.4030  134.6258  160.0114 H   0  0  0  0  0  0  0  0  0  0  0  0  # atno 6909 bound_to 6896
  144.7324  140.3097  143.6190 H   0  0  0  0  0  0  0  0  0  0  0  0  # atno 7974 bound_to 7965
  156.0012  140.1221  157.0545 H   0  0  0  0  0  0  0  0  0  0  0  0  # atno 8008 bound_to 7997
  154.4243  140.1106  156.5769 H   0  0  0  0  0  0  0  0  0  0  0  0  # atno 8009 bound_to 7997
  155.6209  140.3472  155.4654 H   0  0  0  0  0  0  0  0  0  0  0  0  # atno 8010 bound_to 7997
  140.5296  143.9864  150.6458 H   0  0  0  0  0  0  0  0  0  0  0  0  # atno 10167 bound_to 10162
  156.0427  130.4323  150.2234 H   0  0  0  0  0  0  0  0  0  0  0  0  # atno 10718 bound_to 10713
  153.9602  135.2961  155.3434 H   0  0  0  0  0  0  0  0  0  0  0  0  # atno 10763 bound_to 10752
  154.7379  135.5038  153.9076 H   0  0  0  0  0  0  0  0  0  0  0  0  # atno 10764 bound_to 10752
  153.0950  135.6718  153.9890 H   0  0  0  0  0  0  0  0  0  0  0  0  # atno 10765 bound_to 10752
  140.0806  134.9099  157.1494 H   0  0  0  0  0  0  0  0  0  0  0  0  # atno 11005 bound_to 11000
  145.7677  139.1846  143.2230 LP  0  0  0  0  0  0  0  0  0  0  0  0  # atno 17320 bound_to 7965
  146.0936  140.7627  142.9583 LP  0  0  0  0  0  0  0  0  0  0  0  0  # atno 17321 bound_to 7965
  140.3235  143.3122  152.0760 LP  0  0  0  0  0  0  0  0  0  0  0  0  # atno 17342 bound_to 10162
  139.4950  144.6558  151.6576 LP  0  0  0  0  0  0  0  0  0  0  0  0  # atno 17343 bound_to 10162
  157.0327  131.0012  151.3307 LP  0  0  0  0  0  0  0  0  0  0  0  0  # atno 17370 bound_to 10713
  157.5265  130.8031  149.7868 LP  0  0  0  0  0  0  0  0  0  0  0  0  # atno 17371 bound_to 10713
  140.3493  134.2616  155.7200 LP  0  0  0  0  0  0  0  0  0  0  0  0  # atno 17394 bound_to 11000
  141.2045  133.7884  157.0282 LP  0  0  0  0  0  0  0  0  0  0  0  0  # atno 17395 bound_to 11000

$$$$
