AV-unprocessed.smi:2999|AV-procd|sdf|11422|dock9
  -GOLD-   2272016343D 1   1.00000     0.00000
 Structure written by MMmdl.
 38 40  0  0  0  0  0  0  0  0  2 V2000
  150.3971  140.6208  156.6354 O   0  0  0  0  0  0  0  0  0  0  0  0
  150.1329  141.7737  156.2955 C   0  0  0  0  0  0  0  0  0  0  0  0
  149.2857  142.0729  155.3003 N   0  0  0  0  0  0  0  0  0  0  0  0
  148.5824  141.1010  154.4665 C   0  0  0  0  0  0  0  0  0  0  0  0
  147.0888  141.4340  154.2822 C   0  0  1  0  0  0  0  0  0  0  0  0
  146.1591  140.8089  155.3445 C   0  0  0  0  0  0  0  0  0  0  0  0
  144.7539  141.1949  155.0866 N   0  3  1  0  0  0  0  0  0  0  0  0
  143.8150  140.5856  156.0533 C   0  0  0  0  0  0  0  0  0  0  0  0
  143.1914  139.2987  155.5656 C   0  0  0  0  0  0  0  0  0  0  0  0
  142.3796  140.5751  155.5820 C   0  0  0  0  0  0  0  0  0  0  0  0
  144.6240  142.6685  155.0242 C   0  0  0  0  0  0  0  0  0  0  0  0
  145.5969  143.2467  153.9831 C   0  0  0  0  0  0  0  0  0  0  0  0
  146.9277  142.8498  154.2943 O   0  0  0  0  0  0  0  0  0  0  0  0
  150.6317  142.8843  156.8611 N   0  0  0  0  0  0  0  0  0  0  0  0
  151.5287  142.9728  157.9544 C   0  0  0  0  0  0  0  0  0  0  0  0
  151.7688  141.8802  158.6813 N   0  0  0  0  0  0  0  0  0  0  0  0
  152.6746  142.1274  159.7170 C   0  0  0  0  0  0  0  0  0  0  0  0
  153.1180  143.4259  159.7643 C   0  0  0  0  0  0  0  0  0  0  0  0
  152.4128  144.3995  158.5020 S   0  0  0  0  0  0  0  0  0  0  0  0
  149.1230  143.0476  155.0932 H   0  0  0  0  0  0  0  0  0  0  0  0
  149.0715  141.0843  153.4921 H   0  0  0  0  0  0  0  0  0  0  0  0
  148.6922  140.0940  154.8722 H   0  0  0  0  0  0  0  0  0  0  0  0
  146.7943  141.0636  153.2985 H   0  0  0  0  0  0  0  0  0  0  0  0
  146.2525  139.7223  155.3282 H   0  0  0  0  0  0  0  0  0  0  0  0
  146.4343  141.1402  156.3463 H   0  0  0  0  0  0  0  0  0  0  0  0
  144.0510  140.7183  157.1078 H   0  0  0  0  0  0  0  0  0  0  0  0
  143.4983  138.9114  154.5958 H   0  0  0  0  0  0  0  0  0  0  0  0
  142.9493  138.5448  156.3118 H   0  0  0  0  0  0  0  0  0  0  0  0
  141.6016  140.6609  156.3379 H   0  0  0  0  0  0  0  0  0  0  0  0
  142.1472  141.0336  154.6223 H   0  0  0  0  0  0  0  0  0  0  0  0
  143.5996  142.9382  154.7657 H   0  0  0  0  0  0  0  0  0  0  0  0
  144.8307  143.0967  156.0063 H   0  0  0  0  0  0  0  0  0  0  0  0
  145.3321  142.9167  152.9771 H   0  0  0  0  0  0  0  0  0  0  0  0
  145.5447  144.3356  153.9839 H   0  0  0  0  0  0  0  0  0  0  0  0
  150.3304  143.7664  156.4740 H   0  0  0  0  0  0  0  0  0  0  0  0
  152.9504  141.3179  160.3766 H   0  0  0  0  0  0  0  0  0  0  0  0
  153.8141  143.8670  160.4622 H   0  0  0  0  0  0  0  0  0  0  0  0
  144.5118  140.8370  154.1737 H   0  0  0  0  0  0  0  0  0  0  0  0
  1  2  2  0  0  0  0
  2  3  1  0  0  0  0
  2 14  1  0  0  0  0
  3  4  1  0  0  0  0
  3 20  1  0  0  0  0
  4  5  1  0  0  0  0
  4 21  1  0  0  0  0
  4 22  1  0  0  0  0
  5 13  1  0  0  0  0
  5  6  1  0  0  0  0
  5 23  1  0  0  0  0
  6  7  1  0  0  0  0
  6 24  1  0  0  0  0
  6 25  1  0  0  0  0
  7  8  1  0  0  0  0
  7 11  1  0  0  0  0
  7 38  1  0  0  0  0
  8 10  1  0  0  0  0
  8  9  1  0  0  0  0
  8 26  1  0  0  0  0
  9 10  1  0  0  0  0
  9 27  1  0  0  0  0
  9 28  1  0  0  0  0
 10 29  1  0  0  0  0
 10 30  1  0  0  0  0
 11 12  1  0  0  0  0
 11 31  1  0  0  0  0
 11 32  1  0  0  0  0
 12 13  1  0  0  0  0
 12 33  1  0  0  0  0
 12 34  1  0  0  0  0
 14 15  1  0  0  0  0
 14 35  1  0  0  0  0
 15 19  1  0  0  0  0
 15 16  2  0  0  0  0
 16 17  1  0  0  0  0
 17 18  2  0  0  0  0
 17 36  1  0  0  0  0
 18 19  1  0  0  0  0
 18 37  1  0  0  0  0
M  CHG  1   7   1
M  END
> <s_m_source_file>
AV-unprocessed.smi

> <i_m_source_file_index>
2999

> <i_lp_mmshare_version>
43012

> <i_f3d_flags>
0

> <s_epik_input>
czFbY0hdW2NIXW5jMVtOSF1DKD1PKVtOSF1bQ0gyXVtDQEBIXTJbQ0gyXU4oW0NIMl1bQ0gyXU8yKVtDSF0zW0NIMl1bQ0gyXTM=

> <s_epik_cmdline>
J2VwaWtfcHl0aG9uJywgJy1waCcsICc3LjAnLCAnLXRuJywgJzgnLCAnLW1hJywgJzIwMCcsICctbWV0YWxfYmluZGluZycsICctaW1hZScsICc8aW5maWxlLm1hZT4nLCAnLW9tYWUnLCAnPG91dGZpbGUubWFlPic=

> <r_lp_tautomer_probability>
0.999

> <r_epik_Ionization_Penalty>
1.55235

> <r_epik_Ionization_Penalty_Charging>
1.55221

> <r_epik_Ionization_Penalty_Neutral>
0.000139685

> <r_epik_State_Penalty>
1.64652

> <r_epik_Charging_Adjusted_Penalty>
3.19873

> <i_epik_Tot_Q>
1

> <i_epik_Tot_abs_Q>
1

> <r_epik_Metal_State_Penalty>
1.68612

> <b_epik_Metal_Only>
0

> <s_lp_Force_Field>
OPLS_2005

> <r_lp_Energy>
20.9615

> <b_lp_Chiralities_Consistent>
1

> <s_lp_Variant>
AV-unprocessed.smi:2999-6

> <Gold.Version>
5.8.1

> <Gold.Id.Protein>
6NUR|6NUR_protein|mol2

> <Gold.PLP.Fitness>
45.2424

> <Gold.PLP.PLP>
-34.4676

> <Gold.PLP.part.hbond>
-3.0492

> <Gold.PLP.part.metal>
0.0000

> <Gold.PLP.part.buried>
-6.5581

> <Gold.PLP.part.nonpolar>
-27.8455

> <Gold.PLP.part.repulsive>
1.3310

> <Gold.PLP.ligand.clash>
0.0000

> <Gold.PLP.ligand.torsion>
1.1236

> <Gold.PLP.Chemscore.Hbond>
3.9200

> <Gold.PLP.Chemscore.CHOScore>
0.0000

> <Gold.PLP.Chemscore.Metal>
0.0000

> <Gold.Chemscore.Hbonds>
donor molecule, donor type, donor heavy atom, donor atom, acceptor molecule, acceptor atom, score
      L1  H     3    20       P1  8028  1.00
      L1  H     7    38       P1 10175  2.00
      L1  H    14    35       P1  8028  0.93

> <Gold.PLP.Chemscore.Internal.Correction>
1.2620

> <Gold.Rescore>
     Score         DG    S(hbond)    S(metal)    S(lipo)     H(rot)  DE(clash)    DE(int)     intcor
     16.47     -19.02       2.92        0.00      66.83       1.58       0.02       2.54       ----

> <Gold.Chemscore.Fitness>
16.4677

> <Gold.Chemscore.DG>
-19.0235

> <Gold.Chemscore.ZeroCoef>
-5.4800

> <Gold.Chemscore.Hbond>
2.9246

> <Gold.Chemscore.Metal>
0.0000

> <Gold.Chemscore.Lipo>
66.8270

> <Gold.Chemscore.Internal_Hbond>
0.0000

> <Gold.Chemscore.DEClash>
0.0202

> <Gold.Chemscore.DEInternal>
2.5355

> <Gold.Chemscore.Rot>
1.5795

> <Gold.Chemscore.Internal.Correction>
   9.000000E+99

> <Gold.Chemscore.Hbonds>
donor molecule, donor type, donor heavy atom, donor atom, acceptor molecule, acceptor atom, score
      L1  H     3    20       P1  8028  0.95
      L1  H     7    38       P1 10175  0.97
      L1  H    14    35       P1  8028  0.91

> <Gold.Chemscore.Hbond.Weighted>
-9.7682

> <Gold.Chemscore.Metal.Weighted>
-0.0000

> <Gold.Chemscore.Lipo.Weighted>
-7.8188

> <Gold.Chemscore.Internal_Hbond.Weighted>
0.0000

> <Gold.Chemscore.DEClash.Weighted>
0.0202

> <Gold.Chemscore.DEInternal.Weighted>
2.5355

> <Gold.Chemscore.Rot.Weighted>
4.0434

> <Gold.Chemscore.Internal.Correction.Weighted>
   9.000000E+99

> <Gold.Protein.RotatedTorsions>
[ 6907 6896 6895 6894 ] final   63.36 input  -60.11 | X-H torsion
[ 7974 7965 7964 7962 ] final -110.05 input  175.53 | X-H torsion
[ 8008 7997 7996 7995 ] final  -59.60 input   59.86 | X-H torsion
[ 10167 10162 10161 10158 ] final   99.51 input  -65.29 | X-H torsion
[ 10718 10713 10712 10709 ] final  -95.12 input   66.30 | X-H torsion
[ 10763 10752 10751 10750 ] final  -22.26 input  -60.55 | X-H torsion
[ 11005 11000 10999 10996 ] final  129.89 input  -57.11 | X-H torsion

> <Gold.Protein.ActiveResidues>
 VAL166  LYS551  ARG553  GLY616  TRP617  ASP618  TYR619  PRO620  LYS621  CYS622 
 ASP623  PHE694  ASN695  SER759  ASP760  ASP761  ALA762  ILE779  LEU786  VAL792 
 PHE793  MET794  SER795  GLU796  ALA797  LYS798  CYS799  TRP800  GLU811  SER814 

> <Gold.Protein.RotatedAtoms>
  152.4247  134.5891  159.9968 H   0  0  0  0  0  0  0  0  0  0  0  0  # atno 6907 bound_to 6896
  151.6031  133.3349  159.3059 H   0  0  0  0  0  0  0  0  0  0  0  0  # atno 6908 bound_to 6896
  150.8136  134.7342  159.6775 H   0  0  0  0  0  0  0  0  0  0  0  0  # atno 6909 bound_to 6896
  145.1730  140.8935  143.3524 H   0  0  0  0  0  0  0  0  0  0  0  0  # atno 7974 bound_to 7965
  154.4360  140.1058  156.6142 H   0  0  0  0  0  0  0  0  0  0  0  0  # atno 8008 bound_to 7997
  155.5777  140.3490  155.4513 H   0  0  0  0  0  0  0  0  0  0  0  0  # atno 8009 bound_to 7997
  156.0342  140.1267  157.0215 H   0  0  0  0  0  0  0  0  0  0  0  0  # atno 8010 bound_to 7997
  139.7611  144.6954  151.0292 H   0  0  0  0  0  0  0  0  0  0  0  0  # atno 10167 bound_to 10162
  156.0038  130.5096  150.6029 H   0  0  0  0  0  0  0  0  0  0  0  0  # atno 10718 bound_to 10713
  153.6492  135.6981  153.5215 H   0  0  0  0  0  0  0  0  0  0  0  0  # atno 10763 bound_to 10752
  153.2720  135.4212  155.0996 H   0  0  0  0  0  0  0  0  0  0  0  0  # atno 10764 bound_to 10752
  154.8480  135.3581  154.6037 H   0  0  0  0  0  0  0  0  0  0  0  0  # atno 10765 bound_to 10752
  139.9641  134.9595  156.9215 H   0  0  0  0  0  0  0  0  0  0  0  0  # atno 11005 bound_to 11000
  145.0213  139.3421  143.6071 LP  0  0  0  0  0  0  0  0  0  0  0  0  # atno 17320 bound_to 7965
  146.3465  139.9515  142.8728 LP  0  0  0  0  0  0  0  0  0  0  0  0  # atno 17321 bound_to 7965
  140.7807  143.4696  151.0164 LP  0  0  0  0  0  0  0  0  0  0  0  0  # atno 17342 bound_to 10162
  139.8382  143.7599  152.3180 LP  0  0  0  0  0  0  0  0  0  0  0  0  # atno 17343 bound_to 10162
  157.3875  131.0790  151.1423 LP  0  0  0  0  0  0  0  0  0  0  0  0  # atno 17370 bound_to 10713
  157.2126  130.6444  149.5780 LP  0  0  0  0  0  0  0  0  0  0  0  0  # atno 17371 bound_to 10713
  140.5435  134.0697  155.7348 LP  0  0  0  0  0  0  0  0  0  0  0  0  # atno 17394 bound_to 11000
  141.1320  133.9286  157.2515 LP  0  0  0  0  0  0  0  0  0  0  0  0  # atno 17395 bound_to 11000

$$$$
