AV-unprocessed.smi:1164|AV-procd|sdf|4927|dock5
  -GOLD-   22720 3513D 1   1.00000     0.00000
 Structure written by MMmdl.
 31 31  0  0  0  0  0  0  0  0  1 V2000
  150.5999  144.1226  159.2403 C   0  0  0  0  0  0  0  0  0  0  0  0
  151.8590  143.5741  158.5456 C   0  0  0  0  0  0  0  0  0  0  0  0
  152.8581  144.7316  158.3345 C   0  0  0  0  0  0  0  0  0  0  0  0
  152.4808  142.4736  159.4305 C   0  0  0  0  0  0  0  0  0  0  0  0
  151.4269  143.0160  157.2584 N   0  0  0  0  0  0  0  0  0  0  0  0
  150.5384  142.0330  157.0281 C   0  0  0  0  0  0  0  0  0  0  0  0
  149.9431  141.4261  157.9193 O   0  0  0  0  0  0  0  0  0  0  0  0
  150.3063  141.6882  155.5490 C   0  0  0  0  0  0  0  0  0  0  0  0
  150.4014  140.2513  155.2518 N   0  0  0  0  0  0  0  0  0  0  0  0
  149.2847  139.7312  154.6154 N   0  0  0  0  0  0  0  0  0  0  0  0
  149.2503  138.4833  154.2901 C   0  0  0  0  0  0  0  0  0  0  0  0
  148.1254  138.0106  153.6596 O   0  0  0  0  0  0  0  0  0  0  0  0
  150.3615  137.6034  154.5793 C   0  0  0  0  0  0  0  0  0  0  0  0
  151.4435  138.1183  155.2033 C   0  0  0  0  0  0  0  0  0  0  0  0
  151.5144  139.5293  155.5879 C   0  0  0  0  0  0  0  0  0  0  0  0
  152.4855  140.0241  156.1597 O   0  0  0  0  0  0  0  0  0  0  0  0
  148.4400  137.4272  152.9865 H   0  0  0  0  0  0  0  0  0  0  0  0
  150.8385  144.5535  160.2134 H   0  0  0  0  0  0  0  0  0  0  0  0
  149.8603  143.3375  159.4027 H   0  0  0  0  0  0  0  0  0  0  0  0
  150.1249  144.9035  158.6449 H   0  0  0  0  0  0  0  0  0  0  0  0
  152.4476  145.4957  157.6734 H   0  0  0  0  0  0  0  0  0  0  0  0
  153.7979  144.3904  157.9007 H   0  0  0  0  0  0  0  0  0  0  0  0
  153.1032  145.2150  159.2807 H   0  0  0  0  0  0  0  0  0  0  0  0
  152.7218  142.8573  160.4223 H   0  0  0  0  0  0  0  0  0  0  0  0
  153.4051  142.0802  159.0072 H   0  0  0  0  0  0  0  0  0  0  0  0
  151.7956  141.6352  159.5614 H   0  0  0  0  0  0  0  0  0  0  0  0
  151.8528  143.4336  156.4437 H   0  0  0  0  0  0  0  0  0  0  0  0
  149.3299  142.0687  155.2426 H   0  0  0  0  0  0  0  0  0  0  0  0
  151.0348  142.2417  154.9537 H   0  0  0  0  0  0  0  0  0  0  0  0
  150.3193  136.5610  154.2995 H   0  0  0  0  0  0  0  0  0  0  0  0
  152.2813  137.4735  155.4243 H   0  0  0  0  0  0  0  0  0  0  0  0
  1  2  1  0  0  0  0
  1 18  1  0  0  0  0
  1 19  1  0  0  0  0
  1 20  1  0  0  0  0
  2  3  1  0  0  0  0
  2  4  1  0  0  0  0
  2  5  1  0  0  0  0
  3 21  1  0  0  0  0
  3 22  1  0  0  0  0
  3 23  1  0  0  0  0
  4 24  1  0  0  0  0
  4 25  1  0  0  0  0
  4 26  1  0  0  0  0
  5  6  1  0  0  0  0
  5 27  1  0  0  0  0
  6  7  2  0  0  0  0
  6  8  1  0  0  0  0
  8 28  1  0  0  0  0
  8 29  1  0  0  0  0
  8  9  1  0  0  0  0
  9 10  1  0  0  0  0
  9 15  1  0  0  0  0
 10 11  2  0  0  0  0
 11 12  1  0  0  0  0
 11 13  1  0  0  0  0
 12 17  1  0  0  0  0
 13 30  1  0  0  0  0
 13 14  2  0  0  0  0
 14 31  1  0  0  0  0
 14 15  1  0  0  0  0
 15 16  2  0  0  0  0
M  END
> <s_m_source_file>
AV-unprocessed.smi

> <i_m_source_file_index>
1164

> <i_lp_mmshare_version>
43012

> <i_f3d_flags>
0

> <s_epik_input>
W0NIM11DKFtDSDNdKShbQ0gzXSlbTkhdQyg9TylbQ0gyXW4xW25IXWMoPU8pW2NIXVtjSF1jMT1P

> <s_epik_cmdline>
J2VwaWtfcHl0aG9uJywgJy1waCcsICc3LjAnLCAnLXRuJywgJzgnLCAnLW1hJywgJzIwMCcsICctbWV0YWxfYmluZGluZycsICctaW1hZScsICc8aW5maWxlLm1hZT4nLCAnLW9tYWUnLCAnPG91dGZpbGUubWFlPic=

> <r_lp_tautomer_probability>
0.9996

> <r_epik_Ionization_Penalty>
2.1187

> <r_epik_Ionization_Penalty_Charging>
3.7231e-08

> <r_epik_Ionization_Penalty_Neutral>
2.1187

> <r_epik_State_Penalty>
1.69546

> <r_epik_Charging_Adjusted_Penalty>
1.69546

> <i_epik_Tot_Q>
0

> <i_epik_Tot_abs_Q>
0

> <r_epik_Metal_State_Penalty>
1.69546

> <b_epik_Metal_Only>
0

> <s_lp_Force_Field>
OPLS_2005

> <r_lp_Energy>
13.6022

> <b_lp_Chiralities_Consistent>
1

> <s_lp_Variant>
AV-unprocessed.smi:1164-2

> <Gold.Version>
5.8.1

> <Gold.Id.Protein>
6NUR|6NUR_protein|mol2

> <Gold.PLP.Fitness>
38.0594

> <Gold.PLP.PLP>
-32.3117

> <Gold.PLP.part.hbond>
-2.0000

> <Gold.PLP.part.metal>
0.0000

> <Gold.PLP.part.buried>
-2.5822

> <Gold.PLP.part.nonpolar>
-27.7227

> <Gold.PLP.part.repulsive>
0.1700

> <Gold.PLP.ligand.clash>
0.0000

> <Gold.PLP.ligand.torsion>
0.1298

> <Gold.PLP.Chemscore.Hbond>
2.0000

> <Gold.PLP.Chemscore.CHOScore>
0.0000

> <Gold.PLP.Chemscore.Metal>
0.0000

> <Gold.Chemscore.Hbonds>
donor molecule, donor type, donor heavy atom, donor atom, acceptor molecule, acceptor atom, score
      L1  H    12    17       P1  7948  1.00
      P1  H  7997  8010       L1    16  1.00

> <Gold.PLP.Chemscore.Internal.Correction>
0.0073

> <Gold.Rescore>
     Score         DG    S(hbond)    S(metal)    S(lipo)     H(rot)  DE(clash)    DE(int)     intcor
     12.94     -14.18       2.00        0.00      67.82       2.31       0.14       1.10       ----

> <Gold.Chemscore.Fitness>
12.9435

> <Gold.Chemscore.DG>
-14.1792

> <Gold.Chemscore.ZeroCoef>
-5.4800

> <Gold.Chemscore.Hbond>
1.9993

> <Gold.Chemscore.Metal>
0.0000

> <Gold.Chemscore.Lipo>
67.8197

> <Gold.Chemscore.Internal_Hbond>
0.0000

> <Gold.Chemscore.DEClash>
0.1384

> <Gold.Chemscore.DEInternal>
1.0973

> <Gold.Chemscore.Rot>
2.3099

> <Gold.Chemscore.Internal.Correction>
   9.000000E+99

> <Gold.Chemscore.Hbonds>
donor molecule, donor type, donor heavy atom, donor atom, acceptor molecule, acceptor atom, score
      L1  H    12    17       P1  7948  1.00
      P1  H  7997  8010       L1    16  0.99

> <Gold.Chemscore.Hbond.Weighted>
-6.6777

> <Gold.Chemscore.Metal.Weighted>
-0.0000

> <Gold.Chemscore.Lipo.Weighted>
-7.9349

> <Gold.Chemscore.Internal_Hbond.Weighted>
0.0000

> <Gold.Chemscore.DEClash.Weighted>
0.1384

> <Gold.Chemscore.DEInternal.Weighted>
1.0973

> <Gold.Chemscore.Rot.Weighted>
5.9134

> <Gold.Chemscore.Internal.Correction.Weighted>
   9.000000E+99

> <Gold.Protein.RotatedTorsions>
[ 6907 6896 6895 6894 ] final -102.05 input  -60.11 | X-H torsion
[ 7974 7965 7964 7962 ] final -174.48 input  175.53 | X-H torsion
[ 8008 7997 7996 7995 ] final   86.34 input   59.86 | X-H torsion
[ 10167 10162 10161 10158 ] final   75.12 input  -65.29 | X-H torsion
[ 10718 10713 10712 10709 ] final   28.62 input   66.30 | X-H torsion
[ 10763 10752 10751 10750 ] final  100.98 input  -60.55 | X-H torsion
[ 11005 11000 10999 10996 ] final -143.19 input  -57.11 | X-H torsion

> <Gold.Protein.ActiveResidues>
 VAL166  LYS551  ARG553  GLY616  TRP617  ASP618  TYR619  PRO620  LYS621  CYS622 
 ASP623  PHE694  ASN695  SER759  ASP760  ASP761  ALA762  ILE779  LEU786  VAL792 
 PHE793  MET794  SER795  GLU796  ALA797  LYS798  CYS799  TRP800  GLU811  SER814 

> <Gold.Protein.RotatedAtoms>
  150.7180  134.0640  159.3840 H   0  0  0  0  0  0  0  0  0  0  0  0  # atno 6907 bound_to 6896
  151.8621  135.0518  160.0480 H   0  0  0  0  0  0  0  0  0  0  0  0  # atno 6908 bound_to 6896
  152.2709  133.5346  159.5475 H   0  0  0  0  0  0  0  0  0  0  0  0  # atno 6909 bound_to 6896
  144.7132  140.1465  143.6387 H   0  0  0  0  0  0  0  0  0  0  0  0  # atno 7974 bound_to 7965
  155.9615  140.3393  155.6495 H   0  0  0  0  0  0  0  0  0  0  0  0  # atno 8008 bound_to 7997
  155.6792  140.0736  157.2509 H   0  0  0  0  0  0  0  0  0  0  0  0  # atno 8009 bound_to 7997
  154.4144  140.1677  156.1951 H   0  0  0  0  0  0  0  0  0  0  0  0  # atno 8010 bound_to 7997
  140.0064  144.5647  150.7695 H   0  0  0  0  0  0  0  0  0  0  0  0  # atno 10167 bound_to 10162
  157.2358  130.7045  149.6335 H   0  0  0  0  0  0  0  0  0  0  0  0  # atno 10718 bound_to 10713
  153.3208  135.4060  155.1415 H   0  0  0  0  0  0  0  0  0  0  0  0  # atno 10763 bound_to 10752
  154.8600  135.3587  154.5599 H   0  0  0  0  0  0  0  0  0  0  0  0  # atno 10764 bound_to 10752
  153.6032  135.7070  153.5435 H   0  0  0  0  0  0  0  0  0  0  0  0  # atno 10765 bound_to 10752
  140.8150  134.2699  157.4925 H   0  0  0  0  0  0  0  0  0  0  0  0  # atno 11005 bound_to 11000
  145.9155  139.2513  143.1412 LP  0  0  0  0  0  0  0  0  0  0  0  0  # atno 17320 bound_to 7965
  145.9673  140.8788  143.0180 LP  0  0  0  0  0  0  0  0  0  0  0  0  # atno 17321 bound_to 7965
  140.7399  143.2797  151.3635 LP  0  0  0  0  0  0  0  0  0  0  0  0  # atno 17342 bound_to 10162
  139.6236  144.0859  152.2413 LP  0  0  0  0  0  0  0  0  0  0  0  0  # atno 17343 bound_to 10162
  155.9672  130.4474  150.5578 LP  0  0  0  0  0  0  0  0  0  0  0  0  # atno 17370 bound_to 10713
  157.3430  131.0720  151.1773 LP  0  0  0  0  0  0  0  0  0  0  0  0  # atno 17371 bound_to 10713
  139.8711  134.9504  156.4054 LP  0  0  0  0  0  0  0  0  0  0  0  0  # atno 17394 bound_to 11000
  140.9159  133.7679  155.9847 LP  0  0  0  0  0  0  0  0  0  0  0  0  # atno 17395 bound_to 11000

$$$$
