AV-unprocessed.smi:59|AV-procd|sdf|589|dock3
  -GOLD-   2262016483D 1   1.00000     0.00000
 Structure written by MMmdl.
 29 30  0  0  0  0  0  0  0  0  2 V2000
  148.2321  140.8475  154.0977 C   0  0  0  0  0  0  0  0  0  0  0  0
  149.1143  139.7213  154.3864 N   0  0  0  0  0  0  0  0  0  0  0  0
  148.7573  138.4311  154.4435 C   0  0  0  0  0  0  0  0  0  0  0  0
  147.6225  137.9812  154.2854 O   0  0  0  0  0  0  0  0  0  0  0  0
  149.9579  137.5518  154.7511 C   0  0  2  0  0  0  0  0  0  0  0  0
  149.8582  137.1033  156.0921 O   0  0  0  0  0  0  0  0  0  0  0  0
  151.1385  138.5112  154.4524 C   0  0  2  0  0  0  0  0  0  0  0  0
  152.4707  138.2118  155.1796 C   0  0  0  0  0  0  0  0  0  0  0  0
  153.4154  139.0196  155.0388 O   0  0  0  0  0  0  0  0  0  0  0  0
  152.4958  137.2237  155.9463 O   0  5  0  0  0  0  0  0  0  0  0  0
  150.5403  139.9399  154.6136 C   0  0  2  0  0  0  0  0  0  0  0  0
  150.7850  140.6033  155.9567 C   0  0  0  0  0  0  0  0  0  0  0  0
  151.1074  139.9684  157.1911 C   0  0  0  0  0  0  0  0  0  0  0  0
  151.2702  140.8235  158.1876 N   0  0  0  0  0  0  0  0  0  0  0  0
  151.0529  142.0314  157.6295 N   0  0  0  0  0  0  0  0  0  0  0  0
  151.1424  143.2216  158.4473 C   0  0  0  0  0  0  0  0  0  0  0  0
  150.7609  141.9305  156.2871 C   0  0  0  0  0  0  0  0  0  0  0  0
  149.9776  136.6899  154.0833 H   0  0  0  0  0  0  0  0  0  0  0  0
  151.3633  138.3855  153.3917 H   0  0  0  0  0  0  0  0  0  0  0  0
  150.9210  140.5712  153.8093 H   0  0  0  0  0  0  0  0  0  0  0  0
  147.1909  140.5419  153.9881 H   0  0  0  0  0  0  0  0  0  0  0  0
  148.5388  141.3356  153.1725 H   0  0  0  0  0  0  0  0  0  0  0  0
  148.2800  141.5826  154.9013 H   0  0  0  0  0  0  0  0  0  0  0  0
  149.7310  137.8562  156.6485 H   0  0  0  0  0  0  0  0  0  0  0  0
  151.2266  138.9133  157.3889 H   0  0  0  0  0  0  0  0  0  0  0  0
  151.0643  144.1114  157.8221 H   0  0  0  0  0  0  0  0  0  0  0  0
  152.0984  143.2401  158.9718 H   0  0  0  0  0  0  0  0  0  0  0  0
  150.3319  143.2276  159.1765 H   0  0  0  0  0  0  0  0  0  0  0  0
  150.5594  142.8018  155.6817 H   0  0  0  0  0  0  0  0  0  0  0  0
  1  2  1  0  0  0  0
  1 21  1  0  0  0  0
  1 22  1  0  0  0  0
  1 23  1  0  0  0  0
  2 11  1  0  0  0  0
  2  3  1  0  0  0  0
  3  4  2  0  0  0  0
  3  5  1  0  0  0  0
  5 18  1  0  0  0  0
  5  6  1  0  0  0  0
  5  7  1  0  0  0  0
  6 24  1  0  0  0  0
  7 19  1  0  0  0  0
  7  8  1  0  0  0  0
  7 11  1  0  0  0  0
  8  9  2  0  0  0  0
  8 10  1  0  0  0  0
 11 20  1  0  0  0  0
 11 12  1  0  0  0  0
 12 17  2  0  0  0  0
 12 13  1  0  0  0  0
 13 14  2  0  0  0  0
 13 25  1  0  0  0  0
 14 15  1  0  0  0  0
 15 16  1  0  0  0  0
 15 17  1  0  0  0  0
 16 26  1  0  0  0  0
 16 27  1  0  0  0  0
 16 28  1  0  0  0  0
 17 29  1  0  0  0  0
M  CHG  1  10  -1
M  END
> <s_m_source_file>
AV-unprocessed.smi

> <i_m_source_file_index>
59

> <i_lp_mmshare_version>
43012

> <i_f3d_flags>
0

> <s_epik_input>
W0NIM11OMUMoPU8pW0NASF0oW09IXSlbQ0BIXShDKD1PKVtPSF0pW0NASF0xYzJbY0hdbm4oW0NIM10pW2NIXTI=

> <s_epik_cmdline>
J2VwaWtfcHl0aG9uJywgJy1waCcsICc3LjAnLCAnLXRuJywgJzgnLCAnLW1hJywgJzIwMCcsICctbWV0YWxfYmluZGluZycsICctaW1hZScsICc8aW5maWxlLm1hZT4nLCAnLW9tYWUnLCAnPG91dGZpbGUubWFlPic=

> <r_lp_tautomer_probability>
1

> <r_epik_Ionization_Penalty>
0.00173515

> <r_epik_Ionization_Penalty_Charging>
0.00120567

> <r_epik_Ionization_Penalty_Neutral>
0.000529476

> <r_epik_State_Penalty>
-0

> <r_epik_Charging_Adjusted_Penalty>
0.00120567

> <i_epik_Tot_Q>
-1

> <i_epik_Tot_abs_Q>
1

> <r_epik_Metal_State_Penalty>
-0

> <b_epik_Metal_Only>
0

> <s_lp_Force_Field>
OPLS_2005

> <r_lp_Energy>
8.48109

> <b_lp_Chiralities_Consistent>
1

> <s_lp_Variant>
AV-unprocessed.smi:59-5

> <Gold.Version>
5.8.1

> <Gold.Id.Protein>
6NUR|6NUR_protein|mol2

> <Gold.PLP.Fitness>
41.1902

> <Gold.PLP.PLP>
-29.0241

> <Gold.PLP.part.hbond>
-2.0000

> <Gold.PLP.part.metal>
0.0000

> <Gold.PLP.part.buried>
-2.2261

> <Gold.PLP.part.nonpolar>
-26.4636

> <Gold.PLP.part.repulsive>
0.1428

> <Gold.PLP.ligand.clash>
0.0514

> <Gold.PLP.ligand.torsion>
0.7286

> <Gold.PLP.Chemscore.Hbond>
3.5360

> <Gold.PLP.Chemscore.CHOScore>
1.0000

> <Gold.PLP.Chemscore.Metal>
0.0000

> <Gold.Chemscore.Hbonds>
donor molecule, donor type, donor heavy atom, donor atom, acceptor molecule, acceptor atom, score
      P1  H  7997  8009       L1     9  2.00
      P1  H 10752 10764       L1    10  1.45
      L1  C    17    29       P1  8028  0.98

> <Gold.PLP.Chemscore.Internal.Correction>
0.0667

> <Gold.Rescore>
     Score         DG    S(hbond)    S(metal)    S(lipo)     H(rot)  DE(clash)    DE(int)     intcor
      8.48     -12.77       1.78        0.00      56.63       2.06       0.87       3.42       ----

> <Gold.Chemscore.Fitness>
8.4796

> <Gold.Chemscore.DG>
-12.7720

> <Gold.Chemscore.ZeroCoef>
-5.4800

> <Gold.Chemscore.Hbond>
1.7815

> <Gold.Chemscore.Metal>
0.0000

> <Gold.Chemscore.Lipo>
56.6264

> <Gold.Chemscore.Internal_Hbond>
0.0000

> <Gold.Chemscore.DEClash>
0.8733

> <Gold.Chemscore.DEInternal>
3.4191

> <Gold.Chemscore.Rot>
2.0639

> <Gold.Chemscore.Internal.Correction>
   9.000000E+99

> <Gold.Chemscore.Hbonds>
donor molecule, donor type, donor heavy atom, donor atom, acceptor molecule, acceptor atom, score
      P1  H  7997  8009       L1     9  0.98
      P1  H 10752 10764       L1    10  0.51

> <Gold.Chemscore.Hbond.Weighted>
-5.9503

> <Gold.Chemscore.Metal.Weighted>
-0.0000

> <Gold.Chemscore.Lipo.Weighted>
-6.6253

> <Gold.Chemscore.Internal_Hbond.Weighted>
0.0000

> <Gold.Chemscore.DEClash.Weighted>
0.8733

> <Gold.Chemscore.DEInternal.Weighted>
3.4191

> <Gold.Chemscore.Rot.Weighted>
5.2837

> <Gold.Chemscore.Internal.Correction.Weighted>
   9.000000E+99

> <Gold.Protein.RotatedTorsions>
[ 6907 6896 6895 6894 ] final   21.49 input  -60.11 | X-H torsion
[ 7974 7965 7964 7962 ] final   71.53 input  175.53 | X-H torsion
[ 8008 7997 7996 7995 ] final -125.27 input   59.86 | X-H torsion
[ 10167 10162 10161 10158 ] final  -17.59 input  -65.29 | X-H torsion
[ 10718 10713 10712 10709 ] final  -11.73 input   66.30 | X-H torsion
[ 10763 10752 10751 10750 ] final  -39.16 input  -60.55 | X-H torsion
[ 11005 11000 10999 10996 ] final -140.24 input  -57.11 | X-H torsion

> <Gold.Protein.ActiveResidues>
 VAL166  LYS551  ARG553  GLY616  TRP617  ASP618  TYR619  PRO620  LYS621  CYS622 
 ASP623  PHE694  ASN695  SER759  ASP760  ASP761  ALA762  ILE779  LEU786  VAL792 
 PHE793  MET794  SER795  GLU796  ALA797  LYS798  CYS799  TRP800  GLU811  SER814 

> <Gold.Protein.RotatedAtoms>
  151.9126  135.0332  160.0515 H   0  0  0  0  0  0  0  0  0  0  0  0  # atno 6907 bound_to 6896
  152.2267  133.5021  159.5201 H   0  0  0  0  0  0  0  0  0  0  0  0  # atno 6908 bound_to 6896
  150.7014  134.1188  159.4069 H   0  0  0  0  0  0  0  0  0  0  0  0  # atno 6909 bound_to 6896
  145.7647  139.2816  143.1356 H   0  0  0  0  0  0  0  0  0  0  0  0  # atno 7974 bound_to 7965
  155.2105  140.0419  157.2932 H   0  0  0  0  0  0  0  0  0  0  0  0  # atno 8008 bound_to 7997
  154.6014  140.2453  155.7758 H   0  0  0  0  0  0  0  0  0  0  0  0  # atno 8009 bound_to 7997
  156.2323  140.2934  156.0231 H   0  0  0  0  0  0  0  0  0  0  0  0  # atno 8010 bound_to 7997
  140.7249  143.5000  150.9881 H   0  0  0  0  0  0  0  0  0  0  0  0  # atno 10167 bound_to 10162
  156.6548  130.4965  149.6050 H   0  0  0  0  0  0  0  0  0  0  0  0  # atno 10718 bound_to 10713
  153.9249  135.6778  153.4747 H   0  0  0  0  0  0  0  0  0  0  0  0  # atno 10763 bound_to 10752
  153.1009  135.4828  154.8863 H   0  0  0  0  0  0  0  0  0  0  0  0  # atno 10764 bound_to 10752
  154.7459  135.3172  154.8603 H   0  0  0  0  0  0  0  0  0  0  0  0  # atno 10765 bound_to 10752
  140.8442  134.2365  157.4794 H   0  0  0  0  0  0  0  0  0  0  0  0  # atno 11005 bound_to 11000
  146.0229  140.8331  142.9914 LP  0  0  0  0  0  0  0  0  0  0  0  0  # atno 17320 bound_to 7965
  144.6823  140.2655  143.7313 LP  0  0  0  0  0  0  0  0  0  0  0  0  # atno 17321 bound_to 7965
  139.8709  143.7193  152.3166 LP  0  0  0  0  0  0  0  0  0  0  0  0  # atno 17342 bound_to 10162
  139.7442  144.7551  151.0606 LP  0  0  0  0  0  0  0  0  0  0  0  0  # atno 17343 bound_to 10162
  156.2056  130.6647  151.1215 LP  0  0  0  0  0  0  0  0  0  0  0  0  # atno 17370 bound_to 10713
  157.7129  131.0725  150.6435 LP  0  0  0  0  0  0  0  0  0  0  0  0  # atno 17371 bound_to 10713
  139.8703  134.9651  156.4516 LP  0  0  0  0  0  0  0  0  0  0  0  0  # atno 17394 bound_to 11000
  140.8862  133.7882  155.9521 LP  0  0  0  0  0  0  0  0  0  0  0  0  # atno 17395 bound_to 11000

$$$$
