AV-unprocessed.smi:72|AV-procd|sdf|732|dock4
  -GOLD-   2262017 63D 1   1.00000     0.00000
 Structure written by MMmdl.
 28 29  0  0  0  0  0  0  0  0  2 V2000
  153.7997  137.6945  156.0214 N   0  0  0  0  0  0  0  0  0  0  0  0
  152.7310  138.1949  155.5768 C   0  0  0  0  0  0  0  0  0  0  0  0
  151.9036  137.4374  154.6635 N   0  0  0  0  0  0  0  0  0  0  0  0
  150.8083  137.9891  154.2395 C   0  0  0  0  0  0  0  0  0  0  0  0
  150.4055  139.3250  154.6613 N   0  0  0  0  0  0  0  0  0  0  0  0
  149.1214  139.9772  154.1731 C   0  0  1  0  0  0  0  0  0  0  0  0
  148.4988  139.1583  153.2235 O   0  0  0  0  0  0  0  0  0  0  0  0
  147.3126  138.5916  153.7680 C   0  0  2  0  0  0  0  0  0  0  0  0
  146.3546  138.1413  152.6512 C   0  0  0  0  0  0  0  0  0  0  0  0
  146.2111  139.1610  151.6852 O   0  0  0  0  0  0  0  0  0  0  0  0
  146.8053  139.6729  154.7301 C   0  0  2  0  0  0  0  0  0  0  0  0
  146.0860  140.6783  154.0401 O   0  0  0  0  0  0  0  0  0  0  0  0
  148.0962  140.2414  155.3059 C   0  0  1  0  0  0  0  0  0  0  0  0
  148.4032  139.5868  156.5252 O   0  0  0  0  0  0  0  0  0  0  0  0
  151.2409  140.0466  155.5554 C   0  0  0  0  0  0  0  0  0  0  0  0
  150.8814  141.1716  155.9035 O   0  0  0  0  0  0  0  0  0  0  0  0
  152.3938  139.4646  155.9897 N   0  5  0  0  0  0  0  0  0  0  0  0
  149.4331  140.8867  153.6571 H   0  0  0  0  0  0  0  0  0  0  0  0
  147.6048  137.7191  154.3547 H   0  0  0  0  0  0  0  0  0  0  0  0
  146.1491  139.2591  155.4971 H   0  0  0  0  0  0  0  0  0  0  0  0
  148.0290  141.3126  155.5012 H   0  0  0  0  0  0  0  0  0  0  0  0
  154.2898  138.3154  156.6484 H   0  0  0  0  0  0  0  0  0  0  0  0
  150.1321  137.4872  153.5481 H   0  0  0  0  0  0  0  0  0  0  0  0
  146.6980  137.2244  152.1717 H   0  0  0  0  0  0  0  0  0  0  0  0
  145.3719  137.9275  153.0723 H   0  0  0  0  0  0  0  0  0  0  0  0
  145.4267  139.6510  151.8806 H   0  0  0  0  0  0  0  0  0  0  0  0
  145.4268  140.2603  153.5076 H   0  0  0  0  0  0  0  0  0  0  0  0
  149.1701  139.9927  156.8990 H   0  0  0  0  0  0  0  0  0  0  0  0
  1  2  2  0  0  0  0
  1 22  1  0  0  0  0
  2 17  1  0  0  0  0
  2  3  1  0  0  0  0
  3  4  2  0  0  0  0
  4  5  1  0  0  0  0
  4 23  1  0  0  0  0
  5  6  1  0  0  0  0
  5 15  1  0  0  0  0
  6 18  1  0  0  0  0
  6 13  1  0  0  0  0
  6  7  1  0  0  0  0
  7  8  1  0  0  0  0
  8 19  1  0  0  0  0
  8  9  1  0  0  0  0
  8 11  1  0  0  0  0
  9 10  1  0  0  0  0
  9 24  1  0  0  0  0
  9 25  1  0  0  0  0
 10 26  1  0  0  0  0
 11 20  1  0  0  0  0
 11 12  1  0  0  0  0
 11 13  1  0  0  0  0
 12 27  1  0  0  0  0
 13 21  1  0  0  0  0
 13 14  1  0  0  0  0
 14 28  1  0  0  0  0
 15 16  2  0  0  0  0
 15 17  1  0  0  0  0
M  CHG  1  17  -1
M  END
> <s_m_source_file>
AV-unprocessed.smi

> <i_m_source_file_index>
72

> <i_lp_mmshare_version>
43012

> <i_f3d_flags>
0

> <s_epik_input>
W05IMl1jMW5bY0hdbihjKD1PKW4xKVtDQEBIXTJPW0NASF0oW0NIMl1bT0hdKVtDQEBIXShbT0hdKVtDQEhdMltPSF0=

> <s_epik_cmdline>
J2VwaWtfcHl0aG9uJywgJy1waCcsICc3LjAnLCAnLXRuJywgJzgnLCAnLW1hJywgJzIwMCcsICctbWV0YWxfYmluZGluZycsICctaW1hZScsICc8aW5maWxlLm1hZT4nLCAnLW9tYWUnLCAnPG91dGZpbGUubWFlPic=

> <r_lp_tautomer_probability>
7.17554e-07

> <r_epik_Ionization_Penalty>
12.8705

> <r_epik_Ionization_Penalty_Charging>
5.64144

> <r_epik_Ionization_Penalty_Neutral>
7.22905

> <r_epik_State_Penalty>
3.30104

> <r_epik_Charging_Adjusted_Penalty>
8.94249

> <i_epik_Tot_Q>
-1

> <i_epik_Tot_abs_Q>
1

> <r_epik_Metal_State_Penalty>
0.529074

> <b_epik_Metal_Only>
1

> <s_epik_Chemistry_Notes>
This compound contains an acetal/aminal-like group ( X-CH(R)-Y where X, Y are N, S, or O) that may be acid/base labile, releasing an aldehyde.

> <s_lp_Force_Field>
OPLS_2005

> <r_lp_Energy>
37.8021

> <b_lp_Chiralities_Consistent>
1

> <s_lp_Variant>
AV-unprocessed.smi:72-70

> <Gold.Version>
5.8.1

> <Gold.Id.Protein>
6NUR|6NUR_protein|mol2

> <Gold.PLP.Fitness>
39.7848

> <Gold.PLP.PLP>
-22.5999

> <Gold.PLP.part.hbond>
-6.4286

> <Gold.PLP.part.metal>
0.0000

> <Gold.PLP.part.buried>
-4.2939

> <Gold.PLP.part.nonpolar>
-17.5127

> <Gold.PLP.part.repulsive>
4.4076

> <Gold.PLP.ligand.clash>
0.0000

> <Gold.PLP.ligand.torsion>
0.1065

> <Gold.PLP.Chemscore.Hbond>
4.7161

> <Gold.PLP.Chemscore.CHOScore>
1.0697

> <Gold.PLP.Chemscore.Metal>
0.0000

> <Gold.Chemscore.Hbonds>
donor molecule, donor type, donor heavy atom, donor atom, acceptor molecule, acceptor atom, score
      L1  H    10    26       P1 10175  1.00
      L1  H    12    27       P1 10175  0.90
      P1  H  7997  8008       L1    17  1.40
      P1  H 10752 10765       L1     3  0.81
      L1  C     4    23       P1  7948  1.00
      L1  C     4    23       P1  7949  0.07

> <Gold.PLP.Chemscore.Internal.Correction>
0.0404

> <Gold.Rescore>
     Score         DG    S(hbond)    S(metal)    S(lipo)     H(rot)  DE(clash)    DE(int)     intcor
      3.34      -5.18       2.47        0.00      15.27       4.04       1.50       0.34       ----

> <Gold.Chemscore.Fitness>
3.3353

> <Gold.Chemscore.DG>
-5.1774

> <Gold.Chemscore.ZeroCoef>
-5.4800

> <Gold.Chemscore.Hbond>
2.4711

> <Gold.Chemscore.Metal>
0.0000

> <Gold.Chemscore.Lipo>
15.2729

> <Gold.Chemscore.Internal_Hbond>
0.0000

> <Gold.Chemscore.DEClash>
1.5049

> <Gold.Chemscore.DEInternal>
0.3371

> <Gold.Chemscore.Rot>
4.0403

> <Gold.Chemscore.Internal.Correction>
   9.000000E+99

> <Gold.Chemscore.Hbonds>
donor molecule, donor type, donor heavy atom, donor atom, acceptor molecule, acceptor atom, score
      L1  H    10    26       P1 10175  0.79
      L1  H    12    27       P1 10175  0.83
      P1  H  7997  8008       L1    17  0.10
      P1  H 10752 10765       L1     3  0.34

> <Gold.Chemscore.Hbond.Weighted>
-8.2535

> <Gold.Chemscore.Metal.Weighted>
-0.0000

> <Gold.Chemscore.Lipo.Weighted>
-1.7869

> <Gold.Chemscore.Internal_Hbond.Weighted>
0.0000

> <Gold.Chemscore.DEClash.Weighted>
1.5049

> <Gold.Chemscore.DEInternal.Weighted>
0.3371

> <Gold.Chemscore.Rot.Weighted>
10.3431

> <Gold.Chemscore.Internal.Correction.Weighted>
   9.000000E+99

> <Gold.Protein.RotatedTorsions>
[ 6907 6896 6895 6894 ] final -125.57 input  -60.11 | X-H torsion
[ 7974 7965 7964 7962 ] final   58.09 input  175.53 | X-H torsion
[ 8008 7997 7996 7995 ] final  -41.50 input   59.86 | X-H torsion
[ 10167 10162 10161 10158 ] final  -26.95 input  -65.29 | X-H torsion
[ 10718 10713 10712 10709 ] final  176.16 input   66.30 | X-H torsion
[ 10763 10752 10751 10750 ] final  168.59 input  -60.55 | X-H torsion
[ 11005 11000 10999 10996 ] final   30.38 input  -57.11 | X-H torsion

> <Gold.Protein.ActiveResidues>
 VAL166  LYS551  ARG553  GLY616  TRP617  ASP618  TYR619  PRO620  LYS621  CYS622 
 ASP623  PHE694  ASN695  SER759  ASP760  ASP761  ALA762  ILE779  LEU786  VAL792 
 PHE793  MET794  SER795  GLU796  ALA797  LYS798  CYS799  TRP800  GLU811  SER814 

> <Gold.Protein.RotatedAtoms>
  150.8880  133.7281  159.2912 H   0  0  0  0  0  0  0  0  0  0  0  0  # atno 6907 bound_to 6896
  151.4840  135.1052  159.9795 H   0  0  0  0  0  0  0  0  0  0  0  0  # atno 6908 bound_to 6896
  152.4802  133.8190  159.7099 H   0  0  0  0  0  0  0  0  0  0  0  0  # atno 6909 bound_to 6896
  145.9220  139.3737  143.0473 H   0  0  0  0  0  0  0  0  0  0  0  0  # atno 7974 bound_to 7965
  154.4004  140.1498  156.3201 H   0  0  0  0  0  0  0  0  0  0  0  0  # atno 8008 bound_to 7997
  155.8537  140.3456  155.5689 H   0  0  0  0  0  0  0  0  0  0  0  0  # atno 8009 bound_to 7997
  155.7956  140.0863  157.1976 H   0  0  0  0  0  0  0  0  0  0  0  0  # atno 8010 bound_to 7997
  140.7280  143.4134  151.1067 H   0  0  0  0  0  0  0  0  0  0  0  0  # atno 10167 bound_to 10162
  156.9242  130.9950  151.2999 H   0  0  0  0  0  0  0  0  0  0  0  0  # atno 10718 bound_to 10713
  154.3707  135.2753  155.2268 H   0  0  0  0  0  0  0  0  0  0  0  0  # atno 10763 bound_to 10752
  154.4416  135.5953  153.6137 H   0  0  0  0  0  0  0  0  0  0  0  0  # atno 10764 bound_to 10752
  152.9838  135.6020  154.3938 H   0  0  0  0  0  0  0  0  0  0  0  0  # atno 10765 bound_to 10752
  140.2949  134.2822  155.7767 H   0  0  0  0  0  0  0  0  0  0  0  0  # atno 11005 bound_to 11000
  145.8538  140.9514  143.0736 LP  0  0  0  0  0  0  0  0  0  0  0  0  # atno 17320 bound_to 7965
  144.6754  140.0441  143.7480 LP  0  0  0  0  0  0  0  0  0  0  0  0  # atno 17321 bound_to 7965
  139.7771  143.8409  152.3131 LP  0  0  0  0  0  0  0  0  0  0  0  0  # atno 17342 bound_to 10162
  139.8348  144.7237  150.9405 LP  0  0  0  0  0  0  0  0  0  0  0  0  # atno 17343 bound_to 10162
  157.5888  130.8429  149.8629 LP  0  0  0  0  0  0  0  0  0  0  0  0  # atno 17370 bound_to 10713
  156.0477  130.3724  150.1278 LP  0  0  0  0  0  0  0  0  0  0  0  0  # atno 17371 bound_to 10713
  141.2139  133.7609  156.9681 LP  0  0  0  0  0  0  0  0  0  0  0  0  # atno 17394 bound_to 11000
  140.1161  134.9446  157.2136 LP  0  0  0  0  0  0  0  0  0  0  0  0  # atno 17395 bound_to 11000

$$$$
