AV-unprocessed.smi:3165|AV-procd|sdf|12088|dock7
  -GOLD-   2272017523D 1   1.00000     0.00000
 Structure written by MMmdl.
 38 39  0  0  0  0  0  0  0  0  2 V2000
  151.0371  140.2642  155.5921 C   0  0  0  0  0  0  0  0  0  0  0  0
  150.0692  141.4547  155.6065 C   0  0  1  0  0  0  0  0  0  0  0  0
  148.6342  140.9901  155.9333 C   0  0  0  0  0  0  0  0  0  0  0  0
  147.6283  141.6589  155.1281 N   0  0  0  0  0  0  0  0  0  0  0  0
  147.5300  141.7193  153.7539 C   0  0  0  0  0  0  0  0  0  0  0  0
  146.4322  142.4759  153.4591 C   0  0  0  0  0  0  0  0  0  0  0  0
  145.9152  142.8348  154.7353 C   0  0  0  0  0  0  0  0  0  0  0  0
  146.6327  142.3431  155.7324 N   0  0  0  0  0  0  0  0  0  0  0  0
  150.5382  142.4609  156.5863 N   0  3  0  0  0  0  0  0  0  0  0  0
  150.7838  141.9378  157.9467 C   0  0  0  0  0  0  0  0  0  0  0  0
  151.6291  142.9189  158.7698 C   0  0  1  0  0  0  0  0  0  0  0  0
  151.3164  144.3843  158.4100 C   0  0  0  0  0  0  0  0  0  0  0  0
  152.0920  145.3422  159.3215 C   0  0  0  0  0  0  0  0  0  0  0  0
  151.8258  144.9871  160.7879 C   0  0  0  0  0  0  0  0  0  0  0  0
  152.1058  143.4966  161.0345 C   0  0  0  0  0  0  0  0  0  0  0  0
  151.3236  142.7040  160.1465 O   0  0  0  0  0  0  0  0  0  0  0  0
  150.7307  139.5172  154.8592 H   0  0  0  0  0  0  0  0  0  0  0  0
  151.0819  139.7752  156.5661 H   0  0  0  0  0  0  0  0  0  0  0  0
  152.0473  140.5822  155.3320 H   0  0  0  0  0  0  0  0  0  0  0  0
  150.0802  141.8931  154.6069 H   0  0  0  0  0  0  0  0  0  0  0  0
  148.5403  139.9173  155.7592 H   0  0  0  0  0  0  0  0  0  0  0  0
  148.4098  141.1518  156.9892 H   0  0  0  0  0  0  0  0  0  0  0  0
  148.2432  141.2286  153.1079 H   0  0  0  0  0  0  0  0  0  0  0  0
  146.0550  142.7335  152.4804 H   0  0  0  0  0  0  0  0  0  0  0  0
  145.0467  143.4341  154.9656 H   0  0  0  0  0  0  0  0  0  0  0  0
  151.3961  142.8640  156.2358 H   0  0  0  0  0  0  0  0  0  0  0  0
  149.8202  141.7720  158.4299 H   0  0  0  0  0  0  0  0  0  0  0  0
  151.2864  140.9714  157.8982 H   0  0  0  0  0  0  0  0  0  0  0  0
  152.6878  142.7185  158.5942 H   0  0  0  0  0  0  0  0  0  0  0  0
  151.5656  144.5805  157.3667 H   0  0  0  0  0  0  0  0  0  0  0  0
  150.2466  144.5695  158.5160 H   0  0  0  0  0  0  0  0  0  0  0  0
  153.1600  145.2665  159.1127 H   0  0  0  0  0  0  0  0  0  0  0  0
  151.8048  146.3748  159.1218 H   0  0  0  0  0  0  0  0  0  0  0  0
  152.4428  145.6019  161.4435 H   0  0  0  0  0  0  0  0  0  0  0  0
  150.7869  145.2083  161.0364 H   0  0  0  0  0  0  0  0  0  0  0  0
  153.1653  143.2721  160.9022 H   0  0  0  0  0  0  0  0  0  0  0  0
  151.8501  143.2319  162.0606 H   0  0  0  0  0  0  0  0  0  0  0  0
  149.8450  143.1922  156.6546 H   0  0  0  0  0  0  0  0  0  0  0  0
  1  2  1  0  0  0  0
  1 17  1  0  0  0  0
  1 18  1  0  0  0  0
  1 19  1  0  0  0  0
  2  3  1  0  0  0  0
  2  9  1  0  0  0  0
  2 20  1  0  0  0  0
  3  4  1  0  0  0  0
  3 21  1  0  0  0  0
  3 22  1  0  0  0  0
  4  8  1  0  0  0  0
  4  5  1  0  0  0  0
  5  6  2  0  0  0  0
  5 23  1  0  0  0  0
  6  7  1  0  0  0  0
  6 24  1  0  0  0  0
  7  8  2  0  0  0  0
  7 25  1  0  0  0  0
  9 10  1  0  0  0  0
  9 26  1  0  0  0  0
  9 38  1  0  0  0  0
 10 11  1  0  0  0  0
 10 27  1  0  0  0  0
 10 28  1  0  0  0  0
 11 16  1  0  0  0  0
 11 12  1  0  0  0  0
 11 29  1  0  0  0  0
 12 13  1  0  0  0  0
 12 30  1  0  0  0  0
 12 31  1  0  0  0  0
 13 14  1  0  0  0  0
 13 32  1  0  0  0  0
 13 33  1  0  0  0  0
 14 15  1  0  0  0  0
 14 34  1  0  0  0  0
 14 35  1  0  0  0  0
 15 16  1  0  0  0  0
 15 36  1  0  0  0  0
 15 37  1  0  0  0  0
M  CHG  1   9   1
M  END
> <s_m_source_file>
AV-unprocessed.smi

> <i_m_source_file_index>
3165

> <i_lp_mmshare_version>
43012

> <i_f3d_flags>
0

> <s_epik_input>
bjFbY0hdW2NIXVtjSF1uMVtDSDJdW0NAQEhdKFtDSDNdKVtOSF1bQ0gyXVtDQEBIXTJbQ0gyXVtDSDJdW0NIMl1bQ0gyXU8y

> <s_epik_cmdline>
J2VwaWtfcHl0aG9uJywgJy1waCcsICc3LjAnLCAnLXRuJywgJzgnLCAnLW1hJywgJzIwMCcsICctbWV0YWxfYmluZGluZycsICctaW1hZScsICc8aW5maWxlLm1hZT4nLCAnLW9tYWUnLCAnPG91dGZpbGUubWFlPic=

> <r_lp_tautomer_probability>
1

> <r_epik_Ionization_Penalty>
0.00849196

> <r_epik_Ionization_Penalty_Charging>
0.00848754

> <r_epik_Ionization_Penalty_Neutral>
4.42049e-06

> <r_epik_State_Penalty>
0.00639836

> <r_epik_Charging_Adjusted_Penalty>
0.0148859

> <i_epik_Tot_Q>
1

> <i_epik_Tot_abs_Q>
1

> <r_epik_Metal_State_Penalty>
0.00639878

> <b_epik_Metal_Only>
0

> <s_lp_Force_Field>
OPLS_2005

> <r_lp_Energy>
13.0452

> <b_lp_Chiralities_Consistent>
1

> <s_lp_Variant>
AV-unprocessed.smi:3165-4

> <Gold.Version>
5.8.1

> <Gold.Id.Protein>
6NUR|6NUR_protein|mol2

> <Gold.PLP.Fitness>
46.1540

> <Gold.PLP.PLP>
-39.0446

> <Gold.PLP.part.hbond>
-1.8061

> <Gold.PLP.part.metal>
0.0000

> <Gold.PLP.part.buried>
-6.3042

> <Gold.PLP.part.nonpolar>
-30.9357

> <Gold.PLP.part.repulsive>
0.2535

> <Gold.PLP.ligand.clash>
0.0000

> <Gold.PLP.ligand.torsion>
0.9695

> <Gold.PLP.Chemscore.Hbond>
2.0000

> <Gold.PLP.Chemscore.CHOScore>
1.0000

> <Gold.PLP.Chemscore.Metal>
0.0000

> <Gold.Chemscore.Hbonds>
donor molecule, donor type, donor heavy atom, donor atom, acceptor molecule, acceptor atom, score
      L1  H     9    38       P1  8028  1.69
      L1  C     5    23       P1  7957  0.71

> <Gold.PLP.Chemscore.Internal.Correction>
0.0484

> <Gold.Rescore>
     Score         DG    S(hbond)    S(metal)    S(lipo)     H(rot)  DE(clash)    DE(int)     intcor
     15.72     -16.43       0.93        0.00     102.94       1.64       0.08       0.63       ----

> <Gold.Chemscore.Fitness>
15.7154

> <Gold.Chemscore.DG>
-16.4280

> <Gold.Chemscore.ZeroCoef>
-5.4800

> <Gold.Chemscore.Hbond>
0.9321

> <Gold.Chemscore.Metal>
0.0000

> <Gold.Chemscore.Lipo>
102.9439

> <Gold.Chemscore.Internal_Hbond>
0.0000

> <Gold.Chemscore.DEClash>
0.0795

> <Gold.Chemscore.DEInternal>
0.6331

> <Gold.Chemscore.Rot>
1.6444

> <Gold.Chemscore.Internal.Correction>
   9.000000E+99

> <Gold.Chemscore.Hbonds>
donor molecule, donor type, donor heavy atom, donor atom, acceptor molecule, acceptor atom, score
      L1  H     9    38       P1  8028  0.79

> <Gold.Chemscore.Hbond.Weighted>
-3.1133

> <Gold.Chemscore.Metal.Weighted>
-0.0000

> <Gold.Chemscore.Lipo.Weighted>
-12.0444

> <Gold.Chemscore.Internal_Hbond.Weighted>
0.0000

> <Gold.Chemscore.DEClash.Weighted>
0.0795

> <Gold.Chemscore.DEInternal.Weighted>
0.6331

> <Gold.Chemscore.Rot.Weighted>
4.2097

> <Gold.Chemscore.Internal.Correction.Weighted>
   9.000000E+99

> <Gold.Protein.RotatedTorsions>
[ 6907 6896 6895 6894 ] final   89.14 input  -60.11 | X-H torsion
[ 7974 7965 7964 7962 ] final -107.32 input  175.53 | X-H torsion
[ 8008 7997 7996 7995 ] final  128.95 input   59.86 | X-H torsion
[ 10167 10162 10161 10158 ] final  145.50 input  -65.29 | X-H torsion
[ 10718 10713 10712 10709 ] final  -15.49 input   66.30 | X-H torsion
[ 10763 10752 10751 10750 ] final -116.97 input  -60.55 | X-H torsion
[ 11005 11000 10999 10996 ] final -128.85 input  -57.11 | X-H torsion

> <Gold.Protein.ActiveResidues>
 VAL166  LYS551  ARG553  GLY616  TRP617  ASP618  TYR619  PRO620  LYS621  CYS622 
 ASP623  PHE694  ASN695  SER759  ASP760  ASP761  ALA762  ILE779  LEU786  VAL792 
 PHE793  MET794  SER795  GLU796  ALA797  LYS798  CYS799  TRP800  GLU811  SER814 

> <Gold.Protein.RotatedAtoms>
  152.5433  134.2013  159.8712 H   0  0  0  0  0  0  0  0  0  0  0  0  # atno 6907 bound_to 6896
  151.2002  133.4609  159.2603 H   0  0  0  0  0  0  0  0  0  0  0  0  # atno 6908 bound_to 6896
  151.0997  134.9977  159.8498 H   0  0  0  0  0  0  0  0  0  0  0  0  # atno 6909 bound_to 6896
  145.2068  140.9079  143.3337 H   0  0  0  0  0  0  0  0  0  0  0  0  # atno 7974 bound_to 7965
  156.2926  140.2632  156.2519 H   0  0  0  0  0  0  0  0  0  0  0  0  # atno 8008 bound_to 7997
  154.9874  140.0389  157.2323 H   0  0  0  0  0  0  0  0  0  0  0  0  # atno 8009 bound_to 7997
  154.7716  140.2779  155.6138 H   0  0  0  0  0  0  0  0  0  0  0  0  # atno 8010 bound_to 7997
  139.4925  144.5897  151.6706 H   0  0  0  0  0  0  0  0  0  0  0  0  # atno 10167 bound_to 10162
  156.6010  130.4824  149.6239 H   0  0  0  0  0  0  0  0  0  0  0  0  # atno 10718 bound_to 10713
  154.8538  135.4326  154.1906 H   0  0  0  0  0  0  0  0  0  0  0  0  # atno 10763 bound_to 10752
  153.2975  135.6966  153.7240 H   0  0  0  0  0  0  0  0  0  0  0  0  # atno 10764 bound_to 10752
  153.6383  135.3472  155.3038 H   0  0  0  0  0  0  0  0  0  0  0  0  # atno 10765 bound_to 10752
  140.9482  134.1102  157.4087 H   0  0  0  0  0  0  0  0  0  0  0  0  # atno 11005 bound_to 11000
  144.9894  139.3704  143.6222 LP  0  0  0  0  0  0  0  0  0  0  0  0  # atno 17320 bound_to 7965
  146.3406  139.9070  142.8786 LP  0  0  0  0  0  0  0  0  0  0  0  0  # atno 17321 bound_to 7965
  140.5521  144.0408  150.6131 LP  0  0  0  0  0  0  0  0  0  0  0  0  # atno 17342 bound_to 10162
  140.3466  143.2988  152.0532 LP  0  0  0  0  0  0  0  0  0  0  0  0  # atno 17343 bound_to 10162
  156.2469  130.6884  151.1608 LP  0  0  0  0  0  0  0  0  0  0  0  0  # atno 17370 bound_to 10713
  157.7279  131.0635  150.5843 LP  0  0  0  0  0  0  0  0  0  0  0  0  # atno 17371 bound_to 10713
  139.8839  135.0058  156.6335 LP  0  0  0  0  0  0  0  0  0  0  0  0  # atno 17394 bound_to 11000
  140.7640  133.8794  155.8440 LP  0  0  0  0  0  0  0  0  0  0  0  0  # atno 17395 bound_to 11000

$$$$
