AV-unprocessed.smi:561|AV-procd|sdf|2943|dock6
  -GOLD-   2262023443D 1   1.00000     0.00000
 Structure written by MMmdl.
 35 36  0  0  0  0  0  0  0  0  2 V2000
  151.5172  139.8811  154.3918 C   0  0  0  0  0  0  0  0  0  0  0  0
  151.2422  141.3880  154.4947 C   0  0  1  0  0  0  0  0  0  0  0  0
  149.9216  141.6704  155.2527 C   0  0  0  0  0  0  0  0  0  0  0  0
  148.7459  141.0446  154.6562 N   0  0  0  0  0  0  0  0  0  0  0  0
  147.4628  140.9852  155.1911 C   0  0  0  0  0  0  0  0  0  0  0  0
  146.6903  140.2857  154.2921 C   0  0  0  0  0  0  0  0  0  0  0  0
  147.4709  139.8951  153.2069 N   0  0  0  0  0  0  0  0  0  0  0  0
  148.6735  140.3781  153.4931 C   0  0  0  0  0  0  0  0  0  0  0  0
  152.3585  142.0277  155.1994 N   0  5  0  0  0  0  0  0  0  0  0  0
  152.8369  141.6636  156.4250 C   0  0  0  0  0  0  0  0  0  0  0  0
  153.6431  140.7522  156.6558 O   0  0  0  0  0  0  0  0  0  0  0  0
  152.3572  142.4322  157.6109 C   0  0  0  0  0  0  0  0  0  0  0  0
  153.0561  142.3991  158.7021 N   0  0  0  0  0  0  0  0  0  0  0  0
  152.6727  143.0670  159.8471 N   0  0  0  0  0  0  0  0  0  0  0  0
  153.4319  142.6752  161.0344 C   0  0  0  0  0  0  0  0  0  0  0  0
  151.7048  144.0178  159.8932 C   0  0  0  0  0  0  0  0  0  0  0  0
  151.3531  144.5974  160.9209 O   0  0  0  0  0  0  0  0  0  0  0  0
  151.0519  144.3907  158.5595 C   0  0  0  0  0  0  0  0  0  0  0  0
  151.0597  143.2209  157.5570 C   0  0  0  0  0  0  0  0  0  0  0  0
  150.7077  139.3711  153.8693 H   0  0  0  0  0  0  0  0  0  0  0  0
  151.6160  139.4242  155.3773 H   0  0  0  0  0  0  0  0  0  0  0  0
  152.4367  139.6862  153.8390 H   0  0  0  0  0  0  0  0  0  0  0  0
  151.1241  141.7674  153.4783 H   0  0  0  0  0  0  0  0  0  0  0  0
  150.0034  141.3103  156.2791 H   0  0  0  0  0  0  0  0  0  0  0  0
  149.7432  142.7446  155.3210 H   0  0  0  0  0  0  0  0  0  0  0  0
  147.2155  141.4415  156.1382 H   0  0  0  0  0  0  0  0  0  0  0  0
  145.6418  140.0323  154.3448 H   0  0  0  0  0  0  0  0  0  0  0  0
  149.5243  140.2450  152.8414 H   0  0  0  0  0  0  0  0  0  0  0  0
  153.1698  143.2368  161.9319 H   0  0  0  0  0  0  0  0  0  0  0  0
  154.4991  142.8197  160.8616 H   0  0  0  0  0  0  0  0  0  0  0  0
  153.2680  141.6188  161.2504 H   0  0  0  0  0  0  0  0  0  0  0  0
  150.0329  144.7422  158.7239 H   0  0  0  0  0  0  0  0  0  0  0  0
  151.6111  145.2305  158.1451 H   0  0  0  0  0  0  0  0  0  0  0  0
  150.8961  143.6342  156.5611 H   0  0  0  0  0  0  0  0  0  0  0  0
  150.2223  142.5509  157.7546 H   0  0  0  0  0  0  0  0  0  0  0  0
  1  2  1  0  0  0  0
  1 20  1  0  0  0  0
  1 21  1  0  0  0  0
  1 22  1  0  0  0  0
  2  3  1  0  0  0  0
  2  9  1  0  0  0  0
  2 23  1  0  0  0  0
  3  4  1  0  0  0  0
  3 24  1  0  0  0  0
  3 25  1  0  0  0  0
  4  8  1  0  0  0  0
  4  5  1  0  0  0  0
  5  6  2  0  0  0  0
  5 26  1  0  0  0  0
  6  7  1  0  0  0  0
  6 27  1  0  0  0  0
  7  8  2  0  0  0  0
  8 28  1  0  0  0  0
  9 10  1  0  0  0  0
 10 11  2  0  0  0  0
 10 12  1  0  0  0  0
 12 19  1  0  0  0  0
 12 13  2  0  0  0  0
 13 14  1  0  0  0  0
 14 15  1  0  0  0  0
 14 16  1  0  0  0  0
 15 29  1  0  0  0  0
 15 30  1  0  0  0  0
 15 31  1  0  0  0  0
 16 17  2  0  0  0  0
 16 18  1  0  0  0  0
 18 19  1  0  0  0  0
 18 32  1  0  0  0  0
 18 33  1  0  0  0  0
 19 34  1  0  0  0  0
 19 35  1  0  0  0  0
M  CHG  1   9  -1
M  END
> <s_m_source_file>
AV-unprocessed.smi

> <i_m_source_file_index>
561

> <i_lp_mmshare_version>
43012

> <i_f3d_flags>
0

> <s_epik_input>
W2NIXTFuW2NIXVtjSF1uMVtDSDJdW0NAQEhdKFtDSDNdKVtOSF1DKD1PKUMyPU5OKFtDSDNdKUMoPU8pW0NIMl1bQ0gyXTI=

> <s_epik_cmdline>
J2VwaWtfcHl0aG9uJywgJy1waCcsICc3LjAnLCAnLXRuJywgJzgnLCAnLW1hJywgJzIwMCcsICctbWV0YWxfYmluZGluZycsICctaW1hZScsICc8aW5maWxlLm1hZT4nLCAnLW9tYWUnLCAnPG91dGZpbGUubWFlPic=

> <r_lp_tautomer_probability>
1

> <r_epik_Ionization_Penalty>
6.06239

> <r_epik_Ionization_Penalty_Charging>
6.06239

> <r_epik_Ionization_Penalty_Neutral>
3.91387e-09

> <r_epik_State_Penalty>
5.76729

> <r_epik_Charging_Adjusted_Penalty>
11.8297

> <i_epik_Tot_Q>
-1

> <i_epik_Tot_abs_Q>
1

> <r_epik_Metal_State_Penalty>
2.02369

> <b_epik_Metal_Only>
1

> <s_epik_Chemistry_Notes>
This compound has an imine and may undergo hydrolysis.

> <s_lp_Force_Field>
OPLS_2005

> <r_lp_Energy>
27.3289

> <b_lp_Chiralities_Consistent>
1

> <s_lp_Variant>
AV-unprocessed.smi:561-8

> <Gold.Version>
5.8.1

> <Gold.Id.Protein>
6NUR|6NUR_protein|mol2

> <Gold.PLP.Fitness>
42.7152

> <Gold.PLP.PLP>
-37.8725

> <Gold.PLP.part.hbond>
-0.6178

> <Gold.PLP.part.metal>
0.0000

> <Gold.PLP.part.buried>
-1.3436

> <Gold.PLP.part.nonpolar>
-36.7131

> <Gold.PLP.part.repulsive>
0.3471

> <Gold.PLP.ligand.clash>
0.0000

> <Gold.PLP.ligand.torsion>
1.0344

> <Gold.PLP.Chemscore.Hbond>
0.0000

> <Gold.PLP.Chemscore.CHOScore>
2.2893

> <Gold.PLP.Chemscore.Metal>
0.0000

> <Gold.Chemscore.Hbonds>
donor molecule, donor type, donor heavy atom, donor atom, acceptor molecule, acceptor atom, score
      L1  C     6    27       P1 10175  0.46
      L1  C     8    28       P1  7957  0.16

> <Gold.PLP.Chemscore.Internal.Correction>
0.0434

> <Gold.Rescore>
     Score         DG    S(hbond)    S(metal)    S(lipo)     H(rot)  DE(clash)    DE(int)     intcor
      6.20      -8.95       0.00        0.00      66.39       1.68       0.08       2.67       ----

> <Gold.Chemscore.Fitness>
6.1985

> <Gold.Chemscore.DG>
-8.9484

> <Gold.Chemscore.ZeroCoef>
-5.4800

> <Gold.Chemscore.Hbond>
0.0000

> <Gold.Chemscore.Metal>
0.0000

> <Gold.Chemscore.Lipo>
66.3939

> <Gold.Chemscore.Internal_Hbond>
0.0000

> <Gold.Chemscore.DEClash>
0.0794

> <Gold.Chemscore.DEInternal>
2.6704

> <Gold.Chemscore.Rot>
1.6796

> <Gold.Chemscore.Internal.Correction>
   9.000000E+99

> <Gold.Chemscore.Hbond.Weighted>
-0.0000

> <Gold.Chemscore.Metal.Weighted>
-0.0000

> <Gold.Chemscore.Lipo.Weighted>
-7.7681

> <Gold.Chemscore.Internal_Hbond.Weighted>
0.0000

> <Gold.Chemscore.DEClash.Weighted>
0.0794

> <Gold.Chemscore.DEInternal.Weighted>
2.6704

> <Gold.Chemscore.Rot.Weighted>
4.2997

> <Gold.Chemscore.Internal.Correction.Weighted>
   9.000000E+99

> <Gold.Protein.RotatedTorsions>
[ 6907 6896 6895 6894 ] final    3.32 input  -60.11 | X-H torsion
[ 7974 7965 7964 7962 ] final   43.45 input  175.53 | X-H torsion
[ 8008 7997 7996 7995 ] final  -72.88 input   59.86 | X-H torsion
[ 10167 10162 10161 10158 ] final  -95.36 input  -65.29 | X-H torsion
[ 10718 10713 10712 10709 ] final  162.63 input   66.30 | X-H torsion
[ 10763 10752 10751 10750 ] final   63.22 input  -60.55 | X-H torsion
[ 11005 11000 10999 10996 ] final  132.04 input  -57.11 | X-H torsion

> <Gold.Protein.ActiveResidues>
 VAL166  LYS551  ARG553  GLY616  TRP617  ASP618  TYR619  PRO620  LYS621  CYS622 
 ASP623  PHE694  ASN695  SER759  ASP760  ASP761  ALA762  ILE779  LEU786  VAL792 
 PHE793  MET794  SER795  GLU796  ALA797  LYS798  CYS799  TRP800  GLU811  SER814 

> <Gold.Protein.RotatedAtoms>
  151.6232  135.1030  160.0105 H   0  0  0  0  0  0  0  0  0  0  0  0  # atno 6907 bound_to 6896
  152.4146  133.7014  159.6436 H   0  0  0  0  0  0  0  0  0  0  0  0  # atno 6908 bound_to 6896
  150.8035  133.8480  159.3238 H   0  0  0  0  0  0  0  0  0  0  0  0  # atno 6909 bound_to 6896
  146.0654  139.5186  142.9631 H   0  0  0  0  0  0  0  0  0  0  0  0  # atno 7974 bound_to 7965
  154.5202  140.0789  156.8156 H   0  0  0  0  0  0  0  0  0  0  0  0  # atno 8008 bound_to 7997
  155.3593  140.3417  155.4222 H   0  0  0  0  0  0  0  0  0  0  0  0  # atno 8009 bound_to 7997
  156.1672  140.1608  156.8498 H   0  0  0  0  0  0  0  0  0  0  0  0  # atno 8010 bound_to 7997
  140.3050  143.3139  152.0208 H   0  0  0  0  0  0  0  0  0  0  0  0  # atno 10167 bound_to 10162
  157.1199  131.0489  151.2420 H   0  0  0  0  0  0  0  0  0  0  0  0  # atno 10718 bound_to 10713
  153.0010  135.5437  154.6317 H   0  0  0  0  0  0  0  0  0  0  0  0  # atno 10763 bound_to 10752
  154.5593  135.2832  155.0937 H   0  0  0  0  0  0  0  0  0  0  0  0  # atno 10764 bound_to 10752
  154.2146  135.6461  153.5178 H   0  0  0  0  0  0  0  0  0  0  0  0  # atno 10765 bound_to 10752
  139.9766  134.9561  156.9525 H   0  0  0  0  0  0  0  0  0  0  0  0  # atno 11005 bound_to 11000
  145.6485  141.0268  143.1773 LP  0  0  0  0  0  0  0  0  0  0  0  0  # atno 17320 bound_to 7965
  144.7199  139.8064  143.7385 LP  0  0  0  0  0  0  0  0  0  0  0  0  # atno 17321 bound_to 7965
  139.4906  144.6427  151.6842 LP  0  0  0  0  0  0  0  0  0  0  0  0  # atno 17342 bound_to 10162
  140.5618  144.0256  150.6173 LP  0  0  0  0  0  0  0  0  0  0  0  0  # atno 17343 bound_to 10162
  157.4486  130.7585  149.7131 LP  0  0  0  0  0  0  0  0  0  0  0  0  # atno 17370 bound_to 10713
  155.9831  130.4003  150.3381 LP  0  0  0  0  0  0  0  0  0  0  0  0  # atno 17371 bound_to 10713
  140.5182  134.0934  155.7286 LP  0  0  0  0  0  0  0  0  0  0  0  0  # atno 17394 bound_to 11000
  141.1442  133.9084  157.2254 LP  0  0  0  0  0  0  0  0  0  0  0  0  # atno 17395 bound_to 11000

$$$$
