AV-unprocessed.smi:1|AV-procd|sdf|13|dock2
  -GOLD-   2262015103D 1   1.00000     0.00000
 Structure written by MMmdl.
 57 62  0  0  0  0  0  0  0  0  1 V2000
  153.9766  139.8277  158.9204 O   0  0  0  0  0  0  0  0  0  0  0  0
  153.7868  140.0213  160.1243 C   0  0  0  0  0  0  0  0  0  0  0  0
  153.9632  139.1436  161.1860 N   0  0  0  0  0  0  0  0  0  0  0  0
  154.0848  137.8696  160.9653 C   0  0  0  0  0  0  0  0  0  0  0  0
  154.0829  137.1092  159.7893 N   0  0  0  0  0  0  0  0  0  0  0  0
  154.2214  135.7154  159.7108 C   0  0  0  0  0  0  0  0  0  0  0  0
  154.3730  134.9218  160.7370 N   0  0  0  0  0  0  0  0  0  0  0  0
  154.3864  135.6243  161.9337 C   0  0  0  0  0  0  0  0  0  0  0  0
  154.2620  136.9829  162.1361 C   0  0  0  0  0  0  0  0  0  0  0  0
  154.3306  137.2906  163.4900 N   0  0  0  0  0  0  0  0  0  0  0  0
  154.4946  136.0960  164.0511 C   0  0  0  0  0  0  0  0  0  0  0  0
  154.5315  135.0543  163.1990 N   0  0  0  0  0  0  0  0  0  0  0  0
  154.7159  133.6192  163.5839 C   0  0  2  0  0  0  0  0  0  0  0  0
  153.5716  132.8976  163.2338 O   0  0  0  0  0  0  0  0  0  0  0  0
  152.9446  132.3501  164.3909 C   0  0  1  0  0  0  0  0  0  0  0  0
  152.2489  131.0235  164.0649 C   0  0  0  0  0  0  0  0  0  0  0  0
  151.6965  130.4883  165.2560 O   0  0  0  0  0  0  0  0  0  0  0  0
  152.2597  129.4120  165.8369 C   0  0  0  0  0  0  0  0  0  0  0  0
  153.4159  129.0448  165.6172 O   0  0  0  0  0  0  0  0  0  0  0  0
  151.3358  128.7090  166.7732 C   0  0  0  0  0  0  0  0  0  0  0  0
  151.7255  127.4684  167.3301 C   0  0  0  0  0  0  0  0  0  0  0  0
  150.8724  126.7790  168.2138 C   0  0  0  0  0  0  0  0  0  0  0  0
  149.6191  127.3219  168.5514 C   0  0  0  0  0  0  0  0  0  0  0  0
  149.2198  128.5552  168.0043 C   0  0  0  0  0  0  0  0  0  0  0  0
  150.0715  129.2464  167.1206 C   0  0  0  0  0  0  0  0  0  0  0  0
  154.0743  132.2386  165.4132 C   0  0  1  0  0  0  0  0  0  0  0  0
  154.8514  131.0712  165.2004 O   0  0  0  0  0  0  0  0  0  0  0  0
  156.4647  131.4773  165.3508 S   0  0  0  0  0  0  0  0  0  0  0  0
  156.9292  131.0433  166.6771 O   0  0  0  0  0  0  0  0  0  0  0  0
  157.1523  131.0994  164.1066 O   0  0  0  0  0  0  0  0  0  0  0  0
  156.2952  133.1404  165.3748 O   0  0  0  0  0  0  0  0  0  0  0  0
  154.9430  133.4587  165.0947 C   0  0  1  0  0  0  0  0  0  0  0  0
  153.3280  141.3777  160.5501 C   0  0  0  0  0  0  0  0  0  0  0  0
  153.2737  141.7085  161.9207 C   0  0  0  0  0  0  0  0  0  0  0  0
  152.8347  142.9855  162.3221 C   0  0  0  0  0  0  0  0  0  0  0  0
  152.4471  143.9337  161.3554 C   0  0  0  0  0  0  0  0  0  0  0  0
  152.4974  143.6049  159.9868 C   0  0  0  0  0  0  0  0  0  0  0  0
  152.9364  142.3285  159.5840 C   0  0  0  0  0  0  0  0  0  0  0  0
  154.1923  135.3230  158.6935 H   0  0  0  0  0  0  0  0  0  0  0  0
  154.5898  135.9752  165.1202 H   0  0  0  0  0  0  0  0  0  0  0  0
  155.5556  133.2701  162.9813 H   0  0  0  0  0  0  0  0  0  0  0  0
  152.2099  133.0620  164.7654 H   0  0  0  0  0  0  0  0  0  0  0  0
  151.4719  131.1702  163.3135 H   0  0  0  0  0  0  0  0  0  0  0  0
  152.9731  130.3157  163.6593 H   0  0  0  0  0  0  0  0  0  0  0  0
  152.6827  127.0314  167.0846 H   0  0  0  0  0  0  0  0  0  0  0  0
  151.1805  125.8321  168.6321 H   0  0  0  0  0  0  0  0  0  0  0  0
  148.9647  126.7928  169.2284 H   0  0  0  0  0  0  0  0  0  0  0  0
  148.2575  128.9726  168.2619 H   0  0  0  0  0  0  0  0  0  0  0  0
  149.7332  130.1900  166.7179 H   0  0  0  0  0  0  0  0  0  0  0  0
  153.7097  132.2422  166.4409 H   0  0  0  0  0  0  0  0  0  0  0  0
  154.6094  134.3408  165.6418 H   0  0  0  0  0  0  0  0  0  0  0  0
  153.5667  140.9854  162.6681 H   0  0  0  0  0  0  0  0  0  0  0  0
  152.7932  143.2366  163.3716 H   0  0  0  0  0  0  0  0  0  0  0  0
  152.1092  144.9121  161.6636 H   0  0  0  0  0  0  0  0  0  0  0  0
  152.1975  144.3312  159.2459 H   0  0  0  0  0  0  0  0  0  0  0  0
  152.9696  142.0824  158.5325 H   0  0  0  0  0  0  0  0  0  0  0  0
  153.9708  137.6117  158.9201 H   0  0  0  0  0  0  0  0  0  0  0  0
  1  2  2  0  0  0  0
  2  3  1  0  0  0  0
  2 33  1  0  0  0  0
  3  4  2  0  0  0  0
  4  9  1  0  0  0  0
  4  5  1  0  0  0  0
  5  6  1  0  0  0  0
  5 57  1  0  0  0  0
  6  7  2  0  0  0  0
  6 39  1  0  0  0  0
  7  8  1  0  0  0  0
  8 12  1  0  0  0  0
  8  9  2  0  0  0  0
  9 10  1  0  0  0  0
 10 11  2  0  0  0  0
 11 12  1  0  0  0  0
 11 40  1  0  0  0  0
 12 13  1  0  0  0  0
 13 32  1  0  0  0  0
 13 14  1  0  0  0  0
 13 41  1  0  0  0  0
 14 15  1  0  0  0  0
 15 16  1  0  0  0  0
 15 26  1  0  0  0  0
 15 42  1  0  0  0  0
 16 17  1  0  0  0  0
 16 43  1  0  0  0  0
 16 44  1  0  0  0  0
 17 18  1  0  0  0  0
 18 19  2  0  0  0  0
 18 20  1  0  0  0  0
 20 25  1  0  0  0  0
 20 21  2  0  0  0  0
 21 22  1  0  0  0  0
 21 45  1  0  0  0  0
 22 23  2  0  0  0  0
 22 46  1  0  0  0  0
 23 24  1  0  0  0  0
 23 47  1  0  0  0  0
 24 25  2  0  0  0  0
 24 48  1  0  0  0  0
 25 49  1  0  0  0  0
 26 32  1  0  0  0  0
 26 27  1  0  0  0  0
 26 50  1  0  0  0  0
 27 28  1  0  0  0  0
 28 29  2  0  0  0  0
 28 30  2  0  0  0  0
 28 31  1  0  0  0  0
 31 32  1  0  0  0  0
 32 51  1  0  0  0  0
 33 38  1  0  0  0  0
 33 34  2  0  0  0  0
 34 35  1  0  0  0  0
 34 52  1  0  0  0  0
 35 36  2  0  0  0  0
 35 53  1  0  0  0  0
 36 37  1  0  0  0  0
 36 54  1  0  0  0  0
 37 38  2  0  0  0  0
 37 55  1  0  0  0  0
 38 56  1  0  0  0  0
M  END
> <s_m_source_file>
AV-unprocessed.smi

> <i_m_source_file_index>
1

> <i_lp_mmshare_version>
43012

> <i_f3d_flags>
0

> <s_epik_input>
W2NIXTFbY0hdW2NIXVtjSF1bY0hdYzFDKD1PKVtOSF1jKG5bY0hdbjIpYyhjMjMpbltjSF1uM1tDQEBIXShbQ0BIXShbQ0BIXTQ1KU9TKE81KSg9Tyk9TylPW0NASF00W0NIMl1PQyg9TyljNltjSF1bY0hdW2NIXVtjSF1bY0hdNg==

> <s_epik_cmdline>
J2VwaWtfcHl0aG9uJywgJy1waCcsICc3LjAnLCAnLXRuJywgJzgnLCAnLW1hJywgJzIwMCcsICctbWV0YWxfYmluZGluZycsICctaW1hZScsICc8aW5maWxlLm1hZT4nLCAnLW9tYWUnLCAnPG91dGZpbGUubWFlPic=

> <r_epik_Ionization_Penalty>
0.122545

> <r_epik_Ionization_Penalty_Charging>
0.122545

> <r_epik_Ionization_Penalty_Neutral>
7.8935e-16

> <r_epik_State_Penalty>
2.69178

> <r_epik_Charging_Adjusted_Penalty>
2.81433

> <i_epik_Tot_Q>
0

> <i_epik_Tot_abs_Q>
0

> <r_epik_Metal_State_Penalty>
3.02665

> <b_epik_Metal_Only>
0

> <s_epik_Chemistry_Notes>
This compound has an ester and may undergo hydrolysis at high or low pH. This compound contains an acetal/aminal-like group ( X-CH(R)-Y where X, Y are N, S, or O) that may be acid/base labile, releasing an aldehyde.

> <s_lp_Force_Field>
OPLS_2005

> <r_lp_Energy>
62.4827

> <b_lp_Chiralities_Consistent>
1

> <s_lp_Variant>
AV-unprocessed.smi:1-13

> <Gold.Version>
5.8.1

> <Gold.Id.Protein>
6NUR|6NUR_protein|mol2

> <Gold.PLP.Fitness>
68.3678

> <Gold.PLP.PLP>
-66.7327

> <Gold.PLP.part.hbond>
-1.0000

> <Gold.PLP.part.metal>
0.0000

> <Gold.PLP.part.buried>
-7.0831

> <Gold.PLP.part.nonpolar>
-58.0038

> <Gold.PLP.part.repulsive>
0.2412

> <Gold.PLP.ligand.clash>
0.0000

> <Gold.PLP.ligand.torsion>
0.7504

> <Gold.PLP.Chemscore.Hbond>
1.0000

> <Gold.PLP.Chemscore.CHOScore>
0.0000

> <Gold.PLP.Chemscore.Metal>
0.0000

> <Gold.Chemscore.Hbonds>
donor molecule, donor type, donor heavy atom, donor atom, acceptor molecule, acceptor atom, score
      P1  H  7997  8009       L1     1  1.00

> <Gold.PLP.Chemscore.Internal.Correction>
0.1359

> <Gold.Rescore>
     Score         DG    S(hbond)    S(metal)    S(lipo)     H(rot)  DE(clash)    DE(int)     intcor
     19.65     -21.67       1.00        0.00     156.54       2.13       0.20       1.82       ----

> <Gold.Chemscore.Fitness>
19.6499

> <Gold.Chemscore.DG>
-21.6682

> <Gold.Chemscore.ZeroCoef>
-5.4800

> <Gold.Chemscore.Hbond>
0.9983

> <Gold.Chemscore.Metal>
0.0000

> <Gold.Chemscore.Lipo>
156.5415

> <Gold.Chemscore.Internal_Hbond>
0.0000

> <Gold.Chemscore.DEClash>
0.1980

> <Gold.Chemscore.DEInternal>
1.8202

> <Gold.Chemscore.Rot>
2.1333

> <Gold.Chemscore.Internal.Correction>
   9.000000E+99

> <Gold.Chemscore.Hbonds>
donor molecule, donor type, donor heavy atom, donor atom, acceptor molecule, acceptor atom, score
      P1  H  7997  8009       L1     1  0.98

> <Gold.Chemscore.Hbond.Weighted>
-3.3342

> <Gold.Chemscore.Metal.Weighted>
-0.0000

> <Gold.Chemscore.Lipo.Weighted>
-18.3154

> <Gold.Chemscore.Internal_Hbond.Weighted>
0.0000

> <Gold.Chemscore.DEClash.Weighted>
0.1980

> <Gold.Chemscore.DEInternal.Weighted>
1.8202

> <Gold.Chemscore.Rot.Weighted>
5.4614

> <Gold.Chemscore.Internal.Correction.Weighted>
   9.000000E+99

> <Gold.Protein.RotatedTorsions>
[ 6907 6896 6895 6894 ] final  -99.03 input  -60.11 | X-H torsion
[ 7974 7965 7964 7962 ] final  145.33 input  175.53 | X-H torsion
[ 8008 7997 7996 7995 ] final  128.85 input   59.86 | X-H torsion
[ 10167 10162 10161 10158 ] final   26.91 input  -65.29 | X-H torsion
[ 10718 10713 10712 10709 ] final  102.54 input   66.30 | X-H torsion
[ 10763 10752 10751 10750 ] final  136.75 input  -60.55 | X-H torsion
[ 11005 11000 10999 10996 ] final  -25.30 input  -57.11 | X-H torsion

> <Gold.Protein.ActiveResidues>
 VAL166  LYS551  ARG553  GLY616  TRP617  ASP618  TYR619  PRO620  LYS621  CYS622 
 ASP623  PHE694  ASN695  SER759  ASP760  ASP761  ALA762  ILE779  LEU786  VAL792 
 PHE793  MET794  SER795  GLU796  ALA797  LYS798  CYS799  TRP800  GLU811  SER814 

> <Gold.Protein.RotatedAtoms>
  150.7066  134.1103  159.3997 H   0  0  0  0  0  0  0  0  0  0  0  0  # atno 6907 bound_to 6896
  151.9090  135.0344  160.0522 H   0  0  0  0  0  0  0  0  0  0  0  0  # atno 6908 bound_to 6896
  152.2351  133.5054  159.5275 H   0  0  0  0  0  0  0  0  0  0  0  0  # atno 6909 bound_to 6896
  144.8761  139.5770  143.5864 H   0  0  0  0  0  0  0  0  0  0  0  0  # atno 7974 bound_to 7965
  156.2924  140.2634  156.2503 H   0  0  0  0  0  0  0  0  0  0  0  0  # atno 8008 bound_to 7997
  154.9889  140.0389  157.2329 H   0  0  0  0  0  0  0  0  0  0  0  0  # atno 8009 bound_to 7997
  154.7704  140.2777  155.6147 H   0  0  0  0  0  0  0  0  0  0  0  0  # atno 8010 bound_to 7997
  140.4983  144.0357  150.6323 H   0  0  0  0  0  0  0  0  0  0  0  0  # atno 10167 bound_to 10162
  157.6799  131.0755  150.5419 H   0  0  0  0  0  0  0  0  0  0  0  0  # atno 10718 bound_to 10713
  153.8617  135.3066  155.3438 H   0  0  0  0  0  0  0  0  0  0  0  0  # atno 10763 bound_to 10752
  154.7846  135.4817  153.9921 H   0  0  0  0  0  0  0  0  0  0  0  0  # atno 10764 bound_to 10752
  153.1458  135.6833  153.9052 H   0  0  0  0  0  0  0  0  0  0  0  0  # atno 10765 bound_to 10752
  140.8925  133.7579  156.0439 H   0  0  0  0  0  0  0  0  0  0  0  0  # atno 11005 bound_to 11000
  146.2963  139.7290  142.9124 LP  0  0  0  0  0  0  0  0  0  0  0  0  # atno 17320 bound_to 7965
  145.4040  141.0388  143.3054 LP  0  0  0  0  0  0  0  0  0  0  0  0  # atno 17321 bound_to 7965
  140.3645  143.2889  152.0347 LP  0  0  0  0  0  0  0  0  0  0  0  0  # atno 17342 bound_to 10162
  139.4866  144.6277  151.7131 LP  0  0  0  0  0  0  0  0  0  0  0  0  # atno 17343 bound_to 10162
  156.5726  130.4284  149.6012 LP  0  0  0  0  0  0  0  0  0  0  0  0  # atno 17370 bound_to 10713
  156.2728  130.7026  151.1829 LP  0  0  0  0  0  0  0  0  0  0  0  0  # atno 17371 bound_to 10713
  140.8330  134.3156  157.5342 LP  0  0  0  0  0  0  0  0  0  0  0  0  # atno 17394 bound_to 11000
  139.8731  134.9374  156.3685 LP  0  0  0  0  0  0  0  0  0  0  0  0  # atno 17395 bound_to 11000

$$$$
