AV-unprocessed.smi:2226|AV-procd|sdf|9019|dock10
  -GOLD-   2272012223D 1   1.00000     0.00000
 Structure written by MMmdl.
 39 41  0  0  0  0  0  0  0  0  3 V2000
  149.0409  141.2461  154.1062 C   0  0  0  0  0  0  0  0  0  0  0  0
  148.9784  140.3425  155.2794 N   0  3  2  0  0  0  0  0  0  0  0  0
  150.1439  140.4251  156.1927 C   0  0  2  0  0  0  0  0  0  0  0  0
  151.4148  139.8226  155.5417 C   0  0  0  0  0  0  0  0  0  0  0  0
  151.2165  138.4015  154.9820 C   0  0  0  0  0  0  0  0  0  0  0  0
  149.8725  138.2424  154.2463 C   0  0  0  0  0  0  0  0  0  0  0  0
  148.6789  138.9256  154.9607 C   0  0  1  0  0  0  0  0  0  0  0  0
  148.2040  138.2161  156.2485 C   0  0  0  0  0  0  0  0  0  0  0  0
  149.1549  138.3798  157.4627 C   0  0  2  0  0  0  0  0  0  0  0  0
  148.4378  138.0899  158.7023 N   0  0  0  0  0  0  0  0  0  0  0  0
  148.5523  136.9760  159.4405 C   0  0  0  0  0  0  0  0  0  0  0  0
  149.3225  136.0801  159.0873 O   0  0  0  0  0  0  0  0  0  0  0  0
  147.7645  136.9709  160.5386 N   0  5  0  0  0  0  0  0  0  0  0  0
  147.3476  135.8040  161.0558 C   0  0  0  0  0  0  0  0  0  0  0  0
  146.6022  135.6466  162.1509 N   0  0  0  0  0  0  0  0  0  0  0  0
  146.4295  134.2790  162.2983 C   0  0  0  0  0  0  0  0  0  0  0  0
  147.0908  133.6595  161.2734 C   0  0  0  0  0  0  0  0  0  0  0  0
  147.6776  134.6107  160.4854 O   0  0  0  0  0  0  0  0  0  0  0  0
  149.7551  139.8036  157.5535 C   0  0  0  0  0  0  0  0  0  0  0  0
  149.8595  140.9941  153.4326 H   0  0  0  0  0  0  0  0  0  0  0  0
  149.1760  142.2786  154.4293 H   0  0  0  0  0  0  0  0  0  0  0  0
  148.1103  141.1979  153.5400 H   0  0  0  0  0  0  0  0  0  0  0  0
  150.3459  141.4804  156.3819 H   0  0  0  0  0  0  0  0  0  0  0  0
  151.7339  140.4724  154.7264 H   0  0  0  0  0  0  0  0  0  0  0  0
  152.2400  139.8270  156.2545 H   0  0  0  0  0  0  0  0  0  0  0  0
  152.0339  138.1615  154.3014 H   0  0  0  0  0  0  0  0  0  0  0  0
  151.3017  137.6658  155.7773 H   0  0  0  0  0  0  0  0  0  0  0  0
  149.9746  138.6669  153.2474 H   0  0  0  0  0  0  0  0  0  0  0  0
  149.6610  137.1840  154.0906 H   0  0  0  0  0  0  0  0  0  0  0  0
  147.8345  138.9093  154.2698 H   0  0  0  0  0  0  0  0  0  0  0  0
  147.2312  138.6346  156.5124 H   0  0  0  0  0  0  0  0  0  0  0  0
  148.0242  137.1589  156.0502 H   0  0  0  0  0  0  0  0  0  0  0  0
  149.9702  137.6641  157.3875 H   0  0  0  0  0  0  0  0  0  0  0  0
  147.7956  138.7947  159.0343 H   0  0  0  0  0  0  0  0  0  0  0  0
  145.8565  133.8599  163.1119 H   0  0  0  0  0  0  0  0  0  0  0  0
  147.2337  132.6298  160.9821 H   0  0  0  0  0  0  0  0  0  0  0  0
  150.6108  139.8058  158.2297 H   0  0  0  0  0  0  0  0  0  0  0  0
  149.0164  140.4634  158.0120 H   0  0  0  0  0  0  0  0  0  0  0  0
  148.1885  140.6722  155.8159 H   0  0  0  0  0  0  0  0  0  0  0  0
  1  2  1  0  0  0  0
  1 20  1  0  0  0  0
  1 21  1  0  0  0  0
  1 22  1  0  0  0  0
  2  7  1  0  0  0  0
  2  3  1  0  0  0  0
  2 39  1  0  0  0  0
  3 19  1  0  0  0  0
  3  4  1  0  0  0  0
  3 23  1  0  0  0  0
  4  5  1  0  0  0  0
  4 24  1  0  0  0  0
  4 25  1  0  0  0  0
  5  6  1  0  0  0  0
  5 26  1  0  0  0  0
  5 27  1  0  0  0  0
  6  7  1  0  0  0  0
  6 28  1  0  0  0  0
  6 29  1  0  0  0  0
  7  8  1  0  0  0  0
  7 30  1  0  0  0  0
  8  9  1  0  0  0  0
  8 31  1  0  0  0  0
  8 32  1  0  0  0  0
  9 10  1  0  0  0  0
  9 19  1  0  0  0  0
  9 33  1  0  0  0  0
 10 34  1  0  0  0  0
 10 11  1  0  0  0  0
 11 13  1  0  0  0  0
 11 12  2  0  0  0  0
 13 14  1  0  0  0  0
 14 18  1  0  0  0  0
 14 15  2  0  0  0  0
 15 16  1  0  0  0  0
 16 35  1  0  0  0  0
 16 17  2  0  0  0  0
 17 36  1  0  0  0  0
 17 18  1  0  0  0  0
 19 37  1  0  0  0  0
 19 38  1  0  0  0  0
M  CHG  1   2   1
M  CHG  1  13  -1
M  END
> <s_m_source_file>
AV-unprocessed.smi

> <i_m_source_file_index>
2226

> <i_lp_mmshare_version>
43012

> <i_f3d_flags>
0

> <s_epik_input>
W0NIMl0xW0NIMl1bQ0gyXVtDQEhdKE4oW0NIM10pW0NIXTEyKVtDSDJdW0NASF0oW0NIMl0yKVtOSF1DKD1PKVtOSF1jM25bY0hdW2NIXW8z

> <s_epik_cmdline>
J2VwaWtfcHl0aG9uJywgJy1waCcsICc3LjAnLCAnLXRuJywgJzgnLCAnLW1hJywgJzIwMCcsICctbWV0YWxfYmluZGluZycsICctaW1hZScsICc8aW5maWxlLm1hZT4nLCAnLW9tYWUnLCAnPG91dGZpbGUubWFlPic=

> <r_lp_tautomer_probability>
0.107061

> <r_epik_Ionization_Penalty>
10.5612

> <r_epik_Ionization_Penalty_Charging>
7.48913

> <r_epik_Ionization_Penalty_Neutral>
3.07202

> <r_epik_State_Penalty>
5.6431

> <r_epik_Charging_Adjusted_Penalty>
13.1322

> <i_epik_Tot_Q>
0

> <i_epik_Tot_abs_Q>
2

> <r_epik_Metal_State_Penalty>
1.58163

> <b_epik_Metal_Only>
1

> <s_lp_Force_Field>
OPLS_2005

> <r_lp_Energy>
24.9808

> <b_lp_Chiralities_Consistent>
1

> <s_lp_Variant>
AV-unprocessed.smi:2226-19

> <Gold.Version>
5.8.1

> <Gold.Id.Protein>
6NUR|6NUR_protein|mol2

> <Gold.PLP.Fitness>
40.0306

> <Gold.PLP.PLP>
-27.7626

> <Gold.PLP.part.hbond>
-3.0000

> <Gold.PLP.part.metal>
0.0000

> <Gold.PLP.part.buried>
-1.5740

> <Gold.PLP.part.nonpolar>
-24.3850

> <Gold.PLP.part.repulsive>
0.9384

> <Gold.PLP.ligand.clash>
0.0000

> <Gold.PLP.ligand.torsion>
0.3136

> <Gold.PLP.Chemscore.Hbond>
4.2960

> <Gold.PLP.Chemscore.CHOScore>
0.0000

> <Gold.PLP.Chemscore.Metal>
0.0000

> <Gold.Chemscore.Hbonds>
donor molecule, donor type, donor heavy atom, donor atom, acceptor molecule, acceptor atom, score
      P1  H  6896  6909       L1    12  1.00
      P1  H  6931  6943       L1    13  0.71
      P1  H  6934  6947       L1    13  1.22

> <Gold.PLP.Chemscore.Internal.Correction>
0.0070

> <Gold.Rescore>
     Score         DG    S(hbond)    S(metal)    S(lipo)     H(rot)  DE(clash)    DE(int)     intcor
     14.70     -16.84       2.01        0.00      61.55       1.00       0.27       1.87       ----

> <Gold.Chemscore.Fitness>
14.6963

> <Gold.Chemscore.DG>
-16.8386

> <Gold.Chemscore.ZeroCoef>
-5.4800

> <Gold.Chemscore.Hbond>
2.0113

> <Gold.Chemscore.Metal>
0.0000

> <Gold.Chemscore.Lipo>
61.5465

> <Gold.Chemscore.Internal_Hbond>
0.0000

> <Gold.Chemscore.DEClash>
0.2708

> <Gold.Chemscore.DEInternal>
1.8715

> <Gold.Chemscore.Rot>
1.0000

> <Gold.Chemscore.Internal.Correction>
   9.000000E+99

> <Gold.Chemscore.Hbonds>
donor molecule, donor type, donor heavy atom, donor atom, acceptor molecule, acceptor atom, score
      P1  H  6896  6909       L1    12  0.93
      P1  H  6931  6943       L1    13  0.07
      P1  H  6934  6947       L1    13  0.36

> <Gold.Chemscore.Hbond.Weighted>
-6.7177

> <Gold.Chemscore.Metal.Weighted>
-0.0000

> <Gold.Chemscore.Lipo.Weighted>
-7.2009

> <Gold.Chemscore.Internal_Hbond.Weighted>
0.0000

> <Gold.Chemscore.DEClash.Weighted>
0.2708

> <Gold.Chemscore.DEInternal.Weighted>
1.8715

> <Gold.Chemscore.Rot.Weighted>
2.5600

> <Gold.Chemscore.Internal.Correction.Weighted>
   9.000000E+99

> <Gold.Protein.RotatedTorsions>
[ 6907 6896 6895 6894 ] final   62.19 input  -60.11 | X-H torsion
[ 7974 7965 7964 7962 ] final  151.05 input  175.53 | X-H torsion
[ 8008 7997 7996 7995 ] final   10.83 input   59.86 | X-H torsion
[ 10167 10162 10161 10158 ] final  136.60 input  -65.29 | X-H torsion
[ 10718 10713 10712 10709 ] final  144.57 input   66.30 | X-H torsion
[ 10763 10752 10751 10750 ] final  107.59 input  -60.55 | X-H torsion
[ 11005 11000 10999 10996 ] final -129.71 input  -57.11 | X-H torsion

> <Gold.Protein.ActiveResidues>
 VAL166  LYS551  ARG553  GLY616  TRP617  ASP618  TYR619  PRO620  LYS621  CYS622 
 ASP623  PHE694  ASN695  SER759  ASP760  ASP761  ALA762  ILE779  LEU786  VAL792 
 PHE793  MET794  SER795  GLU796  ALA797  LYS798  CYS799  TRP800  GLU811  SER814 

> <Gold.Protein.RotatedAtoms>
  152.4151  134.6055  160.0011 H   0  0  0  0  0  0  0  0  0  0  0  0  # atno 6907 bound_to 6896
  151.6221  133.3332  159.3098 H   0  0  0  0  0  0  0  0  0  0  0  0  # atno 6908 bound_to 6896
  150.8040  134.7192  159.6693 H   0  0  0  0  0  0  0  0  0  0  0  0  # atno 6909 bound_to 6896
  144.8320  139.6488  143.6055 H   0  0  0  0  0  0  0  0  0  0  0  0  # atno 7974 bound_to 7965
  154.7986  140.2848  155.5938 H   0  0  0  0  0  0  0  0  0  0  0  0  # atno 8008 bound_to 7997
  156.2974  140.2591  156.2779 H   0  0  0  0  0  0  0  0  0  0  0  0  # atno 8009 bound_to 7997
  154.9584  140.0378  157.2168 H   0  0  0  0  0  0  0  0  0  0  0  0  # atno 8010 bound_to 7997
  139.5174  144.6455  151.5450 H   0  0  0  0  0  0  0  0  0  0  0  0  # atno 10167 bound_to 10162
  157.3556  131.0957  151.0961 H   0  0  0  0  0  0  0  0  0  0  0  0  # atno 10718 bound_to 10713
  153.4089  135.3839  155.2037 H   0  0  0  0  0  0  0  0  0  0  0  0  # atno 10763 bound_to 10752
  154.8736  135.3789  154.4525 H   0  0  0  0  0  0  0  0  0  0  0  0  # atno 10764 bound_to 10752
  153.5031  135.7088  153.5883 H   0  0  0  0  0  0  0  0  0  0  0  0  # atno 10765 bound_to 10752
  140.9408  134.1195  157.4152 H   0  0  0  0  0  0  0  0  0  0  0  0  # atno 11005 bound_to 11000
  146.2622  139.6436  142.9354 LP  0  0  0  0  0  0  0  0  0  0  0  0  # atno 17320 bound_to 7965
  145.4876  141.0438  143.2611 LP  0  0  0  0  0  0  0  0  0  0  0  0  # atno 17321 bound_to 7965
  140.6239  143.9206  150.6548 LP  0  0  0  0  0  0  0  0  0  0  0  0  # atno 17342 bound_to 10162
  140.2489  143.3608  152.1423 LP  0  0  0  0  0  0  0  0  0  0  0  0  # atno 17343 bound_to 10162
  157.2121  130.6442  149.5778 LP  0  0  0  0  0  0  0  0  0  0  0  0  # atno 17370 bound_to 10713
  155.9728  130.4657  150.6262 LP  0  0  0  0  0  0  0  0  0  0  0  0  # atno 17371 bound_to 10713
  139.8820  135.0036  156.6196 LP  0  0  0  0  0  0  0  0  0  0  0  0  # atno 17394 bound_to 11000
  140.7736  133.8718  155.8511 LP  0  0  0  0  0  0  0  0  0  0  0  0  # atno 17395 bound_to 11000

$$$$
