AV-unprocessed.smi:3249|AV-procd|sdf|12419|dock2
  -GOLD-   2272018303D 1   1.00000     0.00000
 Structure written by MMmdl.
 44 45  0  0  0  0  0  0  0  0  2 V2000
  154.5881  140.3657  162.0361 C   0  0  0  0  0  0  0  0  0  0  0  0
  153.7062  141.3428  161.3136 C   0  0  0  0  0  0  0  0  0  0  0  0
  152.9663  142.4268  161.8646 C   0  0  0  0  0  0  0  0  0  0  0  0
  152.2947  143.1072  160.9503 N   0  0  0  0  0  0  0  0  0  0  0  0
  152.5647  142.4754  159.7875 N   0  0  0  0  0  0  0  0  0  0  0  0
  152.0037  142.9869  158.5416 C   0  0  2  0  0  0  0  0  0  0  0  0
  152.5670  144.3916  158.2546 C   0  0  0  0  0  0  0  0  0  0  0  0
  150.4540  142.9347  158.5774 C   0  0  1  0  0  0  0  0  0  0  0  0
  149.8324  144.2016  159.1954 C   0  0  0  0  0  0  0  0  0  0  0  0
  149.9285  142.7344  157.2060 N   0  3  0  0  0  0  0  0  0  0  0  0
  150.7844  141.9310  156.3081 C   0  0  0  0  0  0  0  0  0  0  0  0
  150.0631  140.6567  155.8435 C   0  0  2  0  0  0  0  0  0  0  0  0
  149.8820  139.6271  156.9784 C   0  0  0  0  0  0  0  0  0  0  0  0
  149.2485  138.3387  156.4411 C   0  0  0  0  0  0  0  0  0  0  0  0
  150.0594  137.8222  155.2482 C   0  0  0  0  0  0  0  0  0  0  0  0
  150.2409  138.9347  154.2041 C   0  0  0  0  0  0  0  0  0  0  0  0
  150.8494  140.0727  154.8078 O   0  0  0  0  0  0  0  0  0  0  0  0
  153.4247  141.4122  159.9789 C   0  0  0  0  0  0  0  0  0  0  0  0
  154.4546  140.4210  163.1167 H   0  0  0  0  0  0  0  0  0  0  0  0
  155.6428  140.5508  161.8327 H   0  0  0  0  0  0  0  0  0  0  0  0
  154.3785  139.3378  161.7397 H   0  0  0  0  0  0  0  0  0  0  0  0
  152.9031  142.7414  162.8960 H   0  0  0  0  0  0  0  0  0  0  0  0
  152.3468  142.3349  157.7356 H   0  0  0  0  0  0  0  0  0  0  0  0
  152.3145  144.7295  157.2499 H   0  0  0  0  0  0  0  0  0  0  0  0
  153.6554  144.3967  158.3247 H   0  0  0  0  0  0  0  0  0  0  0  0
  152.1854  145.1298  158.9607 H   0  0  0  0  0  0  0  0  0  0  0  0
  150.1622  142.0750  159.1833 H   0  0  0  0  0  0  0  0  0  0  0  0
  150.1294  144.3292  160.2358 H   0  0  0  0  0  0  0  0  0  0  0  0
  148.7435  144.1609  159.1882 H   0  0  0  0  0  0  0  0  0  0  0  0
  150.1333  145.0967  158.6501 H   0  0  0  0  0  0  0  0  0  0  0  0
  149.0108  142.3165  157.2634 H   0  0  0  0  0  0  0  0  0  0  0  0
  151.0349  142.5383  155.4372 H   0  0  0  0  0  0  0  0  0  0  0  0
  151.7234  141.6754  156.7991 H   0  0  0  0  0  0  0  0  0  0  0  0
  149.0909  140.9311  155.4295 H   0  0  0  0  0  0  0  0  0  0  0  0
  150.8503  139.3968  157.4249 H   0  0  0  0  0  0  0  0  0  0  0  0
  149.2606  140.0379  157.7747 H   0  0  0  0  0  0  0  0  0  0  0  0
  149.1995  137.5821  157.2248 H   0  0  0  0  0  0  0  0  0  0  0  0
  148.2218  138.5354  156.1300 H   0  0  0  0  0  0  0  0  0  0  0  0
  151.0377  137.4811  155.5890 H   0  0  0  0  0  0  0  0  0  0  0  0
  149.5654  136.9598  154.8000 H   0  0  0  0  0  0  0  0  0  0  0  0
  150.8779  138.5850  153.3916 H   0  0  0  0  0  0  0  0  0  0  0  0
  149.2836  139.2124  153.7603 H   0  0  0  0  0  0  0  0  0  0  0  0
  153.7655  140.7992  159.1574 H   0  0  0  0  0  0  0  0  0  0  0  0
  149.8342  143.6488  156.7860 H   0  0  0  0  0  0  0  0  0  0  0  0
  1  2  1  0  0  0  0
  1 19  1  0  0  0  0
  1 20  1  0  0  0  0
  1 21  1  0  0  0  0
  2 18  2  0  0  0  0
  2  3  1  0  0  0  0
  3  4  2  0  0  0  0
  3 22  1  0  0  0  0
  4  5  1  0  0  0  0
  5  6  1  0  0  0  0
  5 18  1  0  0  0  0
  6  7  1  0  0  0  0
  6  8  1  0  0  0  0
  6 23  1  0  0  0  0
  7 24  1  0  0  0  0
  7 25  1  0  0  0  0
  7 26  1  0  0  0  0
  8  9  1  0  0  0  0
  8 10  1  0  0  0  0
  8 27  1  0  0  0  0
  9 28  1  0  0  0  0
  9 29  1  0  0  0  0
  9 30  1  0  0  0  0
 10 11  1  0  0  0  0
 10 31  1  0  0  0  0
 10 44  1  0  0  0  0
 11 12  1  0  0  0  0
 11 32  1  0  0  0  0
 11 33  1  0  0  0  0
 12 17  1  0  0  0  0
 12 13  1  0  0  0  0
 12 34  1  0  0  0  0
 13 14  1  0  0  0  0
 13 35  1  0  0  0  0
 13 36  1  0  0  0  0
 14 15  1  0  0  0  0
 14 37  1  0  0  0  0
 14 38  1  0  0  0  0
 15 16  1  0  0  0  0
 15 39  1  0  0  0  0
 15 40  1  0  0  0  0
 16 17  1  0  0  0  0
 16 41  1  0  0  0  0
 16 42  1  0  0  0  0
 18 43  1  0  0  0  0
M  CHG  1  10   1
M  END
> <s_m_source_file>
AV-unprocessed.smi

> <i_m_source_file_index>
3249

> <i_lp_mmshare_version>
43012

> <i_f3d_flags>
0

> <s_epik_input>
W0NIM11jMVtjSF1ubihbY0hdMSlbQ0BIXShbQ0gzXSlbQ0BIXShbQ0gzXSlbTkhdW0NIMl1bQ0BASF0yW0NIMl1bQ0gyXVtDSDJdW0NIMl1PMg==

> <s_epik_cmdline>
J2VwaWtfcHl0aG9uJywgJy1waCcsICc3LjAnLCAnLXRuJywgJzgnLCAnLW1hJywgJzIwMCcsICctbWV0YWxfYmluZGluZycsICctaW1hZScsICc8aW5maWxlLm1hZT4nLCAnLW9tYWUnLCAnPG91dGZpbGUubWFlPic=

> <r_lp_tautomer_probability>
1

> <r_epik_Ionization_Penalty>
0.00659207

> <r_epik_Ionization_Penalty_Charging>
0.00656881

> <r_epik_Ionization_Penalty_Neutral>
2.32662e-05

> <r_epik_State_Penalty>
0.0048654

> <r_epik_Charging_Adjusted_Penalty>
0.0114342

> <i_epik_Tot_Q>
1

> <i_epik_Tot_abs_Q>
1

> <r_epik_Metal_State_Penalty>
-0

> <b_epik_Metal_Only>
0

> <s_lp_Force_Field>
OPLS_2005

> <r_lp_Energy>
18.0919

> <b_lp_Chiralities_Consistent>
1

> <s_lp_Variant>
AV-unprocessed.smi:3249-3

> <Gold.Version>
5.8.1

> <Gold.Id.Protein>
6NUR|6NUR_protein|mol2

> <Gold.PLP.Fitness>
49.1088

> <Gold.PLP.PLP>
-42.6444

> <Gold.PLP.part.hbond>
-2.0000

> <Gold.PLP.part.metal>
0.0000

> <Gold.PLP.part.buried>
-4.8150

> <Gold.PLP.part.nonpolar>
-36.6216

> <Gold.PLP.part.repulsive>
0.1587

> <Gold.PLP.ligand.clash>
0.0000

> <Gold.PLP.ligand.torsion>
1.3904

> <Gold.PLP.Chemscore.Hbond>
3.0000

> <Gold.PLP.Chemscore.CHOScore>
0.0000

> <Gold.PLP.Chemscore.Metal>
0.0000

> <Gold.Chemscore.Hbonds>
donor molecule, donor type, donor heavy atom, donor atom, acceptor molecule, acceptor atom, score
      L1  H    10    44       P1  8028  1.92
      P1  H  7989  7998       L1    17  1.00

> <Gold.PLP.Chemscore.Internal.Correction>
0.2453

> <Gold.Rescore>
     Score         DG    S(hbond)    S(metal)    S(lipo)     H(rot)  DE(clash)    DE(int)     intcor
     19.38     -21.17       1.90        0.00     113.40       1.53       0.03       1.76       ----

> <Gold.Chemscore.Fitness>
19.3845

> <Gold.Chemscore.DG>
-21.1675

> <Gold.Chemscore.ZeroCoef>
-5.4800

> <Gold.Chemscore.Hbond>
1.8997

> <Gold.Chemscore.Metal>
0.0000

> <Gold.Chemscore.Lipo>
113.3991

> <Gold.Chemscore.Internal_Hbond>
0.0000

> <Gold.Chemscore.DEClash>
0.0279

> <Gold.Chemscore.DEInternal>
1.7551

> <Gold.Chemscore.Rot>
1.5333

> <Gold.Chemscore.Internal.Correction>
   9.000000E+99

> <Gold.Chemscore.Hbonds>
donor molecule, donor type, donor heavy atom, donor atom, acceptor molecule, acceptor atom, score
      L1  H    10    44       P1  8028  0.92
      P1  H  7989  7998       L1    17  0.45

> <Gold.Chemscore.Hbond.Weighted>
-6.3450

> <Gold.Chemscore.Metal.Weighted>
-0.0000

> <Gold.Chemscore.Lipo.Weighted>
-13.2677

> <Gold.Chemscore.Internal_Hbond.Weighted>
0.0000

> <Gold.Chemscore.DEClash.Weighted>
0.0279

> <Gold.Chemscore.DEInternal.Weighted>
1.7551

> <Gold.Chemscore.Rot.Weighted>
3.9252

> <Gold.Chemscore.Internal.Correction.Weighted>
   9.000000E+99

> <Gold.Protein.RotatedTorsions>
[ 6907 6896 6895 6894 ] final  -54.49 input  -60.11 | X-H torsion
[ 7974 7965 7964 7962 ] final  -99.73 input  175.53 | X-H torsion
[ 8008 7997 7996 7995 ] final  144.75 input   59.86 | X-H torsion
[ 10167 10162 10161 10158 ] final   42.69 input  -65.29 | X-H torsion
[ 10718 10713 10712 10709 ] final  101.47 input   66.30 | X-H torsion
[ 10763 10752 10751 10750 ] final -111.64 input  -60.55 | X-H torsion
[ 11005 11000 10999 10996 ] final  -63.77 input  -57.11 | X-H torsion

> <Gold.Protein.ActiveResidues>
 VAL166  LYS551  ARG553  GLY616  TRP617  ASP618  TYR619  PRO620  LYS621  CYS622 
 ASP623  PHE694  ASN695  SER759  ASP760  ASP761  ALA762  ILE779  LEU786  VAL792 
 PHE793  MET794  SER795  GLU796  ALA797  LYS798  CYS799  TRP800  GLU811  SER814 

> <Gold.Protein.RotatedAtoms>
  150.8334  134.7597  159.6872 H   0  0  0  0  0  0  0  0  0  0  0  0  # atno 6907 bound_to 6896
  152.4435  134.5540  159.9885 H   0  0  0  0  0  0  0  0  0  0  0  0  # atno 6908 bound_to 6896
  151.5696  133.3354  159.3023 H   0  0  0  0  0  0  0  0  0  0  0  0  # atno 6909 bound_to 6896
  145.3037  140.9383  143.2809 H   0  0  0  0  0  0  0  0  0  0  0  0  # atno 7974 bound_to 7965
  156.2900  140.2227  156.5104 H   0  0  0  0  0  0  0  0  0  0  0  0  # atno 8008 bound_to 7997
  154.7614  140.0473  157.0998 H   0  0  0  0  0  0  0  0  0  0  0  0  # atno 8009 bound_to 7997
  154.9987  140.3099  155.4879 H   0  0  0  0  0  0  0  0  0  0  0  0  # atno 8010 bound_to 7997
  140.3519  144.2339  150.6145 H   0  0  0  0  0  0  0  0  0  0  0  0  # atno 10167 bound_to 10162
  157.6828  131.0727  150.5258 H   0  0  0  0  0  0  0  0  0  0  0  0  # atno 10718 bound_to 10713
  154.8310  135.4520  154.1070 H   0  0  0  0  0  0  0  0  0  0  0  0  # atno 10763 bound_to 10752
  153.2343  135.6909  153.7861 H   0  0  0  0  0  0  0  0  0  0  0  0  # atno 10764 bound_to 10752
  153.7232  135.3338  155.3247 H   0  0  0  0  0  0  0  0  0  0  0  0  # atno 10765 bound_to 10752
  141.1404  133.6656  156.5731 H   0  0  0  0  0  0  0  0  0  0  0  0  # atno 11005 bound_to 11000
  144.9072  139.4574  143.6604 LP  0  0  0  0  0  0  0  0  0  0  0  0  # atno 17320 bound_to 7965
  146.3143  139.7860  142.8996 LP  0  0  0  0  0  0  0  0  0  0  0  0  # atno 17321 bound_to 7965
  140.5211  143.2265  151.8387 LP  0  0  0  0  0  0  0  0  0  0  0  0  # atno 17342 bound_to 10162
  139.4825  144.4836  151.9276 LP  0  0  0  0  0  0  0  0  0  0  0  0  # atno 17343 bound_to 10162
  156.5569  130.4246  149.6081 LP  0  0  0  0  0  0  0  0  0  0  0  0  # atno 17370 bound_to 10713
  156.2854  130.7094  151.1929 LP  0  0  0  0  0  0  0  0  0  0  0  0  # atno 17371 bound_to 10713
  140.3897  134.7451  157.4714 LP  0  0  0  0  0  0  0  0  0  0  0  0  # atno 17394 bound_to 11000
  140.0575  134.6042  155.8787 LP  0  0  0  0  0  0  0  0  0  0  0  0  # atno 17395 bound_to 11000

$$$$
