AV-unprocessed.smi:193|AV-procd|sdf|1496|dock4
  -GOLD-   2262019323D 1   1.00000     0.00000
 Structure written by MMmdl.
 62 66  0  0  0  0  0  0  0  0  2 V2000
  146.4440  128.5922  152.9437 C   0  0  0  0  0  0  0  0  0  0  0  0
  147.1271  129.9668  152.8599 C   0  0  2  0  0  0  0  0  0  0  0  0
  147.6048  130.3852  154.2655 C   0  0  0  0  0  0  0  0  0  0  0  0
  148.6564  131.4007  154.2702 N   0  0  0  0  0  0  0  0  0  0  0  0
  149.0597  131.8253  155.4871 C   0  0  0  0  0  0  0  0  0  0  0  0
  150.3311  132.2833  155.5979 N   0  0  0  0  0  0  0  0  0  0  0  0
  150.7845  132.7148  156.7791 C   0  0  0  0  0  0  0  0  0  0  0  0
  150.1412  132.7798  157.9468 N   0  0  0  0  0  0  0  0  0  0  0  0
  148.8558  132.3381  157.8318 C   0  0  0  0  0  0  0  0  0  0  0  0
  148.2365  131.8488  156.6476 C   0  0  0  0  0  0  0  0  0  0  0  0
  146.9154  131.5067  156.9103 N   0  0  0  0  0  0  0  0  0  0  0  0
  146.7660  131.7674  158.1805 C   0  0  0  0  0  0  0  0  0  0  0  0
  147.8801  132.2737  158.8110 N   0  0  0  0  0  0  0  0  0  0  0  0
  147.9917  132.6479  160.2124 C   0  0  0  0  0  0  0  0  0  0  0  0
  147.5097  134.0872  160.5203 C   0  0  0  0  0  0  0  0  0  0  0  0
  146.1584  134.1877  160.1039 O   0  0  0  0  0  0  0  0  0  0  0  0
  147.5740  134.3602  162.0365 C   0  0  0  0  0  0  0  0  0  0  0  0
  147.2683  135.8297  162.3759 C   0  0  0  0  0  0  0  0  0  0  0  0
  148.1477  136.6873  161.6590 O   0  0  0  0  0  0  0  0  0  0  0  0
  147.9871  136.5862  160.2493 C   0  0  0  0  0  0  0  0  0  0  0  0
  148.3322  135.1627  159.7770 C   0  0  0  0  0  0  0  0  0  0  0  0
  148.8083  132.3800  153.1985 C   0  0  0  0  0  0  0  0  0  0  0  0
  147.4815  133.0269  152.7799 C   0  0  0  0  0  0  0  0  0  0  0  0
  146.7980  132.2239  151.7377 N   0  3  2  0  0  0  0  0  0  0  0  0
  145.8516  133.0481  150.9524 C   0  0  2  0  0  0  0  0  0  0  0  0
  144.4319  133.0005  151.4686 C   0  0  0  0  0  0  0  0  0  0  0  0
  144.8062  132.2403  150.2145 C   0  0  1  0  0  0  0  0  0  0  0  0
  144.2926  132.6939  148.8658 C   0  0  0  0  0  0  0  0  0  0  0  0
  146.1434  130.9985  152.2606 C   0  0  0  0  0  0  0  0  0  0  0  0
  145.5661  128.6237  153.5900 H   0  0  0  0  0  0  0  0  0  0  0  0
  147.1228  127.8373  153.3419 H   0  0  0  0  0  0  0  0  0  0  0  0
  146.1214  128.2492  151.9601 H   0  0  0  0  0  0  0  0  0  0  0  0
  147.9861  129.8495  152.1977 H   0  0  0  0  0  0  0  0  0  0  0  0
  146.7494  130.7035  154.8601 H   0  0  0  0  0  0  0  0  0  0  0  0
  148.0171  129.5136  154.7762 H   0  0  0  0  0  0  0  0  0  0  0  0
  151.8085  133.0580  156.7908 H   0  0  0  0  0  0  0  0  0  0  0  0
  145.8312  131.6018  158.6967 H   0  0  0  0  0  0  0  0  0  0  0  0
  147.4262  131.9255  160.8028 H   0  0  0  0  0  0  0  0  0  0  0  0
  149.0344  132.5314  160.5108 H   0  0  0  0  0  0  0  0  0  0  0  0
  145.6150  134.2809  160.8715 H   0  0  0  0  0  0  0  0  0  0  0  0
  146.8904  133.7014  162.5740 H   0  0  0  0  0  0  0  0  0  0  0  0
  148.5743  134.1248  162.4024 H   0  0  0  0  0  0  0  0  0  0  0  0
  146.2310  136.0796  162.1481 H   0  0  0  0  0  0  0  0  0  0  0  0
  147.4056  136.0010  163.4438 H   0  0  0  0  0  0  0  0  0  0  0  0
  146.9688  136.8581  159.9673 H   0  0  0  0  0  0  0  0  0  0  0  0
  148.6488  137.3076  159.7694 H   0  0  0  0  0  0  0  0  0  0  0  0
  149.3941  134.9881  159.9547 H   0  0  0  0  0  0  0  0  0  0  0  0
  148.1862  135.0900  158.6987 H   0  0  0  0  0  0  0  0  0  0  0  0
  149.4872  133.1682  153.5293 H   0  0  0  0  0  0  0  0  0  0  0  0
  149.2983  131.9134  152.3433 H   0  0  0  0  0  0  0  0  0  0  0  0
  146.8269  133.2210  153.6308 H   0  0  0  0  0  0  0  0  0  0  0  0
  147.7195  134.0020  152.3526 H   0  0  0  0  0  0  0  0  0  0  0  0
  146.2514  133.9659  150.5239 H   0  0  0  0  0  0  0  0  0  0  0  0
  144.2263  132.4172  152.3643 H   0  0  0  0  0  0  0  0  0  0  0  0
  143.8281  133.8985  151.3527 H   0  0  0  0  0  0  0  0  0  0  0  0
  144.8622  131.1575  150.3154 H   0  0  0  0  0  0  0  0  0  0  0  0
  144.2548  133.7824  148.8115 H   0  0  0  0  0  0  0  0  0  0  0  0
  143.2895  132.3023  148.6957 H   0  0  0  0  0  0  0  0  0  0  0  0
  144.9477  132.3292  148.0744 H   0  0  0  0  0  0  0  0  0  0  0  0
  145.6177  130.5300  151.4274 H   0  0  0  0  0  0  0  0  0  0  0  0
  145.3753  131.2680  152.9874 H   0  0  0  0  0  0  0  0  0  0  0  0
  147.5110  131.9238  151.0884 H   0  0  0  0  0  0  0  0  0  0  0  0
  1  2  1  0  0  0  0
  1 30  1  0  0  0  0
  1 31  1  0  0  0  0
  1 32  1  0  0  0  0
  2 29  1  0  0  0  0
  2  3  1  0  0  0  0
  2 33  1  0  0  0  0
  3  4  1  0  0  0  0
  3 34  1  0  0  0  0
  3 35  1  0  0  0  0
  4  5  1  0  0  0  0
  4 22  1  0  0  0  0
  5 10  1  0  0  0  0
  5  6  2  0  0  0  0
  6  7  1  0  0  0  0
  7  8  2  0  0  0  0
  7 36  1  0  0  0  0
  8  9  1  0  0  0  0
  9 13  1  0  0  0  0
  9 10  2  0  0  0  0
 10 11  1  0  0  0  0
 11 12  2  0  0  0  0
 12 13  1  0  0  0  0
 12 37  1  0  0  0  0
 13 14  1  0  0  0  0
 14 15  1  0  0  0  0
 14 38  1  0  0  0  0
 14 39  1  0  0  0  0
 15 21  1  0  0  0  0
 15 16  1  0  0  0  0
 15 17  1  0  0  0  0
 16 40  1  0  0  0  0
 17 18  1  0  0  0  0
 17 41  1  0  0  0  0
 17 42  1  0  0  0  0
 18 19  1  0  0  0  0
 18 43  1  0  0  0  0
 18 44  1  0  0  0  0
 19 20  1  0  0  0  0
 20 21  1  0  0  0  0
 20 45  1  0  0  0  0
 20 46  1  0  0  0  0
 21 47  1  0  0  0  0
 21 48  1  0  0  0  0
 22 23  1  0  0  0  0
 22 49  1  0  0  0  0
 22 50  1  0  0  0  0
 23 24  1  0  0  0  0
 23 51  1  0  0  0  0
 23 52  1  0  0  0  0
 24 25  1  0  0  0  0
 24 29  1  0  0  0  0
 24 62  1  0  0  0  0
 25 27  1  0  0  0  0
 25 26  1  0  0  0  0
 25 53  1  0  0  0  0
 26 27  1  0  0  0  0
 26 54  1  0  0  0  0
 26 55  1  0  0  0  0
 27 28  1  0  0  0  0
 27 56  1  0  0  0  0
 28 57  1  0  0  0  0
 28 58  1  0  0  0  0
 28 59  1  0  0  0  0
 29 60  1  0  0  0  0
 29 61  1  0  0  0  0
M  CHG  1  24   1
M  END
> <s_m_source_file>
AV-unprocessed.smi

> <i_m_source_file_index>
193

> <i_lp_mmshare_version>
43012

> <i_f3d_flags>
0

> <s_epik_input>
W0NIM11bQ0BASF0xW0NIMl1bQ0BIXTFOKFtDSDJdMilbQ0gyXVtDSDJdTihbQ0gyXVtDQEhdMltDSDNdKWMobltjSF1uMyljKGMzNCluW2NIXW40W0NIMl1DNShbT0hdKVtDSDJdW0NIMl1PW0NIMl1bQ0gyXTU=

> <s_epik_cmdline>
J2VwaWtfcHl0aG9uJywgJy1waCcsICc3LjAnLCAnLXRuJywgJzgnLCAnLW1hJywgJzIwMCcsICctbWV0YWxfYmluZGluZycsICctaW1hZScsICc8aW5maWxlLm1hZT4nLCAnLW9tYWUnLCAnPG91dGZpbGUubWFlPic=

> <r_lp_tautomer_probability>
1

> <r_epik_Ionization_Penalty>
0.0540825

> <r_epik_Ionization_Penalty_Charging>
0.0538476

> <r_epik_Ionization_Penalty_Neutral>
0.000234891

> <r_epik_State_Penalty>
0.0200719

> <r_epik_Charging_Adjusted_Penalty>
0.0739194

> <i_epik_Tot_Q>
1

> <i_epik_Tot_abs_Q>
1

> <r_epik_Metal_State_Penalty>
0.0199414

> <b_epik_Metal_Only>
0

> <s_lp_Force_Field>
OPLS_2005

> <r_lp_Energy>
53.912

> <b_lp_Chiralities_Consistent>
1

> <s_lp_Variant>
AV-unprocessed.smi:193-1

> <Gold.Version>
5.8.1

> <Gold.Id.Protein>
6NUR|6NUR_protein|mol2

> <Gold.PLP.Fitness>
54.1470

> <Gold.PLP.PLP>
-47.3215

> <Gold.PLP.part.hbond>
-3.0000

> <Gold.PLP.part.metal>
0.0000

> <Gold.PLP.part.buried>
-6.2968

> <Gold.PLP.part.nonpolar>
-37.5703

> <Gold.PLP.part.repulsive>
0.0387

> <Gold.PLP.ligand.clash>
0.3039

> <Gold.PLP.ligand.torsion>
1.6690

> <Gold.PLP.Chemscore.Hbond>
3.0000

> <Gold.PLP.Chemscore.CHOScore>
0.0000

> <Gold.PLP.Chemscore.Metal>
0.0000

> <Gold.Chemscore.Hbonds>
donor molecule, donor type, donor heavy atom, donor atom, acceptor molecule, acceptor atom, score
      L1  H    24    62       P1 10747  1.00
      P1  H  6896  6907       L1     8  1.00
      P1  H  6931  6943       L1    19  1.00

> <Gold.PLP.Chemscore.Internal.Correction>
1.4674

> <Gold.Rescore>
     Score         DG    S(hbond)    S(metal)    S(lipo)     H(rot)  DE(clash)    DE(int)     intcor
     20.99     -23.82       2.97        0.00     114.19       1.93       0.02       2.81       ----

> <Gold.Chemscore.Fitness>
20.9926

> <Gold.Chemscore.DG>
-23.8202

> <Gold.Chemscore.ZeroCoef>
-5.4800

> <Gold.Chemscore.Hbond>
2.9696

> <Gold.Chemscore.Metal>
0.0000

> <Gold.Chemscore.Lipo>
114.1886

> <Gold.Chemscore.Internal_Hbond>
0.0000

> <Gold.Chemscore.DEClash>
0.0186

> <Gold.Chemscore.DEInternal>
2.8090

> <Gold.Chemscore.Rot>
1.9290

> <Gold.Chemscore.Internal.Correction>
   9.000000E+99

> <Gold.Chemscore.Hbonds>
donor molecule, donor type, donor heavy atom, donor atom, acceptor molecule, acceptor atom, score
      L1  H    24    62       P1 10747  0.97
      P1  H  6896  6907       L1     8  0.82
      P1  H  6931  6943       L1    19  0.50

> <Gold.Chemscore.Hbond.Weighted>
-9.9184

> <Gold.Chemscore.Metal.Weighted>
-0.0000

> <Gold.Chemscore.Lipo.Weighted>
-13.3601

> <Gold.Chemscore.Internal_Hbond.Weighted>
0.0000

> <Gold.Chemscore.DEClash.Weighted>
0.0186

> <Gold.Chemscore.DEInternal.Weighted>
2.8090

> <Gold.Chemscore.Rot.Weighted>
4.9383

> <Gold.Chemscore.Internal.Correction.Weighted>
   9.000000E+99

> <Gold.Protein.RotatedTorsions>
[ 6907 6896 6895 6894 ] final -150.35 input  -60.11 | X-H torsion
[ 7974 7965 7964 7962 ] final  100.62 input  175.53 | X-H torsion
[ 8008 7997 7996 7995 ] final -109.09 input   59.86 | X-H torsion
[ 10167 10162 10161 10158 ] final  161.07 input  -65.29 | X-H torsion
[ 10718 10713 10712 10709 ] final  -89.49 input   66.30 | X-H torsion
[ 10763 10752 10751 10750 ] final   74.13 input  -60.55 | X-H torsion
[ 11005 11000 10999 10996 ] final  121.84 input  -57.11 | X-H torsion

> <Gold.Protein.ActiveResidues>
 VAL166  LYS551  ARG553  GLY616  TRP617  ASP618  TYR619  PRO620  LYS621  CYS622 
 ASP623  PHE694  ASN695  SER759  ASP760  ASP761  ALA762  ILE779  LEU786  VAL792 
 PHE793  MET794  SER795  GLU796  ALA797  LYS798  CYS799  TRP800  GLU811  SER814 

> <Gold.Protein.RotatedAtoms>
  151.1972  133.4632  159.2595 H   0  0  0  0  0  0  0  0  0  0  0  0  # atno 6907 bound_to 6896
  151.1105  135.0023  159.8501 H   0  0  0  0  0  0  0  0  0  0  0  0  # atno 6908 bound_to 6896
  152.5450  134.1892  159.8720 H   0  0  0  0  0  0  0  0  0  0  0  0  # atno 6909 bound_to 6896
  145.3832  139.2376  143.3392 H   0  0  0  0  0  0  0  0  0  0  0  0  # atno 7974 bound_to 7965
  154.9541  140.0400  157.2158 H   0  0  0  0  0  0  0  0  0  0  0  0  # atno 8008 bound_to 7997
  154.7951  140.2842  155.5941 H   0  0  0  0  0  0  0  0  0  0  0  0  # atno 8009 bound_to 7997
  156.2954  140.2566  156.2807 H   0  0  0  0  0  0  0  0  0  0  0  0  # atno 8010 bound_to 7997
  139.4846  144.4572  151.8752 H   0  0  0  0  0  0  0  0  0  0  0  0  # atno 10167 bound_to 10162
  155.9984  130.4874  150.5179 H   0  0  0  0  0  0  0  0  0  0  0  0  # atno 10718 bound_to 10713
  153.0567  135.5037  154.7997 H   0  0  0  0  0  0  0  0  0  0  0  0  # atno 10763 bound_to 10752
  154.6818  135.2969  154.9605 H   0  0  0  0  0  0  0  0  0  0  0  0  # atno 10764 bound_to 10752
  154.0389  135.6719  153.4841 H   0  0  0  0  0  0  0  0  0  0  0  0  # atno 10765 bound_to 10752
  139.9243  134.9640  156.8019 H   0  0  0  0  0  0  0  0  0  0  0  0  # atno 11005 bound_to 11000
  146.2832  140.4503  142.8768 LP  0  0  0  0  0  0  0  0  0  0  0  0  # atno 17320 bound_to 7965
  144.8493  140.6976  143.6179 LP  0  0  0  0  0  0  0  0  0  0  0  0  # atno 17321 bound_to 7965
  140.4032  144.2466  150.5892 LP  0  0  0  0  0  0  0  0  0  0  0  0  # atno 17342 bound_to 10162
  140.5037  143.2310  151.8640 LP  0  0  0  0  0  0  0  0  0  0  0  0  # atno 17343 bound_to 10162
  157.3144  131.0670  151.1977 LP  0  0  0  0  0  0  0  0  0  0  0  0  # atno 17370 bound_to 10713
  157.2912  130.6797  149.6115 LP  0  0  0  0  0  0  0  0  0  0  0  0  # atno 17371 bound_to 10713
  140.6382  133.9842  155.7695 LP  0  0  0  0  0  0  0  0  0  0  0  0  # atno 17394 bound_to 11000
  141.0788  134.0093  157.3417 LP  0  0  0  0  0  0  0  0  0  0  0  0  # atno 17395 bound_to 11000

$$$$
