AV-unprocessed.smi:1687|AV-procd|sdf|6767|dock4
  -GOLD-   22720 7523D 1   1.00000     0.00000
 Structure written by MMmdl.
 45 46  0  0  0  0  0  0  0  0  2 V2000
  144.9749  136.0281  152.1841 C   0  0  0  0  0  0  0  0  0  0  0  0
  145.8743  137.1856  152.6400 C   0  0  2  0  0  0  0  0  0  0  0  0
  145.3066  137.8977  153.8761 C   0  0  0  0  0  0  0  0  0  0  0  0
  146.2118  139.0633  154.3051 C   0  0  0  0  0  0  0  0  0  0  0  0
  146.3910  140.0558  153.2065 N   0  3  1  0  0  0  0  0  0  0  0  0
  147.1022  141.2887  153.6789 C   0  0  1  0  0  0  0  0  0  0  0  0
  146.3452  142.0746  154.7771 C   0  0  0  0  0  0  0  0  0  0  0  0
  148.5240  140.9168  154.1753 C   0  0  0  0  0  0  0  0  0  0  0  0
  149.0757  141.8905  155.1130 N   0  0  0  0  0  0  0  0  0  0  0  0
  150.0287  141.6194  156.0168 C   0  0  0  0  0  0  0  0  0  0  0  0
  150.5484  140.5091  156.1345 O   0  0  0  0  0  0  0  0  0  0  0  0
  150.3282  142.7032  156.7541 N   0  0  0  0  0  0  0  0  0  0  0  0
  151.2679  142.8095  157.8144 C   0  0  0  0  0  0  0  0  0  0  0  0
  151.5609  144.1297  158.2250 C   0  0  0  0  0  0  0  0  0  0  0  0
  152.4809  144.3423  159.2700 C   0  0  0  0  0  0  0  0  0  0  0  0
  153.0852  143.2278  159.8782 C   0  0  0  0  0  0  0  0  0  0  0  0
  152.7383  141.9474  159.4093 C   0  0  0  0  0  0  0  0  0  0  0  0
  151.8569  141.7413  158.4078 N   0  0  0  0  0  0  0  0  0  0  0  0
  146.9582  139.3957  151.9942 C   0  0  0  0  0  0  0  0  0  0  0  0
  146.0828  138.2202  151.5246 C   0  0  0  0  0  0  0  0  0  0  0  0
  143.9827  136.3816  151.9017 H   0  0  0  0  0  0  0  0  0  0  0  0
  144.8521  135.2908  152.9781 H   0  0  0  0  0  0  0  0  0  0  0  0
  145.4032  135.5146  151.3228 H   0  0  0  0  0  0  0  0  0  0  0  0
  146.8467  136.7667  152.9036 H   0  0  0  0  0  0  0  0  0  0  0  0
  144.3031  138.2707  153.6665 H   0  0  0  0  0  0  0  0  0  0  0  0
  145.2075  137.1900  154.7003 H   0  0  0  0  0  0  0  0  0  0  0  0
  145.7775  139.5302  155.1876 H   0  0  0  0  0  0  0  0  0  0  0  0
  147.1875  138.6810  154.6101 H   0  0  0  0  0  0  0  0  0  0  0  0
  147.1889  141.9616  152.8242 H   0  0  0  0  0  0  0  0  0  0  0  0
  146.9063  142.9504  155.1029 H   0  0  0  0  0  0  0  0  0  0  0  0
  146.1665  141.4586  155.6588 H   0  0  0  0  0  0  0  0  0  0  0  0
  145.3866  142.4530  154.4216 H   0  0  0  0  0  0  0  0  0  0  0  0
  148.4947  139.9494  154.6777 H   0  0  0  0  0  0  0  0  0  0  0  0
  149.2278  140.8012  153.3516 H   0  0  0  0  0  0  0  0  0  0  0  0
  148.6984  142.8263  155.0789 H   0  0  0  0  0  0  0  0  0  0  0  0
  149.8195  143.5481  156.5401 H   0  0  0  0  0  0  0  0  0  0  0  0
  151.0878  144.9754  157.7472 H   0  0  0  0  0  0  0  0  0  0  0  0
  152.7185  145.3435  159.5982 H   0  0  0  0  0  0  0  0  0  0  0  0
  153.7962  143.3503  160.6819 H   0  0  0  0  0  0  0  0  0  0  0  0
  153.1800  141.0656  159.8494 H   0  0  0  0  0  0  0  0  0  0  0  0
  147.0182  140.0958  151.1618 H   0  0  0  0  0  0  0  0  0  0  0  0
  147.9721  139.0518  152.2043 H   0  0  0  0  0  0  0  0  0  0  0  0
  146.5450  137.7450  150.6585 H   0  0  0  0  0  0  0  0  0  0  0  0
  145.1168  138.5999  151.1878 H   0  0  0  0  0  0  0  0  0  0  0  0
  145.4665  140.3606  152.9374 H   0  0  0  0  0  0  0  0  0  0  0  0
  1  2  1  0  0  0  0
  1 21  1  0  0  0  0
  1 22  1  0  0  0  0
  1 23  1  0  0  0  0
  2 20  1  0  0  0  0
  2  3  1  0  0  0  0
  2 24  1  0  0  0  0
  3  4  1  0  0  0  0
  3 25  1  0  0  0  0
  3 26  1  0  0  0  0
  4  5  1  0  0  0  0
  4 27  1  0  0  0  0
  4 28  1  0  0  0  0
  5  6  1  0  0  0  0
  5 19  1  0  0  0  0
  5 45  1  0  0  0  0
  6  7  1  0  0  0  0
  6  8  1  0  0  0  0
  6 29  1  0  0  0  0
  7 30  1  0  0  0  0
  7 31  1  0  0  0  0
  7 32  1  0  0  0  0
  8  9  1  0  0  0  0
  8 33  1  0  0  0  0
  8 34  1  0  0  0  0
  9 10  1  0  0  0  0
  9 35  1  0  0  0  0
 10 11  2  0  0  0  0
 10 12  1  0  0  0  0
 12 13  1  0  0  0  0
 12 36  1  0  0  0  0
 13 18  1  0  0  0  0
 13 14  2  0  0  0  0
 14 15  1  0  0  0  0
 14 37  1  0  0  0  0
 15 16  2  0  0  0  0
 15 38  1  0  0  0  0
 16 17  1  0  0  0  0
 16 39  1  0  0  0  0
 17 18  2  0  0  0  0
 17 40  1  0  0  0  0
 19 20  1  0  0  0  0
 19 41  1  0  0  0  0
 19 42  1  0  0  0  0
 20 43  1  0  0  0  0
 20 44  1  0  0  0  0
M  CHG  1   5   1
M  END
> <s_m_source_file>
AV-unprocessed.smi

> <i_m_source_file_index>
1687

> <i_lp_mmshare_version>
43012

> <i_f3d_flags>
0

> <s_epik_input>
W0NIM11bQ0hdMVtDSDJdW0NIMl1OKFtDSDJdW0NIMl0xKVtDQEhdKFtDSDNdKVtDSDJdW05IXUMoPU8pW05IXWMyW2NIXVtjSF1bY0hdW2NIXW4y

> <s_epik_cmdline>
J2VwaWtfcHl0aG9uJywgJy1waCcsICc3LjAnLCAnLXRuJywgJzgnLCAnLW1hJywgJzIwMCcsICctbWV0YWxfYmluZGluZycsICctaW1hZScsICc8aW5maWxlLm1hZT4nLCAnLW9tYWUnLCAnPG91dGZpbGUubWFlPic=

> <r_epik_Ionization_Penalty>
0.00142891

> <r_epik_Ionization_Penalty_Charging>
0.00139388

> <r_epik_Ionization_Penalty_Neutral>
3.50347e-05

> <r_epik_State_Penalty>
0.000929204

> <r_epik_Charging_Adjusted_Penalty>
0.00232308

> <i_epik_Tot_Q>
1

> <i_epik_Tot_abs_Q>
1

> <r_epik_Metal_State_Penalty>
-0

> <b_epik_Metal_Only>
0

> <s_lp_Force_Field>
OPLS_2005

> <r_lp_Energy>
22.8653

> <b_lp_Chiralities_Consistent>
1

> <s_lp_Variant>
AV-unprocessed.smi:1687-2

> <Gold.Version>
5.8.1

> <Gold.Id.Protein>
6NUR|6NUR_protein|mol2

> <Gold.PLP.Fitness>
53.7347

> <Gold.PLP.PLP>
-42.9057

> <Gold.PLP.part.hbond>
-3.0000

> <Gold.PLP.part.metal>
0.0000

> <Gold.PLP.part.buried>
0.9465

> <Gold.PLP.part.nonpolar>
-41.8657

> <Gold.PLP.part.repulsive>
0.2871

> <Gold.PLP.ligand.clash>
0.0000

> <Gold.PLP.ligand.torsion>
0.5392

> <Gold.PLP.Chemscore.Hbond>
3.9440

> <Gold.PLP.Chemscore.CHOScore>
0.0000

> <Gold.PLP.Chemscore.Metal>
0.0000

> <Gold.Chemscore.Hbonds>
donor molecule, donor type, donor heavy atom, donor atom, acceptor molecule, acceptor atom, score
      L1  H     5    45       P1 10175  2.00
      L1  H     9    35       P1  8028  0.96
      L1  H    12    36       P1  8028  1.00

> <Gold.PLP.Chemscore.Internal.Correction>
0.0754

> <Gold.Rescore>
     Score         DG    S(hbond)    S(metal)    S(lipo)     H(rot)  DE(clash)    DE(int)     intcor
     19.57     -23.72       2.90        0.00     105.91       1.50       2.27       1.88       ----

> <Gold.Chemscore.Fitness>
19.5670

> <Gold.Chemscore.DG>
-23.7203

> <Gold.Chemscore.ZeroCoef>
-5.4800

> <Gold.Chemscore.Hbond>
2.8975

> <Gold.Chemscore.Metal>
0.0000

> <Gold.Chemscore.Lipo>
105.9094

> <Gold.Chemscore.Internal_Hbond>
0.0000

> <Gold.Chemscore.DEClash>
2.2729

> <Gold.Chemscore.DEInternal>
1.8804

> <Gold.Chemscore.Rot>
1.4956

> <Gold.Chemscore.Internal.Correction>
   9.000000E+99

> <Gold.Chemscore.Hbonds>
donor molecule, donor type, donor heavy atom, donor atom, acceptor molecule, acceptor atom, score
      L1  H     5    45       P1 10175  0.93
      L1  H     9    35       P1  8028  0.90
      L1  H    12    36       P1  8028  1.00

> <Gold.Chemscore.Hbond.Weighted>
-9.6778

> <Gold.Chemscore.Metal.Weighted>
-0.0000

> <Gold.Chemscore.Lipo.Weighted>
-12.3914

> <Gold.Chemscore.Internal_Hbond.Weighted>
0.0000

> <Gold.Chemscore.DEClash.Weighted>
2.2729

> <Gold.Chemscore.DEInternal.Weighted>
1.8804

> <Gold.Chemscore.Rot.Weighted>
3.8289

> <Gold.Chemscore.Internal.Correction.Weighted>
   9.000000E+99

> <Gold.Protein.RotatedTorsions>
[ 6907 6896 6895 6894 ] final   86.92 input  -60.11 | X-H torsion
[ 7974 7965 7964 7962 ] final -120.15 input  175.53 | X-H torsion
[ 8008 7997 7996 7995 ] final  135.96 input   59.86 | X-H torsion
[ 10167 10162 10161 10158 ] final  -18.18 input  -65.29 | X-H torsion
[ 10718 10713 10712 10709 ] final  155.73 input   66.30 | X-H torsion
[ 10763 10752 10751 10750 ] final   10.39 input  -60.55 | X-H torsion
[ 11005 11000 10999 10996 ] final  -26.20 input  -57.11 | X-H torsion

> <Gold.Protein.ActiveResidues>
 VAL166  LYS551  ARG553  GLY616  TRP617  ASP618  TYR619  PRO620  LYS621  CYS622 
 ASP623  PHE694  ASN695  SER759  ASP760  ASP761  ALA762  ILE779  LEU786  VAL792 
 PHE793  MET794  SER795  GLU796  ALA797  LYS798  CYS799  TRP800  GLU811  SER814 

> <Gold.Protein.RotatedAtoms>
  152.5402  134.2356  159.8841 H   0  0  0  0  0  0  0  0  0  0  0  0  # atno 6907 bound_to 6896
  151.2326  133.4435  159.2612 H   0  0  0  0  0  0  0  0  0  0  0  0  # atno 6908 bound_to 6896
  151.0701  134.9806  159.8360 H   0  0  0  0  0  0  0  0  0  0  0  0  # atno 6909 bound_to 6896
  145.0546  140.8244  143.4189 H   0  0  0  0  0  0  0  0  0  0  0  0  # atno 7974 bound_to 7965
  156.3004  140.2457  156.3667 H   0  0  0  0  0  0  0  0  0  0  0  0  # atno 8008 bound_to 7997
  154.8826  140.0412  157.1811 H   0  0  0  0  0  0  0  0  0  0  0  0  # atno 8009 bound_to 7997
  154.8680  140.2930  155.5502 H   0  0  0  0  0  0  0  0  0  0  0  0  # atno 8010 bound_to 7997
  140.7256  143.4942  150.9952 H   0  0  0  0  0  0  0  0  0  0  0  0  # atno 10167 bound_to 10162
  157.2145  131.0705  151.1950 H   0  0  0  0  0  0  0  0  0  0  0  0  # atno 10718 bound_to 10713
  153.2037  135.6859  153.8199 H   0  0  0  0  0  0  0  0  0  0  0  0  # atno 10763 bound_to 10752
  153.7456  135.3231  155.3313 H   0  0  0  0  0  0  0  0  0  0  0  0  # atno 10764 bound_to 10752
  154.8185  135.4669  154.0814 H   0  0  0  0  0  0  0  0  0  0  0  0  # atno 10765 bound_to 10752
  140.9008  133.7525  156.0541 H   0  0  0  0  0  0  0  0  0  0  0  0  # atno 11005 bound_to 11000
  145.1485  139.2529  143.5453 LP  0  0  0  0  0  0  0  0  0  0  0  0  # atno 17320 bound_to 7965
  146.3520  140.1181  142.8601 LP  0  0  0  0  0  0  0  0  0  0  0  0  # atno 17321 bound_to 7965
  139.8648  143.7268  152.3171 LP  0  0  0  0  0  0  0  0  0  0  0  0  # atno 17342 bound_to 10162
  139.7496  144.7538  151.0527 LP  0  0  0  0  0  0  0  0  0  0  0  0  # atno 17343 bound_to 10162
  157.3639  130.7145  149.6520 LP  0  0  0  0  0  0  0  0  0  0  0  0  # atno 17370 bound_to 10713
  155.9687  130.4218  150.4485 LP  0  0  0  0  0  0  0  0  0  0  0  0  # atno 17371 bound_to 10713
  140.8233  134.3264  157.5374 LP  0  0  0  0  0  0  0  0  0  0  0  0  # atno 17394 bound_to 11000
  139.8742  134.9321  156.3546 LP  0  0  0  0  0  0  0  0  0  0  0  0  # atno 17395 bound_to 11000

$$$$
