AV-unprocessed.smi:3116|AV-procd|sdf|11867|dock6
  -GOLD-   2272017253D 1   1.00000     0.00000
 Structure written by MMmdl.
 34 34  0  0  0  0  0  0  0  0  2 V2000
  148.8718  140.8214  154.1513 C   0  0  0  0  0  0  0  0  0  0  0  0
  148.9480  139.2878  154.1398 C   0  0  1  0  0  0  0  0  0  0  0  0
  148.3256  138.7661  152.8998 N   0  3  0  0  0  0  0  0  0  0  0  0
  146.8672  138.4987  152.9671 C   0  0  2  0  0  0  0  0  0  0  0  0
  146.1547  139.7886  153.4081 C   0  0  0  0  0  0  0  0  0  0  0  0
  146.5760  137.3041  153.9164 C   0  0  1  0  0  0  0  0  0  0  0  0
  146.6004  137.6928  155.4074 C   0  0  0  0  0  0  0  0  0  0  0  0
  145.3095  136.6557  153.5949 N   0  0  0  0  0  0  0  0  0  0  0  0
  144.3126  137.1033  152.7521 C   0  0  0  0  0  0  0  0  0  0  0  0
  143.3123  136.1744  152.7720 C   0  0  0  0  0  0  0  0  0  0  0  0
  143.7949  135.1766  153.6636 C   0  0  0  0  0  0  0  0  0  0  0  0
  144.9883  135.4676  154.1551 N   0  0  0  0  0  0  0  0  0  0  0  0
  150.4064  138.8287  154.2771 C   0  0  0  0  0  0  0  0  0  0  0  0
  150.7020  137.6019  153.8401 N   0  0  0  0  0  0  0  0  0  0  0  0
  151.2525  139.5646  154.7817 O   0  0  0  0  0  0  0  0  0  0  0  0
  149.3011  141.2334  155.0655 H   0  0  0  0  0  0  0  0  0  0  0  0
  147.8362  141.1595  154.0983 H   0  0  0  0  0  0  0  0  0  0  0  0
  149.4068  141.2573  153.3062 H   0  0  0  0  0  0  0  0  0  0  0  0
  148.3809  138.9228  154.9965 H   0  0  0  0  0  0  0  0  0  0  0  0
  148.4762  139.4412  152.1643 H   0  0  0  0  0  0  0  0  0  0  0  0
  146.4984  138.2519  151.9700 H   0  0  0  0  0  0  0  0  0  0  0  0
  145.0708  139.6882  153.3592 H   0  0  0  0  0  0  0  0  0  0  0  0
  146.4222  140.6251  152.7616 H   0  0  0  0  0  0  0  0  0  0  0  0
  146.4218  140.0615  154.4294 H   0  0  0  0  0  0  0  0  0  0  0  0
  147.3568  136.5569  153.7651 H   0  0  0  0  0  0  0  0  0  0  0  0
  147.5943  138.0049  155.7264 H   0  0  0  0  0  0  0  0  0  0  0  0
  146.3180  136.8474  156.0359 H   0  0  0  0  0  0  0  0  0  0  0  0
  145.9097  138.5093  155.6207 H   0  0  0  0  0  0  0  0  0  0  0  0
  144.3952  138.0364  152.2143 H   0  0  0  0  0  0  0  0  0  0  0  0
  142.3789  136.2013  152.2293 H   0  0  0  0  0  0  0  0  0  0  0  0
  143.3166  134.2570  153.9672 H   0  0  0  0  0  0  0  0  0  0  0  0
  151.6471  137.2520  153.9046 H   0  0  0  0  0  0  0  0  0  0  0  0
  149.9747  137.0252  153.4414 H   0  0  0  0  0  0  0  0  0  0  0  0
  148.8021  137.9108  152.6510 H   0  0  0  0  0  0  0  0  0  0  0  0
  1  2  1  0  0  0  0
  1 16  1  0  0  0  0
  1 17  1  0  0  0  0
  1 18  1  0  0  0  0
  2  3  1  0  0  0  0
  2 13  1  0  0  0  0
  2 19  1  0  0  0  0
  3  4  1  0  0  0  0
  3 20  1  0  0  0  0
  3 34  1  0  0  0  0
  4  5  1  0  0  0  0
  4  6  1  0  0  0  0
  4 21  1  0  0  0  0
  5 22  1  0  0  0  0
  5 23  1  0  0  0  0
  5 24  1  0  0  0  0
  6  7  1  0  0  0  0
  6  8  1  0  0  0  0
  6 25  1  0  0  0  0
  7 26  1  0  0  0  0
  7 27  1  0  0  0  0
  7 28  1  0  0  0  0
  8 12  1  0  0  0  0
  8  9  1  0  0  0  0
  9 10  2  0  0  0  0
  9 29  1  0  0  0  0
 10 11  1  0  0  0  0
 10 30  1  0  0  0  0
 11 12  2  0  0  0  0
 11 31  1  0  0  0  0
 13 14  1  0  0  0  0
 13 15  2  0  0  0  0
 14 32  1  0  0  0  0
 14 33  1  0  0  0  0
M  CHG  1   3   1
M  END
> <s_m_source_file>
AV-unprocessed.smi

> <i_m_source_file_index>
3116

> <i_lp_mmshare_version>
43012

> <i_f3d_flags>
0

> <s_epik_input>
W05IMl1DKD1PKVtDQEhdKFtDSDNdKVtOSF1bQ0BIXShbQ0gzXSlbQ0BIXShbQ0gzXSluMVtjSF1bY0hdW2NIXW4x

> <s_epik_cmdline>
J2VwaWtfcHl0aG9uJywgJy1waCcsICc3LjAnLCAnLXRuJywgJzgnLCAnLW1hJywgJzIwMCcsICctbWV0YWxfYmluZGluZycsICctaW1hZScsICc8aW5maWxlLm1hZT4nLCAnLW9tYWUnLCAnPG91dGZpbGUubWFlPic=

> <r_lp_tautomer_probability>
1

> <r_epik_Ionization_Penalty>
0.15658

> <r_epik_Ionization_Penalty_Charging>
0.156568

> <r_epik_Ionization_Penalty_Neutral>
1.19778e-05

> <r_epik_State_Penalty>
0.145866

> <r_epik_Charging_Adjusted_Penalty>
0.302434

> <i_epik_Tot_Q>
1

> <i_epik_Tot_abs_Q>
1

> <r_epik_Metal_State_Penalty>
0.146064

> <b_epik_Metal_Only>
0

> <s_lp_Force_Field>
OPLS_2005

> <r_lp_Energy>
9.77371

> <b_lp_Chiralities_Consistent>
1

> <s_lp_Variant>
AV-unprocessed.smi:3116-6

> <Gold.Version>
5.8.1

> <Gold.Id.Protein>
6NUR|6NUR_protein|mol2

> <Gold.PLP.Fitness>
38.3398

> <Gold.PLP.PLP>
-19.1028

> <Gold.PLP.part.hbond>
-4.8893

> <Gold.PLP.part.metal>
0.0000

> <Gold.PLP.part.buried>
0.4712

> <Gold.PLP.part.nonpolar>
-15.8971

> <Gold.PLP.part.repulsive>
0.2696

> <Gold.PLP.ligand.clash>
0.0000

> <Gold.PLP.ligand.torsion>
1.6211

> <Gold.PLP.Chemscore.Hbond>
4.8800

> <Gold.PLP.Chemscore.CHOScore>
2.5867

> <Gold.PLP.Chemscore.Metal>
0.0000

> <Gold.Chemscore.Hbonds>
donor molecule, donor type, donor heavy atom, donor atom, acceptor molecule, acceptor atom, score
      L1  H     3    20       P1  7957  0.88
      L1  H     3    34       P1  7948  2.00
      L1  H    14    33       P1  7948  1.00
      P1  H  7989  7998       L1    15  1.00
      L1  C     9    29       P1 10171  1.00
      L1  C     9    29       P1 10175  1.00
      L1  C    11    31       P1 10957  0.57

> <Gold.PLP.Chemscore.Internal.Correction>
0.0792

> <Gold.Rescore>
     Score         DG    S(hbond)    S(metal)    S(lipo)     H(rot)  DE(clash)    DE(int)     intcor
     11.47     -14.25       3.14        0.00      38.98       2.45       1.35       1.43       ----

> <Gold.Chemscore.Fitness>
11.4681

> <Gold.Chemscore.DG>
-14.2550

> <Gold.Chemscore.ZeroCoef>
-5.4800

> <Gold.Chemscore.Hbond>
3.1371

> <Gold.Chemscore.Metal>
0.0000

> <Gold.Chemscore.Lipo>
38.9759

> <Gold.Chemscore.Internal_Hbond>
0.0000

> <Gold.Chemscore.DEClash>
1.3531

> <Gold.Chemscore.DEInternal>
1.4338

> <Gold.Chemscore.Rot>
2.4465

> <Gold.Chemscore.Internal.Correction>
   9.000000E+99

> <Gold.Chemscore.Hbonds>
donor molecule, donor type, donor heavy atom, donor atom, acceptor molecule, acceptor atom, score
      L1  H     3    20       P1  7957  0.86
      L1  H     3    34       P1  7948  0.98
      L1  H    14    33       P1  7948  0.27
      P1  H  7989  7998       L1    15  0.55

> <Gold.Chemscore.Hbond.Weighted>
-10.4779

> <Gold.Chemscore.Metal.Weighted>
-0.0000

> <Gold.Chemscore.Lipo.Weighted>
-4.5602

> <Gold.Chemscore.Internal_Hbond.Weighted>
0.0000

> <Gold.Chemscore.DEClash.Weighted>
1.3531

> <Gold.Chemscore.DEInternal.Weighted>
1.4338

> <Gold.Chemscore.Rot.Weighted>
6.2631

> <Gold.Chemscore.Internal.Correction.Weighted>
   9.000000E+99

> <Gold.Protein.RotatedTorsions>
[ 6907 6896 6895 6894 ] final  -51.71 input  -60.11 | X-H torsion
[ 7974 7965 7964 7962 ] final  -94.46 input  175.53 | X-H torsion
[ 8008 7997 7996 7995 ] final  118.01 input   59.86 | X-H torsion
[ 10167 10162 10161 10158 ] final   59.23 input  -65.29 | X-H torsion
[ 10718 10713 10712 10709 ] final  159.74 input   66.30 | X-H torsion
[ 10763 10752 10751 10750 ] final  -80.52 input  -60.55 | X-H torsion
[ 11005 11000 10999 10996 ] final  151.85 input  -57.11 | X-H torsion

> <Gold.Protein.ActiveResidues>
 VAL166  LYS551  ARG553  GLY616  TRP617  ASP618  TYR619  PRO620  LYS621  CYS622 
 ASP623  PHE694  ASN695  SER759  ASP760  ASP761  ALA762  ILE779  LEU786  VAL792 
 PHE793  MET794  SER795  GLU796  ALA797  LYS798  CYS799  TRP800  GLU811  SER814 

> <Gold.Protein.RotatedAtoms>
  150.8586  134.7931  159.7064 H   0  0  0  0  0  0  0  0  0  0  0  0  # atno 6907 bound_to 6896
  152.4630  134.5138  159.9771 H   0  0  0  0  0  0  0  0  0  0  0  0  # atno 6908 bound_to 6896
  151.5246  133.3422  159.2943 H   0  0  0  0  0  0  0  0  0  0  0  0  # atno 6909 bound_to 6896
  145.3730  140.9508  143.2437 H   0  0  0  0  0  0  0  0  0  0  0  0  # atno 7974 bound_to 7965
  156.2524  140.2884  156.0767 H   0  0  0  0  0  0  0  0  0  0  0  0  # atno 8008 bound_to 7997
  155.1611  140.0399  157.2860 H   0  0  0  0  0  0  0  0  0  0  0  0  # atno 8009 bound_to 7997
  154.6392  140.2518  155.7349 H   0  0  0  0  0  0  0  0  0  0  0  0  # atno 8010 bound_to 7997
  140.1786  144.4204  150.6626 H   0  0  0  0  0  0  0  0  0  0  0  0  # atno 10167 bound_to 10162
  157.1600  131.0585  151.2237 H   0  0  0  0  0  0  0  0  0  0  0  0  # atno 10718 bound_to 10713
  154.5521  135.5658  153.6932 H   0  0  0  0  0  0  0  0  0  0  0  0  # atno 10763 bound_to 10752
  152.9993  135.6253  154.2359 H   0  0  0  0  0  0  0  0  0  0  0  0  # atno 10764 bound_to 10752
  154.2294  135.2866  155.2875 H   0  0  0  0  0  0  0  0  0  0  0  0  # atno 10765 bound_to 10752
  140.1256  134.8835  157.2132 H   0  0  0  0  0  0  0  0  0  0  0  0  # atno 11005 bound_to 11000
  144.8563  139.5245  143.6833 LP  0  0  0  0  0  0  0  0  0  0  0  0  # atno 17320 bound_to 7965
  146.2877  139.7050  142.9184 LP  0  0  0  0  0  0  0  0  0  0  0  0  # atno 17321 bound_to 7965
  140.6534  143.2231  151.6024 LP  0  0  0  0  0  0  0  0  0  0  0  0  # atno 17342 bound_to 10162
  139.5306  144.2928  152.1138 LP  0  0  0  0  0  0  0  0  0  0  0  0  # atno 17343 bound_to 10162
  157.4141  130.7401  149.6862 LP  0  0  0  0  0  0  0  0  0  0  0  0  # atno 17370 bound_to 10713
  155.9755  130.4087  150.3842 LP  0  0  0  0  0  0  0  0  0  0  0  0  # atno 17371 bound_to 10713
  140.2909  134.3242  155.7315 LP  0  0  0  0  0  0  0  0  0  0  0  0  # atno 17394 bound_to 11000
  141.2160  133.7534  156.9501 LP  0  0  0  0  0  0  0  0  0  0  0  0  # atno 17395 bound_to 11000

$$$$
