AV-unprocessed.smi:2554|AV-procd|sdf|10020|dock5
  -GOLD-   2272014 63D 1   1.00000     0.00000
 Structure written by MMmdl.
 21 21  0  0  0  0  0  0  0  0  2 V2000
  145.7604  131.2078  152.0488 C   0  0  0  0  0  0  0  0  0  0  0  0
  145.9551  132.4766  151.2777 C   0  0  0  0  0  0  0  0  0  0  0  0
  146.6555  133.5514  151.8309 N   0  0  0  0  0  0  0  0  0  0  0  0
  146.6338  134.4779  150.8812 C   0  0  0  0  0  0  0  0  0  0  0  0
  145.9878  134.0872  149.7797 N   0  0  0  0  0  0  0  0  0  0  0  0
  145.5330  132.7978  150.0033 C   0  0  0  0  0  0  0  0  0  0  0  0
  144.7684  132.0150  148.9869 C   0  0  0  0  0  0  0  0  0  0  0  0
  143.3330  132.5238  148.8009 C   0  0  0  0  0  0  0  0  0  0  0  0
  143.3030  133.7766  148.0282 N   0  3  0  0  0  0  0  0  0  0  0  0
  145.8535  134.6359  148.9425 H   0  0  0  0  0  0  0  0  0  0  0  0
  145.1988  130.4697  151.4764 H   0  0  0  0  0  0  0  0  0  0  0  0
  145.2147  131.3911  152.9746 H   0  0  0  0  0  0  0  0  0  0  0  0
  146.7179  130.7590  152.3135 H   0  0  0  0  0  0  0  0  0  0  0  0
  147.0940  135.4493  150.9880 H   0  0  0  0  0  0  0  0  0  0  0  0
  144.7484  130.9651  149.2825 H   0  0  0  0  0  0  0  0  0  0  0  0
  145.2973  132.0478  148.0336 H   0  0  0  0  0  0  0  0  0  0  0  0
  142.7295  131.7776  148.2829 H   0  0  0  0  0  0  0  0  0  0  0  0
  142.8650  132.6999  149.7699 H   0  0  0  0  0  0  0  0  0  0  0  0
  142.8168  134.4869  148.5571 H   0  0  0  0  0  0  0  0  0  0  0  0
  142.8236  133.6223  147.1526 H   0  0  0  0  0  0  0  0  0  0  0  0
  144.2479  134.0826  147.8452 H   0  0  0  0  0  0  0  0  0  0  0  0
  1 11  1  0  0  0  0
  1 12  1  0  0  0  0
  1 13  1  0  0  0  0
  1  2  1  0  0  0  0
  2  6  2  0  0  0  0
  2  3  1  0  0  0  0
  3  4  2  0  0  0  0
  4  5  1  0  0  0  0
  4 14  1  0  0  0  0
  5  6  1  0  0  0  0
  5 10  1  0  0  0  0
  6  7  1  0  0  0  0
  7  8  1  0  0  0  0
  7 15  1  0  0  0  0
  7 16  1  0  0  0  0
  8  9  1  0  0  0  0
  8 17  1  0  0  0  0
  8 18  1  0  0  0  0
  9 19  1  0  0  0  0
  9 20  1  0  0  0  0
  9 21  1  0  0  0  0
M  CHG  1   9   1
M  END
> <s_m_source_file>
AV-unprocessed.smi

> <i_m_source_file_index>
2554

> <i_lp_mmshare_version>
43012

> <i_f3d_flags>
0

> <s_epik_input>
W0NIM11jMVtuSF1bY0hdbmMxW0NIMl1bQ0gyXVtOSDJd

> <s_epik_cmdline>
J2VwaWtfcHl0aG9uJywgJy1waCcsICc3LjAnLCAnLXRuJywgJzgnLCAnLW1hJywgJzIwMCcsICctbWV0YWxfYmluZGluZycsICctaW1hZScsICc8aW5maWxlLm1hZT4nLCAnLW9tYWUnLCAnPG91dGZpbGUubWFlPic=

> <r_lp_tautomer_probability>
0.5

> <r_epik_Ionization_Penalty>
0.309087

> <r_epik_Ionization_Penalty_Charging>
0.309086

> <r_epik_Ionization_Penalty_Neutral>
3.24025e-07

> <r_epik_State_Penalty>
0.652852

> <r_epik_Charging_Adjusted_Penalty>
0.961938

> <i_epik_Tot_Q>
1

> <i_epik_Tot_abs_Q>
1

> <r_epik_Metal_State_Penalty>
0.386365

> <b_epik_Metal_Only>
0

> <s_lp_Force_Field>
OPLS_2005

> <r_lp_Energy>
3.85871

> <b_lp_Chiralities_Consistent>
1

> <s_lp_Variant>
AV-unprocessed.smi:2554-2

> <Gold.Version>
5.8.1

> <Gold.Id.Protein>
6NUR|6NUR_protein|mol2

> <Gold.PLP.Fitness>
35.2036

> <Gold.PLP.PLP>
-19.2636

> <Gold.PLP.part.hbond>
-4.0000

> <Gold.PLP.part.metal>
0.0000

> <Gold.PLP.part.buried>
-0.1051

> <Gold.PLP.part.nonpolar>
-15.1707

> <Gold.PLP.part.repulsive>
0.4278

> <Gold.PLP.ligand.clash>
0.0000

> <Gold.PLP.ligand.torsion>
0.1871

> <Gold.PLP.Chemscore.Hbond>
4.6625

> <Gold.PLP.Chemscore.CHOScore>
0.7755

> <Gold.PLP.Chemscore.Metal>
0.0000

> <Gold.Chemscore.Hbonds>
donor molecule, donor type, donor heavy atom, donor atom, acceptor molecule, acceptor atom, score
      L1  H     5    10       P1  7921  0.51
      L1  H     9    19       P1 10186  1.22
      L1  H     9    20       P1 10195  1.00
      L1  H     9    21       P1  7921  1.00
      L1  C     4    14       P1  7948  1.00

> <Gold.PLP.Chemscore.Internal.Correction>
0.0004

> <Gold.Rescore>
     Score         DG    S(hbond)    S(metal)    S(lipo)     H(rot)  DE(clash)    DE(int)     intcor
     19.41     -19.86       3.59        0.00      51.95       1.45       0.22       0.23       ----

> <Gold.Chemscore.Fitness>
19.4111

> <Gold.Chemscore.DG>
-19.8562

> <Gold.Chemscore.ZeroCoef>
-5.4800

> <Gold.Chemscore.Hbond>
3.5926

> <Gold.Chemscore.Metal>
0.0000

> <Gold.Chemscore.Lipo>
51.9504

> <Gold.Chemscore.Internal_Hbond>
0.0000

> <Gold.Chemscore.DEClash>
0.2196

> <Gold.Chemscore.DEInternal>
0.2254

> <Gold.Chemscore.Rot>
1.4458

> <Gold.Chemscore.Internal.Correction>
   9.000000E+99

> <Gold.Chemscore.Hbonds>
donor molecule, donor type, donor heavy atom, donor atom, acceptor molecule, acceptor atom, score
      L1  H     5    10       P1  7921  0.42
      L1  H     9    19       P1 10186  0.57
      L1  H     9    20       P1 10195  0.98
      L1  H     9    21       P1  7921  0.95

> <Gold.Chemscore.Hbond.Weighted>
-11.9992

> <Gold.Chemscore.Metal.Weighted>
-0.0000

> <Gold.Chemscore.Lipo.Weighted>
-6.0782

> <Gold.Chemscore.Internal_Hbond.Weighted>
0.0000

> <Gold.Chemscore.DEClash.Weighted>
0.2196

> <Gold.Chemscore.DEInternal.Weighted>
0.2254

> <Gold.Chemscore.Rot.Weighted>
3.7012

> <Gold.Chemscore.Internal.Correction.Weighted>
   9.000000E+99

> <Gold.Protein.RotatedTorsions>
[ 6907 6896 6895 6894 ] final  -84.17 input  -60.11 | X-H torsion
[ 7974 7965 7964 7962 ] final -147.16 input  175.53 | X-H torsion
[ 8008 7997 7996 7995 ] final -168.79 input   59.86 | X-H torsion
[ 10167 10162 10161 10158 ] final   -7.79 input  -65.29 | X-H torsion
[ 10718 10713 10712 10709 ] final -160.73 input   66.30 | X-H torsion
[ 10763 10752 10751 10750 ] final   68.30 input  -60.55 | X-H torsion
[ 11005 11000 10999 10996 ] final  172.45 input  -57.11 | X-H torsion

> <Gold.Protein.ActiveResidues>
 VAL166  LYS551  ARG553  GLY616  TRP617  ASP618  TYR619  PRO620  LYS621  CYS622 
 ASP623  PHE694  ASN695  SER759  ASP760  ASP761  ALA762  ILE779  LEU786  VAL792 
 PHE793  MET794  SER795  GLU796  ALA797  LYS798  CYS799  TRP800  GLU811  SER814 

> <Gold.Protein.RotatedAtoms>
  150.6879  134.3400  159.4863 H   0  0  0  0  0  0  0  0  0  0  0  0  # atno 6907 bound_to 6896
  152.1254  134.9172  160.0570 H   0  0  0  0  0  0  0  0  0  0  0  0  # atno 6908 bound_to 6896
  152.0362  133.3923  159.4354 H   0  0  0  0  0  0  0  0  0  0  0  0  # atno 6909 bound_to 6896
  144.8111  140.5363  143.5641 H   0  0  0  0  0  0  0  0  0  0  0  0  # atno 7974 bound_to 7965
  155.8962  140.1033  157.1383 H   0  0  0  0  0  0  0  0  0  0  0  0  # atno 8008 bound_to 7997
  154.4021  140.1301  156.4443 H   0  0  0  0  0  0  0  0  0  0  0  0  # atno 8009 bound_to 7997
  155.7476  140.3465  155.5137 H   0  0  0  0  0  0  0  0  0  0  0  0  # atno 8010 bound_to 7997
  140.7040  143.6041  150.8768 H   0  0  0  0  0  0  0  0  0  0  0  0  # atno 10167 bound_to 10162
  156.5863  130.8751  151.2878 H   0  0  0  0  0  0  0  0  0  0  0  0  # atno 10718 bound_to 10713
  153.0228  135.5252  154.7113 H   0  0  0  0  0  0  0  0  0  0  0  0  # atno 10763 bound_to 10752
  154.6195  135.2887  155.0344 H   0  0  0  0  0  0  0  0  0  0  0  0  # atno 10764 bound_to 10752
  154.1336  135.6589  153.4980 H   0  0  0  0  0  0  0  0  0  0  0  0  # atno 10765 bound_to 10752
  140.3299  134.7366  157.4126 H   0  0  0  0  0  0  0  0  0  0  0  0  # atno 11005 bound_to 11000
  145.5321  139.1475  143.3494 LP  0  0  0  0  0  0  0  0  0  0  0  0  # atno 17320 bound_to 7965
  146.2410  140.5461  142.8934 LP  0  0  0  0  0  0  0  0  0  0  0  0  # atno 17321 bound_to 7965
  139.9765  143.5999  152.2957 LP  0  0  0  0  0  0  0  0  0  0  0  0  # atno 17342 bound_to 10162
  139.6604  144.7662  151.1974 LP  0  0  0  0  0  0  0  0  0  0  0  0  # atno 17343 bound_to 10162
  157.7314  130.9700  150.1881 LP  0  0  0  0  0  0  0  0  0  0  0  0  # atno 17370 bound_to 10713
  156.2588  130.3708  149.8152 LP  0  0  0  0  0  0  0  0  0  0  0  0  # atno 17371 bound_to 10713
  140.0869  134.5653  155.8483 LP  0  0  0  0  0  0  0  0  0  0  0  0  # atno 17394 bound_to 11000
  141.2066  133.6656  156.6252 LP  0  0  0  0  0  0  0  0  0  0  0  0  # atno 17395 bound_to 11000

$$$$
