AV-unprocessed.smi:2938|AV-procd|sdf|11260|dock7
  -GOLD-   2272016153D 1   1.00000     0.00000
 Structure written by MMmdl.
 26 27  0  0  0  0  0  0  0  0  2 V2000
  153.8593  138.1271  157.3916 N   0  0  0  0  0  0  0  0  0  0  0  0
  153.0061  138.5909  156.7619 C   0  0  0  0  0  0  0  0  0  0  0  0
  151.9299  139.1766  155.9651 C   0  0  0  0  0  0  0  0  0  0  0  0
  151.4012  138.5214  154.8240 C   0  0  0  0  0  0  0  0  0  0  0  0
  151.8505  137.3067  154.3845 O   0  5  0  0  0  0  0  0  0  0  0  0
  150.4070  139.0605  154.0866 N   0  0  0  0  0  0  0  0  0  0  0  0
  149.9405  140.2439  154.4811 C   0  0  0  0  0  0  0  0  0  0  0  0
  148.9304  140.7849  153.7257 N   0  0  0  0  0  0  0  0  0  0  0  0
  150.3512  140.9566  155.5301 N   0  0  0  0  0  0  0  0  0  0  0  0
  151.3494  140.4332  156.2845 C   0  0  0  0  0  0  0  0  0  0  0  0
  151.7886  141.1823  157.3907 N   0  0  0  0  0  0  0  0  0  0  0  0
  151.2438  142.5333  157.4338 C   0  0  0  0  0  0  0  0  0  0  0  0
  151.8844  143.3201  158.5904 C   0  0  0  0  0  0  0  0  0  0  0  0
  151.6905  142.6154  159.8139 O   0  0  0  0  0  0  0  0  0  0  0  0
  152.2910  141.3231  159.7875 C   0  0  0  0  0  0  0  0  0  0  0  0
  151.6598  140.4836  158.6631 C   0  0  0  0  0  0  0  0  0  0  0  0
  148.5757  140.2942  152.9184 H   0  0  0  0  0  0  0  0  0  0  0  0
  148.5349  141.6792  153.9754 H   0  0  0  0  0  0  0  0  0  0  0  0
  151.4332  143.0385  156.4858 H   0  0  0  0  0  0  0  0  0  0  0  0
  150.1620  142.4911  157.5683 H   0  0  0  0  0  0  0  0  0  0  0  0
  152.9501  143.4741  158.4127 H   0  0  0  0  0  0  0  0  0  0  0  0
  151.4289  144.3070  158.6721 H   0  0  0  0  0  0  0  0  0  0  0  0
  153.3691  141.4148  159.6462 H   0  0  0  0  0  0  0  0  0  0  0  0
  152.1358  140.8387  160.7516 H   0  0  0  0  0  0  0  0  0  0  0  0
  150.6063  140.3039  158.8818 H   0  0  0  0  0  0  0  0  0  0  0  0
  152.1490  139.5107  158.6012 H   0  0  0  0  0  0  0  0  0  0  0  0
  1  2  3  0  0  0  0
  2  3  1  0  0  0  0
  3 10  1  0  0  0  0
  3  4  2  0  0  0  0
  4  5  1  0  0  0  0
  4  6  1  0  0  0  0
  6  7  2  0  0  0  0
  7  8  1  0  0  0  0
  7  9  1  0  0  0  0
  8 17  1  0  0  0  0
  8 18  1  0  0  0  0
  9 10  2  0  0  0  0
 10 11  1  0  0  0  0
 11 16  1  0  0  0  0
 11 12  1  0  0  0  0
 12 13  1  0  0  0  0
 12 19  1  0  0  0  0
 12 20  1  0  0  0  0
 13 14  1  0  0  0  0
 13 21  1  0  0  0  0
 13 22  1  0  0  0  0
 14 15  1  0  0  0  0
 15 16  1  0  0  0  0
 15 23  1  0  0  0  0
 15 24  1  0  0  0  0
 16 25  1  0  0  0  0
 16 26  1  0  0  0  0
M  CHG  1   5  -1
M  END
> <s_m_source_file>
AV-unprocessed.smi

> <i_m_source_file_index>
2938

> <i_lp_mmshare_version>
43012

> <i_f3d_flags>
0

> <s_epik_input>
TiNDYzFjKFtPSF0pbmMoW05IMl0pbmMxTjJbQ0gyXVtDSDJdT1tDSDJdW0NIMl0y

> <s_epik_cmdline>
J2VwaWtfcHl0aG9uJywgJy1waCcsICc3LjAnLCAnLXRuJywgJzgnLCAnLW1hJywgJzIwMCcsICctbWV0YWxfYmluZGluZycsICctaW1hZScsICc8aW5maWxlLm1hZT4nLCAnLW9tYWUnLCAnPG91dGZpbGUubWFlPic=

> <r_lp_tautomer_probability>
1

> <r_epik_Ionization_Penalty>
0.00503702

> <r_epik_Ionization_Penalty_Charging>
2.31924e-12

> <r_epik_Ionization_Penalty_Neutral>
0.00503702

> <r_epik_State_Penalty>
-0

> <r_epik_Charging_Adjusted_Penalty>
2.31924e-12

> <i_epik_Tot_Q>
-1

> <i_epik_Tot_abs_Q>
1

> <r_epik_Metal_State_Penalty>
-0

> <b_epik_Metal_Only>
0

> <s_lp_Force_Field>
OPLS_2005

> <r_lp_Energy>
14.7587

> <b_lp_Chiralities_Consistent>
1

> <s_lp_Variant>
AV-unprocessed.smi:2938-1

> <Gold.Version>
5.8.1

> <Gold.Id.Protein>
6NUR|6NUR_protein|mol2

> <Gold.PLP.Fitness>
32.9790

> <Gold.PLP.PLP>
-25.5179

> <Gold.PLP.part.hbond>
-3.8407

> <Gold.PLP.part.metal>
0.0000

> <Gold.PLP.part.buried>
-1.6101

> <Gold.PLP.part.nonpolar>
-20.4850

> <Gold.PLP.part.repulsive>
0.6310

> <Gold.PLP.ligand.clash>
0.0000

> <Gold.PLP.ligand.torsion>
0.0890

> <Gold.PLP.Chemscore.Hbond>
2.5075

> <Gold.PLP.Chemscore.CHOScore>
0.0000

> <Gold.PLP.Chemscore.Metal>
0.0000

> <Gold.Chemscore.Hbonds>
donor molecule, donor type, donor heavy atom, donor atom, acceptor molecule, acceptor atom, score
      L1  H     8    17       P1  7957  0.47
      P1  H 10752 10763       L1     5  1.98

> <Gold.PLP.Chemscore.Internal.Correction>
0.1165

> <Gold.Rescore>
     Score         DG    S(hbond)    S(metal)    S(lipo)     H(rot)  DE(clash)    DE(int)     intcor
     11.14     -12.60       1.43        0.00      41.92       1.00       0.28       1.17       ----

> <Gold.Chemscore.Fitness>
11.1404

> <Gold.Chemscore.DG>
-12.5963

> <Gold.Chemscore.ZeroCoef>
-5.4800

> <Gold.Chemscore.Hbond>
1.4286

> <Gold.Chemscore.Metal>
0.0000

> <Gold.Chemscore.Lipo>
41.9211

> <Gold.Chemscore.Internal_Hbond>
0.0000

> <Gold.Chemscore.DEClash>
0.2817

> <Gold.Chemscore.DEInternal>
1.1742

> <Gold.Chemscore.Rot>
1.0000

> <Gold.Chemscore.Internal.Correction>
   9.000000E+99

> <Gold.Chemscore.Hbonds>
donor molecule, donor type, donor heavy atom, donor atom, acceptor molecule, acceptor atom, score
      L1  H     8    17       P1  7957  0.45
      P1  H 10752 10763       L1     5  0.92

> <Gold.Chemscore.Hbond.Weighted>
-4.7715

> <Gold.Chemscore.Metal.Weighted>
-0.0000

> <Gold.Chemscore.Lipo.Weighted>
-4.9048

> <Gold.Chemscore.Internal_Hbond.Weighted>
0.0000

> <Gold.Chemscore.DEClash.Weighted>
0.2817

> <Gold.Chemscore.DEInternal.Weighted>
1.1742

> <Gold.Chemscore.Rot.Weighted>
2.5600

> <Gold.Chemscore.Internal.Correction.Weighted>
   9.000000E+99

> <Gold.Protein.RotatedTorsions>
[ 6907 6896 6895 6894 ] final   44.67 input  -60.11 | X-H torsion
[ 7974 7965 7964 7962 ] final -156.47 input  175.53 | X-H torsion
[ 8008 7997 7996 7995 ] final  -65.17 input   59.86 | X-H torsion
[ 10167 10162 10161 10158 ] final -100.97 input  -65.29 | X-H torsion
[ 10718 10713 10712 10709 ] final  133.45 input   66.30 | X-H torsion
[ 10763 10752 10751 10750 ] final   39.75 input  -60.55 | X-H torsion
[ 11005 11000 10999 10996 ] final  -74.28 input  -57.11 | X-H torsion

> <Gold.Protein.ActiveResidues>
 VAL166  LYS551  ARG553  GLY616  TRP617  ASP618  TYR619  PRO620  LYS621  CYS622 
 ASP623  PHE694  ASN695  SER759  ASP760  ASP761  ALA762  ILE779  LEU786  VAL792 
 PHE793  MET794  SER795  GLU796  ALA797  LYS798  CYS799  TRP800  GLU811  SER814 

> <Gold.Protein.RotatedAtoms>
  152.2353  134.8282  160.0467 H   0  0  0  0  0  0  0  0  0  0  0  0  # atno 6907 bound_to 6896
  151.9017  133.3534  159.3841 H   0  0  0  0  0  0  0  0  0  0  0  0  # atno 6908 bound_to 6896
  150.7037  134.4748  159.5486 H   0  0  0  0  0  0  0  0  0  0  0  0  # atno 6909 bound_to 6896
  144.7591  140.4104  143.5990 H   0  0  0  0  0  0  0  0  0  0  0  0  # atno 7974 bound_to 7965
  154.4655  140.0938  156.7009 H   0  0  0  0  0  0  0  0  0  0  0  0  # atno 8008 bound_to 7997
  155.4870  140.3469  155.4330 H   0  0  0  0  0  0  0  0  0  0  0  0  # atno 8009 bound_to 7997
  156.0949  140.1407  156.9533 H   0  0  0  0  0  0  0  0  0  0  0  0  # atno 8010 bound_to 7997
  140.2463  143.3504  152.0756 H   0  0  0  0  0  0  0  0  0  0  0  0  # atno 10167 bound_to 10162
  157.4771  131.1083  150.9729 H   0  0  0  0  0  0  0  0  0  0  0  0  # atno 10718 bound_to 10713
  152.9957  135.6211  154.2516 H   0  0  0  0  0  0  0  0  0  0  0  0  # atno 10763 bound_to 10752
  154.2254  135.2794  155.2911 H   0  0  0  0  0  0  0  0  0  0  0  0  # atno 10764 bound_to 10752
  154.5493  135.5738  153.6966 H   0  0  0  0  0  0  0  0  0  0  0  0  # atno 10765 bound_to 10752
  141.1633  133.6906  156.7340 H   0  0  0  0  0  0  0  0  0  0  0  0  # atno 11005 bound_to 11000
  145.6678  139.1593  143.2772 LP  0  0  0  0  0  0  0  0  0  0  0  0  # atno 17320 bound_to 7965
  146.1635  140.6752  142.9266 LP  0  0  0  0  0  0  0  0  0  0  0  0  # atno 17321 bound_to 7965
  139.5061  144.6807  151.6016 LP  0  0  0  0  0  0  0  0  0  0  0  0  # atno 17342 bound_to 10162
  140.6075  143.9497  150.6429 LP  0  0  0  0  0  0  0  0  0  0  0  0  # atno 17343 bound_to 10162
  157.0474  130.5773  149.5365 LP  0  0  0  0  0  0  0  0  0  0  0  0  # atno 17370 bound_to 10713
  156.0102  130.5193  150.7965 LP  0  0  0  0  0  0  0  0  0  0  0  0  # atno 17371 bound_to 10713
  140.2724  134.8382  157.3859 LP  0  0  0  0  0  0  0  0  0  0  0  0  # atno 17394 bound_to 11000
  140.1509  134.4851  155.7962 LP  0  0  0  0  0  0  0  0  0  0  0  0  # atno 17395 bound_to 11000

$$$$
