AV-unprocessed.smi:3342|AV-procd|sdf|12887|dock7
  -GOLD-   2272019293D 1   1.00000     0.00000
 Structure written by MMmdl.
 42 43  0  0  0  0  0  0  0  0  2 V2000
  150.1743  143.9502  158.6119 C   0  0  0  0  0  0  0  0  0  0  0  0
  151.1426  142.7841  158.8678 C   0  0  2  0  0  0  0  0  0  0  0  0
  152.5118  143.2423  159.4160 C   0  0  0  0  0  0  0  0  0  0  0  0
  153.1648  142.2259  160.2459 N   0  0  0  0  0  0  0  0  0  0  0  0
  153.3566  142.2654  161.6029 C   0  0  0  0  0  0  0  0  0  0  0  0
  153.9964  141.1009  161.9412 C   0  0  0  0  0  0  0  0  0  0  0  0
  154.1644  140.3990  160.7776 N   0  3  0  0  0  0  0  0  0  0  0  0
  153.6555  141.0833  159.7480 C   0  0  0  0  0  0  0  0  0  0  0  0
  151.3281  142.0330  157.6299 N   0  0  0  0  0  0  0  0  0  0  0  0
  150.3709  141.3440  156.9841 C   0  0  0  0  0  0  0  0  0  0  0  0
  149.2040  141.3218  157.3789 O   0  0  0  0  0  0  0  0  0  0  0  0
  150.7941  140.6855  155.8756 N   0  0  0  0  0  0  0  0  0  0  0  0
  152.1425  140.1399  155.6482 C   0  0  0  0  0  0  0  0  0  0  0  0
  152.0940  138.6148  155.8513 C   0  0  0  0  0  0  0  0  0  0  0  0
  151.0497  137.9608  154.9143 C   0  0  0  0  0  0  0  0  0  0  0  0
  150.8963  136.4647  155.2194 C   0  0  0  0  0  0  0  0  0  0  0  0
  150.0566  135.7690  154.4489 N   0  0  0  0  0  0  0  0  0  0  0  0
  151.5269  135.9418  156.1364 O   0  0  0  0  0  0  0  0  0  0  0  0
  149.6869  138.6879  155.0095 C   0  0  0  0  0  0  0  0  0  0  0  0
  149.8559  140.2104  154.8520 C   0  0  0  0  0  0  0  0  0  0  0  0
  149.9398  144.4849  159.5324 H   0  0  0  0  0  0  0  0  0  0  0  0
  149.2309  143.5917  158.1984 H   0  0  0  0  0  0  0  0  0  0  0  0
  150.5949  144.6676  157.9066 H   0  0  0  0  0  0  0  0  0  0  0  0
  150.6734  142.1271  159.6026 H   0  0  0  0  0  0  0  0  0  0  0  0
  153.1963  143.4760  158.5994 H   0  0  0  0  0  0  0  0  0  0  0  0
  152.4040  144.1539  160.0060 H   0  0  0  0  0  0  0  0  0  0  0  0
  153.0315  143.0985  162.2098 H   0  0  0  0  0  0  0  0  0  0  0  0
  154.3341  140.7282  162.8974 H   0  0  0  0  0  0  0  0  0  0  0  0
  153.6452  140.7738  158.7179 H   0  0  0  0  0  0  0  0  0  0  0  0
  152.2605  142.0140  157.2431 H   0  0  0  0  0  0  0  0  0  0  0  0
  152.4551  140.3681  154.6282 H   0  0  0  0  0  0  0  0  0  0  0  0
  152.9105  140.5776  156.2860 H   0  0  0  0  0  0  0  0  0  0  0  0
  153.0807  138.1882  155.6664 H   0  0  0  0  0  0  0  0  0  0  0  0
  151.8568  138.4025  156.8952 H   0  0  0  0  0  0  0  0  0  0  0  0
  151.4114  138.0696  153.8902 H   0  0  0  0  0  0  0  0  0  0  0  0
  149.9234  134.7813  154.6100 H   0  0  0  0  0  0  0  0  0  0  0  0
  149.5579  136.2351  153.7050 H   0  0  0  0  0  0  0  0  0  0  0  0
  149.0082  138.3130  154.2424 H   0  0  0  0  0  0  0  0  0  0  0  0
  149.2113  138.4799  155.9695 H   0  0  0  0  0  0  0  0  0  0  0  0
  148.8840  140.7026  154.9093 H   0  0  0  0  0  0  0  0  0  0  0  0
  150.2462  140.4455  153.8608 H   0  0  0  0  0  0  0  0  0  0  0  0
  154.6076  139.4916  160.7048 H   0  0  0  0  0  0  0  0  0  0  0  0
  1  2  1  0  0  0  0
  1 21  1  0  0  0  0
  1 22  1  0  0  0  0
  1 23  1  0  0  0  0
  2  3  1  0  0  0  0
  2  9  1  0  0  0  0
  2 24  1  0  0  0  0
  3  4  1  0  0  0  0
  3 25  1  0  0  0  0
  3 26  1  0  0  0  0
  4  8  1  0  0  0  0
  4  5  1  0  0  0  0
  5  6  2  0  0  0  0
  5 27  1  0  0  0  0
  6  7  1  0  0  0  0
  6 28  1  0  0  0  0
  7  8  2  0  0  0  0
  7 42  1  0  0  0  0
  8 29  1  0  0  0  0
  9 10  1  0  0  0  0
  9 30  1  0  0  0  0
 10 11  2  0  0  0  0
 10 12  1  0  0  0  0
 12 20  1  0  0  0  0
 12 13  1  0  0  0  0
 13 14  1  0  0  0  0
 13 31  1  0  0  0  0
 13 32  1  0  0  0  0
 14 15  1  0  0  0  0
 14 33  1  0  0  0  0
 14 34  1  0  0  0  0
 15 16  1  0  0  0  0
 15 19  1  0  0  0  0
 15 35  1  0  0  0  0
 16 17  1  0  0  0  0
 16 18  2  0  0  0  0
 17 36  1  0  0  0  0
 17 37  1  0  0  0  0
 19 20  1  0  0  0  0
 19 38  1  0  0  0  0
 19 39  1  0  0  0  0
 20 40  1  0  0  0  0
 20 41  1  0  0  0  0
M  CHG  1   7   1
M  END
> <s_m_source_file>
AV-unprocessed.smi

> <i_m_source_file_index>
3342

> <i_lp_mmshare_version>
43012

> <i_f3d_flags>
0

> <s_epik_input>
W2NIXTFuW2NIXVtjSF1uMVtDSDJdW0NAQEhdKFtDSDNdKVtOSF1DKD1PKU4yW0NIMl1bQ0gyXVtDSF0oQyg9TylbTkgyXSlbQ0gyXVtDSDJdMg==

> <s_epik_cmdline>
J2VwaWtfcHl0aG9uJywgJy1waCcsICc3LjAnLCAnLXRuJywgJzgnLCAnLW1hJywgJzIwMCcsICctbWV0YWxfYmluZGluZycsICctaW1hZScsICc8aW5maWxlLm1hZT4nLCAnLW9tYWUnLCAnPG91dGZpbGUubWFlPic=

> <r_lp_tautomer_probability>
1

> <r_epik_Ionization_Penalty>
0.254015

> <r_epik_Ionization_Penalty_Charging>
0

> <r_epik_Ionization_Penalty_Neutral>
0.254015

> <r_epik_State_Penalty>
0.245417

> <r_epik_Charging_Adjusted_Penalty>
0.245417

> <i_epik_Tot_Q>
1

> <i_epik_Tot_abs_Q>
1

> <r_epik_Metal_State_Penalty>
0.535589

> <b_epik_Metal_Only>
0

> <s_lp_Force_Field>
OPLS_2005

> <r_lp_Energy>
30.9276

> <b_lp_Chiralities_Consistent>
1

> <s_lp_Variant>
AV-unprocessed.smi:3342-1

> <Gold.Version>
5.8.1

> <Gold.Id.Protein>
6NUR|6NUR_protein|mol2

> <Gold.PLP.Fitness>
44.8410

> <Gold.PLP.PLP>
-40.2295

> <Gold.PLP.part.hbond>
-2.8720

> <Gold.PLP.part.metal>
0.0000

> <Gold.PLP.part.buried>
-1.3479

> <Gold.PLP.part.nonpolar>
-35.4680

> <Gold.PLP.part.repulsive>
0.2344

> <Gold.PLP.ligand.clash>
0.0000

> <Gold.PLP.ligand.torsion>
0.7115

> <Gold.PLP.Chemscore.Hbond>
1.9760

> <Gold.PLP.Chemscore.CHOScore>
0.0000

> <Gold.PLP.Chemscore.Metal>
0.0000

> <Gold.Chemscore.Hbonds>
donor molecule, donor type, donor heavy atom, donor atom, acceptor molecule, acceptor atom, score
      L1  H    17    37       P1  7948  0.94
      P1  H 10752 10765       L1    18  0.99

> <Gold.PLP.Chemscore.Internal.Correction>
0.1065

> <Gold.Rescore>
     Score         DG    S(hbond)    S(metal)    S(lipo)     H(rot)  DE(clash)    DE(int)     intcor
     12.95     -14.13       1.48        0.00      82.88       2.34       0.44       0.75       ----

> <Gold.Chemscore.Fitness>
12.9489

> <Gold.Chemscore.DG>
-14.1302

> <Gold.Chemscore.ZeroCoef>
-5.4800

> <Gold.Chemscore.Hbond>
1.4801

> <Gold.Chemscore.Metal>
0.0000

> <Gold.Chemscore.Lipo>
82.8806

> <Gold.Chemscore.Internal_Hbond>
0.0000

> <Gold.Chemscore.DEClash>
0.4359

> <Gold.Chemscore.DEInternal>
0.7454

> <Gold.Chemscore.Rot>
2.3400

> <Gold.Chemscore.Internal.Correction>
   9.000000E+99

> <Gold.Chemscore.Hbonds>
donor molecule, donor type, donor heavy atom, donor atom, acceptor molecule, acceptor atom, score
      L1  H    17    37       P1  7948  0.50
      P1  H 10752 10765       L1    18  0.23

> <Gold.Chemscore.Hbond.Weighted>
-4.9435

> <Gold.Chemscore.Metal.Weighted>
-0.0000

> <Gold.Chemscore.Lipo.Weighted>
-9.6970

> <Gold.Chemscore.Internal_Hbond.Weighted>
0.0000

> <Gold.Chemscore.DEClash.Weighted>
0.4359

> <Gold.Chemscore.DEInternal.Weighted>
0.7454

> <Gold.Chemscore.Rot.Weighted>
5.9904

> <Gold.Chemscore.Internal.Correction.Weighted>
   9.000000E+99

> <Gold.Protein.RotatedTorsions>
[ 6907 6896 6895 6894 ] final   91.78 input  -60.11 | X-H torsion
[ 7974 7965 7964 7962 ] final    7.64 input  175.53 | X-H torsion
[ 8008 7997 7996 7995 ] final  -66.48 input   59.86 | X-H torsion
[ 10167 10162 10161 10158 ] final -100.62 input  -65.29 | X-H torsion
[ 10718 10713 10712 10709 ] final   11.37 input   66.30 | X-H torsion
[ 10763 10752 10751 10750 ] final -141.87 input  -60.55 | X-H torsion
[ 11005 11000 10999 10996 ] final  -42.65 input  -57.11 | X-H torsion

> <Gold.Protein.ActiveResidues>
 VAL166  LYS551  ARG553  GLY616  TRP617  ASP618  TYR619  PRO620  LYS621  CYS622 
 ASP623  PHE694  ASN695  SER759  ASP760  ASP761  ALA762  ILE779  LEU786  VAL792 
 PHE793  MET794  SER795  GLU796  ALA797  LYS798  CYS799  TRP800  GLU811  SER814 

> <Gold.Protein.RotatedAtoms>
  152.5451  134.1604  159.8555 H   0  0  0  0  0  0  0  0  0  0  0  0  # atno 6907 bound_to 6896
  151.1623  133.4830  159.2601 H   0  0  0  0  0  0  0  0  0  0  0  0  # atno 6908 bound_to 6896
  151.1360  135.0166  159.8659 H   0  0  0  0  0  0  0  0  0  0  0  0  # atno 6909 bound_to 6896
  146.2424  140.0053  142.8412 H   0  0  0  0  0  0  0  0  0  0  0  0  # atno 7974 bound_to 7965
  154.4737  140.0912  156.7209 H   0  0  0  0  0  0  0  0  0  0  0  0  # atno 8008 bound_to 7997
  155.4654  140.3462  155.4300 H   0  0  0  0  0  0  0  0  0  0  0  0  # atno 8009 bound_to 7997
  156.1081  140.1440  156.9364 H   0  0  0  0  0  0  0  0  0  0  0  0  # atno 8010 bound_to 7997
  140.2499  143.3479  152.0724 H   0  0  0  0  0  0  0  0  0  0  0  0  # atno 10167 bound_to 10162
  156.9945  130.6055  149.5689 H   0  0  0  0  0  0  0  0  0  0  0  0  # atno 10718 bound_to 10713
  154.8529  135.3512  154.5938 H   0  0  0  0  0  0  0  0  0  0  0  0  # atno 10763 bound_to 10752
  153.6547  135.6992  153.5202 H   0  0  0  0  0  0  0  0  0  0  0  0  # atno 10764 bound_to 10752
  153.2865  135.4247  155.1085 H   0  0  0  0  0  0  0  0  0  0  0  0  # atno 10765 bound_to 10752
  141.0330  133.6812  156.2624 H   0  0  0  0  0  0  0  0  0  0  0  0  # atno 11005 bound_to 11000
  145.1378  140.9554  143.4506 LP  0  0  0  0  0  0  0  0  0  0  0  0  # atno 17320 bound_to 7965
  145.0325  139.3328  143.6017 LP  0  0  0  0  0  0  0  0  0  0  0  0  # atno 17321 bound_to 7965
  139.5049  144.6785  151.6068 LP  0  0  0  0  0  0  0  0  0  0  0  0  # atno 17342 bound_to 10162
  140.6048  143.9544  150.6411 LP  0  0  0  0  0  0  0  0  0  0  0  0  # atno 17343 bound_to 10162
  156.0194  130.5289  150.8232 LP  0  0  0  0  0  0  0  0  0  0  0  0  # atno 17370 bound_to 10713
  157.5435  131.0941  150.9795 LP  0  0  0  0  0  0  0  0  0  0  0  0  # atno 17371 bound_to 10713
  140.6372  134.5203  157.5566 LP  0  0  0  0  0  0  0  0  0  0  0  0  # atno 17394 bound_to 11000
  139.9221  134.8128  156.1179 LP  0  0  0  0  0  0  0  0  0  0  0  0  # atno 17395 bound_to 11000

$$$$
