AV-unprocessed.smi:1784|AV-procd|sdf|7197|dock6
  -GOLD-   22720 8443D 1   1.00000     0.00000
 Structure written by MMmdl.
 43 45  0  0  0  0  0  0  0  0  1 V2000
  145.4870  138.1741  153.5190 O   0  0  0  0  0  0  0  0  0  0  0  0
  146.4916  137.5903  153.1120 C   0  0  0  0  0  0  0  0  0  0  0  0
  146.4706  136.3565  152.5898 N   0  0  0  0  0  0  0  0  0  0  0  0
  145.2817  135.5216  152.4652 C   0  0  0  0  0  0  0  0  0  0  0  0
  145.2819  134.7494  151.1363 C   0  0  1  0  0  0  0  0  0  0  0  0
  146.3497  133.6617  151.0492 C   0  0  0  0  0  0  0  0  0  0  0  0
  145.7745  132.6813  150.0381 C   0  0  0  0  0  0  0  0  0  0  0  0
  144.2947  133.0659  149.9420 C   0  0  0  0  0  0  0  0  0  0  0  0
  144.0839  134.0041  150.9876 O   0  0  0  0  0  0  0  0  0  0  0  0
  147.7425  138.0781  153.1522 N   0  0  0  0  0  0  0  0  0  0  0  0
  148.1842  139.3340  153.6581 C   0  0  0  0  0  0  0  0  0  0  0  0
  147.3766  140.4965  153.6156 C   0  0  0  0  0  0  0  0  0  0  0  0
  147.8863  141.7058  154.1209 C   0  0  0  0  0  0  0  0  0  0  0  0
  149.1908  141.7131  154.6443 C   0  0  0  0  0  0  0  0  0  0  0  0
  149.9785  140.6194  154.6763 N   0  0  0  0  0  0  0  0  0  0  0  0
  149.4950  139.4479  154.1949 C   0  0  0  0  0  0  0  0  0  0  0  0
  150.3552  138.3297  154.2081 N   0  0  0  0  0  0  0  0  0  0  0  0
  151.7322  138.6649  154.5634 C   0  0  0  0  0  0  0  0  0  0  0  0
  152.2293  137.5539  155.4923 C   0  0  0  0  0  0  0  0  0  0  0  0
  150.9449  137.0118  156.1072 C   0  0  0  0  0  0  0  0  0  0  0  0
  149.9537  137.1381  154.9531 C   0  0  0  0  0  0  0  0  0  0  0  0
  147.3442  135.9509  152.2880 H   0  0  0  0  0  0  0  0  0  0  0  0
  145.2229  134.8282  153.3058 H   0  0  0  0  0  0  0  0  0  0  0  0
  144.4012  136.1613  152.5296 H   0  0  0  0  0  0  0  0  0  0  0  0
  145.3857  135.4330  150.2911 H   0  0  0  0  0  0  0  0  0  0  0  0
  147.3242  134.0532  150.7558 H   0  0  0  0  0  0  0  0  0  0  0  0
  146.4627  133.1655  152.0139 H   0  0  0  0  0  0  0  0  0  0  0  0
  146.2591  132.7796  149.0662 H   0  0  0  0  0  0  0  0  0  0  0  0
  145.9044  131.6527  150.3758 H   0  0  0  0  0  0  0  0  0  0  0  0
  144.0839  133.5440  148.9843 H   0  0  0  0  0  0  0  0  0  0  0  0
  143.6308  132.2075  150.0473 H   0  0  0  0  0  0  0  0  0  0  0  0
  148.4763  137.4410  152.8790 H   0  0  0  0  0  0  0  0  0  0  0  0
  146.3840  140.4855  153.1923 H   0  0  0  0  0  0  0  0  0  0  0  0
  147.2924  142.6073  154.1027 H   0  0  0  0  0  0  0  0  0  0  0  0
  149.6174  142.6230  155.0396 H   0  0  0  0  0  0  0  0  0  0  0  0
  152.3558  138.7445  153.6729 H   0  0  0  0  0  0  0  0  0  0  0  0
  151.7684  139.6253  155.0805 H   0  0  0  0  0  0  0  0  0  0  0  0
  152.7153  136.7720  154.9073 H   0  0  0  0  0  0  0  0  0  0  0  0
  152.9416  137.9109  156.2366 H   0  0  0  0  0  0  0  0  0  0  0  0
  151.0425  135.9899  156.4744 H   0  0  0  0  0  0  0  0  0  0  0  0
  150.6326  137.6456  156.9383 H   0  0  0  0  0  0  0  0  0  0  0  0
  148.9207  137.1533  155.3017 H   0  0  0  0  0  0  0  0  0  0  0  0
  150.0489  136.2813  154.2854 H   0  0  0  0  0  0  0  0  0  0  0  0
  1  2  2  0  0  0  0
  2  3  1  0  0  0  0
  2 10  1  0  0  0  0
  3  4  1  0  0  0  0
  3 22  1  0  0  0  0
  4  5  1  0  0  0  0
  4 23  1  0  0  0  0
  4 24  1  0  0  0  0
  5  9  1  0  0  0  0
  5  6  1  0  0  0  0
  5 25  1  0  0  0  0
  6  7  1  0  0  0  0
  6 26  1  0  0  0  0
  6 27  1  0  0  0  0
  7  8  1  0  0  0  0
  7 28  1  0  0  0  0
  7 29  1  0  0  0  0
  8  9  1  0  0  0  0
  8 30  1  0  0  0  0
  8 31  1  0  0  0  0
 10 11  1  0  0  0  0
 10 32  1  0  0  0  0
 11 16  1  0  0  0  0
 11 12  2  0  0  0  0
 12 13  1  0  0  0  0
 12 33  1  0  0  0  0
 13 14  2  0  0  0  0
 13 34  1  0  0  0  0
 14 15  1  0  0  0  0
 14 35  1  0  0  0  0
 15 16  2  0  0  0  0
 16 17  1  0  0  0  0
 17 21  1  0  0  0  0
 17 18  1  0  0  0  0
 18 19  1  0  0  0  0
 18 36  1  0  0  0  0
 18 37  1  0  0  0  0
 19 20  1  0  0  0  0
 19 38  1  0  0  0  0
 19 39  1  0  0  0  0
 20 21  1  0  0  0  0
 20 40  1  0  0  0  0
 20 41  1  0  0  0  0
 21 42  1  0  0  0  0
 21 43  1  0  0  0  0
M  END
> <s_m_source_file>
AV-unprocessed.smi

> <i_m_source_file_index>
1784

> <i_lp_mmshare_version>
43012

> <i_f3d_flags>
0

> <s_epik_input>
TzFbQ0gyXVtDSDJdW0NIMl1bQ0BIXTFbQ0gyXVtOSF1DKD1PKVtOSF1jMltjSF1bY0hdW2NIXW5jMk4zW0NIMl1bQ0gyXVtDSDJdW0NIMl0z

> <s_epik_cmdline>
J2VwaWtfcHl0aG9uJywgJy1waCcsICc3LjAnLCAnLXRuJywgJzgnLCAnLW1hJywgJzIwMCcsICctbWV0YWxfYmluZGluZycsICctaW1hZScsICc8aW5maWxlLm1hZT4nLCAnLW9tYWUnLCAnPG91dGZpbGUubWFlPic=

> <r_lp_tautomer_probability>
1

> <r_epik_Ionization_Penalty>
0.0982482

> <r_epik_Ionization_Penalty_Charging>
0

> <r_epik_Ionization_Penalty_Neutral>
0.0982482

> <r_epik_State_Penalty>
0.0877864

> <r_epik_Charging_Adjusted_Penalty>
0.0877864

> <i_epik_Tot_Q>
0

> <i_epik_Tot_abs_Q>
0

> <r_epik_Metal_State_Penalty>
0.0752567

> <b_epik_Metal_Only>
0

> <s_lp_Force_Field>
OPLS_2005

> <r_lp_Energy>
44.9043

> <b_lp_Chiralities_Consistent>
1

> <s_lp_Variant>
AV-unprocessed.smi:1784-2

> <Gold.Version>
5.8.1

> <Gold.Id.Protein>
6NUR|6NUR_protein|mol2

> <Gold.PLP.Fitness>
43.6349

> <Gold.PLP.PLP>
-33.3312

> <Gold.PLP.part.hbond>
-3.0000

> <Gold.PLP.part.metal>
0.0000

> <Gold.PLP.part.buried>
-0.4583

> <Gold.PLP.part.nonpolar>
-30.2379

> <Gold.PLP.part.repulsive>
0.8510

> <Gold.PLP.ligand.clash>
0.0000

> <Gold.PLP.ligand.torsion>
0.4519

> <Gold.PLP.Chemscore.Hbond>
2.6992

> <Gold.PLP.Chemscore.CHOScore>
1.0000

> <Gold.PLP.Chemscore.Metal>
0.0000

> <Gold.Chemscore.Hbonds>
donor molecule, donor type, donor heavy atom, donor atom, acceptor molecule, acceptor atom, score
      L1  H     3    22       P1  7948  0.94
      L1  H    10    32       P1  7948  0.94
      P1  H  7989  7998       L1    15  0.82
      L1  C    14    35       P1  8028  1.00

> <Gold.PLP.Chemscore.Internal.Correction>
0.1098

> <Gold.Rescore>
     Score         DG    S(hbond)    S(metal)    S(lipo)     H(rot)  DE(clash)    DE(int)     intcor
     16.64     -18.39       1.89        0.00      86.54       1.38       0.07       1.69       ----

> <Gold.Chemscore.Fitness>
16.6366

> <Gold.Chemscore.DG>
-18.3911

> <Gold.Chemscore.ZeroCoef>
-5.4800

> <Gold.Chemscore.Hbond>
1.8914

> <Gold.Chemscore.Metal>
0.0000

> <Gold.Chemscore.Lipo>
86.5442

> <Gold.Chemscore.Internal_Hbond>
0.0000

> <Gold.Chemscore.DEClash>
0.0651

> <Gold.Chemscore.DEInternal>
1.6894

> <Gold.Chemscore.Rot>
1.3796

> <Gold.Chemscore.Internal.Correction>
   9.000000E+99

> <Gold.Chemscore.Hbonds>
donor molecule, donor type, donor heavy atom, donor atom, acceptor molecule, acceptor atom, score
      L1  H     3    22       P1  7948  0.91
      L1  H    10    32       P1  7948  0.92
      P1  H  7989  7998       L1    15  0.17

> <Gold.Chemscore.Hbond.Weighted>
-6.3171

> <Gold.Chemscore.Metal.Weighted>
-0.0000

> <Gold.Chemscore.Lipo.Weighted>
-10.1257

> <Gold.Chemscore.Internal_Hbond.Weighted>
0.0000

> <Gold.Chemscore.DEClash.Weighted>
0.0651

> <Gold.Chemscore.DEInternal.Weighted>
1.6894

> <Gold.Chemscore.Rot.Weighted>
3.5317

> <Gold.Chemscore.Internal.Correction.Weighted>
   9.000000E+99

> <Gold.Protein.RotatedTorsions>
[ 6907 6896 6895 6894 ] final  -55.17 input  -60.11 | X-H torsion
[ 7974 7965 7964 7962 ] final  -92.49 input  175.53 | X-H torsion
[ 8008 7997 7996 7995 ] final   86.90 input   59.86 | X-H torsion
[ 10167 10162 10161 10158 ] final  106.14 input  -65.29 | X-H torsion
[ 10718 10713 10712 10709 ] final  158.89 input   66.30 | X-H torsion
[ 10763 10752 10751 10750 ] final  168.34 input  -60.55 | X-H torsion
[ 11005 11000 10999 10996 ] final  -83.67 input  -57.11 | X-H torsion

> <Gold.Protein.ActiveResidues>
 VAL166  LYS551  ARG553  GLY616  TRP617  ASP618  TYR619  PRO620  LYS621  CYS622 
 ASP623  PHE694  ASN695  SER759  ASP760  ASP761  ALA762  ILE779  LEU786  VAL792 
 PHE793  MET794  SER795  GLU796  ALA797  LYS798  CYS799  TRP800  GLU811  SER814 

> <Gold.Protein.RotatedAtoms>
  150.8274  134.7512  159.6824 H   0  0  0  0  0  0  0  0  0  0  0  0  # atno 6907 bound_to 6896
  152.4383  134.5638  159.9911 H   0  0  0  0  0  0  0  0  0  0  0  0  # atno 6908 bound_to 6896
  151.5807  133.3340  159.3044 H   0  0  0  0  0  0  0  0  0  0  0  0  # atno 6909 bound_to 6896
  145.3992  140.9536  143.2297 H   0  0  0  0  0  0  0  0  0  0  0  0  # atno 7974 bound_to 7965
  155.9687  140.3387  155.6556 H   0  0  0  0  0  0  0  0  0  0  0  0  # atno 8008 bound_to 7997
  155.6703  140.0726  157.2540 H   0  0  0  0  0  0  0  0  0  0  0  0  # atno 8009 bound_to 7997
  154.4161  140.1692  156.1860 H   0  0  0  0  0  0  0  0  0  0  0  0  # atno 8010 bound_to 7997
  139.7034  144.7090  151.1147 H   0  0  0  0  0  0  0  0  0  0  0  0  # atno 10167 bound_to 10162
  157.1717  131.0611  151.2179 H   0  0  0  0  0  0  0  0  0  0  0  0  # atno 10718 bound_to 10713
  154.3672  135.2753  155.2287 H   0  0  0  0  0  0  0  0  0  0  0  0  # atno 10763 bound_to 10752
  154.4450  135.5945  153.6157 H   0  0  0  0  0  0  0  0  0  0  0  0  # atno 10764 bound_to 10752
  152.9840  135.6028  154.3899 H   0  0  0  0  0  0  0  0  0  0  0  0  # atno 10765 bound_to 10752
  141.1656  133.7306  156.8755 H   0  0  0  0  0  0  0  0  0  0  0  0  # atno 11005 bound_to 11000
  144.8386  139.5509  143.6911 LP  0  0  0  0  0  0  0  0  0  0  0  0  # atno 17320 bound_to 7965
  146.2760  139.6754  142.9262 LP  0  0  0  0  0  0  0  0  0  0  0  0  # atno 17321 bound_to 7965
  140.7715  143.5392  150.9332 LP  0  0  0  0  0  0  0  0  0  0  0  0  # atno 17342 bound_to 10162
  139.9075  143.6761  152.3121 LP  0  0  0  0  0  0  0  0  0  0  0  0  # atno 17343 bound_to 10162
  157.4036  130.7347  149.6786 LP  0  0  0  0  0  0  0  0  0  0  0  0  # atno 17370 bound_to 10713
  155.9737  130.4114  150.3979 LP  0  0  0  0  0  0  0  0  0  0  0  0  # atno 17371 bound_to 10713
  140.1752  134.9072  157.2882 LP  0  0  0  0  0  0  0  0  0  0  0  0  # atno 17394 bound_to 11000
  140.2457  134.3742  155.7462 LP  0  0  0  0  0  0  0  0  0  0  0  0  # atno 17395 bound_to 11000

$$$$
