AV-unprocessed.smi:1794|AV-procd|sdf|7234|dock7
  -GOLD-   22720 8483D 1   1.00000     0.00000
 Structure written by MMmdl.
 55 57  0  0  0  0  0  0  0  0  2 V2000
  149.4576  140.1003  153.7445 C   0  0  0  0  0  0  0  0  0  0  0  0
  150.2304  139.4820  154.9341 C   0  0  0  0  0  0  0  0  0  0  0  0
  149.1985  138.7114  155.7982 C   0  0  0  0  0  0  0  0  0  0  0  0
  151.2006  138.4110  154.3526 C   0  0  0  0  0  0  0  0  0  0  0  0
  150.4914  137.2249  153.8740 N   0  0  0  0  0  0  0  0  0  0  0  0
  150.4922  136.0194  154.4591 C   0  0  0  0  0  0  0  0  0  0  0  0
  151.1759  135.7308  155.4409 O   0  0  0  0  0  0  0  0  0  0  0  0
  149.6303  135.1887  153.8510 N   0  0  0  0  0  0  0  0  0  0  0  0
  149.2595  133.8759  154.2549 C   0  0  0  0  0  0  0  0  0  0  0  0
  150.0541  133.1153  155.1496 C   0  0  0  0  0  0  0  0  0  0  0  0
  149.6473  131.8177  155.5150 C   0  0  0  0  0  0  0  0  0  0  0  0
  148.4583  131.2973  154.9731 C   0  0  0  0  0  0  0  0  0  0  0  0
  147.7331  132.0411  154.1119 N   0  3  0  0  0  0  0  0  0  0  0  0
  148.0744  133.2958  153.7271 C   0  0  0  0  0  0  0  0  0  0  0  0
  147.2533  133.9751  152.8031 N   0  0  0  0  0  0  0  0  0  0  0  0
  147.1627  133.3241  151.4988 C   0  0  0  0  0  0  0  0  0  0  0  0
  145.7248  133.5227  151.0141 C   0  0  0  0  0  0  0  0  0  0  0  0
  144.9386  133.6628  152.3120 C   0  0  0  0  0  0  0  0  0  0  0  0
  145.9195  134.4145  153.2095 C   0  0  0  0  0  0  0  0  0  0  0  0
  150.9595  140.4984  155.7436 N   0  0  0  0  0  0  0  0  0  0  0  0
  151.5759  139.9915  156.9748 C   0  0  0  0  0  0  0  0  0  0  0  0
  152.4151  141.0687  157.6849 C   0  0  0  0  0  0  0  0  0  0  0  0
  151.6106  142.2106  157.9554 O   0  0  0  0  0  0  0  0  0  0  0  0
  151.0342  142.7624  156.7779 C   0  0  0  0  0  0  0  0  0  0  0  0
  150.1781  141.6949  156.0779 C   0  0  0  0  0  0  0  0  0  0  0  0
  148.9111  139.3345  153.1928 H   0  0  0  0  0  0  0  0  0  0  0  0
  150.1227  140.5851  153.0299 H   0  0  0  0  0  0  0  0  0  0  0  0
  148.7244  140.8386  154.0686 H   0  0  0  0  0  0  0  0  0  0  0  0
  148.7892  137.8534  155.2636 H   0  0  0  0  0  0  0  0  0  0  0  0
  148.3445  139.3320  156.0700 H   0  0  0  0  0  0  0  0  0  0  0  0
  149.6410  138.3385  156.7228 H   0  0  0  0  0  0  0  0  0  0  0  0
  151.7423  138.8235  153.5005 H   0  0  0  0  0  0  0  0  0  0  0  0
  151.9803  138.1486  155.0683 H   0  0  0  0  0  0  0  0  0  0  0  0
  149.8976  137.3576  153.0686 H   0  0  0  0  0  0  0  0  0  0  0  0
  149.0745  135.5917  153.1112 H   0  0  0  0  0  0  0  0  0  0  0  0
  150.9763  133.5051  155.5536 H   0  0  0  0  0  0  0  0  0  0  0  0
  150.2425  131.2295  156.1980 H   0  0  0  0  0  0  0  0  0  0  0  0
  148.0718  130.3129  155.1940 H   0  0  0  0  0  0  0  0  0  0  0  0
  147.8786  133.7497  150.7950 H   0  0  0  0  0  0  0  0  0  0  0  0
  147.3795  132.2585  151.5939 H   0  0  0  0  0  0  0  0  0  0  0  0
  145.6524  134.4468  150.4389 H   0  0  0  0  0  0  0  0  0  0  0  0
  145.3716  132.7046  150.3856 H   0  0  0  0  0  0  0  0  0  0  0  0
  143.9911  134.1869  152.1847 H   0  0  0  0  0  0  0  0  0  0  0  0
  144.7301  132.6768  152.7297 H   0  0  0  0  0  0  0  0  0  0  0  0
  145.6951  134.2708  154.2663 H   0  0  0  0  0  0  0  0  0  0  0  0
  145.8521  135.4856  153.0155 H   0  0  0  0  0  0  0  0  0  0  0  0
  150.8091  139.6307  157.6605 H   0  0  0  0  0  0  0  0  0  0  0  0
  152.2339  139.1507  156.7635 H   0  0  0  0  0  0  0  0  0  0  0  0
  152.8106  140.6820  158.6241 H   0  0  0  0  0  0  0  0  0  0  0  0
  153.2706  141.3565  157.0719 H   0  0  0  0  0  0  0  0  0  0  0  0
  150.4210  143.6211  157.0507 H   0  0  0  0  0  0  0  0  0  0  0  0
  151.8185  143.1260  156.1120 H   0  0  0  0  0  0  0  0  0  0  0  0
  149.7432  142.1440  155.1887 H   0  0  0  0  0  0  0  0  0  0  0  0
  149.3470  141.4307  156.7322 H   0  0  0  0  0  0  0  0  0  0  0  0
  146.8810  131.6341  153.7258 H   0  0  0  0  0  0  0  0  0  0  0  0
  1  2  1  0  0  0  0
  1 26  1  0  0  0  0
  1 27  1  0  0  0  0
  1 28  1  0  0  0  0
  2  3  1  0  0  0  0
  2  4  1  0  0  0  0
  2 20  1  0  0  0  0
  3 29  1  0  0  0  0
  3 30  1  0  0  0  0
  3 31  1  0  0  0  0
  4  5  1  0  0  0  0
  4 32  1  0  0  0  0
  4 33  1  0  0  0  0
  5  6  1  0  0  0  0
  5 34  1  0  0  0  0
  6  7  2  0  0  0  0
  6  8  1  0  0  0  0
  8  9  1  0  0  0  0
  8 35  1  0  0  0  0
  9 14  1  0  0  0  0
  9 10  2  0  0  0  0
 10 11  1  0  0  0  0
 10 36  1  0  0  0  0
 11 12  2  0  0  0  0
 11 37  1  0  0  0  0
 12 13  1  0  0  0  0
 12 38  1  0  0  0  0
 13 14  2  0  0  0  0
 13 55  1  0  0  0  0
 14 15  1  0  0  0  0
 15 19  1  0  0  0  0
 15 16  1  0  0  0  0
 16 17  1  0  0  0  0
 16 39  1  0  0  0  0
 16 40  1  0  0  0  0
 17 18  1  0  0  0  0
 17 41  1  0  0  0  0
 17 42  1  0  0  0  0
 18 19  1  0  0  0  0
 18 43  1  0  0  0  0
 18 44  1  0  0  0  0
 19 45  1  0  0  0  0
 19 46  1  0  0  0  0
 20 25  1  0  0  0  0
 20 21  1  0  0  0  0
 21 22  1  0  0  0  0
 21 47  1  0  0  0  0
 21 48  1  0  0  0  0
 22 23  1  0  0  0  0
 22 49  1  0  0  0  0
 22 50  1  0  0  0  0
 23 24  1  0  0  0  0
 24 25  1  0  0  0  0
 24 51  1  0  0  0  0
 24 52  1  0  0  0  0
 25 53  1  0  0  0  0
 25 54  1  0  0  0  0
M  CHG  1  13   1
M  END
> <s_m_source_file>
AV-unprocessed.smi

> <i_m_source_file_index>
1794

> <i_lp_mmshare_version>
43012

> <i_f3d_flags>
0

> <s_epik_input>
W0NIMl0xW0NIMl1PW0NIMl1bQ0gyXU4xQyhbQ0gzXSkoW0NIM10pW0NIMl1bTkhdQyg9TylbTkhdYzJbY0hdW2NIXVtjSF1uYzJOM1tDSDJdW0NIMl1bQ0gyXVtDSDJdMw==

> <s_epik_cmdline>
J2VwaWtfcHl0aG9uJywgJy1waCcsICc3LjAnLCAnLXRuJywgJzgnLCAnLW1hJywgJzIwMCcsICctbWV0YWxfYmluZGluZycsICctaW1hZScsICc8aW5maWxlLm1hZT4nLCAnLW9tYWUnLCAnPG91dGZpbGUubWFlPic=

> <r_epik_Ionization_Penalty>
1.36967

> <r_epik_Ionization_Penalty_Charging>
1.10366

> <r_epik_Ionization_Penalty_Neutral>
0.266011

> <r_epik_State_Penalty>
1.45237

> <r_epik_Charging_Adjusted_Penalty>
2.55603

> <i_epik_Tot_Q>
1

> <i_epik_Tot_abs_Q>
1

> <r_epik_Metal_State_Penalty>
1.53539

> <b_epik_Metal_Only>
0

> <s_lp_Force_Field>
OPLS_2005

> <r_lp_Energy>
75.8074

> <b_lp_Chiralities_Consistent>
1

> <s_lp_Variant>
AV-unprocessed.smi:1794-3

> <Gold.Version>
5.8.1

> <Gold.Id.Protein>
6NUR|6NUR_protein|mol2

> <Gold.PLP.Fitness>
43.4312

> <Gold.PLP.PLP>
-36.3915

> <Gold.PLP.part.hbond>
-5.0000

> <Gold.PLP.part.metal>
0.0000

> <Gold.PLP.part.buried>
-1.7670

> <Gold.PLP.part.nonpolar>
-29.8104

> <Gold.PLP.part.repulsive>
1.1673

> <Gold.PLP.ligand.clash>
0.0000

> <Gold.PLP.ligand.torsion>
0.5565

> <Gold.PLP.Chemscore.Hbond>
2.6500

> <Gold.PLP.Chemscore.CHOScore>
0.0000

> <Gold.PLP.Chemscore.Metal>
0.0000

> <Gold.Chemscore.Hbonds>
donor molecule, donor type, donor heavy atom, donor atom, acceptor molecule, acceptor atom, score
      L1  H     5    34       P1  7948  0.72
      L1  H     8    35       P1  7948  0.61
      P1  H 10752 10764       L1     7  0.96

> <Gold.PLP.Chemscore.Internal.Correction>
0.2028

> <Gold.Rescore>
     Score         DG    S(hbond)    S(metal)    S(lipo)     H(rot)  DE(clash)    DE(int)     intcor
     15.22     -17.08       1.85        0.00      80.79       1.58       0.00       1.86       ----

> <Gold.Chemscore.Fitness>
15.2179

> <Gold.Chemscore.DG>
-17.0818

> <Gold.Chemscore.ZeroCoef>
-5.4800

> <Gold.Chemscore.Hbond>
1.8545

> <Gold.Chemscore.Metal>
0.0000

> <Gold.Chemscore.Lipo>
80.7926

> <Gold.Chemscore.Internal_Hbond>
0.0000

> <Gold.Chemscore.DEClash>
0.0018

> <Gold.Chemscore.DEInternal>
1.8621

> <Gold.Chemscore.Rot>
1.5800

> <Gold.Chemscore.Internal.Correction>
   9.000000E+99

> <Gold.Chemscore.Hbonds>
donor molecule, donor type, donor heavy atom, donor atom, acceptor molecule, acceptor atom, score
      L1  H     5    34       P1  7948  0.22
      L1  H     8    35       P1  7948  0.33
      P1  H 10752 10764       L1     7  0.78

> <Gold.Chemscore.Hbond.Weighted>
-6.1940

> <Gold.Chemscore.Metal.Weighted>
-0.0000

> <Gold.Chemscore.Lipo.Weighted>
-9.4527

> <Gold.Chemscore.Internal_Hbond.Weighted>
0.0000

> <Gold.Chemscore.DEClash.Weighted>
0.0018

> <Gold.Chemscore.DEInternal.Weighted>
1.8621

> <Gold.Chemscore.Rot.Weighted>
4.0449

> <Gold.Chemscore.Internal.Correction.Weighted>
   9.000000E+99

> <Gold.Protein.RotatedTorsions>
[ 6907 6896 6895 6894 ] final  144.74 input  -60.11 | X-H torsion
[ 7974 7965 7964 7962 ] final  160.05 input  175.53 | X-H torsion
[ 8008 7997 7996 7995 ] final   14.20 input   59.86 | X-H torsion
[ 10167 10162 10161 10158 ] final -133.38 input  -65.29 | X-H torsion
[ 10718 10713 10712 10709 ] final  -67.23 input   66.30 | X-H torsion
[ 10763 10752 10751 10750 ] final  -29.67 input  -60.55 | X-H torsion
[ 11005 11000 10999 10996 ] final  -96.64 input  -57.11 | X-H torsion

> <Gold.Protein.ActiveResidues>
 VAL166  LYS551  ARG553  GLY616  TRP617  ASP618  TYR619  PRO620  LYS621  CYS622 
 ASP623  PHE694  ASN695  SER759  ASP760  ASP761  ALA762  ILE779  LEU786  VAL792 
 PHE793  MET794  SER795  GLU796  ALA797  LYS798  CYS799  TRP800  GLU811  SER814 

> <Gold.Protein.RotatedAtoms>
  152.1898  133.4765  159.5001 H   0  0  0  0  0  0  0  0  0  0  0  0  # atno 6907 bound_to 6896
  150.6949  134.1726  159.4227 H   0  0  0  0  0  0  0  0  0  0  0  0  # atno 6908 bound_to 6896
  151.9641  135.0109  160.0600 H   0  0  0  0  0  0  0  0  0  0  0  0  # atno 6909 bound_to 6896
  144.7757  139.7703  143.6279 H   0  0  0  0  0  0  0  0  0  0  0  0  # atno 7974 bound_to 7965
  154.8452  140.2921  155.5634 H   0  0  0  0  0  0  0  0  0  0  0  0  # atno 8008 bound_to 7997
  156.3014  140.2506  156.3333 H   0  0  0  0  0  0  0  0  0  0  0  0  # atno 8009 bound_to 7997
  154.9082  140.0389  157.1920 H   0  0  0  0  0  0  0  0  0  0  0  0  # atno 8010 bound_to 7997
  139.8989  143.6632  152.2598 H   0  0  0  0  0  0  0  0  0  0  0  0  # atno 10167 bound_to 10162
  156.0569  130.4274  150.1824 H   0  0  0  0  0  0  0  0  0  0  0  0  # atno 10718 bound_to 10713
  153.7684  135.6914  153.4911 H   0  0  0  0  0  0  0  0  0  0  0  0  # atno 10763 bound_to 10752
  153.1891  135.4478  155.0125 H   0  0  0  0  0  0  0  0  0  0  0  0  # atno 10764 bound_to 10752
  154.8127  135.3384  154.7195 H   0  0  0  0  0  0  0  0  0  0  0  0  # atno 10765 bound_to 10752
  141.1405  133.8112  157.0598 H   0  0  0  0  0  0  0  0  0  0  0  0  # atno 11005 bound_to 11000
  146.1935  139.5188  142.9790 LP  0  0  0  0  0  0  0  0  0  0  0  0  # atno 17320 bound_to 7965
  145.6193  141.0325  143.1924 LP  0  0  0  0  0  0  0  0  0  0  0  0  # atno 17321 bound_to 7965
  139.7043  144.7630  151.1220 LP  0  0  0  0  0  0  0  0  0  0  0  0  # atno 17342 bound_to 10162
  140.7711  143.5416  150.9306 LP  0  0  0  0  0  0  0  0  0  0  0  0  # atno 17343 bound_to 10162
  156.9898  130.9890  151.3417 LP  0  0  0  0  0  0  0  0  0  0  0  0  # atno 17370 bound_to 10713
  157.5546  130.8205  149.8188 LP  0  0  0  0  0  0  0  0  0  0  0  0  # atno 17371 bound_to 10713
  140.0578  134.9771  157.1252 LP  0  0  0  0  0  0  0  0  0  0  0  0  # atno 17394 bound_to 11000
  140.3893  134.2202  155.7167 LP  0  0  0  0  0  0  0  0  0  0  0  0  # atno 17395 bound_to 11000

$$$$
