AV-unprocessed.smi:2544|AV-procd|sdf|9994|dock1
  -GOLD-   2272014 43D 1   1.00000     0.00000
 Structure written by MMmdl.
 40 41  0  0  0  0  0  0  0  0  1 V2000
  145.2116  142.7247  154.6186 C   0  0  0  0  0  0  0  0  0  0  0  0
  146.5546  142.8905  153.8987 C   0  0  0  0  0  0  0  0  0  0  0  0
  147.3759  141.6932  154.0053 N   0  0  0  0  0  0  0  0  0  0  0  0
  148.5761  141.7021  154.7084 C   0  0  0  0  0  0  0  0  0  0  0  0
  149.4035  140.6435  154.8024 C   0  0  0  0  0  0  0  0  0  0  0  0
  149.0449  139.3821  154.1225 C   0  0  0  0  0  0  0  0  0  0  0  0
  149.7741  138.3930  154.1941 O   0  0  0  0  0  0  0  0  0  0  0  0
  147.7693  139.3763  153.3579 C   0  0  0  0  0  0  0  0  0  0  0  0
  147.4357  138.1717  152.7160 N   0  0  0  0  0  0  0  0  0  0  0  0
  146.2234  137.6776  152.4036 C   0  0  0  0  0  0  0  0  0  0  0  0
  145.1436  138.2318  152.6070 O   0  0  0  0  0  0  0  0  0  0  0  0
  146.3328  136.4752  151.8197 N   0  0  0  0  0  0  0  0  0  0  0  0
  145.2143  135.6505  151.3706 C   0  0  0  0  0  0  0  0  0  0  0  0
  144.2980  135.3252  152.5653 C   0  0  0  0  0  0  0  0  0  0  0  0
  143.1305  134.4171  152.1454 C   0  0  0  0  0  0  0  0  0  0  0  0
  143.6374  133.1296  151.4769 C   0  0  0  0  0  0  0  0  0  0  0  0
  144.5545  133.4467  150.2850 C   0  0  0  0  0  0  0  0  0  0  0  0
  145.7220  134.3555  150.7030 C   0  0  0  0  0  0  0  0  0  0  0  0
  147.0271  140.5135  153.3503 C   0  0  0  0  0  0  0  0  0  0  0  0
  144.6062  143.6258  154.5215 H   0  0  0  0  0  0  0  0  0  0  0  0
  145.3559  142.5334  155.6823 H   0  0  0  0  0  0  0  0  0  0  0  0
  144.6418  141.8936  154.2022 H   0  0  0  0  0  0  0  0  0  0  0  0
  146.3837  143.1227  152.8467 H   0  0  0  0  0  0  0  0  0  0  0  0
  147.0958  143.7409  154.3150 H   0  0  0  0  0  0  0  0  0  0  0  0
  148.8012  142.6414  155.1927 H   0  0  0  0  0  0  0  0  0  0  0  0
  150.3247  140.6958  155.3641 H   0  0  0  0  0  0  0  0  0  0  0  0
  148.2303  137.6097  152.4474 H   0  0  0  0  0  0  0  0  0  0  0  0
  147.2584  136.0949  151.6858 H   0  0  0  0  0  0  0  0  0  0  0  0
  144.6281  136.2143  150.6421 H   0  0  0  0  0  0  0  0  0  0  0  0
  144.8735  134.8338  153.3511 H   0  0  0  0  0  0  0  0  0  0  0  0
  143.9068  136.2466  152.9984 H   0  0  0  0  0  0  0  0  0  0  0  0
  142.5207  134.1695  153.0147 H   0  0  0  0  0  0  0  0  0  0  0  0
  142.4798  134.9554  151.4553 H   0  0  0  0  0  0  0  0  0  0  0  0
  144.1809  132.5277  152.2064 H   0  0  0  0  0  0  0  0  0  0  0  0
  142.7922  132.5256  151.1453 H   0  0  0  0  0  0  0  0  0  0  0  0
  144.9386  132.5212  149.8551 H   0  0  0  0  0  0  0  0  0  0  0  0
  143.9762  133.9351  149.4997 H   0  0  0  0  0  0  0  0  0  0  0  0
  146.3283  134.5938  149.8283 H   0  0  0  0  0  0  0  0  0  0  0  0
  146.3730  133.8146  151.3916 H   0  0  0  0  0  0  0  0  0  0  0  0
  146.0810  140.5950  152.8398 H   0  0  0  0  0  0  0  0  0  0  0  0
  1  2  1  0  0  0  0
  1 20  1  0  0  0  0
  1 21  1  0  0  0  0
  1 22  1  0  0  0  0
  2  3  1  0  0  0  0
  2 23  1  0  0  0  0
  2 24  1  0  0  0  0
  3 19  1  0  0  0  0
  3  4  1  0  0  0  0
  4  5  2  0  0  0  0
  4 25  1  0  0  0  0
  5  6  1  0  0  0  0
  5 26  1  0  0  0  0
  6  7  2  0  0  0  0
  6  8  1  0  0  0  0
  8  9  1  0  0  0  0
  8 19  2  0  0  0  0
  9 10  1  0  0  0  0
  9 27  1  0  0  0  0
 10 11  2  0  0  0  0
 10 12  1  0  0  0  0
 12 13  1  0  0  0  0
 12 28  1  0  0  0  0
 13 18  1  0  0  0  0
 13 14  1  0  0  0  0
 13 29  1  0  0  0  0
 14 15  1  0  0  0  0
 14 30  1  0  0  0  0
 14 31  1  0  0  0  0
 15 16  1  0  0  0  0
 15 32  1  0  0  0  0
 15 33  1  0  0  0  0
 16 17  1  0  0  0  0
 16 34  1  0  0  0  0
 16 35  1  0  0  0  0
 17 18  1  0  0  0  0
 17 36  1  0  0  0  0
 17 37  1  0  0  0  0
 18 38  1  0  0  0  0
 18 39  1  0  0  0  0
 19 40  1  0  0  0  0
M  END
> <s_m_source_file>
AV-unprocessed.smi

> <i_m_source_file_index>
2544

> <i_lp_mmshare_version>
43012

> <i_f3d_flags>
0

> <s_epik_input>
W0NIM11bQ0gyXW4xW2NIXVtjSF1jKD1PKWMoW2NIXTEpW05IXUMoPU8pW05IXVtDSF0yW0NIMl1bQ0gyXVtDSDJdW0NIMl1bQ0gyXTI=

> <s_epik_cmdline>
J2VwaWtfcHl0aG9uJywgJy1waCcsICc3LjAnLCAnLXRuJywgJzgnLCAnLW1hJywgJzIwMCcsICctbWV0YWxfYmluZGluZycsICctaW1hZScsICc8aW5maWxlLm1hZT4nLCAnLW9tYWUnLCAnPG91dGZpbGUubWFlPic=

> <r_lp_tautomer_probability>
1

> <r_epik_Ionization_Penalty>
0.00144746

> <r_epik_Ionization_Penalty_Charging>
0.00142605

> <r_epik_Ionization_Penalty_Neutral>
2.14089e-05

> <r_epik_State_Penalty>
0.000952116

> <r_epik_Charging_Adjusted_Penalty>
0.00237816

> <i_epik_Tot_Q>
0

> <i_epik_Tot_abs_Q>
0

> <r_epik_Metal_State_Penalty>
-0

> <b_epik_Metal_Only>
0

> <s_lp_Force_Field>
OPLS_2005

> <r_lp_Energy>
3.66557

> <b_lp_Chiralities_Consistent>
1

> <s_lp_Variant>
AV-unprocessed.smi:2544-1

> <Gold.Version>
5.8.1

> <Gold.Id.Protein>
6NUR|6NUR_protein|mol2

> <Gold.PLP.Fitness>
46.9235

> <Gold.PLP.PLP>
-35.3438

> <Gold.PLP.part.hbond>
-2.2467

> <Gold.PLP.part.metal>
0.0000

> <Gold.PLP.part.buried>
-2.2295

> <Gold.PLP.part.nonpolar>
-34.1968

> <Gold.PLP.part.repulsive>
3.3861

> <Gold.PLP.ligand.clash>
0.0000

> <Gold.PLP.ligand.torsion>
0.2170

> <Gold.PLP.Chemscore.Hbond>
2.0000

> <Gold.PLP.Chemscore.CHOScore>
2.0000

> <Gold.PLP.Chemscore.Metal>
0.0000

> <Gold.Chemscore.Hbonds>
donor molecule, donor type, donor heavy atom, donor atom, acceptor molecule, acceptor atom, score
      L1  H     9    27       P1  7948  1.00
      L1  H    12    28       P1  7948  1.00
      L1  C     4    25       P1  8028  1.00
      L1  C    19    40       P1 10175  1.00

> <Gold.PLP.Chemscore.Internal.Correction>
0.0137

> <Gold.Rescore>
     Score         DG    S(hbond)    S(metal)    S(lipo)     H(rot)  DE(clash)    DE(int)     intcor
     15.76     -17.47       1.91        0.00      73.55       1.17       1.43       0.28       ----

> <Gold.Chemscore.Fitness>
15.7583

> <Gold.Chemscore.DG>
-17.4675

> <Gold.Chemscore.ZeroCoef>
-5.4800

> <Gold.Chemscore.Hbond>
1.9064

> <Gold.Chemscore.Metal>
0.0000

> <Gold.Chemscore.Lipo>
73.5469

> <Gold.Chemscore.Internal_Hbond>
0.0000

> <Gold.Chemscore.DEClash>
1.4258

> <Gold.Chemscore.DEInternal>
0.2834

> <Gold.Chemscore.Rot>
1.1660

> <Gold.Chemscore.Internal.Correction>
   9.000000E+99

> <Gold.Chemscore.Hbonds>
donor molecule, donor type, donor heavy atom, donor atom, acceptor molecule, acceptor atom, score
      L1  H     9    27       P1  7948  0.98
      L1  H    12    28       P1  7948  0.95

> <Gold.Chemscore.Hbond.Weighted>
-6.3675

> <Gold.Chemscore.Metal.Weighted>
-0.0000

> <Gold.Chemscore.Lipo.Weighted>
-8.6050

> <Gold.Chemscore.Internal_Hbond.Weighted>
0.0000

> <Gold.Chemscore.DEClash.Weighted>
1.4258

> <Gold.Chemscore.DEInternal.Weighted>
0.2834

> <Gold.Chemscore.Rot.Weighted>
2.9850

> <Gold.Chemscore.Internal.Correction.Weighted>
   9.000000E+99

> <Gold.Protein.RotatedTorsions>
[ 6907 6896 6895 6894 ] final   90.37 input  -60.11 | X-H torsion
[ 7974 7965 7964 7962 ] final   80.84 input  175.53 | X-H torsion
[ 8008 7997 7996 7995 ] final  149.78 input   59.86 | X-H torsion
[ 10167 10162 10161 10158 ] final  109.27 input  -65.29 | X-H torsion
[ 10718 10713 10712 10709 ] final   24.23 input   66.30 | X-H torsion
[ 10763 10752 10751 10750 ] final -161.28 input  -60.55 | X-H torsion
[ 11005 11000 10999 10996 ] final   18.53 input  -57.11 | X-H torsion

> <Gold.Protein.ActiveResidues>
 VAL166  LYS551  ARG553  GLY616  TRP617  ASP618  TYR619  PRO620  LYS621  CYS622 
 ASP623  PHE694  ASN695  SER759  ASP760  ASP761  ALA762  ILE779  LEU786  VAL792 
 PHE793  MET794  SER795  GLU796  ALA797  LYS798  CYS799  TRP800  GLU811  SER814 

> <Gold.Protein.RotatedAtoms>
  152.5444  134.1822  159.8639 H   0  0  0  0  0  0  0  0  0  0  0  0  # atno 6907 bound_to 6896
  151.1824  133.4710  159.2601 H   0  0  0  0  0  0  0  0  0  0  0  0  # atno 6908 bound_to 6896
  151.1165  135.0067  159.8574 H   0  0  0  0  0  0  0  0  0  0  0  0  # atno 6909 bound_to 6896
  145.6460  139.2436  143.2004 H   0  0  0  0  0  0  0  0  0  0  0  0  # atno 7974 bound_to 7965
  156.2742  140.2092  156.5912 H   0  0  0  0  0  0  0  0  0  0  0  0  # atno 8008 bound_to 7997
  154.6981  140.0523  157.0454 H   0  0  0  0  0  0  0  0  0  0  0  0  # atno 8009 bound_to 7997
  155.0773  140.3183  155.4615 H   0  0  0  0  0  0  0  0  0  0  0  0  # atno 8010 bound_to 7997
  139.6780  144.7120  151.1568 H   0  0  0  0  0  0  0  0  0  0  0  0  # atno 10167 bound_to 10162
  157.1769  130.6785  149.6098 H   0  0  0  0  0  0  0  0  0  0  0  0  # atno 10718 bound_to 10713
  154.7317  135.3048  154.8880 H   0  0  0  0  0  0  0  0  0  0  0  0  # atno 10763 bound_to 10752
  153.9721  135.6740  153.4751 H   0  0  0  0  0  0  0  0  0  0  0  0  # atno 10764 bound_to 10752
  153.0924  135.4952  154.8637 H   0  0  0  0  0  0  0  0  0  0  0  0  # atno 10765 bound_to 10752
  140.4237  134.1491  155.7675 H   0  0  0  0  0  0  0  0  0  0  0  0  # atno 11005 bound_to 11000
  146.1242  140.7269  142.9443 LP  0  0  0  0  0  0  0  0  0  0  0  0  # atno 17320 bound_to 7965
  144.7140  140.4142  143.7059 LP  0  0  0  0  0  0  0  0  0  0  0  0  # atno 17321 bound_to 7965
  140.7642  143.5743  150.8962 LP  0  0  0  0  0  0  0  0  0  0  0  0  # atno 17342 bound_to 10162
  139.9413  143.6379  152.3053 LP  0  0  0  0  0  0  0  0  0  0  0  0  # atno 17343 bound_to 10162
  155.9730  130.4660  150.6273 LP  0  0  0  0  0  0  0  0  0  0  0  0  # atno 17370 bound_to 10713
  157.3989  131.0807  151.1326 LP  0  0  0  0  0  0  0  0  0  0  0  0  # atno 17371 bound_to 10713
  141.1773  133.8486  157.1376 LP  0  0  0  0  0  0  0  0  0  0  0  0  # atno 17394 bound_to 11000
  140.0182  134.9958  157.0537 LP  0  0  0  0  0  0  0  0  0  0  0  0  # atno 17395 bound_to 11000

$$$$
