AV-unprocessed.smi:15|AV-procd|sdf|86|dock8
  -GOLD-   2262015223D 1   1.00000     0.00000
 Structure written by MMmdl.
 53 56  0  0  0  0  0  0  0  0  1 V2000
  151.6743  140.1929  158.2586 C   0  0  0  0  0  0  0  0  0  0  0  0
  152.9167  141.0605  158.4986 C   0  0  0  0  0  0  0  0  0  0  0  0
  153.3583  141.0448  159.8931 N   0  0  0  0  0  0  0  0  0  0  0  0
  153.1948  142.2337  160.7321 C   0  0  0  0  0  0  0  0  0  0  0  0
  152.2208  143.2677  160.1360 C   0  0  1  0  0  0  0  0  0  0  0  0
  151.8908  144.4156  161.0867 C   0  0  0  0  0  0  0  0  0  0  0  0
  151.4812  145.5440  160.1522 C   0  0  0  0  0  0  0  0  0  0  0  0
  152.0088  145.1038  158.7836 C   0  0  0  0  0  0  0  0  0  0  0  0
  152.8102  143.9617  159.0471 O   0  0  0  0  0  0  0  0  0  0  0  0
  154.4563  140.3061  160.1839 C   0  0  0  0  0  0  0  0  0  0  0  0
  154.9684  139.5313  159.1940 N   0  0  0  0  0  0  0  0  0  0  0  0
  156.0363  138.7628  159.4256 C   0  0  0  0  0  0  0  0  0  0  0  0
  156.7288  138.6150  160.5565 N   0  0  0  0  0  0  0  0  0  0  0  0
  156.2125  139.3836  161.5579 C   0  0  0  0  0  0  0  0  0  0  0  0
  155.0894  140.2534  161.4602 C   0  0  0  0  0  0  0  0  0  0  0  0
  154.8505  140.8521  162.6922 N   0  0  0  0  0  0  0  0  0  0  0  0
  155.7820  140.3711  163.4689 C   0  0  0  0  0  0  0  0  0  0  0  0
  156.6469  139.4850  162.8681 N   0  0  0  0  0  0  0  0  0  0  0  0
  157.7643  138.7969  163.4971 C   0  0  0  0  0  0  0  0  0  0  0  0
  157.3449  137.9074  164.6965 C   0  0  2  0  0  0  0  0  0  0  0  0
  156.9829  138.7648  165.7671 O   0  0  0  0  0  0  0  0  0  0  0  0
  158.4532  136.9832  165.1916 C   0  0  0  0  0  0  0  0  0  0  0  0
  157.6813  135.8247  165.8034 C   0  0  0  0  0  0  0  0  0  0  0  0
  156.6102  135.6530  164.8920 O   0  0  0  0  0  0  0  0  0  0  0  0
  156.1579  136.9325  164.4537 C   0  0  2  0  0  0  0  0  0  0  0  0
  155.6782  136.7762  163.0017 C   0  0  0  0  0  0  0  0  0  0  0  0
  151.4231  140.1701  157.1982 H   0  0  0  0  0  0  0  0  0  0  0  0
  150.8031  140.5768  158.7893 H   0  0  0  0  0  0  0  0  0  0  0  0
  151.8435  139.1654  158.5817 H   0  0  0  0  0  0  0  0  0  0  0  0
  153.7205  140.6895  157.8610 H   0  0  0  0  0  0  0  0  0  0  0  0
  152.7171  142.0846  158.1836 H   0  0  0  0  0  0  0  0  0  0  0  0
  152.8291  141.9181  161.7084 H   0  0  0  0  0  0  0  0  0  0  0  0
  154.1620  142.7005  160.9229 H   0  0  0  0  0  0  0  0  0  0  0  0
  151.2945  142.7940  159.8067 H   0  0  0  0  0  0  0  0  0  0  0  0
  151.1141  144.1557  161.8063 H   0  0  0  0  0  0  0  0  0  0  0  0
  152.7813  144.7099  161.6440 H   0  0  0  0  0  0  0  0  0  0  0  0
  150.3977  145.6641  160.1230 H   0  0  0  0  0  0  0  0  0  0  0  0
  151.9162  146.4921  160.4701 H   0  0  0  0  0  0  0  0  0  0  0  0
  151.1851  144.8204  158.1271 H   0  0  0  0  0  0  0  0  0  0  0  0
  152.5886  145.8815  158.2862 H   0  0  0  0  0  0  0  0  0  0  0  0
  156.3830  138.1793  158.5854 H   0  0  0  0  0  0  0  0  0  0  0  0
  155.8654  140.6515  164.5088 H   0  0  0  0  0  0  0  0  0  0  0  0
  158.2654  138.1975  162.7361 H   0  0  0  0  0  0  0  0  0  0  0  0
  158.4812  139.5544  163.8142 H   0  0  0  0  0  0  0  0  0  0  0  0
  157.0866  138.2903  166.5777 H   0  0  0  0  0  0  0  0  0  0  0  0
  159.0342  136.6088  164.3477 H   0  0  0  0  0  0  0  0  0  0  0  0
  159.1462  137.4565  165.8889 H   0  0  0  0  0  0  0  0  0  0  0  0
  158.2803  134.9189  165.8968 H   0  0  0  0  0  0  0  0  0  0  0  0
  157.2908  136.0869  166.7878 H   0  0  0  0  0  0  0  0  0  0  0  0
  155.3014  137.2128  165.0698 H   0  0  0  0  0  0  0  0  0  0  0  0
  155.3070  137.7188  162.5997 H   0  0  0  0  0  0  0  0  0  0  0  0
  154.8633  136.0543  162.9422 H   0  0  0  0  0  0  0  0  0  0  0  0
  156.4775  136.4183  162.3526 H   0  0  0  0  0  0  0  0  0  0  0  0
  1  2  1  0  0  0  0
  1 27  1  0  0  0  0
  1 28  1  0  0  0  0
  1 29  1  0  0  0  0
  2  3  1  0  0  0  0
  2 30  1  0  0  0  0
  2 31  1  0  0  0  0
  3  4  1  0  0  0  0
  3 10  1  0  0  0  0
  4  5  1  0  0  0  0
  4 32  1  0  0  0  0
  4 33  1  0  0  0  0
  5  9  1  0  0  0  0
  5  6  1  0  0  0  0
  5 34  1  0  0  0  0
  6  7  1  0  0  0  0
  6 35  1  0  0  0  0
  6 36  1  0  0  0  0
  7  8  1  0  0  0  0
  7 37  1  0  0  0  0
  7 38  1  0  0  0  0
  8  9  1  0  0  0  0
  8 39  1  0  0  0  0
  8 40  1  0  0  0  0
 10 15  1  0  0  0  0
 10 11  2  0  0  0  0
 11 12  1  0  0  0  0
 12 13  2  0  0  0  0
 12 41  1  0  0  0  0
 13 14  1  0  0  0  0
 14 18  1  0  0  0  0
 14 15  2  0  0  0  0
 15 16  1  0  0  0  0
 16 17  2  0  0  0  0
 17 18  1  0  0  0  0
 17 42  1  0  0  0  0
 18 19  1  0  0  0  0
 19 20  1  0  0  0  0
 19 43  1  0  0  0  0
 19 44  1  0  0  0  0
 20 25  1  0  0  0  0
 20 21  1  0  0  0  0
 20 22  1  0  0  0  0
 21 45  1  0  0  0  0
 22 23  1  0  0  0  0
 22 46  1  0  0  0  0
 22 47  1  0  0  0  0
 23 24  1  0  0  0  0
 23 48  1  0  0  0  0
 23 49  1  0  0  0  0
 24 25  1  0  0  0  0
 25 26  1  0  0  0  0
 25 50  1  0  0  0  0
 26 51  1  0  0  0  0
 26 52  1  0  0  0  0
 26 53  1  0  0  0  0
M  END
> <s_m_source_file>
AV-unprocessed.smi

> <i_m_source_file_index>
15

> <i_lp_mmshare_version>
43012

> <i_f3d_flags>
0

> <s_epik_input>
TzFbQ0gyXVtDSDJdW0NIMl1bQ0BIXTFbQ0gyXU4oW0NIMl1bQ0gzXSljKG5bY0hdbjIpYyhjMjMpbltjSF1uM1tDSDJdW0NAQF00KFtPSF0pW0NIMl1bQ0gyXU9bQ0BIXTRbQ0gzXQ==

> <s_epik_cmdline>
J2VwaWtfcHl0aG9uJywgJy1waCcsICc3LjAnLCAnLXRuJywgJzgnLCAnLW1hJywgJzIwMCcsICctbWV0YWxfYmluZGluZycsICctaW1hZScsICc8aW5maWxlLm1hZT4nLCAnLW9tYWUnLCAnPG91dGZpbGUubWFlPic=

> <r_lp_tautomer_probability>
1

> <r_epik_Ionization_Penalty>
0.00360814

> <r_epik_Ionization_Penalty_Charging>
0

> <r_epik_Ionization_Penalty_Neutral>
0.00360814

> <r_epik_State_Penalty>
0.00237482

> <r_epik_Charging_Adjusted_Penalty>
0.00237482

> <i_epik_Tot_Q>
0

> <i_epik_Tot_abs_Q>
0

> <r_epik_Metal_State_Penalty>
-0

> <b_epik_Metal_Only>
0

> <s_lp_Force_Field>
OPLS_2005

> <r_lp_Energy>
45.3604

> <b_lp_Chiralities_Consistent>
1

> <s_lp_Variant>
AV-unprocessed.smi:15-8

> <Gold.Version>
5.8.1

> <Gold.Id.Protein>
6NUR|6NUR_protein|mol2

> <Gold.PLP.Fitness>
43.3784

> <Gold.PLP.PLP>
-40.7891

> <Gold.PLP.part.hbond>
-1.9844

> <Gold.PLP.part.metal>
0.0000

> <Gold.PLP.part.buried>
-5.0042

> <Gold.PLP.part.nonpolar>
-33.5034

> <Gold.PLP.part.repulsive>
0.0976

> <Gold.PLP.ligand.clash>
0.0000

> <Gold.PLP.ligand.torsion>
0.6780

> <Gold.PLP.Chemscore.Hbond>
0.9913

> <Gold.PLP.Chemscore.CHOScore>
0.0000

> <Gold.PLP.Chemscore.Metal>
0.0000

> <Gold.Chemscore.Hbonds>
donor molecule, donor type, donor heavy atom, donor atom, acceptor molecule, acceptor atom, score
      P1  H  7997  8009       L1    11  1.00

> <Gold.PLP.Chemscore.Internal.Correction>
0.9716

> <Gold.Rescore>
     Score         DG    S(hbond)    S(metal)    S(lipo)     H(rot)  DE(clash)    DE(int)     intcor
      8.34     -12.36       0.63        0.00      94.35       2.44       0.06       3.96       ----

> <Gold.Chemscore.Fitness>
8.3419

> <Gold.Chemscore.DG>
-12.3612

> <Gold.Chemscore.ZeroCoef>
-5.4800

> <Gold.Chemscore.Hbond>
0.6276

> <Gold.Chemscore.Metal>
0.0000

> <Gold.Chemscore.Lipo>
94.3546

> <Gold.Chemscore.Internal_Hbond>
0.0000

> <Gold.Chemscore.DEClash>
0.0586

> <Gold.Chemscore.DEInternal>
3.9608

> <Gold.Chemscore.Rot>
2.4431

> <Gold.Chemscore.Internal.Correction>
   9.000000E+99

> <Gold.Chemscore.Hbonds>
donor molecule, donor type, donor heavy atom, donor atom, acceptor molecule, acceptor atom, score
      P1  H  7997  8009       L1    11  0.45

> <Gold.Chemscore.Hbond.Weighted>
-2.0962

> <Gold.Chemscore.Metal.Weighted>
-0.0000

> <Gold.Chemscore.Lipo.Weighted>
-11.0395

> <Gold.Chemscore.Internal_Hbond.Weighted>
0.0000

> <Gold.Chemscore.DEClash.Weighted>
0.0586

> <Gold.Chemscore.DEInternal.Weighted>
3.9608

> <Gold.Chemscore.Rot.Weighted>
6.2544

> <Gold.Chemscore.Internal.Correction.Weighted>
   9.000000E+99

> <Gold.Protein.RotatedTorsions>
[ 6907 6896 6895 6894 ] final  -33.56 input  -60.11 | X-H torsion
[ 7974 7965 7964 7962 ] final -179.81 input  175.53 | X-H torsion
[ 8008 7997 7996 7995 ] final  117.64 input   59.86 | X-H torsion
[ 10167 10162 10161 10158 ] final  175.53 input  -65.29 | X-H torsion
[ 10718 10713 10712 10709 ] final  -84.88 input   66.30 | X-H torsion
[ 10763 10752 10751 10750 ] final -169.61 input  -60.55 | X-H torsion
[ 11005 11000 10999 10996 ] final   34.76 input  -57.11 | X-H torsion

> <Gold.Protein.ActiveResidues>
 VAL166  LYS551  ARG553  GLY616  TRP617  ASP618  TYR619  PRO620  LYS621  CYS622 
 ASP623  PHE694  ASN695  SER759  ASP760  ASP761  ALA762  ILE779  LEU786  VAL792 
 PHE793  MET794  SER795  GLU796  ALA797  LYS798  CYS799  TRP800  GLU811  SER814 

> <Gold.Protein.RotatedAtoms>
  151.0641  134.9756  159.8274 H   0  0  0  0  0  0  0  0  0  0  0  0  # atno 6907 bound_to 6896
  152.5399  134.2381  159.8861 H   0  0  0  0  0  0  0  0  0  0  0  0  # atno 6908 bound_to 6896
  151.2402  133.4360  159.2641 H   0  0  0  0  0  0  0  0  0  0  0  0  # atno 6909 bound_to 6896
  144.7139  140.0661  143.6431 H   0  0  0  0  0  0  0  0  0  0  0  0  # atno 7974 bound_to 7965
  156.2504  140.2892  156.0709 H   0  0  0  0  0  0  0  0  0  0  0  0  # atno 8008 bound_to 7997
  155.1672  140.0401  157.2872 H   0  0  0  0  0  0  0  0  0  0  0  0  # atno 8009 bound_to 7997
  154.6351  140.2509  155.7394 H   0  0  0  0  0  0  0  0  0  0  0  0  # atno 8010 bound_to 7997
  139.5181  144.3020  152.0370 H   0  0  0  0  0  0  0  0  0  0  0  0  # atno 10167 bound_to 10162
  156.0002  130.4712  150.4477 H   0  0  0  0  0  0  0  0  0  0  0  0  # atno 10718 bound_to 10713
  154.6504  135.2910  154.9993 H   0  0  0  0  0  0  0  0  0  0  0  0  # atno 10763 bound_to 10752
  154.1088  135.6565  153.4885 H   0  0  0  0  0  0  0  0  0  0  0  0  # atno 10764 bound_to 10752
  153.0373  135.5260  154.7410 H   0  0  0  0  0  0  0  0  0  0  0  0  # atno 10765 bound_to 10752
  140.2496  134.3319  155.7895 H   0  0  0  0  0  0  0  0  0  0  0  0  # atno 11005 bound_to 11000
  145.9823  139.2950  143.1034 LP  0  0  0  0  0  0  0  0  0  0  0  0  # atno 17320 bound_to 7965
  145.8997  140.9251  143.0509 LP  0  0  0  0  0  0  0  0  0  0  0  0  # atno 17321 bound_to 7965
  140.2467  144.4212  150.6238 LP  0  0  0  0  0  0  0  0  0  0  0  0  # atno 17342 bound_to 10162
  140.6253  143.2180  151.6610 LP  0  0  0  0  0  0  0  0  0  0  0  0  # atno 17343 bound_to 10162
  157.2513  131.0547  151.2377 LP  0  0  0  0  0  0  0  0  0  0  0  0  # atno 17370 bound_to 10713
  157.3525  130.7089  149.6450 LP  0  0  0  0  0  0  0  0  0  0  0  0  # atno 17371 bound_to 10713
  141.2203  133.7346  156.9016 LP  0  0  0  0  0  0  0  0  0  0  0  0  # atno 17394 bound_to 11000
  140.1571  134.9191  157.2668 LP  0  0  0  0  0  0  0  0  0  0  0  0  # atno 17395 bound_to 11000

$$$$
