AV-unprocessed.smi:1021|AV-procd|sdf|4454|dock10
  -GOLD-   22720 2423D 1   1.00000     0.00000
 Structure written by MMmdl.
 42 44  0  0  0  0  0  0  0  0  1 V2000
  151.4377  136.9423  158.9522 O   0  0  0  0  0  0  0  0  0  0  0  0
  150.9967  137.6742  157.8277 C   0  0  0  0  0  0  0  0  0  0  0  0
  151.9208  137.4261  156.6275 C   0  0  0  0  0  0  0  0  0  0  0  0
  152.0998  138.6588  155.7278 C   0  0  0  0  0  0  0  0  0  0  0  0
  150.8005  139.1528  155.1598 C   0  0  0  0  0  0  0  0  0  0  0  0
  150.0078  138.3268  154.4754 N   0  0  0  0  0  0  0  0  0  0  0  0
  148.9503  139.1371  154.1189 C   0  0  0  0  0  0  0  0  0  0  0  0
  147.7838  138.8484  153.3751 C   0  0  0  0  0  0  0  0  0  0  0  0
  146.8307  139.8563  153.1224 C   0  0  0  0  0  0  0  0  0  0  0  0
  147.0318  141.1646  153.6069 C   0  0  0  0  0  0  0  0  0  0  0  0
  148.1864  141.4718  154.3520 C   0  0  0  0  0  0  0  0  0  0  0  0
  149.1331  140.4606  154.6071 C   0  0  0  0  0  0  0  0  0  0  0  0
  150.3435  140.4285  155.2971 N   0  0  0  0  0  0  0  0  0  0  0  0
  150.9496  141.5726  155.9744 C   0  0  0  0  0  0  0  0  0  0  0  0
  151.2100  141.3191  157.4740 C   0  0  2  0  0  0  0  0  0  0  0  0
  150.1370  140.5527  157.9828 O   0  0  0  0  0  0  0  0  0  0  0  0
  151.4233  142.6033  158.2620 C   0  0  0  0  0  0  0  0  0  0  0  0
  151.2689  143.8528  157.6238 C   0  0  0  0  0  0  0  0  0  0  0  0
  151.4667  145.0472  158.3438 C   0  0  0  0  0  0  0  0  0  0  0  0
  151.8197  144.9990  159.7063 C   0  0  0  0  0  0  0  0  0  0  0  0
  152.0076  146.1473  160.3987 F   0  0  0  0  0  0  0  0  0  0  0  0
  151.9733  143.7556  160.3490 C   0  0  0  0  0  0  0  0  0  0  0  0
  151.7735  142.5609  159.6300 C   0  0  0  0  0  0  0  0  0  0  0  0
  152.2453  137.3239  159.2611 H   0  0  0  0  0  0  0  0  0  0  0  0
  149.9687  137.3984  157.5911 H   0  0  0  0  0  0  0  0  0  0  0  0
  150.9963  138.7335  158.0860 H   0  0  0  0  0  0  0  0  0  0  0  0
  152.8986  137.1119  156.9941 H   0  0  0  0  0  0  0  0  0  0  0  0
  151.5396  136.5915  156.0439 H   0  0  0  0  0  0  0  0  0  0  0  0
  152.6212  139.4509  156.2585 H   0  0  0  0  0  0  0  0  0  0  0  0
  152.7542  138.3992  154.8948 H   0  0  0  0  0  0  0  0  0  0  0  0
  147.6241  137.8498  152.9958 H   0  0  0  0  0  0  0  0  0  0  0  0
  145.9433  139.6253  152.5515 H   0  0  0  0  0  0  0  0  0  0  0  0
  146.2990  141.9323  153.4059 H   0  0  0  0  0  0  0  0  0  0  0  0
  148.3414  142.4747  154.7210 H   0  0  0  0  0  0  0  0  0  0  0  0
  151.8663  141.8858  155.4813 H   0  0  0  0  0  0  0  0  0  0  0  0
  150.2564  142.4077  155.8634 H   0  0  0  0  0  0  0  0  0  0  0  0
  152.0981  140.6977  157.5892 H   0  0  0  0  0  0  0  0  0  0  0  0
  149.3391  141.0478  157.8755 H   0  0  0  0  0  0  0  0  0  0  0  0
  150.9944  143.8996  156.5801 H   0  0  0  0  0  0  0  0  0  0  0  0
  151.3457  146.0002  157.8506 H   0  0  0  0  0  0  0  0  0  0  0  0
  152.2386  143.7173  161.3951 H   0  0  0  0  0  0  0  0  0  0  0  0
  151.8862  141.6125  160.1345 H   0  0  0  0  0  0  0  0  0  0  0  0
  1  2  1  0  0  0  0
  1 24  1  0  0  0  0
  2  3  1  0  0  0  0
  2 25  1  0  0  0  0
  2 26  1  0  0  0  0
  3  4  1  0  0  0  0
  3 27  1  0  0  0  0
  3 28  1  0  0  0  0
  4  5  1  0  0  0  0
  4 29  1  0  0  0  0
  4 30  1  0  0  0  0
  5 13  1  0  0  0  0
  5  6  2  0  0  0  0
  6  7  1  0  0  0  0
  7 12  2  0  0  0  0
  7  8  1  0  0  0  0
  8  9  2  0  0  0  0
  8 31  1  0  0  0  0
  9 10  1  0  0  0  0
  9 32  1  0  0  0  0
 10 11  2  0  0  0  0
 10 33  1  0  0  0  0
 11 12  1  0  0  0  0
 11 34  1  0  0  0  0
 12 13  1  0  0  0  0
 13 14  1  0  0  0  0
 14 15  1  0  0  0  0
 14 35  1  0  0  0  0
 14 36  1  0  0  0  0
 15 16  1  0  0  0  0
 15 17  1  0  0  0  0
 15 37  1  0  0  0  0
 16 38  1  0  0  0  0
 17 23  1  0  0  0  0
 17 18  2  0  0  0  0
 18 19  1  0  0  0  0
 18 39  1  0  0  0  0
 19 20  2  0  0  0  0
 19 40  1  0  0  0  0
 20 21  1  0  0  0  0
 20 22  1  0  0  0  0
 22 23  2  0  0  0  0
 22 41  1  0  0  0  0
 23 42  1  0  0  0  0
M  END
> <s_m_source_file>
AV-unprocessed.smi

> <i_m_source_file_index>
1021

> <i_lp_mmshare_version>
43012

> <i_f3d_flags>
0

> <s_epik_input>
W09IXVtDSDJdW0NIMl1bQ0gyXWMobjEpbihjKGMxMilbY0hdW2NIXVtjSF1bY0hdMilbQ0gyXVtDQEhdKFtPSF0pYzNbY0hdW2NIXWMoRilbY0hdW2NIXTM=

> <s_epik_cmdline>
J2VwaWtfcHl0aG9uJywgJy1waCcsICc3LjAnLCAnLXRuJywgJzgnLCAnLW1hJywgJzIwMCcsICctbWV0YWxfYmluZGluZycsICctaW1hZScsICc8aW5maWxlLm1hZT4nLCAnLW9tYWUnLCAnPG91dGZpbGUubWFlPic=

> <r_epik_Ionization_Penalty>
0.182562

> <r_epik_Ionization_Penalty_Charging>
0

> <r_epik_Ionization_Penalty_Neutral>
0.182562

> <r_epik_State_Penalty>
0.172086

> <r_epik_Charging_Adjusted_Penalty>
0.172086

> <i_epik_Tot_Q>
0

> <i_epik_Tot_abs_Q>
0

> <r_epik_Metal_State_Penalty>
0.000199649

> <b_epik_Metal_Only>
0

> <s_lp_Force_Field>
OPLS_2005

> <r_lp_Energy>
12.4475

> <b_lp_Chiralities_Consistent>
1

> <s_lp_Variant>
AV-unprocessed.smi:1021-1

> <Gold.Version>
5.8.1

> <Gold.Id.Protein>
6NUR|6NUR_protein|mol2

> <Gold.PLP.Fitness>
50.4055

> <Gold.PLP.PLP>
-48.4432

> <Gold.PLP.part.hbond>
-1.0000

> <Gold.PLP.part.metal>
0.0000

> <Gold.PLP.part.buried>
-3.1443

> <Gold.PLP.part.nonpolar>
-43.9973

> <Gold.PLP.part.repulsive>
0.2080

> <Gold.PLP.ligand.clash>
0.0000

> <Gold.PLP.ligand.torsion>
0.4850

> <Gold.PLP.Chemscore.Hbond>
0.9440

> <Gold.PLP.Chemscore.CHOScore>
0.0000

> <Gold.PLP.Chemscore.Metal>
0.0000

> <Gold.Chemscore.Hbonds>
donor molecule, donor type, donor heavy atom, donor atom, acceptor molecule, acceptor atom, score
      P1  H  6896  6907       L1     1  0.99

> <Gold.PLP.Chemscore.Internal.Correction>
0.1003

> <Gold.Rescore>
     Score         DG    S(hbond)    S(metal)    S(lipo)     H(rot)  DE(clash)    DE(int)     intcor
     15.36     -16.17       0.81        0.00     135.43       3.07       0.31       0.50       ----

> <Gold.Chemscore.Fitness>
15.3612

> <Gold.Chemscore.DG>
-16.1675

> <Gold.Chemscore.ZeroCoef>
-5.4800

> <Gold.Chemscore.Hbond>
0.8119

> <Gold.Chemscore.Metal>
0.0000

> <Gold.Chemscore.Lipo>
135.4319

> <Gold.Chemscore.Internal_Hbond>
0.0000

> <Gold.Chemscore.DEClash>
0.3106

> <Gold.Chemscore.DEInternal>
0.4958

> <Gold.Chemscore.Rot>
3.0741

> <Gold.Chemscore.Internal.Correction>
   9.000000E+99

> <Gold.Chemscore.Hbonds>
donor molecule, donor type, donor heavy atom, donor atom, acceptor molecule, acceptor atom, score
      P1  H  6896  6907       L1     1  0.35

> <Gold.Chemscore.Hbond.Weighted>
-2.7118

> <Gold.Chemscore.Metal.Weighted>
-0.0000

> <Gold.Chemscore.Lipo.Weighted>
-15.8455

> <Gold.Chemscore.Internal_Hbond.Weighted>
0.0000

> <Gold.Chemscore.DEClash.Weighted>
0.3106

> <Gold.Chemscore.DEInternal.Weighted>
0.4958

> <Gold.Chemscore.Rot.Weighted>
7.8698

> <Gold.Chemscore.Internal.Correction.Weighted>
   9.000000E+99

> <Gold.Protein.RotatedTorsions>
[ 6907 6896 6895 6894 ] final  -12.47 input  -60.11 | X-H torsion
[ 7974 7965 7964 7962 ] final  -12.58 input  175.53 | X-H torsion
[ 8008 7997 7996 7995 ] final   87.93 input   59.86 | X-H torsion
[ 10167 10162 10161 10158 ] final   73.17 input  -65.29 | X-H torsion
[ 10718 10713 10712 10709 ] final  -42.35 input   66.30 | X-H torsion
[ 10763 10752 10751 10750 ] final   29.07 input  -60.55 | X-H torsion
[ 11005 11000 10999 10996 ] final  -52.40 input  -57.11 | X-H torsion

> <Gold.Protein.ActiveResidues>
 VAL166  LYS551  ARG553  GLY616  TRP617  ASP618  TYR619  PRO620  LYS621  CYS622 
 ASP623  PHE694  ASN695  SER759  ASP760  ASP761  ALA762  ILE779  LEU786  VAL792 
 PHE793  MET794  SER795  GLU796  ALA797  LYS798  CYS799  TRP800  GLU811  SER814 

> <Gold.Protein.RotatedAtoms>
  151.3700  135.0920  159.9462 H   0  0  0  0  0  0  0  0  0  0  0  0  # atno 6907 bound_to 6896
  152.5138  133.9174  159.7528 H   0  0  0  0  0  0  0  0  0  0  0  0  # atno 6908 bound_to 6896
  150.9585  133.6416  159.2788 H   0  0  0  0  0  0  0  0  0  0  0  0  # atno 6909 bound_to 6896
  146.2147  140.3078  142.8380 H   0  0  0  0  0  0  0  0  0  0  0  0  # atno 7974 bound_to 7965
  155.9815  140.3377  155.6667 H   0  0  0  0  0  0  0  0  0  0  0  0  # atno 8008 bound_to 7997
  155.6542  140.0709  157.2594 H   0  0  0  0  0  0  0  0  0  0  0  0  # atno 8009 bound_to 7997
  154.4193  140.1720  156.1695 H   0  0  0  0  0  0  0  0  0  0  0  0  # atno 8010 bound_to 7997
  140.0274  144.5493  150.7534 H   0  0  0  0  0  0  0  0  0  0  0  0  # atno 10167 bound_to 10162
  156.2606  130.4196  149.8547 H   0  0  0  0  0  0  0  0  0  0  0  0  # atno 10718 bound_to 10713
  153.0452  135.6498  154.0835 H   0  0  0  0  0  0  0  0  0  0  0  0  # atno 10763 bound_to 10752
  154.0534  135.2894  155.3338 H   0  0  0  0  0  0  0  0  0  0  0  0  # atno 10764 bound_to 10752
  154.6705  135.5358  153.8198 H   0  0  0  0  0  0  0  0  0  0  0  0  # atno 10765 bound_to 10752
  141.0922  133.6630  156.4019 H   0  0  0  0  0  0  0  0  0  0  0  0  # atno 11005 bound_to 11000
  144.9010  140.7643  143.5867 LP  0  0  0  0  0  0  0  0  0  0  0  0  # atno 17320 bound_to 7965
  145.3004  139.1852  143.4693 LP  0  0  0  0  0  0  0  0  0  0  0  0  # atno 17321 bound_to 7965
  140.7317  143.2697  151.3929 LP  0  0  0  0  0  0  0  0  0  0  0  0  # atno 17342 bound_to 10162
  139.6099  144.1120  152.2288 LP  0  0  0  0  0  0  0  0  0  0  0  0  # atno 17343 bound_to 10162
  156.6063  130.8568  151.3444 LP  0  0  0  0  0  0  0  0  0  0  0  0  # atno 17370 bound_to 10713
  157.7249  130.9609  150.1592 LP  0  0  0  0  0  0  0  0  0  0  0  0  # atno 17371 bound_to 10713
  140.5224  134.6291  157.5322 LP  0  0  0  0  0  0  0  0  0  0  0  0  # atno 17394 bound_to 11000
  139.9751  134.7229  155.9966 LP  0  0  0  0  0  0  0  0  0  0  0  0  # atno 17395 bound_to 11000

$$$$
