AV-unprocessed.smi:1377|AV-procd|sdf|5594|dock10
  -GOLD-   22720 5203D 1   1.00000     0.00000
 Structure written by MMmdl.
 29 30  0  0  0  0  0  0  0  0  1 V2000
  147.6316  138.4218  152.1061 N   0  0  0  0  0  0  0  0  0  0  0  0
  147.1217  138.8973  153.2456 C   0  0  0  0  0  0  0  0  0  0  0  0
  146.4553  138.1996  154.0074 O   0  0  0  0  0  0  0  0  0  0  0  0
  147.3984  140.3651  153.5776 C   0  0  0  0  0  0  0  0  0  0  0  0
  148.6387  140.4836  154.4151 C   0  0  0  0  0  0  0  0  0  0  0  0
  149.5713  139.5025  154.6549 C   0  0  0  0  0  0  0  0  0  0  0  0
  150.8638  140.0640  155.6811 S   0  0  0  0  0  0  0  0  0  0  0  0
  150.0720  141.6302  155.7565 C   0  0  0  0  0  0  0  0  0  0  0  0
  150.6160  142.7133  156.4953 N   0  0  0  0  0  0  0  0  0  0  0  0
  151.4698  142.6681  157.5349 C   0  0  0  0  0  0  0  0  0  0  0  0
  151.9348  141.6316  158.0113 O   0  0  0  0  0  0  0  0  0  0  0  0
  151.8580  144.0307  158.1259 C   0  0  0  0  0  0  0  0  0  0  0  0
  152.7101  143.9524  159.4049 C   0  0  0  0  0  0  0  0  0  0  0  0
  151.8268  145.0453  160.0139 C   0  0  0  0  0  0  0  0  0  0  0  0
  150.7598  144.7011  158.9709 C   0  0  0  0  0  0  0  0  0  0  0  0
  148.9339  141.6914  155.0562 N   0  0  0  0  0  0  0  0  0  0  0  0
  147.4718  137.4577  151.8512 H   0  0  0  0  0  0  0  0  0  0  0  0
  148.1739  139.0244  151.5044 H   0  0  0  0  0  0  0  0  0  0  0  0
  147.5034  140.9235  152.6462 H   0  0  0  0  0  0  0  0  0  0  0  0
  146.5417  140.7965  154.0972 H   0  0  0  0  0  0  0  0  0  0  0  0
  149.5782  138.4877  154.2859 H   0  0  0  0  0  0  0  0  0  0  0  0
  150.3221  143.6323  156.1986 H   0  0  0  0  0  0  0  0  0  0  0  0
  152.2846  144.7189  157.3933 H   0  0  0  0  0  0  0  0  0  0  0  0
  152.6345  143.0034  159.9390 H   0  0  0  0  0  0  0  0  0  0  0  0
  153.7505  144.2488  159.2697 H   0  0  0  0  0  0  0  0  0  0  0  0
  151.5271  144.8654  161.0467 H   0  0  0  0  0  0  0  0  0  0  0  0
  152.2408  146.0457  159.8794 H   0  0  0  0  0  0  0  0  0  0  0  0
  150.3018  145.5726  158.5020 H   0  0  0  0  0  0  0  0  0  0  0  0
  150.0029  144.0150  159.3553 H   0  0  0  0  0  0  0  0  0  0  0  0
  1  2  1  0  0  0  0
  1 17  1  0  0  0  0
  1 18  1  0  0  0  0
  2  3  2  0  0  0  0
  2  4  1  0  0  0  0
  4  5  1  0  0  0  0
  4 19  1  0  0  0  0
  4 20  1  0  0  0  0
  5 16  1  0  0  0  0
  5  6  2  0  0  0  0
  6  7  1  0  0  0  0
  6 21  1  0  0  0  0
  7  8  1  0  0  0  0
  8  9  1  0  0  0  0
  8 16  2  0  0  0  0
  9 10  1  0  0  0  0
  9 22  1  0  0  0  0
 10 11  2  0  0  0  0
 10 12  1  0  0  0  0
 12 15  1  0  0  0  0
 12 13  1  0  0  0  0
 12 23  1  0  0  0  0
 13 14  1  0  0  0  0
 13 24  1  0  0  0  0
 13 25  1  0  0  0  0
 14 15  1  0  0  0  0
 14 26  1  0  0  0  0
 14 27  1  0  0  0  0
 15 28  1  0  0  0  0
 15 29  1  0  0  0  0
M  END
> <s_m_source_file>
AV-unprocessed.smi

> <i_m_source_file_index>
1377

> <i_lp_mmshare_version>
43012

> <i_f3d_flags>
0

> <s_epik_input>
W05IMl1DKD1PKVtDSDJdYzFbY0hdc2MobjEpW05IXUMoPU8pW0NIXTJbQ0gyXVtDSDJdW0NIMl0y

> <s_epik_cmdline>
J2VwaWtfcHl0aG9uJywgJy1waCcsICc3LjAnLCAnLXRuJywgJzgnLCAnLW1hJywgJzIwMCcsICctbWV0YWxfYmluZGluZycsICctaW1hZScsICc8aW5maWxlLm1hZT4nLCAnLW9tYWUnLCAnPG91dGZpbGUubWFlPic=

> <r_lp_tautomer_probability>
1

> <r_epik_Ionization_Penalty>
0.000217978

> <r_epik_Ionization_Penalty_Charging>
0

> <r_epik_Ionization_Penalty_Neutral>
0.000217978

> <r_epik_State_Penalty>
-0

> <r_epik_Charging_Adjusted_Penalty>
0

> <i_epik_Tot_Q>
0

> <i_epik_Tot_abs_Q>
0

> <r_epik_Metal_State_Penalty>
0.13268

> <b_epik_Metal_Only>
0

> <s_lp_Force_Field>
OPLS_2005

> <r_lp_Energy>
11.3529

> <b_lp_Chiralities_Consistent>
1

> <s_lp_Variant>
AV-unprocessed.smi:1377-1

> <Gold.Version>
5.8.1

> <Gold.Id.Protein>
6NUR|6NUR_protein|mol2

> <Gold.PLP.Fitness>
43.0195

> <Gold.PLP.PLP>
-37.1761

> <Gold.PLP.part.hbond>
-3.0000

> <Gold.PLP.part.metal>
0.0000

> <Gold.PLP.part.buried>
-5.0942

> <Gold.PLP.part.nonpolar>
-30.2981

> <Gold.PLP.part.repulsive>
1.2077

> <Gold.PLP.ligand.clash>
0.0000

> <Gold.PLP.ligand.torsion>
0.8431

> <Gold.PLP.Chemscore.Hbond>
2.3760

> <Gold.PLP.Chemscore.CHOScore>
0.0000

> <Gold.PLP.Chemscore.Metal>
0.0000

> <Gold.Chemscore.Hbonds>
donor molecule, donor type, donor heavy atom, donor atom, acceptor molecule, acceptor atom, score
      L1  H     1    17       P1  7948  0.38
      L1  H     1    18       P1  7957  1.00
      L1  H     9    22       P1  8028  0.94

> <Gold.PLP.Chemscore.Internal.Correction>
0.4015

> <Gold.Rescore>
     Score         DG    S(hbond)    S(metal)    S(lipo)     H(rot)  DE(clash)    DE(int)     intcor
     15.32     -17.20       2.38        0.00      74.34       1.92       0.05       1.83       ----

> <Gold.Chemscore.Fitness>
15.3226

> <Gold.Chemscore.DG>
-17.1991

> <Gold.Chemscore.ZeroCoef>
-5.4800

> <Gold.Chemscore.Hbond>
2.3794

> <Gold.Chemscore.Metal>
0.0000

> <Gold.Chemscore.Lipo>
74.3358

> <Gold.Chemscore.Internal_Hbond>
0.0000

> <Gold.Chemscore.DEClash>
0.0456

> <Gold.Chemscore.DEInternal>
1.8309

> <Gold.Chemscore.Rot>
1.9239

> <Gold.Chemscore.Internal.Correction>
   9.000000E+99

> <Gold.Chemscore.Hbonds>
donor molecule, donor type, donor heavy atom, donor atom, acceptor molecule, acceptor atom, score
      L1  H     1    17       P1  7948  0.38
      L1  H     1    18       P1  7957  0.77
      L1  H     9    22       P1  8028  0.92

> <Gold.Chemscore.Hbond.Weighted>
-7.9471

> <Gold.Chemscore.Metal.Weighted>
-0.0000

> <Gold.Chemscore.Lipo.Weighted>
-8.6973

> <Gold.Chemscore.Internal_Hbond.Weighted>
0.0000

> <Gold.Chemscore.DEClash.Weighted>
0.0456

> <Gold.Chemscore.DEInternal.Weighted>
1.8309

> <Gold.Chemscore.Rot.Weighted>
4.9253

> <Gold.Chemscore.Internal.Correction.Weighted>
   9.000000E+99

> <Gold.Protein.RotatedTorsions>
[ 6907 6896 6895 6894 ] final   -4.80 input  -60.11 | X-H torsion
[ 7974 7965 7964 7962 ] final  149.45 input  175.53 | X-H torsion
[ 8008 7997 7996 7995 ] final -153.73 input   59.86 | X-H torsion
[ 10167 10162 10161 10158 ] final  157.89 input  -65.29 | X-H torsion
[ 10718 10713 10712 10709 ] final -119.72 input   66.30 | X-H torsion
[ 10763 10752 10751 10750 ] final   25.96 input  -60.55 | X-H torsion
[ 11005 11000 10999 10996 ] final -100.24 input  -57.11 | X-H torsion

> <Gold.Protein.ActiveResidues>
 VAL166  LYS551  ARG553  GLY616  TRP617  ASP618  TYR619  PRO620  LYS621  CYS622 
 ASP623  PHE694  ASN695  SER759  ASP760  ASP761  ALA762  ILE779  LEU786  VAL792 
 PHE793  MET794  SER795  GLU796  ALA797  LYS798  CYS799  TRP800  GLU811  SER814 

> <Gold.Protein.RotatedAtoms>
  151.4918  135.1058  159.9805 H   0  0  0  0  0  0  0  0  0  0  0  0  # atno 6907 bound_to 6896
  152.4738  133.8086  159.7002 H   0  0  0  0  0  0  0  0  0  0  0  0  # atno 6908 bound_to 6896
  150.8763  133.7372  159.2972 H   0  0  0  0  0  0  0  0  0  0  0  0  # atno 6909 bound_to 6896
  144.8437  139.6281  143.6005 H   0  0  0  0  0  0  0  0  0  0  0  0  # atno 7974 bound_to 7965
  155.6753  140.0738  157.2505 H   0  0  0  0  0  0  0  0  0  0  0  0  # atno 8008 bound_to 7997
  154.4115  140.1691  156.1975 H   0  0  0  0  0  0  0  0  0  0  0  0  # atno 8009 bound_to 7997
  155.9581  140.3372  155.6470 H   0  0  0  0  0  0  0  0  0  0  0  0  # atno 8010 bound_to 7997
  139.4824  144.4875  151.8356 H   0  0  0  0  0  0  0  0  0  0  0  0  # atno 10167 bound_to 10162
  156.1203  130.6318  150.9452 H   0  0  0  0  0  0  0  0  0  0  0  0  # atno 10718 bound_to 10713
  153.0655  135.6571  154.0364 H   0  0  0  0  0  0  0  0  0  0  0  0  # atno 10763 bound_to 10752
  154.0021  135.2936  155.3403 H   0  0  0  0  0  0  0  0  0  0  0  0  # atno 10764 bound_to 10752
  154.7011  135.5244  153.8597 H   0  0  0  0  0  0  0  0  0  0  0  0  # atno 10765 bound_to 10752
  141.1278  133.8384  157.1077 H   0  0  0  0  0  0  0  0  0  0  0  0  # atno 11005 bound_to 11000
  146.2726  139.6672  142.9285 LP  0  0  0  0  0  0  0  0  0  0  0  0  # atno 17320 bound_to 7965
  145.4640  141.0434  143.2735 LP  0  0  0  0  0  0  0  0  0  0  0  0  # atno 17321 bound_to 7965
  140.4357  144.2056  150.5889 LP  0  0  0  0  0  0  0  0  0  0  0  0  # atno 17342 bound_to 10162
  140.4735  143.2404  151.9056 LP  0  0  0  0  0  0  0  0  0  0  0  0  # atno 17343 bound_to 10162
  157.6386  131.0913  150.8297 LP  0  0  0  0  0  0  0  0  0  0  0  0  # atno 17370 bound_to 10713
  156.8394  130.5043  149.5323 LP  0  0  0  0  0  0  0  0  0  0  0  0  # atno 17371 bound_to 10713
  140.0294  134.9908  157.0751 LP  0  0  0  0  0  0  0  0  0  0  0  0  # atno 17394 bound_to 11000
  140.4309  134.1781  155.7168 LP  0  0  0  0  0  0  0  0  0  0  0  0  # atno 17395 bound_to 11000

$$$$
