AV-unprocessed.smi:2766|AV-procd|sdf|10645|dock4
  -GOLD-   2272015 93D 1   1.00000     0.00000
 Structure written by MMmdl.
 32 33  0  0  0  0  0  0  0  0  1 V2000
  145.8966  142.5475  154.2785 C   0  0  0  0  0  0  0  0  0  0  0  0
  146.6488  141.5886  155.0005 O   0  0  0  0  0  0  0  0  0  0  0  0
  147.9825  141.4759  154.5313 C   0  0  0  0  0  0  0  0  0  0  0  0
  148.9188  141.2170  155.7229 C   0  0  1  0  0  0  0  0  0  0  0  0
  148.5633  139.9794  156.3074 O   0  0  0  0  0  0  0  0  0  0  0  0
  150.4003  141.1750  155.2895 C   0  0  0  0  0  0  0  0  0  0  0  0
  151.3195  140.9731  156.4035 N   0  0  0  0  0  0  0  0  0  0  0  0
  152.1924  139.9500  156.6013 C   0  0  0  0  0  0  0  0  0  0  0  0
  152.3093  138.7920  155.6479 C   0  0  0  0  0  0  0  0  0  0  0  0
  151.1286  138.1953  155.4759 F   0  0  0  0  0  0  0  0  0  0  0  0
  152.7320  139.2121  154.4556 F   0  0  0  0  0  0  0  0  0  0  0  0
  153.1611  137.8752  156.1045 F   0  0  0  0  0  0  0  0  0  0  0  0
  152.9145  140.0193  157.7225 N   0  0  0  0  0  0  0  0  0  0  0  0
  152.4681  141.1877  158.3056 C   0  0  0  0  0  0  0  0  0  0  0  0
  152.8466  141.8114  159.5160 C   0  0  0  0  0  0  0  0  0  0  0  0
  152.2352  143.0163  159.9197 C   0  0  0  0  0  0  0  0  0  0  0  0
  151.2381  143.6127  159.1210 C   0  0  0  0  0  0  0  0  0  0  0  0
  150.8474  143.0076  157.9110 C   0  0  0  0  0  0  0  0  0  0  0  0
  151.4633  141.8062  157.5100 C   0  0  0  0  0  0  0  0  0  0  0  0
  148.7819  142.0012  156.4673 H   0  0  0  0  0  0  0  0  0  0  0  0
  144.8848  142.5971  154.6805 H   0  0  0  0  0  0  0  0  0  0  0  0
  145.8264  142.2795  153.2235 H   0  0  0  0  0  0  0  0  0  0  0  0
  146.3397  143.5410  154.3594 H   0  0  0  0  0  0  0  0  0  0  0  0
  148.0765  140.6911  153.7782 H   0  0  0  0  0  0  0  0  0  0  0  0
  148.2525  142.4175  154.0502 H   0  0  0  0  0  0  0  0  0  0  0  0
  148.8810  139.2827  155.7541 H   0  0  0  0  0  0  0  0  0  0  0  0
  150.5574  140.3753  154.5643 H   0  0  0  0  0  0  0  0  0  0  0  0
  150.6676  142.0976  154.7756 H   0  0  0  0  0  0  0  0  0  0  0  0
  153.6076  141.3606  160.1356 H   0  0  0  0  0  0  0  0  0  0  0  0
  152.5315  143.4841  160.8471 H   0  0  0  0  0  0  0  0  0  0  0  0
  150.7738  144.5353  159.4375 H   0  0  0  0  0  0  0  0  0  0  0  0
  150.0848  143.4634  157.2974 H   0  0  0  0  0  0  0  0  0  0  0  0
  1  2  1  0  0  0  0
  1 21  1  0  0  0  0
  1 22  1  0  0  0  0
  1 23  1  0  0  0  0
  2  3  1  0  0  0  0
  3  4  1  0  0  0  0
  3 24  1  0  0  0  0
  3 25  1  0  0  0  0
  4 20  1  0  0  0  0
  4  5  1  0  0  0  0
  4  6  1  0  0  0  0
  5 26  1  0  0  0  0
  6  7  1  0  0  0  0
  6 27  1  0  0  0  0
  6 28  1  0  0  0  0
  7 19  1  0  0  0  0
  7  8  1  0  0  0  0
  8  9  1  0  0  0  0
  8 13  2  0  0  0  0
  9 10  1  0  0  0  0
  9 11  1  0  0  0  0
  9 12  1  0  0  0  0
 13 14  1  0  0  0  0
 14 19  2  0  0  0  0
 14 15  1  0  0  0  0
 15 16  2  0  0  0  0
 15 29  1  0  0  0  0
 16 17  1  0  0  0  0
 16 30  1  0  0  0  0
 17 18  2  0  0  0  0
 17 31  1  0  0  0  0
 18 19  1  0  0  0  0
 18 32  1  0  0  0  0
M  END
> <s_m_source_file>
AV-unprocessed.smi

> <i_m_source_file_index>
2766

> <i_lp_mmshare_version>
43012

> <i_f3d_flags>
0

> <s_epik_input>
W0NIM11PW0NIMl1bQ0BASF0oW09IXSlbQ0gyXW4oYyhuMSlDKEYpKEYpRiljKGMxMilbY0hdW2NIXVtjSF1bY0hdMg==

> <s_epik_cmdline>
J2VwaWtfcHl0aG9uJywgJy1waCcsICc3LjAnLCAnLXRuJywgJzgnLCAnLW1hJywgJzIwMCcsICctbWV0YWxfYmluZGluZycsICctaW1hZScsICc8aW5maWxlLm1hZT4nLCAnLW9tYWUnLCAnPG91dGZpbGUubWFlPic=

> <r_epik_Ionization_Penalty>
0.00044827

> <r_epik_Ionization_Penalty_Charging>
0

> <r_epik_Ionization_Penalty_Neutral>
0.00044827

> <r_epik_State_Penalty>
0.000276591

> <r_epik_Charging_Adjusted_Penalty>
0.000276591

> <i_epik_Tot_Q>
0

> <i_epik_Tot_abs_Q>
0

> <r_epik_Metal_State_Penalty>
-0

> <b_epik_Metal_Only>
0

> <s_lp_Force_Field>
OPLS_2005

> <r_lp_Energy>
13.5685

> <b_lp_Chiralities_Consistent>
1

> <s_lp_Variant>
AV-unprocessed.smi:2766-1

> <Gold.Version>
5.8.1

> <Gold.Id.Protein>
6NUR|6NUR_protein|mol2

> <Gold.PLP.Fitness>
40.5639

> <Gold.PLP.PLP>
-38.1022

> <Gold.PLP.part.hbond>
-1.0000

> <Gold.PLP.part.metal>
0.0000

> <Gold.PLP.part.buried>
-3.8868

> <Gold.PLP.part.nonpolar>
-32.7498

> <Gold.PLP.part.repulsive>
0.1345

> <Gold.PLP.ligand.clash>
0.0000

> <Gold.PLP.ligand.torsion>
0.2818

> <Gold.PLP.Chemscore.Hbond>
1.0000

> <Gold.PLP.Chemscore.CHOScore>
0.0000

> <Gold.PLP.Chemscore.Metal>
0.0000

> <Gold.Chemscore.Hbonds>
donor molecule, donor type, donor heavy atom, donor atom, acceptor molecule, acceptor atom, score
      P1  H  7997  8010       L1    13  0.98

> <Gold.PLP.Chemscore.Internal.Correction>
0.0253

> <Gold.Rescore>
     Score         DG    S(hbond)    S(metal)    S(lipo)     H(rot)  DE(clash)    DE(int)     intcor
     10.90     -11.33       0.44        0.00      88.06       2.32       0.02       0.41       ----

> <Gold.Chemscore.Fitness>
10.8954

> <Gold.Chemscore.DG>
-11.3316

> <Gold.Chemscore.ZeroCoef>
-5.4800

> <Gold.Chemscore.Hbond>
0.4428

> <Gold.Chemscore.Metal>
0.0000

> <Gold.Chemscore.Lipo>
88.0554

> <Gold.Chemscore.Internal_Hbond>
0.0000

> <Gold.Chemscore.DEClash>
0.0221

> <Gold.Chemscore.DEInternal>
0.4142

> <Gold.Chemscore.Rot>
2.3164

> <Gold.Chemscore.Internal.Correction>
   9.000000E+99

> <Gold.Chemscore.Hbonds>
donor molecule, donor type, donor heavy atom, donor atom, acceptor molecule, acceptor atom, score
      P1  H  7997  8010       L1    13  0.22

> <Gold.Chemscore.Hbond.Weighted>
-1.4790

> <Gold.Chemscore.Metal.Weighted>
-0.0000

> <Gold.Chemscore.Lipo.Weighted>
-10.3025

> <Gold.Chemscore.Internal_Hbond.Weighted>
0.0000

> <Gold.Chemscore.DEClash.Weighted>
0.0221

> <Gold.Chemscore.DEInternal.Weighted>
0.4142

> <Gold.Chemscore.Rot.Weighted>
5.9299

> <Gold.Chemscore.Internal.Correction.Weighted>
   9.000000E+99

> <Gold.Protein.RotatedTorsions>
[ 6907 6896 6895 6894 ] final  172.48 input  -60.11 | X-H torsion
[ 7974 7965 7964 7962 ] final -173.27 input  175.53 | X-H torsion
[ 8008 7997 7996 7995 ] final   33.94 input   59.86 | X-H torsion
[ 10167 10162 10161 10158 ] final   62.21 input  -65.29 | X-H torsion
[ 10718 10713 10712 10709 ] final   66.16 input   66.30 | X-H torsion
[ 10763 10752 10751 10750 ] final  -13.30 input  -60.55 | X-H torsion
[ 11005 11000 10999 10996 ] final  131.87 input  -57.11 | X-H torsion

> <Gold.Protein.ActiveResidues>
 VAL166  LYS551  ARG553  GLY616  TRP617  ASP618  TYR619  PRO620  LYS621  CYS622 
 ASP623  PHE694  ASN695  SER759  ASP760  ASP761  ALA762  ILE779  LEU786  VAL792 
 PHE793  MET794  SER795  GLU796  ALA797  LYS798  CYS799  TRP800  GLU811  SER814 

> <Gold.Protein.RotatedAtoms>
  151.7836  133.3352  159.3478 H   0  0  0  0  0  0  0  0  0  0  0  0  # atno 6907 bound_to 6896
  150.7417  134.5908  159.5996 H   0  0  0  0  0  0  0  0  0  0  0  0  # atno 6908 bound_to 6896
  152.3259  134.7323  160.0353 H   0  0  0  0  0  0  0  0  0  0  0  0  # atno 6909 bound_to 6896
  144.7139  140.1646  143.6373 H   0  0  0  0  0  0  0  0  0  0  0  0  # atno 7974 bound_to 7965
  155.1467  140.3271  155.4440 H   0  0  0  0  0  0  0  0  0  0  0  0  # atno 8008 bound_to 7997
  156.2587  140.1984  156.6530 H   0  0  0  0  0  0  0  0  0  0  0  0  # atno 8009 bound_to 7997
  154.6503  140.0559  156.9934 H   0  0  0  0  0  0  0  0  0  0  0  0  # atno 8010 bound_to 7997
  140.1464  144.4505  150.6783 H   0  0  0  0  0  0  0  0  0  0  0  0  # atno 10167 bound_to 10162
  157.6152  130.9253  150.0072 H   0  0  0  0  0  0  0  0  0  0  0  0  # atno 10718 bound_to 10713
  153.5112  135.7016  153.5780 H   0  0  0  0  0  0  0  0  0  0  0  0  # atno 10763 bound_to 10752
  153.3869  135.3906  155.1896 H   0  0  0  0  0  0  0  0  0  0  0  0  # atno 10764 bound_to 10752
  154.8703  135.3849  154.4592 H   0  0  0  0  0  0  0  0  0  0  0  0  # atno 10765 bound_to 10752
  139.9756  134.9564  156.9501 H   0  0  0  0  0  0  0  0  0  0  0  0  # atno 11005 bound_to 11000
  145.8999  139.2424  143.1500 LP  0  0  0  0  0  0  0  0  0  0  0  0  # atno 17320 bound_to 7965
  145.9821  140.8674  143.0109 LP  0  0  0  0  0  0  0  0  0  0  0  0  # atno 17321 bound_to 7965
  140.6729  143.2293  151.5579 LP  0  0  0  0  0  0  0  0  0  0  0  0  # atno 17342 bound_to 10162
  139.5447  144.2553  152.1419 LP  0  0  0  0  0  0  0  0  0  0  0  0  # atno 17343 bound_to 10162
  156.1271  130.3644  149.9792 LP  0  0  0  0  0  0  0  0  0  0  0  0  # atno 17370 bound_to 10713
  156.7861  130.9239  151.3646 LP  0  0  0  0  0  0  0  0  0  0  0  0  # atno 17371 bound_to 10713
  140.5202  134.0915  155.7290 LP  0  0  0  0  0  0  0  0  0  0  0  0  # atno 17394 bound_to 11000
  141.1433  133.9099  157.2274 LP  0  0  0  0  0  0  0  0  0  0  0  0  # atno 17395 bound_to 11000

$$$$
