AV-unprocessed.smi:679|AV-procd|sdf|3322|dock7
  -GOLD-   22720 0293D 1   1.00000     0.00000
 Structure written by MMmdl.
 41 43  0  0  0  0  0  0  0  0  1 V2000
  147.1242  144.0430  159.9289 C   0  0  0  0  0  0  0  0  0  0  0  0
  147.7738  143.1154  158.8997 C   0  0  0  0  0  0  0  0  0  0  0  0
  149.1726  143.3438  158.8995 O   0  0  0  0  0  0  0  0  0  0  0  0
  149.9093  142.2753  158.3257 C   0  0  1  0  0  0  0  0  0  0  0  0
  149.6156  142.0124  156.8454 C   0  0  0  0  0  0  0  0  0  0  0  0
  151.1226  141.8029  156.6549 C   0  0  2  0  0  0  0  0  0  0  0  0
  151.4848  140.3953  156.8279 N   0  0  0  0  0  0  0  0  0  0  0  0
  151.5057  139.4856  155.8433 C   0  0  0  0  0  0  0  0  0  0  0  0
  151.2138  139.7493  154.6760 O   0  0  0  0  0  0  0  0  0  0  0  0
  151.9353  138.0708  156.2438 C   0  0  0  0  0  0  0  0  0  0  0  0
  151.0568  137.4933  157.2460 N   0  0  0  0  0  0  0  0  0  0  0  0
  149.9790  137.9878  157.8589 C   0  0  0  0  0  0  0  0  0  0  0  0
  149.4689  137.1242  158.7236 N   0  0  0  0  0  0  0  0  0  0  0  0
  150.3139  136.0326  158.6135 N   0  0  0  0  0  0  0  0  0  0  0  0
  151.2594  136.2468  157.7402 N   0  0  0  0  0  0  0  0  0  0  0  0
  151.3536  142.6638  157.9258 C   0  0  0  0  0  0  0  0  0  0  0  0
  151.6322  144.1519  157.6982 C   0  0  0  0  0  0  0  0  0  0  0  0
  152.1643  144.7208  159.0177 C   0  0  0  0  0  0  0  0  0  0  0  0
  152.6660  143.5152  159.8187 C   0  0  0  0  0  0  0  0  0  0  0  0
  152.4690  142.3036  158.9055 C   0  0  0  0  0  0  0  0  0  0  0  0
  146.0452  143.8909  159.9652 H   0  0  0  0  0  0  0  0  0  0  0  0
  147.3073  145.0893  159.6829 H   0  0  0  0  0  0  0  0  0  0  0  0
  147.5222  143.8583  160.9268 H   0  0  0  0  0  0  0  0  0  0  0  0
  147.5624  142.0752  159.1516 H   0  0  0  0  0  0  0  0  0  0  0  0
  147.3570  143.3079  157.9102 H   0  0  0  0  0  0  0  0  0  0  0  0
  149.8800  141.3650  158.9285 H   0  0  0  0  0  0  0  0  0  0  0  0
  148.9915  141.1392  156.6512 H   0  0  0  0  0  0  0  0  0  0  0  0
  149.2437  142.8949  156.3224 H   0  0  0  0  0  0  0  0  0  0  0  0
  151.5009  142.2538  155.7357 H   0  0  0  0  0  0  0  0  0  0  0  0
  151.7424  140.0992  157.7582 H   0  0  0  0  0  0  0  0  0  0  0  0
  151.9441  137.4344  155.3576 H   0  0  0  0  0  0  0  0  0  0  0  0
  152.9498  138.0821  156.6447 H   0  0  0  0  0  0  0  0  0  0  0  0
  149.5719  138.9706  157.6726 H   0  0  0  0  0  0  0  0  0  0  0  0
  152.3937  144.2698  156.9259 H   0  0  0  0  0  0  0  0  0  0  0  0
  150.7554  144.7011  157.3531 H   0  0  0  0  0  0  0  0  0  0  0  0
  152.9539  145.4524  158.8439 H   0  0  0  0  0  0  0  0  0  0  0  0
  151.3654  145.2230  159.5649 H   0  0  0  0  0  0  0  0  0  0  0  0
  153.7072  143.6254  160.1229 H   0  0  0  0  0  0  0  0  0  0  0  0
  152.0685  143.4012  160.7241 H   0  0  0  0  0  0  0  0  0  0  0  0
  152.2489  141.4044  159.4817 H   0  0  0  0  0  0  0  0  0  0  0  0
  153.3949  142.1124  158.3615 H   0  0  0  0  0  0  0  0  0  0  0  0
  1  2  1  0  0  0  0
  1 21  1  0  0  0  0
  1 22  1  0  0  0  0
  1 23  1  0  0  0  0
  2  3  1  0  0  0  0
  2 24  1  0  0  0  0
  2 25  1  0  0  0  0
  3  4  1  0  0  0  0
  4 16  1  0  0  0  0
  4  5  1  0  0  0  0
  4 26  1  0  0  0  0
  5  6  1  0  0  0  0
  5 27  1  0  0  0  0
  5 28  1  0  0  0  0
  6  7  1  0  0  0  0
  6 16  1  0  0  0  0
  6 29  1  0  0  0  0
  7  8  1  0  0  0  0
  7 30  1  0  0  0  0
  8  9  2  0  0  0  0
  8 10  1  0  0  0  0
 10 11  1  0  0  0  0
 10 31  1  0  0  0  0
 10 32  1  0  0  0  0
 11 15  1  0  0  0  0
 11 12  1  0  0  0  0
 12 13  2  0  0  0  0
 12 33  1  0  0  0  0
 13 14  1  0  0  0  0
 14 15  2  0  0  0  0
 16 20  1  0  0  0  0
 16 17  1  0  0  0  0
 17 18  1  0  0  0  0
 17 34  1  0  0  0  0
 17 35  1  0  0  0  0
 18 19  1  0  0  0  0
 18 36  1  0  0  0  0
 18 37  1  0  0  0  0
 19 20  1  0  0  0  0
 19 38  1  0  0  0  0
 19 39  1  0  0  0  0
 20 40  1  0  0  0  0
 20 41  1  0  0  0  0
M  END
> <s_m_source_file>
AV-unprocessed.smi

> <i_m_source_file_index>
679

> <i_lp_mmshare_version>
43012

> <i_f3d_flags>
0

> <s_epik_input>
W0NIMl0xW0NIMl1bQ0gyXVtDSDJdQzEyW0NASF0oT1tDSDJdW0NIM10pW0NIMl1bQ0BIXTJbTkhdQyg9TylbQ0gyXW4zW2NIXW5ubjM=

> <s_epik_cmdline>
J2VwaWtfcHl0aG9uJywgJy1waCcsICc3LjAnLCAnLXRuJywgJzgnLCAnLW1hJywgJzIwMCcsICctbWV0YWxfYmluZGluZycsICctaW1hZScsICc8aW5maWxlLm1hZT4nLCAnLW9tYWUnLCAnPG91dGZpbGUubWFlPic=

> <r_lp_tautomer_probability>
1

> <r_epik_Ionization_Penalty>
7.96741e-07

> <r_epik_Ionization_Penalty_Charging>
0

> <r_epik_Ionization_Penalty_Neutral>
7.96741e-07

> <r_epik_State_Penalty>
-0

> <r_epik_Charging_Adjusted_Penalty>
0

> <i_epik_Tot_Q>
0

> <i_epik_Tot_abs_Q>
0

> <r_epik_Metal_State_Penalty>
-0

> <b_epik_Metal_Only>
0

> <s_lp_Force_Field>
OPLS_2005

> <r_lp_Energy>
39.7046

> <b_lp_Chiralities_Consistent>
1

> <s_lp_Variant>
AV-unprocessed.smi:679-4

> <Gold.Version>
5.8.1

> <Gold.Id.Protein>
6NUR|6NUR_protein|mol2

> <Gold.PLP.Fitness>
40.2809

> <Gold.PLP.PLP>
-34.6989

> <Gold.PLP.part.hbond>
-2.9753

> <Gold.PLP.part.metal>
0.0000

> <Gold.PLP.part.buried>
-4.8323

> <Gold.PLP.part.nonpolar>
-27.5248

> <Gold.PLP.part.repulsive>
0.3464

> <Gold.PLP.ligand.clash>
0.0000

> <Gold.PLP.ligand.torsion>
0.3735

> <Gold.PLP.Chemscore.Hbond>
1.9920

> <Gold.PLP.Chemscore.CHOScore>
0.0000

> <Gold.PLP.Chemscore.Metal>
0.0000

> <Gold.Chemscore.Hbonds>
donor molecule, donor type, donor heavy atom, donor atom, acceptor molecule, acceptor atom, score
      P1  H  6896  6909       L1    14  0.99
      P1  H  7989  7998       L1     9  1.00

> <Gold.PLP.Chemscore.Internal.Correction>
0.3530

> <Gold.Rescore>
     Score         DG    S(hbond)    S(metal)    S(lipo)     H(rot)  DE(clash)    DE(int)     intcor
     15.01     -15.72       1.83        0.00      88.09       2.41       0.29       0.41       ----

> <Gold.Chemscore.Fitness>
15.0138

> <Gold.Chemscore.DG>
-15.7175

> <Gold.Chemscore.ZeroCoef>
-5.4800

> <Gold.Chemscore.Hbond>
1.8256

> <Gold.Chemscore.Metal>
0.0000

> <Gold.Chemscore.Lipo>
88.0914

> <Gold.Chemscore.Internal_Hbond>
0.0000

> <Gold.Chemscore.DEClash>
0.2936

> <Gold.Chemscore.DEInternal>
0.4101

> <Gold.Chemscore.Rot>
2.4089

> <Gold.Chemscore.Internal.Correction>
   9.000000E+99

> <Gold.Chemscore.Hbonds>
donor molecule, donor type, donor heavy atom, donor atom, acceptor molecule, acceptor atom, score
      P1  H  6896  6909       L1    14  0.62
      P1  H  7989  7998       L1     9  1.00

> <Gold.Chemscore.Hbond.Weighted>
-6.0976

> <Gold.Chemscore.Metal.Weighted>
-0.0000

> <Gold.Chemscore.Lipo.Weighted>
-10.3067

> <Gold.Chemscore.Internal_Hbond.Weighted>
0.0000

> <Gold.Chemscore.DEClash.Weighted>
0.2936

> <Gold.Chemscore.DEInternal.Weighted>
0.4101

> <Gold.Chemscore.Rot.Weighted>
6.1668

> <Gold.Chemscore.Internal.Correction.Weighted>
   9.000000E+99

> <Gold.Protein.RotatedTorsions>
[ 6907 6896 6895 6894 ] final   69.68 input  -60.11 | X-H torsion
[ 7974 7965 7964 7962 ] final    2.84 input  175.53 | X-H torsion
[ 8008 7997 7996 7995 ] final  138.43 input   59.86 | X-H torsion
[ 10167 10162 10161 10158 ] final   19.05 input  -65.29 | X-H torsion
[ 10718 10713 10712 10709 ] final  141.05 input   66.30 | X-H torsion
[ 10763 10752 10751 10750 ] final  -74.65 input  -60.55 | X-H torsion
[ 11005 11000 10999 10996 ] final   88.63 input  -57.11 | X-H torsion

> <Gold.Protein.ActiveResidues>
 VAL166  LYS551  ARG553  GLY616  TRP617  ASP618  TYR619  PRO620  LYS621  CYS622 
 ASP623  PHE694  ASN695  SER759  ASP760  ASP761  ALA762  ILE779  LEU786  VAL792 
 PHE793  MET794  SER795  GLU796  ALA797  LYS798  CYS799  TRP800  GLU811  SER814 

> <Gold.Protein.RotatedAtoms>
  152.4702  134.4979  159.9715 H   0  0  0  0  0  0  0  0  0  0  0  0  # atno 6907 bound_to 6896
  151.5008  133.3499  159.2876 H   0  0  0  0  0  0  0  0  0  0  0  0  # atno 6908 bound_to 6896
  150.8707  134.8108  159.7214 H   0  0  0  0  0  0  0  0  0  0  0  0  # atno 6909 bound_to 6896
  146.2444  140.0776  142.8359 H   0  0  0  0  0  0  0  0  0  0  0  0  # atno 7974 bound_to 7965
  156.2997  140.2393  156.4073 H   0  0  0  0  0  0  0  0  0  0  0  0  # atno 8008 bound_to 7997
  154.8473  140.0425  157.1601 H   0  0  0  0  0  0  0  0  0  0  0  0  # atno 8009 bound_to 7997
  154.9037  140.2980  155.5307 H   0  0  0  0  0  0  0  0  0  0  0  0  # atno 8010 bound_to 7997
  140.5608  143.9341  150.6641 H   0  0  0  0  0  0  0  0  0  0  0  0  # atno 10167 bound_to 10162
  157.3963  131.1011  151.0596 H   0  0  0  0  0  0  0  0  0  0  0  0  # atno 10718 bound_to 10713
  154.4760  135.5857  153.6355 H   0  0  0  0  0  0  0  0  0  0  0  0  # atno 10763 bound_to 10752
  152.9841  135.6078  154.3307 H   0  0  0  0  0  0  0  0  0  0  0  0  # atno 10764 bound_to 10752
  154.3193  135.2844  155.2507 H   0  0  0  0  0  0  0  0  0  0  0  0  # atno 10765 bound_to 10752
  139.8892  134.8500  156.3028 H   0  0  0  0  0  0  0  0  0  0  0  0  # atno 11005 bound_to 11000
  145.0761  140.9189  143.4853 LP  0  0  0  0  0  0  0  0  0  0  0  0  # atno 17320 bound_to 7965
  145.0919  139.2884  143.5730 LP  0  0  0  0  0  0  0  0  0  0  0  0  # atno 17321 bound_to 7965
  140.2791  143.3402  152.1168 LP  0  0  0  0  0  0  0  0  0  0  0  0  # atno 17342 bound_to 10162
  139.5069  144.6822  151.5978 LP  0  0  0  0  0  0  0  0  0  0  0  0  # atno 17343 bound_to 10162
  157.1611  130.6226  149.5611 LP  0  0  0  0  0  0  0  0  0  0  0  0  # atno 17370 bound_to 10713
  155.9811  130.4816  150.6811 LP  0  0  0  0  0  0  0  0  0  0  0  0  # atno 17371 bound_to 10713
  140.9902  133.7213  156.0802 LP  0  0  0  0  0  0  0  0  0  0  0  0  # atno 17394 bound_to 11000
  140.7635  134.3912  157.5521 LP  0  0  0  0  0  0  0  0  0  0  0  0  # atno 17395 bound_to 11000

$$$$
