AV-unprocessed.smi:439|AV-procd|sdf|2579|dock6
  -GOLD-   2262022563D 1   1.00000     0.00000
 Structure written by MMmdl.
 46 47  0  0  0  0  0  0  0  0  1 V2000
  145.2444  131.8790  151.2159 C   0  0  0  0  0  0  0  0  0  0  0  0
  146.4969  132.7378  151.4358 C   0  0  0  0  0  0  0  0  0  0  0  0
  147.2202  132.4470  152.7601 C   0  0  0  0  0  0  0  0  0  0  0  0
  148.6387  133.0417  152.8265 C   0  0  0  0  0  0  0  0  0  0  0  0
  149.1809  133.0368  154.1707 N   0  0  0  0  0  0  0  0  0  0  0  0
  149.4869  134.1993  154.8851 C   0  0  0  0  0  0  0  0  0  0  0  0
  149.2617  135.4179  154.2646 N   0  0  0  0  0  0  0  0  0  0  0  0
  149.9762  134.1521  156.1607 C   0  0  0  0  0  0  0  0  0  0  0  0
  150.3101  135.3231  156.8776 N   0  0  0  0  0  0  0  0  0  0  0  0
  149.1697  136.1185  157.3692 C   0  0  0  0  0  0  0  0  0  0  0  0
  148.3607  135.4168  158.4756 C   0  0  0  0  0  0  0  0  0  0  0  0
  151.5789  135.8269  156.9537 C   0  0  0  0  0  0  0  0  0  0  0  0
  152.5582  135.1246  156.6929 O   0  0  0  0  0  0  0  0  0  0  0  0
  151.7137  137.2391  157.3265 C   0  0  0  0  0  0  0  0  0  0  0  0
  152.4291  138.0583  156.5216 C   0  0  0  0  0  0  0  0  0  0  0  0
  152.5774  139.4055  156.7376 O   0  0  0  0  0  0  0  0  0  0  0  0
  151.7172  139.9476  157.7324 C   0  0  0  0  0  0  0  0  0  0  0  0
  151.5961  138.9830  158.9199 C   0  0  0  0  0  0  0  0  0  0  0  0
  151.1198  137.7203  158.4719 O   0  0  0  0  0  0  0  0  0  0  0  0
  150.2419  132.8577  156.8075 C   0  0  0  0  0  0  0  0  0  0  0  0
  150.7007  132.6991  157.9381 O   0  0  0  0  0  0  0  0  0  0  0  0
  149.9423  131.7408  156.0326 N   0  0  0  0  0  0  0  0  0  0  0  0
  149.4307  131.7658  154.7407 C   0  0  0  0  0  0  0  0  0  0  0  0
  149.2238  130.7032  154.1537 O   0  0  0  0  0  0  0  0  0  0  0  0
  150.1196  130.8346  156.4413 H   0  0  0  0  0  0  0  0  0  0  0  0
  144.7366  132.1663  150.2950 H   0  0  0  0  0  0  0  0  0  0  0  0
  144.5361  131.9982  152.0361 H   0  0  0  0  0  0  0  0  0  0  0  0
  145.4914  130.8207  151.1353 H   0  0  0  0  0  0  0  0  0  0  0  0
  147.1863  132.6060  150.6011 H   0  0  0  0  0  0  0  0  0  0  0  0
  146.2028  133.7878  151.4221 H   0  0  0  0  0  0  0  0  0  0  0  0
  146.6241  132.8562  153.5767 H   0  0  0  0  0  0  0  0  0  0  0  0
  147.2589  131.3699  152.9261 H   0  0  0  0  0  0  0  0  0  0  0  0
  149.3418  132.4895  152.2047 H   0  0  0  0  0  0  0  0  0  0  0  0
  148.6738  134.0637  152.4455 H   0  0  0  0  0  0  0  0  0  0  0  0
  148.8891  135.4760  153.3276 H   0  0  0  0  0  0  0  0  0  0  0  0
  149.4742  136.2949  154.7181 H   0  0  0  0  0  0  0  0  0  0  0  0
  149.5286  137.0835  157.7310 H   0  0  0  0  0  0  0  0  0  0  0  0
  148.4966  136.3541  156.5430 H   0  0  0  0  0  0  0  0  0  0  0  0
  147.5155  136.0353  158.7780 H   0  0  0  0  0  0  0  0  0  0  0  0
  148.9606  135.2323  159.3666 H   0  0  0  0  0  0  0  0  0  0  0  0
  147.9599  134.4612  158.1415 H   0  0  0  0  0  0  0  0  0  0  0  0
  152.9267  137.7470  155.6141 H   0  0  0  0  0  0  0  0  0  0  0  0
  152.1121  140.9092  158.0600 H   0  0  0  0  0  0  0  0  0  0  0  0
  150.7363  140.1347  157.2937 H   0  0  0  0  0  0  0  0  0  0  0  0
  152.5624  138.8504  159.4089 H   0  0  0  0  0  0  0  0  0  0  0  0
  150.9086  139.3793  159.6673 H   0  0  0  0  0  0  0  0  0  0  0  0
  1  2  1  0  0  0  0
  1 26  1  0  0  0  0
  1 27  1  0  0  0  0
  1 28  1  0  0  0  0
  2  3  1  0  0  0  0
  2 29  1  0  0  0  0
  2 30  1  0  0  0  0
  3  4  1  0  0  0  0
  3 31  1  0  0  0  0
  3 32  1  0  0  0  0
  4  5  1  0  0  0  0
  4 33  1  0  0  0  0
  4 34  1  0  0  0  0
  5 23  1  0  0  0  0
  5  6  1  0  0  0  0
  6  7  1  0  0  0  0
  6  8  2  0  0  0  0
  7 35  1  0  0  0  0
  7 36  1  0  0  0  0
  8  9  1  0  0  0  0
  8 20  1  0  0  0  0
  9 10  1  0  0  0  0
  9 12  1  0  0  0  0
 10 11  1  0  0  0  0
 10 37  1  0  0  0  0
 10 38  1  0  0  0  0
 11 39  1  0  0  0  0
 11 40  1  0  0  0  0
 11 41  1  0  0  0  0
 12 13  2  0  0  0  0
 12 14  1  0  0  0  0
 14 19  1  0  0  0  0
 14 15  2  0  0  0  0
 15 16  1  0  0  0  0
 15 42  1  0  0  0  0
 16 17  1  0  0  0  0
 17 18  1  0  0  0  0
 17 43  1  0  0  0  0
 17 44  1  0  0  0  0
 18 19  1  0  0  0  0
 18 45  1  0  0  0  0
 18 46  1  0  0  0  0
 20 21  2  0  0  0  0
 20 22  1  0  0  0  0
 22 25  1  0  0  0  0
 22 23  1  0  0  0  0
 23 24  2  0  0  0  0
M  END
> <s_m_source_file>
AV-unprocessed.smi

> <i_m_source_file_index>
439

> <i_lp_mmshare_version>
43012

> <i_f3d_flags>
0

> <s_epik_input>
W0NIM11bQ0gyXVtDSDJdW0NIMl1uMWMoW05IMl0pYyhjKD1PKVtuSF1jMT1PKU4oW0NIMl1bQ0gzXSlDKD1PKUMyPVtDSF1PW0NIMl1bQ0gyXU8y

> <s_epik_cmdline>
J2VwaWtfcHl0aG9uJywgJy1waCcsICc3LjAnLCAnLXRuJywgJzgnLCAnLW1hJywgJzIwMCcsICctbWV0YWxfYmluZGluZycsICctaW1hZScsICc8aW5maWxlLm1hZT4nLCAnLW9tYWUnLCAnPG91dGZpbGUubWFlPic=

> <r_lp_tautomer_probability>
1

> <r_epik_Ionization_Penalty>
3.16361e-05

> <r_epik_Ionization_Penalty_Charging>
2.29435e-05

> <r_epik_Ionization_Penalty_Neutral>
8.69256e-06

> <r_epik_State_Penalty>
-0

> <r_epik_Charging_Adjusted_Penalty>
2.29435e-05

> <i_epik_Tot_Q>
0

> <i_epik_Tot_abs_Q>
0

> <r_epik_Metal_State_Penalty>
0.0222995

> <b_epik_Metal_Only>
0

> <s_epik_Chemistry_Notes>
This compound has an imine and may undergo hydrolysis.

> <s_lp_Force_Field>
OPLS_2005

> <r_lp_Energy>
28.4658

> <b_lp_Chiralities_Consistent>
1

> <s_lp_Variant>
AV-unprocessed.smi:439-1

> <Gold.Version>
5.8.1

> <Gold.Id.Protein>
6NUR|6NUR_protein|mol2

> <Gold.PLP.Fitness>
40.8588

> <Gold.PLP.PLP>
-30.9603

> <Gold.PLP.part.hbond>
-3.9954

> <Gold.PLP.part.metal>
0.0000

> <Gold.PLP.part.buried>
-3.6950

> <Gold.PLP.part.nonpolar>
-24.3311

> <Gold.PLP.part.repulsive>
0.0984

> <Gold.PLP.ligand.clash>
0.0000

> <Gold.PLP.ligand.torsion>
2.6210

> <Gold.PLP.Chemscore.Hbond>
3.9280

> <Gold.PLP.Chemscore.CHOScore>
0.0000

> <Gold.PLP.Chemscore.Metal>
0.0000

> <Gold.Chemscore.Hbonds>
donor molecule, donor type, donor heavy atom, donor atom, acceptor molecule, acceptor atom, score
      L1  H     7    35       P1  7948  0.93
      P1  H  6896  6907       L1    21  1.00
      P1  H  7997  8009       L1    16  1.00
      P1  H 10752 10763       L1    13  1.00

> <Gold.PLP.Chemscore.Internal.Correction>
3.3566

> <Gold.Rescore>
     Score         DG    S(hbond)    S(metal)    S(lipo)     H(rot)  DE(clash)    DE(int)     intcor
     16.04     -20.20       3.83        0.00      52.89       1.66       0.03       4.14       ----

> <Gold.Chemscore.Fitness>
16.0425

> <Gold.Chemscore.DG>
-20.2049

> <Gold.Chemscore.ZeroCoef>
-5.4800

> <Gold.Chemscore.Hbond>
3.8253

> <Gold.Chemscore.Metal>
0.0000

> <Gold.Chemscore.Lipo>
52.8892

> <Gold.Chemscore.Internal_Hbond>
0.0000

> <Gold.Chemscore.DEClash>
0.0270

> <Gold.Chemscore.DEInternal>
4.1354

> <Gold.Chemscore.Rot>
1.6562

> <Gold.Chemscore.Internal.Correction>
   9.000000E+99

> <Gold.Chemscore.Hbonds>
donor molecule, donor type, donor heavy atom, donor atom, acceptor molecule, acceptor atom, score
      L1  H     7    35       P1  7948  0.71
      P1  H  6896  6907       L1    21  0.94
      P1  H  7997  8009       L1    16  0.91
      P1  H 10752 10763       L1    13  0.96

> <Gold.Chemscore.Hbond.Weighted>
-12.7766

> <Gold.Chemscore.Metal.Weighted>
-0.0000

> <Gold.Chemscore.Lipo.Weighted>
-6.1880

> <Gold.Chemscore.Internal_Hbond.Weighted>
0.0000

> <Gold.Chemscore.DEClash.Weighted>
0.0270

> <Gold.Chemscore.DEInternal.Weighted>
4.1354

> <Gold.Chemscore.Rot.Weighted>
4.2398

> <Gold.Chemscore.Internal.Correction.Weighted>
   9.000000E+99

> <Gold.Protein.RotatedTorsions>
[ 6907 6896 6895 6894 ] final -144.00 input  -60.11 | X-H torsion
[ 7974 7965 7964 7962 ] final  -25.41 input  175.53 | X-H torsion
[ 8008 7997 7996 7995 ] final -165.14 input   59.86 | X-H torsion
[ 10167 10162 10161 10158 ] final  -68.02 input  -65.29 | X-H torsion
[ 10718 10713 10712 10709 ] final   86.69 input   66.30 | X-H torsion
[ 10763 10752 10751 10750 ] final  107.11 input  -60.55 | X-H torsion
[ 11005 11000 10999 10996 ] final -106.89 input  -57.11 | X-H torsion

> <Gold.Protein.ActiveResidues>
 VAL166  LYS551  ARG553  GLY616  TRP617  ASP618  TYR619  PRO620  LYS621  CYS622 
 ASP623  PHE694  ASN695  SER759  ASP760  ASP761  ALA762  ILE779  LEU786  VAL792 
 PHE793  MET794  SER795  GLU796  ALA797  LYS798  CYS799  TRP800  GLU811  SER814 

> <Gold.Protein.RotatedAtoms>
  151.1081  133.5193  159.2606 H   0  0  0  0  0  0  0  0  0  0  0  0  # atno 6907 bound_to 6896
  151.1997  135.0437  159.8877 H   0  0  0  0  0  0  0  0  0  0  0  0  # atno 6908 bound_to 6896
  152.5448  134.0911  159.8331 H   0  0  0  0  0  0  0  0  0  0  0  0  # atno 6909 bound_to 6896
  146.1492  140.4883  142.8618 H   0  0  0  0  0  0  0  0  0  0  0  0  # atno 7974 bound_to 7965
  155.8456  140.0955  157.1707 H   0  0  0  0  0  0  0  0  0  0  0  0  # atno 8008 bound_to 7997
  154.3983  140.1393  156.3844 H   0  0  0  0  0  0  0  0  0  0  0  0  # atno 8009 bound_to 7997
  155.8016  140.3452  155.5409 H   0  0  0  0  0  0  0  0  0  0  0  0  # atno 8010 bound_to 7997
  140.5539  143.2312  151.6859 H   0  0  0  0  0  0  0  0  0  0  0  0  # atno 10167 bound_to 10162
  157.6932  131.0226  150.3011 H   0  0  0  0  0  0  0  0  0  0  0  0  # atno 10718 bound_to 10713
  153.4023  135.3855  155.1995 H   0  0  0  0  0  0  0  0  0  0  0  0  # atno 10763 bound_to 10752
  154.8730  135.3774  154.4604 H   0  0  0  0  0  0  0  0  0  0  0  0  # atno 10764 bound_to 10752
  153.5102  135.7087  153.5846 H   0  0  0  0  0  0  0  0  0  0  0  0  # atno 10765 bound_to 10752
  141.0982  133.8933  157.1910 H   0  0  0  0  0  0  0  0  0  0  0  0  # atno 11005 bound_to 11000
  144.7884  140.5982  143.6558 LP  0  0  0  0  0  0  0  0  0  0  0  0  # atno 17320 bound_to 7965
  145.4863  139.1492  143.3734 LP  0  0  0  0  0  0  0  0  0  0  0  0  # atno 17321 bound_to 7965
  139.5039  144.3774  152.0410 LP  0  0  0  0  0  0  0  0  0  0  0  0  # atno 17342 bound_to 10162
  140.2893  144.3772  150.6093 LP  0  0  0  0  0  0  0  0  0  0  0  0  # atno 17343 bound_to 10162
  156.3527  130.3833  149.7316 LP  0  0  0  0  0  0  0  0  0  0  0  0  # atno 17370 bound_to 10713
  156.4788  130.8031  151.3046 LP  0  0  0  0  0  0  0  0  0  0  0  0  # atno 17371 bound_to 10713
  139.9825  135.0093  156.9783 LP  0  0  0  0  0  0  0  0  0  0  0  0  # atno 17394 bound_to 11000
  140.5088  134.1023  155.7266 LP  0  0  0  0  0  0  0  0  0  0  0  0  # atno 17395 bound_to 11000

$$$$
