AV-unprocessed.smi:159|AV-procd|sdf|1339|dock5
  -GOLD-   2262019 33D 1   1.00000     0.00000
 Structure written by MMmdl.
 28 29  0  0  0  0  0  0  0  0  1 V2000
  149.2385  138.6908  153.2515 N   0  0  0  0  0  0  0  0  0  0  0  0
  149.4366  139.3165  154.4202 C   0  0  0  0  0  0  0  0  0  0  0  0
  149.4865  140.7602  154.4766 C   0  0  0  0  0  0  0  0  0  0  0  0
  149.6849  141.3165  155.6918 C   0  0  0  0  0  0  0  0  0  0  0  0
  149.8256  140.5520  156.8417 N   0  0  0  0  0  0  0  0  0  0  0  0
  150.0517  141.2024  158.1883 C   0  0  1  0  0  0  0  0  0  0  0  0
  151.3990  140.7654  158.7749 C   0  0  0  0  0  0  0  0  0  0  0  0
  152.2593  141.9880  158.5352 C   0  0  0  0  0  0  0  0  0  0  0  0
  151.2428  143.1206  158.6628 C   0  0  1  0  0  0  0  0  0  0  0  0
  151.6885  144.4210  157.9785 C   0  0  0  0  0  0  0  0  0  0  0  0
  151.5309  144.3110  156.5802 O   0  0  0  0  0  0  0  0  0  0  0  0
  150.0892  142.5896  158.0187 O   0  0  0  0  0  0  0  0  0  0  0  0
  149.7943  139.1392  156.7511 C   0  0  0  0  0  0  0  0  0  0  0  0
  149.9538  138.4194  157.7364 O   0  0  0  0  0  0  0  0  0  0  0  0
  149.5884  138.5931  155.5124 N   0  0  0  0  0  0  0  0  0  0  0  0
  149.1985  140.9495  158.8199 H   0  0  0  0  0  0  0  0  0  0  0  0
  151.0249  143.2862  159.7198 H   0  0  0  0  0  0  0  0  0  0  0  0
  149.2072  137.6823  153.2147 H   0  0  0  0  0  0  0  0  0  0  0  0
  149.1255  139.2324  152.4066 H   0  0  0  0  0  0  0  0  0  0  0  0
  149.3741  141.3938  153.6085 H   0  0  0  0  0  0  0  0  0  0  0  0
  149.7329  142.3940  155.7497 H   0  0  0  0  0  0  0  0  0  0  0  0
  151.2726  140.5873  159.8435 H   0  0  0  0  0  0  0  0  0  0  0  0
  151.7815  139.8570  158.3075 H   0  0  0  0  0  0  0  0  0  0  0  0
  153.0826  142.0743  159.2447 H   0  0  0  0  0  0  0  0  0  0  0  0
  152.6782  141.9590  157.5285 H   0  0  0  0  0  0  0  0  0  0  0  0
  151.0663  145.2519  158.3123 H   0  0  0  0  0  0  0  0  0  0  0  0
  152.7208  144.6682  158.2277 H   0  0  0  0  0  0  0  0  0  0  0  0
  150.6339  144.5127  156.3617 H   0  0  0  0  0  0  0  0  0  0  0  0
  1  2  1  0  0  0  0
  1 18  1  0  0  0  0
  1 19  1  0  0  0  0
  2 15  2  0  0  0  0
  2  3  1  0  0  0  0
  3  4  2  0  0  0  0
  3 20  1  0  0  0  0
  4  5  1  0  0  0  0
  4 21  1  0  0  0  0
  5  6  1  0  0  0  0
  5 13  1  0  0  0  0
  6 16  1  0  0  0  0
  6 12  1  0  0  0  0
  6  7  1  0  0  0  0
  7  8  1  0  0  0  0
  7 22  1  0  0  0  0
  7 23  1  0  0  0  0
  8  9  1  0  0  0  0
  8 24  1  0  0  0  0
  8 25  1  0  0  0  0
  9 17  1  0  0  0  0
  9 10  1  0  0  0  0
  9 12  1  0  0  0  0
 10 11  1  0  0  0  0
 10 26  1  0  0  0  0
 10 27  1  0  0  0  0
 11 28  1  0  0  0  0
 13 14  2  0  0  0  0
 13 15  1  0  0  0  0
M  END
> <s_m_source_file>
AV-unprocessed.smi

> <i_m_source_file_index>
159

> <i_lp_mmshare_version>
43012

> <i_f3d_flags>
0

> <s_epik_input>
W05IMl1jMVtjSF1bY0hdbihjKD1PKW4xKVtDQEhdMltDSDJdW0NIMl1bQ0BIXShPMilbQ0gyXVtPSF0=

> <s_epik_cmdline>
J2VwaWtfcHl0aG9uJywgJy1waCcsICc3LjAnLCAnLXRuJywgJzgnLCAnLW1hJywgJzIwMCcsICctbWV0YWxfYmluZGluZycsICctaW1hZScsICc8aW5maWxlLm1hZT4nLCAnLW9tYWUnLCAnPG91dGZpbGUubWFlPic=

> <r_lp_tautomer_probability>
0.99996

> <r_epik_Ionization_Penalty>
0.00126102

> <r_epik_Ionization_Penalty_Charging>
4.46248e-08

> <r_epik_Ionization_Penalty_Neutral>
0.00126097

> <r_epik_State_Penalty>
1.15523e-05

> <r_epik_Charging_Adjusted_Penalty>
1.1597e-05

> <i_epik_Tot_Q>
0

> <i_epik_Tot_abs_Q>
0

> <r_epik_Metal_State_Penalty>
-0

> <b_epik_Metal_Only>
0

> <s_epik_Chemistry_Notes>
This compound contains an acetal/aminal-like group ( X-CH(R)-Y where X, Y are N, S, or O) that may be acid/base labile, releasing an aldehyde.

> <s_lp_Force_Field>
OPLS_2005

> <r_lp_Energy>
25.8801

> <b_lp_Chiralities_Consistent>
1

> <s_lp_Variant>
AV-unprocessed.smi:159-1

> <Gold.Version>
5.8.1

> <Gold.Id.Protein>
6NUR|6NUR_protein|mol2

> <Gold.PLP.Fitness>
34.7049

> <Gold.PLP.PLP>
-23.5434

> <Gold.PLP.part.hbond>
-2.7830

> <Gold.PLP.part.metal>
0.0000

> <Gold.PLP.part.buried>
-2.6468

> <Gold.PLP.part.nonpolar>
-18.2660

> <Gold.PLP.part.repulsive>
0.2822

> <Gold.PLP.ligand.clash>
0.0000

> <Gold.PLP.ligand.torsion>
0.1739

> <Gold.PLP.Chemscore.Hbond>
2.8320

> <Gold.PLP.Chemscore.CHOScore>
1.0000

> <Gold.PLP.Chemscore.Metal>
0.0000

> <Gold.Chemscore.Hbonds>
donor molecule, donor type, donor heavy atom, donor atom, acceptor molecule, acceptor atom, score
      L1  H     1    18       P1  7948  0.77
      L1  H     1    19       P1  7957  1.00
      L1  H    11    28       P1  8028  1.00
      L1  C     4    21       P1  8028  1.00

> <Gold.PLP.Chemscore.Internal.Correction>
0.0134

> <Gold.Rescore>
     Score         DG    S(hbond)    S(metal)    S(lipo)     H(rot)  DE(clash)    DE(int)     intcor
     13.75     -15.25       2.71        0.00      52.04       2.09       0.32       1.18       ----

> <Gold.Chemscore.Fitness>
13.7462

> <Gold.Chemscore.DG>
-15.2488

> <Gold.Chemscore.ZeroCoef>
-5.4800

> <Gold.Chemscore.Hbond>
2.7066

> <Gold.Chemscore.Metal>
0.0000

> <Gold.Chemscore.Lipo>
52.0355

> <Gold.Chemscore.Internal_Hbond>
0.0000

> <Gold.Chemscore.DEClash>
0.3184

> <Gold.Chemscore.DEInternal>
1.1842

> <Gold.Chemscore.Rot>
2.0935

> <Gold.Chemscore.Internal.Correction>
   9.000000E+99

> <Gold.Chemscore.Hbonds>
donor molecule, donor type, donor heavy atom, donor atom, acceptor molecule, acceptor atom, score
      L1  H     1    18       P1  7948  0.74
      L1  H     1    19       P1  7957  0.94
      L1  H    11    28       P1  8028  1.00

> <Gold.Chemscore.Hbond.Weighted>
-9.0400

> <Gold.Chemscore.Metal.Weighted>
-0.0000

> <Gold.Chemscore.Lipo.Weighted>
-6.0881

> <Gold.Chemscore.Internal_Hbond.Weighted>
0.0000

> <Gold.Chemscore.DEClash.Weighted>
0.3184

> <Gold.Chemscore.DEInternal.Weighted>
1.1842

> <Gold.Chemscore.Rot.Weighted>
5.3594

> <Gold.Chemscore.Internal.Correction.Weighted>
   9.000000E+99

> <Gold.Protein.RotatedTorsions>
[ 6907 6896 6895 6894 ] final   98.94 input  -60.11 | X-H torsion
[ 7974 7965 7964 7962 ] final  135.32 input  175.53 | X-H torsion
[ 8008 7997 7996 7995 ] final  136.34 input   59.86 | X-H torsion
[ 10167 10162 10161 10158 ] final  163.32 input  -65.29 | X-H torsion
[ 10718 10713 10712 10709 ] final -132.07 input   66.30 | X-H torsion
[ 10763 10752 10751 10750 ] final   83.28 input  -60.55 | X-H torsion
[ 11005 11000 10999 10996 ] final    6.32 input  -57.11 | X-H torsion

> <Gold.Protein.ActiveResidues>
 VAL166  LYS551  ARG553  GLY616  TRP617  ASP618  TYR619  PRO620  LYS621  CYS622 
 ASP623  PHE694  ASN695  SER759  ASP760  ASP761  ALA762  ILE779  LEU786  VAL792 
 PHE793  MET794  SER795  GLU796  ALA797  LYS798  CYS799  TRP800  GLU811  SER814 

> <Gold.Protein.RotatedAtoms>
  152.5401  134.0504  159.8106 H   0  0  0  0  0  0  0  0  0  0  0  0  # atno 6907 bound_to 6896
  151.0646  133.5508  159.2639 H   0  0  0  0  0  0  0  0  0  0  0  0  # atno 6908 bound_to 6896
  151.2394  135.0591  159.9073 H   0  0  0  0  0  0  0  0  0  0  0  0  # atno 6909 bound_to 6896
  144.9675  139.4642  143.5449 H   0  0  0  0  0  0  0  0  0  0  0  0  # atno 7974 bound_to 7965
  156.3004  140.2448  156.3729 H   0  0  0  0  0  0  0  0  0  0  0  0  # atno 8008 bound_to 7997
  154.8772  140.0414  157.1780 H   0  0  0  0  0  0  0  0  0  0  0  0  # atno 8009 bound_to 7997
  154.8733  140.2938  155.5472 H   0  0  0  0  0  0  0  0  0  0  0  0  # atno 8010 bound_to 7997
  139.4872  144.4349  151.9025 H   0  0  0  0  0  0  0  0  0  0  0  0  # atno 10167 bound_to 10162
  156.2308  130.7036  151.0856 H   0  0  0  0  0  0  0  0  0  0  0  0  # atno 10718 bound_to 10713
  153.1277  135.4697  154.9299 H   0  0  0  0  0  0  0  0  0  0  0  0  # atno 10763 bound_to 10752
  154.7636  135.3138  154.8333 H   0  0  0  0  0  0  0  0  0  0  0  0  # atno 10764 bound_to 10752
  153.8883  135.6887  153.4816 H   0  0  0  0  0  0  0  0  0  0  0  0  # atno 10765 bound_to 10752
  140.5607  134.0195  155.7971 H   0  0  0  0  0  0  0  0  0  0  0  0  # atno 11005 bound_to 11000
  146.3372  139.8865  142.8816 LP  0  0  0  0  0  0  0  0  0  0  0  0  # atno 17320 bound_to 7965
  145.2608  141.0076  143.3827 LP  0  0  0  0  0  0  0  0  0  0  0  0  # atno 17321 bound_to 7965
  140.3798  144.2751  150.5910 LP  0  0  0  0  0  0  0  0  0  0  0  0  # atno 17342 bound_to 10162
  140.5244  143.2258  151.8339 LP  0  0  0  0  0  0  0  0  0  0  0  0  # atno 17343 bound_to 10162
  157.7132  131.0723  150.6424 LP  0  0  0  0  0  0  0  0  0  0  0  0  # atno 17370 bound_to 10713
  156.6492  130.4480  149.5725 LP  0  0  0  0  0  0  0  0  0  0  0  0  # atno 17371 bound_to 10713
  141.1116  133.9607  157.2900 LP  0  0  0  0  0  0  0  0  0  0  0  0  # atno 17394 bound_to 11000
  139.9409  135.0191  156.8705 LP  0  0  0  0  0  0  0  0  0  0  0  0  # atno 17395 bound_to 11000

$$$$
