AV-unprocessed.smi:2880|AV-procd|sdf|11054|dock3
  -GOLD-   2272015523D 1   1.00000     0.00000
 Structure written by MMmdl.
 47 48  0  0  0  0  0  0  0  0  1 V2000
  146.0028  142.9289  156.4102 C   0  0  0  0  0  0  0  0  0  0  0  0
  145.4775  142.4306  155.0495 C   0  0  0  0  0  0  0  0  0  0  0  0
  144.0604  141.8451  155.2571 C   0  0  0  0  0  0  0  0  0  0  0  0
  145.3790  143.6119  154.0648 C   0  0  0  0  0  0  0  0  0  0  0  0
  146.4160  141.4375  154.5099 N   0  0  0  0  0  0  0  0  0  0  0  0
  147.7599  141.6075  154.2212 C   0  0  0  0  0  0  0  0  0  0  0  0
  148.2428  140.4261  153.7355 C   0  0  0  0  0  0  0  0  0  0  0  0
  147.1053  139.5762  153.7598 C   0  0  0  0  0  0  0  0  0  0  0  0
  147.1977  138.2290  153.3268 N   0  0  0  0  0  0  0  0  0  0  0  0
  146.1896  137.3967  153.0152 C   0  0  0  0  0  0  0  0  0  0  0  0
  144.9947  137.6945  153.0291 O   0  0  0  0  0  0  0  0  0  0  0  0
  146.6521  136.1801  152.6897 N   0  0  0  0  0  0  0  0  0  0  0  0
  145.8384  135.0176  152.3360 C   0  0  1  0  0  0  0  0  0  0  0  0
  145.1196  135.3091  151.0035 C   0  0  0  0  0  0  0  0  0  0  0  0
  144.2675  134.1177  150.5454 C   0  0  0  0  0  0  0  0  0  0  0  0
  145.1206  132.8479  150.4373 C   0  0  0  0  0  0  0  0  0  0  0  0
  145.8285  132.5465  151.7666 C   0  0  0  0  0  0  0  0  0  0  0  0
  146.7013  133.7272  152.2453 C   0  0  2  0  0  0  0  0  0  0  0  0
  147.4008  133.3565  153.5738 C   0  0  0  0  0  0  0  0  0  0  0  0
  148.2201  134.4049  154.0499 O   0  0  0  0  0  0  0  0  0  0  0  0
  146.0166  140.1761  154.2173 N   0  0  0  0  0  0  0  0  0  0  0  0
  145.3275  143.6632  156.8503 H   0  0  0  0  0  0  0  0  0  0  0  0
  146.9807  143.4027  156.3192 H   0  0  0  0  0  0  0  0  0  0  0  0
  146.1008  142.1065  157.1200 H   0  0  0  0  0  0  0  0  0  0  0  0
  144.0692  141.0070  155.9550 H   0  0  0  0  0  0  0  0  0  0  0  0
  143.6274  141.4937  154.3195 H   0  0  0  0  0  0  0  0  0  0  0  0
  143.3805  142.5948  155.6636 H   0  0  0  0  0  0  0  0  0  0  0  0
  144.6822  144.3700  154.4239 H   0  0  0  0  0  0  0  0  0  0  0  0
  145.0290  143.2816  153.0860 H   0  0  0  0  0  0  0  0  0  0  0  0
  146.3429  144.1007  153.9206 H   0  0  0  0  0  0  0  0  0  0  0  0
  148.2603  142.5503  154.3848 H   0  0  0  0  0  0  0  0  0  0  0  0
  149.2503  140.2075  153.4149 H   0  0  0  0  0  0  0  0  0  0  0  0
  148.1316  137.8510  153.2672 H   0  0  0  0  0  0  0  0  0  0  0  0
  147.6509  136.0362  152.7137 H   0  0  0  0  0  0  0  0  0  0  0  0
  145.0712  134.8544  153.0952 H   0  0  0  0  0  0  0  0  0  0  0  0
  144.4864  136.1914  151.1058 H   0  0  0  0  0  0  0  0  0  0  0  0
  145.8539  135.5445  150.2315 H   0  0  0  0  0  0  0  0  0  0  0  0
  143.4530  133.9547  151.2524 H   0  0  0  0  0  0  0  0  0  0  0  0
  143.8036  134.3383  149.5837 H   0  0  0  0  0  0  0  0  0  0  0  0
  144.4952  132.0028  150.1484 H   0  0  0  0  0  0  0  0  0  0  0  0
  145.8620  132.9689  149.6464 H   0  0  0  0  0  0  0  0  0  0  0  0
  145.0838  132.3087  152.5276 H   0  0  0  0  0  0  0  0  0  0  0  0
  146.4423  131.6529  151.6483 H   0  0  0  0  0  0  0  0  0  0  0  0
  147.4731  133.8785  151.4883 H   0  0  0  0  0  0  0  0  0  0  0  0
  146.6690  133.0877  154.3364 H   0  0  0  0  0  0  0  0  0  0  0  0
  148.0464  132.4888  153.4356 H   0  0  0  0  0  0  0  0  0  0  0  0
  148.3308  135.0374  153.3563 H   0  0  0  0  0  0  0  0  0  0  0  0
  1  2  1  0  0  0  0
  1 22  1  0  0  0  0
  1 23  1  0  0  0  0
  1 24  1  0  0  0  0
  2  3  1  0  0  0  0
  2  4  1  0  0  0  0
  2  5  1  0  0  0  0
  3 25  1  0  0  0  0
  3 26  1  0  0  0  0
  3 27  1  0  0  0  0
  4 28  1  0  0  0  0
  4 29  1  0  0  0  0
  4 30  1  0  0  0  0
  5 21  1  0  0  0  0
  5  6  1  0  0  0  0
  6  7  2  0  0  0  0
  6 31  1  0  0  0  0
  7  8  1  0  0  0  0
  7 32  1  0  0  0  0
  8  9  1  0  0  0  0
  8 21  2  0  0  0  0
  9 10  1  0  0  0  0
  9 33  1  0  0  0  0
 10 11  2  0  0  0  0
 10 12  1  0  0  0  0
 12 13  1  0  0  0  0
 12 34  1  0  0  0  0
 13 18  1  0  0  0  0
 13 14  1  0  0  0  0
 13 35  1  0  0  0  0
 14 15  1  0  0  0  0
 14 36  1  0  0  0  0
 14 37  1  0  0  0  0
 15 16  1  0  0  0  0
 15 38  1  0  0  0  0
 15 39  1  0  0  0  0
 16 17  1  0  0  0  0
 16 40  1  0  0  0  0
 16 41  1  0  0  0  0
 17 18  1  0  0  0  0
 17 42  1  0  0  0  0
 17 43  1  0  0  0  0
 18 19  1  0  0  0  0
 18 44  1  0  0  0  0
 19 20  1  0  0  0  0
 19 45  1  0  0  0  0
 19 46  1  0  0  0  0
 20 47  1  0  0  0  0
M  END
> <s_m_source_file>
AV-unprocessed.smi

> <i_m_source_file_index>
2880

> <i_lp_mmshare_version>
43012

> <i_f3d_flags>
0

> <s_epik_input>
W0NIM11DKFtDSDNdKShbQ0gzXSluMVtjSF1bY0hdYyhuMSlbTkhdQyg9TylbTkhdW0NAQEhdMltDSDJdW0NIMl1bQ0gyXVtDSDJdW0NASF0yW0NIMl1bT0hd

> <s_epik_cmdline>
J2VwaWtfcHl0aG9uJywgJy1waCcsICc3LjAnLCAnLXRuJywgJzgnLCAnLW1hJywgJzIwMCcsICctbWV0YWxfYmluZGluZycsICctaW1hZScsICc8aW5maWxlLm1hZT4nLCAnLW9tYWUnLCAnPG91dGZpbGUubWFlPic=

> <r_lp_tautomer_probability>
1

> <r_epik_Ionization_Penalty>
3.89283e-05

> <r_epik_Ionization_Penalty_Charging>
0

> <r_epik_Ionization_Penalty_Neutral>
3.89283e-05

> <r_epik_State_Penalty>
-0

> <r_epik_Charging_Adjusted_Penalty>
0

> <i_epik_Tot_Q>
0

> <i_epik_Tot_abs_Q>
0

> <r_epik_Metal_State_Penalty>
-0

> <b_epik_Metal_Only>
0

> <s_lp_Force_Field>
OPLS_2005

> <r_lp_Energy>
21.9333

> <b_lp_Chiralities_Consistent>
1

> <s_lp_Variant>
AV-unprocessed.smi:2880-4

> <Gold.Version>
5.8.1

> <Gold.Id.Protein>
6NUR|6NUR_protein|mol2

> <Gold.PLP.Fitness>
41.3847

> <Gold.PLP.PLP>
-32.0228

> <Gold.PLP.part.hbond>
-2.5964

> <Gold.PLP.part.metal>
0.0000

> <Gold.PLP.part.buried>
-4.4246

> <Gold.PLP.part.nonpolar>
-27.4954

> <Gold.PLP.part.repulsive>
0.6581

> <Gold.PLP.ligand.clash>
0.0000

> <Gold.PLP.ligand.torsion>
0.1216

> <Gold.PLP.Chemscore.Hbond>
2.1973

> <Gold.PLP.Chemscore.CHOScore>
1.0000

> <Gold.PLP.Chemscore.Metal>
0.0000

> <Gold.Chemscore.Hbonds>
donor molecule, donor type, donor heavy atom, donor atom, acceptor molecule, acceptor atom, score
      L1  H     9    33       P1  7948  0.21
      L1  H    12    34       P1  7948  0.83
      L1  H    20    47       P1  7948  1.00
      L1  C     6    31       P1  8028  0.92

> <Gold.PLP.Chemscore.Internal.Correction>
0.0133

> <Gold.Rescore>
     Score         DG    S(hbond)    S(metal)    S(lipo)     H(rot)  DE(clash)    DE(int)     intcor
     12.97     -16.73       2.52        0.00      67.18       1.97       0.88       2.89       ----

> <Gold.Chemscore.Fitness>
12.9655

> <Gold.Chemscore.DG>
-16.7265

> <Gold.Chemscore.ZeroCoef>
-5.4800

> <Gold.Chemscore.Hbond>
2.5218

> <Gold.Chemscore.Metal>
0.0000

> <Gold.Chemscore.Lipo>
67.1768

> <Gold.Chemscore.Internal_Hbond>
0.0000

> <Gold.Chemscore.DEClash>
0.8752

> <Gold.Chemscore.DEInternal>
2.8858

> <Gold.Chemscore.Rot>
1.9672

> <Gold.Chemscore.Internal.Correction>
   9.000000E+99

> <Gold.Chemscore.Hbonds>
donor molecule, donor type, donor heavy atom, donor atom, acceptor molecule, acceptor atom, score
      L1  H     9    33       P1  7948  0.22
      L1  H    12    34       P1  7948  0.80
      L1  H    20    47       P1  7948  0.90

> <Gold.Chemscore.Hbond.Weighted>
-8.4228

> <Gold.Chemscore.Metal.Weighted>
-0.0000

> <Gold.Chemscore.Lipo.Weighted>
-7.8597

> <Gold.Chemscore.Internal_Hbond.Weighted>
0.0000

> <Gold.Chemscore.DEClash.Weighted>
0.8752

> <Gold.Chemscore.DEInternal.Weighted>
2.8858

> <Gold.Chemscore.Rot.Weighted>
5.0360

> <Gold.Chemscore.Internal.Correction.Weighted>
   9.000000E+99

> <Gold.Protein.RotatedTorsions>
[ 6907 6896 6895 6894 ] final  -52.52 input  -60.11 | X-H torsion
[ 7974 7965 7964 7962 ] final -129.84 input  175.53 | X-H torsion
[ 8008 7997 7996 7995 ] final   50.18 input   59.86 | X-H torsion
[ 10167 10162 10161 10158 ] final  -50.93 input  -65.29 | X-H torsion
[ 10718 10713 10712 10709 ] final  118.10 input   66.30 | X-H torsion
[ 10763 10752 10751 10750 ] final  -97.12 input  -60.55 | X-H torsion
[ 11005 11000 10999 10996 ] final   91.06 input  -57.11 | X-H torsion

> <Gold.Protein.ActiveResidues>
 VAL166  LYS551  ARG553  GLY616  TRP617  ASP618  TYR619  PRO620  LYS621  CYS622 
 ASP623  PHE694  ASN695  SER759  ASP760  ASP761  ALA762  ILE779  LEU786  VAL792 
 PHE793  MET794  SER795  GLU796  ALA797  LYS798  CYS799  TRP800  GLU811  SER814 

> <Gold.Protein.RotatedAtoms>
  150.8511  134.7835  159.7008 H   0  0  0  0  0  0  0  0  0  0  0  0  # atno 6907 bound_to 6896
  152.4575  134.5256  159.9805 H   0  0  0  0  0  0  0  0  0  0  0  0  # atno 6908 bound_to 6896
  151.5376  133.3400  159.2965 H   0  0  0  0  0  0  0  0  0  0  0  0  # atno 6909 bound_to 6896
  144.9532  140.7367  143.4775 H   0  0  0  0  0  0  0  0  0  0  0  0  # atno 7974 bound_to 7965
  155.4146  140.3444  155.4266 H   0  0  0  0  0  0  0  0  0  0  0  0  # atno 8008 bound_to 7997
  156.1429  140.1547  156.8924 H   0  0  0  0  0  0  0  0  0  0  0  0  # atno 8009 bound_to 7997
  154.4986  140.0821  156.7730 H   0  0  0  0  0  0  0  0  0  0  0  0  # atno 8010 bound_to 7997
  140.6613  143.2639  151.4430 H   0  0  0  0  0  0  0  0  0  0  0  0  # atno 10167 bound_to 10162
  157.6053  131.1044  150.7709 H   0  0  0  0  0  0  0  0  0  0  0  0  # atno 10718 bound_to 10713
  154.7300  135.5058  153.8948 H   0  0  0  0  0  0  0  0  0  0  0  0  # atno 10763 bound_to 10752
  153.0941  135.6667  153.9806 H   0  0  0  0  0  0  0  0  0  0  0  0  # atno 10764 bound_to 10752
  153.9609  135.3048  155.3413 H   0  0  0  0  0  0  0  0  0  0  0  0  # atno 10765 bound_to 10752
  139.8845  134.8651  156.3374 H   0  0  0  0  0  0  0  0  0  0  0  0  # atno 11005 bound_to 11000
  145.2812  139.1918  143.4790 LP  0  0  0  0  0  0  0  0  0  0  0  0  # atno 17320 bound_to 7965
  146.3328  140.2774  142.8608 LP  0  0  0  0  0  0  0  0  0  0  0  0  # atno 17321 bound_to 7965
  139.5848  144.1628  152.2015 LP  0  0  0  0  0  0  0  0  0  0  0  0  # atno 17342 bound_to 10162
  140.0965  144.5576  150.7018 LP  0  0  0  0  0  0  0  0  0  0  0  0  # atno 17343 bound_to 10162
  156.8098  130.4949  149.5357 LP  0  0  0  0  0  0  0  0  0  0  0  0  # atno 17370 bound_to 10713
  156.1137  130.6059  151.0087 LP  0  0  0  0  0  0  0  0  0  0  0  0  # atno 17371 bound_to 10713
  140.9682  133.7344  156.0496 LP  0  0  0  0  0  0  0  0  0  0  0  0  # atno 17394 bound_to 11000
  140.7904  134.3623  157.5466 LP  0  0  0  0  0  0  0  0  0  0  0  0  # atno 17395 bound_to 11000

$$$$
