AV-unprocessed.smi:1205|AV-procd|sdf|5039|dock2
  -GOLD-   22720 4 63D 1   1.00000     0.00000
 Structure written by MMmdl.
 49 50  0  0  0  0  0  0  0  0  2 V2000
  149.7262  142.2006  155.4423 C   0  0  0  0  0  0  0  0  0  0  0  0
  149.8574  140.7572  155.0543 C   0  0  0  0  0  0  0  0  0  0  0  0
  148.8155  139.8132  154.8207 C   0  0  0  0  0  0  0  0  0  0  0  0
  149.5057  138.6750  154.5042 C   0  0  0  0  0  0  0  0  0  0  0  0
  149.0245  137.4433  154.1878 N   0  0  0  0  0  0  0  0  0  0  0  0
  148.5087  136.5081  155.0045 C   0  0  0  0  0  0  0  0  0  0  0  0
  148.3800  136.6145  156.2244 O   0  0  0  0  0  0  0  0  0  0  0  0
  148.1440  135.4137  154.3210 N   0  0  0  0  0  0  0  0  0  0  0  0
  147.5536  134.2178  154.9150 C   0  0  0  0  0  0  0  0  0  0  0  0
  148.0226  132.9145  154.2259 C   0  0  2  0  0  0  0  0  0  0  0  0
  149.4653  133.0102  153.6829 C   0  0  0  0  0  0  0  0  0  0  0  0
  147.0375  132.4804  153.1922 N   0  3  1  0  0  0  0  0  0  0  0  0
  147.0214  133.2927  151.9447 C   0  0  0  0  0  0  0  0  0  0  0  0
  145.8202  132.9129  151.0648 C   0  0  0  0  0  0  0  0  0  0  0  0
  145.8315  131.4129  150.7410 C   0  0  0  0  0  0  0  0  0  0  0  0
  145.8892  130.5846  152.0366 C   0  0  1  0  0  0  0  0  0  0  0  0
  145.9296  129.0791  151.7398 C   0  0  0  0  0  0  0  0  0  0  0  0
  147.0904  131.0229  152.8987 C   0  0  0  0  0  0  0  0  0  0  0  0
  150.8553  138.9451  154.5525 N   0  0  0  0  0  0  0  0  0  0  0  0
  151.9811  138.0662  154.3019 C   0  0  0  0  0  0  0  0  0  0  0  0
  151.0679  140.2344  154.8940 N   0  0  0  0  0  0  0  0  0  0  0  0
  148.6794  142.4877  155.5423 H   0  0  0  0  0  0  0  0  0  0  0  0
  150.1780  142.8512  154.6930 H   0  0  0  0  0  0  0  0  0  0  0  0
  150.2163  142.3971  156.3960 H   0  0  0  0  0  0  0  0  0  0  0  0
  147.7489  139.9677  154.8822 H   0  0  0  0  0  0  0  0  0  0  0  0
  149.0595  137.2087  153.2067 H   0  0  0  0  0  0  0  0  0  0  0  0
  148.2794  135.4082  153.3203 H   0  0  0  0  0  0  0  0  0  0  0  0
  147.7864  134.1890  155.9811 H   0  0  0  0  0  0  0  0  0  0  0  0
  146.4720  134.3254  154.8413 H   0  0  0  0  0  0  0  0  0  0  0  0
  148.0232  132.1433  154.9974 H   0  0  0  0  0  0  0  0  0  0  0  0
  150.1779  133.1835  154.4896 H   0  0  0  0  0  0  0  0  0  0  0  0
  149.5784  133.8292  152.9723 H   0  0  0  0  0  0  0  0  0  0  0  0
  149.7705  132.0897  153.1858 H   0  0  0  0  0  0  0  0  0  0  0  0
  146.9665  134.3550  152.1797 H   0  0  0  0  0  0  0  0  0  0  0  0
  147.9446  133.1377  151.3848 H   0  0  0  0  0  0  0  0  0  0  0  0
  144.8926  133.1724  151.5770 H   0  0  0  0  0  0  0  0  0  0  0  0
  145.8364  133.4923  150.1411 H   0  0  0  0  0  0  0  0  0  0  0  0
  144.9445  131.1516  150.1627 H   0  0  0  0  0  0  0  0  0  0  0  0
  146.6926  131.1807  150.1123 H   0  0  0  0  0  0  0  0  0  0  0  0
  144.9782  130.7820  152.6038 H   0  0  0  0  0  0  0  0  0  0  0  0
  146.8174  128.8109  151.1663 H   0  0  0  0  0  0  0  0  0  0  0  0
  145.0564  128.7685  151.1655 H   0  0  0  0  0  0  0  0  0  0  0  0
  145.9406  128.4973  152.6618 H   0  0  0  0  0  0  0  0  0  0  0  0
  148.0257  130.7817  152.3919 H   0  0  0  0  0  0  0  0  0  0  0  0
  147.0817  130.4593  153.8325 H   0  0  0  0  0  0  0  0  0  0  0  0
  151.8364  137.5432  153.3562 H   0  0  0  0  0  0  0  0  0  0  0  0
  152.0594  137.3348  155.1065 H   0  0  0  0  0  0  0  0  0  0  0  0
  152.9091  138.6370  154.2489 H   0  0  0  0  0  0  0  0  0  0  0  0
  146.1348  132.6225  153.6226 H   0  0  0  0  0  0  0  0  0  0  0  0
  1  2  1  0  0  0  0
  1 22  1  0  0  0  0
  1 23  1  0  0  0  0
  1 24  1  0  0  0  0
  2 21  2  0  0  0  0
  2  3  1  0  0  0  0
  3  4  2  0  0  0  0
  3 25  1  0  0  0  0
  4  5  1  0  0  0  0
  4 19  1  0  0  0  0
  5  6  1  0  0  0  0
  5 26  1  0  0  0  0
  6  7  2  0  0  0  0
  6  8  1  0  0  0  0
  8  9  1  0  0  0  0
  8 27  1  0  0  0  0
  9 10  1  0  0  0  0
  9 28  1  0  0  0  0
  9 29  1  0  0  0  0
 10 11  1  0  0  0  0
 10 12  1  0  0  0  0
 10 30  1  0  0  0  0
 11 31  1  0  0  0  0
 11 32  1  0  0  0  0
 11 33  1  0  0  0  0
 12 18  1  0  0  0  0
 12 13  1  0  0  0  0
 12 49  1  0  0  0  0
 13 14  1  0  0  0  0
 13 34  1  0  0  0  0
 13 35  1  0  0  0  0
 14 15  1  0  0  0  0
 14 36  1  0  0  0  0
 14 37  1  0  0  0  0
 15 16  1  0  0  0  0
 15 38  1  0  0  0  0
 15 39  1  0  0  0  0
 16 17  1  0  0  0  0
 16 18  1  0  0  0  0
 16 40  1  0  0  0  0
 17 41  1  0  0  0  0
 17 42  1  0  0  0  0
 17 43  1  0  0  0  0
 18 44  1  0  0  0  0
 18 45  1  0  0  0  0
 19 20  1  0  0  0  0
 19 21  1  0  0  0  0
 20 46  1  0  0  0  0
 20 47  1  0  0  0  0
 20 48  1  0  0  0  0
M  CHG  1  12   1
M  END
> <s_m_source_file>
AV-unprocessed.smi

> <i_m_source_file_index>
1205

> <i_lp_mmshare_version>
43012

> <i_f3d_flags>
0

> <s_epik_input>
W0NIM11jMVtjSF1jKG4objEpW0NIM10pW05IXUMoPU8pW05IXVtDSDJdW0NASF0oW0NIM10pTjJbQ0gyXVtDSDJdW0NIMl1bQ0BASF0oW0NIM10pW0NIMl0y

> <s_epik_cmdline>
J2VwaWtfcHl0aG9uJywgJy1waCcsICc3LjAnLCAnLXRuJywgJzgnLCAnLW1hJywgJzIwMCcsICctbWV0YWxfYmluZGluZycsICctaW1hZScsICc8aW5maWxlLm1hZT4nLCAnLW9tYWUnLCAnPG91dGZpbGUubWFlPic=

> <r_lp_tautomer_probability>
1

> <r_epik_Ionization_Penalty>
0.0020309

> <r_epik_Ionization_Penalty_Charging>
0.00195276

> <r_epik_Ionization_Penalty_Neutral>
7.81448e-05

> <r_epik_State_Penalty>
0.00133177

> <r_epik_Charging_Adjusted_Penalty>
0.00328452

> <i_epik_Tot_Q>
1

> <i_epik_Tot_abs_Q>
1

> <r_epik_Metal_State_Penalty>
-0

> <b_epik_Metal_Only>
0

> <s_lp_Force_Field>
OPLS_2005

> <r_lp_Energy>
21.646

> <b_lp_Chiralities_Consistent>
1

> <s_lp_Variant>
AV-unprocessed.smi:1205-1

> <Gold.Version>
5.8.1

> <Gold.Id.Protein>
6NUR|6NUR_protein|mol2

> <Gold.PLP.Fitness>
42.0276

> <Gold.PLP.PLP>
-36.0229

> <Gold.PLP.part.hbond>
-3.0000

> <Gold.PLP.part.metal>
0.0000

> <Gold.PLP.part.buried>
-0.4679

> <Gold.PLP.part.nonpolar>
-32.1297

> <Gold.PLP.part.repulsive>
0.0900

> <Gold.PLP.ligand.clash>
0.0000

> <Gold.PLP.ligand.torsion>
1.5333

> <Gold.PLP.Chemscore.Hbond>
2.9760

> <Gold.PLP.Chemscore.CHOScore>
0.0000

> <Gold.PLP.Chemscore.Metal>
0.0000

> <Gold.Chemscore.Hbonds>
donor molecule, donor type, donor heavy atom, donor atom, acceptor molecule, acceptor atom, score
      L1  H     5    26       P1  7948  1.00
      L1  H     8    27       P1  7948  0.98
      P1  H  7989  7998       L1    21  1.00

> <Gold.PLP.Chemscore.Internal.Correction>
0.1434

> <Gold.Rescore>
     Score         DG    S(hbond)    S(metal)    S(lipo)     H(rot)  DE(clash)    DE(int)     intcor
     17.29     -20.19       2.27        0.00      92.87       1.47       1.52       1.38       ----

> <Gold.Chemscore.Fitness>
17.2912

> <Gold.Chemscore.DG>
-20.1869

> <Gold.Chemscore.ZeroCoef>
-5.4800

> <Gold.Chemscore.Hbond>
2.2737

> <Gold.Chemscore.Metal>
0.0000

> <Gold.Chemscore.Lipo>
92.8667

> <Gold.Chemscore.Internal_Hbond>
0.0000

> <Gold.Chemscore.DEClash>
1.5203

> <Gold.Chemscore.DEInternal>
1.3754

> <Gold.Chemscore.Rot>
1.4658

> <Gold.Chemscore.Internal.Correction>
   9.000000E+99

> <Gold.Chemscore.Hbonds>
donor molecule, donor type, donor heavy atom, donor atom, acceptor molecule, acceptor atom, score
      L1  H     5    26       P1  7948  0.99
      L1  H     8    27       P1  7948  0.93
      P1  H  7989  7998       L1    21  0.17

> <Gold.Chemscore.Hbond.Weighted>
-7.5940

> <Gold.Chemscore.Metal.Weighted>
-0.0000

> <Gold.Chemscore.Lipo.Weighted>
-10.8654

> <Gold.Chemscore.Internal_Hbond.Weighted>
0.0000

> <Gold.Chemscore.DEClash.Weighted>
1.5203

> <Gold.Chemscore.DEInternal.Weighted>
1.3754

> <Gold.Chemscore.Rot.Weighted>
3.7526

> <Gold.Chemscore.Internal.Correction.Weighted>
   9.000000E+99

> <Gold.Protein.RotatedTorsions>
[ 6907 6896 6895 6894 ] final   71.36 input  -60.11 | X-H torsion
[ 7974 7965 7964 7962 ] final -136.85 input  175.53 | X-H torsion
[ 8008 7997 7996 7995 ] final   63.71 input   59.86 | X-H torsion
[ 10167 10162 10161 10158 ] final  -92.63 input  -65.29 | X-H torsion
[ 10718 10713 10712 10709 ] final   39.97 input   66.30 | X-H torsion
[ 10763 10752 10751 10750 ] final  112.50 input  -60.55 | X-H torsion
[ 11005 11000 10999 10996 ] final  -61.29 input  -57.11 | X-H torsion

> <Gold.Protein.ActiveResidues>
 VAL166  LYS551  ARG553  GLY616  TRP617  ASP618  TYR619  PRO620  LYS621  CYS622 
 ASP623  PHE694  ASN695  SER759  ASP760  ASP761  ALA762  ILE779  LEU786  VAL792 
 PHE793  MET794  SER795  GLU796  ALA797  LYS798  CYS799  TRP800  GLU811  SER814 

> <Gold.Protein.RotatedAtoms>
  152.4805  134.4732  159.9641 H   0  0  0  0  0  0  0  0  0  0  0  0  # atno 6907 bound_to 6896
  151.4739  133.3556  159.2835 H   0  0  0  0  0  0  0  0  0  0  0  0  # atno 6908 bound_to 6896
  150.8874  134.8299  159.7330 H   0  0  0  0  0  0  0  0  0  0  0  0  # atno 6909 bound_to 6896
  144.8892  140.6618  143.5156 H   0  0  0  0  0  0  0  0  0  0  0  0  # atno 7974 bound_to 7965
  155.6345  140.3496  155.4694 H   0  0  0  0  0  0  0  0  0  0  0  0  # atno 8008 bound_to 7997
  155.9976  140.1206  157.0602 H   0  0  0  0  0  0  0  0  0  0  0  0  # atno 8009 bound_to 7997
  154.4238  140.1107  156.5639 H   0  0  0  0  0  0  0  0  0  0  0  0  # atno 8010 bound_to 7997
  140.3329  143.2985  151.9922 H   0  0  0  0  0  0  0  0  0  0  0  0  # atno 10167 bound_to 10162
  157.3767  130.7731  149.7161 H   0  0  0  0  0  0  0  0  0  0  0  0  # atno 10718 bound_to 10713
  153.4788  135.3684  155.2431 H   0  0  0  0  0  0  0  0  0  0  0  0  # atno 10763 bound_to 10752
  154.8755  135.3949  154.3724 H   0  0  0  0  0  0  0  0  0  0  0  0  # atno 10764 bound_to 10752
  153.4325  135.7082  153.6286 H   0  0  0  0  0  0  0  0  0  0  0  0  # atno 10765 bound_to 10752
  141.1319  133.6629  156.5352 H   0  0  0  0  0  0  0  0  0  0  0  0  # atno 11005 bound_to 11000
  145.3814  139.1636  143.4278 LP  0  0  0  0  0  0  0  0  0  0  0  0  # atno 17320 bound_to 7965
  146.3043  140.3895  142.8693 LP  0  0  0  0  0  0  0  0  0  0  0  0  # atno 17321 bound_to 7965
  139.4853  144.6220  151.7236 LP  0  0  0  0  0  0  0  0  0  0  0  0  # atno 17342 bound_to 10162
  140.5381  144.0624  150.6078 LP  0  0  0  0  0  0  0  0  0  0  0  0  # atno 17343 bound_to 10162
  155.9767  130.4072  150.3763 LP  0  0  0  0  0  0  0  0  0  0  0  0  # atno 17370 bound_to 10713
  157.1861  131.0404  151.2724 LP  0  0  0  0  0  0  0  0  0  0  0  0  # atno 17371 bound_to 10713
  140.4183  134.7210  157.4876 LP  0  0  0  0  0  0  0  0  0  0  0  0  # atno 17394 bound_to 11000
  140.0378  134.6312  155.9021 LP  0  0  0  0  0  0  0  0  0  0  0  0  # atno 17395 bound_to 11000

$$$$
