AV-unprocessed.smi:2519|AV-procd|sdf|9906|dock5
  -GOLD-   2272013543D 1   1.00000     0.00000
 Structure written by MMmdl.
 43 44  0  0  0  0  0  0  0  0  1 V2000
  151.2798  142.7518  158.9598 C   0  0  0  0  0  0  0  0  0  0  0  0
  151.4396  141.7588  157.9092 N   0  0  0  0  0  0  0  0  0  0  0  0
  150.4363  141.0328  157.3889 C   0  0  0  0  0  0  0  0  0  0  0  0
  149.2678  141.1373  157.7648 O   0  0  0  0  0  0  0  0  0  0  0  0
  150.8214  140.0478  156.3156 C   0  0  0  0  0  0  0  0  0  0  0  0
  152.1785  139.8833  155.9592 C   0  0  0  0  0  0  0  0  0  0  0  0
  152.5065  138.9518  154.9582 C   0  0  0  0  0  0  0  0  0  0  0  0
  151.4736  138.2175  154.3470 C   0  0  0  0  0  0  0  0  0  0  0  0
  150.1393  138.4335  154.7526 C   0  0  0  0  0  0  0  0  0  0  0  0
  149.1672  137.6544  154.0728 N   0  0  0  0  0  0  0  0  0  0  0  0
  147.8870  137.4220  154.4258 C   0  0  0  0  0  0  0  0  0  0  0  0
  147.3669  137.8095  155.4708 O   0  0  0  0  0  0  0  0  0  0  0  0
  147.1874  136.7052  153.5270 N   0  0  0  0  0  0  0  0  0  0  0  0
  145.7864  136.2741  153.5860 C   0  0  1  0  0  0  0  0  0  0  0  0
  144.9332  137.1287  152.6292 C   0  0  0  0  0  0  0  0  0  0  0  0
  145.2280  136.8154  151.1522 C   0  0  0  0  0  0  0  0  0  0  0  0
  145.0629  135.3172  150.8523 C   0  0  0  0  0  0  0  0  0  0  0  0
  145.9409  134.4489  151.7776 C   0  0  2  0  0  0  0  0  0  0  0  0
  145.7922  132.9438  151.4738 C   0  0  0  0  0  0  0  0  0  0  0  0
  146.1298  132.6785  150.2115 F   0  0  0  0  0  0  0  0  0  0  0  0
  146.5739  132.2338  152.2874 F   0  0  0  0  0  0  0  0  0  0  0  0
  144.5306  132.5616  151.6720 F   0  0  0  0  0  0  0  0  0  0  0  0
  145.6301  134.7717  153.2562 C   0  0  0  0  0  0  0  0  0  0  0  0
  149.8367  139.3322  155.7205 N   0  0  0  0  0  0  0  0  0  0  0  0
  152.2464  143.1926  159.2032 H   0  0  0  0  0  0  0  0  0  0  0  0
  150.8737  142.2980  159.8646 H   0  0  0  0  0  0  0  0  0  0  0  0
  150.6107  143.5515  158.6394 H   0  0  0  0  0  0  0  0  0  0  0  0
  152.3707  141.6091  157.5462 H   0  0  0  0  0  0  0  0  0  0  0  0
  152.9596  140.4561  156.4381 H   0  0  0  0  0  0  0  0  0  0  0  0
  153.5346  138.8035  154.6624 H   0  0  0  0  0  0  0  0  0  0  0  0
  151.7079  137.4998  153.5741 H   0  0  0  0  0  0  0  0  0  0  0  0
  149.4661  137.2577  153.1943 H   0  0  0  0  0  0  0  0  0  0  0  0
  147.6938  136.4149  152.7029 H   0  0  0  0  0  0  0  0  0  0  0  0
  145.4171  136.4527  154.5972 H   0  0  0  0  0  0  0  0  0  0  0  0
  143.8772  136.9395  152.8273 H   0  0  0  0  0  0  0  0  0  0  0  0
  145.0916  138.1900  152.8258 H   0  0  0  0  0  0  0  0  0  0  0  0
  144.5625  137.3951  150.5121 H   0  0  0  0  0  0  0  0  0  0  0  0
  146.2423  137.1289  150.9021 H   0  0  0  0  0  0  0  0  0  0  0  0
  144.0151  135.0382  150.9687 H   0  0  0  0  0  0  0  0  0  0  0  0
  145.3170  135.1290  149.8089 H   0  0  0  0  0  0  0  0  0  0  0  0
  146.9828  134.7120  151.5886 H   0  0  0  0  0  0  0  0  0  0  0  0
  146.2625  134.1720  153.9108 H   0  0  0  0  0  0  0  0  0  0  0  0
  144.6060  134.4698  153.4794 H   0  0  0  0  0  0  0  0  0  0  0  0
  1  2  1  0  0  0  0
  1 25  1  0  0  0  0
  1 26  1  0  0  0  0
  1 27  1  0  0  0  0
  2  3  1  0  0  0  0
  2 28  1  0  0  0  0
  3  4  2  0  0  0  0
  3  5  1  0  0  0  0
  5 24  1  0  0  0  0
  5  6  2  0  0  0  0
  6  7  1  0  0  0  0
  6 29  1  0  0  0  0
  7  8  2  0  0  0  0
  7 30  1  0  0  0  0
  8  9  1  0  0  0  0
  8 31  1  0  0  0  0
  9 10  1  0  0  0  0
  9 24  2  0  0  0  0
 10 11  1  0  0  0  0
 10 32  1  0  0  0  0
 11 12  2  0  0  0  0
 11 13  1  0  0  0  0
 13 14  1  0  0  0  0
 13 33  1  0  0  0  0
 14 23  1  0  0  0  0
 14 15  1  0  0  0  0
 14 34  1  0  0  0  0
 15 16  1  0  0  0  0
 15 35  1  0  0  0  0
 15 36  1  0  0  0  0
 16 17  1  0  0  0  0
 16 37  1  0  0  0  0
 16 38  1  0  0  0  0
 17 18  1  0  0  0  0
 17 39  1  0  0  0  0
 17 40  1  0  0  0  0
 18 19  1  0  0  0  0
 18 23  1  0  0  0  0
 18 41  1  0  0  0  0
 19 20  1  0  0  0  0
 19 21  1  0  0  0  0
 19 22  1  0  0  0  0
 23 42  1  0  0  0  0
 23 43  1  0  0  0  0
M  END
> <s_m_source_file>
AV-unprocessed.smi

> <i_m_source_file_index>
2519

> <i_lp_mmshare_version>
43012

> <i_f3d_flags>
0

> <s_epik_input>
W0NIM11bTkhdQyg9TyljMVtjSF1bY0hdW2NIXWMobjEpW05IXUMoPU8pW05IXVtDQEBIXTJbQ0gyXVtDSDJdW0NIMl1bQ0BASF0oQyhGKShGKUYpW0NIMl0y

> <s_epik_cmdline>
J2VwaWtfcHl0aG9uJywgJy1waCcsICc3LjAnLCAnLXRuJywgJzgnLCAnLW1hJywgJzIwMCcsICctbWV0YWxfYmluZGluZycsICctaW1hZScsICc8aW5maWxlLm1hZT4nLCAnLW9tYWUnLCAnPG91dGZpbGUubWFlPic=

> <r_lp_tautomer_probability>
1

> <r_epik_Ionization_Penalty>
3.74915e-05

> <r_epik_Ionization_Penalty_Charging>
0

> <r_epik_Ionization_Penalty_Neutral>
3.74915e-05

> <r_epik_State_Penalty>
-0

> <r_epik_Charging_Adjusted_Penalty>
0

> <i_epik_Tot_Q>
0

> <i_epik_Tot_abs_Q>
0

> <r_epik_Metal_State_Penalty>
-0

> <b_epik_Metal_Only>
0

> <s_lp_Force_Field>
OPLS_2005

> <r_lp_Energy>
26.6361

> <b_lp_Chiralities_Consistent>
1

> <s_lp_Variant>
AV-unprocessed.smi:2519-4

> <Gold.Version>
5.8.1

> <Gold.Id.Protein>
6NUR|6NUR_protein|mol2

> <Gold.PLP.Fitness>
40.3997

> <Gold.PLP.PLP>
-35.0779

> <Gold.PLP.part.hbond>
-1.8315

> <Gold.PLP.part.metal>
0.0000

> <Gold.PLP.part.buried>
-0.6280

> <Gold.PLP.part.nonpolar>
-33.4192

> <Gold.PLP.part.repulsive>
0.1664

> <Gold.PLP.ligand.clash>
0.0000

> <Gold.PLP.ligand.torsion>
0.2219

> <Gold.PLP.Chemscore.Hbond>
1.9120

> <Gold.PLP.Chemscore.CHOScore>
0.0000

> <Gold.PLP.Chemscore.Metal>
0.0000

> <Gold.Chemscore.Hbonds>
donor molecule, donor type, donor heavy atom, donor atom, acceptor molecule, acceptor atom, score
      L1  H    10    32       P1  7948  0.91
      L1  H    13    33       P1  7948  0.98

> <Gold.PLP.Chemscore.Internal.Correction>
0.0296

> <Gold.Rescore>
     Score         DG    S(hbond)    S(metal)    S(lipo)     H(rot)  DE(clash)    DE(int)     intcor
     15.10     -16.96       1.93        0.00      64.86       1.00       0.48       1.38       ----

> <Gold.Chemscore.Fitness>
15.1021

> <Gold.Chemscore.DG>
-16.9603

> <Gold.Chemscore.ZeroCoef>
-5.4800

> <Gold.Chemscore.Hbond>
1.9317

> <Gold.Chemscore.Metal>
0.0000

> <Gold.Chemscore.Lipo>
64.8584

> <Gold.Chemscore.Internal_Hbond>
0.0000

> <Gold.Chemscore.DEClash>
0.4754

> <Gold.Chemscore.DEInternal>
1.3827

> <Gold.Chemscore.Rot>
1.0000

> <Gold.Chemscore.Internal.Correction>
   9.000000E+99

> <Gold.Chemscore.Hbonds>
donor molecule, donor type, donor heavy atom, donor atom, acceptor molecule, acceptor atom, score
      L1  H    10    32       P1  7948  0.78
      L1  H    13    33       P1  7948  0.91

> <Gold.Chemscore.Hbond.Weighted>
-6.4519

> <Gold.Chemscore.Metal.Weighted>
-0.0000

> <Gold.Chemscore.Lipo.Weighted>
-7.5884

> <Gold.Chemscore.Internal_Hbond.Weighted>
0.0000

> <Gold.Chemscore.DEClash.Weighted>
0.4754

> <Gold.Chemscore.DEInternal.Weighted>
1.3827

> <Gold.Chemscore.Rot.Weighted>
2.5600

> <Gold.Chemscore.Internal.Correction.Weighted>
   9.000000E+99

> <Gold.Protein.RotatedTorsions>
[ 6907 6896 6895 6894 ] final   51.35 input  -60.11 | X-H torsion
[ 7974 7965 7964 7962 ] final  -15.79 input  175.53 | X-H torsion
[ 8008 7997 7996 7995 ] final   89.56 input   59.86 | X-H torsion
[ 10167 10162 10161 10158 ] final   48.79 input  -65.29 | X-H torsion
[ 10718 10713 10712 10709 ] final  -46.31 input   66.30 | X-H torsion
[ 10763 10752 10751 10750 ] final   63.73 input  -60.55 | X-H torsion
[ 11005 11000 10999 10996 ] final -114.93 input  -57.11 | X-H torsion

> <Gold.Protein.ActiveResidues>
 VAL166  LYS551  ARG553  GLY616  TRP617  ASP618  TYR619  PRO620  LYS621  CYS622 
 ASP623  PHE694  ASN695  SER759  ASP760  ASP761  ALA762  ILE779  LEU786  VAL792 
 PHE793  MET794  SER795  GLU796  ALA797  LYS798  CYS799  TRP800  GLU811  SER814 

> <Gold.Protein.RotatedAtoms>
  152.3117  134.7489  160.0334 H   0  0  0  0  0  0  0  0  0  0  0  0  # atno 6907 bound_to 6896
  151.7968  133.3360  159.3523 H   0  0  0  0  0  0  0  0  0  0  0  0  # atno 6908 bound_to 6896
  150.7323  134.5721  159.5940 H   0  0  0  0  0  0  0  0  0  0  0  0  # atno 6909 bound_to 6896
  146.2017  140.3543  142.8421 H   0  0  0  0  0  0  0  0  0  0  0  0  # atno 7974 bound_to 7965
  156.0014  140.3359  155.6849 H   0  0  0  0  0  0  0  0  0  0  0  0  # atno 8008 bound_to 7997
  155.6285  140.0682  157.2674 H   0  0  0  0  0  0  0  0  0  0  0  0  # atno 8009 bound_to 7997
  154.4250  140.1764  156.1435 H   0  0  0  0  0  0  0  0  0  0  0  0  # atno 8010 bound_to 7997
  140.2897  144.3061  150.6244 H   0  0  0  0  0  0  0  0  0  0  0  0  # atno 10167 bound_to 10162
  156.2196  130.4165  149.9010 H   0  0  0  0  0  0  0  0  0  0  0  0  # atno 10718 bound_to 10713
  153.0029  135.5418  154.6399 H   0  0  0  0  0  0  0  0  0  0  0  0  # atno 10763 bound_to 10752
  154.5656  135.2837  155.0879 H   0  0  0  0  0  0  0  0  0  0  0  0  # atno 10764 bound_to 10752
  154.2064  135.6475  153.5155 H   0  0  0  0  0  0  0  0  0  0  0  0  # atno 10765 bound_to 10752
  141.0520  133.9672  157.2819 H   0  0  0  0  0  0  0  0  0  0  0  0  # atno 11005 bound_to 11000
  144.8697  140.7256  143.6054 LP  0  0  0  0  0  0  0  0  0  0  0  0  # atno 17320 bound_to 7965
  145.3462  139.1718  143.4459 LP  0  0  0  0  0  0  0  0  0  0  0  0  # atno 17321 bound_to 7965
  140.5743  143.2178  151.7543 LP  0  0  0  0  0  0  0  0  0  0  0  0  # atno 17342 bound_to 10162
  139.4941  144.4172  152.0017 LP  0  0  0  0  0  0  0  0  0  0  0  0  # atno 17343 bound_to 10162
  156.6661  130.8801  151.3555 LP  0  0  0  0  0  0  0  0  0  0  0  0  # atno 17370 bound_to 10713
  157.7081  130.9408  150.0996 LP  0  0  0  0  0  0  0  0  0  0  0  0  # atno 17371 bound_to 10713
  139.9358  135.0196  156.8552 LP  0  0  0  0  0  0  0  0  0  0  0  0  # atno 17394 bound_to 11000
  140.6037  134.0148  155.7547 LP  0  0  0  0  0  0  0  0  0  0  0  0  # atno 17395 bound_to 11000

$$$$
