AV-unprocessed.smi:2871|AV-procd|sdf|11033|dock4
  -GOLD-   2272015493D 1   1.00000     0.00000
 Structure written by MMmdl.
 38 40  0  0  0  0  0  0  0  0  1 V2000
  151.9335  144.3559  160.9527 C   0  0  0  0  0  0  0  0  0  0  0  0
  152.6872  143.2110  161.4474 N   0  0  0  0  0  0  0  0  0  0  0  0
  153.1061  143.1561  162.8441 C   0  0  0  0  0  0  0  0  0  0  0  0
  152.9793  142.1300  160.5865 C   0  0  0  0  0  0  0  0  0  0  0  0
  154.0437  141.2313  160.8422 C   0  0  0  0  0  0  0  0  0  0  0  0
  154.2418  140.1890  159.9086 C   0  0  0  0  0  0  0  0  0  0  0  0
  155.3505  139.1598  160.0691 C   0  0  0  0  0  0  0  0  0  0  0  0
  156.5563  139.7294  160.0558 F   0  0  0  0  0  0  0  0  0  0  0  0
  155.2011  138.5152  161.2264 F   0  0  0  0  0  0  0  0  0  0  0  0
  155.2903  138.2756  159.0732 F   0  0  0  0  0  0  0  0  0  0  0  0
  153.4521  140.0563  158.8194 N   0  0  0  0  0  0  0  0  0  0  0  0
  152.4771  140.9512  158.6651 C   0  0  0  0  0  0  0  0  0  0  0  0
  151.6922  140.7893  157.5385 N   0  0  0  0  0  0  0  0  0  0  0  0
  151.4350  139.5107  156.8872 C   0  0  1  0  0  0  0  0  0  0  0  0
  149.9418  139.2347  156.6710 C   0  0  0  0  0  0  0  0  0  0  0  0
  149.8821  138.9880  155.1585 C   0  0  2  0  0  0  0  0  0  0  0  0
  150.5729  137.6784  154.7538 C   0  0  0  0  0  0  0  0  0  0  0  0
  152.0488  138.0386  154.9219 C   0  0  0  0  0  0  0  0  0  0  0  0
  151.9652  139.4792  155.4440 C   0  0  1  0  0  0  0  0  0  0  0  0
  150.8366  139.9365  154.7159 O   0  0  0  0  0  0  0  0  0  0  0  0
  152.2035  141.9688  159.4874 N   0  0  0  0  0  0  0  0  0  0  0  0
  152.4586  144.8317  160.1237 H   0  0  0  0  0  0  0  0  0  0  0  0
  151.7940  145.1057  161.7313 H   0  0  0  0  0  0  0  0  0  0  0  0
  150.9465  144.0451  160.6085 H   0  0  0  0  0  0  0  0  0  0  0  0
  154.1919  143.0863  162.9150 H   0  0  0  0  0  0  0  0  0  0  0  0
  152.6705  142.2889  163.3415 H   0  0  0  0  0  0  0  0  0  0  0  0
  152.7917  144.0460  163.3894 H   0  0  0  0  0  0  0  0  0  0  0  0
  154.6835  141.3259  161.7061 H   0  0  0  0  0  0  0  0  0  0  0  0
  151.2100  141.6052  157.1903 H   0  0  0  0  0  0  0  0  0  0  0  0
  151.9041  138.7191  157.4732 H   0  0  0  0  0  0  0  0  0  0  0  0
  149.5854  138.3811  157.2485 H   0  0  0  0  0  0  0  0  0  0  0  0
  149.3299  140.0989  156.9343 H   0  0  0  0  0  0  0  0  0  0  0  0
  148.8883  139.1166  154.7289 H   0  0  0  0  0  0  0  0  0  0  0  0
  150.2668  136.8394  155.3796 H   0  0  0  0  0  0  0  0  0  0  0  0
  150.3566  137.4281  153.7147 H   0  0  0  0  0  0  0  0  0  0  0  0
  152.5726  137.3741  155.6097 H   0  0  0  0  0  0  0  0  0  0  0  0
  152.5615  138.0064  153.9598 H   0  0  0  0  0  0  0  0  0  0  0  0
  152.8770  140.0553  155.2817 H   0  0  0  0  0  0  0  0  0  0  0  0
  1  2  1  0  0  0  0
  1 22  1  0  0  0  0
  1 23  1  0  0  0  0
  1 24  1  0  0  0  0
  2  3  1  0  0  0  0
  2  4  1  0  0  0  0
  3 25  1  0  0  0  0
  3 26  1  0  0  0  0
  3 27  1  0  0  0  0
  4 21  1  0  0  0  0
  4  5  2  0  0  0  0
  5  6  1  0  0  0  0
  5 28  1  0  0  0  0
  6  7  1  0  0  0  0
  6 11  2  0  0  0  0
  7  8  1  0  0  0  0
  7  9  1  0  0  0  0
  7 10  1  0  0  0  0
 11 12  1  0  0  0  0
 12 13  1  0  0  0  0
 12 21  2  0  0  0  0
 13 14  1  0  0  0  0
 13 29  1  0  0  0  0
 14 19  1  0  0  0  0
 14 15  1  0  0  0  0
 14 30  1  0  0  0  0
 15 16  1  0  0  0  0
 15 31  1  0  0  0  0
 15 32  1  0  0  0  0
 16 20  1  0  0  0  0
 16 17  1  0  0  0  0
 16 33  1  0  0  0  0
 17 18  1  0  0  0  0
 17 34  1  0  0  0  0
 17 35  1  0  0  0  0
 18 19  1  0  0  0  0
 18 36  1  0  0  0  0
 18 37  1  0  0  0  0
 19 20  1  0  0  0  0
 19 38  1  0  0  0  0
M  END
> <s_m_source_file>
AV-unprocessed.smi

> <i_m_source_file_index>
2871

> <i_lp_mmshare_version>
43012

> <i_f3d_flags>
0

> <s_epik_input>
W0NIM11OKFtDSDNdKWMxW2NIXWMoQyhGKShGKUYpbmMobjEpW05IXVtDQEhdKFtDSDJdW0NAQEhdMjMpW0NAQEhdKE8zKVtDSDJdW0NIMl0y

> <s_epik_cmdline>
J2VwaWtfcHl0aG9uJywgJy1waCcsICc3LjAnLCAnLXRuJywgJzgnLCAnLW1hJywgJzIwMCcsICctbWV0YWxfYmluZGluZycsICctaW1hZScsICc8aW5maWxlLm1hZT4nLCAnLW9tYWUnLCAnPG91dGZpbGUubWFlPic=

> <r_lp_tautomer_probability>
1

> <r_epik_Ionization_Penalty>
0.00695968

> <r_epik_Ionization_Penalty_Charging>
0

> <r_epik_Ionization_Penalty_Neutral>
0.00695968

> <r_epik_State_Penalty>
0.0050343

> <r_epik_Charging_Adjusted_Penalty>
0.0050343

> <i_epik_Tot_Q>
0

> <i_epik_Tot_abs_Q>
0

> <r_epik_Metal_State_Penalty>
-0

> <b_epik_Metal_Only>
0

> <s_lp_Force_Field>
OPLS_2005

> <r_lp_Energy>
32.5699

> <b_lp_Chiralities_Consistent>
1

> <s_lp_Variant>
AV-unprocessed.smi:2871-4

> <Gold.Version>
5.8.1

> <Gold.Id.Protein>
6NUR|6NUR_protein|mol2

> <Gold.PLP.Fitness>
47.9804

> <Gold.PLP.PLP>
-42.8323

> <Gold.PLP.part.hbond>
-2.0000

> <Gold.PLP.part.metal>
0.0000

> <Gold.PLP.part.buried>
-5.1883

> <Gold.PLP.part.nonpolar>
-35.9511

> <Gold.PLP.part.repulsive>
0.1690

> <Gold.PLP.ligand.clash>
0.0000

> <Gold.PLP.ligand.torsion>
0.4274

> <Gold.PLP.Chemscore.Hbond>
1.9920

> <Gold.PLP.Chemscore.CHOScore>
0.0000

> <Gold.PLP.Chemscore.Metal>
0.0000

> <Gold.Chemscore.Hbonds>
donor molecule, donor type, donor heavy atom, donor atom, acceptor molecule, acceptor atom, score
      P1  H  7989  7998       L1    20  1.00
      P1  H  7997  8009       L1    11  0.84

> <Gold.PLP.Chemscore.Internal.Correction>
0.0270

> <Gold.Rescore>
     Score         DG    S(hbond)    S(metal)    S(lipo)     H(rot)  DE(clash)    DE(int)     intcor
     17.24     -18.00       1.53        0.00      85.16       1.00       0.10       0.66       ----

> <Gold.Chemscore.Fitness>
17.2408

> <Gold.Chemscore.DG>
-18.0006

> <Gold.Chemscore.ZeroCoef>
-5.4800

> <Gold.Chemscore.Hbond>
1.5319

> <Gold.Chemscore.Metal>
0.0000

> <Gold.Chemscore.Lipo>
85.1632

> <Gold.Chemscore.Internal_Hbond>
0.0000

> <Gold.Chemscore.DEClash>
0.1024

> <Gold.Chemscore.DEInternal>
0.6574

> <Gold.Chemscore.Rot>
1.0000

> <Gold.Chemscore.Internal.Correction>
   9.000000E+99

> <Gold.Chemscore.Hbonds>
donor molecule, donor type, donor heavy atom, donor atom, acceptor molecule, acceptor atom, score
      P1  H  7989  7998       L1    20  0.26
      P1  H  7997  8009       L1    11  0.34

> <Gold.Chemscore.Hbond.Weighted>
-5.1166

> <Gold.Chemscore.Metal.Weighted>
-0.0000

> <Gold.Chemscore.Lipo.Weighted>
-9.9641

> <Gold.Chemscore.Internal_Hbond.Weighted>
0.0000

> <Gold.Chemscore.DEClash.Weighted>
0.1024

> <Gold.Chemscore.DEInternal.Weighted>
0.6574

> <Gold.Chemscore.Rot.Weighted>
2.5600

> <Gold.Chemscore.Internal.Correction.Weighted>
   9.000000E+99

> <Gold.Protein.RotatedTorsions>
[ 6907 6896 6895 6894 ] final  -58.55 input  -60.11 | X-H torsion
[ 7974 7965 7964 7962 ] final  160.07 input  175.53 | X-H torsion
[ 8008 7997 7996 7995 ] final  143.18 input   59.86 | X-H torsion
[ 10167 10162 10161 10158 ] final   93.11 input  -65.29 | X-H torsion
[ 10718 10713 10712 10709 ] final   31.25 input   66.30 | X-H torsion
[ 10763 10752 10751 10750 ] final   85.80 input  -60.55 | X-H torsion
[ 11005 11000 10999 10996 ] final -145.96 input  -57.11 | X-H torsion

> <Gold.Protein.ActiveResidues>
 VAL166  LYS551  ARG553  GLY616  TRP617  ASP618  TYR619  PRO620  LYS621  CYS622 
 ASP623  PHE694  ASN695  SER759  ASP760  ASP761  ALA762  ILE779  LEU786  VAL792 
 PHE793  MET794  SER795  GLU796  ALA797  LYS798  CYS799  TRP800  GLU811  SER814 

> <Gold.Protein.RotatedAtoms>
  150.7998  134.7084  159.6589 H   0  0  0  0  0  0  0  0  0  0  0  0  # atno 6907 bound_to 6896
  152.4114  134.6114  160.0036 H   0  0  0  0  0  0  0  0  0  0  0  0  # atno 6908 bound_to 6896
  151.6356  133.3292  159.3154 H   0  0  0  0  0  0  0  0  0  0  0  0  # atno 6909 bound_to 6896
  144.7756  139.7705  143.6280 H   0  0  0  0  0  0  0  0  0  0  0  0  # atno 7974 bound_to 7965
  156.2935  140.2269  156.4849 H   0  0  0  0  0  0  0  0  0  0  0  0  # atno 8008 bound_to 7997
  154.7820  140.0459  157.1156 H   0  0  0  0  0  0  0  0  0  0  0  0  # atno 8009 bound_to 7997
  154.9747  140.3071  155.4976 H   0  0  0  0  0  0  0  0  0  0  0  0  # atno 8010 bound_to 7997
  139.8212  144.6730  150.9517 H   0  0  0  0  0  0  0  0  0  0  0  0  # atno 10167 bound_to 10162
  157.2700  130.7203  149.6499 H   0  0  0  0  0  0  0  0  0  0  0  0  # atno 10718 bound_to 10713
  153.1510  135.4603  154.9636 H   0  0  0  0  0  0  0  0  0  0  0  0  # atno 10763 bound_to 10752
  154.7824  135.3193  154.7962 H   0  0  0  0  0  0  0  0  0  0  0  0  # atno 10764 bound_to 10752
  153.8468  135.6925  153.4851 H   0  0  0  0  0  0  0  0  0  0  0  0  # atno 10765 bound_to 10752
  140.7869  134.3014  157.5027 H   0  0  0  0  0  0  0  0  0  0  0  0  # atno 11005 bound_to 11000
  146.1933  139.5186  142.9790 LP  0  0  0  0  0  0  0  0  0  0  0  0  # atno 17320 bound_to 7965
  145.6195  141.0325  143.1922 LP  0  0  0  0  0  0  0  0  0  0  0  0  # atno 17321 bound_to 7965
  140.7813  143.4090  151.1023 LP  0  0  0  0  0  0  0  0  0  0  0  0  # atno 17342 bound_to 10162
  139.7750  143.8438  152.3127 LP  0  0  0  0  0  0  0  0  0  0  0  0  # atno 17343 bound_to 10162
  155.9663  130.4370  150.5159 LP  0  0  0  0  0  0  0  0  0  0  0  0  # atno 17370 bound_to 10713
  157.3081  131.0658  151.2020 LP  0  0  0  0  0  0  0  0  0  0  0  0  # atno 17371 bound_to 10713
  139.8736  134.9351  156.3625 LP  0  0  0  0  0  0  0  0  0  0  0  0  # atno 17394 bound_to 11000
  140.9428  133.7503  156.0169 LP  0  0  0  0  0  0  0  0  0  0  0  0  # atno 17395 bound_to 11000

$$$$
