AV-unprocessed.smi:169|AV-procd|sdf|1401|dock8
  -GOLD-   2262019153D 1   1.00000     0.00000
 Structure written by MMmdl.
 56 60  0  0  0  0  0  0  0  0  2 V2000
  144.7671  134.7739  151.2837 C   0  0  0  0  0  0  0  0  0  0  0  0
  146.2497  135.1025  151.5292 C   0  0  0  0  0  0  0  0  0  0  0  0
  146.4651  136.3562  152.2973 N   0  3  1  0  0  0  0  0  0  0  0  0
  145.9701  137.5755  151.5657 C   0  0  0  0  0  0  0  0  0  0  0  0
  146.6337  138.9281  152.0179 C   0  0  0  0  0  0  0  0  0  0  0  0
  146.8836  138.9986  153.5381 C   0  0  3  0  0  0  0  0  0  0  0  0
  146.1264  139.4738  154.7835 C   0  0  0  0  0  0  0  0  0  0  0  0
  146.0516  138.1323  155.5870 C   0  0  0  0  0  0  0  0  0  0  0  0
  146.8819  137.1007  154.7507 C   0  0  1  0  0  0  0  0  0  0  0  0
  146.0395  136.2373  153.7419 C   0  0  0  0  0  0  0  0  0  0  0  0
  147.7852  137.9606  154.0027 N   0  0  0  0  0  0  0  0  0  0  0  0
  148.9889  138.3379  154.5168 C   0  0  0  0  0  0  0  0  0  0  0  0
  150.0204  137.4528  154.4978 N   0  0  0  0  0  0  0  0  0  0  0  0
  151.2159  137.7881  154.9899 C   0  0  0  0  0  0  0  0  0  0  0  0
  151.5988  138.9445  155.5313 N   0  0  0  0  0  0  0  0  0  0  0  0
  150.5787  139.8489  155.5376 C   0  0  0  0  0  0  0  0  0  0  0  0
  149.2546  139.6315  155.0584 C   0  0  0  0  0  0  0  0  0  0  0  0
  148.5008  140.7863  155.2376 N   0  0  0  0  0  0  0  0  0  0  0  0
  149.3258  141.6295  155.7940 C   0  0  0  0  0  0  0  0  0  0  0  0
  150.6019  141.1554  155.9948 N   0  0  0  0  0  0  0  0  0  0  0  0
  151.7188  141.8751  156.5910 C   0  0  0  0  0  0  0  0  0  0  0  0
  151.5792  142.1584  158.1068 C   0  0  0  0  0  0  0  0  0  0  0  0
  150.2931  142.9676  158.3205 C   0  0  0  0  0  0  0  0  0  0  0  0
  150.4717  144.3199  157.9506 O   0  0  0  0  0  0  0  0  0  0  0  0
  151.7691  140.9621  159.0566 C   0  0  0  0  0  0  0  0  0  0  0  0
  153.1165  141.3658  159.3793 O   0  0  0  0  0  0  0  0  0  0  0  0
  152.8294  142.6731  158.8397 C   0  0  0  0  0  0  0  0  0  0  0  0
  144.6716  133.8411  150.7276 H   0  0  0  0  0  0  0  0  0  0  0  0
  144.2718  135.5502  150.7007 H   0  0  0  0  0  0  0  0  0  0  0  0
  144.2192  134.6522  152.2181 H   0  0  0  0  0  0  0  0  0  0  0  0
  146.7243  134.2765  152.0601 H   0  0  0  0  0  0  0  0  0  0  0  0
  146.7711  135.1772  150.5742 H   0  0  0  0  0  0  0  0  0  0  0  0
  146.1422  137.4589  150.4951 H   0  0  0  0  0  0  0  0  0  0  0  0
  144.8875  137.6380  151.6863 H   0  0  0  0  0  0  0  0  0  0  0  0
  147.5940  139.0288  151.5112 H   0  0  0  0  0  0  0  0  0  0  0  0
  146.0317  139.7746  151.6832 H   0  0  0  0  0  0  0  0  0  0  0  0
  145.8831  138.5929  153.4461 H   0  0  0  0  0  0  0  0  0  0  0  0
  146.7290  140.2022  155.3275 H   0  0  0  0  0  0  0  0  0  0  0  0
  145.1503  139.9336  154.5990 H   0  0  0  0  0  0  0  0  0  0  0  0
  146.5019  138.2719  156.5706 H   0  0  0  0  0  0  0  0  0  0  0  0
  145.0252  137.8000  155.7451 H   0  0  0  0  0  0  0  0  0  0  0  0
  147.4055  136.4179  155.4199 H   0  0  0  0  0  0  0  0  0  0  0  0
  144.9752  136.4632  153.8215 H   0  0  0  0  0  0  0  0  0  0  0  0
  146.1350  135.1977  154.0572 H   0  0  0  0  0  0  0  0  0  0  0  0
  151.9747  137.0211  154.9404 H   0  0  0  0  0  0  0  0  0  0  0  0
  149.0227  142.6281  156.0723 H   0  0  0  0  0  0  0  0  0  0  0  0
  152.6201  141.2938  156.3928 H   0  0  0  0  0  0  0  0  0  0  0  0
  151.8431  142.8080  156.0398 H   0  0  0  0  0  0  0  0  0  0  0  0
  149.4656  142.5499  157.7461 H   0  0  0  0  0  0  0  0  0  0  0  0
  149.9863  142.9440  159.3666 H   0  0  0  0  0  0  0  0  0  0  0  0
  149.9683  144.4868  157.1683 H   0  0  0  0  0  0  0  0  0  0  0  0
  151.1229  140.9887  159.9357 H   0  0  0  0  0  0  0  0  0  0  0  0
  151.7203  139.9830  158.5836 H   0  0  0  0  0  0  0  0  0  0  0  0
  153.6165  143.0494  158.1877 H   0  0  0  0  0  0  0  0  0  0  0  0
  152.6112  143.3941  159.6295 H   0  0  0  0  0  0  0  0  0  0  0  0
  147.4701  136.4551  152.3283 H   0  0  0  0  0  0  0  0  0  0  0  0
  1  2  1  0  0  0  0
  1 28  1  0  0  0  0
  1 29  1  0  0  0  0
  1 30  1  0  0  0  0
  2  3  1  0  0  0  0
  2 31  1  0  0  0  0
  2 32  1  0  0  0  0
  3 10  1  0  0  0  0
  3  4  1  0  0  0  0
  3 56  1  0  0  0  0
  4  5  1  0  0  0  0
  4 33  1  0  0  0  0
  4 34  1  0  0  0  0
  5  6  1  0  0  0  0
  5 35  1  0  0  0  0
  5 36  1  0  0  0  0
  6 11  1  0  0  0  0
  6  7  1  0  0  0  0
  6 37  1  0  0  0  0
  7  8  1  0  0  0  0
  7 38  1  0  0  0  0
  7 39  1  0  0  0  0
  8  9  1  0  0  0  0
  8 40  1  0  0  0  0
  8 41  1  0  0  0  0
  9 10  1  0  0  0  0
  9 11  1  0  0  0  0
  9 42  1  0  0  0  0
 10 43  1  0  0  0  0
 10 44  1  0  0  0  0
 11 12  1  0  0  0  0
 12 17  1  0  0  0  0
 12 13  2  0  0  0  0
 13 14  1  0  0  0  0
 14 15  2  0  0  0  0
 14 45  1  0  0  0  0
 15 16  1  0  0  0  0
 16 20  1  0  0  0  0
 16 17  2  0  0  0  0
 17 18  1  0  0  0  0
 18 19  2  0  0  0  0
 19 20  1  0  0  0  0
 19 46  1  0  0  0  0
 20 21  1  0  0  0  0
 21 22  1  0  0  0  0
 21 47  1  0  0  0  0
 21 48  1  0  0  0  0
 22 27  1  0  0  0  0
 22 23  1  0  0  0  0
 22 25  1  0  0  0  0
 23 24  1  0  0  0  0
 23 49  1  0  0  0  0
 23 50  1  0  0  0  0
 24 51  1  0  0  0  0
 25 26  1  0  0  0  0
 25 52  1  0  0  0  0
 25 53  1  0  0  0  0
 26 27  1  0  0  0  0
 27 54  1  0  0  0  0
 27 55  1  0  0  0  0
M  CHG  1   3   1
M  END
> <s_m_source_file>
AV-unprocessed.smi

> <i_m_source_file_index>
169

> <i_lp_mmshare_version>
43012

> <i_f3d_flags>
0

> <s_epik_input>
W0NASF0xMltDSDJdW0NIMl1OKFtDSDJdW0NIM10pW0NIMl1bQ0BIXShbQ0gyXVtDSDJdMSlOMmMobltjSF1uMyljKGMzNCluW2NIXW40W0NIMl1DNShbQ0gyXVtPSF0pW0NIMl1PW0NIMl01

> <s_epik_cmdline>
J2VwaWtfcHl0aG9uJywgJy1waCcsICc3LjAnLCAnLXRuJywgJzgnLCAnLW1hJywgJzIwMCcsICctbWV0YWxfYmluZGluZycsICctaW1hZScsICc8aW5maWxlLm1hZT4nLCAnLW9tYWUnLCAnPG91dGZpbGUubWFlPic=

> <r_lp_tautomer_probability>
1

> <r_epik_Ionization_Penalty>
0.00274162

> <r_epik_Ionization_Penalty_Charging>
0.00243722

> <r_epik_Ionization_Penalty_Neutral>
0.000304399

> <r_epik_State_Penalty>
-0

> <r_epik_Charging_Adjusted_Penalty>
0.00243722

> <i_epik_Tot_Q>
1

> <i_epik_Tot_abs_Q>
1

> <r_epik_Metal_State_Penalty>
-0

> <b_epik_Metal_Only>
0

> <s_lp_Force_Field>
OPLS_2005

> <r_lp_Energy>
128.509

> <b_lp_Chiralities_Consistent>
1

> <s_lp_Variant>
AV-unprocessed.smi:169-4

> <Gold.Version>
5.8.1

> <Gold.Id.Protein>
6NUR|6NUR_protein|mol2

> <Gold.PLP.Fitness>
43.3682

> <Gold.PLP.PLP>
-32.9637

> <Gold.PLP.part.hbond>
-2.7765

> <Gold.PLP.part.metal>
0.0000

> <Gold.PLP.part.buried>
-0.8621

> <Gold.PLP.part.nonpolar>
-32.6693

> <Gold.PLP.part.repulsive>
1.9808

> <Gold.PLP.ligand.clash>
0.0000

> <Gold.PLP.ligand.torsion>
1.0108

> <Gold.PLP.Chemscore.Hbond>
3.0000

> <Gold.PLP.Chemscore.CHOScore>
1.0000

> <Gold.PLP.Chemscore.Metal>
0.0000

> <Gold.Chemscore.Hbonds>
donor molecule, donor type, donor heavy atom, donor atom, acceptor molecule, acceptor atom, score
      L1  H     3    56       P1  7948  2.00
      L1  H    24    51       P1  8028  1.00
      L1  C    19    46       P1  8028  1.00

> <Gold.PLP.Chemscore.Internal.Correction>
0.4260

> <Gold.Rescore>
     Score         DG    S(hbond)    S(metal)    S(lipo)     H(rot)  DE(clash)    DE(int)     intcor
      6.52     -15.28       1.84        0.00      88.51       2.62       4.23       4.52       ----

> <Gold.Chemscore.Fitness>
6.5244

> <Gold.Chemscore.DG>
-15.2758

> <Gold.Chemscore.ZeroCoef>
-5.4800

> <Gold.Chemscore.Hbond>
1.8413

> <Gold.Chemscore.Metal>
0.0000

> <Gold.Chemscore.Lipo>
88.5136

> <Gold.Chemscore.Internal_Hbond>
0.0000

> <Gold.Chemscore.DEClash>
4.2294

> <Gold.Chemscore.DEInternal>
4.5220

> <Gold.Chemscore.Rot>
2.6212

> <Gold.Chemscore.Internal.Correction>
   9.000000E+99

> <Gold.Chemscore.Hbonds>
donor molecule, donor type, donor heavy atom, donor atom, acceptor molecule, acceptor atom, score
      L1  H     3    56       P1  7948  0.94
      L1  H    24    51       P1  8028  0.45

> <Gold.Chemscore.Hbond.Weighted>
-6.1499

> <Gold.Chemscore.Metal.Weighted>
-0.0000

> <Gold.Chemscore.Lipo.Weighted>
-10.3561

> <Gold.Chemscore.Internal_Hbond.Weighted>
0.0000

> <Gold.Chemscore.DEClash.Weighted>
4.2294

> <Gold.Chemscore.DEInternal.Weighted>
4.5220

> <Gold.Chemscore.Rot.Weighted>
6.7102

> <Gold.Chemscore.Internal.Correction.Weighted>
   9.000000E+99

> <Gold.Protein.RotatedTorsions>
[ 6907 6896 6895 6894 ] final  129.26 input  -60.11 | X-H torsion
[ 7974 7965 7964 7962 ] final -157.83 input  175.53 | X-H torsion
[ 8008 7997 7996 7995 ] final  179.05 input   59.86 | X-H torsion
[ 10167 10162 10161 10158 ] final -174.68 input  -65.29 | X-H torsion
[ 10718 10713 10712 10709 ] final -131.04 input   66.30 | X-H torsion
[ 10763 10752 10751 10750 ] final   14.54 input  -60.55 | X-H torsion
[ 11005 11000 10999 10996 ] final  168.89 input  -57.11 | X-H torsion

> <Gold.Protein.ActiveResidues>
 VAL166  LYS551  ARG553  GLY616  TRP617  ASP618  TYR619  PRO620  LYS621  CYS622 
 ASP623  PHE694  ASN695  SER759  ASP760  ASP761  ALA762  ILE779  LEU786  VAL792 
 PHE793  MET794  SER795  GLU796  ALA797  LYS798  CYS799  TRP800  GLU811  SER814 

> <Gold.Protein.RotatedAtoms>
  152.3640  133.6333  159.6036 H   0  0  0  0  0  0  0  0  0  0  0  0  # atno 6907 bound_to 6896
  150.7621  133.9377  159.3455 H   0  0  0  0  0  0  0  0  0  0  0  0  # atno 6908 bound_to 6896
  151.7211  135.0895  160.0335 H   0  0  0  0  0  0  0  0  0  0  0  0  # atno 6909 bound_to 6896
  144.7531  140.3913  143.6033 H   0  0  0  0  0  0  0  0  0  0  0  0  # atno 7974 bound_to 7965
  156.0478  140.1318  157.0084 H   0  0  0  0  0  0  0  0  0  0  0  0  # atno 8008 bound_to 7997
  154.4420  140.1017  156.6402 H   0  0  0  0  0  0  0  0  0  0  0  0  # atno 8009 bound_to 7997
  155.5570  140.3464  155.4484 H   0  0  0  0  0  0  0  0  0  0  0  0  # atno 8010 bound_to 7997
  139.5621  144.1844  152.1255 H   0  0  0  0  0  0  0  0  0  0  0  0  # atno 10167 bound_to 10162
  156.2204  130.6975  151.0749 H   0  0  0  0  0  0  0  0  0  0  0  0  # atno 10718 bound_to 10713
  153.1612  135.6796  153.8740 H   0  0  0  0  0  0  0  0  0  0  0  0  # atno 10763 bound_to 10752
  153.8134  135.3140  155.3404 H   0  0  0  0  0  0  0  0  0  0  0  0  # atno 10764 bound_to 10752
  154.7934  135.4821  154.0193 H   0  0  0  0  0  0  0  0  0  0  0  0  # atno 10765 bound_to 10752
  140.2920  134.7665  157.3846 H   0  0  0  0  0  0  0  0  0  0  0  0  # atno 11005 bound_to 11000
  145.6873  139.1631  143.2667 LP  0  0  0  0  0  0  0  0  0  0  0  0  # atno 17320 bound_to 7965
  146.1508  140.6928  142.9323 LP  0  0  0  0  0  0  0  0  0  0  0  0  # atno 17321 bound_to 7965
  140.1360  144.5245  150.6773 LP  0  0  0  0  0  0  0  0  0  0  0  0  # atno 17342 bound_to 10162
  140.6902  143.2371  151.5152 LP  0  0  0  0  0  0  0  0  0  0  0  0  # atno 17343 bound_to 10162
  157.7084  131.0745  150.6586 LP  0  0  0  0  0  0  0  0  0  0  0  0  # atno 17370 bound_to 10713
  156.6648  130.4522  149.5676 LP  0  0  0  0  0  0  0  0  0  0  0  0  # atno 17371 bound_to 10713
  140.1187  134.5249  155.8203 LP  0  0  0  0  0  0  0  0  0  0  0  0  # atno 17394 bound_to 11000
  141.2144  133.6749  156.6825 LP  0  0  0  0  0  0  0  0  0  0  0  0  # atno 17395 bound_to 11000

$$$$
