AV-unprocessed.smi:794|AV-procd|sdf|3762|dock2
  -GOLD-   22720 1193D 1   1.00000     0.00000
 Structure written by MMmdl.
 41 43  0  0  0  0  0  0  0  0  1 V2000
  147.6015  136.8587  163.3228 C   0  0  0  0  0  0  0  0  0  0  0  0
  147.7754  136.1264  162.0254 C   0  0  0  0  0  0  0  0  0  0  0  0
  148.5071  136.7491  161.0098 N   0  0  0  0  0  0  0  0  0  0  0  0
  148.5911  136.0001  159.9067 C   0  0  0  0  0  0  0  0  0  0  0  0
  149.2721  136.3895  158.7234 N   0  0  0  0  0  0  0  0  0  0  0  0
  150.1295  137.4121  158.5579 C   0  0  0  0  0  0  0  0  0  0  0  0
  150.4857  138.1904  159.4430 O   0  0  0  0  0  0  0  0  0  0  0  0
  150.5623  137.4786  157.2908 N   0  0  0  0  0  0  0  0  0  0  0  0
  151.5082  138.4622  156.7578 C   0  0  2  0  0  0  0  0  0  0  0  0
  151.2358  139.8938  157.2841 C   0  0  2  0  0  0  0  0  0  0  0  0
  149.7482  140.2769  157.1322 C   0  0  0  0  0  0  0  0  0  0  0  0
  149.5938  140.4187  155.6072 C   0  0  0  0  0  0  0  0  0  0  0  0
  151.0208  140.1427  155.0869 C   0  0  1  0  0  0  0  0  0  0  0  0
  151.8647  140.7592  156.1964 C   0  0  0  0  0  0  0  0  0  0  0  0
  151.4122  138.6501  155.2172 C   0  0  2  0  0  0  0  0  0  0  0  0
  150.5380  137.6442  154.4345 C   0  0  0  0  0  0  0  0  0  0  0  0
  151.2792  136.4806  154.1348 O   0  0  0  0  0  0  0  0  0  0  0  0
  147.7630  134.4606  160.0407 S   0  0  0  0  0  0  0  0  0  0  0  0
  147.3015  134.8800  161.6727 C   0  0  0  0  0  0  0  0  0  0  0  0
  146.4922  133.9156  162.4785 C   0  0  0  0  0  0  0  0  0  0  0  0
  147.0142  136.2962  164.0464 H   0  0  0  0  0  0  0  0  0  0  0  0
  147.0965  137.8123  163.1675 H   0  0  0  0  0  0  0  0  0  0  0  0
  148.5665  137.0710  163.7834 H   0  0  0  0  0  0  0  0  0  0  0  0
  149.0855  135.8224  157.9096 H   0  0  0  0  0  0  0  0  0  0  0  0
  150.2103  136.7960  156.6360 H   0  0  0  0  0  0  0  0  0  0  0  0
  152.5336  138.1860  157.0113 H   0  0  0  0  0  0  0  0  0  0  0  0
  151.6261  140.0678  158.2872 H   0  0  0  0  0  0  0  0  0  0  0  0
  149.0580  139.5508  157.5614 H   0  0  0  0  0  0  0  0  0  0  0  0
  149.5523  141.2326  157.6204 H   0  0  0  0  0  0  0  0  0  0  0  0
  148.8457  139.7430  155.1953 H   0  0  0  0  0  0  0  0  0  0  0  0
  149.2852  141.4339  155.3543 H   0  0  0  0  0  0  0  0  0  0  0  0
  151.2090  140.5550  154.0952 H   0  0  0  0  0  0  0  0  0  0  0  0
  151.6881  141.8276  156.3343 H   0  0  0  0  0  0  0  0  0  0  0  0
  152.9362  140.5904  156.0737 H   0  0  0  0  0  0  0  0  0  0  0  0
  152.4246  138.5487  154.8211 H   0  0  0  0  0  0  0  0  0  0  0  0
  149.6777  137.3510  155.0372 H   0  0  0  0  0  0  0  0  0  0  0  0
  150.1459  138.0675  153.5106 H   0  0  0  0  0  0  0  0  0  0  0  0
  151.2445  136.3329  153.2020 H   0  0  0  0  0  0  0  0  0  0  0  0
  146.2496  134.3034  163.4663 H   0  0  0  0  0  0  0  0  0  0  0  0
  147.0351  132.9802  162.6147 H   0  0  0  0  0  0  0  0  0  0  0  0
  145.5533  133.6872  161.9739 H   0  0  0  0  0  0  0  0  0  0  0  0
  1  2  1  0  0  0  0
  1 21  1  0  0  0  0
  1 22  1  0  0  0  0
  1 23  1  0  0  0  0
  2 19  2  0  0  0  0
  2  3  1  0  0  0  0
  3  4  2  0  0  0  0
  4  5  1  0  0  0  0
  4 18  1  0  0  0  0
  5  6  1  0  0  0  0
  5 24  1  0  0  0  0
  6  7  2  0  0  0  0
  6  8  1  0  0  0  0
  8  9  1  0  0  0  0
  8 25  1  0  0  0  0
  9 15  1  0  0  0  0
  9 10  1  0  0  0  0
  9 26  1  0  0  0  0
 10 14  1  0  0  0  0
 10 11  1  0  0  0  0
 10 27  1  0  0  0  0
 11 12  1  0  0  0  0
 11 28  1  0  0  0  0
 11 29  1  0  0  0  0
 12 13  1  0  0  0  0
 12 30  1  0  0  0  0
 12 31  1  0  0  0  0
 13 14  1  0  0  0  0
 13 15  1  0  0  0  0
 13 32  1  0  0  0  0
 14 33  1  0  0  0  0
 14 34  1  0  0  0  0
 15 16  1  0  0  0  0
 15 35  1  0  0  0  0
 16 17  1  0  0  0  0
 16 36  1  0  0  0  0
 16 37  1  0  0  0  0
 17 38  1  0  0  0  0
 18 19  1  0  0  0  0
 19 20  1  0  0  0  0
 20 39  1  0  0  0  0
 20 40  1  0  0  0  0
 20 41  1  0  0  0  0
M  END
> <s_m_source_file>
AV-unprocessed.smi

> <i_m_source_file_index>
794

> <i_lp_mmshare_version>
43012

> <i_f3d_flags>
0

> <s_epik_input>
W0NIM11jMW5jKHNjMVtDSDNdKVtOSF1DKD1PKVtOSF1bQ0BIXShbQ0BASF0yMylbQ0BIXShbQ0gyXVtPSF0pW0NAQEhdKFtDSDJdMylbQ0gyXVtDSDJdMg==

> <s_epik_cmdline>
J2VwaWtfcHl0aG9uJywgJy1waCcsICc3LjAnLCAnLXRuJywgJzgnLCAnLW1hJywgJzIwMCcsICctbWV0YWxfYmluZGluZycsICctaW1hZScsICc8aW5maWxlLm1hZT4nLCAnLW9tYWUnLCAnPG91dGZpbGUubWFlPic=

> <r_lp_tautomer_probability>
0.999

> <r_epik_Ionization_Penalty>
0.000713029

> <r_epik_Ionization_Penalty_Charging>
0

> <r_epik_Ionization_Penalty_Neutral>
0.000713029

> <r_epik_State_Penalty>
0.000177984

> <r_epik_Charging_Adjusted_Penalty>
0.000177984

> <i_epik_Tot_Q>
0

> <i_epik_Tot_abs_Q>
0

> <r_epik_Metal_State_Penalty>
-0

> <b_epik_Metal_Only>
0

> <s_lp_Force_Field>
OPLS_2005

> <r_lp_Energy>
49.8561

> <b_lp_Chiralities_Consistent>
1

> <s_lp_Variant>
AV-unprocessed.smi:794-7

> <Gold.Version>
5.8.1

> <Gold.Id.Protein>
6NUR|6NUR_protein|mol2

> <Gold.PLP.Fitness>
42.9466

> <Gold.PLP.PLP>
-35.1399

> <Gold.PLP.part.hbond>
-4.3865

> <Gold.PLP.part.metal>
0.0000

> <Gold.PLP.part.buried>
-2.1600

> <Gold.PLP.part.nonpolar>
-29.4656

> <Gold.PLP.part.repulsive>
0.1714

> <Gold.PLP.ligand.clash>
0.0000

> <Gold.PLP.ligand.torsion>
0.6020

> <Gold.PLP.Chemscore.Hbond>
3.0000

> <Gold.PLP.Chemscore.CHOScore>
0.0000

> <Gold.PLP.Chemscore.Metal>
0.0000

> <Gold.Chemscore.Hbonds>
donor molecule, donor type, donor heavy atom, donor atom, acceptor molecule, acceptor atom, score
      L1  H    17    38       P1  7949  1.00
      P1  H  6931  6943       L1     3  1.00
      P1  H 10752 10765       L1    17  1.00

> <Gold.PLP.Chemscore.Internal.Correction>
0.0108

> <Gold.Rescore>
     Score         DG    S(hbond)    S(metal)    S(lipo)     H(rot)  DE(clash)    DE(int)     intcor
     12.26     -16.08       1.51        0.00      86.43       1.78       0.66       3.16       ----

> <Gold.Chemscore.Fitness>
12.2635

> <Gold.Chemscore.DG>
-16.0788

> <Gold.Chemscore.ZeroCoef>
-5.4800

> <Gold.Chemscore.Hbond>
1.5099

> <Gold.Chemscore.Metal>
0.0000

> <Gold.Chemscore.Lipo>
86.4272

> <Gold.Chemscore.Internal_Hbond>
0.0000

> <Gold.Chemscore.DEClash>
0.6579

> <Gold.Chemscore.DEInternal>
3.1575

> <Gold.Chemscore.Rot>
1.7798

> <Gold.Chemscore.Internal.Correction>
   9.000000E+99

> <Gold.Chemscore.Hbonds>
donor molecule, donor type, donor heavy atom, donor atom, acceptor molecule, acceptor atom, score
      L1  H    17    38       P1  7949  0.55
      P1  H  6931  6943       L1     3  0.25
      P1  H 10752 10765       L1    17  0.25

> <Gold.Chemscore.Hbond.Weighted>
-5.0431

> <Gold.Chemscore.Metal.Weighted>
-0.0000

> <Gold.Chemscore.Lipo.Weighted>
-10.1120

> <Gold.Chemscore.Internal_Hbond.Weighted>
0.0000

> <Gold.Chemscore.DEClash.Weighted>
0.6579

> <Gold.Chemscore.DEInternal.Weighted>
3.1575

> <Gold.Chemscore.Rot.Weighted>
4.5562

> <Gold.Chemscore.Internal.Correction.Weighted>
   9.000000E+99

> <Gold.Protein.RotatedTorsions>
[ 6907 6896 6895 6894 ] final   32.43 input  -60.11 | X-H torsion
[ 7974 7965 7964 7962 ] final  171.98 input  175.53 | X-H torsion
[ 8008 7997 7996 7995 ] final -173.53 input   59.86 | X-H torsion
[ 10167 10162 10161 10158 ] final -101.96 input  -65.29 | X-H torsion
[ 10718 10713 10712 10709 ] final -103.08 input   66.30 | X-H torsion
[ 10763 10752 10751 10750 ] final  179.25 input  -60.55 | X-H torsion
[ 11005 11000 10999 10996 ] final -166.00 input  -57.11 | X-H torsion

> <Gold.Protein.ActiveResidues>
 VAL166  LYS551  ARG553  GLY616  TRP617  ASP618  TYR619  PRO620  LYS621  CYS622 
 ASP623  PHE694  ASN695  SER759  ASP760  ASP761  ALA762  ILE779  LEU786  VAL792 
 PHE793  MET794  SER795  GLU796  ALA797  LYS798  CYS799  TRP800  GLU811  SER814 

> <Gold.Protein.RotatedAtoms>
  152.0744  134.9512  160.0573 H   0  0  0  0  0  0  0  0  0  0  0  0  # atno 6907 bound_to 6896
  152.0826  133.4155  159.4516 H   0  0  0  0  0  0  0  0  0  0  0  0  # atno 6908 bound_to 6896
  150.6836  134.2884  159.4700 H   0  0  0  0  0  0  0  0  0  0  0  0  # atno 6909 bound_to 6896
  144.7280  139.9430  143.6429 H   0  0  0  0  0  0  0  0  0  0  0  0  # atno 7974 bound_to 7965
  155.9586  140.1140  157.0916 H   0  0  0  0  0  0  0  0  0  0  0  0  # atno 8008 bound_to 7997
  154.4126  140.1186  156.5214 H   0  0  0  0  0  0  0  0  0  0  0  0  # atno 8009 bound_to 7997
  155.6750  140.3473  155.4835 H   0  0  0  0  0  0  0  0  0  0  0  0  # atno 8010 bound_to 7997
  140.2357  143.3574  152.0847 H   0  0  0  0  0  0  0  0  0  0  0  0  # atno 10167 bound_to 10162
  156.0252  130.5450  150.7201 H   0  0  0  0  0  0  0  0  0  0  0  0  # atno 10718 bound_to 10713
  154.5182  135.2792  155.1285 H   0  0  0  0  0  0  0  0  0  0  0  0  # atno 10763 bound_to 10752
  154.2853  135.6277  153.5367 H   0  0  0  0  0  0  0  0  0  0  0  0  # atno 10764 bound_to 10752
  152.9931  135.5661  154.5664 H   0  0  0  0  0  0  0  0  0  0  0  0  # atno 10765 bound_to 10752
  140.5694  134.5253  157.5159 H   0  0  0  0  0  0  0  0  0  0  0  0  # atno 11005 bound_to 11000
  146.0770  139.3758  143.0488 LP  0  0  0  0  0  0  0  0  0  0  0  0  # atno 17320 bound_to 7965
  145.7892  140.9822  143.1058 LP  0  0  0  0  0  0  0  0  0  0  0  0  # atno 17321 bound_to 7965
  139.5094  144.6867  151.5868 LP  0  0  0  0  0  0  0  0  0  0  0  0  # atno 17342 bound_to 10162
  140.6151  143.9363  150.6482 LP  0  0  0  0  0  0  0  0  0  0  0  0  # atno 17343 bound_to 10162
  157.4818  131.0903  151.0527 LP  0  0  0  0  0  0  0  0  0  0  0  0  # atno 17370 bound_to 10713
  157.0958  130.5961  149.5449 LP  0  0  0  0  0  0  0  0  0  0  0  0  # atno 17371 bound_to 10713
  139.9369  134.7859  156.0780 LP  0  0  0  0  0  0  0  0  0  0  0  0  # atno 17394 bound_to 11000
  141.1065  133.6658  156.2877 LP  0  0  0  0  0  0  0  0  0  0  0  0  # atno 17395 bound_to 11000

$$$$
