AV-unprocessed.smi:508|AV-procd|sdf|2758|dock7
  -GOLD-   2262023223D 1   1.00000     0.00000
 Structure written by MMmdl.
 49 51  0  0  0  0  0  0  0  0  1 V2000
  149.0359  139.1798  154.0163 C   0  0  0  0  0  0  0  0  0  0  0  0
  149.8485  140.1515  154.8750 C   0  0  0  0  0  0  0  0  0  0  0  0
  151.2284  139.8971  154.6740 O   0  0  0  0  0  0  0  0  0  0  0  0
  151.9913  140.0325  155.8608 C   0  0  0  0  0  0  0  0  0  0  0  0
  151.4659  139.0223  156.8935 C   0  0  0  0  0  0  0  0  0  0  0  0
  152.2798  138.9814  158.1045 N   0  0  0  0  0  0  0  0  0  0  0  0
  152.5299  139.9591  159.0281 C   0  0  0  0  0  0  0  0  0  0  0  0
  151.9776  141.2518  158.9831 N   0  0  0  0  0  0  0  0  0  0  0  0
  150.8618  141.7164  158.1568 C   0  0  0  0  0  0  0  0  0  0  0  0
  151.2076  142.8829  157.2074 C   0  0  0  0  0  0  0  0  0  0  0  0
  151.3067  144.2370  157.9251 C   0  0  0  0  0  0  0  0  0  0  0  0
  152.6605  144.5117  158.6036 C   0  0  0  0  0  0  0  0  0  0  0  0
  153.3292  143.3130  159.3015 C   0  0  0  0  0  0  0  0  0  0  0  0
  152.3601  142.3001  159.9330 C   0  0  0  0  0  0  0  0  0  0  0  0
  153.3860  139.5864  159.9867 N   0  0  0  0  0  0  0  0  0  0  0  0
  153.6939  138.2763  159.6664 C   0  0  0  0  0  0  0  0  0  0  0  0
  153.0455  137.8954  158.5389 C   0  0  0  0  0  0  0  0  0  0  0  0
  153.2122  136.5558  157.9545 C   0  0  0  0  0  0  0  0  0  0  0  0
  152.6544  136.1900  156.9224 O   0  0  0  0  0  0  0  0  0  0  0  0
  154.0464  135.7622  158.6693 N   0  0  0  0  0  0  0  0  0  0  0  0
  154.7209  136.0832  159.8149 C   0  0  0  0  0  0  0  0  0  0  0  0
  155.4433  135.2478  160.3584 O   0  0  0  0  0  0  0  0  0  0  0  0
  154.5579  137.3491  160.3155 N   0  0  0  0  0  0  0  0  0  0  0  0
  155.2616  137.7525  161.5346 C   0  0  0  0  0  0  0  0  0  0  0  0
  154.1881  134.8278  158.3142 H   0  0  0  0  0  0  0  0  0  0  0  0
  147.9664  139.3464  154.1452 H   0  0  0  0  0  0  0  0  0  0  0  0
  149.2488  138.1456  154.2882 H   0  0  0  0  0  0  0  0  0  0  0  0
  149.2686  139.3039  152.9584 H   0  0  0  0  0  0  0  0  0  0  0  0
  149.6108  141.1795  154.5980 H   0  0  0  0  0  0  0  0  0  0  0  0
  149.5918  140.0237  155.9276 H   0  0  0  0  0  0  0  0  0  0  0  0
  153.0463  139.8618  155.6471 H   0  0  0  0  0  0  0  0  0  0  0  0
  151.9082  141.0506  156.2414 H   0  0  0  0  0  0  0  0  0  0  0  0
  150.4413  139.2706  157.1695 H   0  0  0  0  0  0  0  0  0  0  0  0
  151.3990  138.0284  156.4630 H   0  0  0  0  0  0  0  0  0  0  0  0
  150.4725  140.8860  157.5767 H   0  0  0  0  0  0  0  0  0  0  0  0
  150.0337  142.0027  158.8064 H   0  0  0  0  0  0  0  0  0  0  0  0
  152.1141  142.6875  156.6352 H   0  0  0  0  0  0  0  0  0  0  0  0
  150.4036  142.9545  156.4746 H   0  0  0  0  0  0  0  0  0  0  0  0
  151.1194  145.0363  157.2075 H   0  0  0  0  0  0  0  0  0  0  0  0
  150.5044  144.3150  158.6599 H   0  0  0  0  0  0  0  0  0  0  0  0
  153.3589  144.9080  157.8655 H   0  0  0  0  0  0  0  0  0  0  0  0
  152.5175  145.3137  159.3288 H   0  0  0  0  0  0  0  0  0  0  0  0
  153.9880  142.7963  158.6016 H   0  0  0  0  0  0  0  0  0  0  0  0
  153.9881  143.7036  160.0776 H   0  0  0  0  0  0  0  0  0  0  0  0
  151.4834  142.8019  160.3448 H   0  0  0  0  0  0  0  0  0  0  0  0
  152.8546  141.8453  160.7910 H   0  0  0  0  0  0  0  0  0  0  0  0
  154.8692  137.2084  162.3944 H   0  0  0  0  0  0  0  0  0  0  0  0
  155.1595  138.8175  161.7436 H   0  0  0  0  0  0  0  0  0  0  0  0
  156.3293  137.5425  161.4560 H   0  0  0  0  0  0  0  0  0  0  0  0
  1  2  1  0  0  0  0
  1 26  1  0  0  0  0
  1 27  1  0  0  0  0
  1 28  1  0  0  0  0
  2  3  1  0  0  0  0
  2 29  1  0  0  0  0
  2 30  1  0  0  0  0
  3  4  1  0  0  0  0
  4  5  1  0  0  0  0
  4 31  1  0  0  0  0
  4 32  1  0  0  0  0
  5  6  1  0  0  0  0
  5 33  1  0  0  0  0
  5 34  1  0  0  0  0
  6 17  1  0  0  0  0
  6  7  1  0  0  0  0
  7  8  1  0  0  0  0
  7 15  2  0  0  0  0
  8 14  1  0  0  0  0
  8  9  1  0  0  0  0
  9 10  1  0  0  0  0
  9 35  1  0  0  0  0
  9 36  1  0  0  0  0
 10 11  1  0  0  0  0
 10 37  1  0  0  0  0
 10 38  1  0  0  0  0
 11 12  1  0  0  0  0
 11 39  1  0  0  0  0
 11 40  1  0  0  0  0
 12 13  1  0  0  0  0
 12 41  1  0  0  0  0
 12 42  1  0  0  0  0
 13 14  1  0  0  0  0
 13 43  1  0  0  0  0
 13 44  1  0  0  0  0
 14 45  1  0  0  0  0
 14 46  1  0  0  0  0
 15 16  1  0  0  0  0
 16 23  1  0  0  0  0
 16 17  2  0  0  0  0
 17 18  1  0  0  0  0
 18 19  2  0  0  0  0
 18 20  1  0  0  0  0
 20 25  1  0  0  0  0
 20 21  1  0  0  0  0
 21 22  2  0  0  0  0
 21 23  1  0  0  0  0
 23 24  1  0  0  0  0
 24 47  1  0  0  0  0
 24 48  1  0  0  0  0
 24 49  1  0  0  0  0
M  END
> <s_m_source_file>
AV-unprocessed.smi

> <i_m_source_file_index>
508

> <i_lp_mmshare_version>
43012

> <i_f3d_flags>
0

> <s_epik_input>
W0NIM11uMWMoPU8pW25IXWMoPU8pYyhjMTIpbihbQ0gyXVtDSDJdT1tDSDJdW0NIM10pYyhuMilOM1tDSDJdW0NIMl1bQ0gyXVtDSDJdW0NIMl1bQ0gyXTM=

> <s_epik_cmdline>
J2VwaWtfcHl0aG9uJywgJy1waCcsICc3LjAnLCAnLXRuJywgJzgnLCAnLW1hJywgJzIwMCcsICctbWV0YWxfYmluZGluZycsICctaW1hZScsICc8aW5maWxlLm1hZT4nLCAnLW9tYWUnLCAnPG91dGZpbGUubWFlPic=

> <r_lp_tautomer_probability>
1

> <r_epik_Ionization_Penalty>
0.000193589

> <r_epik_Ionization_Penalty_Charging>
2.00901e-05

> <r_epik_Ionization_Penalty_Neutral>
0.000173499

> <r_epik_State_Penalty>
-0

> <r_epik_Charging_Adjusted_Penalty>
2.00901e-05

> <i_epik_Tot_Q>
0

> <i_epik_Tot_abs_Q>
0

> <r_epik_Metal_State_Penalty>
0.0191145

> <b_epik_Metal_Only>
0

> <s_lp_Force_Field>
OPLS_2005

> <r_lp_Energy>
44.1417

> <b_lp_Chiralities_Consistent>
1

> <s_lp_Variant>
AV-unprocessed.smi:508-1

> <Gold.Version>
5.8.1

> <Gold.Id.Protein>
6NUR|6NUR_protein|mol2

> <Gold.PLP.Fitness>
46.0646

> <Gold.PLP.PLP>
-40.7003

> <Gold.PLP.part.hbond>
-2.0000

> <Gold.PLP.part.metal>
0.0000

> <Gold.PLP.part.buried>
-5.0825

> <Gold.PLP.part.nonpolar>
-34.4346

> <Gold.PLP.part.repulsive>
0.1955

> <Gold.PLP.ligand.clash>
0.0000

> <Gold.PLP.ligand.torsion>
0.3335

> <Gold.PLP.Chemscore.Hbond>
2.0000

> <Gold.PLP.Chemscore.CHOScore>
0.0000

> <Gold.PLP.Chemscore.Metal>
0.0000

> <Gold.Chemscore.Hbonds>
donor molecule, donor type, donor heavy atom, donor atom, acceptor molecule, acceptor atom, score
      P1  H  7989  7998       L1     3  1.00
      P1  H 10752 10765       L1    19  1.00

> <Gold.PLP.Chemscore.Internal.Correction>
0.0313

> <Gold.Rescore>
     Score         DG    S(hbond)    S(metal)    S(lipo)     H(rot)  DE(clash)    DE(int)     intcor
     17.91     -18.90       1.90        0.00      94.93       1.58       0.04       0.95       ----

> <Gold.Chemscore.Fitness>
17.9109

> <Gold.Chemscore.DG>
-18.9014

> <Gold.Chemscore.ZeroCoef>
-5.4800

> <Gold.Chemscore.Hbond>
1.9044

> <Gold.Chemscore.Metal>
0.0000

> <Gold.Chemscore.Lipo>
94.9324

> <Gold.Chemscore.Internal_Hbond>
0.0000

> <Gold.Chemscore.DEClash>
0.0363

> <Gold.Chemscore.DEInternal>
0.9542

> <Gold.Chemscore.Rot>
1.5806

> <Gold.Chemscore.Internal.Correction>
   9.000000E+99

> <Gold.Chemscore.Hbonds>
donor molecule, donor type, donor heavy atom, donor atom, acceptor molecule, acceptor atom, score
      P1  H  7989  7998       L1     3  0.44
      P1  H 10752 10765       L1    19  0.96

> <Gold.Chemscore.Hbond.Weighted>
-6.3606

> <Gold.Chemscore.Metal.Weighted>
-0.0000

> <Gold.Chemscore.Lipo.Weighted>
-11.1071

> <Gold.Chemscore.Internal_Hbond.Weighted>
0.0000

> <Gold.Chemscore.DEClash.Weighted>
0.0363

> <Gold.Chemscore.DEInternal.Weighted>
0.9542

> <Gold.Chemscore.Rot.Weighted>
4.0463

> <Gold.Chemscore.Internal.Correction.Weighted>
   9.000000E+99

> <Gold.Protein.RotatedTorsions>
[ 6907 6896 6895 6894 ] final   82.12 input  -60.11 | X-H torsion
[ 7974 7965 7964 7962 ] final -129.42 input  175.53 | X-H torsion
[ 8008 7997 7996 7995 ] final  -63.74 input   59.86 | X-H torsion
[ 10167 10162 10161 10158 ] final -169.07 input  -65.29 | X-H torsion
[ 10718 10713 10712 10709 ] final  -66.73 input   66.30 | X-H torsion
[ 10763 10752 10751 10750 ] final -120.05 input  -60.55 | X-H torsion
[ 11005 11000 10999 10996 ] final   52.60 input  -57.11 | X-H torsion

> <Gold.Protein.ActiveResidues>
 VAL166  LYS551  ARG553  GLY616  TRP617  ASP618  TYR619  PRO620  LYS621  CYS622 
 ASP623  PHE694  ASN695  SER759  ASP760  ASP761  ALA762  ILE779  LEU786  VAL792 
 PHE793  MET794  SER795  GLU796  ALA797  LYS798  CYS799  TRP800  GLU811  SER814 

> <Gold.Protein.RotatedAtoms>
  152.5290  134.3098  159.9109 H   0  0  0  0  0  0  0  0  0  0  0  0  # atno 6907 bound_to 6896
  151.3048  133.4100  159.2650 H   0  0  0  0  0  0  0  0  0  0  0  0  # atno 6908 bound_to 6896
  151.0088  134.9397  159.8053 H   0  0  0  0  0  0  0  0  0  0  0  0  # atno 6909 bound_to 6896
  144.9574  140.7410  143.4750 H   0  0  0  0  0  0  0  0  0  0  0  0  # atno 7974 bound_to 7965
  154.4571  140.0968  156.6789 H   0  0  0  0  0  0  0  0  0  0  0  0  # atno 8008 bound_to 7997
  155.5104  140.3476  155.4369 H   0  0  0  0  0  0  0  0  0  0  0  0  # atno 8009 bound_to 7997
  156.0799  140.1370  156.9714 H   0  0  0  0  0  0  0  0  0  0  0  0  # atno 8010 bound_to 7997
  139.5945  144.1141  152.1674 H   0  0  0  0  0  0  0  0  0  0  0  0  # atno 10167 bound_to 10162
  156.0596  130.4267  150.1752 H   0  0  0  0  0  0  0  0  0  0  0  0  # atno 10718 bound_to 10713
  154.8634  135.4216  154.2397 H   0  0  0  0  0  0  0  0  0  0  0  0  # atno 10763 bound_to 10752
  153.3365  135.6991  153.6909 H   0  0  0  0  0  0  0  0  0  0  0  0  # atno 10764 bound_to 10752
  153.5904  135.3556  155.2882 H   0  0  0  0  0  0  0  0  0  0  0  0  # atno 10765 bound_to 10752
  140.0836  134.5305  155.8922 H   0  0  0  0  0  0  0  0  0  0  0  0  # atno 11005 bound_to 11000
  145.2751  139.1939  143.4820 LP  0  0  0  0  0  0  0  0  0  0  0  0  # atno 17320 bound_to 7965
  146.3342  140.2704  142.8605 LP  0  0  0  0  0  0  0  0  0  0  0  0  # atno 17321 bound_to 7965
  140.0723  144.5769  150.7183 LP  0  0  0  0  0  0  0  0  0  0  0  0  # atno 17342 bound_to 10162
  140.7201  143.2580  151.4307 LP  0  0  0  0  0  0  0  0  0  0  0  0  # atno 17343 bound_to 10162
  156.9822  130.9868  151.3434 LP  0  0  0  0  0  0  0  0  0  0  0  0  # atno 17370 bound_to 10713
  157.5594  130.8235  149.8246 LP  0  0  0  0  0  0  0  0  0  0  0  0  # atno 17371 bound_to 10713
  141.2055  133.6647  156.6184 LP  0  0  0  0  0  0  0  0  0  0  0  0  # atno 17394 bound_to 11000
  140.3453  134.7815  157.4427 LP  0  0  0  0  0  0  0  0  0  0  0  0  # atno 17395 bound_to 11000

$$$$
