AV-unprocessed.smi:484|AV-procd|sdf|2689|dock4
  -GOLD-   2262023123D 1   1.00000     0.00000
 Structure written by MMmdl.
 47 49  0  0  0  0  0  0  0  0  2 V2000
  150.5275  142.7400  157.4095 C   0  0  0  0  0  0  0  0  0  0  0  0
  150.4033  141.2151  157.5005 C   0  0  0  0  0  0  0  0  0  0  0  0
  149.5838  140.6365  156.3627 C   0  0  0  0  0  0  0  0  0  0  0  0
  149.9496  140.8875  155.0252 C   0  0  0  0  0  0  0  0  0  0  0  0
  149.1880  140.3479  153.9710 C   0  0  0  0  0  0  0  0  0  0  0  0
  148.0532  139.5533  154.2325 C   0  0  0  0  0  0  0  0  0  0  0  0
  147.3653  139.0689  153.1409 O   0  0  0  0  0  0  0  0  0  0  0  0
  146.2191  138.2586  153.3700 C   0  0  0  0  0  0  0  0  0  0  0  0
  145.9183  137.4194  152.1178 C   0  0  2  0  0  0  0  0  0  0  0  0
  146.3848  138.1081  150.9751 O   0  0  0  0  0  0  0  0  0  0  0  0
  144.4339  137.0217  151.9845 C   0  0  0  0  0  0  0  0  0  0  0  0
  144.1829  135.6232  152.3668 N   0  0  0  0  0  0  0  0  0  0  0  0
  143.2929  135.1081  153.2627 C   0  0  0  0  0  0  0  0  0  0  0  0
  142.3230  135.8841  154.0961 C   0  0  0  0  0  0  0  0  0  0  0  0
  141.0137  135.3547  154.0683 O   0  0  0  0  0  0  0  0  0  0  0  0
  143.4501  133.7533  153.2516 N   0  3  0  0  0  0  0  0  0  0  0  0
  144.4494  133.3993  152.3449 C   0  0  0  0  0  0  0  0  0  0  0  0
  144.9597  132.1535  151.9928 C   0  0  0  0  0  0  0  0  0  0  0  0
  145.9857  132.1404  151.0254 C   0  0  0  0  0  0  0  0  0  0  0  0
  146.4661  133.3342  150.4491 C   0  0  0  0  0  0  0  0  0  0  0  0
  145.9411  134.5912  150.8147 C   0  0  0  0  0  0  0  0  0  0  0  0
  144.9254  134.5960  151.7710 C   0  0  0  0  0  0  0  0  0  0  0  0
  147.6911  139.3022  155.5801 C   0  0  0  0  0  0  0  0  0  0  0  0
  148.4531  139.8406  156.6352 C   0  0  0  0  0  0  0  0  0  0  0  0
  151.1208  143.1310  158.2361 H   0  0  0  0  0  0  0  0  0  0  0  0
  149.5480  143.2177  157.4475 H   0  0  0  0  0  0  0  0  0  0  0  0
  151.0121  143.0409  156.4802 H   0  0  0  0  0  0  0  0  0  0  0  0
  151.3957  140.7625  157.4944 H   0  0  0  0  0  0  0  0  0  0  0  0
  149.9458  140.9374  158.4509 H   0  0  0  0  0  0  0  0  0  0  0  0
  150.8157  141.4938  154.8035 H   0  0  0  0  0  0  0  0  0  0  0  0
  149.4778  140.5471  152.9498 H   0  0  0  0  0  0  0  0  0  0  0  0
  146.3618  137.6114  154.2372 H   0  0  0  0  0  0  0  0  0  0  0  0
  145.3621  138.9028  153.5727 H   0  0  0  0  0  0  0  0  0  0  0  0
  146.5144  136.5085  152.1805 H   0  0  0  0  0  0  0  0  0  0  0  0
  145.6404  138.4785  150.5259 H   0  0  0  0  0  0  0  0  0  0  0  0
  143.8240  137.6490  152.6356 H   0  0  0  0  0  0  0  0  0  0  0  0
  144.0619  137.1880  150.9735 H   0  0  0  0  0  0  0  0  0  0  0  0
  142.6716  135.9038  155.1288 H   0  0  0  0  0  0  0  0  0  0  0  0
  142.2953  136.9153  153.7431 H   0  0  0  0  0  0  0  0  0  0  0  0
  140.5237  135.8007  153.3940 H   0  0  0  0  0  0  0  0  0  0  0  0
  144.5938  131.2382  152.4347 H   0  0  0  0  0  0  0  0  0  0  0  0
  146.4136  131.1965  150.7203 H   0  0  0  0  0  0  0  0  0  0  0  0
  147.2546  133.2859  149.7120 H   0  0  0  0  0  0  0  0  0  0  0  0
  146.3215  135.4983  150.3692 H   0  0  0  0  0  0  0  0  0  0  0  0
  146.8324  138.6992  155.8322 H   0  0  0  0  0  0  0  0  0  0  0  0
  148.1660  139.6392  157.6569 H   0  0  0  0  0  0  0  0  0  0  0  0
  142.9086  133.1220  153.8281 H   0  0  0  0  0  0  0  0  0  0  0  0
  1  2  1  0  0  0  0
  1 25  1  0  0  0  0
  1 26  1  0  0  0  0
  1 27  1  0  0  0  0
  2  3  1  0  0  0  0
  2 28  1  0  0  0  0
  2 29  1  0  0  0  0
  3 24  1  0  0  0  0
  3  4  2  0  0  0  0
  4  5  1  0  0  0  0
  4 30  1  0  0  0  0
  5  6  2  0  0  0  0
  5 31  1  0  0  0  0
  6  7  1  0  0  0  0
  6 23  1  0  0  0  0
  7  8  1  0  0  0  0
  8  9  1  0  0  0  0
  8 32  1  0  0  0  0
  8 33  1  0  0  0  0
  9 10  1  0  0  0  0
  9 11  1  0  0  0  0
  9 34  1  0  0  0  0
 10 35  1  0  0  0  0
 11 12  1  0  0  0  0
 11 36  1  0  0  0  0
 11 37  1  0  0  0  0
 12 22  1  0  0  0  0
 12 13  1  0  0  0  0
 13 14  1  0  0  0  0
 13 16  2  0  0  0  0
 14 15  1  0  0  0  0
 14 38  1  0  0  0  0
 14 39  1  0  0  0  0
 15 40  1  0  0  0  0
 16 17  1  0  0  0  0
 16 47  1  0  0  0  0
 17 22  2  0  0  0  0
 17 18  1  0  0  0  0
 18 19  2  0  0  0  0
 18 41  1  0  0  0  0
 19 20  1  0  0  0  0
 19 42  1  0  0  0  0
 20 21  2  0  0  0  0
 20 43  1  0  0  0  0
 21 22  1  0  0  0  0
 21 44  1  0  0  0  0
 23 24  2  0  0  0  0
 23 45  1  0  0  0  0
 24 46  1  0  0  0  0
M  CHG  1  16   1
M  END
> <s_m_source_file>
AV-unprocessed.smi

> <i_m_source_file_index>
484

> <i_lp_mmshare_version>
43012

> <i_f3d_flags>
0

> <s_epik_input>
W0NIM11bQ0gyXWMxW2NIXVtjSF1jKFtjSF1bY0hdMSlPW0NIMl1bQ0BIXShbT0hdKVtDSDJdbihjKG4yKVtDSDJdW09IXSljKGMyMylbY0hdW2NIXVtjSF1bY0hdMw==

> <s_epik_cmdline>
J2VwaWtfcHl0aG9uJywgJy1waCcsICc3LjAnLCAnLXRuJywgJzgnLCAnLW1hJywgJzIwMCcsICctbWV0YWxfYmluZGluZycsICctaW1hZScsICc8aW5maWxlLm1hZT4nLCAnLW9tYWUnLCAnPG91dGZpbGUubWFlPic=

> <r_lp_tautomer_probability>
1

> <r_epik_Ionization_Penalty>
1.43166

> <r_epik_Ionization_Penalty_Charging>
1.43081

> <r_epik_Ionization_Penalty_Neutral>
0.000858184

> <r_epik_State_Penalty>
1.51538

> <r_epik_Charging_Adjusted_Penalty>
2.94618

> <i_epik_Tot_Q>
1

> <i_epik_Tot_abs_Q>
1

> <r_epik_Metal_State_Penalty>
5.56039

> <b_epik_Metal_Only>
0

> <s_lp_Force_Field>
OPLS_2005

> <r_lp_Energy>
18.7475

> <b_lp_Chiralities_Consistent>
1

> <s_lp_Variant>
AV-unprocessed.smi:484-3

> <Gold.Version>
5.8.1

> <Gold.Id.Protein>
6NUR|6NUR_protein|mol2

> <Gold.PLP.Fitness>
46.8670

> <Gold.PLP.PLP>
-35.0832

> <Gold.PLP.part.hbond>
-4.6425

> <Gold.PLP.part.metal>
0.0000

> <Gold.PLP.part.buried>
-1.7432

> <Gold.PLP.part.nonpolar>
-29.2874

> <Gold.PLP.part.repulsive>
0.2250

> <Gold.PLP.ligand.clash>
0.0000

> <Gold.PLP.ligand.torsion>
1.2916

> <Gold.PLP.Chemscore.Hbond>
4.7300

> <Gold.PLP.Chemscore.CHOScore>
0.0000

> <Gold.PLP.Chemscore.Metal>
0.0000

> <Gold.Chemscore.Hbonds>
donor molecule, donor type, donor heavy atom, donor atom, acceptor molecule, acceptor atom, score
      L1  H    10    35       P1 10171  1.00
      L1  H    16    47       P1 10957  2.00
      P1  H  7954  7966       L1    10  0.84
      P1  H 11000 11005       L1    15  0.89

> <Gold.PLP.Chemscore.Internal.Correction>
0.1771

> <Gold.Rescore>
     Score         DG    S(hbond)    S(metal)    S(lipo)     H(rot)  DE(clash)    DE(int)     intcor
     16.90     -19.77       3.38        0.00      95.11       3.18       1.35       1.52       ----

> <Gold.Chemscore.Fitness>
16.9044

> <Gold.Chemscore.DG>
-19.7719

> <Gold.Chemscore.ZeroCoef>
-5.4800

> <Gold.Chemscore.Hbond>
3.3849

> <Gold.Chemscore.Metal>
0.0000

> <Gold.Chemscore.Lipo>
95.1051

> <Gold.Chemscore.Internal_Hbond>
0.0000

> <Gold.Chemscore.DEClash>
1.3469

> <Gold.Chemscore.DEInternal>
1.5206

> <Gold.Chemscore.Rot>
3.1801

> <Gold.Chemscore.Internal.Correction>
   9.000000E+99

> <Gold.Chemscore.Hbonds>
donor molecule, donor type, donor heavy atom, donor atom, acceptor molecule, acceptor atom, score
      L1  H    10    35       P1 10171  0.99
      L1  H    16    47       P1 10957  0.98
      P1  H  7954  7966       L1    10  0.76
      P1  H 11000 11005       L1    15  0.79

> <Gold.Chemscore.Hbond.Weighted>
-11.3056

> <Gold.Chemscore.Metal.Weighted>
-0.0000

> <Gold.Chemscore.Lipo.Weighted>
-11.1273

> <Gold.Chemscore.Internal_Hbond.Weighted>
0.0000

> <Gold.Chemscore.DEClash.Weighted>
1.3469

> <Gold.Chemscore.DEInternal.Weighted>
1.5206

> <Gold.Chemscore.Rot.Weighted>
8.1410

> <Gold.Chemscore.Internal.Correction.Weighted>
   9.000000E+99

> <Gold.Protein.RotatedTorsions>
[ 6907 6896 6895 6894 ] final   43.16 input  -60.11 | X-H torsion
[ 7974 7965 7964 7962 ] final   -3.66 input  175.53 | X-H torsion
[ 8008 7997 7996 7995 ] final   87.12 input   59.86 | X-H torsion
[ 10167 10162 10161 10158 ] final  -57.76 input  -65.29 | X-H torsion
[ 10718 10713 10712 10709 ] final  166.02 input   66.30 | X-H torsion
[ 10763 10752 10751 10750 ] final   26.79 input  -60.55 | X-H torsion
[ 11005 11000 10999 10996 ] final   36.48 input  -57.11 | X-H torsion

> <Gold.Protein.ActiveResidues>
 VAL166  LYS551  ARG553  GLY616  TRP617  ASP618  TYR619  PRO620  LYS621  CYS622 
 ASP623  PHE694  ASN695  SER759  ASP760  ASP761  ALA762  ILE779  LEU786  VAL792 
 PHE793  MET794  SER795  GLU796  ALA797  LYS798  CYS799  TRP800  GLU811  SER814 

> <Gold.Protein.RotatedAtoms>
  152.2169  134.8450  160.0490 H   0  0  0  0  0  0  0  0  0  0  0  0  # atno 6907 bound_to 6896
  151.9247  133.3590  159.3918 H   0  0  0  0  0  0  0  0  0  0  0  0  # atno 6908 bound_to 6896
  150.6990  134.4523  159.5386 H   0  0  0  0  0  0  0  0  0  0  0  0  # atno 6909 bound_to 6896
  146.2386  140.1754  142.8332 H   0  0  0  0  0  0  0  0  0  0  0  0  # atno 7974 bound_to 7965
  155.9714  140.3385  155.6579 H   0  0  0  0  0  0  0  0  0  0  0  0  # atno 8008 bound_to 7997
  155.6669  140.0722  157.2552 H   0  0  0  0  0  0  0  0  0  0  0  0  # atno 8009 bound_to 7997
  154.4167  140.1698  156.1825 H   0  0  0  0  0  0  0  0  0  0  0  0  # atno 8010 bound_to 7997
  140.6238  143.2430  151.5413 H   0  0  0  0  0  0  0  0  0  0  0  0  # atno 10167 bound_to 10162
  157.0718  131.0368  151.2609 H   0  0  0  0  0  0  0  0  0  0  0  0  # atno 10718 bound_to 10713
  153.0599  135.6552  154.0488 H   0  0  0  0  0  0  0  0  0  0  0  0  # atno 10763 bound_to 10752
  154.0158  135.2924  155.3388 H   0  0  0  0  0  0  0  0  0  0  0  0  # atno 10764 bound_to 10752
  154.6932  135.5274  153.8489 H   0  0  0  0  0  0  0  0  0  0  0  0  # atno 10765 bound_to 10752
  140.2322  134.3514  155.7959 H   0  0  0  0  0  0  0  0  0  0  0  0  # atno 11005 bound_to 11000
  144.9977  140.8604  143.5300 LP  0  0  0  0  0  0  0  0  0  0  0  0  # atno 17320 bound_to 7965
  145.1769  139.2373  143.5313 LP  0  0  0  0  0  0  0  0  0  0  0  0  # atno 17321 bound_to 7965
  139.5462  144.2515  152.1446 LP  0  0  0  0  0  0  0  0  0  0  0  0  # atno 17342 bound_to 10162
  140.1741  144.4907  150.6563 LP  0  0  0  0  0  0  0  0  0  0  0  0  # atno 17343 bound_to 10162
  157.4872  130.7800  149.7472 LP  0  0  0  0  0  0  0  0  0  0  0  0  # atno 17370 bound_to 10713
  155.9948  130.3915  150.2843 LP  0  0  0  0  0  0  0  0  0  0  0  0  # atno 17371 bound_to 10713
  141.2217  133.7252  156.8750 LP  0  0  0  0  0  0  0  0  0  0  0  0  # atno 17394 bound_to 11000
  140.1739  134.9081  157.2867 LP  0  0  0  0  0  0  0  0  0  0  0  0  # atno 17395 bound_to 11000

$$$$
