AV-unprocessed.smi:781|AV-procd|sdf|3709|dock1
  -GOLD-   22720 1133D 1   1.00000     0.00000
 Structure written by MMmdl.
 38 40  0  0  0  0  0  0  0  0  1 V2000
  150.4170  142.0128  156.0423 C   0  0  0  0  0  0  0  0  0  0  0  0
  150.1227  140.7903  155.2420 C   0  0  0  0  0  0  0  0  0  0  0  0
  148.9695  140.2745  154.7207 C   0  0  0  0  0  0  0  0  0  0  0  0
  149.4123  139.0893  154.0750 C   0  0  0  0  0  0  0  0  0  0  0  0
  148.4962  138.2449  153.3978 N   0  0  0  0  0  0  0  0  0  0  0  0
  147.1562  138.3432  153.3700 C   0  0  0  0  0  0  0  0  0  0  0  0
  146.4938  139.1980  153.9591 O   0  0  0  0  0  0  0  0  0  0  0  0
  146.6151  137.3777  152.6147 N   0  0  0  0  0  0  0  0  0  0  0  0
  145.1835  137.2015  152.3809 C   0  0  2  0  0  0  0  0  0  0  0  0
  144.3234  137.3765  153.6584 C   0  0  2  0  0  0  0  0  0  0  0  0
  144.8566  136.5136  154.8221 C   0  0  0  0  0  0  0  0  0  0  0  0
  144.5278  135.0825  154.3576 C   0  0  0  0  0  0  0  0  0  0  0  0
  143.8182  135.3159  153.0092 C   0  0  1  0  0  0  0  0  0  0  0  0
  143.0611  136.6102  153.2845 C   0  0  0  0  0  0  0  0  0  0  0  0
  144.8585  135.7468  151.9491 C   0  0  1  0  0  0  0  0  0  0  0  0
  144.3235  135.6393  150.5082 C   0  0  0  0  0  0  0  0  0  0  0  0
  145.2835  136.1278  149.5950 O   0  0  0  0  0  0  0  0  0  0  0  0
  150.7176  138.8985  154.1917 N   0  0  0  0  0  0  0  0  0  0  0  0
  151.1794  139.9878  154.9402 O   0  0  0  0  0  0  0  0  0  0  0  0
  149.5263  142.6317  156.1511 H   0  0  0  0  0  0  0  0  0  0  0  0
  151.1886  142.6139  155.5610 H   0  0  0  0  0  0  0  0  0  0  0  0
  150.7674  141.7463  157.0396 H   0  0  0  0  0  0  0  0  0  0  0  0
  147.9718  140.6814  154.7917 H   0  0  0  0  0  0  0  0  0  0  0  0
  148.9058  137.4863  152.8732 H   0  0  0  0  0  0  0  0  0  0  0  0
  147.2332  136.7172  152.1670 H   0  0  0  0  0  0  0  0  0  0  0  0
  144.8492  137.9061  151.6168 H   0  0  0  0  0  0  0  0  0  0  0  0
  144.1582  138.4193  153.9320 H   0  0  0  0  0  0  0  0  0  0  0  0
  145.9180  136.6582  155.0226 H   0  0  0  0  0  0  0  0  0  0  0  0
  144.3194  136.7443  155.7431 H   0  0  0  0  0  0  0  0  0  0  0  0
  145.4193  134.4627  154.2563 H   0  0  0  0  0  0  0  0  0  0  0  0
  143.8612  134.5935  155.0690 H   0  0  0  0  0  0  0  0  0  0  0  0
  143.1959  134.4752  152.7011 H   0  0  0  0  0  0  0  0  0  0  0  0
  142.3452  136.5272  154.1044 H   0  0  0  0  0  0  0  0  0  0  0  0
  142.5509  137.0163  152.4099 H   0  0  0  0  0  0  0  0  0  0  0  0
  145.7359  135.1023  152.0298 H   0  0  0  0  0  0  0  0  0  0  0  0
  144.1142  134.5985  150.2593 H   0  0  0  0  0  0  0  0  0  0  0  0
  143.3934  136.1936  150.3830 H   0  0  0  0  0  0  0  0  0  0  0  0
  145.3880  135.4948  148.9010 H   0  0  0  0  0  0  0  0  0  0  0  0
  1  2  1  0  0  0  0
  1 20  1  0  0  0  0
  1 21  1  0  0  0  0
  1 22  1  0  0  0  0
  2 19  1  0  0  0  0
  2  3  2  0  0  0  0
  3  4  1  0  0  0  0
  3 23  1  0  0  0  0
  4  5  1  0  0  0  0
  4 18  2  0  0  0  0
  5  6  1  0  0  0  0
  5 24  1  0  0  0  0
  6  7  2  0  0  0  0
  6  8  1  0  0  0  0
  8  9  1  0  0  0  0
  8 25  1  0  0  0  0
  9 15  1  0  0  0  0
  9 10  1  0  0  0  0
  9 26  1  0  0  0  0
 10 14  1  0  0  0  0
 10 11  1  0  0  0  0
 10 27  1  0  0  0  0
 11 12  1  0  0  0  0
 11 28  1  0  0  0  0
 11 29  1  0  0  0  0
 12 13  1  0  0  0  0
 12 30  1  0  0  0  0
 12 31  1  0  0  0  0
 13 14  1  0  0  0  0
 13 15  1  0  0  0  0
 13 32  1  0  0  0  0
 14 33  1  0  0  0  0
 14 34  1  0  0  0  0
 15 16  1  0  0  0  0
 15 35  1  0  0  0  0
 16 17  1  0  0  0  0
 16 36  1  0  0  0  0
 16 37  1  0  0  0  0
 17 38  1  0  0  0  0
 18 19  1  0  0  0  0
M  END
> <s_m_source_file>
AV-unprocessed.smi

> <i_m_source_file_index>
781

> <i_lp_mmshare_version>
43012

> <i_f3d_flags>
0

> <s_epik_input>
W0NIM11jMVtjSF1jKG5vMSlbTkhdQyg9TylbTkhdW0NASF0oW0NAQEhdMjMpW0NASF0oW0NIMl1bT0hdKVtDQEBIXShbQ0gyXTMpW0NIMl1bQ0gyXTI=

> <s_epik_cmdline>
J2VwaWtfcHl0aG9uJywgJy1waCcsICc3LjAnLCAnLXRuJywgJzgnLCAnLW1hJywgJzIwMCcsICctbWV0YWxfYmluZGluZycsICctaW1hZScsICc8aW5maWxlLm1hZT4nLCAnLW9tYWUnLCAnPG91dGZpbGUubWFlPic=

> <r_lp_tautomer_probability>
1

> <r_epik_Ionization_Penalty>
2.32222e-05

> <r_epik_Ionization_Penalty_Charging>
0

> <r_epik_Ionization_Penalty_Neutral>
2.32222e-05

> <r_epik_State_Penalty>
-0

> <r_epik_Charging_Adjusted_Penalty>
0

> <i_epik_Tot_Q>
0

> <i_epik_Tot_abs_Q>
0

> <r_epik_Metal_State_Penalty>
-0

> <b_epik_Metal_Only>
0

> <s_lp_Force_Field>
OPLS_2005

> <r_lp_Energy>
46.3862

> <b_lp_Chiralities_Consistent>
1

> <s_lp_Variant>
AV-unprocessed.smi:781-3

> <Gold.Version>
5.8.1

> <Gold.Id.Protein>
6NUR|6NUR_protein|mol2

> <Gold.PLP.Fitness>
36.5584

> <Gold.PLP.PLP>
-26.8369

> <Gold.PLP.part.hbond>
-6.0057

> <Gold.PLP.part.metal>
0.0000

> <Gold.PLP.part.buried>
-1.2223

> <Gold.PLP.part.nonpolar>
-20.2517

> <Gold.PLP.part.repulsive>
0.4677

> <Gold.PLP.ligand.clash>
0.0000

> <Gold.PLP.ligand.torsion>
0.2841

> <Gold.PLP.Chemscore.Hbond>
3.4240

> <Gold.PLP.Chemscore.CHOScore>
0.0000

> <Gold.PLP.Chemscore.Metal>
0.0000

> <Gold.Chemscore.Hbonds>
donor molecule, donor type, donor heavy atom, donor atom, acceptor molecule, acceptor atom, score
      L1  H     5    24       P1  7948  1.00
      L1  H     8    25       P1  7948  0.94
      L1  H    17    38       P1  7921  1.00
      P1  H  7989  7998       L1    19  0.45

> <Gold.PLP.Chemscore.Internal.Correction>
0.0176

> <Gold.Rescore>
     Score         DG    S(hbond)    S(metal)    S(lipo)     H(rot)  DE(clash)    DE(int)     intcor
     12.47     -16.50       2.96        0.00      50.35       1.86       1.04       2.99       ----

> <Gold.Chemscore.Fitness>
12.4650

> <Gold.Chemscore.DG>
-16.4964

> <Gold.Chemscore.ZeroCoef>
-5.4800

> <Gold.Chemscore.Hbond>
2.9591

> <Gold.Chemscore.Metal>
0.0000

> <Gold.Chemscore.Lipo>
50.3532

> <Gold.Chemscore.Internal_Hbond>
0.0000

> <Gold.Chemscore.DEClash>
1.0427

> <Gold.Chemscore.DEInternal>
2.9887

> <Gold.Chemscore.Rot>
1.8587

> <Gold.Chemscore.Internal.Correction>
   9.000000E+99

> <Gold.Chemscore.Hbonds>
donor molecule, donor type, donor heavy atom, donor atom, acceptor molecule, acceptor atom, score
      L1  H     5    24       P1  7948  0.98
      L1  H     8    25       P1  7948  0.91
      L1  H    17    38       P1  7921  0.97

> <Gold.Chemscore.Hbond.Weighted>
-9.8833

> <Gold.Chemscore.Metal.Weighted>
-0.0000

> <Gold.Chemscore.Lipo.Weighted>
-5.8913

> <Gold.Chemscore.Internal_Hbond.Weighted>
0.0000

> <Gold.Chemscore.DEClash.Weighted>
1.0427

> <Gold.Chemscore.DEInternal.Weighted>
2.9887

> <Gold.Chemscore.Rot.Weighted>
4.7583

> <Gold.Chemscore.Internal.Correction.Weighted>
   9.000000E+99

> <Gold.Protein.RotatedTorsions>
[ 6907 6896 6895 6894 ] final   32.07 input  -60.11 | X-H torsion
[ 7974 7965 7964 7962 ] final  -27.79 input  175.53 | X-H torsion
[ 8008 7997 7996 7995 ] final   27.86 input   59.86 | X-H torsion
[ 10167 10162 10161 10158 ] final -176.55 input  -65.29 | X-H torsion
[ 10718 10713 10712 10709 ] final    4.62 input   66.30 | X-H torsion
[ 10763 10752 10751 10750 ] final   40.61 input  -60.55 | X-H torsion
[ 11005 11000 10999 10996 ] final -116.06 input  -57.11 | X-H torsion

> <Gold.Protein.ActiveResidues>
 VAL166  LYS551  ARG553  GLY616  TRP617  ASP618  TYR619  PRO620  LYS621  CYS622 
 ASP623  PHE694  ASN695  SER759  ASP760  ASP761  ALA762  ILE779  LEU786  VAL792 
 PHE793  MET794  SER795  GLU796  ALA797  LYS798  CYS799  TRP800  GLU811  SER814 

> <Gold.Protein.RotatedAtoms>
  152.0692  134.9544  160.0574 H   0  0  0  0  0  0  0  0  0  0  0  0  # atno 6907 bound_to 6896
  152.0877  133.4180  159.4538 H   0  0  0  0  0  0  0  0  0  0  0  0  # atno 6908 bound_to 6896
  150.6836  134.2828  159.4678 H   0  0  0  0  0  0  0  0  0  0  0  0  # atno 6909 bound_to 6896
  146.1333  140.5198  142.8684 H   0  0  0  0  0  0  0  0  0  0  0  0  # atno 7974 bound_to 7965
  155.0495  140.3178  155.4697 H   0  0  0  0  0  0  0  0  0  0  0  0  # atno 8008 bound_to 7997
  156.2837  140.2148  156.5564 H   0  0  0  0  0  0  0  0  0  0  0  0  # atno 8009 bound_to 7997
  154.7222  140.0488  157.0638 H   0  0  0  0  0  0  0  0  0  0  0  0  # atno 8010 bound_to 7997
  139.5524  144.2075  152.1101 H   0  0  0  0  0  0  0  0  0  0  0  0  # atno 10167 bound_to 10162
  156.8953  130.5702  149.5649 H   0  0  0  0  0  0  0  0  0  0  0  0  # atno 10718 bound_to 10713
  152.9931  135.6186  154.2654 H   0  0  0  0  0  0  0  0  0  0  0  0  # atno 10763 bound_to 10752
  154.2388  135.2789  155.2863 H   0  0  0  0  0  0  0  0  0  0  0  0  # atno 10764 bound_to 10752
  154.5386  135.5767  153.6878 H   0  0  0  0  0  0  0  0  0  0  0  0  # atno 10765 bound_to 10752
  141.0447  133.9781  157.2937 H   0  0  0  0  0  0  0  0  0  0  0  0  # atno 11005 bound_to 11000
  144.7713  140.5644  143.6668 LP  0  0  0  0  0  0  0  0  0  0  0  0  # atno 17320 bound_to 7965
  145.5211  139.1476  143.3551 LP  0  0  0  0  0  0  0  0  0  0  0  0  # atno 17321 bound_to 7965
  140.1573  144.5059  150.6653 LP  0  0  0  0  0  0  0  0  0  0  0  0  # atno 17342 bound_to 10162
  140.6790  143.2318  151.5434 LP  0  0  0  0  0  0  0  0  0  0  0  0  # atno 17343 bound_to 10162
  156.0609  130.5661  150.9190 LP  0  0  0  0  0  0  0  0  0  0  0  0  # atno 17370 bound_to 10713
  157.6059  131.0939  150.8880 LP  0  0  0  0  0  0  0  0  0  0  0  0  # atno 17371 bound_to 10713
  139.9302  135.0200  156.8376 LP  0  0  0  0  0  0  0  0  0  0  0  0  # atno 17394 bound_to 11000
  140.6169  134.0030  155.7601 LP  0  0  0  0  0  0  0  0  0  0  0  0  # atno 17395 bound_to 11000

$$$$
