AV-unprocessed.smi:3262|AV-procd|sdf|12485|dock3
  -GOLD-   2272018383D 1   1.00000     0.00000
 Structure written by MMmdl.
 40 41  0  0  0  0  0  0  0  0  2 V2000
  152.8587  140.3913  158.3544 O   0  0  0  0  0  0  0  0  0  0  0  0
  152.2070  141.4198  158.1630 C   0  0  0  0  0  0  0  0  0  0  0  0
  151.1092  141.4276  157.3855 N   0  0  0  0  0  0  0  0  0  0  0  0
  150.5439  140.2623  156.7148 C   0  0  0  0  0  0  0  0  0  0  0  0
  150.5205  140.4485  155.1851 C   0  0  0  0  0  0  0  0  0  0  0  0
  149.1605  140.7851  154.5875 C   0  0  0  0  0  0  0  0  0  0  0  0
  148.3839  139.8857  153.8182 C   0  0  0  0  0  0  0  0  0  0  0  0
  147.1338  140.3050  153.3167 C   0  0  0  0  0  0  0  0  0  0  0  0
  146.6810  141.6114  153.5912 C   0  0  0  0  0  0  0  0  0  0  0  0
  147.4920  142.4676  154.3623 C   0  0  0  0  0  0  0  0  0  0  0  0
  148.6834  142.0291  154.8247 N   0  3  0  0  0  0  0  0  0  0  0  0
  152.5633  142.6320  158.6660 N   0  0  0  0  0  0  0  0  0  0  0  0
  152.0001  143.9190  158.2025 C   0  0  0  0  0  0  0  0  0  0  0  0
  151.8135  144.9890  159.2998 C   0  0  0  0  0  0  0  0  0  0  0  0
  151.1759  144.4710  160.6023 C   0  0  0  0  0  0  0  0  0  0  0  0
  152.2042  143.8967  161.5914 C   0  0  0  0  0  0  0  0  0  0  0  0
  152.8831  142.5971  161.1316 C   0  0  0  0  0  0  0  0  0  0  0  0
  153.5544  142.7067  159.7507 C   0  0  0  0  0  0  0  0  0  0  0  0
  150.6351  142.3088  157.2495 H   0  0  0  0  0  0  0  0  0  0  0  0
  151.1551  139.3986  156.9785 H   0  0  0  0  0  0  0  0  0  0  0  0
  149.5405  140.0699  157.0988 H   0  0  0  0  0  0  0  0  0  0  0  0
  151.2120  141.2431  154.9019 H   0  0  0  0  0  0  0  0  0  0  0  0
  150.8850  139.5386  154.7061 H   0  0  0  0  0  0  0  0  0  0  0  0
  148.7254  138.8837  153.6066 H   0  0  0  0  0  0  0  0  0  0  0  0
  146.5285  139.6310  152.7283 H   0  0  0  0  0  0  0  0  0  0  0  0
  145.7262  141.9508  153.2167 H   0  0  0  0  0  0  0  0  0  0  0  0
  147.2262  143.4818  154.6218 H   0  0  0  0  0  0  0  0  0  0  0  0
  152.6326  144.3135  157.4064 H   0  0  0  0  0  0  0  0  0  0  0  0
  151.0126  143.7738  157.7624 H   0  0  0  0  0  0  0  0  0  0  0  0
  152.7618  145.4806  159.5201 H   0  0  0  0  0  0  0  0  0  0  0  0
  151.1784  145.7755  158.8901 H   0  0  0  0  0  0  0  0  0  0  0  0
  150.6769  145.3074  161.0929 H   0  0  0  0  0  0  0  0  0  0  0  0
  150.3942  143.7415  160.3868 H   0  0  0  0  0  0  0  0  0  0  0  0
  152.9664  144.6497  161.7951 H   0  0  0  0  0  0  0  0  0  0  0  0
  151.7107  143.7110  162.5460 H   0  0  0  0  0  0  0  0  0  0  0  0
  153.6399  142.3293  161.8694 H   0  0  0  0  0  0  0  0  0  0  0  0
  152.1619  141.7787  161.1375 H   0  0  0  0  0  0  0  0  0  0  0  0
  154.2881  141.9056  159.6442 H   0  0  0  0  0  0  0  0  0  0  0  0
  154.1431  143.6216  159.6772 H   0  0  0  0  0  0  0  0  0  0  0  0
  149.2515  142.6676  155.3821 H   0  0  0  0  0  0  0  0  0  0  0  0
  1  2  2  0  0  0  0
  2  3  1  0  0  0  0
  2 12  1  0  0  0  0
  3  4  1  0  0  0  0
  3 19  1  0  0  0  0
  4  5  1  0  0  0  0
  4 20  1  0  0  0  0
  4 21  1  0  0  0  0
  5  6  1  0  0  0  0
  5 22  1  0  0  0  0
  5 23  1  0  0  0  0
  6 11  1  0  0  0  0
  6  7  2  0  0  0  0
  7  8  1  0  0  0  0
  7 24  1  0  0  0  0
  8  9  2  0  0  0  0
  8 25  1  0  0  0  0
  9 10  1  0  0  0  0
  9 26  1  0  0  0  0
 10 11  2  0  0  0  0
 10 27  1  0  0  0  0
 11 40  1  0  0  0  0
 12 18  1  0  0  0  0
 12 13  1  0  0  0  0
 13 14  1  0  0  0  0
 13 28  1  0  0  0  0
 13 29  1  0  0  0  0
 14 15  1  0  0  0  0
 14 30  1  0  0  0  0
 14 31  1  0  0  0  0
 15 16  1  0  0  0  0
 15 32  1  0  0  0  0
 15 33  1  0  0  0  0
 16 17  1  0  0  0  0
 16 34  1  0  0  0  0
 16 35  1  0  0  0  0
 17 18  1  0  0  0  0
 17 36  1  0  0  0  0
 17 37  1  0  0  0  0
 18 38  1  0  0  0  0
 18 39  1  0  0  0  0
M  CHG  1  11   1
M  END
> <s_m_source_file>
AV-unprocessed.smi

> <i_m_source_file_index>
3262

> <i_lp_mmshare_version>
43012

> <i_f3d_flags>
0

> <s_epik_input>
W0NIMl0xW0NIMl1bQ0gyXVtDSDJdW0NIMl1bQ0gyXU4xQyg9TylbTkhdW0NIMl1bQ0gyXWMyW2NIXVtjSF1bY0hdW2NIXW4y

> <s_epik_cmdline>
J2VwaWtfcHl0aG9uJywgJy1waCcsICc3LjAnLCAnLXRuJywgJzgnLCAnLW1hJywgJzIwMCcsICctbWV0YWxfYmluZGluZycsICctaW1hZScsICc8aW5maWxlLm1hZT4nLCAnLW9tYWUnLCAnPG91dGZpbGUubWFlPic=

> <r_epik_Ionization_Penalty>
1.55113

> <r_epik_Ionization_Penalty_Charging>
1.55107

> <r_epik_Ionization_Penalty_Neutral>
5.98909e-05

> <r_epik_State_Penalty>
1.64529

> <r_epik_Charging_Adjusted_Penalty>
3.19637

> <i_epik_Tot_Q>
1

> <i_epik_Tot_abs_Q>
1

> <r_epik_Metal_State_Penalty>
1.68744

> <b_epik_Metal_Only>
0

> <s_lp_Force_Field>
OPLS_2005

> <r_lp_Energy>
39.791

> <b_lp_Chiralities_Consistent>
1

> <s_lp_Variant>
AV-unprocessed.smi:3262-2

> <Gold.Version>
5.8.1

> <Gold.Id.Protein>
6NUR|6NUR_protein|mol2

> <Gold.PLP.Fitness>
47.5155

> <Gold.PLP.PLP>
-44.2172

> <Gold.PLP.part.hbond>
-1.8427

> <Gold.PLP.part.metal>
0.0000

> <Gold.PLP.part.buried>
-0.0636

> <Gold.PLP.part.nonpolar>
-42.0544

> <Gold.PLP.part.repulsive>
0.2585

> <Gold.PLP.ligand.clash>
0.0000

> <Gold.PLP.ligand.torsion>
0.5282

> <Gold.PLP.Chemscore.Hbond>
1.4490

> <Gold.PLP.Chemscore.CHOScore>
0.0000

> <Gold.PLP.Chemscore.Metal>
0.0000

> <Gold.Chemscore.Hbonds>
donor molecule, donor type, donor heavy atom, donor atom, acceptor molecule, acceptor atom, score
      L1  H    11    40       P1  8028  0.85
      P1  H  7997  8010       L1     1  0.50

> <Gold.PLP.Chemscore.Internal.Correction>
0.0079

> <Gold.Rescore>
     Score         DG    S(hbond)    S(metal)    S(lipo)     H(rot)  DE(clash)    DE(int)     intcor
     18.41     -19.40       1.10        0.00     116.94       1.34       0.46       0.52       ----

> <Gold.Chemscore.Fitness>
18.4127

> <Gold.Chemscore.DG>
-19.4018

> <Gold.Chemscore.ZeroCoef>
-5.4800

> <Gold.Chemscore.Hbond>
1.1001

> <Gold.Chemscore.Metal>
0.0000

> <Gold.Chemscore.Lipo>
116.9362

> <Gold.Chemscore.Internal_Hbond>
0.0000

> <Gold.Chemscore.DEClash>
0.4642

> <Gold.Chemscore.DEInternal>
0.5250

> <Gold.Chemscore.Rot>
1.3415

> <Gold.Chemscore.Internal.Correction>
   9.000000E+99

> <Gold.Chemscore.Hbonds>
donor molecule, donor type, donor heavy atom, donor atom, acceptor molecule, acceptor atom, score
      L1  H    11    40       P1  8028  0.41
      P1  H  7997  8010       L1     1  0.45

> <Gold.Chemscore.Hbond.Weighted>
-3.6745

> <Gold.Chemscore.Metal.Weighted>
-0.0000

> <Gold.Chemscore.Lipo.Weighted>
-13.6815

> <Gold.Chemscore.Internal_Hbond.Weighted>
0.0000

> <Gold.Chemscore.DEClash.Weighted>
0.4642

> <Gold.Chemscore.DEInternal.Weighted>
0.5250

> <Gold.Chemscore.Rot.Weighted>
3.4342

> <Gold.Chemscore.Internal.Correction.Weighted>
   9.000000E+99

> <Gold.Protein.RotatedTorsions>
[ 6907 6896 6895 6894 ] final  159.36 input  -60.11 | X-H torsion
[ 7974 7965 7964 7962 ] final  -35.16 input  175.53 | X-H torsion
[ 8008 7997 7996 7995 ] final   36.33 input   59.86 | X-H torsion
[ 10167 10162 10161 10158 ] final  101.21 input  -65.29 | X-H torsion
[ 10718 10713 10712 10709 ] final  132.54 input   66.30 | X-H torsion
[ 10763 10752 10751 10750 ] final  -79.25 input  -60.55 | X-H torsion
[ 11005 11000 10999 10996 ] final  139.92 input  -57.11 | X-H torsion

> <Gold.Protein.ActiveResidues>
 VAL166  LYS551  ARG553  GLY616  TRP617  ASP618  TYR619  PRO620  LYS621  CYS622 
 ASP623  PHE694  ASN695  SER759  ASP760  ASP761  ALA762  ILE779  LEU786  VAL792 
 PHE793  MET794  SER795  GLU796  ALA797  LYS798  CYS799  TRP800  GLU811  SER814 

> <Gold.Protein.RotatedAtoms>
  151.9867  133.3776  159.4128 H   0  0  0  0  0  0  0  0  0  0  0  0  # atno 6907 bound_to 6896
  150.6927  134.3981  159.5116 H   0  0  0  0  0  0  0  0  0  0  0  0  # atno 6908 bound_to 6896
  152.1708  134.8835  160.0585 H   0  0  0  0  0  0  0  0  0  0  0  0  # atno 6909 bound_to 6896
  146.0769  140.6126  142.8926 H   0  0  0  0  0  0  0  0  0  0  0  0  # atno 7974 bound_to 7965
  155.1857  140.3303  155.4367 H   0  0  0  0  0  0  0  0  0  0  0  0  # atno 8008 bound_to 7997
  156.2461  140.1919  156.6903 H   0  0  0  0  0  0  0  0  0  0  0  0  # atno 8009 bound_to 7997
  154.6241  140.0591  156.9637 H   0  0  0  0  0  0  0  0  0  0  0  0  # atno 8010 bound_to 7997
  139.7458  144.6998  151.0506 H   0  0  0  0  0  0  0  0  0  0  0  0  # atno 10167 bound_to 10162
  157.4861  131.1088  150.9618 H   0  0  0  0  0  0  0  0  0  0  0  0  # atno 10718 bound_to 10713
  154.5362  135.5702  153.6801 H   0  0  0  0  0  0  0  0  0  0  0  0  # atno 10763 bound_to 10752
  152.9952  135.6217  154.2562 H   0  0  0  0  0  0  0  0  0  0  0  0  # atno 10764 bound_to 10752
  154.2491  135.2859  155.2803 H   0  0  0  0  0  0  0  0  0  0  0  0  # atno 10765 bound_to 10752
  140.0290  134.9361  157.0624 H   0  0  0  0  0  0  0  0  0  0  0  0  # atno 11005 bound_to 11000
  144.7267  140.4548  143.6967 LP  0  0  0  0  0  0  0  0  0  0  0  0  # atno 17320 bound_to 7965
  145.6289  139.1534  143.2980 LP  0  0  0  0  0  0  0  0  0  0  0  0  # atno 17321 bound_to 7965
  140.7792  143.4869  150.9945 LP  0  0  0  0  0  0  0  0  0  0  0  0  # atno 17342 bound_to 10162
  139.8557  143.7380  152.3176 LP  0  0  0  0  0  0  0  0  0  0  0  0  # atno 17343 bound_to 10162
  157.0335  130.5720  149.5346 LP  0  0  0  0  0  0  0  0  0  0  0  0  # atno 17370 bound_to 10713
  156.0148  130.5241  150.8100 LP  0  0  0  0  0  0  0  0  0  0  0  0  # atno 17371 bound_to 10713
  140.4258  134.1832  155.7166 LP  0  0  0  0  0  0  0  0  0  0  0  0  # atno 17394 bound_to 11000
  141.1819  133.8395  157.1225 LP  0  0  0  0  0  0  0  0  0  0  0  0  # atno 17395 bound_to 11000

$$$$
