AV-unprocessed.smi:2198|AV-procd|sdf|8911|dock9
  -GOLD-   2272012133D 1   1.00000     0.00000
 Structure written by MMmdl.
 43 44  0  0  0  0  0  0  0  0  1 V2000
  150.4624  129.3495  154.7962 C   0  0  0  0  0  0  0  0  0  0  0  0
  150.0971  130.8094  154.9617 C   0  0  0  0  0  0  0  0  0  0  0  0
  149.2557  131.4330  154.2043 N   0  0  0  0  0  0  0  0  0  0  0  0
  148.9963  132.7872  154.4575 C   0  0  0  0  0  0  0  0  0  0  0  0
  147.9948  133.4492  153.5267 C   0  0  0  0  0  0  0  0  0  0  0  0
  149.6098  133.4549  155.4783 C   0  0  0  0  0  0  0  0  0  0  0  0
  149.3434  134.9285  155.7820 C   0  0  0  0  0  0  0  0  0  0  0  0
  150.4326  135.9088  155.3398 C   0  0  0  0  0  0  0  0  0  0  0  0
  151.6139  135.6930  155.6112 O   0  0  0  0  0  0  0  0  0  0  0  0
  150.0165  136.9870  154.6587 N   0  0  0  0  0  0  0  0  0  0  0  0
  150.8747  138.0567  154.1520 C   0  0  2  0  0  0  0  0  0  0  0  0
  151.9267  138.4409  155.2099 C   0  0  0  0  0  0  0  0  0  0  0  0
  151.3038  139.1830  156.4049 C   0  0  0  0  0  0  0  0  0  0  0  0
  150.5060  140.4127  155.9440 C   0  0  0  0  0  0  0  0  0  0  0  0
  149.4218  140.0324  154.9177 C   0  0  1  0  0  0  0  0  0  0  0  0
  148.6292  141.2645  154.4587 C   0  0  0  0  0  0  0  0  0  0  0  0
  150.0492  139.2886  153.7202 C   0  0  0  0  0  0  0  0  0  0  0  0
  150.5696  132.7334  156.3362 C   0  0  0  0  0  0  0  0  0  0  0  0
  151.1742  133.2349  157.2827 O   0  0  0  0  0  0  0  0  0  0  0  0
  150.7580  131.4329  156.0186 N   0  0  0  0  0  0  0  0  0  0  0  0
  151.4045  130.8954  156.5775 H   0  0  0  0  0  0  0  0  0  0  0  0
  149.5781  128.7247  154.9218 H   0  0  0  0  0  0  0  0  0  0  0  0
  151.2084  129.0354  155.5275 H   0  0  0  0  0  0  0  0  0  0  0  0
  150.8677  129.1744  153.7995 H   0  0  0  0  0  0  0  0  0  0  0  0
  148.4711  134.2474  152.9574 H   0  0  0  0  0  0  0  0  0  0  0  0
  147.1647  133.8730  154.0919 H   0  0  0  0  0  0  0  0  0  0  0  0
  147.5816  132.7328  152.8155 H   0  0  0  0  0  0  0  0  0  0  0  0
  148.4005  135.2479  155.3372 H   0  0  0  0  0  0  0  0  0  0  0  0
  149.1920  135.0347  156.8567 H   0  0  0  0  0  0  0  0  0  0  0  0
  149.0270  137.0783  154.4802 H   0  0  0  0  0  0  0  0  0  0  0  0
  151.4088  137.6746  153.2801 H   0  0  0  0  0  0  0  0  0  0  0  0
  152.4575  137.5530  155.5556 H   0  0  0  0  0  0  0  0  0  0  0  0
  152.6783  139.0823  154.7481 H   0  0  0  0  0  0  0  0  0  0  0  0
  150.6497  138.5093  156.9597 H   0  0  0  0  0  0  0  0  0  0  0  0
  152.0869  139.4892  157.0992 H   0  0  0  0  0  0  0  0  0  0  0  0
  150.0491  140.8955  156.8085 H   0  0  0  0  0  0  0  0  0  0  0  0
  151.1875  141.1440  155.5070 H   0  0  0  0  0  0  0  0  0  0  0  0
  148.7173  139.3576  155.4061 H   0  0  0  0  0  0  0  0  0  0  0  0
  149.2743  141.9882  153.9597 H   0  0  0  0  0  0  0  0  0  0  0  0
  148.1585  141.7662  155.3047 H   0  0  0  0  0  0  0  0  0  0  0  0
  147.8394  140.9853  153.7608 H   0  0  0  0  0  0  0  0  0  0  0  0
  150.7003  139.9739  153.1759 H   0  0  0  0  0  0  0  0  0  0  0  0
  149.2723  138.9921  153.0143 H   0  0  0  0  0  0  0  0  0  0  0  0
  1  2  1  0  0  0  0
  1 22  1  0  0  0  0
  1 23  1  0  0  0  0
  1 24  1  0  0  0  0
  2 20  1  0  0  0  0
  2  3  2  0  0  0  0
  3  4  1  0  0  0  0
  4  5  1  0  0  0  0
  4  6  2  0  0  0  0
  5 25  1  0  0  0  0
  5 26  1  0  0  0  0
  5 27  1  0  0  0  0
  6  7  1  0  0  0  0
  6 18  1  0  0  0  0
  7  8  1  0  0  0  0
  7 28  1  0  0  0  0
  7 29  1  0  0  0  0
  8  9  2  0  0  0  0
  8 10  1  0  0  0  0
 10 11  1  0  0  0  0
 10 30  1  0  0  0  0
 11 17  1  0  0  0  0
 11 12  1  0  0  0  0
 11 31  1  0  0  0  0
 12 13  1  0  0  0  0
 12 32  1  0  0  0  0
 12 33  1  0  0  0  0
 13 14  1  0  0  0  0
 13 34  1  0  0  0  0
 13 35  1  0  0  0  0
 14 15  1  0  0  0  0
 14 36  1  0  0  0  0
 14 37  1  0  0  0  0
 15 16  1  0  0  0  0
 15 17  1  0  0  0  0
 15 38  1  0  0  0  0
 16 39  1  0  0  0  0
 16 40  1  0  0  0  0
 16 41  1  0  0  0  0
 17 42  1  0  0  0  0
 17 43  1  0  0  0  0
 18 19  2  0  0  0  0
 18 20  1  0  0  0  0
 20 21  1  0  0  0  0
M  END
> <s_m_source_file>
AV-unprocessed.smi

> <i_m_source_file_index>
2198

> <i_lp_mmshare_version>
43012

> <i_f3d_flags>
0

> <s_epik_input>
W0NIM11jMW5jKFtDSDNdKWMoYyg9TylbbkhdMSlbQ0gyXUMoPU8pW05IXVtDQEBIXTJbQ0gyXVtDSDJdW0NIMl1bQ0BASF0oW0NIM10pW0NIMl0y

> <s_epik_cmdline>
J2VwaWtfcHl0aG9uJywgJy1waCcsICc3LjAnLCAnLXRuJywgJzgnLCAnLW1hJywgJzIwMCcsICctbWV0YWxfYmluZGluZycsICctaW1hZScsICc8aW5maWxlLm1hZT4nLCAnLW9tYWUnLCAnPG91dGZpbGUubWFlPic=

> <r_lp_tautomer_probability>
0.839158

> <r_epik_Ionization_Penalty>
0.000372587

> <r_epik_Ionization_Penalty_Charging>
0.000337977

> <r_epik_Ionization_Penalty_Neutral>
3.46101e-05

> <r_epik_State_Penalty>
0.09125

> <r_epik_Charging_Adjusted_Penalty>
0.091588

> <i_epik_Tot_Q>
0

> <i_epik_Tot_abs_Q>
0

> <r_epik_Metal_State_Penalty>
0.25197

> <b_epik_Metal_Only>
0

> <s_lp_Force_Field>
OPLS_2005

> <r_lp_Energy>
10.2455

> <b_lp_Chiralities_Consistent>
1

> <s_lp_Variant>
AV-unprocessed.smi:2198-1

> <Gold.Version>
5.8.1

> <Gold.Id.Protein>
6NUR|6NUR_protein|mol2

> <Gold.PLP.Fitness>
37.4382

> <Gold.PLP.PLP>
-33.0890

> <Gold.PLP.part.hbond>
-2.9814

> <Gold.PLP.part.metal>
0.0000

> <Gold.PLP.part.buried>
-0.1161

> <Gold.PLP.part.nonpolar>
-30.4559

> <Gold.PLP.part.repulsive>
0.1746

> <Gold.PLP.ligand.clash>
0.0000

> <Gold.PLP.ligand.torsion>
0.5298

> <Gold.PLP.Chemscore.Hbond>
1.8000

> <Gold.PLP.Chemscore.CHOScore>
0.0000

> <Gold.PLP.Chemscore.Metal>
0.0000

> <Gold.Chemscore.Hbonds>
donor molecule, donor type, donor heavy atom, donor atom, acceptor molecule, acceptor atom, score
      P1  H  6896  6908       L1    19  0.78
      P1  H 10752 10765       L1     9  1.00

> <Gold.PLP.Chemscore.Internal.Correction>
0.0087

> <Gold.Rescore>
     Score         DG    S(hbond)    S(metal)    S(lipo)     H(rot)  DE(clash)    DE(int)     intcor
     14.07     -16.16       1.93        0.00      68.70       1.48       0.02       2.07       ----

> <Gold.Chemscore.Fitness>
14.0673

> <Gold.Chemscore.DG>
-16.1606

> <Gold.Chemscore.ZeroCoef>
-5.4800

> <Gold.Chemscore.Hbond>
1.9259

> <Gold.Chemscore.Metal>
0.0000

> <Gold.Chemscore.Lipo>
68.6951

> <Gold.Chemscore.Internal_Hbond>
0.0000

> <Gold.Chemscore.DEClash>
0.0202

> <Gold.Chemscore.DEInternal>
2.0730

> <Gold.Chemscore.Rot>
1.4801

> <Gold.Chemscore.Internal.Correction>
   9.000000E+99

> <Gold.Chemscore.Hbonds>
donor molecule, donor type, donor heavy atom, donor atom, acceptor molecule, acceptor atom, score
      P1  H  6896  6908       L1    19  0.77
      P1  H 10752 10765       L1     9  0.99

> <Gold.Chemscore.Hbond.Weighted>
-6.4324

> <Gold.Chemscore.Metal.Weighted>
-0.0000

> <Gold.Chemscore.Lipo.Weighted>
-8.0373

> <Gold.Chemscore.Internal_Hbond.Weighted>
0.0000

> <Gold.Chemscore.DEClash.Weighted>
0.0202

> <Gold.Chemscore.DEInternal.Weighted>
2.0730

> <Gold.Chemscore.Rot.Weighted>
3.7891

> <Gold.Chemscore.Internal.Correction.Weighted>
   9.000000E+99

> <Gold.Protein.RotatedTorsions>
[ 6907 6896 6895 6894 ] final   80.07 input  -60.11 | X-H torsion
[ 7974 7965 7964 7962 ] final -172.81 input  175.53 | X-H torsion
[ 8008 7997 7996 7995 ] final  109.80 input   59.86 | X-H torsion
[ 10167 10162 10161 10158 ] final  -91.87 input  -65.29 | X-H torsion
[ 10718 10713 10712 10709 ] final  160.48 input   66.30 | X-H torsion
[ 10763 10752 10751 10750 ] final -168.87 input  -60.55 | X-H torsion
[ 11005 11000 10999 10996 ] final  130.12 input  -57.11 | X-H torsion

> <Gold.Protein.ActiveResidues>
 VAL166  LYS551  ARG553  GLY616  TRP617  ASP618  TYR619  PRO620  LYS621  CYS622 
 ASP623  PHE694  ASN695  SER759  ASP760  ASP761  ALA762  ILE779  LEU786  VAL792 
 PHE793  MET794  SER795  GLU796  ALA797  LYS798  CYS799  TRP800  GLU811  SER814 

> <Gold.Protein.RotatedAtoms>
  152.5222  134.3414  159.9218 H   0  0  0  0  0  0  0  0  0  0  0  0  # atno 6907 bound_to 6896
  151.3363  133.3974  159.2675 H   0  0  0  0  0  0  0  0  0  0  0  0  # atno 6908 bound_to 6896
  150.9839  134.9206  159.7918 H   0  0  0  0  0  0  0  0  0  0  0  0  # atno 6909 bound_to 6896
  144.7143  140.1716  143.6367 H   0  0  0  0  0  0  0  0  0  0  0  0  # atno 7974 bound_to 7965
  156.2006  140.3051  155.9518 H   0  0  0  0  0  0  0  0  0  0  0  0  # atno 8008 bound_to 7997
  155.2963  140.0444  157.3043 H   0  0  0  0  0  0  0  0  0  0  0  0  # atno 8009 bound_to 7997
  154.5566  140.2307  155.8410 H   0  0  0  0  0  0  0  0  0  0  0  0  # atno 8010 bound_to 7997
  140.3405  143.2944  151.9840 H   0  0  0  0  0  0  0  0  0  0  0  0  # atno 10167 bound_to 10162
  157.1498  131.0561  151.2286 H   0  0  0  0  0  0  0  0  0  0  0  0  # atno 10718 bound_to 10713
  154.6583  135.2921  154.9899 H   0  0  0  0  0  0  0  0  0  0  0  0  # atno 10763 bound_to 10752
  154.0967  135.6582  153.4865 H   0  0  0  0  0  0  0  0  0  0  0  0  # atno 10764 bound_to 10752
  153.0415  135.5233  154.7523 H   0  0  0  0  0  0  0  0  0  0  0  0  # atno 10765 bound_to 10752
  139.9654  134.9592  156.9248 H   0  0  0  0  0  0  0  0  0  0  0  0  # atno 11005 bound_to 11000
  145.8938  139.2391  143.1533 LP  0  0  0  0  0  0  0  0  0  0  0  0  # atno 17320 bound_to 7965
  145.9877  140.8629  143.0082 LP  0  0  0  0  0  0  0  0  0  0  0  0  # atno 17321 bound_to 7965
  139.4841  144.6160  151.7345 LP  0  0  0  0  0  0  0  0  0  0  0  0  # atno 17342 bound_to 10162
  140.5313  144.0726  150.6054 LP  0  0  0  0  0  0  0  0  0  0  0  0  # atno 17343 bound_to 10162
  157.4231  130.7448  149.6929 LP  0  0  0  0  0  0  0  0  0  0  0  0  # atno 17370 bound_to 10713
  155.9772  130.4065  150.3724 LP  0  0  0  0  0  0  0  0  0  0  0  0  # atno 17371 bound_to 10713
  140.5408  134.0722  155.7341 LP  0  0  0  0  0  0  0  0  0  0  0  0  # atno 17394 bound_to 11000
  141.1333  133.9264  157.2488 LP  0  0  0  0  0  0  0  0  0  0  0  0  # atno 17395 bound_to 11000

$$$$
