AV-unprocessed.smi:148|AV-procd|sdf|1219|dock2
  -GOLD-   2262018403D 1   1.00000     0.00000
 Structure written by MMmdl.
 63 67  0  0  0  0  0  0  0  0  1 V2000
  147.4913  129.8818  152.3240 O   0  0  0  0  0  0  0  0  0  0  0  0
  146.3455  130.4332  152.9423 C   0  0  0  0  0  0  0  0  0  0  0  0
  146.2284  131.9651  152.7150 C   0  0  1  0  0  0  0  0  0  0  0  0
  147.3230  132.8273  153.4200 C   0  0  0  0  0  0  0  0  0  0  0  0
  147.1240  133.0673  154.8397 N   0  0  0  0  0  0  0  0  0  0  0  0
  145.9349  132.9842  155.5285 C   0  0  0  0  0  0  0  0  0  0  0  0
  146.0097  133.2625  156.8014 N   0  0  0  0  0  0  0  0  0  0  0  0
  147.3535  133.5531  157.0056 C   0  0  0  0  0  0  0  0  0  0  0  0
  148.1272  133.9523  158.1322 C   0  0  0  0  0  0  0  0  0  0  0  0
  147.6324  134.1704  159.3717 N   0  0  0  0  0  0  0  0  0  0  0  0
  147.7393  135.5887  159.7113 C   0  0  0  0  0  0  0  0  0  0  0  0
  146.9635  135.9153  160.9932 C   0  0  0  0  0  0  0  0  0  0  0  0
  147.4370  135.0193  162.1419 C   0  0  0  0  0  0  0  0  0  0  0  0
  147.2992  133.5427  161.7472 C   0  0  0  0  0  0  0  0  0  0  0  0
  148.0472  133.2247  160.4252 C   0  0  1  0  0  0  0  0  0  0  0  0
  147.9186  131.7311  159.9855 C   0  0  2  0  0  0  0  0  0  0  0  0
  146.4876  131.2198  159.7246 C   0  0  0  0  0  0  0  0  0  0  0  0
  146.4901  129.7231  160.0762 C   0  0  0  0  0  0  0  0  0  0  0  0
  147.9352  129.3715  160.4412 C   0  0  0  0  0  0  0  0  0  0  0  0
  148.5307  130.6896  160.9339 C   0  0  1  0  0  0  0  0  0  0  0  0
  149.9418  130.6726  160.8676 O   0  0  0  0  0  0  0  0  0  0  0  0
  149.4592  134.1347  157.9580 N   0  0  0  0  0  0  0  0  0  0  0  0
  150.0044  133.9615  156.7502 C   0  0  0  0  0  0  0  0  0  0  0  0
  149.4093  133.6135  155.6070 N   0  0  0  0  0  0  0  0  0  0  0  0
  148.0713  133.4163  155.7850 C   0  0  0  0  0  0  0  0  0  0  0  0
  146.0699  132.3666  151.2175 C   0  0  1  0  0  0  0  0  0  0  0  0
  144.9162  131.7054  150.4725 C   0  0  0  0  0  0  0  0  0  0  0  0
  143.7137  132.5636  150.8548 C   0  0  0  0  0  0  0  0  0  0  0  0
  144.2384  133.8565  151.1369 O   0  0  0  0  0  0  0  0  0  0  0  0
  145.6580  133.8343  151.0336 C   0  0  0  0  0  0  0  0  0  0  0  0
  147.7514  130.4480  151.6132 H   0  0  0  0  0  0  0  0  0  0  0  0
  145.4671  129.9206  152.5523 H   0  0  0  0  0  0  0  0  0  0  0  0
  146.3598  130.1943  154.0053 H   0  0  0  0  0  0  0  0  0  0  0  0
  145.2935  132.2405  153.2053 H   0  0  0  0  0  0  0  0  0  0  0  0
  148.3101  132.3787  153.3072 H   0  0  0  0  0  0  0  0  0  0  0  0
  147.3899  133.7977  152.9264 H   0  0  0  0  0  0  0  0  0  0  0  0
  145.0022  132.7249  155.0487 H   0  0  0  0  0  0  0  0  0  0  0  0
  148.7906  135.8513  159.8396 H   0  0  0  0  0  0  0  0  0  0  0  0
  147.3578  136.1993  158.8911 H   0  0  0  0  0  0  0  0  0  0  0  0
  147.0970  136.9653  161.2546 H   0  0  0  0  0  0  0  0  0  0  0  0
  145.8957  135.7678  160.8251 H   0  0  0  0  0  0  0  0  0  0  0  0
  148.4776  135.2424  162.3808 H   0  0  0  0  0  0  0  0  0  0  0  0
  146.8572  135.2238  163.0423 H   0  0  0  0  0  0  0  0  0  0  0  0
  147.6831  132.9363  162.5659 H   0  0  0  0  0  0  0  0  0  0  0  0
  146.2398  133.3055  161.6569 H   0  0  0  0  0  0  0  0  0  0  0  0
  149.1035  133.4119  160.6190 H   0  0  0  0  0  0  0  0  0  0  0  0
  148.4574  131.6019  159.0456 H   0  0  0  0  0  0  0  0  0  0  0  0
  145.7459  131.7352  160.3326 H   0  0  0  0  0  0  0  0  0  0  0  0
  146.2060  131.3805  158.6835 H   0  0  0  0  0  0  0  0  0  0  0  0
  145.8394  129.5487  160.9343 H   0  0  0  0  0  0  0  0  0  0  0  0
  146.1200  129.1073  159.2559 H   0  0  0  0  0  0  0  0  0  0  0  0
  148.0004  128.5755  161.1838 H   0  0  0  0  0  0  0  0  0  0  0  0
  148.4607  129.0338  159.5462 H   0  0  0  0  0  0  0  0  0  0  0  0
  148.2167  130.8493  161.9643 H   0  0  0  0  0  0  0  0  0  0  0  0
  150.2147  129.8506  160.4894 H   0  0  0  0  0  0  0  0  0  0  0  0
  151.0690  134.1314  156.6899 H   0  0  0  0  0  0  0  0  0  0  0  0
  147.0104  132.1661  150.7023 H   0  0  0  0  0  0  0  0  0  0  0  0
  145.0901  131.7945  149.3990 H   0  0  0  0  0  0  0  0  0  0  0  0
  144.7719  130.6462  150.6770 H   0  0  0  0  0  0  0  0  0  0  0  0
  142.9669  132.6017  150.0616 H   0  0  0  0  0  0  0  0  0  0  0  0
  143.2345  132.1765  151.7546 H   0  0  0  0  0  0  0  0  0  0  0  0
  146.1108  134.5213  151.7477 H   0  0  0  0  0  0  0  0  0  0  0  0
  145.9321  134.1758  150.0344 H   0  0  0  0  0  0  0  0  0  0  0  0
  1  2  1  0  0  0  0
  1 31  1  0  0  0  0
  2  3  1  0  0  0  0
  2 32  1  0  0  0  0
  2 33  1  0  0  0  0
  3  4  1  0  0  0  0
  3 26  1  0  0  0  0
  3 34  1  0  0  0  0
  4  5  1  0  0  0  0
  4 35  1  0  0  0  0
  4 36  1  0  0  0  0
  5 25  1  0  0  0  0
  5  6  1  0  0  0  0
  6  7  2  0  0  0  0
  6 37  1  0  0  0  0
  7  8  1  0  0  0  0
  8 25  2  0  0  0  0
  8  9  1  0  0  0  0
  9 10  1  0  0  0  0
  9 22  2  0  0  0  0
 10 15  1  0  0  0  0
 10 11  1  0  0  0  0
 11 12  1  0  0  0  0
 11 38  1  0  0  0  0
 11 39  1  0  0  0  0
 12 13  1  0  0  0  0
 12 40  1  0  0  0  0
 12 41  1  0  0  0  0
 13 14  1  0  0  0  0
 13 42  1  0  0  0  0
 13 43  1  0  0  0  0
 14 15  1  0  0  0  0
 14 44  1  0  0  0  0
 14 45  1  0  0  0  0
 15 16  1  0  0  0  0
 15 46  1  0  0  0  0
 16 20  1  0  0  0  0
 16 17  1  0  0  0  0
 16 47  1  0  0  0  0
 17 18  1  0  0  0  0
 17 48  1  0  0  0  0
 17 49  1  0  0  0  0
 18 19  1  0  0  0  0
 18 50  1  0  0  0  0
 18 51  1  0  0  0  0
 19 20  1  0  0  0  0
 19 52  1  0  0  0  0
 19 53  1  0  0  0  0
 20 21  1  0  0  0  0
 20 54  1  0  0  0  0
 21 55  1  0  0  0  0
 22 23  1  0  0  0  0
 23 24  2  0  0  0  0
 23 56  1  0  0  0  0
 24 25  1  0  0  0  0
 26 30  1  0  0  0  0
 26 27  1  0  0  0  0
 26 57  1  0  0  0  0
 27 28  1  0  0  0  0
 27 58  1  0  0  0  0
 27 59  1  0  0  0  0
 28 29  1  0  0  0  0
 28 60  1  0  0  0  0
 28 61  1  0  0  0  0
 29 30  1  0  0  0  0
 30 62  1  0  0  0  0
 30 63  1  0  0  0  0
M  END
> <s_m_source_file>
AV-unprocessed.smi

> <i_m_source_file_index>
148

> <i_lp_mmshare_version>
43012

> <i_f3d_flags>
0

> <s_epik_input>
W0NIMl0xT1tDSDJdW0NIMl1bQ0BIXTFbQ0BIXShbQ0gyXVtPSF0pW0NIMl1uKFtjSF1uMiljKGMyMyluW2NIXW5jM040W0NIMl1bQ0gyXVtDSDJdW0NIMl1bQ0BIXTRbQ0BASF01W0NIMl1bQ0gyXVtDSDJdW0NASF01W09IXQ==

> <s_epik_cmdline>
J2VwaWtfcHl0aG9uJywgJy1waCcsICc3LjAnLCAnLXRuJywgJzgnLCAnLW1hJywgJzIwMCcsICctbWV0YWxfYmluZGluZycsICctaW1hZScsICc8aW5maWxlLm1hZT4nLCAnLW9tYWUnLCAnPG91dGZpbGUubWFlPic=

> <r_lp_tautomer_probability>
1

> <r_epik_Ionization_Penalty>
0.00556303

> <r_epik_Ionization_Penalty_Charging>
0

> <r_epik_Ionization_Penalty_Neutral>
0.00556303

> <r_epik_State_Penalty>
0.00401767

> <r_epik_Charging_Adjusted_Penalty>
0.00401767

> <i_epik_Tot_Q>
0

> <i_epik_Tot_abs_Q>
0

> <r_epik_Metal_State_Penalty>
-0

> <b_epik_Metal_Only>
0

> <s_lp_Force_Field>
OPLS_2005

> <r_lp_Energy>
73.5051

> <b_lp_Chiralities_Consistent>
1

> <s_lp_Variant>
AV-unprocessed.smi:148-18

> <Gold.Version>
5.8.1

> <Gold.Id.Protein>
6NUR|6NUR_protein|mol2

> <Gold.PLP.Fitness>
43.9505

> <Gold.PLP.PLP>
-35.8865

> <Gold.PLP.part.hbond>
-2.0000

> <Gold.PLP.part.metal>
0.0000

> <Gold.PLP.part.buried>
-7.0646

> <Gold.PLP.part.nonpolar>
-27.4606

> <Gold.PLP.part.repulsive>
0.2072

> <Gold.PLP.ligand.clash>
0.0000

> <Gold.PLP.ligand.torsion>
0.7882

> <Gold.PLP.Chemscore.Hbond>
1.9920

> <Gold.PLP.Chemscore.CHOScore>
0.9971

> <Gold.PLP.Chemscore.Metal>
0.0000

> <Gold.Chemscore.Hbonds>
donor molecule, donor type, donor heavy atom, donor atom, acceptor molecule, acceptor atom, score
      L1  H     1    31       P1 10747  0.94
      P1  H  6896  6909       L1    22  1.00
      L1  C     6    37       P1 10957  1.00

> <Gold.PLP.Chemscore.Internal.Correction>
0.6729

> <Gold.Rescore>
     Score         DG    S(hbond)    S(metal)    S(lipo)     H(rot)  DE(clash)    DE(int)     intcor
     13.76     -14.55       1.91        0.00      95.73       3.32       0.00       0.78       ----

> <Gold.Chemscore.Fitness>
13.7634

> <Gold.Chemscore.DG>
-14.5480

> <Gold.Chemscore.ZeroCoef>
-5.4800

> <Gold.Chemscore.Hbond>
1.9065

> <Gold.Chemscore.Metal>
0.0000

> <Gold.Chemscore.Lipo>
95.7300

> <Gold.Chemscore.Internal_Hbond>
0.0000

> <Gold.Chemscore.DEClash>
0.0015

> <Gold.Chemscore.DEInternal>
0.7832

> <Gold.Chemscore.Rot>
3.3203

> <Gold.Chemscore.Internal.Correction>
   9.000000E+99

> <Gold.Chemscore.Hbonds>
donor molecule, donor type, donor heavy atom, donor atom, acceptor molecule, acceptor atom, score
      L1  H     1    31       P1 10747  0.91
      P1  H  6896  6909       L1    22  0.90

> <Gold.Chemscore.Hbond.Weighted>
-6.3676

> <Gold.Chemscore.Metal.Weighted>
-0.0000

> <Gold.Chemscore.Lipo.Weighted>
-11.2004

> <Gold.Chemscore.Internal_Hbond.Weighted>
0.0000

> <Gold.Chemscore.DEClash.Weighted>
0.0015

> <Gold.Chemscore.DEInternal.Weighted>
0.7832

> <Gold.Chemscore.Rot.Weighted>
8.5000

> <Gold.Chemscore.Internal.Correction.Weighted>
   9.000000E+99

> <Gold.Protein.RotatedTorsions>
[ 6907 6896 6895 6894 ] final   23.77 input  -60.11 | X-H torsion
[ 7974 7965 7964 7962 ] final   72.02 input  175.53 | X-H torsion
[ 8008 7997 7996 7995 ] final  166.72 input   59.86 | X-H torsion
[ 10167 10162 10161 10158 ] final  112.65 input  -65.29 | X-H torsion
[ 10718 10713 10712 10709 ] final  159.22 input   66.30 | X-H torsion
[ 10763 10752 10751 10750 ] final   27.40 input  -60.55 | X-H torsion
[ 11005 11000 10999 10996 ] final   65.84 input  -57.11 | X-H torsion

> <Gold.Protein.ActiveResidues>
 VAL166  LYS551  ARG553  GLY616  TRP617  ASP618  TYR619  PRO620  LYS621  CYS622 
 ASP623  PHE694  ASN695  SER759  ASP760  ASP761  ALA762  ILE779  LEU786  VAL792 
 PHE793  MET794  SER795  GLU796  ALA797  LYS798  CYS799  TRP800  GLU811  SER814 

> <Gold.Protein.RotatedAtoms>
  151.9475  135.0185  160.0539 H   0  0  0  0  0  0  0  0  0  0  0  0  # atno 6907 bound_to 6896
  152.1983  133.4817  159.5053 H   0  0  0  0  0  0  0  0  0  0  0  0  # atno 6908 bound_to 6896
  150.6949  134.1541  159.4194 H   0  0  0  0  0  0  0  0  0  0  0  0  # atno 6909 bound_to 6896
  145.7586  139.2791  143.1389 H   0  0  0  0  0  0  0  0  0  0  0  0  # atno 7974 bound_to 7965
  156.1694  140.1636  156.8474 H   0  0  0  0  0  0  0  0  0  0  0  0  # atno 8008 bound_to 7997
  154.5241  140.0771  156.8261 H   0  0  0  0  0  0  0  0  0  0  0  0  # atno 8009 bound_to 7997
  155.3544  140.3392  155.4242 H   0  0  0  0  0  0  0  0  0  0  0  0  # atno 8010 bound_to 7997
  139.6520  144.7128  151.2030 H   0  0  0  0  0  0  0  0  0  0  0  0  # atno 10167 bound_to 10162
  157.1672  131.0601  151.2201 H   0  0  0  0  0  0  0  0  0  0  0  0  # atno 10718 bound_to 10713
  153.0558  135.6538  154.0581 H   0  0  0  0  0  0  0  0  0  0  0  0  # atno 10763 bound_to 10752
  154.0259  135.2916  155.3376 H   0  0  0  0  0  0  0  0  0  0  0  0  # atno 10764 bound_to 10752
  154.6872  135.5297  153.8410 H   0  0  0  0  0  0  0  0  0  0  0  0  # atno 10765 bound_to 10752
  139.9869  134.6653  156.0160 H   0  0  0  0  0  0  0  0  0  0  0  0  # atno 11005 bound_to 11000
  146.0286  140.8280  142.9887 LP  0  0  0  0  0  0  0  0  0  0  0  0  # atno 17320 bound_to 7965
  144.6835  140.2735  143.7302 LP  0  0  0  0  0  0  0  0  0  0  0  0  # atno 17321 bound_to 7965
  140.7542  143.6135  150.8582 LP  0  0  0  0  0  0  0  0  0  0  0  0  # atno 17342 bound_to 10162
  139.9784  143.5978  152.2951 LP  0  0  0  0  0  0  0  0  0  0  0  0  # atno 17343 bound_to 10162
  157.4077  130.7368  149.6815 LP  0  0  0  0  0  0  0  0  0  0  0  0  # atno 17370 bound_to 10713
  155.9744  130.4104  150.3926 LP  0  0  0  0  0  0  0  0  0  0  0  0  # atno 17371 bound_to 10713
  141.1532  133.6546  156.4079 LP  0  0  0  0  0  0  0  0  0  0  0  0  # atno 17394 bound_to 11000
  140.4985  134.6508  157.5239 LP  0  0  0  0  0  0  0  0  0  0  0  0  # atno 17395 bound_to 11000

$$$$
