AV-unprocessed.smi:933|AV-procd|sdf|4204|dock10
  -GOLD-   22720 2113D 1   1.00000     0.00000
 Structure written by MMmdl.
 42 43  0  0  0  0  0  0  0  0  1 V2000
  144.0382  145.5143  153.8359 C   0  0  0  0  0  0  0  0  0  0  0  0
  145.0060  144.5560  153.1341 C   0  0  0  0  0  0  0  0  0  0  0  0
  145.5733  143.5324  154.0598 C   0  0  0  0  0  0  0  0  0  0  0  0
  146.4330  142.5861  153.6738 N   0  0  0  0  0  0  0  0  0  0  0  0
  146.8357  141.7604  154.7281 C   0  0  0  0  0  0  0  0  0  0  0  0
  147.7837  140.6289  154.4690 C   0  0  0  0  0  0  0  0  0  0  0  0
  149.2418  141.1026  154.3983 C   0  0  0  0  0  0  0  0  0  0  0  0
  149.5073  142.1148  155.4172 N   0  0  0  0  0  0  0  0  0  0  0  0
  150.0569  141.9211  156.6283 C   0  0  0  0  0  0  0  0  0  0  0  0
  150.4094  140.8072  157.0115 O   0  0  0  0  0  0  0  0  0  0  0  0
  150.1851  143.0368  157.3662 N   0  0  0  0  0  0  0  0  0  0  0  0
  150.7108  143.0960  158.7272 C   0  0  1  0  0  0  0  0  0  0  0  0
  152.1678  142.5977  158.7544 C   0  0  0  0  0  0  0  0  0  0  0  0
  153.0325  143.8394  158.9655 C   0  0  0  0  0  0  0  0  0  0  0  0
  152.1556  144.7561  159.8113 C   0  0  0  0  0  0  0  0  0  0  0  0
  150.7425  144.5508  159.2535 C   0  0  2  0  0  0  0  0  0  0  0  0
  149.6385  144.8664  160.2726 C   0  0  0  0  0  0  0  0  0  0  0  0
  146.2791  142.1111  155.9327 C   0  0  0  0  0  0  0  0  0  0  0  0
  145.2258  143.4908  155.7844 S   0  0  0  0  0  0  0  0  0  0  0  0
  143.6406  146.2476  153.1339 H   0  0  0  0  0  0  0  0  0  0  0  0
  144.5363  146.0581  154.6390 H   0  0  0  0  0  0  0  0  0  0  0  0
  143.1952  144.9749  154.2683 H   0  0  0  0  0  0  0  0  0  0  0  0
  144.4951  144.0434  152.3186 H   0  0  0  0  0  0  0  0  0  0  0  0
  145.8250  145.1186  152.6846 H   0  0  0  0  0  0  0  0  0  0  0  0
  147.6824  139.8758  155.2518 H   0  0  0  0  0  0  0  0  0  0  0  0
  147.5189  140.1288  153.5363 H   0  0  0  0  0  0  0  0  0  0  0  0
  149.9164  140.2572  154.5434 H   0  0  0  0  0  0  0  0  0  0  0  0
  149.4457  141.5174  153.4097 H   0  0  0  0  0  0  0  0  0  0  0  0
  149.2766  143.0662  155.1692 H   0  0  0  0  0  0  0  0  0  0  0  0
  149.8723  143.9077  156.9626 H   0  0  0  0  0  0  0  0  0  0  0  0
  150.1158  142.4555  159.3812 H   0  0  0  0  0  0  0  0  0  0  0  0
  152.2994  141.9242  159.6025 H   0  0  0  0  0  0  0  0  0  0  0  0
  152.4555  142.0430  157.8600 H   0  0  0  0  0  0  0  0  0  0  0  0
  153.9865  143.6114  159.4415 H   0  0  0  0  0  0  0  0  0  0  0  0
  153.2413  144.3118  158.0046 H   0  0  0  0  0  0  0  0  0  0  0  0
  152.2008  144.4384  160.8542 H   0  0  0  0  0  0  0  0  0  0  0  0
  152.4755  145.7976  159.7678 H   0  0  0  0  0  0  0  0  0  0  0  0
  150.6306  145.2351  158.4104 H   0  0  0  0  0  0  0  0  0  0  0  0
  149.7079  144.2200  161.1479 H   0  0  0  0  0  0  0  0  0  0  0  0
  148.6502  144.7284  159.8339 H   0  0  0  0  0  0  0  0  0  0  0  0
  149.7072  145.8994  160.6141 H   0  0  0  0  0  0  0  0  0  0  0  0
  146.4247  141.6439  156.8954 H   0  0  0  0  0  0  0  0  0  0  0  0
  1  2  1  0  0  0  0
  1 20  1  0  0  0  0
  1 21  1  0  0  0  0
  1 22  1  0  0  0  0
  2  3  1  0  0  0  0
  2 23  1  0  0  0  0
  2 24  1  0  0  0  0
  3 19  1  0  0  0  0
  3  4  2  0  0  0  0
  4  5  1  0  0  0  0
  5  6  1  0  0  0  0
  5 18  2  0  0  0  0
  6  7  1  0  0  0  0
  6 25  1  0  0  0  0
  6 26  1  0  0  0  0
  7  8  1  0  0  0  0
  7 27  1  0  0  0  0
  7 28  1  0  0  0  0
  8  9  1  0  0  0  0
  8 29  1  0  0  0  0
  9 10  2  0  0  0  0
  9 11  1  0  0  0  0
 11 12  1  0  0  0  0
 11 30  1  0  0  0  0
 12 16  1  0  0  0  0
 12 13  1  0  0  0  0
 12 31  1  0  0  0  0
 13 14  1  0  0  0  0
 13 32  1  0  0  0  0
 13 33  1  0  0  0  0
 14 15  1  0  0  0  0
 14 34  1  0  0  0  0
 14 35  1  0  0  0  0
 15 16  1  0  0  0  0
 15 36  1  0  0  0  0
 15 37  1  0  0  0  0
 16 17  1  0  0  0  0
 16 38  1  0  0  0  0
 17 39  1  0  0  0  0
 17 40  1  0  0  0  0
 17 41  1  0  0  0  0
 18 19  1  0  0  0  0
 18 42  1  0  0  0  0
M  END
> <s_m_source_file>
AV-unprocessed.smi

> <i_m_source_file_index>
933

> <i_lp_mmshare_version>
43012

> <i_f3d_flags>
0

> <s_epik_input>
W0NIM11bQ0gyXWMxbmMoW2NIXXMxKVtDSDJdW0NIMl1bTkhdQyg9TylbTkhdW0NAQEhdMltDSDJdW0NIMl1bQ0gyXVtDQEhdMltDSDNd

> <s_epik_cmdline>
J2VwaWtfcHl0aG9uJywgJy1waCcsICc3LjAnLCAnLXRuJywgJzgnLCAnLW1hJywgJzIwMCcsICctbWV0YWxfYmluZGluZycsICctaW1hZScsICc8aW5maWxlLm1hZT4nLCAnLW9tYWUnLCAnPG91dGZpbGUubWFlPic=

> <r_epik_Ionization_Penalty>
0.00203408

> <r_epik_Ionization_Penalty_Charging>
0

> <r_epik_Ionization_Penalty_Neutral>
0.00203408

> <r_epik_State_Penalty>
0.0013452

> <r_epik_Charging_Adjusted_Penalty>
0.0013452

> <i_epik_Tot_Q>
0

> <i_epik_Tot_abs_Q>
0

> <r_epik_Metal_State_Penalty>
-0

> <b_epik_Metal_Only>
0

> <s_lp_Force_Field>
OPLS_2005

> <r_lp_Energy>
18.1851

> <b_lp_Chiralities_Consistent>
1

> <s_lp_Variant>
AV-unprocessed.smi:933-4

> <Gold.Version>
5.8.1

> <Gold.Id.Protein>
6NUR|6NUR_protein|mol2

> <Gold.PLP.Fitness>
47.6880

> <Gold.PLP.PLP>
-42.9042

> <Gold.PLP.part.hbond>
-2.0000

> <Gold.PLP.part.metal>
0.0000

> <Gold.PLP.part.buried>
-6.3994

> <Gold.PLP.part.nonpolar>
-35.3483

> <Gold.PLP.part.repulsive>
0.4154

> <Gold.PLP.ligand.clash>
0.0000

> <Gold.PLP.ligand.torsion>
0.5549

> <Gold.PLP.Chemscore.Hbond>
1.9600

> <Gold.PLP.Chemscore.CHOScore>
0.0000

> <Gold.PLP.Chemscore.Metal>
0.0000

> <Gold.Chemscore.Hbonds>
donor molecule, donor type, donor heavy atom, donor atom, acceptor molecule, acceptor atom, score
      L1  H     8    29       P1  8028  1.00
      L1  H    11    30       P1  8028  0.96

> <Gold.PLP.Chemscore.Internal.Correction>
0.0137

> <Gold.Rescore>
     Score         DG    S(hbond)    S(metal)    S(lipo)     H(rot)  DE(clash)    DE(int)     intcor
     20.04     -20.66       1.80        0.00     112.12       1.55       0.04       0.58       ----

> <Gold.Chemscore.Fitness>
20.0417

> <Gold.Chemscore.DG>
-20.6599

> <Gold.Chemscore.ZeroCoef>
-5.4800

> <Gold.Chemscore.Hbond>
1.8039

> <Gold.Chemscore.Metal>
0.0000

> <Gold.Chemscore.Lipo>
112.1225

> <Gold.Chemscore.Internal_Hbond>
0.0000

> <Gold.Chemscore.DEClash>
0.0354

> <Gold.Chemscore.DEInternal>
0.5828

> <Gold.Chemscore.Rot>
1.5482

> <Gold.Chemscore.Internal.Correction>
   9.000000E+99

> <Gold.Chemscore.Hbonds>
donor molecule, donor type, donor heavy atom, donor atom, acceptor molecule, acceptor atom, score
      L1  H     8    29       P1  8028  0.95
      L1  H    11    30       P1  8028  0.87

> <Gold.Chemscore.Hbond.Weighted>
-6.0250

> <Gold.Chemscore.Metal.Weighted>
-0.0000

> <Gold.Chemscore.Lipo.Weighted>
-13.1183

> <Gold.Chemscore.Internal_Hbond.Weighted>
0.0000

> <Gold.Chemscore.DEClash.Weighted>
0.0354

> <Gold.Chemscore.DEInternal.Weighted>
0.5828

> <Gold.Chemscore.Rot.Weighted>
3.9635

> <Gold.Chemscore.Internal.Correction.Weighted>
   9.000000E+99

> <Gold.Protein.RotatedTorsions>
[ 6907 6896 6895 6894 ] final -115.87 input  -60.11 | X-H torsion
[ 7974 7965 7964 7962 ] final   -9.67 input  175.53 | X-H torsion
[ 8008 7997 7996 7995 ] final -174.99 input   59.86 | X-H torsion
[ 10167 10162 10161 10158 ] final  -21.21 input  -65.29 | X-H torsion
[ 10718 10713 10712 10709 ] final  -20.26 input   66.30 | X-H torsion
[ 10763 10752 10751 10750 ] final  117.59 input  -60.55 | X-H torsion
[ 11005 11000 10999 10996 ] final  171.63 input  -57.11 | X-H torsion

> <Gold.Protein.ActiveResidues>
 VAL166  LYS551  ARG553  GLY616  TRP617  ASP618  TYR619  PRO620  LYS621  CYS622 
 ASP623  PHE694  ASN695  SER759  ASP760  ASP761  ALA762  ILE779  LEU786  VAL792 
 PHE793  MET794  SER795  GLU796  ALA797  LYS798  CYS799  TRP800  GLU811  SER814 

> <Gold.Protein.RotatedAtoms>
  150.8011  133.8597  159.3228 H   0  0  0  0  0  0  0  0  0  0  0  0  # atno 6907 bound_to 6896
  151.6409  135.1011  160.0150 H   0  0  0  0  0  0  0  0  0  0  0  0  # atno 6908 bound_to 6896
  152.4099  133.6907  159.6423 H   0  0  0  0  0  0  0  0  0  0  0  0  # atno 6909 bound_to 6896
  146.2244  140.2651  142.8354 H   0  0  0  0  0  0  0  0  0  0  0  0  # atno 7974 bound_to 7965
  155.9770  140.1174  157.0761 H   0  0  0  0  0  0  0  0  0  0  0  0  # atno 8008 bound_to 7997
  154.4172  140.1152  156.5452 H   0  0  0  0  0  0  0  0  0  0  0  0  # atno 8009 bound_to 7997
  155.6521  140.3473  155.4754 H   0  0  0  0  0  0  0  0  0  0  0  0  # atno 8010 bound_to 7997
  140.7281  143.4649  151.0327 H   0  0  0  0  0  0  0  0  0  0  0  0  # atno 10167 bound_to 10162
  156.5343  130.4663  149.6531 H   0  0  0  0  0  0  0  0  0  0  0  0  # atno 10718 bound_to 10713
  153.5547  135.3532  155.2774 H   0  0  0  0  0  0  0  0  0  0  0  0  # atno 10763 bound_to 10752
  154.8702  135.4122  154.2897 H   0  0  0  0  0  0  0  0  0  0  0  0  # atno 10764 bound_to 10752
  153.3631  135.7061  153.6765 H   0  0  0  0  0  0  0  0  0  0  0  0  # atno 10765 bound_to 10752
  140.3210  134.7437  157.4064 H   0  0  0  0  0  0  0  0  0  0  0  0  # atno 11005 bound_to 11000
  144.9310  140.7975  143.5689 LP  0  0  0  0  0  0  0  0  0  0  0  0  # atno 17320 bound_to 7965
  145.2594  139.1998  143.4900 LP  0  0  0  0  0  0  0  0  0  0  0  0  # atno 17321 bound_to 7965
  139.8337  143.7657  152.3180 LP  0  0  0  0  0  0  0  0  0  0  0  0  # atno 17342 bound_to 10162
  139.7781  144.7454  151.0127 LP  0  0  0  0  0  0  0  0  0  0  0  0  # atno 17343 bound_to 10162
  156.3030  130.7187  151.2063 LP  0  0  0  0  0  0  0  0  0  0  0  0  # atno 17370 bound_to 10713
  157.7416  131.0501  150.5083 LP  0  0  0  0  0  0  0  0  0  0  0  0  # atno 17371 bound_to 10713
  140.0942  134.5560  155.8415 LP  0  0  0  0  0  0  0  0  0  0  0  0  # atno 17394 bound_to 11000
  141.2086  133.6675  156.6385 LP  0  0  0  0  0  0  0  0  0  0  0  0  # atno 17395 bound_to 11000

$$$$
