AV-unprocessed.smi:2909|AV-procd|sdf|11174|dock4
  -GOLD-   2272016 63D 1   1.00000     0.00000
 Structure written by MMmdl.
 44 45  0  0  0  0  0  0  0  0  1 V2000
  150.1143  130.9219  154.4507 C   0  0  0  0  0  0  0  0  0  0  0  0
  149.9570  132.4003  154.6512 C   0  0  0  0  0  0  0  0  0  0  0  0
  150.3089  133.1762  155.7943 C   0  0  0  0  0  0  0  0  0  0  0  0
  149.9576  134.4537  155.4575 C   0  0  0  0  0  0  0  0  0  0  0  0
  150.0543  135.7412  156.2157 C   0  0  0  0  0  0  0  0  0  0  0  0
  150.7773  136.8307  155.4172 C   0  0  0  0  0  0  0  0  0  0  0  0
  151.8086  136.5565  154.8043 O   0  0  0  0  0  0  0  0  0  0  0  0
  150.2183  138.0517  155.4091 N   0  0  0  0  0  0  0  0  0  0  0  0
  150.7231  139.2200  154.6915 C   0  0  2  0  0  0  0  0  0  0  0  0
  152.1265  139.5888  155.1979 C   0  0  0  0  0  0  0  0  0  0  0  0
  152.1055  140.1328  156.6374 C   0  0  0  0  0  0  0  0  0  0  0  0
  151.1535  141.3432  156.8061 C   0  0  2  0  0  0  0  0  0  0  0  0
  151.1202  141.8658  158.2728 C   0  0  0  0  0  0  0  0  0  0  0  0
  150.1590  143.0554  158.4615 C   0  0  0  0  0  0  0  0  0  0  0  0
  152.5141  142.2686  158.7922 C   0  0  0  0  0  0  0  0  0  0  0  0
  149.7455  140.9631  156.2839 C   0  0  0  0  0  0  0  0  0  0  0  0
  149.7731  140.4210  154.8439 C   0  0  0  0  0  0  0  0  0  0  0  0
  149.4418  134.3851  154.1828 N   0  0  0  0  0  0  0  0  0  0  0  0
  149.4342  133.1364  153.6815 N   0  0  0  0  0  0  0  0  0  0  0  0
  149.0969  135.1713  153.6503 H   0  0  0  0  0  0  0  0  0  0  0  0
  150.3903  130.4253  155.3810 H   0  0  0  0  0  0  0  0  0  0  0  0
  150.8914  130.7075  153.7169 H   0  0  0  0  0  0  0  0  0  0  0  0
  149.1869  130.4705  154.0971 H   0  0  0  0  0  0  0  0  0  0  0  0
  150.7487  132.8441  156.7233 H   0  0  0  0  0  0  0  0  0  0  0  0
  150.5838  135.5887  157.1567 H   0  0  0  0  0  0  0  0  0  0  0  0
  149.0535  136.0888  156.4752 H   0  0  0  0  0  0  0  0  0  0  0  0
  149.3715  138.1836  155.9431 H   0  0  0  0  0  0  0  0  0  0  0  0
  150.8039  138.9677  153.6324 H   0  0  0  0  0  0  0  0  0  0  0  0
  152.7872  138.7231  155.1369 H   0  0  0  0  0  0  0  0  0  0  0  0
  152.5572  140.3441  154.5393 H   0  0  0  0  0  0  0  0  0  0  0  0
  151.8168  139.3381  157.3265 H   0  0  0  0  0  0  0  0  0  0  0  0
  153.1262  140.4081  156.8988 H   0  0  0  0  0  0  0  0  0  0  0  0
  151.5304  142.1493  156.1746 H   0  0  0  0  0  0  0  0  0  0  0  0
  150.7601  141.0578  158.9113 H   0  0  0  0  0  0  0  0  0  0  0  0
  150.3967  143.8701  157.7769 H   0  0  0  0  0  0  0  0  0  0  0  0
  150.2163  143.4500  159.4763 H   0  0  0  0  0  0  0  0  0  0  0  0
  149.1195  142.7710  158.3021 H   0  0  0  0  0  0  0  0  0  0  0  0
  152.9826  143.0059  158.1397 H   0  0  0  0  0  0  0  0  0  0  0  0
  153.1844  141.4137  158.8733 H   0  0  0  0  0  0  0  0  0  0  0  0
  152.4518  142.7047  159.7897 H   0  0  0  0  0  0  0  0  0  0  0  0
  149.2939  140.2235  156.9463 H   0  0  0  0  0  0  0  0  0  0  0  0
  149.0848  141.8289  156.2955 H   0  0  0  0  0  0  0  0  0  0  0  0
  150.0939  141.2171  154.1710 H   0  0  0  0  0  0  0  0  0  0  0  0
  148.7648  140.1497  154.5285 H   0  0  0  0  0  0  0  0  0  0  0  0
  1 21  1  0  0  0  0
  1 22  1  0  0  0  0
  1 23  1  0  0  0  0
  1  2  1  0  0  0  0
  2 19  2  0  0  0  0
  2  3  1  0  0  0  0
  3  4  2  0  0  0  0
  3 24  1  0  0  0  0
  4 18  1  0  0  0  0
  4  5  1  0  0  0  0
  5  6  1  0  0  0  0
  5 25  1  0  0  0  0
  5 26  1  0  0  0  0
  6  7  2  0  0  0  0
  6  8  1  0  0  0  0
  8  9  1  0  0  0  0
  8 27  1  0  0  0  0
  9 17  1  0  0  0  0
  9 10  1  0  0  0  0
  9 28  1  0  0  0  0
 10 11  1  0  0  0  0
 10 29  1  0  0  0  0
 10 30  1  0  0  0  0
 11 12  1  0  0  0  0
 11 31  1  0  0  0  0
 11 32  1  0  0  0  0
 12 13  1  0  0  0  0
 12 16  1  0  0  0  0
 12 33  1  0  0  0  0
 13 14  1  0  0  0  0
 13 15  1  0  0  0  0
 13 34  1  0  0  0  0
 14 35  1  0  0  0  0
 14 36  1  0  0  0  0
 14 37  1  0  0  0  0
 15 38  1  0  0  0  0
 15 39  1  0  0  0  0
 15 40  1  0  0  0  0
 16 17  1  0  0  0  0
 16 41  1  0  0  0  0
 16 42  1  0  0  0  0
 17 43  1  0  0  0  0
 17 44  1  0  0  0  0
 18 19  1  0  0  0  0
 18 20  1  0  0  0  0
M  END
> <s_m_source_file>
AV-unprocessed.smi

> <i_m_source_file_index>
2909

> <i_lp_mmshare_version>
43012

> <i_f3d_flags>
0

> <s_epik_input>
W0NIM11jMVtjSF1jKG5bbkhdMSlbQ0gyXUMoPU8pW05IXVtDQEBIXTJbQ0gyXVtDSDJdW0NAQEhdKFtDSF0oW0NIM10pW0NIM10pW0NIMl1bQ0gyXTI=

> <s_epik_cmdline>
J2VwaWtfcHl0aG9uJywgJy1waCcsICc3LjAnLCAnLXRuJywgJzgnLCAnLW1hJywgJzIwMCcsICctbWV0YWxfYmluZGluZycsICctaW1hZScsICc8aW5maWxlLm1hZT4nLCAnLW9tYWUnLCAnPG91dGZpbGUubWFlPic=

> <r_lp_tautomer_probability>
0.5

> <r_epik_Ionization_Penalty>
0.00013296

> <r_epik_Ionization_Penalty_Charging>
0

> <r_epik_Ionization_Penalty_Neutral>
0.00013296

> <r_epik_State_Penalty>
0.41068

> <r_epik_Charging_Adjusted_Penalty>
0.41068

> <i_epik_Tot_Q>
0

> <i_epik_Tot_abs_Q>
0

> <r_epik_Metal_State_Penalty>
0.41066

> <b_epik_Metal_Only>
0

> <s_lp_Force_Field>
OPLS_2005

> <r_lp_Energy>
9.99393

> <b_lp_Chiralities_Consistent>
1

> <s_lp_Variant>
AV-unprocessed.smi:2909-4

> <Gold.Version>
5.8.1

> <Gold.Id.Protein>
6NUR|6NUR_protein|mol2

> <Gold.PLP.Fitness>
39.0885

> <Gold.PLP.PLP>
-33.6152

> <Gold.PLP.part.hbond>
-2.0000

> <Gold.PLP.part.metal>
0.0000

> <Gold.PLP.part.buried>
-2.9019

> <Gold.PLP.part.nonpolar>
-29.1102

> <Gold.PLP.part.repulsive>
0.3606

> <Gold.PLP.ligand.clash>
0.0000

> <Gold.PLP.ligand.torsion>
0.2621

> <Gold.PLP.Chemscore.Hbond>
1.9920

> <Gold.PLP.Chemscore.CHOScore>
0.0000

> <Gold.PLP.Chemscore.Metal>
0.0000

> <Gold.Chemscore.Hbonds>
donor molecule, donor type, donor heavy atom, donor atom, acceptor molecule, acceptor atom, score
      L1  H    18    20       P1  7948  0.94
      P1  H 10752 10763       L1     7  0.93

> <Gold.PLP.Chemscore.Internal.Correction>
0.0216

> <Gold.Rescore>
     Score         DG    S(hbond)    S(metal)    S(lipo)     H(rot)  DE(clash)    DE(int)     intcor
     17.58     -18.01       1.75        0.00      90.02       1.50       0.12       0.31       ----

> <Gold.Chemscore.Fitness>
17.5782

> <Gold.Chemscore.DG>
-18.0097

> <Gold.Chemscore.ZeroCoef>
-5.4800

> <Gold.Chemscore.Hbond>
1.7485

> <Gold.Chemscore.Metal>
0.0000

> <Gold.Chemscore.Lipo>
90.0221

> <Gold.Chemscore.Internal_Hbond>
0.0000

> <Gold.Chemscore.DEClash>
0.1205

> <Gold.Chemscore.DEInternal>
0.3109

> <Gold.Chemscore.Rot>
1.5011

> <Gold.Chemscore.Internal.Correction>
   9.000000E+99

> <Gold.Chemscore.Hbonds>
donor molecule, donor type, donor heavy atom, donor atom, acceptor molecule, acceptor atom, score
      L1  H    18    20       P1  7948  0.38
      P1  H 10752 10763       L1     7  0.88

> <Gold.Chemscore.Hbond.Weighted>
-5.8400

> <Gold.Chemscore.Metal.Weighted>
-0.0000

> <Gold.Chemscore.Lipo.Weighted>
-10.5326

> <Gold.Chemscore.Internal_Hbond.Weighted>
0.0000

> <Gold.Chemscore.DEClash.Weighted>
0.1205

> <Gold.Chemscore.DEInternal.Weighted>
0.3109

> <Gold.Chemscore.Rot.Weighted>
3.8429

> <Gold.Chemscore.Internal.Correction.Weighted>
   9.000000E+99

> <Gold.Protein.RotatedTorsions>
[ 6907 6896 6895 6894 ] final -155.32 input  -60.11 | X-H torsion
[ 7974 7965 7964 7962 ] final   27.08 input  175.53 | X-H torsion
[ 8008 7997 7996 7995 ] final   77.90 input   59.86 | X-H torsion
[ 10167 10162 10161 10158 ] final  132.61 input  -65.29 | X-H torsion
[ 10718 10713 10712 10709 ] final -127.30 input   66.30 | X-H torsion
[ 10763 10752 10751 10750 ] final   61.52 input  -60.55 | X-H torsion
[ 11005 11000 10999 10996 ] final   44.53 input  -57.11 | X-H torsion

> <Gold.Protein.ActiveResidues>
 VAL166  LYS551  ARG553  GLY616  TRP617  ASP618  TYR619  PRO620  LYS621  CYS622 
 ASP623  PHE694  ASN695  SER759  ASP760  ASP761  ALA762  ILE779  LEU786  VAL792 
 PHE793  MET794  SER795  GLU796  ALA797  LYS798  CYS799  TRP800  GLU811  SER814 

> <Gold.Protein.RotatedAtoms>
  151.2708  133.4256  159.2620 H   0  0  0  0  0  0  0  0  0  0  0  0  # atno 6907 bound_to 6896
  151.0447  134.9632  159.8190 H   0  0  0  0  0  0  0  0  0  0  0  0  # atno 6908 bound_to 6896
  152.5372  134.2664  159.9007 H   0  0  0  0  0  0  0  0  0  0  0  0  # atno 6909 bound_to 6896
  146.1803  139.7240  142.8905 H   0  0  0  0  0  0  0  0  0  0  0  0  # atno 7974 bound_to 7965
  155.8482  140.3459  155.5676 H   0  0  0  0  0  0  0  0  0  0  0  0  # atno 8008 bound_to 7997
  155.8067  140.0893  157.1946 H   0  0  0  0  0  0  0  0  0  0  0  0  # atno 8009 bound_to 7997
  154.4007  140.1455  156.3325 H   0  0  0  0  0  0  0  0  0  0  0  0  # atno 8010 bound_to 7997
  139.5332  144.6654  151.4876 H   0  0  0  0  0  0  0  0  0  0  0  0  # atno 10167 bound_to 10162
  156.1844  130.6753  151.0346 H   0  0  0  0  0  0  0  0  0  0  0  0  # atno 10718 bound_to 10713
  152.9953  135.5498  154.6046 H   0  0  0  0  0  0  0  0  0  0  0  0  # atno 10763 bound_to 10752
  154.5380  135.2818  155.1123 H   0  0  0  0  0  0  0  0  0  0  0  0  # atno 10764 bound_to 10752
  154.2412  135.6416  153.5260 H   0  0  0  0  0  0  0  0  0  0  0  0  # atno 10765 bound_to 10752
  140.1544  134.4421  155.8360 H   0  0  0  0  0  0  0  0  0  0  0  0  # atno 11005 bound_to 11000
  145.4095  141.0395  143.3025 LP  0  0  0  0  0  0  0  0  0  0  0  0  # atno 17320 bound_to 7965
  144.8304  139.5638  143.6946 LP  0  0  0  0  0  0  0  0  0  0  0  0  # atno 17321 bound_to 7965
  140.6523  143.8670  150.6799 LP  0  0  0  0  0  0  0  0  0  0  0  0  # atno 17342 bound_to 10162
  140.2039  143.3937  152.1770 LP  0  0  0  0  0  0  0  0  0  0  0  0  # atno 17343 bound_to 10162
  157.6889  131.0816  150.7164 LP  0  0  0  0  0  0  0  0  0  0  0  0  # atno 17370 bound_to 10713
  156.7220  130.4683  149.5520 LP  0  0  0  0  0  0  0  0  0  0  0  0  # atno 17371 bound_to 10713
  141.2202  133.6886  156.7480 LP  0  0  0  0  0  0  0  0  0  0  0  0  # atno 17394 bound_to 11000
  140.2566  134.8499  157.3718 LP  0  0  0  0  0  0  0  0  0  0  0  0  # atno 17395 bound_to 11000

$$$$
