AV-unprocessed.smi:3350|AV-procd|sdf|12941|dock2
  -GOLD-   2272019373D 1   1.00000     0.00000
 Structure written by MMmdl.
 41 42  0  0  0  0  0  0  0  0  1 V2000
  150.8780  132.7631  155.3660 C   0  0  0  0  0  0  0  0  0  0  0  0
  149.5960  133.3099  154.7236 C   0  0  2  0  0  0  0  0  0  0  0  0
  149.1566  132.4477  153.5208 C   0  0  0  0  0  0  0  0  0  0  0  0
  147.7834  132.7033  153.1195 N   0  0  0  0  0  0  0  0  0  0  0  0
  147.3023  133.0313  151.8696 C   0  0  0  0  0  0  0  0  0  0  0  0
  145.9464  133.1540  151.9752 C   0  0  0  0  0  0  0  0  0  0  0  0
  145.6891  132.8847  153.3483 C   0  0  0  0  0  0  0  0  0  0  0  0
  146.7901  132.6172  154.0313 N   0  0  0  0  0  0  0  0  0  0  0  0
  149.8196  134.6954  154.3119 N   0  0  0  0  0  0  0  0  0  0  0  0
  150.2105  135.6918  155.1198 C   0  0  0  0  0  0  0  0  0  0  0  0
  150.5094  135.5443  156.3052 O   0  0  0  0  0  0  0  0  0  0  0  0
  150.2012  136.8735  154.4879 N   0  0  0  0  0  0  0  0  0  0  0  0
  150.4813  138.1661  155.1081 C   0  0  1  0  0  0  0  0  0  0  0  0
  151.9702  138.4885  154.9088 C   0  0  0  0  0  0  0  0  0  0  0  0
  149.5626  139.2518  154.5053 C   0  0  2  0  0  0  0  0  0  0  0  0
  149.6414  140.6153  155.1979 C   0  0  0  0  0  0  0  0  0  0  0  0
  148.2652  141.2279  154.9762 C   0  0  0  0  0  0  0  0  0  0  0  0
  147.4374  140.0843  154.3897 C   0  0  0  0  0  0  0  0  0  0  0  0
  148.1926  138.9177  154.6728 O   0  0  0  0  0  0  0  0  0  0  0  0
  150.7368  131.7378  155.7091 H   0  0  0  0  0  0  0  0  0  0  0  0
  151.1708  133.3606  156.2300 H   0  0  0  0  0  0  0  0  0  0  0  0
  151.7094  132.7664  154.6600 H   0  0  0  0  0  0  0  0  0  0  0  0
  148.8134  133.2692  155.4831 H   0  0  0  0  0  0  0  0  0  0  0  0
  149.8168  132.6164  152.6680 H   0  0  0  0  0  0  0  0  0  0  0  0
  149.2376  131.3891  153.7707 H   0  0  0  0  0  0  0  0  0  0  0  0
  147.9569  133.1397  151.0175 H   0  0  0  0  0  0  0  0  0  0  0  0
  145.2449  133.3962  151.1911 H   0  0  0  0  0  0  0  0  0  0  0  0
  144.7409  132.8732  153.8652 H   0  0  0  0  0  0  0  0  0  0  0  0
  149.5980  134.9237  153.3541 H   0  0  0  0  0  0  0  0  0  0  0  0
  149.9341  136.8871  153.5146 H   0  0  0  0  0  0  0  0  0  0  0  0
  150.2969  138.1005  156.1821 H   0  0  0  0  0  0  0  0  0  0  0  0
  152.2464  139.4184  155.4063 H   0  0  0  0  0  0  0  0  0  0  0  0
  152.2167  138.5911  153.8515 H   0  0  0  0  0  0  0  0  0  0  0  0
  152.6003  137.7009  155.3228 H   0  0  0  0  0  0  0  0  0  0  0  0
  149.7638  139.3685  153.4383 H   0  0  0  0  0  0  0  0  0  0  0  0
  149.8128  140.4886  156.2678 H   0  0  0  0  0  0  0  0  0  0  0  0
  150.4457  141.2356  154.8016 H   0  0  0  0  0  0  0  0  0  0  0  0
  147.8460  141.5735  155.9217 H   0  0  0  0  0  0  0  0  0  0  0  0
  148.2989  142.0771  154.2931 H   0  0  0  0  0  0  0  0  0  0  0  0
  146.4364  140.0241  154.8171 H   0  0  0  0  0  0  0  0  0  0  0  0
  147.3412  140.1941  153.3087 H   0  0  0  0  0  0  0  0  0  0  0  0
  1  2  1  0  0  0  0
  1 20  1  0  0  0  0
  1 21  1  0  0  0  0
  1 22  1  0  0  0  0
  2  3  1  0  0  0  0
  2  9  1  0  0  0  0
  2 23  1  0  0  0  0
  3  4  1  0  0  0  0
  3 24  1  0  0  0  0
  3 25  1  0  0  0  0
  4  8  1  0  0  0  0
  4  5  1  0  0  0  0
  5  6  2  0  0  0  0
  5 26  1  0  0  0  0
  6  7  1  0  0  0  0
  6 27  1  0  0  0  0
  7  8  2  0  0  0  0
  7 28  1  0  0  0  0
  9 10  1  0  0  0  0
  9 29  1  0  0  0  0
 10 11  2  0  0  0  0
 10 12  1  0  0  0  0
 12 13  1  0  0  0  0
 12 30  1  0  0  0  0
 13 14  1  0  0  0  0
 13 15  1  0  0  0  0
 13 31  1  0  0  0  0
 14 32  1  0  0  0  0
 14 33  1  0  0  0  0
 14 34  1  0  0  0  0
 15 19  1  0  0  0  0
 15 16  1  0  0  0  0
 15 35  1  0  0  0  0
 16 17  1  0  0  0  0
 16 36  1  0  0  0  0
 16 37  1  0  0  0  0
 17 18  1  0  0  0  0
 17 38  1  0  0  0  0
 17 39  1  0  0  0  0
 18 19  1  0  0  0  0
 18 40  1  0  0  0  0
 18 41  1  0  0  0  0
M  END
> <s_m_source_file>
AV-unprocessed.smi

> <i_m_source_file_index>
3350

> <i_lp_mmshare_version>
43012

> <i_f3d_flags>
0

> <s_epik_input>
bjFbY0hdW2NIXVtjSF1uMVtDSDJdW0NAQEhdKFtDSDNdKVtOSF1DKD1PKVtOSF1bQ0BIXShbQ0gzXSlbQ0BASF0yW0NIMl1bQ0gyXVtDSDJdTzI=

> <s_epik_cmdline>
J2VwaWtfcHl0aG9uJywgJy1waCcsICc3LjAnLCAnLXRuJywgJzgnLCAnLW1hJywgJzIwMCcsICctbWV0YWxfYmluZGluZycsICctaW1hZScsICc8aW5maWxlLm1hZT4nLCAnLW9tYWUnLCAnPG91dGZpbGUubWFlPic=

> <r_lp_tautomer_probability>
1

> <r_epik_Ionization_Penalty>
6.42349e-05

> <r_epik_Ionization_Penalty_Charging>
0

> <r_epik_Ionization_Penalty_Neutral>
6.42349e-05

> <r_epik_State_Penalty>
-0

> <r_epik_Charging_Adjusted_Penalty>
0

> <i_epik_Tot_Q>
0

> <i_epik_Tot_abs_Q>
0

> <r_epik_Metal_State_Penalty>
-0

> <b_epik_Metal_Only>
0

> <s_lp_Force_Field>
OPLS_2005

> <r_lp_Energy>
14.9436

> <b_lp_Chiralities_Consistent>
1

> <s_lp_Variant>
AV-unprocessed.smi:3350-3

> <Gold.Version>
5.8.1

> <Gold.Id.Protein>
6NUR|6NUR_protein|mol2

> <Gold.PLP.Fitness>
42.4088

> <Gold.PLP.PLP>
-33.6774

> <Gold.PLP.part.hbond>
-2.4176

> <Gold.PLP.part.metal>
0.0000

> <Gold.PLP.part.buried>
-2.4955

> <Gold.PLP.part.nonpolar>
-30.1710

> <Gold.PLP.part.repulsive>
0.3216

> <Gold.PLP.ligand.clash>
0.0000

> <Gold.PLP.ligand.torsion>
0.5227

> <Gold.PLP.Chemscore.Hbond>
1.4000

> <Gold.PLP.Chemscore.CHOScore>
1.8296

> <Gold.PLP.Chemscore.Metal>
0.0000

> <Gold.Chemscore.Hbonds>
donor molecule, donor type, donor heavy atom, donor atom, acceptor molecule, acceptor atom, score
      L1  H     9    29       P1  7948  0.30
      L1  H    12    30       P1  7948  1.00
      L1  C     5    26       P1 10747  0.55
      L1  C     7    28       P1 10957  1.00

> <Gold.PLP.Chemscore.Internal.Correction>
0.0882

> <Gold.Rescore>
     Score         DG    S(hbond)    S(metal)    S(lipo)     H(rot)  DE(clash)    DE(int)     intcor
     13.14     -14.44       1.74        0.00      66.80       1.82       0.13       1.17       ----

> <Gold.Chemscore.Fitness>
13.1354

> <Gold.Chemscore.DG>
-14.4385

> <Gold.Chemscore.ZeroCoef>
-5.4800

> <Gold.Chemscore.Hbond>
1.7371

> <Gold.Chemscore.Metal>
0.0000

> <Gold.Chemscore.Lipo>
66.7957

> <Gold.Chemscore.Internal_Hbond>
0.0000

> <Gold.Chemscore.DEClash>
0.1291

> <Gold.Chemscore.DEInternal>
1.1740

> <Gold.Chemscore.Rot>
1.8197

> <Gold.Chemscore.Internal.Correction>
   9.000000E+99

> <Gold.Chemscore.Hbonds>
donor molecule, donor type, donor heavy atom, donor atom, acceptor molecule, acceptor atom, score
      L1  H    12    30       P1  7948  0.29

> <Gold.Chemscore.Hbond.Weighted>
-5.8017

> <Gold.Chemscore.Metal.Weighted>
-0.0000

> <Gold.Chemscore.Lipo.Weighted>
-7.8151

> <Gold.Chemscore.Internal_Hbond.Weighted>
0.0000

> <Gold.Chemscore.DEClash.Weighted>
0.1291

> <Gold.Chemscore.DEInternal.Weighted>
1.1740

> <Gold.Chemscore.Rot.Weighted>
4.6583

> <Gold.Chemscore.Internal.Correction.Weighted>
   9.000000E+99

> <Gold.Protein.RotatedTorsions>
[ 6907 6896 6895 6894 ] final -159.32 input  -60.11 | X-H torsion
[ 7974 7965 7964 7962 ] final  124.82 input  175.53 | X-H torsion
[ 8008 7997 7996 7995 ] final  109.69 input   59.86 | X-H torsion
[ 10167 10162 10161 10158 ] final -135.51 input  -65.29 | X-H torsion
[ 10718 10713 10712 10709 ] final  -93.37 input   66.30 | X-H torsion
[ 10763 10752 10751 10750 ] final   32.04 input  -60.55 | X-H torsion
[ 11005 11000 10999 10996 ] final  118.69 input  -57.11 | X-H torsion

> <Gold.Protein.ActiveResidues>
 VAL166  LYS551  ARG553  GLY616  TRP617  ASP618  TYR619  PRO620  LYS621  CYS622 
 ASP623  PHE694  ASN695  SER759  ASP760  ASP761  ALA762  ILE779  LEU786  VAL792 
 PHE793  MET794  SER795  GLU796  ALA797  LYS798  CYS799  TRP800  GLU811  SER814 

> <Gold.Protein.RotatedAtoms>
  151.3318  133.3997  159.2663 H   0  0  0  0  0  0  0  0  0  0  0  0  # atno 6907 bound_to 6896
  150.9949  134.9276  159.7931 H   0  0  0  0  0  0  0  0  0  0  0  0  # atno 6908 bound_to 6896
  152.5258  134.3283  159.9226 H   0  0  0  0  0  0  0  0  0  0  0  0  # atno 6909 bound_to 6896
  145.0800  139.3664  143.4914 H   0  0  0  0  0  0  0  0  0  0  0  0  # atno 7974 bound_to 7965
  156.1998  140.3053  155.9502 H   0  0  0  0  0  0  0  0  0  0  0  0  # atno 8008 bound_to 7997
  155.2981  140.0445  157.3044 H   0  0  0  0  0  0  0  0  0  0  0  0  # atno 8009 bound_to 7997
  154.5556  140.2304  155.8425 H   0  0  0  0  0  0  0  0  0  0  0  0  # atno 8010 bound_to 7997
  139.8771  143.6884  152.2632 H   0  0  0  0  0  0  0  0  0  0  0  0  # atno 10167 bound_to 10162
  156.0012  130.5024  150.5766 H   0  0  0  0  0  0  0  0  0  0  0  0  # atno 10718 bound_to 10713
  153.0283  135.6423  154.1293 H   0  0  0  0  0  0  0  0  0  0  0  0  # atno 10763 bound_to 10752
  154.1019  135.2859  155.3251 H   0  0  0  0  0  0  0  0  0  0  0  0  # atno 10764 bound_to 10752
  154.6393  135.5465  153.7833 H   0  0  0  0  0  0  0  0  0  0  0  0  # atno 10765 bound_to 10752
  139.9119  134.9622  156.7542 H   0  0  0  0  0  0  0  0  0  0  0  0  # atno 11005 bound_to 11000
  146.3531  140.0586  142.8631 LP  0  0  0  0  0  0  0  0  0  0  0  0  # atno 17320 bound_to 7965
  145.1189  140.9451  143.4612 LP  0  0  0  0  0  0  0  0  0  0  0  0  # atno 17321 bound_to 7965
  139.7230  144.7599  151.0925 LP  0  0  0  0  0  0  0  0  0  0  0  0  # atno 17342 bound_to 10162
  140.7751  143.5184  150.9566 LP  0  0  0  0  0  0  0  0  0  0  0  0  # atno 17343 bound_to 10162
  157.3653  131.0756  151.1603 LP  0  0  0  0  0  0  0  0  0  0  0  0  # atno 17370 bound_to 10713
  157.2374  130.6553  149.5875 LP  0  0  0  0  0  0  0  0  0  0  0  0  # atno 17371 bound_to 10713
  140.6749  133.9526  155.7877 LP  0  0  0  0  0  0  0  0  0  0  0  0  # atno 17394 bound_to 11000
  141.0551  134.0428  157.3733 LP  0  0  0  0  0  0  0  0  0  0  0  0  # atno 17395 bound_to 11000

$$$$
