AV-unprocessed.smi:2967|AV-procd|sdf|11327|dock4
  -GOLD-   2272016233D 1   1.00000     0.00000
 Structure written by MMmdl.
 37 38  0  0  0  0  0  0  0  0  2 V2000
  151.5587  140.0224  158.1257 O   0  0  0  0  0  0  0  0  0  0  0  0
  151.5296  140.9551  157.3232 C   0  0  0  0  0  0  0  0  0  0  0  0
  151.4111  140.6454  155.8205 C   0  0  0  0  0  0  0  0  0  0  0  0
  151.2347  139.2183  155.4926 N   0  0  0  0  0  0  0  0  0  0  0  0
  149.9565  138.6628  155.6779 C   0  0  0  0  0  0  0  0  0  0  0  0
  149.6948  137.3720  155.3972 C   0  0  0  0  0  0  0  0  0  0  0  0
  150.7798  136.5430  154.8872 C   0  0  0  0  0  0  0  0  0  0  0  0
  150.5592  135.3624  154.6249 O   0  0  0  0  0  0  0  0  0  0  0  0
  152.0021  137.1282  154.7233 N   0  5  0  0  0  0  0  0  0  0  0  0
  152.2534  138.4428  155.0115 C   0  0  0  0  0  0  0  0  0  0  0  0
  153.3611  138.9537  154.8453 O   0  0  0  0  0  0  0  0  0  0  0  0
  151.5883  142.2436  157.7015 N   0  0  0  0  0  0  0  0  0  0  0  0
  151.7203  142.7331  159.0707 C   0  0  0  0  0  0  0  0  0  0  0  0
  151.9137  144.2652  159.0798 C   0  0  0  0  0  0  0  0  0  0  0  0
  151.3741  144.9291  160.3593 C   0  0  0  0  0  0  0  0  0  0  0  0
  152.2036  144.6806  161.6274 C   0  0  0  0  0  0  0  0  0  0  0  0
  152.4049  143.1987  161.9862 C   0  0  0  0  0  0  0  0  0  0  0  0
  153.4196  142.5011  161.0669 C   0  0  0  0  0  0  0  0  0  0  0  0
  152.8585  141.9401  159.7474 C   0  0  0  0  0  0  0  0  0  0  0  0
  150.5863  141.2310  155.4112 H   0  0  0  0  0  0  0  0  0  0  0  0
  152.3026  141.0331  155.3256 H   0  0  0  0  0  0  0  0  0  0  0  0
  149.2083  139.3455  156.0532 H   0  0  0  0  0  0  0  0  0  0  0  0
  148.7066  136.9614  155.5432 H   0  0  0  0  0  0  0  0  0  0  0  0
  151.5614  142.9419  156.9723 H   0  0  0  0  0  0  0  0  0  0  0  0
  150.7941  142.4974  159.5982 H   0  0  0  0  0  0  0  0  0  0  0  0
  152.9596  144.5264  158.9143 H   0  0  0  0  0  0  0  0  0  0  0  0
  151.3659  144.7015  158.2434 H   0  0  0  0  0  0  0  0  0  0  0  0
  151.3230  146.0059  160.1945 H   0  0  0  0  0  0  0  0  0  0  0  0
  150.3444  144.6110  160.5282 H   0  0  0  0  0  0  0  0  0  0  0  0
  153.1724  145.1735  161.5357 H   0  0  0  0  0  0  0  0  0  0  0  0
  151.7023  145.1737  162.4610 H   0  0  0  0  0  0  0  0  0  0  0  0
  152.7924  143.1569  163.0047 H   0  0  0  0  0  0  0  0  0  0  0  0
  151.4555  142.6624  162.0072 H   0  0  0  0  0  0  0  0  0  0  0  0
  154.2372  143.1889  160.8480 H   0  0  0  0  0  0  0  0  0  0  0  0
  153.8813  141.6762  161.6107 H   0  0  0  0  0  0  0  0  0  0  0  0
  152.4974  140.9262  159.9255 H   0  0  0  0  0  0  0  0  0  0  0  0
  153.6942  141.8303  159.0544 H   0  0  0  0  0  0  0  0  0  0  0  0
  1  2  2  0  0  0  0
  2  3  1  0  0  0  0
  2 12  1  0  0  0  0
  3  4  1  0  0  0  0
  3 20  1  0  0  0  0
  3 21  1  0  0  0  0
  4 10  1  0  0  0  0
  4  5  1  0  0  0  0
  5  6  2  0  0  0  0
  5 22  1  0  0  0  0
  6  7  1  0  0  0  0
  6 23  1  0  0  0  0
  7  8  2  0  0  0  0
  7  9  1  0  0  0  0
  9 10  1  0  0  0  0
 10 11  2  0  0  0  0
 12 13  1  0  0  0  0
 12 24  1  0  0  0  0
 13 19  1  0  0  0  0
 13 14  1  0  0  0  0
 13 25  1  0  0  0  0
 14 15  1  0  0  0  0
 14 26  1  0  0  0  0
 14 27  1  0  0  0  0
 15 16  1  0  0  0  0
 15 28  1  0  0  0  0
 15 29  1  0  0  0  0
 16 17  1  0  0  0  0
 16 30  1  0  0  0  0
 16 31  1  0  0  0  0
 17 18  1  0  0  0  0
 17 32  1  0  0  0  0
 17 33  1  0  0  0  0
 18 19  1  0  0  0  0
 18 34  1  0  0  0  0
 18 35  1  0  0  0  0
 19 36  1  0  0  0  0
 19 37  1  0  0  0  0
M  CHG  1   9  -1
M  END
> <s_m_source_file>
AV-unprocessed.smi

> <i_m_source_file_index>
2967

> <i_lp_mmshare_version>
43012

> <i_f3d_flags>
0

> <s_epik_input>
W0NIMl0xW0NIMl1bQ0gyXVtDSDJdW0NIMl1bQ0gyXVtDSF0xW05IXUMoPU8pW0NIMl1uMltjSF1bY0hdYyg9TylbbkhdYzI9Tw==

> <s_epik_cmdline>
J2VwaWtfcHl0aG9uJywgJy1waCcsICc3LjAnLCAnLXRuJywgJzgnLCAnLW1hJywgJzIwMCcsICctbWV0YWxfYmluZGluZycsICctaW1hZScsICc8aW5maWxlLm1hZT4nLCAnLW9tYWUnLCAnPG91dGZpbGUubWFlPic=

> <r_lp_tautomer_probability>
0.999537

> <r_epik_Ionization_Penalty>
3.09244

> <r_epik_Ionization_Penalty_Charging>
2.84692e-08

> <r_epik_Ionization_Penalty_Neutral>
3.09244

> <r_epik_State_Penalty>
3.09149

> <r_epik_Charging_Adjusted_Penalty>
3.09149

> <i_epik_Tot_Q>
-1

> <i_epik_Tot_abs_Q>
1

> <r_epik_Metal_State_Penalty>
0.461034

> <b_epik_Metal_Only>
1

> <s_lp_Force_Field>
OPLS_2005

> <r_lp_Energy>
23.2827

> <b_lp_Chiralities_Consistent>
1

> <s_lp_Variant>
AV-unprocessed.smi:2967-2

> <Gold.Version>
5.8.1

> <Gold.Id.Protein>
6NUR|6NUR_protein|mol2

> <Gold.PLP.Fitness>
48.0350

> <Gold.PLP.PLP>
-39.6976

> <Gold.PLP.part.hbond>
-2.0000

> <Gold.PLP.part.metal>
0.0000

> <Gold.PLP.part.buried>
-4.0279

> <Gold.PLP.part.nonpolar>
-34.2837

> <Gold.PLP.part.repulsive>
0.3595

> <Gold.PLP.ligand.clash>
0.0000

> <Gold.PLP.ligand.torsion>
0.3405

> <Gold.PLP.Chemscore.Hbond>
3.0000

> <Gold.PLP.Chemscore.CHOScore>
0.0000

> <Gold.PLP.Chemscore.Metal>
0.0000

> <Gold.Chemscore.Hbonds>
donor molecule, donor type, donor heavy atom, donor atom, acceptor molecule, acceptor atom, score
      P1  H  7997  8009       L1    11  1.00
      P1  H 10752 10765       L1     9  1.70

> <Gold.PLP.Chemscore.Internal.Correction>
0.0185

> <Gold.Rescore>
     Score         DG    S(hbond)    S(metal)    S(lipo)     H(rot)  DE(clash)    DE(int)     intcor
     14.91     -18.21       1.76        0.00      94.86       1.65       1.71       1.58       ----

> <Gold.Chemscore.Fitness>
14.9142

> <Gold.Chemscore.DG>
-18.2077

> <Gold.Chemscore.ZeroCoef>
-5.4800

> <Gold.Chemscore.Hbond>
1.7560

> <Gold.Chemscore.Metal>
0.0000

> <Gold.Chemscore.Lipo>
94.8632

> <Gold.Chemscore.Internal_Hbond>
0.0000

> <Gold.Chemscore.DEClash>
1.7107

> <Gold.Chemscore.DEInternal>
1.5827

> <Gold.Chemscore.Rot>
1.6549

> <Gold.Chemscore.Internal.Correction>
   9.000000E+99

> <Gold.Chemscore.Hbonds>
donor molecule, donor type, donor heavy atom, donor atom, acceptor molecule, acceptor atom, score
      P1  H  7997  8009       L1    11  0.93
      P1  H 10752 10765       L1     9  0.16

> <Gold.Chemscore.Hbond.Weighted>
-5.8651

> <Gold.Chemscore.Metal.Weighted>
-0.0000

> <Gold.Chemscore.Lipo.Weighted>
-11.0990

> <Gold.Chemscore.Internal_Hbond.Weighted>
0.0000

> <Gold.Chemscore.DEClash.Weighted>
1.7107

> <Gold.Chemscore.DEInternal.Weighted>
1.5827

> <Gold.Chemscore.Rot.Weighted>
4.2364

> <Gold.Chemscore.Internal.Correction.Weighted>
   9.000000E+99

> <Gold.Protein.RotatedTorsions>
[ 6907 6896 6895 6894 ] final  146.89 input  -60.11 | X-H torsion
[ 7974 7965 7964 7962 ] final   48.56 input  175.53 | X-H torsion
[ 8008 7997 7996 7995 ] final -145.21 input   59.86 | X-H torsion
[ 10167 10162 10161 10158 ] final   84.20 input  -65.29 | X-H torsion
[ 10718 10713 10712 10709 ] final -108.91 input   66.30 | X-H torsion
[ 10763 10752 10751 10750 ] final  174.16 input  -60.55 | X-H torsion
[ 11005 11000 10999 10996 ] final  156.78 input  -57.11 | X-H torsion

> <Gold.Protein.ActiveResidues>
 VAL166  LYS551  ARG553  GLY616  TRP617  ASP618  TYR619  PRO620  LYS621  CYS622 
 ASP623  PHE694  ASN695  SER759  ASP760  ASP761  ALA762  ILE779  LEU786  VAL792 
 PHE793  MET794  SER795  GLU796  ALA797  LYS798  CYS799  TRP800  GLU811  SER814 

> <Gold.Protein.RotatedAtoms>
  152.1620  133.4588  159.4865 H   0  0  0  0  0  0  0  0  0  0  0  0  # atno 6907 bound_to 6896
  150.6908  134.2060  159.4349 H   0  0  0  0  0  0  0  0  0  0  0  0  # atno 6908 bound_to 6896
  151.9962  134.9952  160.0614 H   0  0  0  0  0  0  0  0  0  0  0  0  # atno 6909 bound_to 6896
  146.0192  139.4632  142.9907 H   0  0  0  0  0  0  0  0  0  0  0  0  # atno 7974 bound_to 7965
  155.5395  140.0607  157.2873 H   0  0  0  0  0  0  0  0  0  0  0  0  # atno 8008 bound_to 7997
  154.4457  140.1921  156.0621 H   0  0  0  0  0  0  0  0  0  0  0  0  # atno 8009 bound_to 7997
  156.0595  140.3274  155.7448 H   0  0  0  0  0  0  0  0  0  0  0  0  # atno 8010 bound_to 7997
  139.9105  144.6274  150.8542 H   0  0  0  0  0  0  0  0  0  0  0  0  # atno 10167 bound_to 10162
  156.0510  130.5737  150.8027 H   0  0  0  0  0  0  0  0  0  0  0  0  # atno 10718 bound_to 10713
  154.4501  135.2764  155.1787 H   0  0  0  0  0  0  0  0  0  0  0  0  # atno 10763 bound_to 10752
  154.3617  135.6128  153.5698 H   0  0  0  0  0  0  0  0  0  0  0  0  # atno 10764 bound_to 10752
  152.9846  135.5836  154.4844 H   0  0  0  0  0  0  0  0  0  0  0  0  # atno 10765 bound_to 10752
  140.1707  134.8545  157.2687 H   0  0  0  0  0  0  0  0  0  0  0  0  # atno 11005 bound_to 11000
  145.7219  141.0072  143.1398 LP  0  0  0  0  0  0  0  0  0  0  0  0  # atno 17320 bound_to 7965
  144.6983  139.8881  143.7451 LP  0  0  0  0  0  0  0  0  0  0  0  0  # atno 17321 bound_to 7965
  140.7686  143.3369  151.2290 LP  0  0  0  0  0  0  0  0  0  0  0  0  # atno 17342 bound_to 10162
  139.6946  143.9634  152.2876 LP  0  0  0  0  0  0  0  0  0  0  0  0  # atno 17343 bound_to 10162
  157.5435  131.0941  150.9794 LP  0  0  0  0  0  0  0  0  0  0  0  0  # atno 17370 bound_to 10713
  157.0071  130.5622  149.5317 LP  0  0  0  0  0  0  0  0  0  0  0  0  # atno 17371 bound_to 10713
  140.2380  134.3829  155.7492 LP  0  0  0  0  0  0  0  0  0  0  0  0  # atno 17394 bound_to 11000
  141.2217  133.7250  156.8745 LP  0  0  0  0  0  0  0  0  0  0  0  0  # atno 17395 bound_to 11000

$$$$
