AV-unprocessed.smi:1662|AV-procd|sdf|6658|dock2
  -GOLD-   22720 7363D 1   1.00000     0.00000
 Structure written by MMmdl.
 47 48  0  0  0  0  0  0  0  0  1 V2000
  150.2998  144.1231  159.0307 C   0  0  0  0  0  0  0  0  0  0  0  0
  151.2789  142.9811  159.0790 C   0  0  0  0  0  0  0  0  0  0  0  0
  151.2592  142.1582  158.0825 N   0  0  0  0  0  0  0  0  0  0  0  0
  152.1121  141.0730  158.0287 N   0  0  0  0  0  0  0  0  0  0  0  0
  151.9415  140.2333  156.8337 C   0  0  0  0  0  0  0  0  0  0  0  0
  150.5442  140.3516  156.2087 C   0  0  0  0  0  0  0  0  0  0  0  0
  150.4052  140.7461  155.0502 O   0  0  0  0  0  0  0  0  0  0  0  0
  149.5165  139.9923  156.9925 N   0  0  0  0  0  0  0  0  0  0  0  0
  148.1053  140.0544  156.6187 C   0  0  1  0  0  0  0  0  0  0  0  0
  147.2612  139.2628  157.6362 C   0  0  0  0  0  0  0  0  0  0  0  0
  145.7729  139.2786  157.2571 C   0  0  0  0  0  0  0  0  0  0  0  0
  145.2488  140.7131  157.0871 C   0  0  0  0  0  0  0  0  0  0  0  0
  146.0979  141.5081  156.0746 C   0  0  1  0  0  0  0  0  0  0  0  0
  145.5204  142.9109  155.8224 C   0  0  0  0  0  0  0  0  0  0  0  0
  147.5994  141.5164  156.4681 C   0  0  1  0  0  0  0  0  0  0  0  0
  147.9122  142.3995  157.6991 C   0  0  0  0  0  0  0  0  0  0  0  0
  153.0415  140.7674  158.9800 C   0  0  0  0  0  0  0  0  0  0  0  0
  153.7887  139.7921  158.8869 O   0  0  0  0  0  0  0  0  0  0  0  0
  153.0579  141.7036  160.1061 C   0  0  0  0  0  0  0  0  0  0  0  0
  154.0106  141.4157  161.1291 C   0  0  0  0  0  0  0  0  0  0  0  0
  154.7726  141.1650  161.9638 N   0  0  0  0  0  0  0  0  0  0  0  0
  152.2232  142.7712  160.1719 C   0  0  0  0  0  0  0  0  0  0  0  0
  152.2015  143.7721  161.3191 C   0  0  0  0  0  0  0  0  0  0  0  0
  150.8222  145.0752  158.9387 H   0  0  0  0  0  0  0  0  0  0  0  0
  149.6943  144.1548  159.9363 H   0  0  0  0  0  0  0  0  0  0  0  0
  149.6169  144.0376  158.1842 H   0  0  0  0  0  0  0  0  0  0  0  0
  152.6750  140.5019  156.0713 H   0  0  0  0  0  0  0  0  0  0  0  0
  152.1477  139.1906  157.0837 H   0  0  0  0  0  0  0  0  0  0  0  0
  149.7239  139.6739  157.9279 H   0  0  0  0  0  0  0  0  0  0  0  0
  147.9952  139.5553  155.6536 H   0  0  0  0  0  0  0  0  0  0  0  0
  147.6104  138.2308  157.6864 H   0  0  0  0  0  0  0  0  0  0  0  0
  147.3884  139.6765  158.6373 H   0  0  0  0  0  0  0  0  0  0  0  0
  145.6303  138.7275  156.3267 H   0  0  0  0  0  0  0  0  0  0  0  0
  145.1898  138.7567  158.0162 H   0  0  0  0  0  0  0  0  0  0  0  0
  144.2106  140.6793  156.7549 H   0  0  0  0  0  0  0  0  0  0  0  0
  145.2416  141.2194  158.0528 H   0  0  0  0  0  0  0  0  0  0  0  0
  146.0284  140.9805  155.1221 H   0  0  0  0  0  0  0  0  0  0  0  0
  145.4467  143.4915  156.7421 H   0  0  0  0  0  0  0  0  0  0  0  0
  144.5177  142.8470  155.3993 H   0  0  0  0  0  0  0  0  0  0  0  0
  146.1377  143.4703  155.1188 H   0  0  0  0  0  0  0  0  0  0  0  0
  148.1420  141.9603  155.6320 H   0  0  0  0  0  0  0  0  0  0  0  0
  147.3946  142.0552  158.5938 H   0  0  0  0  0  0  0  0  0  0  0  0
  147.6239  143.4363  157.5301 H   0  0  0  0  0  0  0  0  0  0  0  0
  148.9789  142.4135  157.9223 H   0  0  0  0  0  0  0  0  0  0  0  0
  152.9985  143.5911  162.0398 H   0  0  0  0  0  0  0  0  0  0  0  0
  151.2534  143.7153  161.8550 H   0  0  0  0  0  0  0  0  0  0  0  0
  152.3262  144.7893  160.9464 H   0  0  0  0  0  0  0  0  0  0  0  0
  1  2  1  0  0  0  0
  1 24  1  0  0  0  0
  1 25  1  0  0  0  0
  1 26  1  0  0  0  0
  2 22  1  0  0  0  0
  2  3  2  0  0  0  0
  3  4  1  0  0  0  0
  4  5  1  0  0  0  0
  4 17  1  0  0  0  0
  5  6  1  0  0  0  0
  5 27  1  0  0  0  0
  5 28  1  0  0  0  0
  6  7  2  0  0  0  0
  6  8  1  0  0  0  0
  8  9  1  0  0  0  0
  8 29  1  0  0  0  0
  9 15  1  0  0  0  0
  9 10  1  0  0  0  0
  9 30  1  0  0  0  0
 10 11  1  0  0  0  0
 10 31  1  0  0  0  0
 10 32  1  0  0  0  0
 11 12  1  0  0  0  0
 11 33  1  0  0  0  0
 11 34  1  0  0  0  0
 12 13  1  0  0  0  0
 12 35  1  0  0  0  0
 12 36  1  0  0  0  0
 13 14  1  0  0  0  0
 13 15  1  0  0  0  0
 13 37  1  0  0  0  0
 14 38  1  0  0  0  0
 14 39  1  0  0  0  0
 14 40  1  0  0  0  0
 15 16  1  0  0  0  0
 15 41  1  0  0  0  0
 16 42  1  0  0  0  0
 16 43  1  0  0  0  0
 16 44  1  0  0  0  0
 17 18  2  0  0  0  0
 17 19  1  0  0  0  0
 19 20  1  0  0  0  0
 19 22  2  0  0  0  0
 20 21  3  0  0  0  0
 22 23  1  0  0  0  0
 23 45  1  0  0  0  0
 23 46  1  0  0  0  0
 23 47  1  0  0  0  0
M  END
> <s_m_source_file>
AV-unprocessed.smi

> <i_m_source_file_index>
1662

> <i_lp_mmshare_version>
43012

> <i_f3d_flags>
0

> <s_epik_input>
TiNDYyhjMVtDSDNdKWMoPU8pbihuYzFbQ0gzXSlbQ0gyXUMoPU8pW05IXVtDQEBIXTJbQ0gyXVtDSDJdW0NIMl1bQ0BASF0oW0NIM10pW0NASF0yW0NIM10=

> <s_epik_cmdline>
J2VwaWtfcHl0aG9uJywgJy1waCcsICc3LjAnLCAnLXRuJywgJzgnLCAnLW1hJywgJzIwMCcsICctbWV0YWxfYmluZGluZycsICctaW1hZScsICc8aW5maWxlLm1hZT4nLCAnLW9tYWUnLCAnPG91dGZpbGUubWFlPic=

> <r_lp_tautomer_probability>
1

> <r_epik_Ionization_Penalty>
1.90709e-08

> <r_epik_Ionization_Penalty_Charging>
2.37982e-11

> <r_epik_Ionization_Penalty_Neutral>
1.90471e-08

> <r_epik_State_Penalty>
-0

> <r_epik_Charging_Adjusted_Penalty>
2.37982e-11

> <i_epik_Tot_Q>
0

> <i_epik_Tot_abs_Q>
0

> <r_epik_Metal_State_Penalty>
-0

> <b_epik_Metal_Only>
0

> <s_lp_Force_Field>
OPLS_2005

> <r_lp_Energy>
29.2459

> <b_lp_Chiralities_Consistent>
1

> <s_lp_Variant>
AV-unprocessed.smi:1662-2

> <Gold.Version>
5.8.1

> <Gold.Id.Protein>
6NUR|6NUR_protein|mol2

> <Gold.PLP.Fitness>
40.2093

> <Gold.PLP.PLP>
-35.5010

> <Gold.PLP.part.hbond>
-3.0000

> <Gold.PLP.part.metal>
0.0000

> <Gold.PLP.part.buried>
-5.7160

> <Gold.PLP.part.nonpolar>
-27.3694

> <Gold.PLP.part.repulsive>
0.1498

> <Gold.PLP.ligand.clash>
0.0000

> <Gold.PLP.ligand.torsion>
0.4489

> <Gold.PLP.Chemscore.Hbond>
1.8640

> <Gold.PLP.Chemscore.CHOScore>
0.0000

> <Gold.PLP.Chemscore.Metal>
0.0000

> <Gold.Chemscore.Hbonds>
donor molecule, donor type, donor heavy atom, donor atom, acceptor molecule, acceptor atom, score
      P1  H  7989  7998       L1     7  0.86
      P1  H  7997  8010       L1    18  1.00

> <Gold.PLP.Chemscore.Internal.Correction>
0.0141

> <Gold.Rescore>
     Score         DG    S(hbond)    S(metal)    S(lipo)     H(rot)  DE(clash)    DE(int)     intcor
     14.70     -15.18       1.72        0.00      65.58       1.45       0.09       0.38       ----

> <Gold.Chemscore.Fitness>
14.7027

> <Gold.Chemscore.DG>
-15.1755

> <Gold.Chemscore.ZeroCoef>
-5.4800

> <Gold.Chemscore.Hbond>
1.7172

> <Gold.Chemscore.Metal>
0.0000

> <Gold.Chemscore.Lipo>
65.5806

> <Gold.Chemscore.Internal_Hbond>
0.0000

> <Gold.Chemscore.DEClash>
0.0939

> <Gold.Chemscore.DEInternal>
0.3788

> <Gold.Chemscore.Rot>
1.4504

> <Gold.Chemscore.Internal.Correction>
   9.000000E+99

> <Gold.Chemscore.Hbonds>
donor molecule, donor type, donor heavy atom, donor atom, acceptor molecule, acceptor atom, score
      P1  H  7989  7998       L1     7  0.83
      P1  H  7997  8010       L1    18  0.59

> <Gold.Chemscore.Hbond.Weighted>
-5.7355

> <Gold.Chemscore.Metal.Weighted>
-0.0000

> <Gold.Chemscore.Lipo.Weighted>
-7.6729

> <Gold.Chemscore.Internal_Hbond.Weighted>
0.0000

> <Gold.Chemscore.DEClash.Weighted>
0.0939

> <Gold.Chemscore.DEInternal.Weighted>
0.3788

> <Gold.Chemscore.Rot.Weighted>
3.7129

> <Gold.Chemscore.Internal.Correction.Weighted>
   9.000000E+99

> <Gold.Protein.RotatedTorsions>
[ 6907 6896 6895 6894 ] final  172.03 input  -60.11 | X-H torsion
[ 7974 7965 7964 7962 ] final  167.37 input  175.53 | X-H torsion
[ 8008 7997 7996 7995 ] final   14.59 input   59.86 | X-H torsion
[ 10167 10162 10161 10158 ] final   95.15 input  -65.29 | X-H torsion
[ 10718 10713 10712 10709 ] final  118.19 input   66.30 | X-H torsion
[ 10763 10752 10751 10750 ] final  174.21 input  -60.55 | X-H torsion
[ 11005 11000 10999 10996 ] final   43.91 input  -57.11 | X-H torsion

> <Gold.Protein.ActiveResidues>
 VAL166  LYS551  ARG553  GLY616  TRP617  ASP618  TYR619  PRO620  LYS621  CYS622 
 ASP623  PHE694  ASN695  SER759  ASP760  ASP761  ALA762  ILE779  LEU786  VAL792 
 PHE793  MET794  SER795  GLU796  ALA797  LYS798  CYS799  TRP800  GLU811  SER814 

> <Gold.Protein.RotatedAtoms>
  151.7908  133.3359  159.3498 H   0  0  0  0  0  0  0  0  0  0  0  0  # atno 6907 bound_to 6896
  150.7392  134.5844  159.5965 H   0  0  0  0  0  0  0  0  0  0  0  0  # atno 6908 bound_to 6896
  152.3211  134.7380  160.0364 H   0  0  0  0  0  0  0  0  0  0  0  0  # atno 6909 bound_to 6896
  144.7427  139.8751  143.6392 H   0  0  0  0  0  0  0  0  0  0  0  0  # atno 7974 bound_to 7965
  154.8506  140.2929  155.5601 H   0  0  0  0  0  0  0  0  0  0  0  0  # atno 8008 bound_to 7997
  156.3016  140.2497  156.3396 H   0  0  0  0  0  0  0  0  0  0  0  0  # atno 8009 bound_to 7997
  154.9025  140.0391  157.1890 H   0  0  0  0  0  0  0  0  0  0  0  0  # atno 8010 bound_to 7997
  139.8016  144.6811  150.9757 H   0  0  0  0  0  0  0  0  0  0  0  0  # atno 10167 bound_to 10162
  157.6046  131.1045  150.7722 H   0  0  0  0  0  0  0  0  0  0  0  0  # atno 10718 bound_to 10713
  154.4507  135.2764  155.1783 H   0  0  0  0  0  0  0  0  0  0  0  0  # atno 10763 bound_to 10752
  154.3611  135.6129  153.5695 H   0  0  0  0  0  0  0  0  0  0  0  0  # atno 10764 bound_to 10752
  152.9847  135.5834  154.4851 H   0  0  0  0  0  0  0  0  0  0  0  0  # atno 10765 bound_to 10752
  140.1600  134.4353  155.8324 H   0  0  0  0  0  0  0  0  0  0  0  0  # atno 11005 bound_to 11000
  146.1252  139.4277  143.0203 LP  0  0  0  0  0  0  0  0  0  0  0  0  # atno 17320 bound_to 7965
  145.7245  141.0063  143.1384 LP  0  0  0  0  0  0  0  0  0  0  0  0  # atno 17321 bound_to 7965
  140.7820  143.4276  151.0745 LP  0  0  0  0  0  0  0  0  0  0  0  0  # atno 17342 bound_to 10162
  139.7947  143.8168  152.3156 LP  0  0  0  0  0  0  0  0  0  0  0  0  # atno 17343 bound_to 10162
  156.8113  130.4953  149.5355 LP  0  0  0  0  0  0  0  0  0  0  0  0  # atno 17370 bound_to 10713
  156.1129  130.6053  151.0075 LP  0  0  0  0  0  0  0  0  0  0  0  0  # atno 17371 bound_to 10713
  141.2208  133.6909  156.7577 LP  0  0  0  0  0  0  0  0  0  0  0  0  # atno 17394 bound_to 11000
  140.2501  134.8547  157.3658 LP  0  0  0  0  0  0  0  0  0  0  0  0  # atno 17395 bound_to 11000

$$$$
