AV-unprocessed.smi:3113|AV-procd|sdf|11853|dock2
  -GOLD-   2272017233D 1   1.00000     0.00000
 Structure written by MMmdl.
 35 36  0  0  0  0  0  0  0  0  2 V2000
  150.8033  137.4405  154.8553 C   0  0  0  0  0  0  0  0  0  0  0  0
  151.7544  138.4614  155.1357 C   0  0  0  0  0  0  0  0  0  0  0  0
  151.2492  139.6780  155.0081 N   0  0  0  0  0  0  0  0  0  0  0  0
  149.9660  139.4747  154.6407 N   0  0  0  0  0  0  0  0  0  0  0  0
  149.0971  140.6122  154.4110 C   0  0  0  0  0  0  0  0  0  0  0  0
  148.7560  141.3375  155.7201 C   0  0  0  0  0  0  0  0  0  0  0  0
  149.9484  141.9977  156.2848 N   0  3  0  0  0  0  0  0  0  0  0  0
  150.3112  141.5301  157.6373 C   0  0  0  0  0  0  0  0  0  0  0  0
  151.4471  142.3774  158.2278 C   0  0  1  0  0  0  0  0  0  0  0  0
  151.3815  143.8418  157.7527 C   0  0  0  0  0  0  0  0  0  0  0  0
  152.4774  144.6755  158.4264 C   0  0  0  0  0  0  0  0  0  0  0  0
  152.3968  144.5059  159.9472 C   0  0  0  0  0  0  0  0  0  0  0  0
  152.3924  143.0148  160.3208 C   0  0  0  0  0  0  0  0  0  0  0  0
  151.3282  142.3470  159.6488 O   0  0  0  0  0  0  0  0  0  0  0  0
  149.6684  138.1317  154.5407 C   0  0  0  0  0  0  0  0  0  0  0  0
  150.9344  136.3688  154.8811 H   0  0  0  0  0  0  0  0  0  0  0  0
  152.7890  138.3551  155.4274 H   0  0  0  0  0  0  0  0  0  0  0  0
  149.5893  141.2914  153.7131 H   0  0  0  0  0  0  0  0  0  0  0  0
  148.1879  140.2599  153.9221 H   0  0  0  0  0  0  0  0  0  0  0  0
  147.9820  142.0851  155.5407 H   0  0  0  0  0  0  0  0  0  0  0  0
  148.3606  140.6305  156.4508 H   0  0  0  0  0  0  0  0  0  0  0  0
  150.7316  141.8279  155.6694 H   0  0  0  0  0  0  0  0  0  0  0  0
  149.4298  141.5982  158.2764 H   0  0  0  0  0  0  0  0  0  0  0  0
  150.6015  140.4791  157.5996 H   0  0  0  0  0  0  0  0  0  0  0  0
  152.4050  141.9447  157.9325 H   0  0  0  0  0  0  0  0  0  0  0  0
  151.4890  143.8942  156.6687 H   0  0  0  0  0  0  0  0  0  0  0  0
  150.4040  144.2638  157.9905 H   0  0  0  0  0  0  0  0  0  0  0  0
  153.4562  144.3506  158.0715 H   0  0  0  0  0  0  0  0  0  0  0  0
  152.3785  145.7267  158.1547 H   0  0  0  0  0  0  0  0  0  0  0  0
  153.2333  145.0135  160.4284 H   0  0  0  0  0  0  0  0  0  0  0  0
  151.4872  144.9777  160.3215 H   0  0  0  0  0  0  0  0  0  0  0  0
  153.3453  142.5469  160.0690 H   0  0  0  0  0  0  0  0  0  0  0  0
  152.2568  142.8993  161.3963 H   0  0  0  0  0  0  0  0  0  0  0  0
  148.6858  137.7829  154.2589 H   0  0  0  0  0  0  0  0  0  0  0  0
  149.7778  142.9924  156.3236 H   0  0  0  0  0  0  0  0  0  0  0  0
  1 15  2  0  0  0  0
  1  2  1  0  0  0  0
  1 16  1  0  0  0  0
  2  3  2  0  0  0  0
  2 17  1  0  0  0  0
  3  4  1  0  0  0  0
  4  5  1  0  0  0  0
  4 15  1  0  0  0  0
  5  6  1  0  0  0  0
  5 18  1  0  0  0  0
  5 19  1  0  0  0  0
  6  7  1  0  0  0  0
  6 20  1  0  0  0  0
  6 21  1  0  0  0  0
  7  8  1  0  0  0  0
  7 22  1  0  0  0  0
  7 35  1  0  0  0  0
  8  9  1  0  0  0  0
  8 23  1  0  0  0  0
  8 24  1  0  0  0  0
  9 14  1  0  0  0  0
  9 10  1  0  0  0  0
  9 25  1  0  0  0  0
 10 11  1  0  0  0  0
 10 26  1  0  0  0  0
 10 27  1  0  0  0  0
 11 12  1  0  0  0  0
 11 28  1  0  0  0  0
 11 29  1  0  0  0  0
 12 13  1  0  0  0  0
 12 30  1  0  0  0  0
 12 31  1  0  0  0  0
 13 14  1  0  0  0  0
 13 32  1  0  0  0  0
 13 33  1  0  0  0  0
 15 34  1  0  0  0  0
M  CHG  1   7   1
M  END
> <s_m_source_file>
AV-unprocessed.smi

> <i_m_source_file_index>
3113

> <i_lp_mmshare_version>
43012

> <i_f3d_flags>
0

> <s_epik_input>
W2NIXTFbY0hdW2NIXW5uMVtDSDJdW0NIMl1bTkhdW0NIMl1bQ0BASF0yW0NIMl1bQ0gyXVtDSDJdW0NIMl1PMg==

> <s_epik_cmdline>
J2VwaWtfcHl0aG9uJywgJy1waCcsICc3LjAnLCAnLXRuJywgJzgnLCAnLW1hJywgJzIwMCcsICctbWV0YWxfYmluZGluZycsICctaW1hZScsICc8aW5maWxlLm1hZT4nLCAnLW9tYWUnLCAnPG91dGZpbGUubWFlPic=

> <r_lp_tautomer_probability>
1

> <r_epik_Ionization_Penalty>
0.00849054

> <r_epik_Ionization_Penalty_Charging>
0.00848754

> <r_epik_Ionization_Penalty_Neutral>
3.00382e-06

> <r_epik_State_Penalty>
0.00639836

> <r_epik_Charging_Adjusted_Penalty>
0.0148859

> <i_epik_Tot_Q>
1

> <i_epik_Tot_abs_Q>
1

> <r_epik_Metal_State_Penalty>
0.00641155

> <b_epik_Metal_Only>
0

> <s_lp_Force_Field>
OPLS_2005

> <r_lp_Energy>
10.7636

> <b_lp_Chiralities_Consistent>
1

> <s_lp_Variant>
AV-unprocessed.smi:3113-2

> <Gold.Version>
5.8.1

> <Gold.Id.Protein>
6NUR|6NUR_protein|mol2

> <Gold.PLP.Fitness>
47.3621

> <Gold.PLP.PLP>
-39.0674

> <Gold.PLP.part.hbond>
-2.1236

> <Gold.PLP.part.metal>
0.0000

> <Gold.PLP.part.buried>
-3.1517

> <Gold.PLP.part.nonpolar>
-34.1426

> <Gold.PLP.part.repulsive>
0.1608

> <Gold.PLP.ligand.clash>
0.0000

> <Gold.PLP.ligand.torsion>
0.8258

> <Gold.PLP.Chemscore.Hbond>
2.8500

> <Gold.PLP.Chemscore.CHOScore>
0.4478

> <Gold.PLP.Chemscore.Metal>
0.0000

> <Gold.Chemscore.Hbonds>
donor molecule, donor type, donor heavy atom, donor atom, acceptor molecule, acceptor atom, score
      L1  H     7    35       P1  8028  1.89
      P1  H  7989  7998       L1     3  0.70
      L1  C    15    34       P1  7948  0.10

> <Gold.PLP.Chemscore.Internal.Correction>
0.0528

> <Gold.Rescore>
     Score         DG    S(hbond)    S(metal)    S(lipo)     H(rot)  DE(clash)    DE(int)     intcor
     17.77     -18.66       1.93        0.00      94.80       1.70       0.00       0.88       ----

> <Gold.Chemscore.Fitness>
17.7721

> <Gold.Chemscore.DG>
-18.6587

> <Gold.Chemscore.ZeroCoef>
-5.4800

> <Gold.Chemscore.Hbond>
1.9267

> <Gold.Chemscore.Metal>
0.0000

> <Gold.Chemscore.Lipo>
94.8029

> <Gold.Chemscore.Internal_Hbond>
0.0000

> <Gold.Chemscore.DEClash>
0.0047

> <Gold.Chemscore.DEInternal>
0.8820

> <Gold.Chemscore.Rot>
1.6985

> <Gold.Chemscore.Internal.Correction>
   9.000000E+99

> <Gold.Chemscore.Hbonds>
donor molecule, donor type, donor heavy atom, donor atom, acceptor molecule, acceptor atom, score
      L1  H     7    35       P1  8028  0.87
      P1  H  7989  7998       L1     3  0.07

> <Gold.Chemscore.Hbond.Weighted>
-6.4350

> <Gold.Chemscore.Metal.Weighted>
-0.0000

> <Gold.Chemscore.Lipo.Weighted>
-11.0919

> <Gold.Chemscore.Internal_Hbond.Weighted>
0.0000

> <Gold.Chemscore.DEClash.Weighted>
0.0047

> <Gold.Chemscore.DEInternal.Weighted>
0.8820

> <Gold.Chemscore.Rot.Weighted>
4.3482

> <Gold.Chemscore.Internal.Correction.Weighted>
   9.000000E+99

> <Gold.Protein.RotatedTorsions>
[ 6907 6896 6895 6894 ] final  -53.67 input  -60.11 | X-H torsion
[ 7974 7965 7964 7962 ] final -150.61 input  175.53 | X-H torsion
[ 8008 7997 7996 7995 ] final   38.50 input   59.86 | X-H torsion
[ 10167 10162 10161 10158 ] final  -97.60 input  -65.29 | X-H torsion
[ 10718 10713 10712 10709 ] final   59.25 input   66.30 | X-H torsion
[ 10763 10752 10751 10750 ] final -155.67 input  -60.55 | X-H torsion
[ 11005 11000 10999 10996 ] final  -57.98 input  -57.11 | X-H torsion

> <Gold.Protein.ActiveResidues>
 VAL166  LYS551  ARG553  GLY616  TRP617  ASP618  TYR619  PRO620  LYS621  CYS622 
 ASP623  PHE694  ASN695  SER759  ASP760  ASP761  ALA762  ILE779  LEU786  VAL792 
 PHE793  MET794  SER795  GLU796  ALA797  LYS798  CYS799  TRP800  GLU811  SER814 

> <Gold.Protein.RotatedAtoms>
  150.8406  134.7697  159.6929 H   0  0  0  0  0  0  0  0  0  0  0  0  # atno 6907 bound_to 6896
  152.4494  134.5422  159.9852 H   0  0  0  0  0  0  0  0  0  0  0  0  # atno 6908 bound_to 6896
  151.5563  133.3372  159.2998 H   0  0  0  0  0  0  0  0  0  0  0  0  # atno 6909 bound_to 6896
  144.7897  140.4908  143.5781 H   0  0  0  0  0  0  0  0  0  0  0  0  # atno 7974 bound_to 7965
  155.2213  140.3331  155.4315 H   0  0  0  0  0  0  0  0  0  0  0  0  # atno 8008 bound_to 7997
  156.2332  140.1860  156.7235 H   0  0  0  0  0  0  0  0  0  0  0  0  # atno 8009 bound_to 7997
  154.6014  140.0622  156.9358 H   0  0  0  0  0  0  0  0  0  0  0  0  # atno 8010 bound_to 7997
  140.2817  143.3277  152.0434 H   0  0  0  0  0  0  0  0  0  0  0  0  # atno 10167 bound_to 10162
  157.5661  130.8872  149.9189 H   0  0  0  0  0  0  0  0  0  0  0  0  # atno 10718 bound_to 10713
  154.7770  135.3162  154.8071 H   0  0  0  0  0  0  0  0  0  0  0  0  # atno 10763 bound_to 10752
  153.8792  135.6836  153.4772 H   0  0  0  0  0  0  0  0  0  0  0  0  # atno 10764 bound_to 10752
  153.1396  135.4745  154.9412 H   0  0  0  0  0  0  0  0  0  0  0  0  # atno 10765 bound_to 10752
  141.1188  133.6611  156.4851 H   0  0  0  0  0  0  0  0  0  0  0  0  # atno 11005 bound_to 11000
  145.5826  139.1490  143.3226 LP  0  0  0  0  0  0  0  0  0  0  0  0  # atno 17320 bound_to 7965
  146.2144  140.5956  142.9045 LP  0  0  0  0  0  0  0  0  0  0  0  0  # atno 17321 bound_to 7965
  139.4961  144.6587  151.6515 LP  0  0  0  0  0  0  0  0  0  0  0  0  # atno 17342 bound_to 10162
  140.5806  143.9953  150.6266 LP  0  0  0  0  0  0  0  0  0  0  0  0  # atno 17343 bound_to 10162
  156.0709  130.3685  150.0778 LP  0  0  0  0  0  0  0  0  0  0  0  0  # atno 17370 bound_to 10713
  156.8937  130.9597  151.3585 LP  0  0  0  0  0  0  0  0  0  0  0  0  # atno 17371 bound_to 10713
  140.4569  134.6877  157.5067 LP  0  0  0  0  0  0  0  0  0  0  0  0  # atno 17394 bound_to 11000
  140.0129  134.6663  155.9354 LP  0  0  0  0  0  0  0  0  0  0  0  0  # atno 17395 bound_to 11000

$$$$
