AV-unprocessed.smi:3331|AV-procd|sdf|12827|dock4
  -GOLD-   2272019203D 1   1.00000     0.00000
 Structure written by MMmdl.
 46 47  0  0  0  0  0  0  0  0  1 V2000
  146.8235  140.4217  152.4448 C   0  0  0  0  0  0  0  0  0  0  0  0
  147.4740  140.3457  153.8328 C   0  0  2  0  0  0  0  0  0  0  0  0
  146.4645  140.6843  154.9534 C   0  0  0  0  0  0  0  0  0  0  0  0
  147.1265  140.7441  156.3494 C   0  0  2  0  0  0  0  0  0  0  0  0
  146.1349  141.2091  157.4245 C   0  0  0  0  0  0  0  0  0  0  0  0
  148.3841  141.6383  156.3081 C   0  0  0  0  0  0  0  0  0  0  0  0
  149.2877  141.1179  155.2745 N   0  0  0  0  0  0  0  0  0  0  0  0
  150.4277  140.4478  155.5783 C   0  0  0  0  0  0  0  0  0  0  0  0
  151.0990  139.8831  154.7117 O   0  0  0  0  0  0  0  0  0  0  0  0
  150.9313  140.3905  157.0406 C   0  0  1  0  0  0  0  0  0  0  0  0
  152.1515  139.4613  157.1397 C   0  0  0  0  0  0  0  0  0  0  0  0
  151.2827  141.7186  157.5722 N   0  0  0  0  0  0  0  0  0  0  0  0
  151.9163  141.6648  158.8870 C   0  0  0  0  0  0  0  0  0  0  0  0
  152.4316  143.0588  159.2773 C   0  0  0  0  0  0  0  0  0  0  0  0
  152.6595  143.1664  160.7074 N   0  0  0  0  0  0  0  0  0  0  0  0
  152.2059  144.1343  161.5789 C   0  0  0  0  0  0  0  0  0  0  0  0
  152.6550  143.8016  162.8247 C   0  0  0  0  0  0  0  0  0  0  0  0
  153.3836  142.5981  162.6107 C   0  0  0  0  0  0  0  0  0  0  0  0
  153.3860  142.2213  161.3423 N   0  0  0  0  0  0  0  0  0  0  0  0
  148.7008  141.2738  153.9382 C   0  0  0  0  0  0  0  0  0  0  0  0
  146.4659  141.4289  152.2284 H   0  0  0  0  0  0  0  0  0  0  0  0
  145.9728  139.7434  152.3727 H   0  0  0  0  0  0  0  0  0  0  0  0
  147.5327  140.1451  151.6643 H   0  0  0  0  0  0  0  0  0  0  0  0
  147.8133  139.3192  153.9812 H   0  0  0  0  0  0  0  0  0  0  0  0
  146.0039  141.6495  154.7372 H   0  0  0  0  0  0  0  0  0  0  0  0
  145.6549  139.9536  154.9570 H   0  0  0  0  0  0  0  0  0  0  0  0
  147.4448  139.7339  156.6127 H   0  0  0  0  0  0  0  0  0  0  0  0
  145.7743  142.2182  157.2222 H   0  0  0  0  0  0  0  0  0  0  0  0
  146.5995  141.2132  158.4111 H   0  0  0  0  0  0  0  0  0  0  0  0
  145.2687  140.5483  157.4711 H   0  0  0  0  0  0  0  0  0  0  0  0
  148.1123  142.6685  156.0729 H   0  0  0  0  0  0  0  0  0  0  0  0
  148.8490  141.6764  157.2943 H   0  0  0  0  0  0  0  0  0  0  0  0
  150.1504  139.9997  157.6917 H   0  0  0  0  0  0  0  0  0  0  0  0
  151.9253  138.4607  156.7697 H   0  0  0  0  0  0  0  0  0  0  0  0
  152.4802  139.3578  158.1742 H   0  0  0  0  0  0  0  0  0  0  0  0
  152.9938  139.8448  156.5620 H   0  0  0  0  0  0  0  0  0  0  0  0
  151.8680  142.2391  156.9349 H   0  0  0  0  0  0  0  0  0  0  0  0
  151.2342  141.3048  159.6579 H   0  0  0  0  0  0  0  0  0  0  0  0
  152.7443  140.9566  158.8453 H   0  0  0  0  0  0  0  0  0  0  0  0
  153.3721  143.2635  158.7641 H   0  0  0  0  0  0  0  0  0  0  0  0
  151.7313  143.8360  158.9681 H   0  0  0  0  0  0  0  0  0  0  0  0
  151.6029  144.9656  161.2441 H   0  0  0  0  0  0  0  0  0  0  0  0
  152.4857  144.3344  163.7485 H   0  0  0  0  0  0  0  0  0  0  0  0
  153.9074  141.9910  163.3343 H   0  0  0  0  0  0  0  0  0  0  0  0
  149.4041  141.0908  153.1283 H   0  0  0  0  0  0  0  0  0  0  0  0
  148.3918  142.3116  153.8034 H   0  0  0  0  0  0  0  0  0  0  0  0
  1  2  1  0  0  0  0
  1 21  1  0  0  0  0
  1 22  1  0  0  0  0
  1 23  1  0  0  0  0
  2 20  1  0  0  0  0
  2  3  1  0  0  0  0
  2 24  1  0  0  0  0
  3  4  1  0  0  0  0
  3 25  1  0  0  0  0
  3 26  1  0  0  0  0
  4  5  1  0  0  0  0
  4  6  1  0  0  0  0
  4 27  1  0  0  0  0
  5 28  1  0  0  0  0
  5 29  1  0  0  0  0
  5 30  1  0  0  0  0
  6  7  1  0  0  0  0
  6 31  1  0  0  0  0
  6 32  1  0  0  0  0
  7  8  1  0  0  0  0
  7 20  1  0  0  0  0
  8  9  2  0  0  0  0
  8 10  1  0  0  0  0
 10 11  1  0  0  0  0
 10 12  1  0  0  0  0
 10 33  1  0  0  0  0
 11 34  1  0  0  0  0
 11 35  1  0  0  0  0
 11 36  1  0  0  0  0
 12 13  1  0  0  0  0
 12 37  1  0  0  0  0
 13 14  1  0  0  0  0
 13 38  1  0  0  0  0
 13 39  1  0  0  0  0
 14 15  1  0  0  0  0
 14 40  1  0  0  0  0
 14 41  1  0  0  0  0
 15 19  1  0  0  0  0
 15 16  1  0  0  0  0
 16 17  2  0  0  0  0
 16 42  1  0  0  0  0
 17 18  1  0  0  0  0
 17 43  1  0  0  0  0
 18 19  2  0  0  0  0
 18 44  1  0  0  0  0
 20 45  1  0  0  0  0
 20 46  1  0  0  0  0
M  END
> <s_m_source_file>
AV-unprocessed.smi

> <i_m_source_file_index>
3331

> <i_lp_mmshare_version>
43012

> <i_f3d_flags>
0

> <s_epik_input>
W0NIM11bQ0BASF0xW0NIMl1bQ0BASF0oW0NIM10pW0NIMl1OKFtDSDJdMSlDKD1PKVtDQEhdKFtDSDNdKVtOSF1bQ0gyXVtDSDJdbjJbY0hdW2NIXVtjSF1uMg==

> <s_epik_cmdline>
J2VwaWtfcHl0aG9uJywgJy1waCcsICc3LjAnLCAnLXRuJywgJzgnLCAnLW1hJywgJzIwMCcsICctbWV0YWxfYmluZGluZycsICctaW1hZScsICc8aW5maWxlLm1hZT4nLCAnLW9tYWUnLCAnPG91dGZpbGUubWFlPic=

> <r_lp_tautomer_probability>
1

> <r_epik_Ionization_Penalty>
0.767994

> <r_epik_Ionization_Penalty_Charging>
0

> <r_epik_Ionization_Penalty_Neutral>
0.767994

> <r_epik_State_Penalty>
0.795453

> <r_epik_Charging_Adjusted_Penalty>
0.795453

> <i_epik_Tot_Q>
0

> <i_epik_Tot_abs_Q>
0

> <r_epik_Metal_State_Penalty>
0.794784

> <b_epik_Metal_Only>
0

> <s_lp_Force_Field>
OPLS_2005

> <r_lp_Energy>
28.4318

> <b_lp_Chiralities_Consistent>
1

> <s_lp_Variant>
AV-unprocessed.smi:3331-11

> <Gold.Version>
5.8.1

> <Gold.Id.Protein>
6NUR|6NUR_protein|mol2

> <Gold.PLP.Fitness>
41.6937

> <Gold.PLP.PLP>
-39.1973

> <Gold.PLP.part.hbond>
-1.0000

> <Gold.PLP.part.metal>
0.0000

> <Gold.PLP.part.buried>
0.0486

> <Gold.PLP.part.nonpolar>
-37.3871

> <Gold.PLP.part.repulsive>
0.0905

> <Gold.PLP.ligand.clash>
0.0000

> <Gold.PLP.ligand.torsion>
0.2957

> <Gold.PLP.Chemscore.Hbond>
1.0000

> <Gold.PLP.Chemscore.CHOScore>
0.0000

> <Gold.PLP.Chemscore.Metal>
0.0000

> <Gold.Chemscore.Hbonds>
donor molecule, donor type, donor heavy atom, donor atom, acceptor molecule, acceptor atom, score
      P1  H  7989  7998       L1     9  1.00

> <Gold.PLP.Chemscore.Internal.Correction>
0.0879

> <Gold.Rescore>
     Score         DG    S(hbond)    S(metal)    S(lipo)     H(rot)  DE(clash)    DE(int)     intcor
     15.17     -16.02       0.95        0.00      99.32       1.66       0.55       0.29       ----

> <Gold.Chemscore.Fitness>
15.1725

> <Gold.Chemscore.DG>
-16.0182

> <Gold.Chemscore.ZeroCoef>
-5.4800

> <Gold.Chemscore.Hbond>
0.9519

> <Gold.Chemscore.Metal>
0.0000

> <Gold.Chemscore.Lipo>
99.3228

> <Gold.Chemscore.Internal_Hbond>
0.0000

> <Gold.Chemscore.DEClash>
0.5543

> <Gold.Chemscore.DEInternal>
0.2913

> <Gold.Chemscore.Rot>
1.6649

> <Gold.Chemscore.Internal.Correction>
   9.000000E+99

> <Gold.Chemscore.Hbonds>
donor molecule, donor type, donor heavy atom, donor atom, acceptor molecule, acceptor atom, score
      P1  H  7989  7998       L1     9  0.90

> <Gold.Chemscore.Hbond.Weighted>
-3.1795

> <Gold.Chemscore.Metal.Weighted>
-0.0000

> <Gold.Chemscore.Lipo.Weighted>
-11.6208

> <Gold.Chemscore.Internal_Hbond.Weighted>
0.0000

> <Gold.Chemscore.DEClash.Weighted>
0.5543

> <Gold.Chemscore.DEInternal.Weighted>
0.2913

> <Gold.Chemscore.Rot.Weighted>
4.2621

> <Gold.Chemscore.Internal.Correction.Weighted>
   9.000000E+99

> <Gold.Protein.RotatedTorsions>
[ 6907 6896 6895 6894 ] final   10.91 input  -60.11 | X-H torsion
[ 7974 7965 7964 7962 ] final -136.25 input  175.53 | X-H torsion
[ 8008 7997 7996 7995 ] final -165.94 input   59.86 | X-H torsion
[ 10167 10162 10161 10158 ] final -129.76 input  -65.29 | X-H torsion
[ 10718 10713 10712 10709 ] final   80.65 input   66.30 | X-H torsion
[ 10763 10752 10751 10750 ] final  156.41 input  -60.55 | X-H torsion
[ 11005 11000 10999 10996 ] final    2.31 input  -57.11 | X-H torsion

> <Gold.Protein.ActiveResidues>
 VAL166  LYS551  ARG553  GLY616  TRP617  ASP618  TYR619  PRO620  LYS621  CYS622 
 ASP623  PHE694  ASN695  SER759  ASP760  ASP761  ALA762  ILE779  LEU786  VAL792 
 PHE793  MET794  SER795  GLU796  ALA797  LYS798  CYS799  TRP800  GLU811  SER814 

> <Gold.Protein.RotatedAtoms>
  151.7458  135.0844  160.0322 H   0  0  0  0  0  0  0  0  0  0  0  0  # atno 6907 bound_to 6896
  152.3449  133.6106  159.5911 H   0  0  0  0  0  0  0  0  0  0  0  0  # atno 6908 bound_to 6896
  150.7503  133.9580  159.3548 H   0  0  0  0  0  0  0  0  0  0  0  0  # atno 6909 bound_to 6896
  144.8943  140.6685  143.5125 H   0  0  0  0  0  0  0  0  0  0  0  0  # atno 7974 bound_to 7965
  155.8568  140.0972  157.1639 H   0  0  0  0  0  0  0  0  0  0  0  0  # atno 8008 bound_to 7997
  154.3988  140.1372  156.3974 H   0  0  0  0  0  0  0  0  0  0  0  0  # atno 8009 bound_to 7997
  155.7900  140.3456  155.5347 H   0  0  0  0  0  0  0  0  0  0  0  0  # atno 8010 bound_to 7997
  139.9364  143.6213  152.2516 H   0  0  0  0  0  0  0  0  0  0  0  0  # atno 10167 bound_to 10162
  157.6812  130.9969  150.2111 H   0  0  0  0  0  0  0  0  0  0  0  0  # atno 10718 bound_to 10713
  154.1839  135.2798  155.3043 H   0  0  0  0  0  0  0  0  0  0  0  0  # atno 10763 bound_to 10752
  154.5981  135.5538  153.7350 H   0  0  0  0  0  0  0  0  0  0  0  0  # atno 10764 bound_to 10752
  153.0130  135.6385  154.1978 H   0  0  0  0  0  0  0  0  0  0  0  0  # atno 10765 bound_to 10752
  140.6057  133.9794  155.8153 H   0  0  0  0  0  0  0  0  0  0  0  0  # atno 11005 bound_to 11000
  145.3728  139.1655  143.4323 LP  0  0  0  0  0  0  0  0  0  0  0  0  # atno 17320 bound_to 7965
  146.3072  140.3801  142.8683 LP  0  0  0  0  0  0  0  0  0  0  0  0  # atno 17321 bound_to 7965
  139.6740  144.7659  151.1730 LP  0  0  0  0  0  0  0  0  0  0  0  0  # atno 17342 bound_to 10162
  140.7623  143.5823  150.8882 LP  0  0  0  0  0  0  0  0  0  0  0  0  # atno 17343 bound_to 10162
  156.2782  130.3730  149.7962 LP  0  0  0  0  0  0  0  0  0  0  0  0  # atno 17370 bound_to 10713
  156.5659  130.8403  151.3342 LP  0  0  0  0  0  0  0  0  0  0  0  0  # atno 17371 bound_to 10713
  141.0842  134.0016  157.3339 LP  0  0  0  0  0  0  0  0  0  0  0  0  # atno 17394 bound_to 11000
  139.9213  135.0200  156.8074 LP  0  0  0  0  0  0  0  0  0  0  0  0  # atno 17395 bound_to 11000

$$$$
