AV-unprocessed.smi:54|AV-procd|sdf|543|dock3
  -GOLD-   2262016433D 1   1.00000     0.00000
 Structure written by MMmdl.
 44 46  0  0  0  0  0  0  0  0  1 V2000
  147.2471  134.6305  161.7806 C   0  0  0  0  0  0  0  0  0  0  0  0
  147.6310  136.0390  161.2996 C   0  0  0  0  0  0  0  0  0  0  0  0
  146.3850  136.9118  161.0775 C   0  0  0  0  0  0  0  0  0  0  0  0
  148.4721  135.9610  160.0204 C   0  0  0  0  0  0  0  0  0  0  0  0
  148.6614  134.8980  159.4276 O   0  0  0  0  0  0  0  0  0  0  0  0
  149.0198  137.2245  159.5585 N   0  0  0  0  0  0  0  0  0  0  0  0
  149.7850  137.4392  158.4629 C   0  0  0  0  0  0  0  0  0  0  0  0
  149.7612  138.5688  157.7703 N   0  0  0  0  0  0  0  0  0  0  0  0
  150.6144  138.6005  156.7019 C   0  0  0  0  0  0  0  0  0  0  0  0
  151.4559  137.5879  156.2927 C   0  0  0  0  0  0  0  0  0  0  0  0
  152.1650  137.9819  155.1647 N   0  0  0  0  0  0  0  0  0  0  0  0
  151.7430  139.1938  154.9332 C   0  0  0  0  0  0  0  0  0  0  0  0
  150.8071  139.6536  155.8326 N   0  0  0  0  0  0  0  0  0  0  0  0
  150.0892  140.9729  155.8893 C   0  0  2  0  0  0  0  0  0  0  0  0
  149.2591  140.9785  157.0093 O   0  0  0  0  0  0  0  0  0  0  0  0
  147.9205  140.5903  156.6737 C   0  0  1  0  0  0  0  0  0  0  0  0
  146.9753  141.6815  157.2045 C   0  0  0  0  0  0  0  0  0  0  0  0
  146.9479  142.7754  156.3127 O   0  0  0  0  0  0  0  0  0  0  0  0
  147.8819  140.4722  155.1357 C   0  0  2  0  0  0  0  0  0  0  0  0
  147.8660  139.1055  154.7626 O   0  0  0  0  0  0  0  0  0  0  0  0
  149.1548  141.1825  154.6926 C   0  0  2  0  0  0  0  0  0  0  0  0
  149.6500  140.7438  153.4398 O   0  0  0  0  0  0  0  0  0  0  0  0
  151.4850  136.3544  157.0242 C   0  0  0  0  0  0  0  0  0  0  0  0
  152.1636  135.3535  156.8040 O   0  0  0  0  0  0  0  0  0  0  0  0
  150.6046  136.3658  158.1141 N   0  0  0  0  0  0  0  0  0  0  0  0
  150.8841  141.7150  155.9734 H   0  0  0  0  0  0  0  0  0  0  0  0
  147.6740  139.6344  157.1388 H   0  0  0  0  0  0  0  0  0  0  0  0
  147.0003  140.9416  154.6978 H   0  0  0  0  0  0  0  0  0  0  0  0
  148.9579  142.2535  154.6296 H   0  0  0  0  0  0  0  0  0  0  0  0
  148.1306  134.0104  161.9381 H   0  0  0  0  0  0  0  0  0  0  0  0
  146.6064  134.1206  161.0597 H   0  0  0  0  0  0  0  0  0  0  0  0
  146.7076  134.6755  162.7270 H   0  0  0  0  0  0  0  0  0  0  0  0
  148.2361  136.5081  162.0771 H   0  0  0  0  0  0  0  0  0  0  0  0
  146.6552  137.9066  160.7217 H   0  0  0  0  0  0  0  0  0  0  0  0
  145.8274  137.0376  162.0059 H   0  0  0  0  0  0  0  0  0  0  0  0
  145.7091  136.4685  160.3447 H   0  0  0  0  0  0  0  0  0  0  0  0
  148.7878  138.0347  160.1139 H   0  0  0  0  0  0  0  0  0  0  0  0
  152.1091  139.7762  154.1013 H   0  0  0  0  0  0  0  0  0  0  0  0
  145.9685  141.2945  157.3638 H   0  0  0  0  0  0  0  0  0  0  0  0
  147.3328  142.0586  158.1630 H   0  0  0  0  0  0  0  0  0  0  0  0
  147.8337  143.0753  156.1768 H   0  0  0  0  0  0  0  0  0  0  0  0
  148.4503  138.9922  154.0281 H   0  0  0  0  0  0  0  0  0  0  0  0
  148.9636  140.2673  152.9976 H   0  0  0  0  0  0  0  0  0  0  0  0
  150.5762  135.5290  158.6782 H   0  0  0  0  0  0  0  0  0  0  0  0
  1  2  1  0  0  0  0
  1 30  1  0  0  0  0
  1 31  1  0  0  0  0
  1 32  1  0  0  0  0
  2  3  1  0  0  0  0
  2  4  1  0  0  0  0
  2 33  1  0  0  0  0
  3 34  1  0  0  0  0
  3 35  1  0  0  0  0
  3 36  1  0  0  0  0
  4  5  2  0  0  0  0
  4  6  1  0  0  0  0
  6 37  1  0  0  0  0
  6  7  1  0  0  0  0
  7 25  1  0  0  0  0
  7  8  2  0  0  0  0
  8  9  1  0  0  0  0
  9 13  1  0  0  0  0
  9 10  2  0  0  0  0
 10 11  1  0  0  0  0
 10 23  1  0  0  0  0
 11 12  2  0  0  0  0
 12 13  1  0  0  0  0
 12 38  1  0  0  0  0
 13 14  1  0  0  0  0
 14 26  1  0  0  0  0
 14 21  1  0  0  0  0
 14 15  1  0  0  0  0
 15 16  1  0  0  0  0
 16 27  1  0  0  0  0
 16 17  1  0  0  0  0
 16 19  1  0  0  0  0
 17 18  1  0  0  0  0
 17 39  1  0  0  0  0
 17 40  1  0  0  0  0
 18 41  1  0  0  0  0
 19 28  1  0  0  0  0
 19 20  1  0  0  0  0
 19 21  1  0  0  0  0
 20 42  1  0  0  0  0
 21 29  1  0  0  0  0
 21 22  1  0  0  0  0
 22 43  1  0  0  0  0
 23 24  2  0  0  0  0
 23 25  1  0  0  0  0
 25 44  1  0  0  0  0
M  END
> <s_m_source_file>
AV-unprocessed.smi

> <i_m_source_file_index>
54

> <i_lp_mmshare_version>
43012

> <i_f3d_flags>
0

> <s_epik_input>
W0NIM11bQ0hdKFtDSDNdKUMoPU8pW05IXWMobjEpW25IXWMoPU8pYyhjMTIpbltjSF1uMltDQEBIXTNPW0NASF0oW0NIMl1bT0hdKVtDQEBIXShbT0hdKVtDQEhdM1tPSF0=

> <s_epik_cmdline>
J2VwaWtfcHl0aG9uJywgJy1waCcsICc3LjAnLCAnLXRuJywgJzgnLCAnLW1hJywgJzIwMCcsICctbWV0YWxfYmluZGluZycsICctaW1hZScsICc8aW5maWxlLm1hZT4nLCAnLW9tYWUnLCAnPG91dGZpbGUubWFlPic=

> <r_lp_tautomer_probability>
0.85571

> <r_epik_Ionization_Penalty>
0.0316551

> <r_epik_Ionization_Penalty_Charging>
0.0316043

> <r_epik_Ionization_Penalty_Neutral>
5.07097e-05

> <r_epik_State_Penalty>
3.15494e-07

> <r_epik_Charging_Adjusted_Penalty>
0.0316047

> <i_epik_Tot_Q>
0

> <i_epik_Tot_abs_Q>
0

> <r_epik_Metal_State_Penalty>
0.421206

> <b_epik_Metal_Only>
0

> <s_epik_Chemistry_Notes>
This compound contains an acetal/aminal-like group ( X-CH(R)-Y where X, Y are N, S, or O) that may be acid/base labile, releasing an aldehyde.

> <s_lp_Force_Field>
OPLS_2005

> <r_lp_Energy>
46.2687

> <b_lp_Chiralities_Consistent>
1

> <s_lp_Variant>
AV-unprocessed.smi:54-15

> <Gold.Version>
5.8.1

> <Gold.Id.Protein>
6NUR|6NUR_protein|mol2

> <Gold.PLP.Fitness>
41.4413

> <Gold.PLP.PLP>
-29.0860

> <Gold.PLP.part.hbond>
-5.2252

> <Gold.PLP.part.metal>
0.0000

> <Gold.PLP.part.buried>
-2.3505

> <Gold.PLP.part.nonpolar>
-22.2141

> <Gold.PLP.part.repulsive>
1.0754

> <Gold.PLP.ligand.clash>
0.0002

> <Gold.PLP.ligand.torsion>
0.5302

> <Gold.PLP.Chemscore.Hbond>
4.4240

> <Gold.PLP.Chemscore.CHOScore>
0.0000

> <Gold.PLP.Chemscore.Metal>
0.0000

> <Gold.Chemscore.Hbonds>
donor molecule, donor type, donor heavy atom, donor atom, acceptor molecule, acceptor atom, score
      L1  H    18    41       P1  8028  0.80
      L1  H    22    43       P1  7957  0.10
      P1  H  6896  6907       L1     5  1.00
      P1  H  7989  7998       L1    22  0.34
      P1  H  8011  8017       L1    22  1.00
      P1  H 10752 10763       L1    24  1.00

> <Gold.PLP.Chemscore.Internal.Correction>
0.1439

> <Gold.Rescore>
     Score         DG    S(hbond)    S(metal)    S(lipo)     H(rot)  DE(clash)    DE(int)     intcor
      4.40      -9.33       2.85        0.00      40.26       4.05       0.56       4.37       ----

> <Gold.Chemscore.Fitness>
4.3962

> <Gold.Chemscore.DG>
-9.3297

> <Gold.Chemscore.ZeroCoef>
-5.4800

> <Gold.Chemscore.Hbond>
2.8458

> <Gold.Chemscore.Metal>
0.0000

> <Gold.Chemscore.Lipo>
40.2638

> <Gold.Chemscore.Internal_Hbond>
0.0000

> <Gold.Chemscore.DEClash>
0.5612

> <Gold.Chemscore.DEInternal>
4.3722

> <Gold.Chemscore.Rot>
4.0493

> <Gold.Chemscore.Internal.Correction>
   9.000000E+99

> <Gold.Chemscore.Hbonds>
donor molecule, donor type, donor heavy atom, donor atom, acceptor molecule, acceptor atom, score
      L1  H    18    41       P1  8028  0.20
      L1  H    22    43       P1  7957  0.12
      P1  H  6896  6907       L1     5  0.56
      P1  H  7989  7998       L1    22  0.24
      P1  H  8011  8017       L1    22  0.16
      P1  H 10752 10763       L1    24  0.95

> <Gold.Chemscore.Hbond.Weighted>
-9.5050

> <Gold.Chemscore.Metal.Weighted>
-0.0000

> <Gold.Chemscore.Lipo.Weighted>
-4.7109

> <Gold.Chemscore.Internal_Hbond.Weighted>
0.0000

> <Gold.Chemscore.DEClash.Weighted>
0.5612

> <Gold.Chemscore.DEInternal.Weighted>
4.3722

> <Gold.Chemscore.Rot.Weighted>
10.3662

> <Gold.Chemscore.Internal.Correction.Weighted>
   9.000000E+99

> <Gold.Protein.RotatedTorsions>
[ 6907 6896 6895 6894 ] final  -75.39 input  -60.11 | X-H torsion
[ 7974 7965 7964 7962 ] final  173.96 input  175.53 | X-H torsion
[ 8008 7997 7996 7995 ] final   52.18 input   59.86 | X-H torsion
[ 10167 10162 10161 10158 ] final  175.48 input  -65.29 | X-H torsion
[ 10718 10713 10712 10709 ] final -120.69 input   66.30 | X-H torsion
[ 10763 10752 10751 10750 ] final  111.64 input  -60.55 | X-H torsion
[ 11005 11000 10999 10996 ] final  155.51 input  -57.11 | X-H torsion

> <Gold.Protein.ActiveResidues>
 VAL166  LYS551  ARG553  GLY616  TRP617  ASP618  TYR619  PRO620  LYS621  CYS622 
 ASP623  PHE694  ASN695  SER759  ASP760  ASP761  ALA762  ILE779  LEU786  VAL792 
 PHE793  MET794  SER795  GLU796  ALA797  LYS798  CYS799  TRP800  GLU811  SER814 

> <Gold.Protein.RotatedAtoms>
  150.7060  134.4728  159.5433 H   0  0  0  0  0  0  0  0  0  0  0  0  # atno 6907 bound_to 6896
  152.2381  134.8253  160.0473 H   0  0  0  0  0  0  0  0  0  0  0  0  # atno 6908 bound_to 6896
  151.9045  133.3511  159.3879 H   0  0  0  0  0  0  0  0  0  0  0  0  # atno 6909 bound_to 6896
  144.7232  139.9726  143.6437 H   0  0  0  0  0  0  0  0  0  0  0  0  # atno 7974 bound_to 7965
  155.4475  140.3457  155.4297 H   0  0  0  0  0  0  0  0  0  0  0  0  # atno 8008 bound_to 7997
  156.1241  140.1495  156.9192 H   0  0  0  0  0  0  0  0  0  0  0  0  # atno 8009 bound_to 7997
  154.4845  140.0859  156.7433 H   0  0  0  0  0  0  0  0  0  0  0  0  # atno 8010 bound_to 7997
  139.5179  144.3027  152.0364 H   0  0  0  0  0  0  0  0  0  0  0  0  # atno 10167 bound_to 10162
  156.1277  130.6372  150.9571 H   0  0  0  0  0  0  0  0  0  0  0  0  # atno 10718 bound_to 10713
  153.4662  135.3711  155.2366 H   0  0  0  0  0  0  0  0  0  0  0  0  # atno 10763 bound_to 10752
  154.8757  135.3920  154.3866 H   0  0  0  0  0  0  0  0  0  0  0  0  # atno 10764 bound_to 10752
  153.4447  135.7084  153.6211 H   0  0  0  0  0  0  0  0  0  0  0  0  # atno 10765 bound_to 10752
  140.1588  134.8624  157.2548 H   0  0  0  0  0  0  0  0  0  0  0  0  # atno 11005 bound_to 11000
  146.0551  139.3548  143.0616 LP  0  0  0  0  0  0  0  0  0  0  0  0  # atno 17320 bound_to 7965
  145.8165  140.9700  143.0921 LP  0  0  0  0  0  0  0  0  0  0  0  0  # atno 17321 bound_to 7965
  140.2474  144.4206  150.6235 LP  0  0  0  0  0  0  0  0  0  0  0  0  # atno 17342 bound_to 10162
  140.6249  143.2180  151.6618 LP  0  0  0  0  0  0  0  0  0  0  0  0  # atno 17343 bound_to 10162
  157.6458  131.0904  150.8156 LP  0  0  0  0  0  0  0  0  0  0  0  0  # atno 17370 bound_to 10713
  156.8245  130.4995  149.5339 LP  0  0  0  0  0  0  0  0  0  0  0  0  # atno 17371 bound_to 10713
  140.2515  134.3678  155.7440 LP  0  0  0  0  0  0  0  0  0  0  0  0  # atno 17394 bound_to 11000
  141.2207  133.7319  156.8942 LP  0  0  0  0  0  0  0  0  0  0  0  0  # atno 17395 bound_to 11000

$$$$
