AV-unprocessed.smi:1748|AV-procd|sdf|7038|dock6
  -GOLD-   22720 8253D 1   1.00000     0.00000
 Structure written by MMmdl.
 40 41  0  0  0  0  0  0  0  0  2 V2000
  144.3776  132.2642  151.4442 C   0  0  0  0  0  0  0  0  0  0  0  0
  144.9702  133.6044  151.6407 N   0  3  1  0  0  0  0  0  0  0  0  0
  144.6947  134.5177  150.5033 C   0  0  0  0  0  0  0  0  0  0  0  0
  145.4305  135.8575  150.6771 C   0  0  0  0  0  0  0  0  0  0  0  0
  145.0934  136.5098  152.0290 C   0  0  0  0  0  0  0  0  0  0  0  0
  145.3422  135.5322  153.1922 C   0  0  2  0  0  0  0  0  0  0  0  0
  146.7789  135.3088  153.3569 N   0  0  0  0  0  0  0  0  0  0  0  0
  147.3372  134.4695  154.2407 C   0  0  0  0  0  0  0  0  0  0  0  0
  146.6814  133.7736  155.0154 O   0  0  0  0  0  0  0  0  0  0  0  0
  148.6783  134.4816  154.1342 N   0  0  0  0  0  0  0  0  0  0  0  0
  149.6313  133.7567  154.8687 C   0  0  0  0  0  0  0  0  0  0  0  0
  149.7927  132.4087  154.8121 C   0  0  0  0  0  0  0  0  0  0  0  0
  150.7934  131.7181  155.6093 C   0  0  0  0  0  0  0  0  0  0  0  0
  151.0274  130.2210  155.4804 C   0  0  0  0  0  0  0  0  0  0  0  0
  150.3199  129.7099  154.4721 F   0  0  0  0  0  0  0  0  0  0  0  0
  152.3169  129.9834  155.2438 F   0  0  0  0  0  0  0  0  0  0  0  0
  150.6850  129.5815  156.5989 F   0  0  0  0  0  0  0  0  0  0  0  0
  151.5595  132.4854  156.4063 C   0  0  0  0  0  0  0  0  0  0  0  0
  151.3834  133.8685  156.4882 N   0  0  0  0  0  0  0  0  0  0  0  0
  150.4685  134.5613  155.7737 C   0  0  0  0  0  0  0  0  0  0  0  0
  150.3755  135.7820  155.8991 O   0  0  0  0  0  0  0  0  0  0  0  0
  144.5825  134.2104  152.9393 C   0  0  0  0  0  0  0  0  0  0  0  0
  151.9863  134.3712  157.1237 H   0  0  0  0  0  0  0  0  0  0  0  0
  143.2890  132.3194  151.4015 H   0  0  0  0  0  0  0  0  0  0  0  0
  144.6551  131.5975  152.2616 H   0  0  0  0  0  0  0  0  0  0  0  0
  144.7352  131.8175  150.5159 H   0  0  0  0  0  0  0  0  0  0  0  0
  145.0106  134.0479  149.5711 H   0  0  0  0  0  0  0  0  0  0  0  0
  143.6196  134.6876  150.4247 H   0  0  0  0  0  0  0  0  0  0  0  0
  146.5066  135.6954  150.6026 H   0  0  0  0  0  0  0  0  0  0  0  0
  145.1672  136.5335  149.8630 H   0  0  0  0  0  0  0  0  0  0  0  0
  145.6742  137.4232  152.1649 H   0  0  0  0  0  0  0  0  0  0  0  0
  144.0450  136.8115  152.0301 H   0  0  0  0  0  0  0  0  0  0  0  0
  144.9640  135.9892  154.1084 H   0  0  0  0  0  0  0  0  0  0  0  0
  147.3935  135.8455  152.7619 H   0  0  0  0  0  0  0  0  0  0  0  0
  149.0664  135.0541  153.3983 H   0  0  0  0  0  0  0  0  0  0  0  0
  149.1611  131.8021  154.1839 H   0  0  0  0  0  0  0  0  0  0  0  0
  152.3571  132.1071  157.0287 H   0  0  0  0  0  0  0  0  0  0  0  0
  143.5068  134.3934  152.9451 H   0  0  0  0  0  0  0  0  0  0  0  0
  144.7774  133.5031  153.7465 H   0  0  0  0  0  0  0  0  0  0  0  0
  145.9711  133.4727  151.6722 H   0  0  0  0  0  0  0  0  0  0  0  0
  1  2  1  0  0  0  0
  1 24  1  0  0  0  0
  1 25  1  0  0  0  0
  1 26  1  0  0  0  0
  2 22  1  0  0  0  0
  2  3  1  0  0  0  0
  2 40  1  0  0  0  0
  3  4  1  0  0  0  0
  3 27  1  0  0  0  0
  3 28  1  0  0  0  0
  4  5  1  0  0  0  0
  4 29  1  0  0  0  0
  4 30  1  0  0  0  0
  5  6  1  0  0  0  0
  5 31  1  0  0  0  0
  5 32  1  0  0  0  0
  6  7  1  0  0  0  0
  6 22  1  0  0  0  0
  6 33  1  0  0  0  0
  7  8  1  0  0  0  0
  7 34  1  0  0  0  0
  8  9  2  0  0  0  0
  8 10  1  0  0  0  0
 10 11  1  0  0  0  0
 10 35  1  0  0  0  0
 11 20  1  0  0  0  0
 11 12  2  0  0  0  0
 12 13  1  0  0  0  0
 12 36  1  0  0  0  0
 13 14  1  0  0  0  0
 13 18  2  0  0  0  0
 14 15  1  0  0  0  0
 14 16  1  0  0  0  0
 14 17  1  0  0  0  0
 18 19  1  0  0  0  0
 18 37  1  0  0  0  0
 19 23  1  0  0  0  0
 19 20  1  0  0  0  0
 20 21  2  0  0  0  0
 22 38  1  0  0  0  0
 22 39  1  0  0  0  0
M  CHG  1   2   1
M  END
> <s_m_source_file>
AV-unprocessed.smi

> <i_m_source_file_index>
1748

> <i_lp_mmshare_version>
43012

> <i_f3d_flags>
0

> <s_epik_input>
W0NIM11OMVtDSDJdW0NIMl1bQ0gyXVtDQEhdKFtDSDJdMSlbTkhdQyg9TylbTkhdYzJbY0hdYyhDKEYpKEYpRilbY0hdW25IXWMyPU8=

> <s_epik_cmdline>
J2VwaWtfcHl0aG9uJywgJy1waCcsICc3LjAnLCAnLXRuJywgJzgnLCAnLW1hJywgJzIwMCcsICctbWV0YWxfYmluZGluZycsICctaW1hZScsICc8aW5maWxlLm1hZT4nLCAnLW9tYWUnLCAnPG91dGZpbGUubWFlPic=

> <r_lp_tautomer_probability>
1

> <r_epik_Ionization_Penalty>
0.00746315

> <r_epik_Ionization_Penalty_Charging>
0.00744398

> <r_epik_Ionization_Penalty_Neutral>
1.91704e-05

> <r_epik_State_Penalty>
-0

> <r_epik_Charging_Adjusted_Penalty>
0.00744398

> <i_epik_Tot_Q>
1

> <i_epik_Tot_abs_Q>
1

> <r_epik_Metal_State_Penalty>
0.379332

> <b_epik_Metal_Only>
0

> <s_lp_Force_Field>
OPLS_2005

> <r_lp_Energy>
33.9877

> <b_lp_Chiralities_Consistent>
1

> <s_lp_Variant>
AV-unprocessed.smi:1748-3

> <Gold.Version>
5.8.1

> <Gold.Id.Protein>
6NUR|6NUR_protein|mol2

> <Gold.PLP.Fitness>
36.6283

> <Gold.PLP.PLP>
-32.3630

> <Gold.PLP.part.hbond>
-2.0000

> <Gold.PLP.part.metal>
0.0000

> <Gold.PLP.part.buried>
-3.7247

> <Gold.PLP.part.nonpolar>
-26.5561

> <Gold.PLP.part.repulsive>
0.2711

> <Gold.PLP.ligand.clash>
0.0000

> <Gold.PLP.ligand.torsion>
0.8841

> <Gold.PLP.Chemscore.Hbond>
2.0000

> <Gold.PLP.Chemscore.CHOScore>
0.0000

> <Gold.PLP.Chemscore.Metal>
0.0000

> <Gold.Chemscore.Hbonds>
donor molecule, donor type, donor heavy atom, donor atom, acceptor molecule, acceptor atom, score
      L1  H     7    34       P1  7948  1.00
      L1  H    10    35       P1  7948  1.00

> <Gold.PLP.Chemscore.Internal.Correction>
0.0335

> <Gold.Rescore>
     Score         DG    S(hbond)    S(metal)    S(lipo)     H(rot)  DE(clash)    DE(int)     intcor
     13.37     -14.74       1.45        0.00      59.59       1.00       0.05       1.32       ----

> <Gold.Chemscore.Fitness>
13.3725

> <Gold.Chemscore.DG>
-14.7381

> <Gold.Chemscore.ZeroCoef>
-5.4800

> <Gold.Chemscore.Hbond>
1.4509

> <Gold.Chemscore.Metal>
0.0000

> <Gold.Chemscore.Lipo>
59.5905

> <Gold.Chemscore.Internal_Hbond>
0.0000

> <Gold.Chemscore.DEClash>
0.0463

> <Gold.Chemscore.DEInternal>
1.3193

> <Gold.Chemscore.Rot>
1.0000

> <Gold.Chemscore.Internal.Correction>
   9.000000E+99

> <Gold.Chemscore.Hbonds>
donor molecule, donor type, donor heavy atom, donor atom, acceptor molecule, acceptor atom, score
      L1  H     7    34       P1  7948  0.99
      L1  H    10    35       P1  7948  0.25

> <Gold.Chemscore.Hbond.Weighted>
-4.8460

> <Gold.Chemscore.Metal.Weighted>
-0.0000

> <Gold.Chemscore.Lipo.Weighted>
-6.9721

> <Gold.Chemscore.Internal_Hbond.Weighted>
0.0000

> <Gold.Chemscore.DEClash.Weighted>
0.0463

> <Gold.Chemscore.DEInternal.Weighted>
1.3193

> <Gold.Chemscore.Rot.Weighted>
2.5600

> <Gold.Chemscore.Internal.Correction.Weighted>
   9.000000E+99

> <Gold.Protein.RotatedTorsions>
[ 6907 6896 6895 6894 ] final  137.02 input  -60.11 | X-H torsion
[ 7974 7965 7964 7962 ] final   73.25 input  175.53 | X-H torsion
[ 8008 7997 7996 7995 ] final   13.49 input   59.86 | X-H torsion
[ 10167 10162 10161 10158 ] final    3.02 input  -65.29 | X-H torsion
[ 10718 10713 10712 10709 ] final  154.46 input   66.30 | X-H torsion
[ 10763 10752 10751 10750 ] final -176.20 input  -60.55 | X-H torsion
[ 11005 11000 10999 10996 ] final  -92.91 input  -57.11 | X-H torsion

> <Gold.Protein.ActiveResidues>
 VAL166  LYS551  ARG553  GLY616  TRP617  ASP618  TYR619  PRO620  LYS621  CYS622 
 ASP623  PHE694  ASN695  SER759  ASP760  ASP761  ALA762  ILE779  LEU786  VAL792 
 PHE793  MET794  SER795  GLU796  ALA797  LYS798  CYS799  TRP800  GLU811  SER814 

> <Gold.Protein.RotatedAtoms>
  152.2828  133.5487  159.5508 H   0  0  0  0  0  0  0  0  0  0  0  0  # atno 6907 bound_to 6896
  150.7203  134.0539  159.3817 H   0  0  0  0  0  0  0  0  0  0  0  0  # atno 6908 bound_to 6896
  151.8449  135.0578  160.0503 H   0  0  0  0  0  0  0  0  0  0  0  0  # atno 6909 bound_to 6896
  145.7432  139.2729  143.1474 H   0  0  0  0  0  0  0  0  0  0  0  0  # atno 7974 bound_to 7965
  154.8353  140.2906  155.5695 H   0  0  0  0  0  0  0  0  0  0  0  0  # atno 8008 bound_to 7997
  156.3008  140.2524  156.3216 H   0  0  0  0  0  0  0  0  0  0  0  0  # atno 8009 bound_to 7997
  154.9186  140.0386  157.1975 H   0  0  0  0  0  0  0  0  0  0  0  0  # atno 8010 bound_to 7997
  140.6606  143.7313  150.7732 H   0  0  0  0  0  0  0  0  0  0  0  0  # atno 10167 bound_to 10162
  157.2312  131.0739  151.1851 H   0  0  0  0  0  0  0  0  0  0  0  0  # atno 10718 bound_to 10713
  154.5752  135.2831  155.0787 H   0  0  0  0  0  0  0  0  0  0  0  0  # atno 10763 bound_to 10752
  154.2145  135.6402  153.5129 H   0  0  0  0  0  0  0  0  0  0  0  0  # atno 10764 bound_to 10752
  153.0070  135.5499  154.6388 H   0  0  0  0  0  0  0  0  0  0  0  0  # atno 10765 bound_to 10752
  141.1510  133.7852  157.0086 H   0  0  0  0  0  0  0  0  0  0  0  0  # atno 11005 bound_to 11000
  146.0428  140.8148  142.9820 LP  0  0  0  0  0  0  0  0  0  0  0  0  # atno 17320 bound_to 7965
  144.6866  140.2935  143.7274 LP  0  0  0  0  0  0  0  0  0  0  0  0  # atno 17321 bound_to 7965
  140.0981  143.4814  152.2441 LP  0  0  0  0  0  0  0  0  0  0  0  0  # atno 17342 bound_to 10162
  139.5839  144.7523  151.3569 LP  0  0  0  0  0  0  0  0  0  0  0  0  # atno 17343 bound_to 10162
  157.3476  130.7065  149.6420 LP  0  0  0  0  0  0  0  0  0  0  0  0  # atno 17370 bound_to 10713
  155.9675  130.4262  150.4687 LP  0  0  0  0  0  0  0  0  0  0  0  0  # atno 17371 bound_to 10713
  140.0893  134.9602  157.1750 LP  0  0  0  0  0  0  0  0  0  0  0  0  # atno 17394 bound_to 11000
  140.3468  134.2642  155.7204 LP  0  0  0  0  0  0  0  0  0  0  0  0  # atno 17395 bound_to 11000

$$$$
