AV-unprocessed.smi:3090|AV-procd|sdf|11776|dock2
  -GOLD-   2272017153D 1   1.00000     0.00000
 Structure written by MMmdl.
 21 21  0  0  0  0  0  0  0  0  1 V2000
  150.9085  141.8244  156.3560 C   0  0  0  0  0  0  0  0  0  0  0  0
  150.0593  141.1456  155.4008 N   0  0  0  0  0  0  0  0  0  0  0  0
  148.7470  141.4112  155.0750 C   0  0  0  0  0  0  0  0  0  0  0  0
  148.3683  140.5094  154.1192 C   0  0  0  0  0  0  0  0  0  0  0  0
  147.0392  140.3627  153.4214 C   0  0  2  0  0  0  0  0  0  0  0  0
  145.9628  140.6716  154.2818 O   0  0  0  0  0  0  0  0  0  0  0  0
  146.8183  138.9344  152.8927 C   0  0  0  0  0  0  0  0  0  0  0  0
  147.5270  138.6685  151.6310 N   0  0  0  0  0  0  0  0  0  0  0  0
  149.5403  139.7210  153.9324 C   0  0  0  0  0  0  0  0  0  0  0  0
  150.5492  140.1045  154.6976 N   0  0  0  0  0  0  0  0  0  0  0  0
  150.3745  142.6643  156.8014 H   0  0  0  0  0  0  0  0  0  0  0  0
  151.8017  142.1985  155.8550 H   0  0  0  0  0  0  0  0  0  0  0  0
  151.2028  141.1324  157.1455 H   0  0  0  0  0  0  0  0  0  0  0  0
  148.1946  142.2126  155.5433 H   0  0  0  0  0  0  0  0  0  0  0  0
  146.9764  141.0575  152.5829 H   0  0  0  0  0  0  0  0  0  0  0  0
  145.1861  140.7925  153.7573 H   0  0  0  0  0  0  0  0  0  0  0  0
  147.1306  138.2114  153.6472 H   0  0  0  0  0  0  0  0  0  0  0  0
  145.7508  138.7709  152.7407 H   0  0  0  0  0  0  0  0  0  0  0  0
  148.2333  139.3836  151.4630 H   0  0  0  0  0  0  0  0  0  0  0  0
  148.0144  137.7749  151.6785 H   0  0  0  0  0  0  0  0  0  0  0  0
  149.6849  138.8844  153.2648 H   0  0  0  0  0  0  0  0  0  0  0  0
  1  2  1  0  0  0  0
  1 11  1  0  0  0  0
  1 12  1  0  0  0  0
  1 13  1  0  0  0  0
  2 10  1  0  0  0  0
  2  3  1  0  0  0  0
  3  4  2  0  0  0  0
  3 14  1  0  0  0  0
  4  5  1  0  0  0  0
  4  9  1  0  0  0  0
  5  6  1  0  0  0  0
  5  7  1  0  0  0  0
  5 15  1  0  0  0  0
  6 16  1  0  0  0  0
  7  8  1  0  0  0  0
  7 17  1  0  0  0  0
  7 18  1  0  0  0  0
  8 19  1  0  0  0  0
  8 20  1  0  0  0  0
  9 10  2  0  0  0  0
  9 21  1  0  0  0  0
M  END
> <s_m_source_file>
AV-unprocessed.smi

> <i_m_source_file_index>
3090

> <i_lp_mmshare_version>
43012

> <i_f3d_flags>
0

> <s_epik_input>
W0NIM11uMVtjSF1jKFtjSF1uMSlbQ0BIXShbT0hdKVtDSDJdW05IMl0=

> <s_epik_cmdline>
J2VwaWtfcHl0aG9uJywgJy1waCcsICc3LjAnLCAnLXRuJywgJzgnLCAnLW1hJywgJzIwMCcsICctbWV0YWxfYmluZGluZycsICctaW1hZScsICc8aW5maWxlLm1hZT4nLCAnLW9tYWUnLCAnPG91dGZpbGUubWFlPic=

> <r_lp_tautomer_probability>
1

> <r_epik_Ionization_Penalty>
2.22426

> <r_epik_Ionization_Penalty_Charging>
0

> <r_epik_Ionization_Penalty_Neutral>
2.22426

> <r_epik_State_Penalty>
2.36938

> <r_epik_Charging_Adjusted_Penalty>
2.36938

> <i_epik_Tot_Q>
0

> <i_epik_Tot_abs_Q>
0

> <r_epik_Metal_State_Penalty>
2.36934

> <b_epik_Metal_Only>
0

> <s_lp_Force_Field>
OPLS_2005

> <r_lp_Energy>
2.27674

> <b_lp_Chiralities_Consistent>
1

> <s_lp_Variant>
AV-unprocessed.smi:3090-3

> <Gold.Version>
5.8.1

> <Gold.Id.Protein>
6NUR|6NUR_protein|mol2

> <Gold.PLP.Fitness>
36.5814

> <Gold.PLP.PLP>
-22.4014

> <Gold.PLP.part.hbond>
-5.0000

> <Gold.PLP.part.metal>
0.0000

> <Gold.PLP.part.buried>
-0.0262

> <Gold.PLP.part.nonpolar>
-17.2796

> <Gold.PLP.part.repulsive>
0.0685

> <Gold.PLP.ligand.clash>
0.0000

> <Gold.PLP.ligand.torsion>
0.8963

> <Gold.PLP.Chemscore.Hbond>
4.0000

> <Gold.PLP.Chemscore.CHOScore>
1.3231

> <Gold.PLP.Chemscore.Metal>
0.0000

> <Gold.Chemscore.Hbonds>
donor molecule, donor type, donor heavy atom, donor atom, acceptor molecule, acceptor atom, score
      L1  H     6    16       P1 10175  1.00
      L1  H     8    19       P1  7957  0.96
      L1  H     8    20       P1  7948  1.00
      P1  H  7989  7998       L1    10  1.00
      L1  C     3    14       P1  8028  0.81
      L1  C     9    21       P1  7957  0.41

> <Gold.PLP.Chemscore.Internal.Correction>
0.0034

> <Gold.Rescore>
     Score         DG    S(hbond)    S(metal)    S(lipo)     H(rot)  DE(clash)    DE(int)     intcor
     14.26     -16.42       3.23        0.00      43.06       1.90       1.24       0.92       ----

> <Gold.Chemscore.Fitness>
14.2616

> <Gold.Chemscore.DG>
-16.4226

> <Gold.Chemscore.ZeroCoef>
-5.4800

> <Gold.Chemscore.Hbond>
3.2270

> <Gold.Chemscore.Metal>
0.0000

> <Gold.Chemscore.Lipo>
43.0622

> <Gold.Chemscore.Internal_Hbond>
0.0000

> <Gold.Chemscore.DEClash>
1.2370

> <Gold.Chemscore.DEInternal>
0.9240

> <Gold.Chemscore.Rot>
1.9039

> <Gold.Chemscore.Internal.Correction>
   9.000000E+99

> <Gold.Chemscore.Hbonds>
donor molecule, donor type, donor heavy atom, donor atom, acceptor molecule, acceptor atom, score
      L1  H     6    16       P1 10175  0.90
      L1  H     8    19       P1  7957  0.85
      L1  H     8    20       P1  7948  1.00
      P1  H  7989  7998       L1    10  0.13

> <Gold.Chemscore.Hbond.Weighted>
-10.7783

> <Gold.Chemscore.Metal.Weighted>
-0.0000

> <Gold.Chemscore.Lipo.Weighted>
-5.0383

> <Gold.Chemscore.Internal_Hbond.Weighted>
0.0000

> <Gold.Chemscore.DEClash.Weighted>
1.2370

> <Gold.Chemscore.DEInternal.Weighted>
0.9240

> <Gold.Chemscore.Rot.Weighted>
4.8739

> <Gold.Chemscore.Internal.Correction.Weighted>
   9.000000E+99

> <Gold.Protein.RotatedTorsions>
[ 6907 6896 6895 6894 ] final  137.43 input  -60.11 | X-H torsion
[ 7974 7965 7964 7962 ] final -160.01 input  175.53 | X-H torsion
[ 8008 7997 7996 7995 ] final   31.67 input   59.86 | X-H torsion
[ 10167 10162 10161 10158 ] final   14.79 input  -65.29 | X-H torsion
[ 10718 10713 10712 10709 ] final -114.93 input   66.30 | X-H torsion
[ 10763 10752 10751 10750 ] final -172.10 input  -60.55 | X-H torsion
[ 11005 11000 10999 10996 ] final -145.08 input  -57.11 | X-H torsion

> <Gold.Protein.ActiveResidues>
 VAL166  LYS551  ARG553  GLY616  TRP617  ASP618  TYR619  PRO620  LYS621  CYS622 
 ASP623  PHE694  ASN695  SER759  ASP760  ASP761  ALA762  ILE779  LEU786  VAL792 
 PHE793  MET794  SER795  GLU796  ALA797  LYS798  CYS799  TRP800  GLU811  SER814 

> <Gold.Protein.RotatedAtoms>
  152.2781  133.5444  159.5480 H   0  0  0  0  0  0  0  0  0  0  0  0  # atno 6907 bound_to 6896
  150.7185  134.0603  159.3838 H   0  0  0  0  0  0  0  0  0  0  0  0  # atno 6908 bound_to 6896
  151.8515  135.0556  160.0510 H   0  0  0  0  0  0  0  0  0  0  0  0  # atno 6909 bound_to 6896
  144.7443  140.3603  143.6097 H   0  0  0  0  0  0  0  0  0  0  0  0  # atno 7974 bound_to 7965
  155.1101  140.3238  155.4524 H   0  0  0  0  0  0  0  0  0  0  0  0  # atno 8008 bound_to 7997
  156.2693  140.2045  156.6173 H   0  0  0  0  0  0  0  0  0  0  0  0  # atno 8009 bound_to 7997
  154.6763  140.0531  157.0206 H   0  0  0  0  0  0  0  0  0  0  0  0  # atno 8010 bound_to 7997
  140.5912  143.8792  150.6875 H   0  0  0  0  0  0  0  0  0  0  0  0  # atno 10167 bound_to 10162
  156.0862  130.6053  150.8839 H   0  0  0  0  0  0  0  0  0  0  0  0  # atno 10718 bound_to 10713
  154.6231  135.2877  155.0303 H   0  0  0  0  0  0  0  0  0  0  0  0  # atno 10763 bound_to 10752
  154.1491  135.6506  153.4963 H   0  0  0  0  0  0  0  0  0  0  0  0  # atno 10764 bound_to 10752
  153.0245  135.5351  154.7028 H   0  0  0  0  0  0  0  0  0  0  0  0  # atno 10765 bound_to 10752
  140.7959  134.2914  157.4996 H   0  0  0  0  0  0  0  0  0  0  0  0  # atno 11005 bound_to 11000
  145.7184  139.1703  143.2499 LP  0  0  0  0  0  0  0  0  0  0  0  0  # atno 17320 bound_to 7965
  146.1295  140.7204  142.9419 LP  0  0  0  0  0  0  0  0  0  0  0  0  # atno 17321 bound_to 7965
  140.2315  143.3732  152.1561 LP  0  0  0  0  0  0  0  0  0  0  0  0  # atno 17342 bound_to 10162
  139.5228  144.7064  151.5341 LP  0  0  0  0  0  0  0  0  0  0  0  0  # atno 17343 bound_to 10162
  157.5997  131.0941  150.8981 LP  0  0  0  0  0  0  0  0  0  0  0  0  # atno 17370 bound_to 10713
  156.9141  130.5291  149.5280 LP  0  0  0  0  0  0  0  0  0  0  0  0  # atno 17371 bound_to 10713
  139.8726  134.9401  156.3761 LP  0  0  0  0  0  0  0  0  0  0  0  0  # atno 17394 bound_to 11000
  140.9343  133.7558  156.0065 LP  0  0  0  0  0  0  0  0  0  0  0  0  # atno 17395 bound_to 11000

$$$$
