AV-unprocessed.smi:2396|AV-procd|sdf|9492|dock3
  -GOLD-   2272013123D 1   1.00000     0.00000
 Structure written by MMmdl.
 32 32  0  0  0  0  0  0  0  0  1 V2000
  150.3271  136.0738  155.7190 C   0  0  0  0  0  0  0  0  0  0  0  0
  148.9484  136.1899  155.0556 C   0  0  0  0  0  0  0  0  0  0  0  0
  148.7485  135.1537  154.0494 N   0  0  0  0  0  0  0  0  0  0  0  0
  148.7401  133.8341  154.2929 C   0  0  0  0  0  0  0  0  0  0  0  0
  148.9067  133.3550  155.4154 O   0  0  0  0  0  0  0  0  0  0  0  0
  148.5132  132.9245  153.0802 C   0  0  0  0  0  0  0  0  0  0  0  0
  147.1996  133.1182  152.4891 N   0  0  0  0  0  0  0  0  0  0  0  0
  146.4154  132.2046  151.8229 C   0  0  0  0  0  0  0  0  0  0  0  0
  145.2691  132.8407  151.4369 C   0  0  0  0  0  0  0  0  0  0  0  0
  144.1234  132.2429  150.6595 C   0  0  0  0  0  0  0  0  0  0  0  0
  144.3091  132.3972  149.1422 C   0  0  0  0  0  0  0  0  0  0  0  0
  144.2411  133.7556  148.7630 O   0  0  0  0  0  0  0  0  0  0  0  0
  145.4401  134.1739  151.9320 C   0  0  0  0  0  0  0  0  0  0  0  0
  144.5339  135.3783  151.8211 C   0  0  0  0  0  0  0  0  0  0  0  0
  143.3613  135.1041  152.3923 F   0  0  0  0  0  0  0  0  0  0  0  0
  145.0522  136.4529  152.4116 F   0  0  0  0  0  0  0  0  0  0  0  0
  144.3268  135.6697  150.5364 F   0  0  0  0  0  0  0  0  0  0  0  0
  146.6017  134.3239  152.5563 N   0  0  0  0  0  0  0  0  0  0  0  0
  150.4508  136.8352  156.4893 H   0  0  0  0  0  0  0  0  0  0  0  0
  151.1305  136.2051  154.9932 H   0  0  0  0  0  0  0  0  0  0  0  0
  150.4566  135.0995  156.1911 H   0  0  0  0  0  0  0  0  0  0  0  0
  148.1681  136.0864  155.8100 H   0  0  0  0  0  0  0  0  0  0  0  0
  148.8218  137.1788  154.6121 H   0  0  0  0  0  0  0  0  0  0  0  0
  148.6081  135.4624  153.0982 H   0  0  0  0  0  0  0  0  0  0  0  0
  149.2652  133.1188  152.3141 H   0  0  0  0  0  0  0  0  0  0  0  0
  148.6254  131.8831  153.3853 H   0  0  0  0  0  0  0  0  0  0  0  0
  146.7388  131.1852  151.6710 H   0  0  0  0  0  0  0  0  0  0  0  0
  144.0501  131.1778  150.8817 H   0  0  0  0  0  0  0  0  0  0  0  0
  143.1620  132.6555  150.9640 H   0  0  0  0  0  0  0  0  0  0  0  0
  145.2566  131.9665  148.8166 H   0  0  0  0  0  0  0  0  0  0  0  0
  143.5165  131.8640  148.6168 H   0  0  0  0  0  0  0  0  0  0  0  0
  145.1038  134.0385  148.5004 H   0  0  0  0  0  0  0  0  0  0  0  0
  1  2  1  0  0  0  0
  1 19  1  0  0  0  0
  1 20  1  0  0  0  0
  1 21  1  0  0  0  0
  2  3  1  0  0  0  0
  2 22  1  0  0  0  0
  2 23  1  0  0  0  0
  3  4  1  0  0  0  0
  3 24  1  0  0  0  0
  4  5  2  0  0  0  0
  4  6  1  0  0  0  0
  6  7  1  0  0  0  0
  6 25  1  0  0  0  0
  6 26  1  0  0  0  0
  7 18  1  0  0  0  0
  7  8  1  0  0  0  0
  8  9  2  0  0  0  0
  8 27  1  0  0  0  0
  9 10  1  0  0  0  0
  9 13  1  0  0  0  0
 10 11  1  0  0  0  0
 10 28  1  0  0  0  0
 10 29  1  0  0  0  0
 11 12  1  0  0  0  0
 11 30  1  0  0  0  0
 11 31  1  0  0  0  0
 12 32  1  0  0  0  0
 13 14  1  0  0  0  0
 13 18  2  0  0  0  0
 14 15  1  0  0  0  0
 14 16  1  0  0  0  0
 14 17  1  0  0  0  0
M  END
> <s_m_source_file>
AV-unprocessed.smi

> <i_m_source_file_index>
2396

> <i_lp_mmshare_version>
43012

> <i_f3d_flags>
0

> <s_epik_input>
W0NIM11bQ0gyXVtOSF1DKD1PKVtDSDJdbjFbY0hdYyhjKG4xKUMoRikoRilGKVtDSDJdW0NIMl1bT0hd

> <s_epik_cmdline>
J2VwaWtfcHl0aG9uJywgJy1waCcsICc3LjAnLCAnLXRuJywgJzgnLCAnLW1hJywgJzIwMCcsICctbWV0YWxfYmluZGluZycsICctaW1hZScsICc8aW5maWxlLm1hZT4nLCAnLW9tYWUnLCAnPG91dGZpbGUubWFlPic=

> <r_lp_tautomer_probability>
1

> <r_epik_Ionization_Penalty>
2.37964e-07

> <r_epik_Ionization_Penalty_Charging>
0

> <r_epik_Ionization_Penalty_Neutral>
2.37964e-07

> <r_epik_State_Penalty>
-0

> <r_epik_Charging_Adjusted_Penalty>
0

> <i_epik_Tot_Q>
0

> <i_epik_Tot_abs_Q>
0

> <r_epik_Metal_State_Penalty>
-0

> <b_epik_Metal_Only>
0

> <s_lp_Force_Field>
OPLS_2005

> <r_lp_Energy>
5.98536

> <b_lp_Chiralities_Consistent>
1

> <s_lp_Variant>
AV-unprocessed.smi:2396-1

> <Gold.Version>
5.8.1

> <Gold.Id.Protein>
6NUR|6NUR_protein|mol2

> <Gold.PLP.Fitness>
40.6020

> <Gold.PLP.PLP>
-33.4403

> <Gold.PLP.part.hbond>
-3.0000

> <Gold.PLP.part.metal>
0.0000

> <Gold.PLP.part.buried>
-3.8657

> <Gold.PLP.part.nonpolar>
-25.7764

> <Gold.PLP.part.repulsive>
0.1230

> <Gold.PLP.ligand.clash>
0.0000

> <Gold.PLP.ligand.torsion>
0.7811

> <Gold.PLP.Chemscore.Hbond>
2.0000

> <Gold.PLP.Chemscore.CHOScore>
0.8914

> <Gold.PLP.Chemscore.Metal>
0.0000

> <Gold.Chemscore.Hbonds>
donor molecule, donor type, donor heavy atom, donor atom, acceptor molecule, acceptor atom, score
      L1  H     3    24       P1  7948  0.86
      L1  H    12    32       P1  7921  1.00
      L1  C     8    27       P1 10747  0.50

> <Gold.PLP.Chemscore.Internal.Correction>
0.0498

> <Gold.Rescore>
     Score         DG    S(hbond)    S(metal)    S(lipo)     H(rot)  DE(clash)    DE(int)     intcor
      9.55     -11.61       1.96        0.00      59.11       2.86       0.03       2.03       ----

> <Gold.Chemscore.Fitness>
9.5512

> <Gold.Chemscore.DG>
-11.6120

> <Gold.Chemscore.ZeroCoef>
-5.4800

> <Gold.Chemscore.Hbond>
1.9594

> <Gold.Chemscore.Metal>
0.0000

> <Gold.Chemscore.Lipo>
59.1075

> <Gold.Chemscore.Internal_Hbond>
0.0000

> <Gold.Chemscore.DEClash>
0.0302

> <Gold.Chemscore.DEInternal>
2.0306

> <Gold.Chemscore.Rot>
2.8625

> <Gold.Chemscore.Internal.Correction>
   9.000000E+99

> <Gold.Chemscore.Hbonds>
donor molecule, donor type, donor heavy atom, donor atom, acceptor molecule, acceptor atom, score
      L1  H     3    24       P1  7948  0.77
      L1  H    12    32       P1  7921  0.91

> <Gold.Chemscore.Hbond.Weighted>
-6.5443

> <Gold.Chemscore.Metal.Weighted>
-0.0000

> <Gold.Chemscore.Lipo.Weighted>
-6.9156

> <Gold.Chemscore.Internal_Hbond.Weighted>
0.0000

> <Gold.Chemscore.DEClash.Weighted>
0.0302

> <Gold.Chemscore.DEInternal.Weighted>
2.0306

> <Gold.Chemscore.Rot.Weighted>
7.3279

> <Gold.Chemscore.Internal.Correction.Weighted>
   9.000000E+99

> <Gold.Protein.RotatedTorsions>
[ 6907 6896 6895 6894 ] final -141.06 input  -60.11 | X-H torsion
[ 7974 7965 7964 7962 ] final   75.61 input  175.53 | X-H torsion
[ 8008 7997 7996 7995 ] final  116.70 input   59.86 | X-H torsion
[ 10167 10162 10161 10158 ] final   35.44 input  -65.29 | X-H torsion
[ 10718 10713 10712 10709 ] final   39.53 input   66.30 | X-H torsion
[ 10763 10752 10751 10750 ] final  156.05 input  -60.55 | X-H torsion
[ 11005 11000 10999 10996 ] final   62.68 input  -57.11 | X-H torsion

> <Gold.Protein.ActiveResidues>
 VAL166  LYS551  ARG553  GLY616  TRP617  ASP618  TYR619  PRO620  LYS621  CYS622 
 ASP623  PHE694  ASN695  SER759  ASP760  ASP761  ALA762  ILE779  LEU786  VAL792 
 PHE793  MET794  SER795  GLU796  ALA797  LYS798  CYS799  TRP800  GLU811  SER814 

> <Gold.Protein.RotatedAtoms>
  151.0688  133.5483  159.2628 H   0  0  0  0  0  0  0  0  0  0  0  0  # atno 6907 bound_to 6896
  151.2430  135.0595  159.9042 H   0  0  0  0  0  0  0  0  0  0  0  0  # atno 6908 bound_to 6896
  152.5408  134.0460  159.8142 H   0  0  0  0  0  0  0  0  0  0  0  0  # atno 6909 bound_to 6896
  145.7134  139.2622  143.1638 H   0  0  0  0  0  0  0  0  0  0  0  0  # atno 7974 bound_to 7965
  156.2453  140.2912  156.0563 H   0  0  0  0  0  0  0  0  0  0  0  0  # atno 8008 bound_to 7997
  155.1825  140.0404  157.2902 H   0  0  0  0  0  0  0  0  0  0  0  0  # atno 8009 bound_to 7997
  154.6250  140.2485  155.7510 H   0  0  0  0  0  0  0  0  0  0  0  0  # atno 8010 bound_to 7997
  140.4221  144.1444  150.6149 H   0  0  0  0  0  0  0  0  0  0  0  0  # atno 10167 bound_to 10162
  157.3716  130.7704  149.7123 H   0  0  0  0  0  0  0  0  0  0  0  0  # atno 10718 bound_to 10713
  154.1781  135.2801  155.3060 H   0  0  0  0  0  0  0  0  0  0  0  0  # atno 10763 bound_to 10752
  154.6023  135.5525  153.7391 H   0  0  0  0  0  0  0  0  0  0  0  0  # atno 10764 bound_to 10752
  153.0145  135.6395  154.1921 H   0  0  0  0  0  0  0  0  0  0  0  0  # atno 10765 bound_to 10752
  140.0075  134.6346  155.9831 H   0  0  0  0  0  0  0  0  0  0  0  0  # atno 11005 bound_to 11000
  146.0692  140.7887  142.9696 LP  0  0  0  0  0  0  0  0  0  0  0  0  # atno 17320 bound_to 7965
  144.6936  140.3315  143.7215 LP  0  0  0  0  0  0  0  0  0  0  0  0  # atno 17321 bound_to 7965
  140.4522  143.2482  151.9333 LP  0  0  0  0  0  0  0  0  0  0  0  0  # atno 17342 bound_to 10162
  139.4783  144.5551  151.8326 LP  0  0  0  0  0  0  0  0  0  0  0  0  # atno 17343 bound_to 10162
  155.9757  130.4086  150.3833 LP  0  0  0  0  0  0  0  0  0  0  0  0  # atno 17370 bound_to 10713
  157.1925  131.0418  151.2693 LP  0  0  0  0  0  0  0  0  0  0  0  0  # atno 17371 bound_to 10713
  141.1688  133.6537  156.4574 LP  0  0  0  0  0  0  0  0  0  0  0  0  # atno 17394 bound_to 11000
  140.4614  134.6838  157.5087 LP  0  0  0  0  0  0  0  0  0  0  0  0  # atno 17395 bound_to 11000

$$$$
