AV-unprocessed.smi:2588|AV-procd|sdf|10149|dock3
  -GOLD-   2272014163D 1   1.00000     0.00000
 Structure written by MMmdl.
 40 41  0  0  0  0  0  0  0  0  2 V2000
  149.9606  133.9186  154.5141 C   0  0  0  0  0  0  0  0  0  0  0  0
  149.0122  135.0534  154.9560 C   0  0  0  0  0  0  0  0  0  0  0  0
  147.5757  134.6738  154.5371 C   0  0  0  0  0  0  0  0  0  0  0  0
  149.4318  136.3927  154.4257 N   0  3  2  0  0  0  0  0  0  0  0  0
  150.8572  136.7263  154.7210 C   0  0  0  0  0  0  0  0  0  0  0  0
  151.2906  138.0642  154.0913 C   0  0  0  0  0  0  0  0  0  0  0  0
  150.3846  139.2261  154.5189 C   0  0  2  0  0  0  0  0  0  0  0  0
  150.5861  139.5330  155.9341 N   0  0  0  0  0  0  0  0  0  0  0  0
  151.7662  139.7946  156.5160 C   0  0  0  0  0  0  0  0  0  0  0  0
  152.8405  139.7583  155.9162 O   0  0  0  0  0  0  0  0  0  0  0  0
  151.7250  140.1460  158.0068 C   0  0  0  0  0  0  0  0  0  0  0  0
  151.8031  141.5898  158.2290 N   0  0  0  0  0  0  0  0  0  0  0  0
  152.6192  142.0476  159.2160 N   0  0  0  0  0  0  0  0  0  0  0  0
  152.5931  143.3268  159.2905 C   0  0  0  0  0  0  0  0  0  0  0  0
  151.5381  144.1547  158.1373 S   0  0  0  0  0  0  0  0  0  0  0  0
  151.1002  142.5458  157.5000 C   0  0  0  0  0  0  0  0  0  0  0  0
  150.3098  142.3731  156.5729 O   0  0  0  0  0  0  0  0  0  0  0  0
  148.9262  138.8457  154.2084 C   0  0  0  0  0  0  0  0  0  0  0  0
  148.5295  137.5041  154.8485 C   0  0  0  0  0  0  0  0  0  0  0  0
  149.5667  132.9433  154.8025 H   0  0  0  0  0  0  0  0  0  0  0  0
  150.9422  133.9915  154.9808 H   0  0  0  0  0  0  0  0  0  0  0  0
  150.0944  133.9101  153.4319 H   0  0  0  0  0  0  0  0  0  0  0  0
  149.0379  135.1016  156.0457 H   0  0  0  0  0  0  0  0  0  0  0  0
  147.3412  133.6481  154.8237 H   0  0  0  0  0  0  0  0  0  0  0  0
  147.4422  134.7500  153.4573 H   0  0  0  0  0  0  0  0  0  0  0  0
  146.8230  135.2958  155.0208 H   0  0  0  0  0  0  0  0  0  0  0  0
  151.0082  136.7481  155.8014 H   0  0  0  0  0  0  0  0  0  0  0  0
  151.5250  135.9637  154.3248 H   0  0  0  0  0  0  0  0  0  0  0  0
  152.3279  138.2803  154.3512 H   0  0  0  0  0  0  0  0  0  0  0  0
  151.2660  137.9711  153.0047 H   0  0  0  0  0  0  0  0  0  0  0  0
  150.6560  140.1113  153.9411 H   0  0  0  0  0  0  0  0  0  0  0  0
  149.7604  139.5693  156.5144 H   0  0  0  0  0  0  0  0  0  0  0  0
  150.8095  139.7647  158.4628 H   0  0  0  0  0  0  0  0  0  0  0  0
  152.5524  139.6383  158.5052 H   0  0  0  0  0  0  0  0  0  0  0  0
  153.1558  143.9421  159.9925 H   0  0  0  0  0  0  0  0  0  0  0  0
  148.2422  139.6289  154.5363 H   0  0  0  0  0  0  0  0  0  0  0  0
  148.7981  138.7751  153.1273 H   0  0  0  0  0  0  0  0  0  0  0  0
  147.5022  137.3070  154.5492 H   0  0  0  0  0  0  0  0  0  0  0  0
  148.5323  137.5853  155.9368 H   0  0  0  0  0  0  0  0  0  0  0  0
  149.3561  136.3346  153.4201 H   0  0  0  0  0  0  0  0  0  0  0  0
  1  2  1  0  0  0  0
  1 20  1  0  0  0  0
  1 21  1  0  0  0  0
  1 22  1  0  0  0  0
  2  3  1  0  0  0  0
  2  4  1  0  0  0  0
  2 23  1  0  0  0  0
  3 24  1  0  0  0  0
  3 25  1  0  0  0  0
  3 26  1  0  0  0  0
  4 19  1  0  0  0  0
  4  5  1  0  0  0  0
  4 40  1  0  0  0  0
  5  6  1  0  0  0  0
  5 27  1  0  0  0  0
  5 28  1  0  0  0  0
  6  7  1  0  0  0  0
  6 29  1  0  0  0  0
  6 30  1  0  0  0  0
  7  8  1  0  0  0  0
  7 18  1  0  0  0  0
  7 31  1  0  0  0  0
  8  9  1  0  0  0  0
  8 32  1  0  0  0  0
  9 10  2  0  0  0  0
  9 11  1  0  0  0  0
 11 12  1  0  0  0  0
 11 33  1  0  0  0  0
 11 34  1  0  0  0  0
 12 16  1  0  0  0  0
 12 13  1  0  0  0  0
 13 14  2  0  0  0  0
 14 15  1  0  0  0  0
 14 35  1  0  0  0  0
 15 16  1  0  0  0  0
 16 17  2  0  0  0  0
 18 19  1  0  0  0  0
 18 36  1  0  0  0  0
 18 37  1  0  0  0  0
 19 38  1  0  0  0  0
 19 39  1  0  0  0  0
M  CHG  1   4   1
M  END
> <s_m_source_file>
AV-unprocessed.smi

> <i_m_source_file_index>
2588

> <i_lp_mmshare_version>
43012

> <i_f3d_flags>
0

> <s_epik_input>
W0NIM11bQ0hdKFtDSDNdKU4xW0NIMl1bQ0gyXVtDSF0oW0NIMl1bQ0gyXTEpW05IXUMoPU8pW0NIMl1uMm5bY0hdc2MyPU8=

> <s_epik_cmdline>
J2VwaWtfcHl0aG9uJywgJy1waCcsICc3LjAnLCAnLXRuJywgJzgnLCAnLW1hJywgJzIwMCcsICctbWV0YWxfYmluZGluZycsICctaW1hZScsICc8aW5maWxlLm1hZT4nLCAnLW9tYWUnLCAnPG91dGZpbGUubWFlPic=

> <r_lp_tautomer_probability>
1

> <r_epik_Ionization_Penalty>
0.00923155

> <r_epik_Ionization_Penalty_Charging>
0.00923117

> <r_epik_Ionization_Penalty_Neutral>
3.88423e-07

> <r_epik_State_Penalty>
0.0069994

> <r_epik_Charging_Adjusted_Penalty>
0.0162306

> <i_epik_Tot_Q>
1

> <i_epik_Tot_abs_Q>
1

> <r_epik_Metal_State_Penalty>
0.0069994

> <b_epik_Metal_Only>
0

> <s_lp_Force_Field>
OPLS_2005

> <r_lp_Energy>
20.7245

> <b_lp_Chiralities_Consistent>
1

> <s_lp_Variant>
AV-unprocessed.smi:2588-2

> <Gold.Version>
5.8.1

> <Gold.Id.Protein>
6NUR|6NUR_protein|mol2

> <Gold.PLP.Fitness>
41.9515

> <Gold.PLP.PLP>
-34.0325

> <Gold.PLP.part.hbond>
-2.0000

> <Gold.PLP.part.metal>
0.0000

> <Gold.PLP.part.buried>
-3.9801

> <Gold.PLP.part.nonpolar>
-28.6334

> <Gold.PLP.part.repulsive>
1.3775

> <Gold.PLP.ligand.clash>
0.0000

> <Gold.PLP.ligand.torsion>
0.5593

> <Gold.PLP.Chemscore.Hbond>
3.0000

> <Gold.PLP.Chemscore.CHOScore>
0.0000

> <Gold.PLP.Chemscore.Metal>
0.0000

> <Gold.Chemscore.Hbonds>
donor molecule, donor type, donor heavy atom, donor atom, acceptor molecule, acceptor atom, score
      L1  H     4    40       P1  7948  2.00
      P1  H  7997  8008       L1    10  1.00

> <Gold.PLP.Chemscore.Internal.Correction>
0.0376

> <Gold.Rescore>
     Score         DG    S(hbond)    S(metal)    S(lipo)     H(rot)  DE(clash)    DE(int)     intcor
     12.47     -15.70       1.98        0.00      71.92       1.88       0.05       3.18       ----

> <Gold.Chemscore.Fitness>
12.4709

> <Gold.Chemscore.DG>
-15.7008

> <Gold.Chemscore.ZeroCoef>
-5.4800

> <Gold.Chemscore.Hbond>
1.9784

> <Gold.Chemscore.Metal>
0.0000

> <Gold.Chemscore.Lipo>
71.9202

> <Gold.Chemscore.Internal_Hbond>
0.0000

> <Gold.Chemscore.DEClash>
0.0476

> <Gold.Chemscore.DEInternal>
3.1823

> <Gold.Chemscore.Rot>
1.8756

> <Gold.Chemscore.Internal.Correction>
   9.000000E+99

> <Gold.Chemscore.Hbonds>
donor molecule, donor type, donor heavy atom, donor atom, acceptor molecule, acceptor atom, score
      L1  H     4    40       P1  7948  0.77
      P1  H  7997  8008       L1    10  0.98

> <Gold.Chemscore.Hbond.Weighted>
-6.6077

> <Gold.Chemscore.Metal.Weighted>
-0.0000

> <Gold.Chemscore.Lipo.Weighted>
-8.4147

> <Gold.Chemscore.Internal_Hbond.Weighted>
0.0000

> <Gold.Chemscore.DEClash.Weighted>
0.0476

> <Gold.Chemscore.DEInternal.Weighted>
3.1823

> <Gold.Chemscore.Rot.Weighted>
4.8015

> <Gold.Chemscore.Internal.Correction.Weighted>
   9.000000E+99

> <Gold.Protein.RotatedTorsions>
[ 6907 6896 6895 6894 ] final -109.74 input  -60.11 | X-H torsion
[ 7974 7965 7964 7962 ] final   -8.97 input  175.53 | X-H torsion
[ 8008 7997 7996 7995 ] final  -29.26 input   59.86 | X-H torsion
[ 10167 10162 10161 10158 ] final   15.21 input  -65.29 | X-H torsion
[ 10718 10713 10712 10709 ] final  -70.86 input   66.30 | X-H torsion
[ 10763 10752 10751 10750 ] final  -86.06 input  -60.55 | X-H torsion
[ 11005 11000 10999 10996 ] final  104.89 input  -57.11 | X-H torsion

> <Gold.Protein.ActiveResidues>
 VAL166  LYS551  ARG553  GLY616  TRP617  ASP618  TYR619  PRO620  LYS621  CYS622 
 ASP623  PHE694  ASN695  SER759  ASP760  ASP761  ALA762  ILE779  LEU786  VAL792 
 PHE793  MET794  SER795  GLU796  ALA797  LYS798  CYS799  TRP800  GLU811  SER814 

> <Gold.Protein.RotatedAtoms>
  150.7581  133.9484  159.3477 H   0  0  0  0  0  0  0  0  0  0  0  0  # atno 6907 bound_to 6896
  151.7399  135.0854  160.0323 H   0  0  0  0  0  0  0  0  0  0  0  0  # atno 6908 bound_to 6896
  152.3535  133.6171  159.5998 H   0  0  0  0  0  0  0  0  0  0  0  0  # atno 6909 bound_to 6896
  146.2265  140.2548  142.8349 H   0  0  0  0  0  0  0  0  0  0  0  0  # atno 7974 bound_to 7965
  154.4297  140.1823  156.1220 H   0  0  0  0  0  0  0  0  0  0  0  0  # atno 8008 bound_to 7997
  156.0135  140.3348  155.6940 H   0  0  0  0  0  0  0  0  0  0  0  0  # atno 8009 bound_to 7997
  155.6077  140.0647  157.2706 H   0  0  0  0  0  0  0  0  0  0  0  0  # atno 8010 bound_to 7997
  140.5883  143.8846  150.6850 H   0  0  0  0  0  0  0  0  0  0  0  0  # atno 10167 bound_to 10162
  156.0388  130.4340  150.2359 H   0  0  0  0  0  0  0  0  0  0  0  0  # atno 10718 bound_to 10713
  154.6182  135.5462  153.7546 H   0  0  0  0  0  0  0  0  0  0  0  0  # atno 10763 bound_to 10752
  153.0226  135.6406  154.1479 H   0  0  0  0  0  0  0  0  0  0  0  0  # atno 10764 bound_to 10752
  154.1414  135.2908  155.3139 H   0  0  0  0  0  0  0  0  0  0  0  0  # atno 10765 bound_to 10752
  139.8796  134.9316  156.5430 H   0  0  0  0  0  0  0  0  0  0  0  0  # atno 11005 bound_to 11000
  144.9384  140.8052  143.5645 LP  0  0  0  0  0  0  0  0  0  0  0  0  # atno 17320 bound_to 7965
  145.2497  139.2037  143.4949 LP  0  0  0  0  0  0  0  0  0  0  0  0  # atno 17321 bound_to 7965
  140.2362  143.3698  152.1524 LP  0  0  0  0  0  0  0  0  0  0  0  0  # atno 17342 bound_to 10162
  139.5211  144.7042  151.5404 LP  0  0  0  0  0  0  0  0  0  0  0  0  # atno 17343 bound_to 10162
  157.0456  131.0048  151.3270 LP  0  0  0  0  0  0  0  0  0  0  0  0  # atno 17370 bound_to 10713
  157.5178  130.7979  149.7775 LP  0  0  0  0  0  0  0  0  0  0  0  0  # atno 17371 bound_to 10713
  140.8296  133.8289  155.8971 LP  0  0  0  0  0  0  0  0  0  0  0  0  # atno 17394 bound_to 11000
  140.9341  134.1984  157.4843 LP  0  0  0  0  0  0  0  0  0  0  0  0  # atno 17395 bound_to 11000

$$$$
