AV-unprocessed.smi:713|AV-procd|sdf|3481|dock4
  -GOLD-   22720 0473D 1   1.00000     0.00000
 Structure written by MMmdl.
 41 42  0  0  0  0  0  0  0  0  1 V2000
  144.0386  135.8442  152.0770 C   0  0  0  0  0  0  0  0  0  0  0  0
  145.2726  134.9327  151.9169 C   0  0  1  0  0  0  0  0  0  0  0  0
  145.8402  134.4414  153.2612 C   0  0  0  0  0  0  0  0  0  0  0  0
  145.0964  133.9988  154.1376 O   0  0  0  0  0  0  0  0  0  0  0  0
  147.1703  134.5428  153.4166 N   0  0  0  0  0  0  0  0  0  0  0  0
  147.9184  134.1375  154.6014 C   0  0  1  0  0  0  0  0  0  0  0  0
  148.7535  132.8875  154.2712 C   0  0  0  0  0  0  0  0  0  0  0  0
  149.6137  132.4446  155.4647 C   0  0  0  0  0  0  0  0  0  0  0  0
  150.4952  133.5941  155.9858 C   0  0  0  0  0  0  0  0  0  0  0  0
  149.7104  134.8925  156.2828 C   0  0  2  0  0  0  0  0  0  0  0  0
  148.7136  134.8187  157.8525 S   0  0  0  0  0  0  0  0  0  0  0  0
  148.7965  133.0332  158.2923 C   0  0  0  0  0  0  0  0  0  0  0  0
  149.4341  135.5782  158.8854 O   0  0  0  0  0  0  0  0  0  0  0  0
  147.3070  135.1418  157.5724 O   0  0  0  0  0  0  0  0  0  0  0  0
  148.8287  135.2873  155.0812 C   0  0  0  0  0  0  0  0  0  0  0  0
  145.0054  133.8107  151.0222 N   0  0  0  0  0  0  0  0  0  0  0  0
  143.8349  133.5220  150.3501 C   0  0  0  0  0  0  0  0  0  0  0  0
  144.0565  132.4023  149.6012 C   0  0  0  0  0  0  0  0  0  0  0  0
  145.4130  132.0747  149.8768 C   0  0  0  0  0  0  0  0  0  0  0  0
  145.9797  132.9210  150.7208 N   0  0  0  0  0  0  0  0  0  0  0  0
  144.2712  136.7215  152.6818 H   0  0  0  0  0  0  0  0  0  0  0  0
  143.2066  135.3244  152.5540 H   0  0  0  0  0  0  0  0  0  0  0  0
  143.6921  136.2012  151.1067 H   0  0  0  0  0  0  0  0  0  0  0  0
  146.0569  135.5320  151.4521 H   0  0  0  0  0  0  0  0  0  0  0  0
  147.7070  134.9164  152.6476 H   0  0  0  0  0  0  0  0  0  0  0  0
  147.2100  133.8776  155.3891 H   0  0  0  0  0  0  0  0  0  0  0  0
  148.0985  132.0694  153.9690 H   0  0  0  0  0  0  0  0  0  0  0  0
  149.4031  133.0932  153.4190 H   0  0  0  0  0  0  0  0  0  0  0  0
  148.9749  132.0598  156.2573 H   0  0  0  0  0  0  0  0  0  0  0  0
  150.2465  131.6085  155.1666 H   0  0  0  0  0  0  0  0  0  0  0  0
  151.0526  133.2677  156.8626 H   0  0  0  0  0  0  0  0  0  0  0  0
  151.2471  133.8158  155.2276 H   0  0  0  0  0  0  0  0  0  0  0  0
  150.4310  135.6952  156.4420 H   0  0  0  0  0  0  0  0  0  0  0  0
  148.3403  132.8842  159.2708 H   0  0  0  0  0  0  0  0  0  0  0  0
  149.8371  132.7124  158.3289 H   0  0  0  0  0  0  0  0  0  0  0  0
  148.2549  132.4410  157.5560 H   0  0  0  0  0  0  0  0  0  0  0  0
  149.4764  135.5944  154.2590 H   0  0  0  0  0  0  0  0  0  0  0  0
  148.2301  136.1636  155.3329 H   0  0  0  0  0  0  0  0  0  0  0  0
  142.9505  134.1325  150.4582 H   0  0  0  0  0  0  0  0  0  0  0  0
  143.3571  131.8960  148.9527 H   0  0  0  0  0  0  0  0  0  0  0  0
  145.9999  131.2557  149.4881 H   0  0  0  0  0  0  0  0  0  0  0  0
  1  2  1  0  0  0  0
  1 21  1  0  0  0  0
  1 22  1  0  0  0  0
  1 23  1  0  0  0  0
  2  3  1  0  0  0  0
  2 16  1  0  0  0  0
  2 24  1  0  0  0  0
  3  4  2  0  0  0  0
  3  5  1  0  0  0  0
  5  6  1  0  0  0  0
  5 25  1  0  0  0  0
  6 15  1  0  0  0  0
  6  7  1  0  0  0  0
  6 26  1  0  0  0  0
  7  8  1  0  0  0  0
  7 27  1  0  0  0  0
  7 28  1  0  0  0  0
  8  9  1  0  0  0  0
  8 29  1  0  0  0  0
  8 30  1  0  0  0  0
  9 10  1  0  0  0  0
  9 31  1  0  0  0  0
  9 32  1  0  0  0  0
 10 11  1  0  0  0  0
 10 15  1  0  0  0  0
 10 33  1  0  0  0  0
 11 12  1  0  0  0  0
 11 13  2  0  0  0  0
 11 14  2  0  0  0  0
 12 34  1  0  0  0  0
 12 35  1  0  0  0  0
 12 36  1  0  0  0  0
 15 37  1  0  0  0  0
 15 38  1  0  0  0  0
 16 20  1  0  0  0  0
 16 17  1  0  0  0  0
 17 18  2  0  0  0  0
 17 39  1  0  0  0  0
 18 19  1  0  0  0  0
 18 40  1  0  0  0  0
 19 20  2  0  0  0  0
 19 41  1  0  0  0  0
M  END
> <s_m_source_file>
AV-unprocessed.smi

> <i_m_source_file_index>
713

> <i_lp_mmshare_version>
43012

> <i_f3d_flags>
0

> <s_epik_input>
bjFbY0hdW2NIXVtjSF1uMVtDQEhdKFtDSDNdKUMoPU8pW05IXVtDQEBIXTJbQ0gyXVtDSDJdW0NIMl1bQ0BIXShbQ0gyXTIpUyg9TykoPU8pW0NIM10=

> <s_epik_cmdline>
J2VwaWtfcHl0aG9uJywgJy1waCcsICc3LjAnLCAnLXRuJywgJzgnLCAnLW1hJywgJzIwMCcsICctbWV0YWxfYmluZGluZycsICctaW1hZScsICc8aW5maWxlLm1hZT4nLCAnLW9tYWUnLCAnPG91dGZpbGUubWFlPic=

> <r_lp_tautomer_probability>
1

> <r_epik_Ionization_Penalty>
4.07816e-05

> <r_epik_Ionization_Penalty_Charging>
0

> <r_epik_Ionization_Penalty_Neutral>
4.07816e-05

> <r_epik_State_Penalty>
-0

> <r_epik_Charging_Adjusted_Penalty>
0

> <i_epik_Tot_Q>
0

> <i_epik_Tot_abs_Q>
0

> <r_epik_Metal_State_Penalty>
-0

> <b_epik_Metal_Only>
0

> <s_lp_Force_Field>
OPLS_2005

> <r_lp_Energy>
4.31355

> <b_lp_Chiralities_Consistent>
1

> <s_lp_Variant>
AV-unprocessed.smi:713-8

> <Gold.Version>
5.8.1

> <Gold.Id.Protein>
6NUR|6NUR_protein|mol2

> <Gold.PLP.Fitness>
40.6053

> <Gold.PLP.PLP>
-30.5049

> <Gold.PLP.part.hbond>
-2.0000

> <Gold.PLP.part.metal>
0.0000

> <Gold.PLP.part.buried>
-3.3849

> <Gold.PLP.part.nonpolar>
-25.0058

> <Gold.PLP.part.repulsive>
0.3037

> <Gold.PLP.ligand.clash>
0.0000

> <Gold.PLP.ligand.torsion>
0.8150

> <Gold.PLP.Chemscore.Hbond>
2.0000

> <Gold.PLP.Chemscore.CHOScore>
1.8095

> <Gold.PLP.Chemscore.Metal>
0.0000

> <Gold.Chemscore.Hbonds>
donor molecule, donor type, donor heavy atom, donor atom, acceptor molecule, acceptor atom, score
      L1  H     5    25       P1  7948  1.00
      P1  H  6896  6909       L1    13  1.00
      L1  C    17    39       P1 10186  1.00

> <Gold.PLP.Chemscore.Internal.Correction>
0.3020

> <Gold.Rescore>
     Score         DG    S(hbond)    S(metal)    S(lipo)     H(rot)  DE(clash)    DE(int)     intcor
     14.39     -15.91       1.91        0.00      72.31       1.72       0.02       1.50       ----

> <Gold.Chemscore.Fitness>
14.3891

> <Gold.Chemscore.DG>
-15.9097

> <Gold.Chemscore.ZeroCoef>
-5.4800

> <Gold.Chemscore.Hbond>
1.9116

> <Gold.Chemscore.Metal>
0.0000

> <Gold.Chemscore.Lipo>
72.3128

> <Gold.Chemscore.Internal_Hbond>
0.0000

> <Gold.Chemscore.DEClash>
0.0211

> <Gold.Chemscore.DEInternal>
1.4995

> <Gold.Chemscore.Rot>
1.7249

> <Gold.Chemscore.Internal.Correction>
   9.000000E+99

> <Gold.Chemscore.Hbonds>
donor molecule, donor type, donor heavy atom, donor atom, acceptor molecule, acceptor atom, score
      L1  H     5    25       P1  7948  0.93
      P1  H  6896  6909       L1    13  0.85

> <Gold.Chemscore.Hbond.Weighted>
-6.3849

> <Gold.Chemscore.Metal.Weighted>
-0.0000

> <Gold.Chemscore.Lipo.Weighted>
-8.4606

> <Gold.Chemscore.Internal_Hbond.Weighted>
0.0000

> <Gold.Chemscore.DEClash.Weighted>
0.0211

> <Gold.Chemscore.DEInternal.Weighted>
1.4995

> <Gold.Chemscore.Rot.Weighted>
4.4157

> <Gold.Chemscore.Internal.Correction.Weighted>
   9.000000E+99

> <Gold.Protein.RotatedTorsions>
[ 6907 6896 6895 6894 ] final   56.14 input  -60.11 | X-H torsion
[ 7974 7965 7964 7962 ] final   77.64 input  175.53 | X-H torsion
[ 8008 7997 7996 7995 ] final -151.43 input   59.86 | X-H torsion
[ 10167 10162 10161 10158 ] final   20.72 input  -65.29 | X-H torsion
[ 10718 10713 10712 10709 ] final  -97.25 input   66.30 | X-H torsion
[ 10763 10752 10751 10750 ] final -103.98 input  -60.55 | X-H torsion
[ 11005 11000 10999 10996 ] final   -7.63 input  -57.11 | X-H torsion

> <Gold.Protein.ActiveResidues>
 VAL166  LYS551  ARG553  GLY616  TRP617  ASP618  TYR619  PRO620  LYS621  CYS622 
 ASP623  PHE694  ASN695  SER759  ASP760  ASP761  ALA762  ILE779  LEU786  VAL792 
 PHE793  MET794  SER795  GLU796  ALA797  LYS798  CYS799  TRP800  GLU811  SER814 

> <Gold.Protein.RotatedAtoms>
  152.3607  134.6876  160.0207 H   0  0  0  0  0  0  0  0  0  0  0  0  # atno 6907 bound_to 6896
  151.7200  133.3309  159.3321 H   0  0  0  0  0  0  0  0  0  0  0  0  # atno 6908 bound_to 6896
  150.7603  134.6390  159.6271 H   0  0  0  0  0  0  0  0  0  0  0  0  # atno 6909 bound_to 6896
  145.6875  139.2542  143.1779 H   0  0  0  0  0  0  0  0  0  0  0  0  # atno 7974 bound_to 7965
  155.6393  140.0700  157.2623 H   0  0  0  0  0  0  0  0  0  0  0  0  # atno 8008 bound_to 7997
  154.4187  140.1753  156.1605 H   0  0  0  0  0  0  0  0  0  0  0  0  # atno 8009 bound_to 7997
  155.9868  140.3349  155.6718 H   0  0  0  0  0  0  0  0  0  0  0  0  # atno 8010 bound_to 7997
  140.5482  143.9557  150.6561 H   0  0  0  0  0  0  0  0  0  0  0  0  # atno 10167 bound_to 10162
  156.0079  130.5186  150.6346 H   0  0  0  0  0  0  0  0  0  0  0  0  # atno 10718 bound_to 10713
  154.7846  135.4803  153.9918 H   0  0  0  0  0  0  0  0  0  0  0  0  # atno 10763 bound_to 10752
  153.1542  135.6797  153.8845 H   0  0  0  0  0  0  0  0  0  0  0  0  # atno 10764 bound_to 10752
  153.8479  135.3171  155.3409 H   0  0  0  0  0  0  0  0  0  0  0  0  # atno 10765 bound_to 10752
  140.7148  133.8878  155.8777 H   0  0  0  0  0  0  0  0  0  0  0  0  # atno 11005 bound_to 11000
  146.0911  140.7654  142.9595 LP  0  0  0  0  0  0  0  0  0  0  0  0  # atno 17320 bound_to 7965
  144.7007  140.3639  143.7158 LP  0  0  0  0  0  0  0  0  0  0  0  0  # atno 17321 bound_to 7965
  140.2976  143.3282  152.1003 LP  0  0  0  0  0  0  0  0  0  0  0  0  # atno 17342 bound_to 10162
  139.5016  144.6717  151.6227 LP  0  0  0  0  0  0  0  0  0  0  0  0  # atno 17343 bound_to 10162
  157.4138  131.0827  151.1196 LP  0  0  0  0  0  0  0  0  0  0  0  0  # atno 17370 bound_to 10713
  157.1819  130.6313  149.5675 LP  0  0  0  0  0  0  0  0  0  0  0  0  # atno 17371 bound_to 10713
  141.0054  134.1094  157.4276 LP  0  0  0  0  0  0  0  0  0  0  0  0  # atno 17394 bound_to 11000
  139.8862  135.0080  156.6487 LP  0  0  0  0  0  0  0  0  0  0  0  0  # atno 17395 bound_to 11000

$$$$
