AV-unprocessed.smi:1565|AV-procd|sdf|6300|dock10
  -GOLD-   22720 6503D 1   1.00000     0.00000
 Structure written by MMmdl.
 39 40  0  0  0  0  0  0  0  0  2 V2000
  148.9436  142.4977  158.1553 C   0  0  0  0  0  0  0  0  0  0  0  0
  150.4524  142.3557  158.3816 C   0  0  2  0  0  0  0  0  0  0  0  0
  150.8639  140.8884  158.5963 C   0  0  0  0  0  0  0  0  0  0  0  0
  152.2811  140.8038  158.9329 N   0  0  0  0  0  0  0  0  0  0  0  0
  152.8550  139.5184  158.8323 C   0  0  0  0  0  0  0  0  0  0  0  0
  152.8997  138.6717  159.9642 C   0  0  0  0  0  0  0  0  0  0  0  0
  153.4798  137.3942  159.8446 C   0  0  0  0  0  0  0  0  0  0  0  0
  153.9942  136.9841  158.5936 C   0  0  0  0  0  0  0  0  0  0  0  0
  154.6552  135.6461  158.3987 C   0  0  0  0  0  0  0  0  0  0  0  0
  154.5393  134.8064  159.2983 O   0  0  0  0  0  0  0  0  0  0  0  0
  155.3545  135.5761  157.2307 N   0  5  0  0  0  0  0  0  0  0  0  0
  156.6490  134.9062  157.0843 C   0  0  0  0  0  0  0  0  0  0  0  0
  157.8053  135.9261  157.0505 C   0  0  0  0  0  0  0  0  0  0  0  0
  157.7683  136.6611  158.1620 F   0  0  0  0  0  0  0  0  0  0  0  0
  158.9834  135.3028  156.9974 F   0  0  0  0  0  0  0  0  0  0  0  0
  157.6946  136.7443  156.0028 F   0  0  0  0  0  0  0  0  0  0  0  0
  153.9098  137.9023  157.5249 C   0  0  0  0  0  0  0  0  0  0  0  0
  153.3533  139.1279  157.6338 N   0  0  0  0  0  0  0  0  0  0  0  0
  152.6501  141.6327  160.0780 C   0  0  0  0  0  0  0  0  0  0  0  0
  152.1871  143.0893  159.8787 C   0  0  1  0  0  0  0  0  0  0  0  0
  153.0553  143.8779  158.8819 C   0  0  0  0  0  0  0  0  0  0  0  0
  150.8006  143.1242  159.5326 O   0  0  0  0  0  0  0  0  0  0  0  0
  148.6237  141.9358  157.2774 H   0  0  0  0  0  0  0  0  0  0  0  0
  148.6698  143.5414  157.9993 H   0  0  0  0  0  0  0  0  0  0  0  0
  148.3793  142.1299  159.0128 H   0  0  0  0  0  0  0  0  0  0  0  0
  150.9632  142.7536  157.5046 H   0  0  0  0  0  0  0  0  0  0  0  0
  150.2860  140.4512  159.4116 H   0  0  0  0  0  0  0  0  0  0  0  0
  150.6266  140.3163  157.7004 H   0  0  0  0  0  0  0  0  0  0  0  0
  152.4892  138.9796  160.9143 H   0  0  0  0  0  0  0  0  0  0  0  0
  153.5249  136.7473  160.7088 H   0  0  0  0  0  0  0  0  0  0  0  0
  156.8321  134.1837  157.8815 H   0  0  0  0  0  0  0  0  0  0  0  0
  156.6737  134.3221  156.1637 H   0  0  0  0  0  0  0  0  0  0  0  0
  154.2939  137.6510  156.5469 H   0  0  0  0  0  0  0  0  0  0  0  0
  152.1833  141.2195  160.9734 H   0  0  0  0  0  0  0  0  0  0  0  0
  153.7290  141.6093  160.2374 H   0  0  0  0  0  0  0  0  0  0  0  0
  152.2727  143.5978  160.8395 H   0  0  0  0  0  0  0  0  0  0  0  0
  154.0825  143.9507  159.2397 H   0  0  0  0  0  0  0  0  0  0  0  0
  152.6777  144.8926  158.7552 H   0  0  0  0  0  0  0  0  0  0  0  0
  153.0896  143.4073  157.8996 H   0  0  0  0  0  0  0  0  0  0  0  0
  1  2  1  0  0  0  0
  1 23  1  0  0  0  0
  1 24  1  0  0  0  0
  1 25  1  0  0  0  0
  2 22  1  0  0  0  0
  2  3  1  0  0  0  0
  2 26  1  0  0  0  0
  3  4  1  0  0  0  0
  3 27  1  0  0  0  0
  3 28  1  0  0  0  0
  4  5  1  0  0  0  0
  4 19  1  0  0  0  0
  5 18  1  0  0  0  0
  5  6  2  0  0  0  0
  6  7  1  0  0  0  0
  6 29  1  0  0  0  0
  7  8  2  0  0  0  0
  7 30  1  0  0  0  0
  8  9  1  0  0  0  0
  8 17  1  0  0  0  0
  9 10  2  0  0  0  0
  9 11  1  0  0  0  0
 11 12  1  0  0  0  0
 12 13  1  0  0  0  0
 12 31  1  0  0  0  0
 12 32  1  0  0  0  0
 13 14  1  0  0  0  0
 13 15  1  0  0  0  0
 13 16  1  0  0  0  0
 17 18  2  0  0  0  0
 17 33  1  0  0  0  0
 19 20  1  0  0  0  0
 19 34  1  0  0  0  0
 19 35  1  0  0  0  0
 20 21  1  0  0  0  0
 20 22  1  0  0  0  0
 20 36  1  0  0  0  0
 21 37  1  0  0  0  0
 21 38  1  0  0  0  0
 21 39  1  0  0  0  0
M  CHG  1  11  -1
M  END
> <s_m_source_file>
AV-unprocessed.smi

> <i_m_source_file_index>
1565

> <i_lp_mmshare_version>
43012

> <i_f3d_flags>
0

> <s_epik_input>
W0NIM11bQ0BASF0xW0NIMl1OKFtDSDJdW0NASF0oTzEpW0NIM10pYzJbY0hdW2NIXWMoW2NIXW4yKUMoPU8pW05IXVtDSDJdQyhGKShGKUY=

> <s_epik_cmdline>
J2VwaWtfcHl0aG9uJywgJy1waCcsICc3LjAnLCAnLXRuJywgJzgnLCAnLW1hJywgJzIwMCcsICctbWV0YWxfYmluZGluZycsICctaW1hZScsICc8aW5maWxlLm1hZT4nLCAnLW9tYWUnLCAnPG91dGZpbGUubWFlPic=

> <r_lp_tautomer_probability>
1

> <r_epik_Ionization_Penalty>
6.78525

> <r_epik_Ionization_Penalty_Charging>
6.78469

> <r_epik_Ionization_Penalty_Neutral>
0.000559052

> <r_epik_State_Penalty>
6.78469

> <r_epik_Charging_Adjusted_Penalty>
13.5694

> <i_epik_Tot_Q>
-1

> <i_epik_Tot_abs_Q>
1

> <r_epik_Metal_State_Penalty>
2.70441

> <b_epik_Metal_Only>
1

> <s_lp_Force_Field>
OPLS_2005

> <r_lp_Energy>
29.3636

> <b_lp_Chiralities_Consistent>
1

> <s_lp_Variant>
AV-unprocessed.smi:1565-4

> <Gold.Version>
5.8.1

> <Gold.Id.Protein>
6NUR|6NUR_protein|mol2

> <Gold.PLP.Fitness>
41.4570

> <Gold.PLP.PLP>
-31.1491

> <Gold.PLP.part.hbond>
-3.7074

> <Gold.PLP.part.metal>
0.0000

> <Gold.PLP.part.buried>
-4.7107

> <Gold.PLP.part.nonpolar>
-22.9162

> <Gold.PLP.part.repulsive>
0.0293

> <Gold.PLP.ligand.clash>
0.0000

> <Gold.PLP.ligand.torsion>
1.0148

> <Gold.PLP.Chemscore.Hbond>
4.0000

> <Gold.PLP.Chemscore.CHOScore>
0.0000

> <Gold.PLP.Chemscore.Metal>
0.0000

> <Gold.Chemscore.Hbonds>
donor molecule, donor type, donor heavy atom, donor atom, acceptor molecule, acceptor atom, score
      P1  H  6896  6908       L1    10  0.84
      P1  H  7997  8008       L1    18  1.00
      P1  H 10752 10763       L1    11  1.11

> <Gold.PLP.Chemscore.Internal.Correction>
0.3374

> <Gold.Rescore>
     Score         DG    S(hbond)    S(metal)    S(lipo)     H(rot)  DE(clash)    DE(int)     intcor
     17.39     -18.42       2.38        0.00      71.01       1.29       0.03       1.00       ----

> <Gold.Chemscore.Fitness>
17.3893

> <Gold.Chemscore.DG>
-18.4169

> <Gold.Chemscore.ZeroCoef>
-5.4800

> <Gold.Chemscore.Hbond>
2.3763

> <Gold.Chemscore.Metal>
0.0000

> <Gold.Chemscore.Lipo>
71.0079

> <Gold.Chemscore.Internal_Hbond>
0.0000

> <Gold.Chemscore.DEClash>
0.0299

> <Gold.Chemscore.DEInternal>
0.9977

> <Gold.Chemscore.Rot>
1.2921

> <Gold.Chemscore.Internal.Correction>
   9.000000E+99

> <Gold.Chemscore.Hbonds>
donor molecule, donor type, donor heavy atom, donor atom, acceptor molecule, acceptor atom, score
      P1  H  6896  6908       L1    10  0.79
      P1  H  7997  8008       L1    18  0.30
      P1  H 10752 10763       L1    11  0.36

> <Gold.Chemscore.Hbond.Weighted>
-7.9367

> <Gold.Chemscore.Metal.Weighted>
-0.0000

> <Gold.Chemscore.Lipo.Weighted>
-8.3079

> <Gold.Chemscore.Internal_Hbond.Weighted>
0.0000

> <Gold.Chemscore.DEClash.Weighted>
0.0299

> <Gold.Chemscore.DEInternal.Weighted>
0.9977

> <Gold.Chemscore.Rot.Weighted>
3.3078

> <Gold.Chemscore.Internal.Correction.Weighted>
   9.000000E+99

> <Gold.Protein.RotatedTorsions>
[ 6907 6896 6895 6894 ] final  -38.64 input  -60.11 | X-H torsion
[ 7974 7965 7964 7962 ] final   65.38 input  175.53 | X-H torsion
[ 8008 7997 7996 7995 ] final  -70.68 input   59.86 | X-H torsion
[ 10167 10162 10161 10158 ] final  173.68 input  -65.29 | X-H torsion
[ 10718 10713 10712 10709 ] final  -45.37 input   66.30 | X-H torsion
[ 10763 10752 10751 10750 ] final  154.56 input  -60.55 | X-H torsion
[ 11005 11000 10999 10996 ] final -141.81 input  -57.11 | X-H torsion

> <Gold.Protein.ActiveResidues>
 VAL166  LYS551  ARG553  GLY616  TRP617  ASP618  TYR619  PRO620  LYS621  CYS622 
 ASP623  PHE694  ASN695  SER759  ASP760  ASP761  ALA762  ILE779  LEU786  VAL792 
 PHE793  MET794  SER795  GLU796  ALA797  LYS798  CYS799  TRP800  GLU811  SER814 

> <Gold.Protein.RotatedAtoms>
  150.9999  134.9314  159.7947 H   0  0  0  0  0  0  0  0  0  0  0  0  # atno 6907 bound_to 6896
  152.5275  134.3168  159.9143 H   0  0  0  0  0  0  0  0  0  0  0  0  # atno 6908 bound_to 6896
  151.3173  133.4013  159.2686 H   0  0  0  0  0  0  0  0  0  0  0  0  # atno 6909 bound_to 6896
  145.8392  139.3185  143.0942 H   0  0  0  0  0  0  0  0  0  0  0  0  # atno 7974 bound_to 7965
  154.5030  140.0830  156.7837 H   0  0  0  0  0  0  0  0  0  0  0  0  # atno 8008 bound_to 7997
  155.3958  140.3435  155.4236 H   0  0  0  0  0  0  0  0  0  0  0  0  # atno 8009 bound_to 7997
  156.1480  140.1550  156.8803 H   0  0  0  0  0  0  0  0  0  0  0  0  # atno 8010 bound_to 7997
  139.5116  144.3233  152.0181 H   0  0  0  0  0  0  0  0  0  0  0  0  # atno 10167 bound_to 10162
  156.2290  130.4171  149.8898 H   0  0  0  0  0  0  0  0  0  0  0  0  # atno 10718 bound_to 10713
  154.1543  135.2813  155.3127 H   0  0  0  0  0  0  0  0  0  0  0  0  # atno 10763 bound_to 10752
  154.6194  135.5472  153.7562 H   0  0  0  0  0  0  0  0  0  0  0  0  # atno 10764 bound_to 10752
  153.0211  135.6435  154.1686 H   0  0  0  0  0  0  0  0  0  0  0  0  # atno 10765 bound_to 10752
  140.8288  134.2543  157.4867 H   0  0  0  0  0  0  0  0  0  0  0  0  # atno 11005 bound_to 11000
  145.9485  140.8927  143.0271 LP  0  0  0  0  0  0  0  0  0  0  0  0  # atno 17320 bound_to 7965
  144.6734  140.1646  143.7419 LP  0  0  0  0  0  0  0  0  0  0  0  0  # atno 17321 bound_to 7965
  140.2674  144.4001  150.6163 LP  0  0  0  0  0  0  0  0  0  0  0  0  # atno 17342 bound_to 10162
  140.6113  143.2169  151.6880 LP  0  0  0  0  0  0  0  0  0  0  0  0  # atno 17343 bound_to 10162
  156.6519  130.8747  151.3532 LP  0  0  0  0  0  0  0  0  0  0  0  0  # atno 17370 bound_to 10713
  157.7124  130.9456  150.1135 LP  0  0  0  0  0  0  0  0  0  0  0  0  # atno 17371 bound_to 10713
  139.8705  134.9575  156.4270 LP  0  0  0  0  0  0  0  0  0  0  0  0  # atno 17394 bound_to 11000
  140.9021  133.7772  155.9692 LP  0  0  0  0  0  0  0  0  0  0  0  0  # atno 17395 bound_to 11000

$$$$
