AV-unprocessed.smi:2999|AV-procd|sdf|11417|dock2
  -GOLD-   2272016343D 1   1.00000     0.00000
 Structure written by MMmdl.
 37 39  0  0  0  0  0  0  0  0  1 V2000
  144.6330  136.6612  152.4908 O   0  0  0  0  0  0  0  0  0  0  0  0
  145.8461  136.4752  152.3935 C   0  0  0  0  0  0  0  0  0  0  0  0
  146.7636  137.3771  152.7690 N   0  0  0  0  0  0  0  0  0  0  0  0
  146.4650  138.6879  153.3351 C   0  0  0  0  0  0  0  0  0  0  0  0
  147.7205  139.5719  153.4207 C   0  0  2  0  0  0  0  0  0  0  0  0
  148.8609  138.8738  154.1876 C   0  0  0  0  0  0  0  0  0  0  0  0
  150.0288  139.7347  154.3284 N   0  0  0  0  0  0  0  0  0  0  0  0
  151.0852  139.0625  155.0703 C   0  0  0  0  0  0  0  0  0  0  0  0
  152.5146  139.5032  154.8884 C   0  0  0  0  0  0  0  0  0  0  0  0
  152.0504  138.1679  154.3362 C   0  0  0  0  0  0  0  0  0  0  0  0
  149.6246  140.9672  154.9929 C   0  0  0  0  0  0  0  0  0  0  0  0
  148.4827  141.6710  154.2404 C   0  0  0  0  0  0  0  0  0  0  0  0
  147.3819  140.7775  154.1045 O   0  0  0  0  0  0  0  0  0  0  0  0
  146.4252  135.3653  151.9076 N   0  0  0  0  0  0  0  0  0  0  0  0
  145.7886  134.2133  151.3827 C   0  0  0  0  0  0  0  0  0  0  0  0
  144.6086  134.3493  150.7746 N   0  0  0  0  0  0  0  0  0  0  0  0
  144.1085  133.1259  150.3192 C   0  0  0  0  0  0  0  0  0  0  0  0
  144.9285  132.0588  150.5904 C   0  0  0  0  0  0  0  0  0  0  0  0
  146.3731  132.5479  151.4346 S   0  0  0  0  0  0  0  0  0  0  0  0
  147.7393  137.1407  152.6607 H   0  0  0  0  0  0  0  0  0  0  0  0
  145.7108  139.1688  152.7117 H   0  0  0  0  0  0  0  0  0  0  0  0
  146.0172  138.5687  154.3233 H   0  0  0  0  0  0  0  0  0  0  0  0
  148.0646  139.8158  152.4138 H   0  0  0  0  0  0  0  0  0  0  0  0
  148.5034  138.5705  155.1731 H   0  0  0  0  0  0  0  0  0  0  0  0
  149.1423  137.9590  153.6644 H   0  0  0  0  0  0  0  0  0  0  0  0
  150.7653  138.7607  156.0664 H   0  0  0  0  0  0  0  0  0  0  0  0
  152.7160  140.2983  154.1729 H   0  0  0  0  0  0  0  0  0  0  0  0
  153.1588  139.4892  155.7651 H   0  0  0  0  0  0  0  0  0  0  0  0
  152.3875  137.2678  154.8462 H   0  0  0  0  0  0  0  0  0  0  0  0
  151.9433  138.0811  153.2566 H   0  0  0  0  0  0  0  0  0  0  0  0
  149.3035  140.7516  156.0131 H   0  0  0  0  0  0  0  0  0  0  0  0
  150.4781  141.6415  155.0708 H   0  0  0  0  0  0  0  0  0  0  0  0
  148.1580  142.5574  154.7854 H   0  0  0  0  0  0  0  0  0  0  0  0
  148.8142  142.0028  153.2553 H   0  0  0  0  0  0  0  0  0  0  0  0
  147.4342  135.3476  151.8970 H   0  0  0  0  0  0  0  0  0  0  0  0
  143.1558  133.1058  149.8110 H   0  0  0  0  0  0  0  0  0  0  0  0
  144.7705  131.0188  150.3465 H   0  0  0  0  0  0  0  0  0  0  0  0
  1  2  2  0  0  0  0
  2  3  1  0  0  0  0
  2 14  1  0  0  0  0
  3  4  1  0  0  0  0
  3 20  1  0  0  0  0
  4  5  1  0  0  0  0
  4 21  1  0  0  0  0
  4 22  1  0  0  0  0
  5 13  1  0  0  0  0
  5  6  1  0  0  0  0
  5 23  1  0  0  0  0
  6  7  1  0  0  0  0
  6 24  1  0  0  0  0
  6 25  1  0  0  0  0
  7  8  1  0  0  0  0
  7 11  1  0  0  0  0
  8 10  1  0  0  0  0
  8  9  1  0  0  0  0
  8 26  1  0  0  0  0
  9 10  1  0  0  0  0
  9 27  1  0  0  0  0
  9 28  1  0  0  0  0
 10 29  1  0  0  0  0
 10 30  1  0  0  0  0
 11 12  1  0  0  0  0
 11 31  1  0  0  0  0
 11 32  1  0  0  0  0
 12 13  1  0  0  0  0
 12 33  1  0  0  0  0
 12 34  1  0  0  0  0
 14 15  1  0  0  0  0
 14 35  1  0  0  0  0
 15 19  1  0  0  0  0
 15 16  2  0  0  0  0
 16 17  1  0  0  0  0
 17 18  2  0  0  0  0
 17 36  1  0  0  0  0
 18 19  1  0  0  0  0
 18 37  1  0  0  0  0
M  END
> <s_m_source_file>
AV-unprocessed.smi

> <i_m_source_file_index>
2999

> <i_lp_mmshare_version>
43012

> <i_f3d_flags>
0

> <s_epik_input>
czFbY0hdW2NIXW5jMVtOSF1DKD1PKVtOSF1bQ0gyXVtDQEBIXTJbQ0gyXU4oW0NIMl1bQ0gyXU8yKVtDSF0zW0NIMl1bQ0gyXTM=

> <s_epik_cmdline>
J2VwaWtfcHl0aG9uJywgJy1waCcsICc3LjAnLCAnLXRuJywgJzgnLCAnLW1hJywgJzIwMCcsICctbWV0YWxfYmluZGluZycsICctaW1hZScsICc8aW5maWxlLm1hZT4nLCAnLW9tYWUnLCAnPG91dGZpbGUubWFlPic=

> <r_lp_tautomer_probability>
0.999

> <r_epik_Ionization_Penalty>
0.0449352

> <r_epik_Ionization_Penalty_Charging>
0

> <r_epik_Ionization_Penalty_Neutral>
0.0449352

> <r_epik_State_Penalty>
0.0379856

> <r_epik_Charging_Adjusted_Penalty>
0.0379856

> <i_epik_Tot_Q>
0

> <i_epik_Tot_abs_Q>
0

> <r_epik_Metal_State_Penalty>
0.0775629

> <b_epik_Metal_Only>
0

> <s_lp_Force_Field>
OPLS_2005

> <r_lp_Energy>
28.3978

> <b_lp_Chiralities_Consistent>
1

> <s_lp_Variant>
AV-unprocessed.smi:2999-1

> <Gold.Version>
5.8.1

> <Gold.Id.Protein>
6NUR|6NUR_protein|mol2

> <Gold.PLP.Fitness>
42.9513

> <Gold.PLP.PLP>
-34.2142

> <Gold.PLP.part.hbond>
-2.7191

> <Gold.PLP.part.metal>
0.0000

> <Gold.PLP.part.buried>
-2.0835

> <Gold.PLP.part.nonpolar>
-30.6617

> <Gold.PLP.part.repulsive>
0.7747

> <Gold.PLP.ligand.clash>
0.0000

> <Gold.PLP.ligand.torsion>
0.8048

> <Gold.PLP.Chemscore.Hbond>
2.0853

> <Gold.PLP.Chemscore.CHOScore>
1.0000

> <Gold.PLP.Chemscore.Metal>
0.0000

> <Gold.Chemscore.Hbonds>
donor molecule, donor type, donor heavy atom, donor atom, acceptor molecule, acceptor atom, score
      L1  H     3    20       P1  7948  0.98
      L1  H    14    35       P1  7948  0.99
      P1  H  7989  7998       L1     7  0.07
      L1  C    17    36       P1 10186  1.00

> <Gold.PLP.Chemscore.Internal.Correction>
1.0910

> <Gold.Rescore>
     Score         DG    S(hbond)    S(metal)    S(lipo)     H(rot)  DE(clash)    DE(int)     intcor
     15.51     -17.61       1.92        0.00      82.73       1.55       0.05       2.05       ----

> <Gold.Chemscore.Fitness>
15.5145

> <Gold.Chemscore.DG>
-17.6148

> <Gold.Chemscore.ZeroCoef>
-5.4800

> <Gold.Chemscore.Hbond>
1.9204

> <Gold.Chemscore.Metal>
0.0000

> <Gold.Chemscore.Lipo>
82.7266

> <Gold.Chemscore.Internal_Hbond>
0.0000

> <Gold.Chemscore.DEClash>
0.0547

> <Gold.Chemscore.DEInternal>
2.0455

> <Gold.Chemscore.Rot>
1.5463

> <Gold.Chemscore.Internal.Correction>
   9.000000E+99

> <Gold.Chemscore.Hbonds>
donor molecule, donor type, donor heavy atom, donor atom, acceptor molecule, acceptor atom, score
      L1  H     3    20       P1  7948  0.93
      L1  H    14    35       P1  7948  0.93

> <Gold.Chemscore.Hbond.Weighted>
-6.4142

> <Gold.Chemscore.Metal.Weighted>
-0.0000

> <Gold.Chemscore.Lipo.Weighted>
-9.6790

> <Gold.Chemscore.Internal_Hbond.Weighted>
0.0000

> <Gold.Chemscore.DEClash.Weighted>
0.0547

> <Gold.Chemscore.DEInternal.Weighted>
2.0455

> <Gold.Chemscore.Rot.Weighted>
3.9584

> <Gold.Chemscore.Internal.Correction.Weighted>
   9.000000E+99

> <Gold.Protein.RotatedTorsions>
[ 6907 6896 6895 6894 ] final -145.31 input  -60.11 | X-H torsion
[ 7974 7965 7964 7962 ] final  -25.18 input  175.53 | X-H torsion
[ 8008 7997 7996 7995 ] final   98.83 input   59.86 | X-H torsion
[ 10167 10162 10161 10158 ] final  -73.30 input  -65.29 | X-H torsion
[ 10718 10713 10712 10709 ] final  -63.58 input   66.30 | X-H torsion
[ 10763 10752 10751 10750 ] final  -86.88 input  -60.55 | X-H torsion
[ 11005 11000 10999 10996 ] final   42.71 input  -57.11 | X-H torsion

> <Gold.Protein.ActiveResidues>
 VAL166  LYS551  ARG553  GLY616  TRP617  ASP618  TYR619  PRO620  LYS621  CYS622 
 ASP623  PHE694  ASN695  SER759  ASP760  ASP761  ALA762  ILE779  LEU786  VAL792 
 PHE793  MET794  SER795  GLU796  ALA797  LYS798  CYS799  TRP800  GLU811  SER814 

> <Gold.Protein.RotatedAtoms>
  151.1260  133.5070  159.2600 H   0  0  0  0  0  0  0  0  0  0  0  0  # atno 6907 bound_to 6896
  151.1809  135.0360  159.8802 H   0  0  0  0  0  0  0  0  0  0  0  0  # atno 6908 bound_to 6896
  152.5458  134.1113  159.8413 H   0  0  0  0  0  0  0  0  0  0  0  0  # atno 6909 bound_to 6896
  146.1507  140.4852  142.8612 H   0  0  0  0  0  0  0  0  0  0  0  0  # atno 7974 bound_to 7965
  156.1044  140.3238  155.7986 H   0  0  0  0  0  0  0  0  0  0  0  0  # atno 8008 bound_to 7997
  155.4781  140.0552  157.2988 H   0  0  0  0  0  0  0  0  0  0  0  0  # atno 8009 bound_to 7997
  154.4718  140.2014  155.9991 H   0  0  0  0  0  0  0  0  0  0  0  0  # atno 8010 bound_to 7997
  140.5121  143.2343  151.7575 H   0  0  0  0  0  0  0  0  0  0  0  0  # atno 10167 bound_to 10162
  156.0782  130.4222  150.1298 H   0  0  0  0  0  0  0  0  0  0  0  0  # atno 10718 bound_to 10713
  154.6274  135.5433  153.7642 H   0  0  0  0  0  0  0  0  0  0  0  0  # atno 10763 bound_to 10752
  153.0267  135.6427  154.1351 H   0  0  0  0  0  0  0  0  0  0  0  0  # atno 10764 bound_to 10752
  154.1283  135.2916  155.3171 H   0  0  0  0  0  0  0  0  0  0  0  0  # atno 10765 bound_to 10752
  140.1714  134.4218  155.8255 H   0  0  0  0  0  0  0  0  0  0  0  0  # atno 11005 bound_to 11000
  144.7901  140.6014  143.6547 LP  0  0  0  0  0  0  0  0  0  0  0  0  # atno 17320 bound_to 7965
  145.4829  139.1494  143.3752 LP  0  0  0  0  0  0  0  0  0  0  0  0  # atno 17321 bound_to 7965
  139.4899  144.4375  151.9802 LP  0  0  0  0  0  0  0  0  0  0  0  0  # atno 17342 bound_to 10162
  140.3468  144.3137  150.5956 LP  0  0  0  0  0  0  0  0  0  0  0  0  # atno 17343 bound_to 10162
  156.9335  130.9721  151.3529 LP  0  0  0  0  0  0  0  0  0  0  0  0  # atno 17370 bound_to 10713
  157.5887  130.8428  149.8627 LP  0  0  0  0  0  0  0  0  0  0  0  0  # atno 17371 bound_to 10713
  141.2217  133.6957  156.7769 LP  0  0  0  0  0  0  0  0  0  0  0  0  # atno 17394 bound_to 11000
  140.2373  134.8640  157.3538 LP  0  0  0  0  0  0  0  0  0  0  0  0  # atno 17395 bound_to 11000

$$$$
