AV-unprocessed.smi:1355|AV-procd|sdf|5539|dock6
  -GOLD-   22720 5133D 1   1.00000     0.00000
 Structure written by MMmdl.
 33 34  0  0  0  0  0  0  0  0  2 V2000
  150.7668  137.0829  154.9703 C   0  0  0  0  0  0  0  0  0  0  0  0
  152.1118  137.3005  155.3577 O   0  0  0  0  0  0  0  0  0  0  0  0
  152.3806  138.6617  155.6519 C   0  0  0  0  0  0  0  0  0  0  0  0
  151.6061  139.0887  156.9071 C   0  0  0  0  0  0  0  0  0  0  0  0
  151.2520  140.5163  156.8845 N   0  0  0  0  0  0  0  0  0  0  0  0
  150.3983  141.1983  156.0673 C   0  0  0  0  0  0  0  0  0  0  0  0
  149.5670  140.6291  154.9598 C   0  0  1  0  0  0  0  0  0  0  0  0
  148.6450  141.7006  154.3644 C   0  0  0  0  0  0  0  0  0  0  0  0
  150.3583  140.0861  153.9233 O   0  0  0  0  0  0  0  0  0  0  0  0
  150.4186  142.5029  156.4638 N   0  3  0  0  0  0  0  0  0  0  0  0
  151.3048  142.6609  157.5291 C   0  0  0  0  0  0  0  0  0  0  0  0
  151.6658  143.7931  158.2529 C   0  0  0  0  0  0  0  0  0  0  0  0
  152.6077  143.6096  159.2865 C   0  0  0  0  0  0  0  0  0  0  0  0
  153.1526  142.3396  159.5658 C   0  0  0  0  0  0  0  0  0  0  0  0
  152.7787  141.1993  158.8246 C   0  0  0  0  0  0  0  0  0  0  0  0
  151.8452  141.3885  157.8055 C   0  0  0  0  0  0  0  0  0  0  0  0
  150.6140  136.0247  154.7591 H   0  0  0  0  0  0  0  0  0  0  0  0
  150.5209  137.6450  154.0685 H   0  0  0  0  0  0  0  0  0  0  0  0
  150.0759  137.3716  155.7634 H   0  0  0  0  0  0  0  0  0  0  0  0
  153.4506  138.8027  155.8120 H   0  0  0  0  0  0  0  0  0  0  0  0
  152.0918  139.2898  154.8080 H   0  0  0  0  0  0  0  0  0  0  0  0
  150.6809  138.5174  156.9880 H   0  0  0  0  0  0  0  0  0  0  0  0
  152.1758  138.8727  157.8110 H   0  0  0  0  0  0  0  0  0  0  0  0
  148.9587  139.8174  155.3594 H   0  0  0  0  0  0  0  0  0  0  0  0
  147.9832  142.1147  155.1255 H   0  0  0  0  0  0  0  0  0  0  0  0
  148.0183  141.2855  153.5745 H   0  0  0  0  0  0  0  0  0  0  0  0
  149.2171  142.5248  153.9368 H   0  0  0  0  0  0  0  0  0  0  0  0
  149.8276  140.0190  153.1440 H   0  0  0  0  0  0  0  0  0  0  0  0
  151.2510  144.7672  158.0387 H   0  0  0  0  0  0  0  0  0  0  0  0
  152.9196  144.4601  159.8753 H   0  0  0  0  0  0  0  0  0  0  0  0
  153.8737  142.2372  160.3639 H   0  0  0  0  0  0  0  0  0  0  0  0
  153.2083  140.2330  159.0433 H   0  0  0  0  0  0  0  0  0  0  0  0
  149.8646  143.2296  156.0289 H   0  0  0  0  0  0  0  0  0  0  0  0
  1  2  1  0  0  0  0
  1 17  1  0  0  0  0
  1 18  1  0  0  0  0
  1 19  1  0  0  0  0
  2  3  1  0  0  0  0
  3  4  1  0  0  0  0
  3 20  1  0  0  0  0
  3 21  1  0  0  0  0
  4  5  1  0  0  0  0
  4 22  1  0  0  0  0
  4 23  1  0  0  0  0
  5 16  1  0  0  0  0
  5  6  1  0  0  0  0
  6  7  1  0  0  0  0
  6 10  2  0  0  0  0
  7  8  1  0  0  0  0
  7  9  1  0  0  0  0
  7 24  1  0  0  0  0
  8 25  1  0  0  0  0
  8 26  1  0  0  0  0
  8 27  1  0  0  0  0
  9 28  1  0  0  0  0
 10 11  1  0  0  0  0
 10 33  1  0  0  0  0
 11 16  2  0  0  0  0
 11 12  1  0  0  0  0
 12 13  2  0  0  0  0
 12 29  1  0  0  0  0
 13 14  1  0  0  0  0
 13 30  1  0  0  0  0
 14 15  2  0  0  0  0
 14 31  1  0  0  0  0
 15 16  1  0  0  0  0
 15 32  1  0  0  0  0
M  CHG  1  10   1
M  END
> <s_m_source_file>
AV-unprocessed.smi

> <i_m_source_file_index>
1355

> <i_lp_mmshare_version>
43012

> <i_f3d_flags>
0

> <s_epik_input>
W0NIM11PW0NIMl1bQ0gyXW4oYyhuMSlbQ0BIXShbQ0gzXSlbT0hdKWMoYzEyKVtjSF1bY0hdW2NIXVtjSF0y

> <s_epik_cmdline>
J2VwaWtfcHl0aG9uJywgJy1waCcsICc3LjAnLCAnLXRuJywgJzgnLCAnLW1hJywgJzIwMCcsICctbWV0YWxfYmluZGluZycsICctaW1hZScsICc8aW5maWxlLm1hZT4nLCAnLW9tYWUnLCAnPG91dGZpbGUubWFlPic=

> <r_epik_Ionization_Penalty>
1.43426

> <r_epik_Ionization_Penalty_Charging>
1.43423

> <r_epik_Ionization_Penalty_Neutral>
2.92192e-05

> <r_epik_State_Penalty>
1.51908

> <r_epik_Charging_Adjusted_Penalty>
2.95331

> <i_epik_Tot_Q>
1

> <i_epik_Tot_abs_Q>
1

> <r_epik_Metal_State_Penalty>
5.5644

> <b_epik_Metal_Only>
0

> <s_lp_Force_Field>
OPLS_2005

> <r_lp_Energy>
11.2179

> <b_lp_Chiralities_Consistent>
1

> <s_lp_Variant>
AV-unprocessed.smi:1355-4

> <Gold.Version>
5.8.1

> <Gold.Id.Protein>
6NUR|6NUR_protein|mol2

> <Gold.PLP.Fitness>
51.4130

> <Gold.PLP.PLP>
-37.5520

> <Gold.PLP.part.hbond>
-3.7780

> <Gold.PLP.part.metal>
0.0000

> <Gold.PLP.part.buried>
-3.1022

> <Gold.PLP.part.nonpolar>
-30.4773

> <Gold.PLP.part.repulsive>
0.1261

> <Gold.PLP.ligand.clash>
0.0000

> <Gold.PLP.ligand.torsion>
0.2782

> <Gold.PLP.Chemscore.Hbond>
4.8006

> <Gold.PLP.Chemscore.CHOScore>
0.0000

> <Gold.PLP.Chemscore.Metal>
0.0000

> <Gold.Chemscore.Hbonds>
donor molecule, donor type, donor heavy atom, donor atom, acceptor molecule, acceptor atom, score
      L1  H     9    28       P1  7957  1.00
      L1  H    10    33       P1  8028  2.00
      P1  H  7989  7998       L1     9  0.96
      P1  H 10752 10765       L1     2  0.85

> <Gold.PLP.Chemscore.Internal.Correction>
0.0156

> <Gold.Rescore>
     Score         DG    S(hbond)    S(metal)    S(lipo)     H(rot)  DE(clash)    DE(int)     intcor
     21.22     -21.78       3.25        0.00      92.59       2.10       0.13       0.42       ----

> <Gold.Chemscore.Fitness>
21.2187

> <Gold.Chemscore.DG>
-21.7754

> <Gold.Chemscore.ZeroCoef>
-5.4800

> <Gold.Chemscore.Hbond>
3.2465

> <Gold.Chemscore.Metal>
0.0000

> <Gold.Chemscore.Lipo>
92.5854

> <Gold.Chemscore.Internal_Hbond>
0.0000

> <Gold.Chemscore.DEClash>
0.1319

> <Gold.Chemscore.DEInternal>
0.4248

> <Gold.Chemscore.Rot>
2.1017

> <Gold.Chemscore.Internal.Correction>
   9.000000E+99

> <Gold.Chemscore.Hbonds>
donor molecule, donor type, donor heavy atom, donor atom, acceptor molecule, acceptor atom, score
      L1  H     9    28       P1  7957  0.92
      L1  H    10    33       P1  8028  1.00
      P1  H  7989  7998       L1     9  0.37
      P1  H 10752 10765       L1     2  0.27

> <Gold.Chemscore.Hbond.Weighted>
-10.8432

> <Gold.Chemscore.Metal.Weighted>
-0.0000

> <Gold.Chemscore.Lipo.Weighted>
-10.8325

> <Gold.Chemscore.Internal_Hbond.Weighted>
0.0000

> <Gold.Chemscore.DEClash.Weighted>
0.1319

> <Gold.Chemscore.DEInternal.Weighted>
0.4248

> <Gold.Chemscore.Rot.Weighted>
5.3803

> <Gold.Chemscore.Internal.Correction.Weighted>
   9.000000E+99

> <Gold.Protein.RotatedTorsions>
[ 6907 6896 6895 6894 ] final  -71.47 input  -60.11 | X-H torsion
[ 7974 7965 7964 7962 ] final  176.21 input  175.53 | X-H torsion
[ 8008 7997 7996 7995 ] final   98.71 input   59.86 | X-H torsion
[ 10167 10162 10161 10158 ] final -158.57 input  -65.29 | X-H torsion
[ 10718 10713 10712 10709 ] final -125.63 input   66.30 | X-H torsion
[ 10763 10752 10751 10750 ] final -168.92 input  -60.55 | X-H torsion
[ 11005 11000 10999 10996 ] final  158.09 input  -57.11 | X-H torsion

> <Gold.Protein.ActiveResidues>
 VAL166  LYS551  ARG553  GLY616  TRP617  ASP618  TYR619  PRO620  LYS621  CYS622 
 ASP623  PHE694  ASN695  SER759  ASP760  ASP761  ALA762  ILE779  LEU786  VAL792 
 PHE793  MET794  SER795  GLU796  ALA797  LYS798  CYS799  TRP800  GLU811  SER814 

> <Gold.Protein.RotatedAtoms>
  150.7211  134.5303  159.5696 H   0  0  0  0  0  0  0  0  0  0  0  0  # atno 6907 bound_to 6896
  152.2838  134.7796  160.0400 H   0  0  0  0  0  0  0  0  0  0  0  0  # atno 6908 bound_to 6896
  151.8433  133.3392  159.3687 H   0  0  0  0  0  0  0  0  0  0  0  0  # atno 6909 bound_to 6896
  144.7188  140.0063  143.6440 H   0  0  0  0  0  0  0  0  0  0  0  0  # atno 7974 bound_to 7965
  156.1032  140.3239  155.7970 H   0  0  0  0  0  0  0  0  0  0  0  0  # atno 8008 bound_to 7997
  155.4801  140.0553  157.2985 H   0  0  0  0  0  0  0  0  0  0  0  0  # atno 8009 bound_to 7997
  154.4710  140.2011  156.0009 H   0  0  0  0  0  0  0  0  0  0  0  0  # atno 8010 bound_to 7997
  139.6682  143.9791  152.2268 H   0  0  0  0  0  0  0  0  0  0  0  0  # atno 10167 bound_to 10162
  156.1692  130.6656  151.0157 H   0  0  0  0  0  0  0  0  0  0  0  0  # atno 10718 bound_to 10713
  154.6577  135.2920  154.9906 H   0  0  0  0  0  0  0  0  0  0  0  0  # atno 10763 bound_to 10752
  154.0977  135.6581  153.4867 H   0  0  0  0  0  0  0  0  0  0  0  0  # atno 10764 bound_to 10752
  153.0412  135.5235  154.7514 H   0  0  0  0  0  0  0  0  0  0  0  0  # atno 10765 bound_to 10752
  140.1832  134.8461  157.2827 H   0  0  0  0  0  0  0  0  0  0  0  0  # atno 11005 bound_to 11000
  146.0295  139.3322  143.0764 LP  0  0  0  0  0  0  0  0  0  0  0  0  # atno 17320 bound_to 7965
  145.8470  140.9549  143.0769 LP  0  0  0  0  0  0  0  0  0  0  0  0  # atno 17321 bound_to 7965
  139.9549  144.6596  150.8136 LP  0  0  0  0  0  0  0  0  0  0  0  0  # atno 17342 bound_to 10162
  140.7608  143.3159  151.2735 LP  0  0  0  0  0  0  0  0  0  0  0  0  # atno 17343 bound_to 10162
  157.6790  131.0843  150.7418 LP  0  0  0  0  0  0  0  0  0  0  0  0  # atno 17370 bound_to 10713
  156.7478  130.4759  149.5463 LP  0  0  0  0  0  0  0  0  0  0  0  0  # atno 17371 bound_to 10713
  140.2244  134.3985  155.7550 LP  0  0  0  0  0  0  0  0  0  0  0  0  # atno 17394 bound_to 11000
  141.2224  133.7182  156.8541 LP  0  0  0  0  0  0  0  0  0  0  0  0  # atno 17395 bound_to 11000

$$$$
