AV-unprocessed.smi:1971|AV-procd|sdf|7971|dock2
  -GOLD-   2272010143D 1   1.00000     0.00000
 Structure written by MMmdl.
 43 44  0  0  0  0  0  0  0  0  3 V2000
  151.8942  140.2203  156.4066 C   0  0  0  0  0  0  0  0  0  0  0  0
  150.4914  140.2329  155.7817 C   0  0  0  0  0  0  0  0  0  0  0  0
  150.4736  139.5948  154.4632 N   0  0  0  0  0  0  0  0  0  0  0  0
  151.2296  138.3403  154.3730 C   0  0  0  0  0  0  0  0  0  0  0  0
  150.5559  137.1935  155.1554 C   0  0  0  0  0  0  0  0  0  0  0  0
  149.1718  136.9811  154.6652 N   0  3  0  0  0  0  0  0  0  0  0  0
  148.5101  135.7720  155.2338 C   0  0  1  0  0  0  0  0  0  0  0  0
  148.4591  135.7764  156.7774 C   0  0  0  0  0  0  0  0  0  0  0  0
  147.1201  135.5643  154.5897 C   0  0  0  0  0  0  0  0  0  0  0  0
  147.1906  134.8217  153.3356 N   0  0  0  0  0  0  0  0  0  0  0  0
  146.3107  133.8988  152.9225 C   0  0  0  0  0  0  0  0  0  0  0  0
  145.3515  133.6009  153.6382 O   0  0  0  0  0  0  0  0  0  0  0  0
  146.5943  133.3854  151.7049 N   0  5  0  0  0  0  0  0  0  0  0  0
  145.5993  132.9926  150.8929 C   0  0  0  0  0  0  0  0  0  0  0  0
  145.8145  132.4124  149.7066 N   0  0  0  0  0  0  0  0  0  0  0  0
  144.6396  132.0793  149.0302 C   0  0  0  0  0  0  0  0  0  0  0  0
  143.5032  132.4062  149.7215 C   0  0  0  0  0  0  0  0  0  0  0  0
  143.8772  133.1470  151.2514 S   0  0  0  0  0  0  0  0  0  0  0  0
  148.3938  138.2441  154.7491 C   0  0  0  0  0  0  0  0  0  0  0  0
  149.1128  139.3653  153.9698 C   0  0  0  0  0  0  0  0  0  0  0  0
  151.9070  140.8082  157.3243 H   0  0  0  0  0  0  0  0  0  0  0  0
  152.6326  140.6515  155.7299 H   0  0  0  0  0  0  0  0  0  0  0  0
  152.2190  139.2132  156.6672 H   0  0  0  0  0  0  0  0  0  0  0  0
  149.7724  139.7767  156.4611 H   0  0  0  0  0  0  0  0  0  0  0  0
  150.1870  141.2737  155.6642 H   0  0  0  0  0  0  0  0  0  0  0  0
  151.3048  138.0615  153.3210 H   0  0  0  0  0  0  0  0  0  0  0  0
  152.2539  138.4834  154.7148 H   0  0  0  0  0  0  0  0  0  0  0  0
  151.1373  136.2825  155.0104 H   0  0  0  0  0  0  0  0  0  0  0  0
  150.5580  137.3946  156.2266 H   0  0  0  0  0  0  0  0  0  0  0  0
  149.1207  134.9182  154.9376 H   0  0  0  0  0  0  0  0  0  0  0  0
  148.1170  134.8146  157.1604 H   0  0  0  0  0  0  0  0  0  0  0  0
  147.7753  136.5351  157.1584 H   0  0  0  0  0  0  0  0  0  0  0  0
  149.4410  135.9581  157.2138 H   0  0  0  0  0  0  0  0  0  0  0  0
  146.4671  135.0040  155.2582 H   0  0  0  0  0  0  0  0  0  0  0  0
  146.6318  136.5249  154.4171 H   0  0  0  0  0  0  0  0  0  0  0  0
  147.9627  135.0323  152.7201 H   0  0  0  0  0  0  0  0  0  0  0  0
  144.7061  131.6095  148.0603 H   0  0  0  0  0  0  0  0  0  0  0  0
  142.4754  132.2566  149.4272 H   0  0  0  0  0  0  0  0  0  0  0  0
  147.4015  138.0994  154.3233 H   0  0  0  0  0  0  0  0  0  0  0  0
  148.2472  138.5402  155.7880 H   0  0  0  0  0  0  0  0  0  0  0  0
  148.5405  140.2922  154.0233 H   0  0  0  0  0  0  0  0  0  0  0  0
  149.1651  139.0994  152.9132 H   0  0  0  0  0  0  0  0  0  0  0  0
  149.2730  136.7836  153.6798 H   0  0  0  0  0  0  0  0  0  0  0  0
  1  2  1  0  0  0  0
  1 21  1  0  0  0  0
  1 22  1  0  0  0  0
  1 23  1  0  0  0  0
  2  3  1  0  0  0  0
  2 24  1  0  0  0  0
  2 25  1  0  0  0  0
  3 20  1  0  0  0  0
  3  4  1  0  0  0  0
  4  5  1  0  0  0  0
  4 26  1  0  0  0  0
  4 27  1  0  0  0  0
  5  6  1  0  0  0  0
  5 28  1  0  0  0  0
  5 29  1  0  0  0  0
  6  7  1  0  0  0  0
  6 19  1  0  0  0  0
  6 43  1  0  0  0  0
  7  8  1  0  0  0  0
  7  9  1  0  0  0  0
  7 30  1  0  0  0  0
  8 31  1  0  0  0  0
  8 32  1  0  0  0  0
  8 33  1  0  0  0  0
  9 10  1  0  0  0  0
  9 34  1  0  0  0  0
  9 35  1  0  0  0  0
 10 11  1  0  0  0  0
 10 36  1  0  0  0  0
 11 12  2  0  0  0  0
 11 13  1  0  0  0  0
 13 14  1  0  0  0  0
 14 18  1  0  0  0  0
 14 15  2  0  0  0  0
 15 16  1  0  0  0  0
 16 17  2  0  0  0  0
 16 37  1  0  0  0  0
 17 18  1  0  0  0  0
 17 38  1  0  0  0  0
 19 20  1  0  0  0  0
 19 39  1  0  0  0  0
 19 40  1  0  0  0  0
 20 41  1  0  0  0  0
 20 42  1  0  0  0  0
M  CHG  1   6   1
M  CHG  1  13  -1
M  END
> <s_m_source_file>
AV-unprocessed.smi

> <i_m_source_file_index>
1971

> <i_lp_mmshare_version>
43012

> <i_f3d_flags>
0

> <s_epik_input>
W0NIM11bQ0gyXU4xW0NIMl1bQ0gyXU4oW0NIMl1bQ0gyXTEpW0NASF0oW0NIM10pW0NIMl1bTkhdQyg9TylbTkhdYzJuW2NIXVtjSF1zMg==

> <s_epik_cmdline>
J2VwaWtfcHl0aG9uJywgJy1waCcsICc3LjAnLCAnLXRuJywgJzgnLCAnLW1hJywgJzIwMCcsICctbWV0YWxfYmluZGluZycsICctaW1hZScsICc8aW5maWxlLm1hZT4nLCAnLW9tYWUnLCAnPG91dGZpbGUubWFlPic=

> <r_epik_Ionization_Penalty>
6.3441

> <r_epik_Ionization_Penalty_Charging>
5.51153

> <r_epik_Ionization_Penalty_Neutral>
0.832567

> <r_epik_State_Penalty>
6.33945

> <r_epik_Charging_Adjusted_Penalty>
11.851

> <i_epik_Tot_Q>
0

> <i_epik_Tot_abs_Q>
2

> <r_epik_Metal_State_Penalty>
2.34542

> <b_epik_Metal_Only>
1

> <s_lp_Force_Field>
OPLS_2005

> <r_lp_Energy>
10.682

> <b_lp_Chiralities_Consistent>
1

> <s_lp_Variant>
AV-unprocessed.smi:1971-10

> <Gold.Version>
5.8.1

> <Gold.Id.Protein>
6NUR|6NUR_protein|mol2

> <Gold.PLP.Fitness>
43.0093

> <Gold.PLP.PLP>
-27.6957

> <Gold.PLP.part.hbond>
-3.0000

> <Gold.PLP.part.metal>
0.0000

> <Gold.PLP.part.buried>
-2.7475

> <Gold.PLP.part.nonpolar>
-24.4398

> <Gold.PLP.part.repulsive>
0.5723

> <Gold.PLP.ligand.clash>
0.0000

> <Gold.PLP.ligand.torsion>
0.8693

> <Gold.PLP.Chemscore.Hbond>
4.0000

> <Gold.PLP.Chemscore.CHOScore>
1.6090

> <Gold.PLP.Chemscore.Metal>
0.0000

> <Gold.Chemscore.Hbonds>
donor molecule, donor type, donor heavy atom, donor atom, acceptor molecule, acceptor atom, score
      L1  H     6    43       P1  7948  2.00
      L1  H    10    36       P1  7948  1.00
      P1  H  7989  7998       L1     3  0.95
      L1  C    17    38       P1 10186  0.56
      L1  C    17    38       P1 10952  1.00

> <Gold.PLP.Chemscore.Internal.Correction>
0.2252

> <Gold.Rescore>
     Score         DG    S(hbond)    S(metal)    S(lipo)     H(rot)  DE(clash)    DE(int)     intcor
     13.98     -16.35       2.07        0.00      72.19       1.75       0.25       2.12       ----

> <Gold.Chemscore.Fitness>
13.9823

> <Gold.Chemscore.DG>
-16.3510

> <Gold.Chemscore.ZeroCoef>
-5.4800

> <Gold.Chemscore.Hbond>
2.0676

> <Gold.Chemscore.Metal>
0.0000

> <Gold.Chemscore.Lipo>
72.1931

> <Gold.Chemscore.Internal_Hbond>
0.0000

> <Gold.Chemscore.DEClash>
0.2464

> <Gold.Chemscore.DEInternal>
2.1223

> <Gold.Chemscore.Rot>
1.7505

> <Gold.Chemscore.Internal.Correction>
   9.000000E+99

> <Gold.Chemscore.Hbonds>
donor molecule, donor type, donor heavy atom, donor atom, acceptor molecule, acceptor atom, score
      L1  H     6    43       P1  7948  0.97
      L1  H    10    36       P1  7948  0.91
      P1  H  7989  7998       L1     3  0.08

> <Gold.Chemscore.Hbond.Weighted>
-6.9057

> <Gold.Chemscore.Metal.Weighted>
-0.0000

> <Gold.Chemscore.Lipo.Weighted>
-8.4466

> <Gold.Chemscore.Internal_Hbond.Weighted>
0.0000

> <Gold.Chemscore.DEClash.Weighted>
0.2464

> <Gold.Chemscore.DEInternal.Weighted>
2.1223

> <Gold.Chemscore.Rot.Weighted>
4.4813

> <Gold.Chemscore.Internal.Correction.Weighted>
   9.000000E+99

> <Gold.Protein.RotatedTorsions>
[ 6907 6896 6895 6894 ] final   -9.33 input  -60.11 | X-H torsion
[ 7974 7965 7964 7962 ] final    9.07 input  175.53 | X-H torsion
[ 8008 7997 7996 7995 ] final  -87.59 input   59.86 | X-H torsion
[ 10167 10162 10161 10158 ] final   96.21 input  -65.29 | X-H torsion
[ 10718 10713 10712 10709 ] final   50.52 input   66.30 | X-H torsion
[ 10763 10752 10751 10750 ] final  -82.70 input  -60.55 | X-H torsion
[ 11005 11000 10999 10996 ] final -149.31 input  -57.11 | X-H torsion

> <Gold.Protein.ActiveResidues>
 VAL166  LYS551  ARG553  GLY616  TRP617  ASP618  TYR619  PRO620  LYS621  CYS622 
 ASP623  PHE694  ASN695  SER759  ASP760  ASP761  ALA762  ILE779  LEU786  VAL792 
 PHE793  MET794  SER795  GLU796  ALA797  LYS798  CYS799  TRP800  GLU811  SER814 

> <Gold.Protein.RotatedAtoms>
  151.4194  135.0996  159.9609 H   0  0  0  0  0  0  0  0  0  0  0  0  # atno 6907 bound_to 6896
  152.4993  133.8721  159.7314 H   0  0  0  0  0  0  0  0  0  0  0  0  # atno 6908 bound_to 6896
  150.9234  133.6795  159.2855 H   0  0  0  0  0  0  0  0  0  0  0  0  # atno 6909 bound_to 6896
  146.2408  139.9838  142.8433 H   0  0  0  0  0  0  0  0  0  0  0  0  # atno 7974 bound_to 7965
  154.6650  140.0564  157.0103 H   0  0  0  0  0  0  0  0  0  0  0  0  # atno 8008 bound_to 7997
  155.1173  140.3244  155.4488 H   0  0  0  0  0  0  0  0  0  0  0  0  # atno 8009 bound_to 7997
  156.2634  140.2004  156.6295 H   0  0  0  0  0  0  0  0  0  0  0  0  # atno 8010 bound_to 7997
  139.7915  144.6850  150.9885 H   0  0  0  0  0  0  0  0  0  0  0  0  # atno 10167 bound_to 10162
  157.4892  130.8365  149.8183 H   0  0  0  0  0  0  0  0  0  0  0  0  # atno 10718 bound_to 10713
  154.5789  135.5582  153.7166 H   0  0  0  0  0  0  0  0  0  0  0  0  # atno 10763 bound_to 10752
  153.0074  135.6315  154.2010 H   0  0  0  0  0  0  0  0  0  0  0  0  # atno 10764 bound_to 10752
  154.1950  135.2880  155.2989 H   0  0  0  0  0  0  0  0  0  0  0  0  # atno 10765 bound_to 10752
  140.7521  134.3394  157.5123 H   0  0  0  0  0  0  0  0  0  0  0  0  # atno 11005 bound_to 11000
  145.1567  140.9651  143.4401 LP  0  0  0  0  0  0  0  0  0  0  0  0  # atno 17320 bound_to 7965
  145.0154  139.3471  143.6099 LP  0  0  0  0  0  0  0  0  0  0  0  0  # atno 17321 bound_to 7965
  140.7820  143.4375  151.0601 LP  0  0  0  0  0  0  0  0  0  0  0  0  # atno 17342 bound_to 10162
  139.8052  143.8028  152.3166 LP  0  0  0  0  0  0  0  0  0  0  0  0  # atno 17343 bound_to 10162
  156.0164  130.3812  150.2098 LP  0  0  0  0  0  0  0  0  0  0  0  0  # atno 17370 bound_to 10713
  157.0286  131.0000  151.3319 LP  0  0  0  0  0  0  0  0  0  0  0  0  # atno 17371 bound_to 10713
  139.8785  134.9149  156.3117 LP  0  0  0  0  0  0  0  0  0  0  0  0  # atno 17394 bound_to 11000
  140.9741  133.7309  156.0576 LP  0  0  0  0  0  0  0  0  0  0  0  0  # atno 17395 bound_to 11000

$$$$
