AV-unprocessed.smi:3284|AV-procd|sdf|12576|dock3
  -GOLD-   2272018493D 1   1.00000     0.00000
 Structure written by MMmdl.
 45 46  0  0  0  0  0  0  0  0  3 V2000
  152.5831  144.7370  157.6110 C   0  0  0  0  0  0  0  0  0  0  0  0
  152.4955  144.1870  159.0250 C   0  0  0  0  0  0  0  0  0  0  0  0
  152.2170  144.9990  160.0640 C   0  0  0  0  0  0  0  0  0  0  0  0
  152.1557  144.5589  161.5161 C   0  0  0  0  0  0  0  0  0  0  0  0
  152.2649  143.0352  161.6917 C   0  0  0  0  0  0  0  0  0  0  0  0
  153.2429  142.4190  160.6763 C   0  0  1  0  0  0  0  0  0  0  0  0
  153.5422  140.9418  160.9842 C   0  0  0  0  0  0  0  0  0  0  0  0
  152.7767  142.6908  159.2180 C   0  0  1  0  0  0  0  0  0  0  0  0
  151.5737  141.8089  158.7918 C   0  0  0  0  0  0  0  0  0  0  0  0
  151.3147  141.8546  157.3394 N   0  3  0  0  0  0  0  0  0  0  0  0
  150.1810  141.0152  156.9013 C   0  0  0  0  0  0  0  0  0  0  0  0
  150.3042  140.6074  155.4243 C   0  0  0  0  0  0  0  0  0  0  0  0
  149.1097  140.9707  154.5915 C   0  0  0  0  0  0  0  0  0  0  0  0
  148.6604  142.2156  154.3899 N   0  3  0  0  0  0  0  0  0  0  0  0
  147.5533  142.2005  153.5859 C   0  0  0  0  0  0  0  0  0  0  0  0
  147.3123  140.8860  153.2845 C   0  0  0  0  0  0  0  0  0  0  0  0
  148.2838  140.1525  153.9161 N   0  0  0  0  0  0  0  0  0  0  0  0
  148.4309  138.6960  153.8792 C   0  0  0  0  0  0  0  0  0  0  0  0
  153.4747  144.3638  157.1070 H   0  0  0  0  0  0  0  0  0  0  0  0
  152.6398  145.8261  157.6189 H   0  0  0  0  0  0  0  0  0  0  0  0
  151.7070  144.4645  157.0252 H   0  0  0  0  0  0  0  0  0  0  0  0
  152.0477  146.0515  159.8886 H   0  0  0  0  0  0  0  0  0  0  0  0
  152.9782  145.0479  162.0391 H   0  0  0  0  0  0  0  0  0  0  0  0
  151.2337  144.9242  161.9690 H   0  0  0  0  0  0  0  0  0  0  0  0
  152.5818  142.8128  162.7113 H   0  0  0  0  0  0  0  0  0  0  0  0
  151.2803  142.5813  161.5778 H   0  0  0  0  0  0  0  0  0  0  0  0
  154.1934  142.9411  160.8009 H   0  0  0  0  0  0  0  0  0  0  0  0
  152.6336  140.3423  161.0388 H   0  0  0  0  0  0  0  0  0  0  0  0
  154.0470  140.8441  161.9458 H   0  0  0  0  0  0  0  0  0  0  0  0
  154.1945  140.5046  160.2276 H   0  0  0  0  0  0  0  0  0  0  0  0
  153.6199  142.4376  158.5735 H   0  0  0  0  0  0  0  0  0  0  0  0
  151.7503  140.7652  159.0477 H   0  0  0  0  0  0  0  0  0  0  0  0
  150.6730  142.1192  159.3223 H   0  0  0  0  0  0  0  0  0  0  0  0
  151.1215  142.8133  157.0860 H   0  0  0  0  0  0  0  0  0  0  0  0
  150.1183  140.1273  157.5319 H   0  0  0  0  0  0  0  0  0  0  0  0
  149.2557  141.5742  157.0449 H   0  0  0  0  0  0  0  0  0  0  0  0
  151.1595  141.1080  154.9688 H   0  0  0  0  0  0  0  0  0  0  0  0
  150.4795  139.5362  155.3273 H   0  0  0  0  0  0  0  0  0  0  0  0
  147.0341  143.1025  153.2952 H   0  0  0  0  0  0  0  0  0  0  0  0
  146.5408  140.4308  152.6797 H   0  0  0  0  0  0  0  0  0  0  0  0
  147.6543  138.2673  153.2449 H   0  0  0  0  0  0  0  0  0  0  0  0
  148.3312  138.2963  154.8877 H   0  0  0  0  0  0  0  0  0  0  0  0
  149.4084  138.4390  153.4702 H   0  0  0  0  0  0  0  0  0  0  0  0
  152.1501  141.5543  156.8580 H   0  0  0  0  0  0  0  0  0  0  0  0
  149.0856  143.0518  154.7712 H   0  0  0  0  0  0  0  0  0  0  0  0
  1  2  1  0  0  0  0
  1 19  1  0  0  0  0
  1 20  1  0  0  0  0
  1 21  1  0  0  0  0
  2  8  1  0  0  0  0
  2  3  2  0  0  0  0
  3  4  1  0  0  0  0
  3 22  1  0  0  0  0
  4  5  1  0  0  0  0
  4 23  1  0  0  0  0
  4 24  1  0  0  0  0
  5  6  1  0  0  0  0
  5 25  1  0  0  0  0
  5 26  1  0  0  0  0
  6  7  1  0  0  0  0
  6  8  1  0  0  0  0
  6 27  1  0  0  0  0
  7 28  1  0  0  0  0
  7 29  1  0  0  0  0
  7 30  1  0  0  0  0
  8  9  1  0  0  0  0
  8 31  1  0  0  0  0
  9 10  1  0  0  0  0
  9 32  1  0  0  0  0
  9 33  1  0  0  0  0
 10 11  1  0  0  0  0
 10 34  1  0  0  0  0
 10 44  1  0  0  0  0
 11 12  1  0  0  0  0
 11 35  1  0  0  0  0
 11 36  1  0  0  0  0
 12 13  1  0  0  0  0
 12 37  1  0  0  0  0
 12 38  1  0  0  0  0
 13 17  1  0  0  0  0
 13 14  2  0  0  0  0
 14 15  1  0  0  0  0
 14 45  1  0  0  0  0
 15 16  2  0  0  0  0
 15 39  1  0  0  0  0
 16 17  1  0  0  0  0
 16 40  1  0  0  0  0
 17 18  1  0  0  0  0
 18 41  1  0  0  0  0
 18 42  1  0  0  0  0
 18 43  1  0  0  0  0
M  CHG  1  10   1
M  CHG  1  14   1
M  END
> <s_m_source_file>
AV-unprocessed.smi

> <i_m_source_file_index>
3284

> <i_lp_mmshare_version>
43012

> <i_f3d_flags>
0

> <s_epik_input>
W0NIM11DMT1bQ0hdW0NIMl1bQ0gyXVtDQEBIXShbQ0gzXSlbQ0BIXTFbQ0gyXVtOSF1bQ0gyXVtDSDJdYzJuW2NIXVtjSF1uMltDSDNd

> <s_epik_cmdline>
J2VwaWtfcHl0aG9uJywgJy1waCcsICc3LjAnLCAnLXRuJywgJzgnLCAnLW1hJywgJzIwMCcsICctbWV0YWxfYmluZGluZycsICctaW1hZScsICc8aW5maWxlLm1hZT4nLCAnLW9tYWUnLCAnPG91dGZpbGUubWFlPic=

> <r_lp_tautomer_probability>
1

> <r_epik_Ionization_Penalty>
0.892846

> <r_epik_Ionization_Penalty_Charging>
0.00275802

> <r_epik_Ionization_Penalty_Neutral>
0.890088

> <r_epik_State_Penalty>
0.485211

> <r_epik_Charging_Adjusted_Penalty>
0.487969

> <i_epik_Tot_Q>
2

> <i_epik_Tot_abs_Q>
2

> <r_epik_Metal_State_Penalty>
4.22898

> <b_epik_Metal_Only>
0

> <s_lp_Force_Field>
OPLS_2005

> <r_lp_Energy>
25.5845

> <b_lp_Chiralities_Consistent>
1

> <s_lp_Variant>
AV-unprocessed.smi:3284-5

> <Gold.Version>
5.8.1

> <Gold.Id.Protein>
6NUR|6NUR_protein|mol2

> <Gold.PLP.Fitness>
58.6452

> <Gold.PLP.PLP>
-50.7037

> <Gold.PLP.part.hbond>
-0.9655

> <Gold.PLP.part.metal>
0.0000

> <Gold.PLP.part.buried>
-5.4739

> <Gold.PLP.part.nonpolar>
-44.6607

> <Gold.PLP.part.repulsive>
0.2537

> <Gold.PLP.ligand.clash>
0.0000

> <Gold.PLP.ligand.torsion>
0.5537

> <Gold.PLP.Chemscore.Hbond>
2.0000

> <Gold.PLP.Chemscore.CHOScore>
1.0000

> <Gold.PLP.Chemscore.Metal>
0.0000

> <Gold.Chemscore.Hbonds>
donor molecule, donor type, donor heavy atom, donor atom, acceptor molecule, acceptor atom, score
      L1  H    14    45       P1  8028  1.95
      L1  C    16    40       P1 10175  0.18

> <Gold.PLP.Chemscore.Internal.Correction>
0.0488

> <Gold.Rescore>
     Score         DG    S(hbond)    S(metal)    S(lipo)     H(rot)  DE(clash)    DE(int)     intcor
     17.36     -21.01       1.00        0.00     141.42       1.70       2.37       1.28       ----

> <Gold.Chemscore.Fitness>
17.3634

> <Gold.Chemscore.DG>
-21.0141

> <Gold.Chemscore.ZeroCoef>
-5.4800

> <Gold.Chemscore.Hbond>
0.9999

> <Gold.Chemscore.Metal>
0.0000

> <Gold.Chemscore.Lipo>
141.4153

> <Gold.Chemscore.Internal_Hbond>
0.0000

> <Gold.Chemscore.DEClash>
2.3712

> <Gold.Chemscore.DEInternal>
1.2795

> <Gold.Chemscore.Rot>
1.6997

> <Gold.Chemscore.Internal.Correction>
   9.000000E+99

> <Gold.Chemscore.Hbonds>
donor molecule, donor type, donor heavy atom, donor atom, acceptor molecule, acceptor atom, score
      L1  H    14    45       P1  8028  0.93

> <Gold.Chemscore.Hbond.Weighted>
-3.3397

> <Gold.Chemscore.Metal.Weighted>
-0.0000

> <Gold.Chemscore.Lipo.Weighted>
-16.5456

> <Gold.Chemscore.Internal_Hbond.Weighted>
0.0000

> <Gold.Chemscore.DEClash.Weighted>
2.3712

> <Gold.Chemscore.DEInternal.Weighted>
1.2795

> <Gold.Chemscore.Rot.Weighted>
4.3512

> <Gold.Chemscore.Internal.Correction.Weighted>
   9.000000E+99

> <Gold.Protein.RotatedTorsions>
[ 6907 6896 6895 6894 ] final   91.12 input  -60.11 | X-H torsion
[ 7974 7965 7964 7962 ] final  128.71 input  175.53 | X-H torsion
[ 8008 7997 7996 7995 ] final  167.98 input   59.86 | X-H torsion
[ 10167 10162 10161 10158 ] final  -30.22 input  -65.29 | X-H torsion
[ 10718 10713 10712 10709 ] final   60.69 input   66.30 | X-H torsion
[ 10763 10752 10751 10750 ] final  -28.97 input  -60.55 | X-H torsion
[ 11005 11000 10999 10996 ] final  -86.79 input  -57.11 | X-H torsion

> <Gold.Protein.ActiveResidues>
 VAL166  LYS551  ARG553  GLY616  TRP617  ASP618  TYR619  PRO620  LYS621  CYS622 
 ASP623  PHE694  ASN695  SER759  ASP760  ASP761  ALA762  ILE779  LEU786  VAL792 
 PHE793  MET794  SER795  GLU796  ALA797  LYS798  CYS799  TRP800  GLU811  SER814 

> <Gold.Protein.RotatedAtoms>
  152.5448  134.1706  159.8595 H   0  0  0  0  0  0  0  0  0  0  0  0  # atno 6907 bound_to 6896
  151.1717  133.4773  159.2601 H   0  0  0  0  0  0  0  0  0  0  0  0  # atno 6908 bound_to 6896
  151.1268  135.0120  159.8619 H   0  0  0  0  0  0  0  0  0  0  0  0  # atno 6909 bound_to 6896
  145.0366  139.3999  143.5123 H   0  0  0  0  0  0  0  0  0  0  0  0  # atno 7974 bound_to 7965
  156.1586  140.1602  156.8650 H   0  0  0  0  0  0  0  0  0  0  0  0  # atno 8008 bound_to 7997
  154.5139  140.0794  156.8079 H   0  0  0  0  0  0  0  0  0  0  0  0  # atno 8009 bound_to 7997
  155.3752  140.3402  155.4247 H   0  0  0  0  0  0  0  0  0  0  0  0  # atno 8010 bound_to 7997
  140.7252  143.3866  151.1505 H   0  0  0  0  0  0  0  0  0  0  0  0  # atno 10167 bound_to 10162
  157.5772  130.8953  149.9367 H   0  0  0  0  0  0  0  0  0  0  0  0  # atno 10718 bound_to 10713
  153.7570  135.6922  153.4933 H   0  0  0  0  0  0  0  0  0  0  0  0  # atno 10763 bound_to 10752
  153.1964  135.4452  155.0212 H   0  0  0  0  0  0  0  0  0  0  0  0  # atno 10764 bound_to 10752
  154.8167  135.3402  154.7087 H   0  0  0  0  0  0  0  0  0  0  0  0  # atno 10765 bound_to 10752
  141.1625  133.7474  156.9213 H   0  0  0  0  0  0  0  0  0  0  0  0  # atno 11005 bound_to 11000
  146.3505  139.9944  142.8682 LP  0  0  0  0  0  0  0  0  0  0  0  0  # atno 17320 bound_to 7965
  145.1702  140.9717  143.4326 LP  0  0  0  0  0  0  0  0  0  0  0  0  # atno 17321 bound_to 7965
  139.7464  143.8846  152.3064 LP  0  0  0  0  0  0  0  0  0  0  0  0  # atno 17342 bound_to 10162
  139.8684  144.7081  150.9016 LP  0  0  0  0  0  0  0  0  0  0  0  0  # atno 17343 bound_to 10162
  156.0817  130.3672  150.0568 LP  0  0  0  0  0  0  0  0  0  0  0  0  # atno 17370 bound_to 10713
  156.8713  130.9525  151.3609 LP  0  0  0  0  0  0  0  0  0  0  0  0  # atno 17371 bound_to 10713
  140.1450  134.9268  157.2517 LP  0  0  0  0  0  0  0  0  0  0  0  0  # atno 17394 bound_to 11000
  140.2791  134.3370  155.7349 LP  0  0  0  0  0  0  0  0  0  0  0  0  # atno 17395 bound_to 11000

$$$$
