AV-unprocessed.smi:160|AV-procd|sdf|1362|dock1
  -GOLD-   2262019 73D 1   1.00000     0.00000
 Structure written by MMmdl.
 28 29  0  0  0  0  0  0  0  0  2 V2000
  154.8573  138.2574  158.0327 N   0  5  0  0  0  0  0  0  0  0  0  0
  154.2532  137.4181  157.1632 C   0  0  0  0  0  0  0  0  0  0  0  0
  154.5327  136.2334  156.9823 O   0  0  0  0  0  0  0  0  0  0  0  0
  153.1368  138.0432  156.3607 C   0  0  0  0  0  0  0  0  0  0  0  0
  152.4266  137.2997  155.4581 N   0  0  0  0  0  0  0  0  0  0  0  0
  151.5967  138.2358  155.0183 C   0  0  0  0  0  0  0  0  0  0  0  0
  151.7764  139.4348  155.5791 N   0  0  0  0  0  0  0  0  0  0  0  0
  151.0438  140.7199  155.3533 C   0  0  1  0  0  0  0  0  0  0  0  0
  150.0702  140.4854  154.3806 O   0  0  0  0  0  0  0  0  0  0  0  0
  148.8108  141.0046  154.8013 C   0  0  1  0  0  0  0  0  0  0  0  0
  147.6511  140.2470  154.1310 C   0  0  0  0  0  0  0  0  0  0  0  0
  147.6409  140.5015  152.7423 O   0  0  0  0  0  0  0  0  0  0  0  0
  148.8624  140.9177  156.3333 C   0  0  1  0  0  0  0  0  0  0  0  0
  148.4842  139.6289  156.7853 O   0  0  0  0  0  0  0  0  0  0  0  0
  150.3252  141.2372  156.6162 C   0  0  1  0  0  0  0  0  0  0  0  0
  150.7884  140.7220  157.8538 O   0  0  0  0  0  0  0  0  0  0  0  0
  152.7851  139.3274  156.4781 N   0  0  0  0  0  0  0  0  0  0  0  0
  151.8068  141.4068  154.9852 H   0  0  0  0  0  0  0  0  0  0  0  0
  148.7744  142.0614  154.5294 H   0  0  0  0  0  0  0  0  0  0  0  0
  148.1984  141.6449  156.8016 H   0  0  0  0  0  0  0  0  0  0  0  0
  150.4498  142.3208  156.6283 H   0  0  0  0  0  0  0  0  0  0  0  0
  154.4439  138.3741  158.9655 H   0  0  0  0  0  0  0  0  0  0  0  0
  150.8445  138.0443  154.2673 H   0  0  0  0  0  0  0  0  0  0  0  0
  147.7172  139.1748  154.3193 H   0  0  0  0  0  0  0  0  0  0  0  0
  146.6962  140.5900  154.5305 H   0  0  0  0  0  0  0  0  0  0  0  0
  148.4253  140.1331  152.3657 H   0  0  0  0  0  0  0  0  0  0  0  0
  147.6463  139.6983  157.2174 H   0  0  0  0  0  0  0  0  0  0  0  0
  151.7324  140.6922  157.8340 H   0  0  0  0  0  0  0  0  0  0  0  0
  1  2  1  0  0  0  0
  1 22  1  0  0  0  0
  2  3  2  0  0  0  0
  2  4  1  0  0  0  0
  4 17  2  0  0  0  0
  4  5  1  0  0  0  0
  5  6  2  0  0  0  0
  6  7  1  0  0  0  0
  6 23  1  0  0  0  0
  7  8  1  0  0  0  0
  7 17  1  0  0  0  0
  8 18  1  0  0  0  0
  8 15  1  0  0  0  0
  8  9  1  0  0  0  0
  9 10  1  0  0  0  0
 10 19  1  0  0  0  0
 10 11  1  0  0  0  0
 10 13  1  0  0  0  0
 11 12  1  0  0  0  0
 11 24  1  0  0  0  0
 11 25  1  0  0  0  0
 12 26  1  0  0  0  0
 13 20  1  0  0  0  0
 13 14  1  0  0  0  0
 13 15  1  0  0  0  0
 14 27  1  0  0  0  0
 15 21  1  0  0  0  0
 15 16  1  0  0  0  0
 16 28  1  0  0  0  0
M  CHG  1   1  -1
M  END
> <s_m_source_file>
AV-unprocessed.smi

> <i_m_source_file_index>
160

> <i_lp_mmshare_version>
43012

> <i_f3d_flags>
0

> <s_epik_input>
W05IMl1DKD1PKWMxbltjSF1uKG4xKVtDQEBIXTJPW0NASF0oW0NIMl1bT0hdKVtDQEBIXShbT0hdKVtDQEhdMltPSF0=

> <s_epik_cmdline>
J2VwaWtfcHl0aG9uJywgJy1waCcsICc3LjAnLCAnLXRuJywgJzgnLCAnLW1hJywgJzIwMCcsICctbWV0YWxfYmluZGluZycsICctaW1hZScsICc8aW5maWxlLm1hZT4nLCAnLW9tYWUnLCAnPG91dGZpbGUubWFlPic=

> <r_lp_tautomer_probability>
1

> <r_epik_Ionization_Penalty>
6.6993

> <r_epik_Ionization_Penalty_Charging>
6.6993

> <r_epik_Ionization_Penalty_Neutral>
6.01698e-06

> <r_epik_State_Penalty>
6.69929

> <r_epik_Charging_Adjusted_Penalty>
13.3986

> <i_epik_Tot_Q>
-1

> <i_epik_Tot_abs_Q>
1

> <r_epik_Metal_State_Penalty>
2.62798

> <b_epik_Metal_Only>
1

> <s_epik_Chemistry_Notes>
This compound contains an acetal/aminal-like group ( X-CH(R)-Y where X, Y are N, S, or O) that may be acid/base labile, releasing an aldehyde.

> <s_lp_Force_Field>
OPLS_2005

> <r_lp_Energy>
51.4857

> <b_lp_Chiralities_Consistent>
1

> <s_lp_Variant>
AV-unprocessed.smi:160-20

> <Gold.Version>
5.8.1

> <Gold.Id.Protein>
6NUR|6NUR_protein|mol2

> <Gold.PLP.Fitness>
37.3818

> <Gold.PLP.PLP>
-23.3083

> <Gold.PLP.part.hbond>
-6.0000

> <Gold.PLP.part.metal>
0.0000

> <Gold.PLP.part.buried>
-1.6666

> <Gold.PLP.part.nonpolar>
-15.1223

> <Gold.PLP.part.repulsive>
0.1525

> <Gold.PLP.ligand.clash>
0.0000

> <Gold.PLP.ligand.torsion>
0.0238

> <Gold.PLP.Chemscore.Hbond>
4.7040

> <Gold.PLP.Chemscore.CHOScore>
0.0000

> <Gold.PLP.Chemscore.Metal>
0.0000

> <Gold.Chemscore.Hbonds>
donor molecule, donor type, donor heavy atom, donor atom, acceptor molecule, acceptor atom, score
      L1  H    12    26       P1  7957  1.00
      P1  H  7997  8009       L1     1  1.41
      P1  H  7997  8010       L1    17  0.74
      P1  H 10752 10764       L1     5  0.54
      P1  H 10752 10765       L1     3  1.00

> <Gold.PLP.Chemscore.Internal.Correction>
0.0090

> <Gold.Rescore>
     Score         DG    S(hbond)    S(metal)    S(lipo)     H(rot)  DE(clash)    DE(int)     intcor
      6.52      -9.14       3.44        0.00      21.64       4.04       1.21       1.41       ----

> <Gold.Chemscore.Fitness>
6.5214

> <Gold.Chemscore.DG>
-9.1443

> <Gold.Chemscore.ZeroCoef>
-5.4800

> <Gold.Chemscore.Hbond>
3.4357

> <Gold.Chemscore.Metal>
0.0000

> <Gold.Chemscore.Lipo>
21.6433

> <Gold.Chemscore.Internal_Hbond>
0.0000

> <Gold.Chemscore.DEClash>
1.2107

> <Gold.Chemscore.DEInternal>
1.4122

> <Gold.Chemscore.Rot>
4.0403

> <Gold.Chemscore.Internal.Correction>
   9.000000E+99

> <Gold.Chemscore.Hbonds>
donor molecule, donor type, donor heavy atom, donor atom, acceptor molecule, acceptor atom, score
      L1  H    12    26       P1  7957  0.95
      P1  H  7997  8009       L1     1  0.49
      P1  H  7997  8010       L1    17  0.17
      P1  H 10752 10764       L1     5  0.51
      P1  H 10752 10765       L1     3  0.93

> <Gold.Chemscore.Hbond.Weighted>
-11.4752

> <Gold.Chemscore.Metal.Weighted>
-0.0000

> <Gold.Chemscore.Lipo.Weighted>
-2.5323

> <Gold.Chemscore.Internal_Hbond.Weighted>
0.0000

> <Gold.Chemscore.DEClash.Weighted>
1.2107

> <Gold.Chemscore.DEInternal.Weighted>
1.4122

> <Gold.Chemscore.Rot.Weighted>
10.3431

> <Gold.Chemscore.Internal.Correction.Weighted>
   9.000000E+99

> <Gold.Protein.RotatedTorsions>
[ 6907 6896 6895 6894 ] final  -83.35 input  -60.11 | X-H torsion
[ 7974 7965 7964 7962 ] final   57.67 input  175.53 | X-H torsion
[ 8008 7997 7996 7995 ] final  101.84 input   59.86 | X-H torsion
[ 10167 10162 10161 10158 ] final   23.75 input  -65.29 | X-H torsion
[ 10718 10713 10712 10709 ] final -169.59 input   66.30 | X-H torsion
[ 10763 10752 10751 10750 ] final  -72.15 input  -60.55 | X-H torsion
[ 11005 11000 10999 10996 ] final  147.02 input  -57.11 | X-H torsion

> <Gold.Protein.ActiveResidues>
 VAL166  LYS551  ARG553  GLY616  TRP617  ASP618  TYR619  PRO620  LYS621  CYS622 
 ASP623  PHE694  ASN695  SER759  ASP760  ASP761  ALA762  ILE779  LEU786  VAL792 
 PHE793  MET794  SER795  GLU796  ALA797  LYS798  CYS799  TRP800  GLU811  SER814 

> <Gold.Protein.RotatedAtoms>
  150.6886  134.3525  159.4914 H   0  0  0  0  0  0  0  0  0  0  0  0  # atno 6907 bound_to 6896
  152.1364  134.9093  160.0565 H   0  0  0  0  0  0  0  0  0  0  0  0  # atno 6908 bound_to 6896
  152.0243  133.3876  159.4308 H   0  0  0  0  0  0  0  0  0  0  0  0  # atno 6909 bound_to 6896
  145.9265  139.3772  143.0447 H   0  0  0  0  0  0  0  0  0  0  0  0  # atno 7974 bound_to 7965
  156.1337  140.3191  155.8388 H   0  0  0  0  0  0  0  0  0  0  0  0  # atno 8008 bound_to 7997
  155.4284  140.0517  157.3037 H   0  0  0  0  0  0  0  0  0  0  0  0  # atno 8009 bound_to 7997
  154.4920  140.2096  155.9541 H   0  0  0  0  0  0  0  0  0  0  0  0  # atno 8010 bound_to 7997
  140.5243  143.9949  150.6433 H   0  0  0  0  0  0  0  0  0  0  0  0  # atno 10167 bound_to 10162
  156.7137  130.9243  151.3091 H   0  0  0  0  0  0  0  0  0  0  0  0  # atno 10718 bound_to 10713
  154.4417  135.5939  153.6133 H   0  0  0  0  0  0  0  0  0  0  0  0  # atno 10763 bound_to 10752
  152.9806  135.5999  154.3714 H   0  0  0  0  0  0  0  0  0  0  0  0  # atno 10764 bound_to 10752
  154.3565  135.2841  155.2322 H   0  0  0  0  0  0  0  0  0  0  0  0  # atno 10765 bound_to 10752
  140.0841  134.9080  157.1548 H   0  0  0  0  0  0  0  0  0  0  0  0  # atno 11005 bound_to 11000
  145.8481  140.9544  143.0764 LP  0  0  0  0  0  0  0  0  0  0  0  0  # atno 17320 bound_to 7965
  144.6759  140.0372  143.7481 LP  0  0  0  0  0  0  0  0  0  0  0  0  # atno 17321 bound_to 7965
  140.3306  143.3080  152.0691 LP  0  0  0  0  0  0  0  0  0  0  0  0  # atno 17342 bound_to 10162
  139.4933  144.6511  151.6673 LP  0  0  0  0  0  0  0  0  0  0  0  0  # atno 17343 bound_to 10162
  157.6926  130.9249  150.0555 LP  0  0  0  0  0  0  0  0  0  0  0  0  # atno 17370 bound_to 10713
  156.1643  130.3644  149.9255 LP  0  0  0  0  0  0  0  0  0  0  0  0  # atno 17371 bound_to 10713
  140.3445  134.2667  155.7207 LP  0  0  0  0  0  0  0  0  0  0  0  0  # atno 17394 bound_to 11000
  141.2057  133.7854  157.0220 LP  0  0  0  0  0  0  0  0  0  0  0  0  # atno 17395 bound_to 11000

$$$$
