AV-unprocessed.smi:2198|AV-procd|sdf|8922|dock10
  -GOLD-   2272012143D 1   1.00000     0.00000
 Structure written by MMmdl.
 42 43  0  0  0  0  0  0  0  0  2 V2000
  146.9750  139.5878  152.7857 C   0  0  0  0  0  0  0  0  0  0  0  0
  147.6594  139.8544  154.1095 C   0  0  0  0  0  0  0  0  0  0  0  0
  146.9488  140.0052  155.1614 N   0  0  0  0  0  0  0  0  0  0  0  0
  147.5789  140.2568  156.3920 C   0  0  0  0  0  0  0  0  0  0  0  0
  146.6541  140.4281  157.5847 C   0  0  0  0  0  0  0  0  0  0  0  0
  148.9375  140.3390  156.4860 C   0  0  0  0  0  0  0  0  0  0  0  0
  149.6702  140.6182  157.7978 C   0  0  0  0  0  0  0  0  0  0  0  0
  150.8074  141.6369  157.7085 C   0  0  0  0  0  0  0  0  0  0  0  0
  150.9771  142.2831  156.6749 O   0  0  0  0  0  0  0  0  0  0  0  0
  151.5793  141.7693  158.7982 N   0  0  0  0  0  0  0  0  0  0  0  0
  152.7196  142.6742  158.9281 C   0  0  1  0  0  0  0  0  0  0  0  0
  152.3166  144.1339  158.6306 C   0  0  0  0  0  0  0  0  0  0  0  0
  151.4144  144.7194  159.7298 C   0  0  0  0  0  0  0  0  0  0  0  0
  152.0708  144.5981  161.1136 C   0  0  0  0  0  0  0  0  0  0  0  0
  152.4424  143.1389  161.4392 C   0  0  2  0  0  0  0  0  0  0  0  0
  153.1033  143.0245  162.8203 C   0  0  0  0  0  0  0  0  0  0  0  0
  153.3430  142.5489  160.3329 C   0  0  0  0  0  0  0  0  0  0  0  0
  149.7206  140.1510  155.2510 C   0  0  0  0  0  0  0  0  0  0  0  0
  150.9496  140.1993  155.2804 O   0  0  0  0  0  0  0  0  0  0  0  0
  149.0343  139.9220  154.0951 N   0  5  0  0  0  0  0  0  0  0  0  0
  145.9159  139.3693  152.9281 H   0  0  0  0  0  0  0  0  0  0  0  0
  147.4336  138.7347  152.2843 H   0  0  0  0  0  0  0  0  0  0  0  0
  147.0617  140.4586  152.1357 H   0  0  0  0  0  0  0  0  0  0  0  0
  146.8015  141.4026  158.0503 H   0  0  0  0  0  0  0  0  0  0  0  0
  146.8402  139.6529  158.3278 H   0  0  0  0  0  0  0  0  0  0  0  0
  145.6077  140.3576  157.2855 H   0  0  0  0  0  0  0  0  0  0  0  0
  148.9740  140.9544  158.5666 H   0  0  0  0  0  0  0  0  0  0  0  0
  150.0604  139.6758  158.1830 H   0  0  0  0  0  0  0  0  0  0  0  0
  151.3633  141.1950  159.6000 H   0  0  0  0  0  0  0  0  0  0  0  0
  153.4757  142.3687  158.2025 H   0  0  0  0  0  0  0  0  0  0  0  0
  153.2183  144.7423  158.5505 H   0  0  0  0  0  0  0  0  0  0  0  0
  151.8198  144.2046  157.6622 H   0  0  0  0  0  0  0  0  0  0  0  0
  151.1987  145.7658  159.5123 H   0  0  0  0  0  0  0  0  0  0  0  0
  150.4540  144.2025  159.7329 H   0  0  0  0  0  0  0  0  0  0  0  0
  152.9648  145.2226  161.1465 H   0  0  0  0  0  0  0  0  0  0  0  0
  151.3933  144.9892  161.8736 H   0  0  0  0  0  0  0  0  0  0  0  0
  151.5197  142.5578  161.4728 H   0  0  0  0  0  0  0  0  0  0  0  0
  154.0350  143.5896  162.8626 H   0  0  0  0  0  0  0  0  0  0  0  0
  153.3323  141.9863  163.0617 H   0  0  0  0  0  0  0  0  0  0  0  0
  152.4466  143.4065  163.6024 H   0  0  0  0  0  0  0  0  0  0  0  0
  153.5645  141.5023  160.5471 H   0  0  0  0  0  0  0  0  0  0  0  0
  154.3032  143.0669  160.3394 H   0  0  0  0  0  0  0  0  0  0  0  0
  1  2  1  0  0  0  0
  1 21  1  0  0  0  0
  1 22  1  0  0  0  0
  1 23  1  0  0  0  0
  2 20  1  0  0  0  0
  2  3  2  0  0  0  0
  3  4  1  0  0  0  0
  4  5  1  0  0  0  0
  4  6  2  0  0  0  0
  5 24  1  0  0  0  0
  5 25  1  0  0  0  0
  5 26  1  0  0  0  0
  6  7  1  0  0  0  0
  6 18  1  0  0  0  0
  7  8  1  0  0  0  0
  7 27  1  0  0  0  0
  7 28  1  0  0  0  0
  8  9  2  0  0  0  0
  8 10  1  0  0  0  0
 10 11  1  0  0  0  0
 10 29  1  0  0  0  0
 11 17  1  0  0  0  0
 11 12  1  0  0  0  0
 11 30  1  0  0  0  0
 12 13  1  0  0  0  0
 12 31  1  0  0  0  0
 12 32  1  0  0  0  0
 13 14  1  0  0  0  0
 13 33  1  0  0  0  0
 13 34  1  0  0  0  0
 14 15  1  0  0  0  0
 14 35  1  0  0  0  0
 14 36  1  0  0  0  0
 15 16  1  0  0  0  0
 15 17  1  0  0  0  0
 15 37  1  0  0  0  0
 16 38  1  0  0  0  0
 16 39  1  0  0  0  0
 16 40  1  0  0  0  0
 17 41  1  0  0  0  0
 17 42  1  0  0  0  0
 18 19  2  0  0  0  0
 18 20  1  0  0  0  0
M  CHG  1  20  -1
M  END
> <s_m_source_file>
AV-unprocessed.smi

> <i_m_source_file_index>
2198

> <i_lp_mmshare_version>
43012

> <i_f3d_flags>
0

> <s_epik_input>
W0NIM11jMW5jKFtDSDNdKWMoYyg9TylbbkhdMSlbQ0gyXUMoPU8pW05IXVtDQEBIXTJbQ0gyXVtDSDJdW0NIMl1bQ0BASF0oW0NIM10pW0NIMl0y

> <s_epik_cmdline>
J2VwaWtfcHl0aG9uJywgJy1waCcsICc3LjAnLCAnLXRuJywgJzgnLCAnLW1hJywgJzIwMCcsICctbWV0YWxfYmluZGluZycsICctaW1hZScsICc8aW5maWxlLm1hZT4nLCAnLW9tYWUnLCAnPG91dGZpbGUubWFlPic=

> <r_lp_tautomer_probability>
0.839158

> <r_epik_Ionization_Penalty>
6.67193

> <r_epik_Ionization_Penalty_Charging>
7.66837e-08

> <r_epik_Ionization_Penalty_Neutral>
6.67193

> <r_epik_State_Penalty>
4.51643

> <r_epik_Charging_Adjusted_Penalty>
4.51643

> <i_epik_Tot_Q>
-1

> <i_epik_Tot_abs_Q>
1

> <r_epik_Metal_State_Penalty>
0.851582

> <b_epik_Metal_Only>
1

> <s_lp_Force_Field>
OPLS_2005

> <r_lp_Energy>
13.9181

> <b_lp_Chiralities_Consistent>
1

> <s_lp_Variant>
AV-unprocessed.smi:2198-12

> <Gold.Version>
5.8.1

> <Gold.Id.Protein>
6NUR|6NUR_protein|mol2

> <Gold.PLP.Fitness>
41.9009

> <Gold.PLP.PLP>
-39.4628

> <Gold.PLP.part.hbond>
-1.0000

> <Gold.PLP.part.metal>
0.0000

> <Gold.PLP.part.buried>
-6.3964

> <Gold.PLP.part.nonpolar>
-33.2812

> <Gold.PLP.part.repulsive>
1.3444

> <Gold.PLP.ligand.clash>
0.0000

> <Gold.PLP.ligand.torsion>
0.2846

> <Gold.PLP.Chemscore.Hbond>
1.0000

> <Gold.PLP.Chemscore.CHOScore>
0.0000

> <Gold.PLP.Chemscore.Metal>
0.0000

> <Gold.Chemscore.Hbonds>
donor molecule, donor type, donor heavy atom, donor atom, acceptor molecule, acceptor atom, score
      P1  H  7989  7998       L1    19  1.00

> <Gold.PLP.Chemscore.Internal.Correction>
0.0073

> <Gold.Rescore>
     Score         DG    S(hbond)    S(metal)    S(lipo)     H(rot)  DE(clash)    DE(int)     intcor
     11.91     -16.18       0.96        0.00      95.80       1.45       0.04       4.24       ----

> <Gold.Chemscore.Fitness>
11.9092

> <Gold.Chemscore.DG>
-16.1835

> <Gold.Chemscore.ZeroCoef>
-5.4800

> <Gold.Chemscore.Hbond>
0.9564

> <Gold.Chemscore.Metal>
0.0000

> <Gold.Chemscore.Lipo>
95.7986

> <Gold.Chemscore.Internal_Hbond>
0.0000

> <Gold.Chemscore.DEClash>
0.0354

> <Gold.Chemscore.DEInternal>
4.2388

> <Gold.Chemscore.Rot>
1.4450

> <Gold.Chemscore.Internal.Correction>
   9.000000E+99

> <Gold.Chemscore.Hbonds>
donor molecule, donor type, donor heavy atom, donor atom, acceptor molecule, acceptor atom, score
      P1  H  7989  7998       L1    19  0.65

> <Gold.Chemscore.Hbond.Weighted>
-3.1943

> <Gold.Chemscore.Metal.Weighted>
-0.0000

> <Gold.Chemscore.Lipo.Weighted>
-11.2084

> <Gold.Chemscore.Internal_Hbond.Weighted>
0.0000

> <Gold.Chemscore.DEClash.Weighted>
0.0354

> <Gold.Chemscore.DEInternal.Weighted>
4.2388

> <Gold.Chemscore.Rot.Weighted>
3.6992

> <Gold.Chemscore.Internal.Correction.Weighted>
   9.000000E+99

> <Gold.Protein.RotatedTorsions>
[ 6907 6896 6895 6894 ] final   18.37 input  -60.11 | X-H torsion
[ 7974 7965 7964 7962 ] final -175.64 input  175.53 | X-H torsion
[ 8008 7997 7996 7995 ] final  166.05 input   59.86 | X-H torsion
[ 10167 10162 10161 10158 ] final  143.32 input  -65.29 | X-H torsion
[ 10718 10713 10712 10709 ] final  129.24 input   66.30 | X-H torsion
[ 10763 10752 10751 10750 ] final   64.98 input  -60.55 | X-H torsion
[ 11005 11000 10999 10996 ] final -126.46 input  -57.11 | X-H torsion

> <Gold.Protein.ActiveResidues>
 VAL166  LYS551  ARG553  GLY616  TRP617  ASP618  TYR619  PRO620  LYS621  CYS622 
 ASP623  PHE694  ASN695  SER759  ASP760  ASP761  ALA762  ILE779  LEU786  VAL792 
 PHE793  MET794  SER795  GLU796  ALA797  LYS798  CYS799  TRP800  GLU811  SER814 

> <Gold.Protein.RotatedAtoms>
  151.8643  135.0513  160.0472 H   0  0  0  0  0  0  0  0  0  0  0  0  # atno 6907 bound_to 6896
  152.2639  133.5317  159.5406 H   0  0  0  0  0  0  0  0  0  0  0  0  # atno 6908 bound_to 6896
  150.7126  134.0708  159.3906 H   0  0  0  0  0  0  0  0  0  0  0  0  # atno 6909 bound_to 6896
  144.7128  140.1290  143.6400 H   0  0  0  0  0  0  0  0  0  0  0  0  # atno 7974 bound_to 7965
  156.1751  140.1654  156.8378 H   0  0  0  0  0  0  0  0  0  0  0  0  # atno 8008 bound_to 7997
  154.5298  140.0759  156.8358 H   0  0  0  0  0  0  0  0  0  0  0  0  # atno 8009 bound_to 7997
  155.3431  140.3386  155.4241 H   0  0  0  0  0  0  0  0  0  0  0  0  # atno 8010 bound_to 7997
  139.4972  144.6048  151.6402 H   0  0  0  0  0  0  0  0  0  0  0  0  # atno 10167 bound_to 10162
  157.5172  131.1097  150.9206 H   0  0  0  0  0  0  0  0  0  0  0  0  # atno 10718 bound_to 10713
  153.0077  135.5373  154.6595 H   0  0  0  0  0  0  0  0  0  0  0  0  # atno 10763 bound_to 10752
  154.5807  135.2849  155.0738 H   0  0  0  0  0  0  0  0  0  0  0  0  # atno 10764 bound_to 10752
  154.1868  135.6507  153.5101 H   0  0  0  0  0  0  0  0  0  0  0  0  # atno 10765 bound_to 10752
  140.9680  134.0845  157.3900 H   0  0  0  0  0  0  0  0  0  0  0  0  # atno 11005 bound_to 11000
  145.9304  139.2602  143.1329 LP  0  0  0  0  0  0  0  0  0  0  0  0  # atno 17320 bound_to 7965
  145.9529  140.8895  143.0250 LP  0  0  0  0  0  0  0  0  0  0  0  0  # atno 17321 bound_to 7965
  140.5707  144.0113  150.6215 LP  0  0  0  0  0  0  0  0  0  0  0  0  # atno 17342 bound_to 10162
  140.3230  143.3125  152.0765 LP  0  0  0  0  0  0  0  0  0  0  0  0  # atno 17343 bound_to 10162
  156.9828  130.5533  149.5297 LP  0  0  0  0  0  0  0  0  0  0  0  0  # atno 17370 bound_to 10713
  156.0329  130.5418  150.8579 LP  0  0  0  0  0  0  0  0  0  0  0  0  # atno 17371 bound_to 10713
  139.8901  135.0110  156.6719 LP  0  0  0  0  0  0  0  0  0  0  0  0  # atno 17394 bound_to 11000
  140.7371  133.9009  155.8252 LP  0  0  0  0  0  0  0  0  0  0  0  0  # atno 17395 bound_to 11000

$$$$
