AV-unprocessed.smi:1100|AV-procd|sdf|4764|dock4
  -GOLD-   22720 3303D 1   1.00000     0.00000
 Structure written by MMmdl.
 43 44  0  0  0  0  0  0  0  0  3 V2000
  146.6135  142.0191  154.6516 C   0  0  0  0  0  0  0  0  0  0  0  0
  147.2251  141.0709  153.5889 C   0  0  1  0  0  0  0  0  0  0  0  0
  148.7027  140.6799  153.8570 C   0  0  0  0  0  0  0  0  0  0  0  0
  149.3945  141.7483  154.5775 N   0  5  0  0  0  0  0  0  0  0  0  0
  150.2825  141.5498  155.5892 C   0  0  0  0  0  0  0  0  0  0  0  0
  151.1823  140.7035  155.6390 O   0  0  0  0  0  0  0  0  0  0  0  0
  150.0720  142.4007  156.6131 N   0  0  0  0  0  0  0  0  0  0  0  0
  150.7911  142.5765  157.8060 C   0  0  0  0  0  0  0  0  0  0  0  0
  150.7281  143.8747  158.4428 C   0  0  0  0  0  0  0  0  0  0  0  0
  151.4159  144.1339  159.5718 C   0  0  0  0  0  0  0  0  0  0  0  0
  152.2577  143.1168  160.2061 C   0  0  0  0  0  0  0  0  0  0  0  0
  152.8952  143.3403  161.2359 O   0  0  0  0  0  0  0  0  0  0  0  0
  152.2905  141.9050  159.5796 N   0  0  0  0  0  0  0  0  0  0  0  0
  153.1094  140.8224  160.1314 C   0  0  0  0  0  0  0  0  0  0  0  0
  151.5765  141.6467  158.3936 C   0  0  0  0  0  0  0  0  0  0  0  0
  146.3942  139.8488  153.3535 N   0  3  0  0  0  0  0  0  0  0  0  0
  146.8215  138.9537  152.2417 C   0  0  0  0  0  0  0  0  0  0  0  0
  145.7776  137.8466  152.0268 C   0  0  0  0  0  0  0  0  0  0  0  0
  145.6128  137.1115  153.2333 O   0  0  0  0  0  0  0  0  0  0  0  0
  145.1368  137.9295  154.2953 C   0  0  0  0  0  0  0  0  0  0  0  0
  146.1456  139.0545  154.5824 C   0  0  0  0  0  0  0  0  0  0  0  0
  147.1420  142.9729  154.6968 H   0  0  0  0  0  0  0  0  0  0  0  0
  146.6295  141.5934  155.6564 H   0  0  0  0  0  0  0  0  0  0  0  0
  145.5763  142.2532  154.4118 H   0  0  0  0  0  0  0  0  0  0  0  0
  147.2355  141.6231  152.6474 H   0  0  0  0  0  0  0  0  0  0  0  0
  148.7310  139.7366  154.4035 H   0  0  0  0  0  0  0  0  0  0  0  0
  149.1823  140.4776  152.8978 H   0  0  0  0  0  0  0  0  0  0  0  0
  149.2707  143.0060  156.5121 H   0  0  0  0  0  0  0  0  0  0  0  0
  150.1183  144.6534  158.0083 H   0  0  0  0  0  0  0  0  0  0  0  0
  151.3462  145.1136  160.0207 H   0  0  0  0  0  0  0  0  0  0  0  0
  152.9524  139.8725  159.6194 H   0  0  0  0  0  0  0  0  0  0  0  0
  152.8789  140.6584  161.1852 H   0  0  0  0  0  0  0  0  0  0  0  0
  154.1685  141.0696  160.0489 H   0  0  0  0  0  0  0  0  0  0  0  0
  151.7373  140.6550  158.0018 H   0  0  0  0  0  0  0  0  0  0  0  0
  146.9469  139.5186  151.3176 H   0  0  0  0  0  0  0  0  0  0  0  0
  147.7844  138.4966  152.4728 H   0  0  0  0  0  0  0  0  0  0  0  0
  144.8229  138.2662  151.7051 H   0  0  0  0  0  0  0  0  0  0  0  0
  146.1078  137.1663  151.2416 H   0  0  0  0  0  0  0  0  0  0  0  0
  144.1585  138.3406  154.0409 H   0  0  0  0  0  0  0  0  0  0  0  0
  145.0007  137.3117  155.1832 H   0  0  0  0  0  0  0  0  0  0  0  0
  147.0847  138.6353  154.9464 H   0  0  0  0  0  0  0  0  0  0  0  0
  145.7516  139.6956  155.3718 H   0  0  0  0  0  0  0  0  0  0  0  0
  145.4891  140.2102  153.0871 H   0  0  0  0  0  0  0  0  0  0  0  0
  1  2  1  0  0  0  0
  1 22  1  0  0  0  0
  1 23  1  0  0  0  0
  1 24  1  0  0  0  0
  2  3  1  0  0  0  0
  2 16  1  0  0  0  0
  2 25  1  0  0  0  0
  3  4  1  0  0  0  0
  3 26  1  0  0  0  0
  3 27  1  0  0  0  0
  4  5  1  0  0  0  0
  5  6  2  0  0  0  0
  5  7  1  0  0  0  0
  7  8  1  0  0  0  0
  7 28  1  0  0  0  0
  8 15  2  0  0  0  0
  8  9  1  0  0  0  0
  9 10  2  0  0  0  0
  9 29  1  0  0  0  0
 10 11  1  0  0  0  0
 10 30  1  0  0  0  0
 11 12  2  0  0  0  0
 11 13  1  0  0  0  0
 13 14  1  0  0  0  0
 13 15  1  0  0  0  0
 14 31  1  0  0  0  0
 14 32  1  0  0  0  0
 14 33  1  0  0  0  0
 15 34  1  0  0  0  0
 16 21  1  0  0  0  0
 16 17  1  0  0  0  0
 16 43  1  0  0  0  0
 17 18  1  0  0  0  0
 17 35  1  0  0  0  0
 17 36  1  0  0  0  0
 18 19  1  0  0  0  0
 18 37  1  0  0  0  0
 18 38  1  0  0  0  0
 19 20  1  0  0  0  0
 20 21  1  0  0  0  0
 20 39  1  0  0  0  0
 20 40  1  0  0  0  0
 21 41  1  0  0  0  0
 21 42  1  0  0  0  0
M  CHG  1   4  -1
M  CHG  1  16   1
M  END
> <s_m_source_file>
AV-unprocessed.smi

> <i_m_source_file_index>
1100

> <i_lp_mmshare_version>
43012

> <i_f3d_flags>
0

> <s_epik_input>
W0NIMl0xW0NIMl1PW0NIMl1bQ0gyXU4xW0NASF0oW0NIM10pW0NIMl1bTkhdQyg9TylbTkhdYzJbY0hdW2NIXWMoPU8pbihbQ0gzXSlbY0hdMg==

> <s_epik_cmdline>
J2VwaWtfcHl0aG9uJywgJy1waCcsICc3LjAnLCAnLXRuJywgJzgnLCAnLW1hJywgJzIwMCcsICctbWV0YWxfYmluZGluZycsICctaW1hZScsICc8aW5maWxlLm1hZT4nLCAnLW9tYWUnLCAnPG91dGZpbGUubWFlPic=

> <r_lp_tautomer_probability>
1

> <r_epik_Ionization_Penalty>
6.79272

> <r_epik_Ionization_Penalty_Charging>
6.79272

> <r_epik_Ionization_Penalty_Neutral>
3.37009e-06

> <r_epik_State_Penalty>
7.34577

> <r_epik_Charging_Adjusted_Penalty>
14.1385

> <i_epik_Tot_Q>
0

> <i_epik_Tot_abs_Q>
2

> <r_epik_Metal_State_Penalty>
3.26257

> <b_epik_Metal_Only>
1

> <s_lp_Force_Field>
OPLS_2005

> <r_lp_Energy>
32.2868

> <b_lp_Chiralities_Consistent>
1

> <s_lp_Variant>
AV-unprocessed.smi:1100-6

> <Gold.Version>
5.8.1

> <Gold.Id.Protein>
6NUR|6NUR_protein|mol2

> <Gold.PLP.Fitness>
47.2281

> <Gold.PLP.PLP>
-39.4100

> <Gold.PLP.part.hbond>
-4.9020

> <Gold.PLP.part.metal>
0.0000

> <Gold.PLP.part.buried>
1.6825

> <Gold.PLP.part.nonpolar>
-35.6000

> <Gold.PLP.part.repulsive>
0.4772

> <Gold.PLP.ligand.clash>
0.0000

> <Gold.PLP.ligand.torsion>
0.9808

> <Gold.PLP.Chemscore.Hbond>
3.1973

> <Gold.PLP.Chemscore.CHOScore>
0.0000

> <Gold.PLP.Chemscore.Metal>
0.0000

> <Gold.Chemscore.Hbonds>
donor molecule, donor type, donor heavy atom, donor atom, acceptor molecule, acceptor atom, score
      L1  H     7    28       P1  8028  0.74
      L1  H    16    43       P1 10175  2.00
      P1  H  7989  7998       L1     6  0.31

> <Gold.PLP.Chemscore.Internal.Correction>
0.1879

> <Gold.Rescore>
     Score         DG    S(hbond)    S(metal)    S(lipo)     H(rot)  DE(clash)    DE(int)     intcor
     14.76     -17.34       1.75        0.00      84.42       1.51       0.43       2.15       ----

> <Gold.Chemscore.Fitness>
14.7601

> <Gold.Chemscore.DG>
-17.3430

> <Gold.Chemscore.ZeroCoef>
-5.4800

> <Gold.Chemscore.Hbond>
1.7541

> <Gold.Chemscore.Metal>
0.0000

> <Gold.Chemscore.Lipo>
84.4170

> <Gold.Chemscore.Internal_Hbond>
0.0000

> <Gold.Chemscore.DEClash>
0.4349

> <Gold.Chemscore.DEInternal>
2.1479

> <Gold.Chemscore.Rot>
1.5128

> <Gold.Chemscore.Internal.Correction>
   9.000000E+99

> <Gold.Chemscore.Hbonds>
donor molecule, donor type, donor heavy atom, donor atom, acceptor molecule, acceptor atom, score
      L1  H     7    28       P1  8028  0.73
      L1  H    16    43       P1 10175  0.98
      P1  H  7989  7998       L1     6  0.03

> <Gold.Chemscore.Hbond.Weighted>
-5.8588

> <Gold.Chemscore.Metal.Weighted>
-0.0000

> <Gold.Chemscore.Lipo.Weighted>
-9.8768

> <Gold.Chemscore.Internal_Hbond.Weighted>
0.0000

> <Gold.Chemscore.DEClash.Weighted>
0.4349

> <Gold.Chemscore.DEInternal.Weighted>
2.1479

> <Gold.Chemscore.Rot.Weighted>
3.8726

> <Gold.Chemscore.Internal.Correction.Weighted>
   9.000000E+99

> <Gold.Protein.RotatedTorsions>
[ 6907 6896 6895 6894 ] final  132.96 input  -60.11 | X-H torsion
[ 7974 7965 7964 7962 ] final -144.68 input  175.53 | X-H torsion
[ 8008 7997 7996 7995 ] final -178.22 input   59.86 | X-H torsion
[ 10167 10162 10161 10158 ] final  -83.66 input  -65.29 | X-H torsion
[ 10718 10713 10712 10709 ] final  -89.48 input   66.30 | X-H torsion
[ 10763 10752 10751 10750 ] final   34.08 input  -60.55 | X-H torsion
[ 11005 11000 10999 10996 ] final   81.80 input  -57.11 | X-H torsion

> <Gold.Protein.ActiveResidues>
 VAL166  LYS551  ARG553  GLY616  TRP617  ASP618  TYR619  PRO620  LYS621  CYS622 
 ASP623  PHE694  ASN695  SER759  ASP760  ASP761  ALA762  ILE779  LEU786  VAL792 
 PHE793  MET794  SER795  GLU796  ALA797  LYS798  CYS799  TRP800  GLU811  SER814 

> <Gold.Protein.RotatedAtoms>
  152.3269  133.5915  159.5782 H   0  0  0  0  0  0  0  0  0  0  0  0  # atno 6907 bound_to 6896
  150.7402  133.9926  159.3621 H   0  0  0  0  0  0  0  0  0  0  0  0  # atno 6908 bound_to 6896
  151.7805  135.0763  160.0424 H   0  0  0  0  0  0  0  0  0  0  0  0  # atno 6909 bound_to 6896
  144.8281  140.5680  143.5534 H   0  0  0  0  0  0  0  0  0  0  0  0  # atno 7974 bound_to 7965
  156.0162  140.1251  157.0404 H   0  0  0  0  0  0  0  0  0  0  0  0  # atno 8008 bound_to 7997
  154.4294  140.1078  156.5969 H   0  0  0  0  0  0  0  0  0  0  0  0  # atno 8009 bound_to 7997
  155.6010  140.3470  155.4596 H   0  0  0  0  0  0  0  0  0  0  0  0  # atno 8010 bound_to 7997
  140.4206  143.2586  151.8895 H   0  0  0  0  0  0  0  0  0  0  0  0  # atno 10167 bound_to 10162
  155.9984  130.4874  150.5177 H   0  0  0  0  0  0  0  0  0  0  0  0  # atno 10718 bound_to 10713
  153.0181  135.6370  154.1612 H   0  0  0  0  0  0  0  0  0  0  0  0  # atno 10763 bound_to 10752
  154.1349  135.2838  155.3177 H   0  0  0  0  0  0  0  0  0  0  0  0  # atno 10764 bound_to 10752
  154.6167  135.5538  153.7593 H   0  0  0  0  0  0  0  0  0  0  0  0  # atno 10765 bound_to 10752
  139.9085  134.8024  156.2090 H   0  0  0  0  0  0  0  0  0  0  0  0  # atno 11005 bound_to 11000
  145.4956  139.1486  143.3685 LP  0  0  0  0  0  0  0  0  0  0  0  0  # atno 17320 bound_to 7965
  146.2585  140.5095  142.8863 LP  0  0  0  0  0  0  0  0  0  0  0  0  # atno 17321 bound_to 7965
  139.4782  144.5441  151.8484 LP  0  0  0  0  0  0  0  0  0  0  0  0  # atno 17342 bound_to 10162
  140.4538  144.1818  150.5899 LP  0  0  0  0  0  0  0  0  0  0  0  0  # atno 17343 bound_to 10162
  157.3143  131.0669  151.1978 LP  0  0  0  0  0  0  0  0  0  0  0  0  # atno 17370 bound_to 10713
  157.2914  130.6798  149.6116 LP  0  0  0  0  0  0  0  0  0  0  0  0  # atno 17371 bound_to 10713
  141.0477  133.6904  156.1714 LP  0  0  0  0  0  0  0  0  0  0  0  0  # atno 17394 bound_to 11000
  140.6858  134.4718  157.5589 LP  0  0  0  0  0  0  0  0  0  0  0  0  # atno 17395 bound_to 11000

$$$$
