AV-unprocessed.smi:6|AV-procd|sdf|41|dock6
  -GOLD-   2262015153D 1   1.00000     0.00000
 Structure written by MMmdl.
 36 37  0  0  0  0  0  0  0  0  2 V2000
  145.6431  129.9766  152.1367 C   0  0  0  0  0  0  0  0  0  0  0  0
  145.7875  131.4957  152.3188 C   0  0  0  0  0  0  0  0  0  0  0  0
  145.6418  132.2751  151.0028 C   0  0  0  0  0  0  0  0  0  0  0  0
  147.0672  131.8624  153.0595 C   0  0  0  0  0  0  0  0  0  0  0  0
  147.8509  130.8511  153.4483 N   0  0  0  0  0  0  0  0  0  0  0  0
  148.9840  131.1757  154.1072 C   0  0  0  0  0  0  0  0  0  0  0  0
  149.3300  132.5150  154.3761 C   0  0  0  0  0  0  0  0  0  0  0  0
  148.4305  133.5023  153.9239 C   0  0  0  0  0  0  0  0  0  0  0  0
  148.7215  134.8538  154.1536 N   0  0  0  0  0  0  0  0  0  0  0  0
  149.2606  135.2606  155.4453 C   0  0  0  0  0  0  0  0  0  0  0  0
  149.9518  136.6148  155.4006 C   0  0  0  0  0  0  0  0  0  0  0  0
  149.3240  137.7282  154.9677 C   0  0  0  0  0  0  0  0  0  0  0  0
  149.9494  138.9855  154.9496 N   0  0  0  0  0  0  0  0  0  0  0  0
  149.1870  140.1337  154.4531 C   0  0  0  0  0  0  0  0  0  0  0  0
  151.2325  139.1201  155.3899 C   0  0  0  0  0  0  0  0  0  0  0  0
  151.7549  140.2352  155.3641 O   0  0  0  0  0  0  0  0  0  0  0  0
  151.8897  138.0099  155.8444 N   0  5  0  0  0  0  0  0  0  0  0  0
  151.3296  136.7651  155.8830 C   0  0  0  0  0  0  0  0  0  0  0  0
  151.9408  135.7834  156.3042 O   0  0  0  0  0  0  0  0  0  0  0  0
  147.2984  133.1645  153.2621 N   0  0  0  0  0  0  0  0  0  0  0  0
  145.6749  129.4622  153.0975 H   0  0  0  0  0  0  0  0  0  0  0  0
  146.4427  129.5717  151.5151 H   0  0  0  0  0  0  0  0  0  0  0  0
  144.6951  129.7276  151.6597 H   0  0  0  0  0  0  0  0  0  0  0  0
  144.9515  131.8053  152.9488 H   0  0  0  0  0  0  0  0  0  0  0  0
  145.6749  133.3504  151.1796 H   0  0  0  0  0  0  0  0  0  0  0  0
  144.6928  132.0493  150.5159 H   0  0  0  0  0  0  0  0  0  0  0  0
  146.4403  132.0277  150.3024 H   0  0  0  0  0  0  0  0  0  0  0  0
  149.6202  130.3615  154.4212 H   0  0  0  0  0  0  0  0  0  0  0  0
  150.2385  132.7682  154.9024 H   0  0  0  0  0  0  0  0  0  0  0  0
  148.9734  135.4173  153.3540 H   0  0  0  0  0  0  0  0  0  0  0  0
  148.4522  135.3070  156.1762 H   0  0  0  0  0  0  0  0  0  0  0  0
  149.9666  134.5078  155.7983 H   0  0  0  0  0  0  0  0  0  0  0  0
  148.3050  137.7210  154.6098 H   0  0  0  0  0  0  0  0  0  0  0  0
  149.6912  140.5853  153.5975 H   0  0  0  0  0  0  0  0  0  0  0  0
  149.0907  140.8927  155.2307 H   0  0  0  0  0  0  0  0  0  0  0  0
  148.1804  139.8629  154.1332 H   0  0  0  0  0  0  0  0  0  0  0  0
  1  2  1  0  0  0  0
  1 21  1  0  0  0  0
  1 22  1  0  0  0  0
  1 23  1  0  0  0  0
  2  3  1  0  0  0  0
  2  4  1  0  0  0  0
  2 24  1  0  0  0  0
  3 25  1  0  0  0  0
  3 26  1  0  0  0  0
  3 27  1  0  0  0  0
  4 20  1  0  0  0  0
  4  5  2  0  0  0  0
  5  6  1  0  0  0  0
  6  7  2  0  0  0  0
  6 28  1  0  0  0  0
  7  8  1  0  0  0  0
  7 29  1  0  0  0  0
  8  9  1  0  0  0  0
  8 20  2  0  0  0  0
  9 10  1  0  0  0  0
  9 30  1  0  0  0  0
 10 11  1  0  0  0  0
 10 31  1  0  0  0  0
 10 32  1  0  0  0  0
 11 18  1  0  0  0  0
 11 12  2  0  0  0  0
 12 13  1  0  0  0  0
 12 33  1  0  0  0  0
 13 14  1  0  0  0  0
 13 15  1  0  0  0  0
 14 34  1  0  0  0  0
 14 35  1  0  0  0  0
 14 36  1  0  0  0  0
 15 16  2  0  0  0  0
 15 17  1  0  0  0  0
 17 18  1  0  0  0  0
 18 19  2  0  0  0  0
M  CHG  1  17  -1
M  END
> <s_m_source_file>
AV-unprocessed.smi

> <i_m_source_file_index>
6

> <i_lp_mmshare_version>
43012

> <i_f3d_flags>
0

> <s_epik_input>
W0NIM11bQ0hdKFtDSDNdKWMxbltjSF1bY0hdYyhuMSlbTkhdW0NIMl1jMltjSF1uKFtDSDNdKWMoPU8pW25IXWMyPU8=

> <s_epik_cmdline>
J2VwaWtfcHl0aG9uJywgJy1waCcsICc3LjAnLCAnLXRuJywgJzgnLCAnLW1hJywgJzIwMCcsICctbWV0YWxfYmluZGluZycsICctaW1hZScsICc8aW5maWxlLm1hZT4nLCAnLW9tYWUnLCAnPG91dGZpbGUubWFlPic=

> <r_lp_tautomer_probability>
0.999537

> <r_epik_Ionization_Penalty>
4.10508

> <r_epik_Ionization_Penalty_Charging>
6.01221e-07

> <r_epik_Ionization_Penalty_Neutral>
4.10508

> <r_epik_State_Penalty>
4.24889

> <r_epik_Charging_Adjusted_Penalty>
4.24889

> <i_epik_Tot_Q>
-1

> <i_epik_Tot_abs_Q>
1

> <r_epik_Metal_State_Penalty>
1.04429

> <b_epik_Metal_Only>
1

> <s_lp_Force_Field>
OPLS_2005

> <r_lp_Energy>
13.2658

> <b_lp_Chiralities_Consistent>
1

> <s_lp_Variant>
AV-unprocessed.smi:6-3

> <Gold.Version>
5.8.1

> <Gold.Id.Protein>
6NUR|6NUR_protein|mol2

> <Gold.PLP.Fitness>
40.6789

> <Gold.PLP.PLP>
-33.1394

> <Gold.PLP.part.hbond>
-3.0000

> <Gold.PLP.part.metal>
0.0000

> <Gold.PLP.part.buried>
-4.9428

> <Gold.PLP.part.nonpolar>
-26.5408

> <Gold.PLP.part.repulsive>
0.2419

> <Gold.PLP.ligand.clash>
0.0000

> <Gold.PLP.ligand.torsion>
0.5655

> <Gold.PLP.Chemscore.Hbond>
2.8640

> <Gold.PLP.Chemscore.CHOScore>
0.0000

> <Gold.PLP.Chemscore.Metal>
0.0000

> <Gold.Chemscore.Hbonds>
donor molecule, donor type, donor heavy atom, donor atom, acceptor molecule, acceptor atom, score
      L1  H     9    30       P1  7948  1.00
      P1  H  7989  7998       L1    16  0.85
      P1  H 10752 10763       L1    19  1.00

> <Gold.PLP.Chemscore.Internal.Correction>
0.0786

> <Gold.Rescore>
     Score         DG    S(hbond)    S(metal)    S(lipo)     H(rot)  DE(clash)    DE(int)     intcor
     15.74     -16.94       2.85        0.00      51.99       1.62       0.00       1.20       ----

> <Gold.Chemscore.Fitness>
15.7370

> <Gold.Chemscore.DG>
-16.9371

> <Gold.Chemscore.ZeroCoef>
-5.4800

> <Gold.Chemscore.Hbond>
2.8504

> <Gold.Chemscore.Metal>
0.0000

> <Gold.Chemscore.Lipo>
51.9904

> <Gold.Chemscore.Internal_Hbond>
0.0000

> <Gold.Chemscore.DEClash>
0.0000

> <Gold.Chemscore.DEInternal>
1.2000

> <Gold.Chemscore.Rot>
1.6196

> <Gold.Chemscore.Internal.Correction>
   9.000000E+99

> <Gold.Chemscore.Hbonds>
donor molecule, donor type, donor heavy atom, donor atom, acceptor molecule, acceptor atom, score
      L1  H     9    30       P1  7948  0.65
      P1  H  7989  7998       L1    16  0.51
      P1  H 10752 10763       L1    19  0.70

> <Gold.Chemscore.Hbond.Weighted>
-9.5205

> <Gold.Chemscore.Metal.Weighted>
-0.0000

> <Gold.Chemscore.Lipo.Weighted>
-6.0829

> <Gold.Chemscore.Internal_Hbond.Weighted>
0.0000

> <Gold.Chemscore.DEClash.Weighted>
0.0000

> <Gold.Chemscore.DEInternal.Weighted>
1.2000

> <Gold.Chemscore.Rot.Weighted>
4.1463

> <Gold.Chemscore.Internal.Correction.Weighted>
   9.000000E+99

> <Gold.Protein.RotatedTorsions>
[ 6907 6896 6895 6894 ] final   40.53 input  -60.11 | X-H torsion
[ 7974 7965 7964 7962 ] final  136.55 input  175.53 | X-H torsion
[ 8008 7997 7996 7995 ] final   86.41 input   59.86 | X-H torsion
[ 10167 10162 10161 10158 ] final   52.68 input  -65.29 | X-H torsion
[ 10718 10713 10712 10709 ] final  150.14 input   66.30 | X-H torsion
[ 10763 10752 10751 10750 ] final  101.39 input  -60.55 | X-H torsion
[ 11005 11000 10999 10996 ] final -140.20 input  -57.11 | X-H torsion

> <Gold.Protein.ActiveResidues>
 VAL166  LYS551  ARG553  GLY616  TRP617  ASP618  TYR619  PRO620  LYS621  CYS622 
 ASP623  PHE694  ASN695  SER759  ASP760  ASP761  ALA762  ILE779  LEU786  VAL792 
 PHE793  MET794  SER795  GLU796  ALA797  LYS798  CYS799  TRP800  GLU811  SER814 

> <Gold.Protein.RotatedAtoms>
  152.1836  134.8733  160.0523 H   0  0  0  0  0  0  0  0  0  0  0  0  # atno 6907 bound_to 6896
  151.9648  133.3701  159.4057 H   0  0  0  0  0  0  0  0  0  0  0  0  # atno 6908 bound_to 6896
  150.6922  134.4126  159.5212 H   0  0  0  0  0  0  0  0  0  0  0  0  # atno 6909 bound_to 6896
  144.9553  139.4771  143.5506 H   0  0  0  0  0  0  0  0  0  0  0  0  # atno 7974 bound_to 7965
  155.9624  140.3392  155.6503 H   0  0  0  0  0  0  0  0  0  0  0  0  # atno 8008 bound_to 7997
  155.6780  140.0734  157.2513 H   0  0  0  0  0  0  0  0  0  0  0  0  # atno 8009 bound_to 7997
  154.4146  140.1679  156.1939 H   0  0  0  0  0  0  0  0  0  0  0  0  # atno 8010 bound_to 7997
  140.2488  144.3502  150.6355 H   0  0  0  0  0  0  0  0  0  0  0  0  # atno 10167 bound_to 10162
  157.2873  131.0846  151.1488 H   0  0  0  0  0  0  0  0  0  0  0  0  # atno 10718 bound_to 10713
  153.3261  135.4046  155.1457 H   0  0  0  0  0  0  0  0  0  0  0  0  # atno 10763 bound_to 10752
  154.8612  135.3599  154.5532 H   0  0  0  0  0  0  0  0  0  0  0  0  # atno 10764 bound_to 10752
  153.5968  135.7072  153.5459 H   0  0  0  0  0  0  0  0  0  0  0  0  # atno 10765 bound_to 10752
  140.8446  134.2360  157.4792 H   0  0  0  0  0  0  0  0  0  0  0  0  # atno 11005 bound_to 11000
  146.3335  139.8667  142.8847 LP  0  0  0  0  0  0  0  0  0  0  0  0  # atno 17320 bound_to 7965
  145.2781  141.0130  143.3733 LP  0  0  0  0  0  0  0  0  0  0  0  0  # atno 17321 bound_to 7965
  140.6057  143.2167  151.6986 LP  0  0  0  0  0  0  0  0  0  0  0  0  # atno 17342 bound_to 10162
  139.5053  144.3722  152.0458 LP  0  0  0  0  0  0  0  0  0  0  0  0  # atno 17343 bound_to 10162
  157.2898  130.6791  149.6108 LP  0  0  0  0  0  0  0  0  0  0  0  0  # atno 17370 bound_to 10713
  155.9666  130.4424  150.5380 LP  0  0  0  0  0  0  0  0  0  0  0  0  # atno 17371 bound_to 10713
  139.8703  134.9653  156.4523 LP  0  0  0  0  0  0  0  0  0  0  0  0  # atno 17394 bound_to 11000
  140.8857  133.7885  155.9516 LP  0  0  0  0  0  0  0  0  0  0  0  0  # atno 17395 bound_to 11000

$$$$
