AV-unprocessed.smi:134|AV-procd|sdf|1167|dock5
  -GOLD-   2262018313D 1   1.00000     0.00000
 Structure written by MMmdl.
 51 54  0  0  0  0  0  0  0  0  1 V2000
  155.4890  139.9913  159.5838 O   0  0  0  0  0  0  0  0  0  0  0  0
  155.2835  139.5220  160.7042 C   0  0  0  0  0  0  0  0  0  0  0  0
  153.8939  138.9872  161.0849 C   0  0  0  0  0  0  0  0  0  0  0  0
  152.8209  139.4324  160.1684 N   0  0  0  0  0  0  0  0  0  0  0  0
  152.0810  138.4477  159.4679 C   0  0  0  0  0  0  0  0  0  0  0  0
  152.3342  137.2489  159.5933 O   0  0  0  0  0  0  0  0  0  0  0  0
  151.0128  138.9522  158.6138 C   0  0  0  0  0  0  0  0  0  0  0  0
  150.2482  138.0892  157.9235 F   0  0  0  0  0  0  0  0  0  0  0  0
  150.7759  140.2757  158.5080 C   0  0  0  0  0  0  0  0  0  0  0  0
  151.5175  141.2288  159.1786 N   0  0  0  0  0  0  0  0  0  0  0  0
  151.1387  142.6866  159.0297 C   0  0  2  0  0  0  0  0  0  0  0  0
  152.3334  143.6133  158.7584 C   0  0  0  0  0  0  0  0  0  0  0  0
  151.9086  144.8625  159.4993 C   0  0  0  0  0  0  0  0  0  0  0  0
  151.1696  144.2820  160.7005 C   0  0  0  0  0  0  0  0  0  0  0  0
  150.5109  143.1205  160.2015 O   0  0  0  0  0  0  0  0  0  0  0  0
  152.5480  140.8173  160.0566 C   0  0  0  0  0  0  0  0  0  0  0  0
  153.1880  141.6369  160.7166 O   0  0  0  0  0  0  0  0  0  0  0  0
  156.2137  139.4406  161.6715 N   0  0  0  0  0  0  0  0  0  0  0  0
  157.5618  139.8884  161.6202 C   0  0  0  0  0  0  0  0  0  0  0  0
  157.9882  140.8689  160.6920 C   0  0  0  0  0  0  0  0  0  0  0  0
  159.3355  141.2756  160.6524 C   0  0  0  0  0  0  0  0  0  0  0  0
  160.2720  140.7011  161.5310 C   0  0  0  0  0  0  0  0  0  0  0  0
  159.8620  139.7137  162.4457 C   0  0  0  0  0  0  0  0  0  0  0  0
  158.5145  139.3027  162.4895 C   0  0  0  0  0  0  0  0  0  0  0  0
  158.0440  138.0637  163.6610 S   0  0  0  0  0  0  0  0  0  0  0  0
  156.9508  138.9993  164.6785 C   0  0  0  0  0  0  0  0  0  0  0  0
  155.7329  138.4355  165.1073 C   0  0  0  0  0  0  0  0  0  0  0  0
  154.8667  139.1810  165.9308 C   0  0  0  0  0  0  0  0  0  0  0  0
  155.2174  140.4882  166.3231 C   0  0  0  0  0  0  0  0  0  0  0  0
  154.1576  141.3997  167.3343 Cl  0  0  0  0  0  0  0  0  0  0  0  0
  156.4337  141.0517  165.8895 C   0  0  0  0  0  0  0  0  0  0  0  0
  157.3002  140.3081  165.0653 C   0  0  0  0  0  0  0  0  0  0  0  0
  153.9499  137.8987  161.1323 H   0  0  0  0  0  0  0  0  0  0  0  0
  153.6681  139.2825  162.1111 H   0  0  0  0  0  0  0  0  0  0  0  0
  149.9688  140.5951  157.8648 H   0  0  0  0  0  0  0  0  0  0  0  0
  150.4063  142.7270  158.2225 H   0  0  0  0  0  0  0  0  0  0  0  0
  153.2562  143.2149  159.1772 H   0  0  0  0  0  0  0  0  0  0  0  0
  152.4732  143.7669  157.6882 H   0  0  0  0  0  0  0  0  0  0  0  0
  152.7465  145.5007  159.7807 H   0  0  0  0  0  0  0  0  0  0  0  0
  151.2228  145.4472  158.8848 H   0  0  0  0  0  0  0  0  0  0  0  0
  151.8743  143.9928  161.4804 H   0  0  0  0  0  0  0  0  0  0  0  0
  150.4594  144.9859  161.1346 H   0  0  0  0  0  0  0  0  0  0  0  0
  155.8899  139.1341  162.5776 H   0  0  0  0  0  0  0  0  0  0  0  0
  157.2940  141.3118  159.9936 H   0  0  0  0  0  0  0  0  0  0  0  0
  159.6507  142.0262  159.9428 H   0  0  0  0  0  0  0  0  0  0  0  0
  161.3055  141.0134  161.4998 H   0  0  0  0  0  0  0  0  0  0  0  0
  160.5847  139.2720  163.1159 H   0  0  0  0  0  0  0  0  0  0  0  0
  155.4638  137.4321  164.8115 H   0  0  0  0  0  0  0  0  0  0  0  0
  153.9343  138.7480  166.2621 H   0  0  0  0  0  0  0  0  0  0  0  0
  156.7035  142.0537  166.1885 H   0  0  0  0  0  0  0  0  0  0  0  0
  158.2311  140.7432  164.7342 H   0  0  0  0  0  0  0  0  0  0  0  0
  1  2  2  0  0  0  0
  2  3  1  0  0  0  0
  2 18  1  0  0  0  0
  3  4  1  0  0  0  0
  3 33  1  0  0  0  0
  3 34  1  0  0  0  0
  4 16  1  0  0  0  0
  4  5  1  0  0  0  0
  5  6  2  0  0  0  0
  5  7  1  0  0  0  0
  7  8  1  0  0  0  0
  7  9  2  0  0  0  0
  9 10  1  0  0  0  0
  9 35  1  0  0  0  0
 10 11  1  0  0  0  0
 10 16  1  0  0  0  0
 11 15  1  0  0  0  0
 11 12  1  0  0  0  0
 11 36  1  0  0  0  0
 12 13  1  0  0  0  0
 12 37  1  0  0  0  0
 12 38  1  0  0  0  0
 13 14  1  0  0  0  0
 13 39  1  0  0  0  0
 13 40  1  0  0  0  0
 14 15  1  0  0  0  0
 14 41  1  0  0  0  0
 14 42  1  0  0  0  0
 16 17  2  0  0  0  0
 18 19  1  0  0  0  0
 18 43  1  0  0  0  0
 19 24  1  0  0  0  0
 19 20  2  0  0  0  0
 20 21  1  0  0  0  0
 20 44  1  0  0  0  0
 21 22  2  0  0  0  0
 21 45  1  0  0  0  0
 22 23  1  0  0  0  0
 22 46  1  0  0  0  0
 23 24  2  0  0  0  0
 23 47  1  0  0  0  0
 24 25  1  0  0  0  0
 25 26  1  0  0  0  0
 26 32  1  0  0  0  0
 26 27  2  0  0  0  0
 27 28  1  0  0  0  0
 27 48  1  0  0  0  0
 28 29  2  0  0  0  0
 28 49  1  0  0  0  0
 29 30  1  0  0  0  0
 29 31  1  0  0  0  0
 31 32  2  0  0  0  0
 31 50  1  0  0  0  0
 32 51  1  0  0  0  0
M  END
> <s_m_source_file>
AV-unprocessed.smi

> <i_m_source_file_index>
134

> <i_lp_mmshare_version>
43012

> <i_f3d_flags>
0

> <s_epik_input>
TzFbQ0gyXVtDSDJdW0NIMl1bQ0BIXTFuKGMyPU8pW2NIXWMoRiljKD1PKW4yW0NIMl1DKD1PKVtOSF1jM1tjSF1bY0hdW2NIXVtjSF1jM1NjNFtjSF1bY0hdYyhDbClbY0hdW2NIXTQ=

> <s_epik_cmdline>
J2VwaWtfcHl0aG9uJywgJy1waCcsICc3LjAnLCAnLXRuJywgJzgnLCAnLW1hJywgJzIwMCcsICctbWV0YWxfYmluZGluZycsICctaW1hZScsICc8aW5maWxlLm1hZT4nLCAnLW9tYWUnLCAnPG91dGZpbGUubWFlPic=

> <r_lp_tautomer_probability>
1

> <r_epik_Ionization_Penalty>
2.01717e-06

> <r_epik_Ionization_Penalty_Charging>
3.88729e-08

> <r_epik_Ionization_Penalty_Neutral>
1.9783e-06

> <r_epik_State_Penalty>
-0

> <r_epik_Charging_Adjusted_Penalty>
3.88729e-08

> <i_epik_Tot_Q>
0

> <i_epik_Tot_abs_Q>
0

> <r_epik_Metal_State_Penalty>
-0

> <b_epik_Metal_Only>
0

> <s_epik_Chemistry_Notes>
This compound contains an acetal/aminal-like group ( X-CH(R)-Y where X, Y are N, S, or O) that may be acid/base labile, releasing an aldehyde.

> <s_lp_Force_Field>
OPLS_2005

> <r_lp_Energy>
29.8469

> <b_lp_Chiralities_Consistent>
1

> <s_lp_Variant>
AV-unprocessed.smi:134-1

> <Gold.Version>
5.8.1

> <Gold.Id.Protein>
6NUR|6NUR_protein|mol2

> <Gold.PLP.Fitness>
48.5564

> <Gold.PLP.PLP>
-45.5073

> <Gold.PLP.part.hbond>
-2.4141

> <Gold.PLP.part.metal>
0.0000

> <Gold.PLP.part.buried>
-9.2507

> <Gold.PLP.part.nonpolar>
-34.7234

> <Gold.PLP.part.repulsive>
0.0449

> <Gold.PLP.ligand.clash>
0.0000

> <Gold.PLP.ligand.torsion>
0.8188

> <Gold.PLP.Chemscore.Hbond>
1.5525

> <Gold.PLP.Chemscore.CHOScore>
0.0000

> <Gold.PLP.Chemscore.Metal>
0.0000

> <Gold.Chemscore.Hbonds>
donor molecule, donor type, donor heavy atom, donor atom, acceptor molecule, acceptor atom, score
      P1  H  6896  6907       L1     6  0.52
      P1  H  7997  8010       L1     1  0.54

> <Gold.PLP.Chemscore.Internal.Correction>
0.0292

> <Gold.Rescore>
     Score         DG    S(hbond)    S(metal)    S(lipo)     H(rot)  DE(clash)    DE(int)     intcor
     15.95     -19.55       1.96        0.00     107.12       1.95       0.24       3.36       ----

> <Gold.Chemscore.Fitness>
15.9549

> <Gold.Chemscore.DG>
-19.5471

> <Gold.Chemscore.ZeroCoef>
-5.4800

> <Gold.Chemscore.Hbond>
1.9578

> <Gold.Chemscore.Metal>
0.0000

> <Gold.Chemscore.Lipo>
107.1165

> <Gold.Chemscore.Internal_Hbond>
0.0000

> <Gold.Chemscore.DEClash>
0.2359

> <Gold.Chemscore.DEInternal>
3.3563

> <Gold.Chemscore.Rot>
1.9549

> <Gold.Chemscore.Internal.Correction>
   9.000000E+99

> <Gold.Chemscore.Hbonds>
donor molecule, donor type, donor heavy atom, donor atom, acceptor molecule, acceptor atom, score
      P1  H  6896  6907       L1     6  0.52
      P1  H  7997  8010       L1     1  0.52

> <Gold.Chemscore.Hbond.Weighted>
-6.5391

> <Gold.Chemscore.Metal.Weighted>
-0.0000

> <Gold.Chemscore.Lipo.Weighted>
-12.5326

> <Gold.Chemscore.Internal_Hbond.Weighted>
0.0000

> <Gold.Chemscore.DEClash.Weighted>
0.2359

> <Gold.Chemscore.DEInternal.Weighted>
3.3563

> <Gold.Chemscore.Rot.Weighted>
5.0046

> <Gold.Chemscore.Internal.Correction.Weighted>
   9.000000E+99

> <Gold.Protein.RotatedTorsions>
[ 6907 6896 6895 6894 ] final   18.59 input  -60.11 | X-H torsion
[ 7974 7965 7964 7962 ] final   67.44 input  175.53 | X-H torsion
[ 8008 7997 7996 7995 ] final  -17.21 input   59.86 | X-H torsion
[ 10167 10162 10161 10158 ] final  -36.31 input  -65.29 | X-H torsion
[ 10718 10713 10712 10709 ] final   47.72 input   66.30 | X-H torsion
[ 10763 10752 10751 10750 ] final  -31.48 input  -60.55 | X-H torsion
[ 11005 11000 10999 10996 ] final -135.59 input  -57.11 | X-H torsion

> <Gold.Protein.ActiveResidues>
 VAL166  LYS551  ARG553  GLY616  TRP617  ASP618  TYR619  PRO620  LYS621  CYS622 
 ASP623  PHE694  ASN695  SER759  ASP760  ASP761  ALA762  ILE779  LEU786  VAL792 
 PHE793  MET794  SER795  GLU796  ALA797  LYS798  CYS799  TRP800  GLU811  SER814 

> <Gold.Protein.RotatedAtoms>
  151.8677  135.0501  160.0475 H   0  0  0  0  0  0  0  0  0  0  0  0  # atno 6907 bound_to 6896
  152.2613  133.5295  159.5392 H   0  0  0  0  0  0  0  0  0  0  0  0  # atno 6908 bound_to 6896
  150.7117  134.0742  159.3917 H   0  0  0  0  0  0  0  0  0  0  0  0  # atno 6909 bound_to 6896
  145.8147  139.3051  143.1079 H   0  0  0  0  0  0  0  0  0  0  0  0  # atno 7974 bound_to 7965
  154.4995  140.2149  155.9376 H   0  0  0  0  0  0  0  0  0  0  0  0  # atno 8008 bound_to 7997
  156.1415  140.3178  155.8471 H   0  0  0  0  0  0  0  0  0  0  0  0  # atno 8009 bound_to 7997
  155.4110  140.0490  157.3022 H   0  0  0  0  0  0  0  0  0  0  0  0  # atno 8010 bound_to 7997
  140.7145  143.3417  151.2342 H   0  0  0  0  0  0  0  0  0  0  0  0  # atno 10167 bound_to 10162
  157.4614  130.8199  149.7890 H   0  0  0  0  0  0  0  0  0  0  0  0  # atno 10718 bound_to 10713
  153.7980  135.6892  153.4860 H   0  0  0  0  0  0  0  0  0  0  0  0  # atno 10763 bound_to 10752
  153.1707  135.4544  154.9897 H   0  0  0  0  0  0  0  0  0  0  0  0  # atno 10764 bound_to 10752
  154.8018  135.3341  154.7470 H   0  0  0  0  0  0  0  0  0  0  0  0  # atno 10765 bound_to 10752
  140.8884  134.1843  157.4544 H   0  0  0  0  0  0  0  0  0  0  0  0  # atno 11005 bound_to 11000
  145.9740  140.8737  143.0148 LP  0  0  0  0  0  0  0  0  0  0  0  0  # atno 17320 bound_to 7965
  144.6754  140.1986  143.7389 LP  0  0  0  0  0  0  0  0  0  0  0  0  # atno 17321 bound_to 7965
  139.6927  143.9665  152.2867 LP  0  0  0  0  0  0  0  0  0  0  0  0  # atno 17342 bound_to 10162
  139.9332  144.6728  150.8341 LP  0  0  0  0  0  0  0  0  0  0  0  0  # atno 17343 bound_to 10162
  156.0030  130.3870  150.2533 LP  0  0  0  0  0  0  0  0  0  0  0  0  # atno 17370 bound_to 10713
  157.0711  131.0117  151.3190 LP  0  0  0  0  0  0  0  0  0  0  0  0  # atno 17371 bound_to 10713
  139.8727  134.9848  156.5254 LP  0  0  0  0  0  0  0  0  0  0  0  0  # atno 17394 bound_to 11000
  140.8376  133.8230  155.9044 LP  0  0  0  0  0  0  0  0  0  0  0  0  # atno 17395 bound_to 11000

$$$$
