AV-unprocessed.smi:229|AV-procd|sdf|1749|dock4
  -GOLD-   2262020263D 1   1.00000     0.00000
 Structure written by MMmdl.
 58 62  0  0  0  0  0  0  0  0  1 V2000
  145.5802  132.8652  157.4440 C   0  0  0  0  0  0  0  0  0  0  0  0
  146.8329  133.7042  157.1581 C   0  0  0  0  0  0  0  0  0  0  0  0
  147.0680  134.8332  158.1752 C   0  0  2  0  0  0  0  0  0  0  0  0
  148.4584  135.4804  158.0423 C   0  0  0  0  0  0  0  0  0  0  0  0
  148.6583  136.4558  159.1070 N   0  0  0  0  0  0  0  0  0  0  0  0
  149.6909  137.3146  158.9100 C   0  0  0  0  0  0  0  0  0  0  0  0
  150.8843  137.0976  159.5258 N   0  0  0  0  0  0  0  0  0  0  0  0
  151.9108  137.9294  159.3236 C   0  0  0  0  0  0  0  0  0  0  0  0
  151.9615  139.0227  158.5604 N   0  0  0  0  0  0  0  0  0  0  0  0
  150.7646  139.2526  157.9491 C   0  0  0  0  0  0  0  0  0  0  0  0
  149.5887  138.4589  158.0688 C   0  0  0  0  0  0  0  0  0  0  0  0
  148.5649  139.0149  157.3097 N   0  0  0  0  0  0  0  0  0  0  0  0
  149.1088  140.0671  156.7617 C   0  0  0  0  0  0  0  0  0  0  0  0
  150.4276  140.2826  157.0900 N   0  0  0  0  0  0  0  0  0  0  0  0
  151.2760  141.3646  156.6227 C   0  0  0  0  0  0  0  0  0  0  0  0
  151.0155  142.6819  157.3798 C   0  0  1  0  0  0  0  0  0  0  0  0
  149.6352  142.9892  157.3197 O   0  0  0  0  0  0  0  0  0  0  0  0
  151.4394  142.5996  158.8574 C   0  0  2  0  0  0  0  0  0  0  0  0
  151.6040  143.9535  159.5458 C   0  0  0  0  0  0  0  0  0  0  0  0
  152.4866  143.6148  160.7313 C   0  0  0  0  0  0  0  0  0  0  0  0
  153.2642  142.3819  160.2613 C   0  0  0  0  0  0  0  0  0  0  0  0
  152.7457  142.0559  158.9760 O   0  0  0  0  0  0  0  0  0  0  0  0
  148.4824  135.8832  160.4379 C   0  0  0  0  0  0  0  0  0  0  0  0
  147.1061  135.1888  160.5598 C   0  0  1  0  0  0  0  0  0  0  0  0
  147.0029  134.4024  161.8625 C   0  0  0  0  0  0  0  0  0  0  0  0
  146.3132  135.3767  162.8049 C   0  0  0  0  0  0  0  0  0  0  0  0
  145.3435  135.9743  161.9649 O   0  0  0  0  0  0  0  0  0  0  0  0
  145.9306  136.1866  160.6860 C   0  0  0  0  0  0  0  0  0  0  0  0
  146.9401  134.2650  159.4799 O   0  0  0  0  0  0  0  0  0  0  0  0
  145.4962  132.0436  156.7326 H   0  0  0  0  0  0  0  0  0  0  0  0
  144.6707  133.4605  157.3647 H   0  0  0  0  0  0  0  0  0  0  0  0
  145.6149  132.4349  158.4452 H   0  0  0  0  0  0  0  0  0  0  0  0
  147.6985  133.0409  157.1639 H   0  0  0  0  0  0  0  0  0  0  0  0
  146.7757  134.1185  156.1508 H   0  0  0  0  0  0  0  0  0  0  0  0
  146.3003  135.5936  158.0295 H   0  0  0  0  0  0  0  0  0  0  0  0
  149.2365  134.7189  158.1107 H   0  0  0  0  0  0  0  0  0  0  0  0
  148.5568  135.9437  157.0621 H   0  0  0  0  0  0  0  0  0  0  0  0
  152.8226  137.6817  159.8467 H   0  0  0  0  0  0  0  0  0  0  0  0
  148.5610  140.7167  156.0947 H   0  0  0  0  0  0  0  0  0  0  0  0
  152.3185  141.0612  156.7293 H   0  0  0  0  0  0  0  0  0  0  0  0
  151.0981  141.4984  155.5550 H   0  0  0  0  0  0  0  0  0  0  0  0
  151.5608  143.4910  156.8915 H   0  0  0  0  0  0  0  0  0  0  0  0
  149.5343  143.8302  156.9005 H   0  0  0  0  0  0  0  0  0  0  0  0
  150.7451  141.9756  159.4237 H   0  0  0  0  0  0  0  0  0  0  0  0
  152.1227  144.6518  158.8872 H   0  0  0  0  0  0  0  0  0  0  0  0
  150.6546  144.4023  159.8389 H   0  0  0  0  0  0  0  0  0  0  0  0
  153.1391  144.4432  161.0082 H   0  0  0  0  0  0  0  0  0  0  0  0
  151.8754  143.3623  161.5987 H   0  0  0  0  0  0  0  0  0  0  0  0
  154.3353  142.5745  160.1915 H   0  0  0  0  0  0  0  0  0  0  0  0
  153.1140  141.5453  160.9447 H   0  0  0  0  0  0  0  0  0  0  0  0
  149.2794  135.1583  160.6104 H   0  0  0  0  0  0  0  0  0  0  0  0
  148.5813  136.6567  161.2009 H   0  0  0  0  0  0  0  0  0  0  0  0
  146.3625  133.5297  161.7254 H   0  0  0  0  0  0  0  0  0  0  0  0
  147.9631  134.0503  162.2413 H   0  0  0  0  0  0  0  0  0  0  0  0
  145.8550  134.8840  163.6627 H   0  0  0  0  0  0  0  0  0  0  0  0
  147.0086  136.1350  163.1683 H   0  0  0  0  0  0  0  0  0  0  0  0
  146.2732  137.2195  160.6132 H   0  0  0  0  0  0  0  0  0  0  0  0
  145.1646  136.0389  159.9252 H   0  0  0  0  0  0  0  0  0  0  0  0
  1  2  1  0  0  0  0
  1 30  1  0  0  0  0
  1 31  1  0  0  0  0
  1 32  1  0  0  0  0
  2  3  1  0  0  0  0
  2 33  1  0  0  0  0
  2 34  1  0  0  0  0
  3 29  1  0  0  0  0
  3  4  1  0  0  0  0
  3 35  1  0  0  0  0
  4  5  1  0  0  0  0
  4 36  1  0  0  0  0
  4 37  1  0  0  0  0
  5  6  1  0  0  0  0
  5 23  1  0  0  0  0
  6 11  1  0  0  0  0
  6  7  2  0  0  0  0
  7  8  1  0  0  0  0
  8  9  2  0  0  0  0
  8 38  1  0  0  0  0
  9 10  1  0  0  0  0
 10 14  1  0  0  0  0
 10 11  2  0  0  0  0
 11 12  1  0  0  0  0
 12 13  2  0  0  0  0
 13 14  1  0  0  0  0
 13 39  1  0  0  0  0
 14 15  1  0  0  0  0
 15 16  1  0  0  0  0
 15 40  1  0  0  0  0
 15 41  1  0  0  0  0
 16 17  1  0  0  0  0
 16 18  1  0  0  0  0
 16 42  1  0  0  0  0
 17 43  1  0  0  0  0
 18 22  1  0  0  0  0
 18 19  1  0  0  0  0
 18 44  1  0  0  0  0
 19 20  1  0  0  0  0
 19 45  1  0  0  0  0
 19 46  1  0  0  0  0
 20 21  1  0  0  0  0
 20 47  1  0  0  0  0
 20 48  1  0  0  0  0
 21 22  1  0  0  0  0
 21 49  1  0  0  0  0
 21 50  1  0  0  0  0
 23 24  1  0  0  0  0
 23 51  1  0  0  0  0
 23 52  1  0  0  0  0
 24 28  1  0  0  0  0
 24 25  1  0  0  0  0
 24 29  1  0  0  0  0
 25 26  1  0  0  0  0
 25 53  1  0  0  0  0
 25 54  1  0  0  0  0
 26 27  1  0  0  0  0
 26 55  1  0  0  0  0
 26 56  1  0  0  0  0
 27 28  1  0  0  0  0
 28 57  1  0  0  0  0
 28 58  1  0  0  0  0
M  END
> <s_m_source_file>
AV-unprocessed.smi

> <i_m_source_file_index>
229

> <i_lp_mmshare_version>
43012

> <i_f3d_flags>
0

> <s_epik_input>
W0NIMl0xT1tDSDJdW0NIMl1bQ0BdMTJbQ0gyXU4oW0NIMl1bQ0BIXShPMilbQ0gyXVtDSDNdKWMobltjSF1uMyljKGMzNCluW2NIXW40W0NIMl1bQ0BIXShbT0hdKVtDQEBIXTVbQ0gyXVtDSDJdW0NIMl1PNQ==

> <s_epik_cmdline>
J2VwaWtfcHl0aG9uJywgJy1waCcsICc3LjAnLCAnLXRuJywgJzgnLCAnLW1hJywgJzIwMCcsICctbWV0YWxfYmluZGluZycsICctaW1hZScsICc8aW5maWxlLm1hZT4nLCAnLW9tYWUnLCAnPG91dGZpbGUubWFlPic=

> <r_lp_tautomer_probability>
1

> <r_epik_Ionization_Penalty>
0.00318402

> <r_epik_Ionization_Penalty_Charging>
0

> <r_epik_Ionization_Penalty_Neutral>
0.00318402

> <r_epik_State_Penalty>
0.00215642

> <r_epik_Charging_Adjusted_Penalty>
0.00215642

> <i_epik_Tot_Q>
0

> <i_epik_Tot_abs_Q>
0

> <r_epik_Metal_State_Penalty>
-0

> <b_epik_Metal_Only>
0

> <s_lp_Force_Field>
OPLS_2005

> <r_lp_Energy>
54.6587

> <b_lp_Chiralities_Consistent>
1

> <s_lp_Variant>
AV-unprocessed.smi:229-3

> <Gold.Version>
5.8.1

> <Gold.Id.Protein>
6NUR|6NUR_protein|mol2

> <Gold.PLP.Fitness>
44.7547

> <Gold.PLP.PLP>
-40.7115

> <Gold.PLP.part.hbond>
-2.0000

> <Gold.PLP.part.metal>
0.0000

> <Gold.PLP.part.buried>
-8.0267

> <Gold.PLP.part.nonpolar>
-30.8934

> <Gold.PLP.part.repulsive>
0.0000

> <Gold.PLP.ligand.clash>
0.0000

> <Gold.PLP.ligand.torsion>
1.1627

> <Gold.PLP.Chemscore.Hbond>
2.0000

> <Gold.PLP.Chemscore.CHOScore>
0.0000

> <Gold.PLP.Chemscore.Metal>
0.0000

> <Gold.Chemscore.Hbonds>
donor molecule, donor type, donor heavy atom, donor atom, acceptor molecule, acceptor atom, score
      L1  H    17    43       P1  8028  0.99
      P1  H  6896  6907       L1     7  0.99

> <Gold.PLP.Chemscore.Internal.Correction>
0.3686

> <Gold.Rescore>
     Score         DG    S(hbond)    S(metal)    S(lipo)     H(rot)  DE(clash)    DE(int)     intcor
     15.13     -16.98       1.81        0.00     100.46       2.46       0.04       1.82       ----

> <Gold.Chemscore.Fitness>
15.1294

> <Gold.Chemscore.DG>
-16.9841

> <Gold.Chemscore.ZeroCoef>
-5.4800

> <Gold.Chemscore.Hbond>
1.8100

> <Gold.Chemscore.Metal>
0.0000

> <Gold.Chemscore.Lipo>
100.4620

> <Gold.Chemscore.Internal_Hbond>
0.0000

> <Gold.Chemscore.DEClash>
0.0376

> <Gold.Chemscore.DEInternal>
1.8171

> <Gold.Chemscore.Rot>
2.4591

> <Gold.Chemscore.Internal.Correction>
   9.000000E+99

> <Gold.Chemscore.Hbonds>
donor molecule, donor type, donor heavy atom, donor atom, acceptor molecule, acceptor atom, score
      L1  H    17    43       P1  8028  0.83
      P1  H  6896  6907       L1     7  0.80

> <Gold.Chemscore.Hbond.Weighted>
-6.0454

> <Gold.Chemscore.Metal.Weighted>
-0.0000

> <Gold.Chemscore.Lipo.Weighted>
-11.7541

> <Gold.Chemscore.Internal_Hbond.Weighted>
0.0000

> <Gold.Chemscore.DEClash.Weighted>
0.0376

> <Gold.Chemscore.DEInternal.Weighted>
1.8171

> <Gold.Chemscore.Rot.Weighted>
6.2953

> <Gold.Chemscore.Internal.Correction.Weighted>
   9.000000E+99

> <Gold.Protein.RotatedTorsions>
[ 6907 6896 6895 6894 ] final  -16.01 input  -60.11 | X-H torsion
[ 7974 7965 7964 7962 ] final   47.67 input  175.53 | X-H torsion
[ 8008 7997 7996 7995 ] final   74.15 input   59.86 | X-H torsion
[ 10167 10162 10161 10158 ] final   10.16 input  -65.29 | X-H torsion
[ 10718 10713 10712 10709 ] final  121.38 input   66.30 | X-H torsion
[ 10763 10752 10751 10750 ] final -109.49 input  -60.55 | X-H torsion
[ 11005 11000 10999 10996 ] final -149.72 input  -57.11 | X-H torsion

> <Gold.Protein.ActiveResidues>
 VAL166  LYS551  ARG553  GLY616  TRP617  ASP618  TYR619  PRO620  LYS621  CYS622 
 ASP623  PHE694  ASN695  SER759  ASP760  ASP761  ALA762  ILE779  LEU786  VAL792 
 PHE793  MET794  SER795  GLU796  ALA797  LYS798  CYS799  TRP800  GLU811  SER814 

> <Gold.Protein.RotatedAtoms>
  151.3152  135.0804  159.9286 H   0  0  0  0  0  0  0  0  0  0  0  0  # atno 6907 bound_to 6896
  152.5269  133.9695  159.7765 H   0  0  0  0  0  0  0  0  0  0  0  0  # atno 6908 bound_to 6896
  151.0006  133.6008  159.2726 H   0  0  0  0  0  0  0  0  0  0  0  0  # atno 6909 bound_to 6896
  146.0276  139.4725  142.9858 H   0  0  0  0  0  0  0  0  0  0  0  0  # atno 7974 bound_to 7965
  155.7941  140.3478  155.5366 H   0  0  0  0  0  0  0  0  0  0  0  0  # atno 8008 bound_to 7997
  155.8604  140.0970  157.1637 H   0  0  0  0  0  0  0  0  0  0  0  0  # atno 8009 bound_to 7997
  154.4011  140.1359  156.3941 H   0  0  0  0  0  0  0  0  0  0  0  0  # atno 8010 bound_to 7997
  140.6211  143.8203  150.7176 H   0  0  0  0  0  0  0  0  0  0  0  0  # atno 10167 bound_to 10162
  157.5822  131.1073  150.8165 H   0  0  0  0  0  0  0  0  0  0  0  0  # atno 10718 bound_to 10713
  154.8196  135.4599  154.0740 H   0  0  0  0  0  0  0  0  0  0  0  0  # atno 10763 bound_to 10752
  153.2105  135.6881  153.8127 H   0  0  0  0  0  0  0  0  0  0  0  0  # atno 10764 bound_to 10752
  153.7580  135.3288  155.3309 H   0  0  0  0  0  0  0  0  0  0  0  0  # atno 10765 bound_to 10752
  140.7478  134.3441  157.5133 H   0  0  0  0  0  0  0  0  0  0  0  0  # atno 11005 bound_to 11000
  145.7092  141.0111  143.1462 LP  0  0  0  0  0  0  0  0  0  0  0  0  # atno 17320 bound_to 7965
  144.7016  139.8737  143.7442 LP  0  0  0  0  0  0  0  0  0  0  0  0  # atno 17321 bound_to 7965
  140.1793  143.4128  152.1944 LP  0  0  0  0  0  0  0  0  0  0  0  0  # atno 17342 bound_to 10162
  139.5439  144.7281  151.4645 LP  0  0  0  0  0  0  0  0  0  0  0  0  # atno 17343 bound_to 10162
  156.8609  130.5113  149.5304 LP  0  0  0  0  0  0  0  0  0  0  0  0  # atno 17370 bound_to 10713
  156.0868  130.5864  150.9663 LP  0  0  0  0  0  0  0  0  0  0  0  0  # atno 17371 bound_to 10713
  139.8793  134.9122  156.3055 LP  0  0  0  0  0  0  0  0  0  0  0  0  # atno 17394 bound_to 11000
  140.9778  133.7286  156.0628 LP  0  0  0  0  0  0  0  0  0  0  0  0  # atno 17395 bound_to 11000

$$$$
