AV-unprocessed.smi:1890|AV-procd|sdf|7664|dock2
  -GOLD-   22720 9403D 1   1.00000     0.00000
 Structure written by MMmdl.
 51 52  0  0  0  0  0  0  0  0  1 V2000
  151.6060  145.3107  160.1854 C   0  0  0  0  0  0  0  0  0  0  0  0
  151.7256  143.9041  160.7928 C   0  0  0  0  0  0  0  0  0  0  0  0
  152.6126  143.0230  160.0319 N   0  0  0  0  0  0  0  0  0  0  0  0
  152.6335  143.1935  158.5782 C   0  0  0  0  0  0  0  0  0  0  0  0
  151.2285  143.1574  157.9589 C   0  0  0  0  0  0  0  0  0  0  0  0
  152.8747  141.7141  160.5022 C   0  0  0  0  0  0  0  0  0  0  0  0
  152.7731  140.5744  159.6662 C   0  0  0  0  0  0  0  0  0  0  0  0
  153.0606  139.3037  160.1991 C   0  0  0  0  0  0  0  0  0  0  0  0
  153.4353  139.1897  161.5512 C   0  0  0  0  0  0  0  0  0  0  0  0
  153.7450  137.8957  162.0511 N   0  0  0  0  0  0  0  0  0  0  0  0
  153.4606  136.6971  161.5135 C   0  0  0  0  0  0  0  0  0  0  0  0
  152.9243  136.5146  160.4208 O   0  0  0  0  0  0  0  0  0  0  0  0
  153.8593  135.7008  162.3169 N   0  0  0  0  0  0  0  0  0  0  0  0
  153.7042  134.2769  162.0352 C   0  0  0  0  0  0  0  0  0  0  0  0
  152.8664  133.6164  163.1513 C   0  0  0  0  0  0  0  0  0  0  0  0
  152.8411  132.0845  163.0012 C   0  0  0  0  0  0  0  0  0  0  0  0
  154.2223  131.5902  162.9829 N   0  0  0  0  0  0  0  0  0  0  0  0
  154.7672  130.9013  164.0144 C   0  0  0  0  0  0  0  0  0  0  0  0
  153.8918  130.5341  165.2146 C   0  0  0  0  0  0  0  0  0  0  0  0
  155.9464  130.5477  164.0293 O   0  0  0  0  0  0  0  0  0  0  0  0
  154.9500  132.0673  161.8005 C   0  0  0  0  0  0  0  0  0  0  0  0
  155.0857  133.5980  161.8868 C   0  0  0  0  0  0  0  0  0  0  0  0
  153.5195  140.3817  162.3082 C   0  0  0  0  0  0  0  0  0  0  0  0
  153.2470  141.6017  161.7999 N   0  0  0  0  0  0  0  0  0  0  0  0
  150.9028  145.9155  160.7579 H   0  0  0  0  0  0  0  0  0  0  0  0
  151.2398  145.2620  159.1596 H   0  0  0  0  0  0  0  0  0  0  0  0
  152.5577  145.8409  160.1739 H   0  0  0  0  0  0  0  0  0  0  0  0
  152.0540  143.9598  161.8306 H   0  0  0  0  0  0  0  0  0  0  0  0
  150.7305  143.4592  160.8242 H   0  0  0  0  0  0  0  0  0  0  0  0
  153.1026  144.1508  158.3487 H   0  0  0  0  0  0  0  0  0  0  0  0
  153.2678  142.4426  158.1068 H   0  0  0  0  0  0  0  0  0  0  0  0
  151.2802  143.2988  156.8794 H   0  0  0  0  0  0  0  0  0  0  0  0
  150.5936  143.9447  158.3657 H   0  0  0  0  0  0  0  0  0  0  0  0
  150.7379  142.2010  158.1428 H   0  0  0  0  0  0  0  0  0  0  0  0
  152.4926  140.6489  158.6270 H   0  0  0  0  0  0  0  0  0  0  0  0
  152.9941  138.4271  159.5714 H   0  0  0  0  0  0  0  0  0  0  0  0
  154.2697  137.8811  162.9133 H   0  0  0  0  0  0  0  0  0  0  0  0
  154.2990  135.9444  163.1924 H   0  0  0  0  0  0  0  0  0  0  0  0
  153.1575  134.1529  161.0983 H   0  0  0  0  0  0  0  0  0  0  0  0
  153.2831  133.8700  164.1274 H   0  0  0  0  0  0  0  0  0  0  0  0
  151.8490  134.0087  163.1386 H   0  0  0  0  0  0  0  0  0  0  0  0
  152.2444  131.6429  163.8001 H   0  0  0  0  0  0  0  0  0  0  0  0
  152.3436  131.8059  162.0711 H   0  0  0  0  0  0  0  0  0  0  0  0
  153.0363  129.9356  164.9012 H   0  0  0  0  0  0  0  0  0  0  0  0
  153.5332  131.4312  165.7197 H   0  0  0  0  0  0  0  0  0  0  0  0
  154.4595  129.9485  165.9387 H   0  0  0  0  0  0  0  0  0  0  0  0
  155.9319  131.6127  161.6788 H   0  0  0  0  0  0  0  0  0  0  0  0
  154.3924  131.7951  160.9029 H   0  0  0  0  0  0  0  0  0  0  0  0
  155.5968  133.9748  161.0002 H   0  0  0  0  0  0  0  0  0  0  0  0
  155.7175  133.8526  162.7391 H   0  0  0  0  0  0  0  0  0  0  0  0
  153.8336  140.3863  163.3399 H   0  0  0  0  0  0  0  0  0  0  0  0
  1  2  1  0  0  0  0
  1 25  1  0  0  0  0
  1 26  1  0  0  0  0
  1 27  1  0  0  0  0
  2  3  1  0  0  0  0
  2 28  1  0  0  0  0
  2 29  1  0  0  0  0
  3  4  1  0  0  0  0
  3  6  1  0  0  0  0
  4  5  1  0  0  0  0
  4 30  1  0  0  0  0
  4 31  1  0  0  0  0
  5 32  1  0  0  0  0
  5 33  1  0  0  0  0
  5 34  1  0  0  0  0
  6 24  1  0  0  0  0
  6  7  2  0  0  0  0
  7  8  1  0  0  0  0
  7 35  1  0  0  0  0
  8  9  2  0  0  0  0
  8 36  1  0  0  0  0
  9 10  1  0  0  0  0
  9 23  1  0  0  0  0
 10 11  1  0  0  0  0
 10 37  1  0  0  0  0
 11 12  2  0  0  0  0
 11 13  1  0  0  0  0
 13 14  1  0  0  0  0
 13 38  1  0  0  0  0
 14 22  1  0  0  0  0
 14 15  1  0  0  0  0
 14 39  1  0  0  0  0
 15 16  1  0  0  0  0
 15 40  1  0  0  0  0
 15 41  1  0  0  0  0
 16 17  1  0  0  0  0
 16 42  1  0  0  0  0
 16 43  1  0  0  0  0
 17 18  1  0  0  0  0
 17 21  1  0  0  0  0
 18 19  1  0  0  0  0
 18 20  2  0  0  0  0
 19 44  1  0  0  0  0
 19 45  1  0  0  0  0
 19 46  1  0  0  0  0
 21 22  1  0  0  0  0
 21 47  1  0  0  0  0
 21 48  1  0  0  0  0
 22 49  1  0  0  0  0
 22 50  1  0  0  0  0
 23 24  2  0  0  0  0
 23 51  1  0  0  0  0
M  END
> <s_m_source_file>
AV-unprocessed.smi

> <i_m_source_file_index>
1890

> <i_lp_mmshare_version>
43012

> <i_f3d_flags>
0

> <s_epik_input>
W0NIM11bQ0gyXU4oW0NIMl1bQ0gzXSljMVtjSF1bY0hdYyhbY0hdbjEpW05IXUMoPU8pW05IXVtDSF0yW0NIMl1bQ0gyXU4oQyg9TylbQ0gzXSlbQ0gyXVtDSDJdMg==

> <s_epik_cmdline>
J2VwaWtfcHl0aG9uJywgJy1waCcsICc3LjAnLCAnLXRuJywgJzgnLCAnLW1hJywgJzIwMCcsICctbWV0YWxfYmluZGluZycsICctaW1hZScsICc8aW5maWxlLm1hZT4nLCAnLW9tYWUnLCAnPG91dGZpbGUubWFlPic=

> <r_lp_tautomer_probability>
1

> <r_epik_Ionization_Penalty>
0.700493

> <r_epik_Ionization_Penalty_Charging>
0

> <r_epik_Ionization_Penalty_Neutral>
0.700493

> <r_epik_State_Penalty>
2.19132

> <r_epik_Charging_Adjusted_Penalty>
2.19132

> <i_epik_Tot_Q>
0

> <i_epik_Tot_abs_Q>
0

> <r_epik_Metal_State_Penalty>
1.54624

> <b_epik_Metal_Only>
0

> <s_lp_Force_Field>
OPLS_2005

> <r_lp_Energy>
30.5228

> <b_lp_Chiralities_Consistent>
1

> <s_lp_Variant>
AV-unprocessed.smi:1890-2

> <Gold.Version>
5.8.1

> <Gold.Id.Protein>
6NUR|6NUR_protein|mol2

> <Gold.PLP.Fitness>
40.3307

> <Gold.PLP.PLP>
-38.2546

> <Gold.PLP.part.hbond>
-1.7088

> <Gold.PLP.part.metal>
0.0000

> <Gold.PLP.part.buried>
-4.8624

> <Gold.PLP.part.nonpolar>
-31.8399

> <Gold.PLP.part.repulsive>
0.0389

> <Gold.PLP.ligand.clash>
0.0000

> <Gold.PLP.ligand.torsion>
0.9429

> <Gold.PLP.Chemscore.Hbond>
0.9913

> <Gold.PLP.Chemscore.CHOScore>
0.0000

> <Gold.PLP.Chemscore.Metal>
0.0000

> <Gold.Chemscore.Hbonds>
donor molecule, donor type, donor heavy atom, donor atom, acceptor molecule, acceptor atom, score
      P1  H  6896  6907       L1    12  1.00

> <Gold.PLP.Chemscore.Internal.Correction>
0.9882

> <Gold.Rescore>
     Score         DG    S(hbond)    S(metal)    S(lipo)     H(rot)  DE(clash)    DE(int)     intcor
     14.46     -17.09       0.98        0.00     100.31       1.33       0.05       2.58       ----

> <Gold.Chemscore.Fitness>
14.4592

> <Gold.Chemscore.DG>
-17.0912

> <Gold.Chemscore.ZeroCoef>
-5.4800

> <Gold.Chemscore.Hbond>
0.9817

> <Gold.Chemscore.Metal>
0.0000

> <Gold.Chemscore.Lipo>
100.3059

> <Gold.Chemscore.Internal_Hbond>
0.0000

> <Gold.Chemscore.DEClash>
0.0505

> <Gold.Chemscore.DEInternal>
2.5815

> <Gold.Chemscore.Rot>
1.3294

> <Gold.Chemscore.Internal.Correction>
   9.000000E+99

> <Gold.Chemscore.Hbonds>
donor molecule, donor type, donor heavy atom, donor atom, acceptor molecule, acceptor atom, score
      P1  H  6896  6907       L1    12  0.98

> <Gold.Chemscore.Hbond.Weighted>
-3.2788

> <Gold.Chemscore.Metal.Weighted>
-0.0000

> <Gold.Chemscore.Lipo.Weighted>
-11.7358

> <Gold.Chemscore.Internal_Hbond.Weighted>
0.0000

> <Gold.Chemscore.DEClash.Weighted>
0.0505

> <Gold.Chemscore.DEInternal.Weighted>
2.5815

> <Gold.Chemscore.Rot.Weighted>
3.4034

> <Gold.Chemscore.Internal.Correction.Weighted>
   9.000000E+99

> <Gold.Protein.RotatedTorsions>
[ 6907 6896 6895 6894 ] final   33.42 input  -60.11 | X-H torsion
[ 7974 7965 7964 7962 ] final  -33.24 input  175.53 | X-H torsion
[ 8008 7997 7996 7995 ] final   97.34 input   59.86 | X-H torsion
[ 10167 10162 10161 10158 ] final   29.53 input  -65.29 | X-H torsion
[ 10718 10713 10712 10709 ] final -155.72 input   66.30 | X-H torsion
[ 10763 10752 10751 10750 ] final -148.52 input  -60.55 | X-H torsion
[ 11005 11000 10999 10996 ] final  -89.90 input  -57.11 | X-H torsion

> <Gold.Protein.ActiveResidues>
 VAL166  LYS551  ARG553  GLY616  TRP617  ASP618  TYR619  PRO620  LYS621  CYS622 
 ASP623  PHE694  ASN695  SER759  ASP760  ASP761  ALA762  ILE779  LEU786  VAL792 
 PHE793  MET794  SER795  GLU796  ALA797  LYS798  CYS799  TRP800  GLU811  SER814 

> <Gold.Protein.RotatedAtoms>
  152.0882  134.9425  160.0572 H   0  0  0  0  0  0  0  0  0  0  0  0  # atno 6907 bound_to 6896
  152.0687  133.4091  159.4458 H   0  0  0  0  0  0  0  0  0  0  0  0  # atno 6908 bound_to 6896
  150.6836  134.3037  159.4760 H   0  0  0  0  0  0  0  0  0  0  0  0  # atno 6909 bound_to 6896
  146.0926  140.5892  142.8857 H   0  0  0  0  0  0  0  0  0  0  0  0  # atno 7974 bound_to 7965
  156.0891  140.3260  155.7792 H   0  0  0  0  0  0  0  0  0  0  0  0  # atno 8008 bound_to 7997
  155.5027  140.0570  157.2954 H   0  0  0  0  0  0  0  0  0  0  0  0  # atno 8009 bound_to 7997
  154.4627  140.1974  156.0218 H   0  0  0  0  0  0  0  0  0  0  0  0  # atno 8010 bound_to 7997
  140.4758  144.0693  150.6250 H   0  0  0  0  0  0  0  0  0  0  0  0  # atno 10167 bound_to 10162
  156.5167  130.8459  151.2667 H   0  0  0  0  0  0  0  0  0  0  0  0  # atno 10718 bound_to 10713
  154.8228  135.3332  154.6987 H   0  0  0  0  0  0  0  0  0  0  0  0  # atno 10763 bound_to 10752
  153.7617  135.6932  153.4928 H   0  0  0  0  0  0  0  0  0  0  0  0  # atno 10764 bound_to 10752
  153.2105  135.4484  155.0324 H   0  0  0  0  0  0  0  0  0  0  0  0  # atno 10765 bound_to 10752
  141.1576  133.7658  156.9661 H   0  0  0  0  0  0  0  0  0  0  0  0  # atno 11005 bound_to 11000
  144.7371  140.4840  143.6895 LP  0  0  0  0  0  0  0  0  0  0  0  0  # atno 17320 bound_to 7965
  145.6009  139.1504  143.3129 LP  0  0  0  0  0  0  0  0  0  0  0  0  # atno 17321 bound_to 7965
  140.3920  143.2747  152.0049 LP  0  0  0  0  0  0  0  0  0  0  0  0  # atno 17342 bound_to 10162
  139.4825  144.6069  151.7505 LP  0  0  0  0  0  0  0  0  0  0  0  0  # atno 17343 bound_to 10162
  157.7443  130.9931  150.2660 LP  0  0  0  0  0  0  0  0  0  0  0  0  # atno 17370 bound_to 10713
  156.3188  130.3783  149.7594 LP  0  0  0  0  0  0  0  0  0  0  0  0  # atno 17371 bound_to 10713
  140.1161  134.9446  157.2136 LP  0  0  0  0  0  0  0  0  0  0  0  0  # atno 17394 bound_to 11000
  140.3132  134.3000  155.7262 LP  0  0  0  0  0  0  0  0  0  0  0  0  # atno 17395 bound_to 11000

$$$$
