AV-unprocessed.smi:229|AV-procd|sdf|1753|dock7
  -GOLD-   2262020273D 1   1.00000     0.00000
 Structure written by MMmdl.
 58 62  0  0  0  0  0  0  0  0  1 V2000
  152.9465  131.2829  157.0758 C   0  0  0  0  0  0  0  0  0  0  0  0
  152.0123  131.2819  155.8597 C   0  0  0  0  0  0  0  0  0  0  0  0
  150.9774  132.4163  155.8976 C   0  0  2  0  0  0  0  0  0  0  0  0
  151.6388  133.7841  156.1393 C   0  0  0  0  0  0  0  0  0  0  0  0
  150.6157  134.8151  156.2790 N   0  0  0  0  0  0  0  0  0  0  0  0
  150.9941  136.1162  156.1947 C   0  0  0  0  0  0  0  0  0  0  0  0
  151.1705  136.6940  154.9761 N   0  0  0  0  0  0  0  0  0  0  0  0
  151.5390  137.9746  154.8816 C   0  0  0  0  0  0  0  0  0  0  0  0
  151.7799  138.8472  155.8612 N   0  0  0  0  0  0  0  0  0  0  0  0
  151.6050  138.2771  157.0878 C   0  0  0  0  0  0  0  0  0  0  0  0
  151.2122  136.9321  157.3417 C   0  0  0  0  0  0  0  0  0  0  0  0
  151.1094  136.7230  158.7114 N   0  0  0  0  0  0  0  0  0  0  0  0
  151.4316  137.8731  159.2361 C   0  0  0  0  0  0  0  0  0  0  0  0
  151.7613  138.8612  158.3342 N   0  0  0  0  0  0  0  0  0  0  0  0
  152.1412  140.2368  158.6322 C   0  0  0  0  0  0  0  0  0  0  0  0
  153.2829  140.3813  159.6680 C   0  0  1  0  0  0  0  0  0  0  0  0
  154.4929  139.9987  159.0442 O   0  0  0  0  0  0  0  0  0  0  0  0
  153.4737  141.8033  160.2393 C   0  0  1  0  0  0  0  0  0  0  0  0
  152.9425  142.9340  159.3481 C   0  0  0  0  0  0  0  0  0  0  0  0
  152.4445  143.9936  160.3213 C   0  0  0  0  0  0  0  0  0  0  0  0
  152.6052  143.3409  161.6919 C   0  0  0  0  0  0  0  0  0  0  0  0
  152.6713  141.9552  161.4020 O   0  0  0  0  0  0  0  0  0  0  0  0
  149.6498  134.5128  157.3288 C   0  0  0  0  0  0  0  0  0  0  0  0
  149.0143  133.1215  157.1046 C   0  0  1  0  0  0  0  0  0  0  0  0
  148.1607  132.7113  158.3001 C   0  0  0  0  0  0  0  0  0  0  0  0
  146.7585  133.1328  157.8879 C   0  0  0  0  0  0  0  0  0  0  0  0
  146.7272  132.7751  156.5193 O   0  0  0  0  0  0  0  0  0  0  0  0
  147.9883  133.1012  155.9467 C   0  0  0  0  0  0  0  0  0  0  0  0
  150.0500  132.1466  156.9512 O   0  0  0  0  0  0  0  0  0  0  0  0
  153.6537  130.4550  157.0216 H   0  0  0  0  0  0  0  0  0  0  0  0
  152.3845  131.1799  158.0044 H   0  0  0  0  0  0  0  0  0  0  0  0
  153.5217  132.2073  157.1327 H   0  0  0  0  0  0  0  0  0  0  0  0
  152.6031  131.3528  154.9457 H   0  0  0  0  0  0  0  0  0  0  0  0
  151.4951  130.3226  155.8173 H   0  0  0  0  0  0  0  0  0  0  0  0
  150.4582  132.4409  154.9392 H   0  0  0  0  0  0  0  0  0  0  0  0
  152.2488  133.7548  157.0434 H   0  0  0  0  0  0  0  0  0  0  0  0
  152.3009  134.0213  155.3054 H   0  0  0  0  0  0  0  0  0  0  0  0
  151.6569  138.3546  153.8775 H   0  0  0  0  0  0  0  0  0  0  0  0
  151.4338  138.0282  160.3048 H   0  0  0  0  0  0  0  0  0  0  0  0
  152.4381  140.7198  157.7012 H   0  0  0  0  0  0  0  0  0  0  0  0
  151.2522  140.7704  158.9708 H   0  0  0  0  0  0  0  0  0  0  0  0
  153.0957  139.6856  160.4868 H   0  0  0  0  0  0  0  0  0  0  0  0
  154.9108  139.3414  159.5790 H   0  0  0  0  0  0  0  0  0  0  0  0
  154.5195  141.9929  160.4907 H   0  0  0  0  0  0  0  0  0  0  0  0
  153.7108  143.3242  158.6821 H   0  0  0  0  0  0  0  0  0  0  0  0
  152.1116  142.5858  158.7333 H   0  0  0  0  0  0  0  0  0  0  0  0
  153.0130  144.9215  160.2533 H   0  0  0  0  0  0  0  0  0  0  0  0
  151.3976  144.2248  160.1217 H   0  0  0  0  0  0  0  0  0  0  0  0
  153.5364  143.6556  162.1655 H   0  0  0  0  0  0  0  0  0  0  0  0
  151.7810  143.5699  162.3678 H   0  0  0  0  0  0  0  0  0  0  0  0
  150.1776  134.5284  158.2835 H   0  0  0  0  0  0  0  0  0  0  0  0
  148.8703  135.2705  157.3964 H   0  0  0  0  0  0  0  0  0  0  0  0
  148.1827  131.6274  158.4237 H   0  0  0  0  0  0  0  0  0  0  0  0
  148.4794  133.1577  159.2424 H   0  0  0  0  0  0  0  0  0  0  0  0
  145.9789  132.6254  158.4561 H   0  0  0  0  0  0  0  0  0  0  0  0
  146.6223  134.2105  157.9928 H   0  0  0  0  0  0  0  0  0  0  0  0
  147.9200  134.0733  155.4568 H   0  0  0  0  0  0  0  0  0  0  0  0
  148.2238  132.3613  155.1823 H   0  0  0  0  0  0  0  0  0  0  0  0
  1  2  1  0  0  0  0
  1 30  1  0  0  0  0
  1 31  1  0  0  0  0
  1 32  1  0  0  0  0
  2  3  1  0  0  0  0
  2 33  1  0  0  0  0
  2 34  1  0  0  0  0
  3 29  1  0  0  0  0
  3  4  1  0  0  0  0
  3 35  1  0  0  0  0
  4  5  1  0  0  0  0
  4 36  1  0  0  0  0
  4 37  1  0  0  0  0
  5  6  1  0  0  0  0
  5 23  1  0  0  0  0
  6 11  1  0  0  0  0
  6  7  2  0  0  0  0
  7  8  1  0  0  0  0
  8  9  2  0  0  0  0
  8 38  1  0  0  0  0
  9 10  1  0  0  0  0
 10 14  1  0  0  0  0
 10 11  2  0  0  0  0
 11 12  1  0  0  0  0
 12 13  2  0  0  0  0
 13 14  1  0  0  0  0
 13 39  1  0  0  0  0
 14 15  1  0  0  0  0
 15 16  1  0  0  0  0
 15 40  1  0  0  0  0
 15 41  1  0  0  0  0
 16 17  1  0  0  0  0
 16 18  1  0  0  0  0
 16 42  1  0  0  0  0
 17 43  1  0  0  0  0
 18 22  1  0  0  0  0
 18 19  1  0  0  0  0
 18 44  1  0  0  0  0
 19 20  1  0  0  0  0
 19 45  1  0  0  0  0
 19 46  1  0  0  0  0
 20 21  1  0  0  0  0
 20 47  1  0  0  0  0
 20 48  1  0  0  0  0
 21 22  1  0  0  0  0
 21 49  1  0  0  0  0
 21 50  1  0  0  0  0
 23 24  1  0  0  0  0
 23 51  1  0  0  0  0
 23 52  1  0  0  0  0
 24 28  1  0  0  0  0
 24 25  1  0  0  0  0
 24 29  1  0  0  0  0
 25 26  1  0  0  0  0
 25 53  1  0  0  0  0
 25 54  1  0  0  0  0
 26 27  1  0  0  0  0
 26 55  1  0  0  0  0
 26 56  1  0  0  0  0
 27 28  1  0  0  0  0
 28 57  1  0  0  0  0
 28 58  1  0  0  0  0
M  END
> <s_m_source_file>
AV-unprocessed.smi

> <i_m_source_file_index>
229

> <i_lp_mmshare_version>
43012

> <i_f3d_flags>
0

> <s_epik_input>
W0NIMl0xT1tDSDJdW0NIMl1bQ0BdMTJbQ0gyXU4oW0NIMl1bQ0BIXShPMilbQ0gyXVtDSDNdKWMobltjSF1uMyljKGMzNCluW2NIXW40W0NIMl1bQ0BIXShbT0hdKVtDQEBIXTVbQ0gyXVtDSDJdW0NIMl1PNQ==

> <s_epik_cmdline>
J2VwaWtfcHl0aG9uJywgJy1waCcsICc3LjAnLCAnLXRuJywgJzgnLCAnLW1hJywgJzIwMCcsICctbWV0YWxfYmluZGluZycsICctaW1hZScsICc8aW5maWxlLm1hZT4nLCAnLW9tYWUnLCAnPG91dGZpbGUubWFlPic=

> <r_lp_tautomer_probability>
1

> <r_epik_Ionization_Penalty>
0.00318402

> <r_epik_Ionization_Penalty_Charging>
0

> <r_epik_Ionization_Penalty_Neutral>
0.00318402

> <r_epik_State_Penalty>
0.00215642

> <r_epik_Charging_Adjusted_Penalty>
0.00215642

> <i_epik_Tot_Q>
0

> <i_epik_Tot_abs_Q>
0

> <r_epik_Metal_State_Penalty>
-0

> <b_epik_Metal_Only>
0

> <s_lp_Force_Field>
OPLS_2005

> <r_lp_Energy>
56.4777

> <b_lp_Chiralities_Consistent>
1

> <s_lp_Variant>
AV-unprocessed.smi:229-7

> <Gold.Version>
5.8.1

> <Gold.Id.Protein>
6NUR|6NUR_protein|mol2

> <Gold.PLP.Fitness>
44.1590

> <Gold.PLP.PLP>
-38.4319

> <Gold.PLP.part.hbond>
-3.0000

> <Gold.PLP.part.metal>
0.0000

> <Gold.PLP.part.buried>
-7.4573

> <Gold.PLP.part.nonpolar>
-28.6868

> <Gold.PLP.part.repulsive>
0.2157

> <Gold.PLP.ligand.clash>
0.0000

> <Gold.PLP.ligand.torsion>
1.6990

> <Gold.PLP.Chemscore.Hbond>
2.9188

> <Gold.PLP.Chemscore.CHOScore>
0.0000

> <Gold.PLP.Chemscore.Metal>
0.0000

> <Gold.Chemscore.Hbonds>
donor molecule, donor type, donor heavy atom, donor atom, acceptor molecule, acceptor atom, score
      P1  H  6896  6908       L1    12  0.91
      P1  H  7997  8010       L1    17  0.98
      P1  H 10752 10765       L1     7  0.66

> <Gold.PLP.Chemscore.Internal.Correction>
0.3687

> <Gold.Rescore>
     Score         DG    S(hbond)    S(metal)    S(lipo)     H(rot)  DE(clash)    DE(int)     intcor
     14.23     -17.30       2.10        0.00      94.95       2.46       0.17       2.90       ----

> <Gold.Chemscore.Fitness>
14.2315

> <Gold.Chemscore.DG>
-17.3031

> <Gold.Chemscore.ZeroCoef>
-5.4800

> <Gold.Chemscore.Hbond>
2.0985

> <Gold.Chemscore.Metal>
0.0000

> <Gold.Chemscore.Lipo>
94.9531

> <Gold.Chemscore.Internal_Hbond>
0.0000

> <Gold.Chemscore.DEClash>
0.1739

> <Gold.Chemscore.DEInternal>
2.8977

> <Gold.Chemscore.Rot>
2.4591

> <Gold.Chemscore.Internal.Correction>
   9.000000E+99

> <Gold.Chemscore.Hbonds>
donor molecule, donor type, donor heavy atom, donor atom, acceptor molecule, acceptor atom, score
      P1  H  6896  6908       L1    12  0.84
      P1  H  7997  8010       L1    17  0.77
      P1  H 10752 10765       L1     7  0.05

> <Gold.Chemscore.Hbond.Weighted>
-7.0090

> <Gold.Chemscore.Metal.Weighted>
-0.0000

> <Gold.Chemscore.Lipo.Weighted>
-11.1095

> <Gold.Chemscore.Internal_Hbond.Weighted>
0.0000

> <Gold.Chemscore.DEClash.Weighted>
0.1739

> <Gold.Chemscore.DEInternal.Weighted>
2.8977

> <Gold.Chemscore.Rot.Weighted>
6.2953

> <Gold.Chemscore.Internal.Correction.Weighted>
   9.000000E+99

> <Gold.Protein.RotatedTorsions>
[ 6907 6896 6895 6894 ] final -145.31 input  -60.11 | X-H torsion
[ 7974 7965 7964 7962 ] final  -92.50 input  175.53 | X-H torsion
[ 8008 7997 7996 7995 ] final   -5.89 input   59.86 | X-H torsion
[ 10167 10162 10161 10158 ] final   28.47 input  -65.29 | X-H torsion
[ 10718 10713 10712 10709 ] final   82.25 input   66.30 | X-H torsion
[ 10763 10752 10751 10750 ] final  171.13 input  -60.55 | X-H torsion
[ 11005 11000 10999 10996 ] final   46.96 input  -57.11 | X-H torsion

> <Gold.Protein.ActiveResidues>
 VAL166  LYS551  ARG553  GLY616  TRP617  ASP618  TYR619  PRO620  LYS621  CYS622 
 ASP623  PHE694  ASN695  SER759  ASP760  ASP761  ALA762  ILE779  LEU786  VAL792 
 PHE793  MET794  SER795  GLU796  ALA797  LYS798  CYS799  TRP800  GLU811  SER814 

> <Gold.Protein.RotatedAtoms>
  151.1260  133.5070  159.2600 H   0  0  0  0  0  0  0  0  0  0  0  0  # atno 6907 bound_to 6896
  151.1809  135.0360  159.8802 H   0  0  0  0  0  0  0  0  0  0  0  0  # atno 6908 bound_to 6896
  152.5458  134.1112  159.8412 H   0  0  0  0  0  0  0  0  0  0  0  0  # atno 6909 bound_to 6896
  145.3990  140.9535  143.2298 H   0  0  0  0  0  0  0  0  0  0  0  0  # atno 7974 bound_to 7965
  154.5993  140.2447  155.7814 H   0  0  0  0  0  0  0  0  0  0  0  0  # atno 8008 bound_to 7997
  156.2300  140.2970  156.0117 H   0  0  0  0  0  0  0  0  0  0  0  0  # atno 8009 bound_to 7997
  155.2238  140.0401  157.2943 H   0  0  0  0  0  0  0  0  0  0  0  0  # atno 8010 bound_to 7997
  140.4850  144.0557  150.6277 H   0  0  0  0  0  0  0  0  0  0  0  0  # atno 10167 bound_to 10162
  157.6853  131.0039  150.2347 H   0  0  0  0  0  0  0  0  0  0  0  0  # atno 10718 bound_to 10713
  154.4075  135.2756  155.2058 H   0  0  0  0  0  0  0  0  0  0  0  0  # atno 10763 bound_to 10752
  154.4057  135.6034  153.5927 H   0  0  0  0  0  0  0  0  0  0  0  0  # atno 10764 bound_to 10752
  152.9831  135.5937  154.4352 H   0  0  0  0  0  0  0  0  0  0  0  0  # atno 10765 bound_to 10752
  140.1322  134.4691  155.8513 H   0  0  0  0  0  0  0  0  0  0  0  0  # atno 11005 bound_to 11000
  144.8387  139.5508  143.6910 LP  0  0  0  0  0  0  0  0  0  0  0  0  # atno 17320 bound_to 7965
  146.2761  139.6756  142.9262 LP  0  0  0  0  0  0  0  0  0  0  0  0  # atno 17321 bound_to 7965
  140.3810  143.2803  152.0171 LP  0  0  0  0  0  0  0  0  0  0  0  0  # atno 17342 bound_to 10162
  139.4840  144.6155  151.7354 LP  0  0  0  0  0  0  0  0  0  0  0  0  # atno 17343 bound_to 10162
  156.2973  130.3753  149.7784 LP  0  0  0  0  0  0  0  0  0  0  0  0  # atno 17370 bound_to 10713
  156.5425  130.8306  151.3273 LP  0  0  0  0  0  0  0  0  0  0  0  0  # atno 17371 bound_to 10713
  141.2172  133.6800  156.7090 LP  0  0  0  0  0  0  0  0  0  0  0  0  # atno 17394 bound_to 11000
  140.2828  134.8303  157.3948 LP  0  0  0  0  0  0  0  0  0  0  0  0  # atno 17395 bound_to 11000

$$$$
