AV-unprocessed.smi:26|AV-procd|sdf|185|dock2
  -GOLD-   2262015453D 1   1.00000     0.00000
 Structure written by MMmdl.
 58 61  0  0  0  0  0  0  0  0  1 V2000
  147.7502  132.0039  160.7188 C   0  0  0  0  0  0  0  0  0  0  0  0
  147.8141  133.3888  160.1547 C   0  0  0  0  0  0  0  0  0  0  0  0
  148.2603  133.7716  158.9253 C   0  0  0  0  0  0  0  0  0  0  0  0
  148.1321  135.1817  158.8096 C   0  0  0  0  0  0  0  0  0  0  0  0
  148.5210  136.0403  157.6614 C   0  0  0  0  0  0  0  0  0  0  0  0
  147.8784  137.0295  157.3071 O   0  0  0  0  0  0  0  0  0  0  0  0
  149.8122  135.6305  156.9283 C   0  0  0  0  0  0  0  0  0  0  0  0
  150.8346  136.6698  156.9474 N   0  0  0  0  0  0  0  0  0  0  0  0
  151.3803  137.0812  155.7058 C   0  0  0  0  0  0  0  0  0  0  0  0
  151.0142  136.5926  154.6353 O   0  0  0  0  0  0  0  0  0  0  0  0
  152.3918  138.1276  155.8056 C   0  0  0  0  0  0  0  0  0  0  0  0
  152.9862  138.5849  154.6905 F   0  0  0  0  0  0  0  0  0  0  0  0
  152.7448  138.6462  157.0017 C   0  0  0  0  0  0  0  0  0  0  0  0
  152.1815  138.2361  158.1994 N   0  0  0  0  0  0  0  0  0  0  0  0
  152.5896  138.8372  159.5275 C   0  0  2  0  0  0  0  0  0  0  0  0
  152.3303  140.3551  159.5384 C   0  0  0  0  0  0  0  0  0  0  0  0
  153.6541  140.9151  160.0187 C   0  0  0  0  0  0  0  0  0  0  0  0
  154.6402  139.8798  159.4996 C   0  0  0  0  0  0  0  0  0  0  0  0
  153.9616  138.6523  159.7324 O   0  0  0  0  0  0  0  0  0  0  0  0
  151.1973  137.2236  158.1986 C   0  0  0  0  0  0  0  0  0  0  0  0
  150.6737  136.8534  159.2523 O   0  0  0  0  0  0  0  0  0  0  0  0
  147.5779  135.6380  159.9845 C   0  0  0  0  0  0  0  0  0  0  0  0
  147.1665  137.0213  160.4108 C   0  0  0  0  0  0  0  0  0  0  0  0
  147.4211  134.5405  160.8397 N   0  0  0  0  0  0  0  0  0  0  0  0
  146.8879  134.6064  162.2101 C   0  0  1  0  0  0  0  0  0  0  0  0
  147.6388  135.6621  163.0442 C   0  0  0  0  0  0  0  0  0  0  0  0
  145.3600  134.6946  162.2427 C   0  0  0  0  0  0  0  0  0  0  0  0
  144.6067  133.6813  161.6087 C   0  0  0  0  0  0  0  0  0  0  0  0
  143.1995  133.7236  161.6138 C   0  0  0  0  0  0  0  0  0  0  0  0
  142.5297  134.7794  162.2593 C   0  0  0  0  0  0  0  0  0  0  0  0
  143.2693  135.7908  162.8997 C   0  0  0  0  0  0  0  0  0  0  0  0
  144.6770  135.7493  162.8941 C   0  0  0  0  0  0  0  0  0  0  0  0
  147.8600  131.2619  159.9278 H   0  0  0  0  0  0  0  0  0  0  0  0
  146.7997  131.8108  161.2127 H   0  0  0  0  0  0  0  0  0  0  0  0
  148.5541  131.8360  161.4354 H   0  0  0  0  0  0  0  0  0  0  0  0
  148.6494  133.0947  158.1788 H   0  0  0  0  0  0  0  0  0  0  0  0
  150.2374  134.7256  157.3647 H   0  0  0  0  0  0  0  0  0  0  0  0
  149.6086  135.3801  155.8859 H   0  0  0  0  0  0  0  0  0  0  0  0
  153.5018  139.4151  157.0006 H   0  0  0  0  0  0  0  0  0  0  0  0
  152.0355  138.2834  160.2875 H   0  0  0  0  0  0  0  0  0  0  0  0
  152.1117  140.7082  158.5293 H   0  0  0  0  0  0  0  0  0  0  0  0
  151.4937  140.6058  160.1910 H   0  0  0  0  0  0  0  0  0  0  0  0
  153.8539  141.9200  159.6466 H   0  0  0  0  0  0  0  0  0  0  0  0
  153.6783  140.9404  161.1088 H   0  0  0  0  0  0  0  0  0  0  0  0
  154.8188  140.0156  158.4321 H   0  0  0  0  0  0  0  0  0  0  0  0
  155.5993  139.9129  160.0170 H   0  0  0  0  0  0  0  0  0  0  0  0
  146.9804  137.6755  159.5615 H   0  0  0  0  0  0  0  0  0  0  0  0
  147.9364  137.4813  161.0301 H   0  0  0  0  0  0  0  0  0  0  0  0
  146.2351  137.0064  160.9758 H   0  0  0  0  0  0  0  0  0  0  0  0
  147.0783  133.6494  162.6927 H   0  0  0  0  0  0  0  0  0  0  0  0
  147.3279  135.6318  164.0887 H   0  0  0  0  0  0  0  0  0  0  0  0
  147.4775  136.6738  162.6749 H   0  0  0  0  0  0  0  0  0  0  0  0
  148.7133  135.4781  163.0228 H   0  0  0  0  0  0  0  0  0  0  0  0
  145.1114  132.8669  161.1098 H   0  0  0  0  0  0  0  0  0  0  0  0
  142.6344  132.9455  161.1223 H   0  0  0  0  0  0  0  0  0  0  0  0
  141.4502  134.8128  162.2643 H   0  0  0  0  0  0  0  0  0  0  0  0
  142.7560  136.6009  163.3963 H   0  0  0  0  0  0  0  0  0  0  0  0
  145.2157  136.5416  163.3904 H   0  0  0  0  0  0  0  0  0  0  0  0
  1  2  1  0  0  0  0
  1 33  1  0  0  0  0
  1 34  1  0  0  0  0
  1 35  1  0  0  0  0
  2 24  1  0  0  0  0
  2  3  2  0  0  0  0
  3  4  1  0  0  0  0
  3 36  1  0  0  0  0
  4  5  1  0  0  0  0
  4 22  2  0  0  0  0
  5  6  2  0  0  0  0
  5  7  1  0  0  0  0
  7  8  1  0  0  0  0
  7 37  1  0  0  0  0
  7 38  1  0  0  0  0
  8 20  1  0  0  0  0
  8  9  1  0  0  0  0
  9 10  2  0  0  0  0
  9 11  1  0  0  0  0
 11 12  1  0  0  0  0
 11 13  2  0  0  0  0
 13 14  1  0  0  0  0
 13 39  1  0  0  0  0
 14 15  1  0  0  0  0
 14 20  1  0  0  0  0
 15 19  1  0  0  0  0
 15 16  1  0  0  0  0
 15 40  1  0  0  0  0
 16 17  1  0  0  0  0
 16 41  1  0  0  0  0
 16 42  1  0  0  0  0
 17 18  1  0  0  0  0
 17 43  1  0  0  0  0
 17 44  1  0  0  0  0
 18 19  1  0  0  0  0
 18 45  1  0  0  0  0
 18 46  1  0  0  0  0
 20 21  2  0  0  0  0
 22 23  1  0  0  0  0
 22 24  1  0  0  0  0
 23 47  1  0  0  0  0
 23 48  1  0  0  0  0
 23 49  1  0  0  0  0
 24 25  1  0  0  0  0
 25 26  1  0  0  0  0
 25 27  1  0  0  0  0
 25 50  1  0  0  0  0
 26 51  1  0  0  0  0
 26 52  1  0  0  0  0
 26 53  1  0  0  0  0
 27 32  1  0  0  0  0
 27 28  2  0  0  0  0
 28 29  1  0  0  0  0
 28 54  1  0  0  0  0
 29 30  2  0  0  0  0
 29 55  1  0  0  0  0
 30 31  1  0  0  0  0
 30 56  1  0  0  0  0
 31 32  2  0  0  0  0
 31 57  1  0  0  0  0
 32 58  1  0  0  0  0
M  END
> <s_m_source_file>
AV-unprocessed.smi

> <i_m_source_file_index>
26

> <i_lp_mmshare_version>
43012

> <i_f3d_flags>
0

> <s_epik_input>
W2NIXTFbY0hdW2NIXVtjSF1bY0hdYzFbQ0BASF0oW0NIM10pbjJjKFtDSDNdKWMoW2NIXWMyW0NIM10pQyg9TylbQ0gyXW4zYyg9TyljKEYpW2NIXW4oYzM9TylbQ0BASF00W0NIMl1bQ0gyXVtDSDJdTzQ=

> <s_epik_cmdline>
J2VwaWtfcHl0aG9uJywgJy1waCcsICc3LjAnLCAnLXRuJywgJzgnLCAnLW1hJywgJzIwMCcsICctbWV0YWxfYmluZGluZycsICctaW1hZScsICc8aW5maWxlLm1hZT4nLCAnLW9tYWUnLCAnPG91dGZpbGUubWFlPic=

> <r_lp_tautomer_probability>
1

> <r_epik_Ionization_Penalty>
5.02402e-09

> <r_epik_Ionization_Penalty_Charging>
5.01743e-09

> <r_epik_Ionization_Penalty_Neutral>
6.58831e-12

> <r_epik_State_Penalty>
-0

> <r_epik_Charging_Adjusted_Penalty>
5.01743e-09

> <i_epik_Tot_Q>
0

> <i_epik_Tot_abs_Q>
0

> <r_epik_Metal_State_Penalty>
-0

> <b_epik_Metal_Only>
0

> <s_epik_Chemistry_Notes>
This compound contains an acetal/aminal-like group ( X-CH(R)-Y where X, Y are N, S, or O) that may be acid/base labile, releasing an aldehyde.

> <s_lp_Force_Field>
OPLS_2005

> <r_lp_Energy>
50.3932

> <b_lp_Chiralities_Consistent>
1

> <s_lp_Variant>
AV-unprocessed.smi:26-3

> <Gold.Version>
5.8.1

> <Gold.Id.Protein>
6NUR|6NUR_protein|mol2

> <Gold.PLP.Fitness>
53.1708

> <Gold.PLP.PLP>
-48.8982

> <Gold.PLP.part.hbond>
-2.0000

> <Gold.PLP.part.metal>
0.0000

> <Gold.PLP.part.buried>
-4.7860

> <Gold.PLP.part.nonpolar>
-41.9601

> <Gold.PLP.part.repulsive>
0.1690

> <Gold.PLP.ligand.clash>
0.0000

> <Gold.PLP.ligand.torsion>
0.9999

> <Gold.PLP.Chemscore.Hbond>
2.0000

> <Gold.PLP.Chemscore.CHOScore>
0.0000

> <Gold.PLP.Chemscore.Metal>
0.0000

> <Gold.Chemscore.Hbonds>
donor molecule, donor type, donor heavy atom, donor atom, acceptor molecule, acceptor atom, score
      P1  H  6896  6909       L1    21  1.00
      P1  H 10752 10765       L1    10  0.42

> <Gold.PLP.Chemscore.Internal.Correction>
0.2724

> <Gold.Rescore>
     Score         DG    S(hbond)    S(metal)    S(lipo)     H(rot)  DE(clash)    DE(int)     intcor
     16.16     -18.35       1.24        0.00     114.81       1.84       0.24       1.94       ----

> <Gold.Chemscore.Fitness>
16.1591

> <Gold.Chemscore.DG>
-18.3465

> <Gold.Chemscore.ZeroCoef>
-5.4800

> <Gold.Chemscore.Hbond>
1.2375

> <Gold.Chemscore.Metal>
0.0000

> <Gold.Chemscore.Lipo>
114.8144

> <Gold.Chemscore.Internal_Hbond>
0.0000

> <Gold.Chemscore.DEClash>
0.2429

> <Gold.Chemscore.DEInternal>
1.9446

> <Gold.Chemscore.Rot>
1.8359

> <Gold.Chemscore.Internal.Correction>
   9.000000E+99

> <Gold.Chemscore.Hbonds>
donor molecule, donor type, donor heavy atom, donor atom, acceptor molecule, acceptor atom, score
      P1  H  6896  6909       L1    21  0.92
      P1  H 10752 10765       L1    10  0.04

> <Gold.Chemscore.Hbond.Weighted>
-4.1332

> <Gold.Chemscore.Metal.Weighted>
-0.0000

> <Gold.Chemscore.Lipo.Weighted>
-13.4333

> <Gold.Chemscore.Internal_Hbond.Weighted>
0.0000

> <Gold.Chemscore.DEClash.Weighted>
0.2429

> <Gold.Chemscore.DEInternal.Weighted>
1.9446

> <Gold.Chemscore.Rot.Weighted>
4.7000

> <Gold.Chemscore.Internal.Correction.Weighted>
   9.000000E+99

> <Gold.Protein.RotatedTorsions>
[ 6907 6896 6895 6894 ] final   95.89 input  -60.11 | X-H torsion
[ 7974 7965 7964 7962 ] final    2.35 input  175.53 | X-H torsion
[ 8008 7997 7996 7995 ] final   -6.84 input   59.86 | X-H torsion
[ 10167 10162 10161 10158 ] final   18.52 input  -65.29 | X-H torsion
[ 10718 10713 10712 10709 ] final -103.90 input   66.30 | X-H torsion
[ 10763 10752 10751 10750 ] final  160.54 input  -60.55 | X-H torsion
[ 11005 11000 10999 10996 ] final -136.14 input  -57.11 | X-H torsion

> <Gold.Protein.ActiveResidues>
 VAL166  LYS551  ARG553  GLY616  TRP617  ASP618  TYR619  PRO620  LYS621  CYS622 
 ASP623  PHE694  ASN695  SER759  ASP760  ASP761  ALA762  ILE779  LEU786  VAL792 
 PHE793  MET794  SER795  GLU796  ALA797  LYS798  CYS799  TRP800  GLU811  SER814 

> <Gold.Protein.RotatedAtoms>
  152.5440  134.0971  159.8301 H   0  0  0  0  0  0  0  0  0  0  0  0  # atno 6907 bound_to 6896
  151.1053  133.5205  159.2615 H   0  0  0  0  0  0  0  0  0  0  0  0  # atno 6908 bound_to 6896
  151.1945  135.0426  159.8901 H   0  0  0  0  0  0  0  0  0  0  0  0  # atno 6909 bound_to 6896
  146.2443  140.0849  142.8355 H   0  0  0  0  0  0  0  0  0  0  0  0  # atno 7974 bound_to 7965
  154.5897  140.2422  155.7938 H   0  0  0  0  0  0  0  0  0  0  0  0  # atno 8008 bound_to 7997
  156.2238  140.2989  155.9972 H   0  0  0  0  0  0  0  0  0  0  0  0  # atno 8009 bound_to 7997
  155.2395  140.0406  157.2963 H   0  0  0  0  0  0  0  0  0  0  0  0  # atno 8010 bound_to 7997
  140.5647  143.9273  150.6668 H   0  0  0  0  0  0  0  0  0  0  0  0  # atno 10167 bound_to 10162
  156.0283  130.5489  150.7320 H   0  0  0  0  0  0  0  0  0  0  0  0  # atno 10718 bound_to 10713
  154.2490  135.2772  155.2824 H   0  0  0  0  0  0  0  0  0  0  0  0  # atno 10763 bound_to 10752
  154.5481  135.5683  153.6901 H   0  0  0  0  0  0  0  0  0  0  0  0  # atno 10764 bound_to 10752
  152.9984  135.6268  154.2636 H   0  0  0  0  0  0  0  0  0  0  0  0  # atno 10765 bound_to 10752
  140.8833  134.1905  157.4577 H   0  0  0  0  0  0  0  0  0  0  0  0  # atno 11005 bound_to 11000
  145.0701  140.9149  143.4887 LP  0  0  0  0  0  0  0  0  0  0  0  0  # atno 17320 bound_to 7965
  145.0981  139.2842  143.5700 LP  0  0  0  0  0  0  0  0  0  0  0  0  # atno 17321 bound_to 7965
  140.2733  143.3441  152.1218 LP  0  0  0  0  0  0  0  0  0  0  0  0  # atno 17342 bound_to 10162
  139.5087  144.6854  151.5900 LP  0  0  0  0  0  0  0  0  0  0  0  0  # atno 17343 bound_to 10162
  157.4910  131.0911  151.0427 LP  0  0  0  0  0  0  0  0  0  0  0  0  # atno 17370 bound_to 10713
  157.0834  130.5912  149.5425 LP  0  0  0  0  0  0  0  0  0  0  0  0  # atno 17371 bound_to 10713
  139.8722  134.9827  156.5166 LP  0  0  0  0  0  0  0  0  0  0  0  0  # atno 17394 bound_to 11000
  140.8435  133.8186  155.9098 LP  0  0  0  0  0  0  0  0  0  0  0  0  # atno 17395 bound_to 11000

$$$$
