AV-unprocessed.smi:2636|AV-procd|sdf|10260|dock5
  -GOLD-   2272014273D 1   1.00000     0.00000
 Structure written by MMmdl.
 35 36  0  0  0  0  0  0  0  0  2 V2000
  148.9015  136.5173  154.6324 C   0  0  0  0  0  0  0  0  0  0  0  0
  149.8850  137.6726  154.6582 C   0  0  0  0  0  0  0  0  0  0  0  0
  149.5091  138.9457  154.8977 C   0  0  0  0  0  0  0  0  0  0  0  0
  150.4280  140.0087  154.9084 N   0  0  0  0  0  0  0  0  0  0  0  0
  149.9479  141.3516  155.2135 C   0  0  0  0  0  0  0  0  0  0  0  0
  149.9489  141.6029  156.5912 O   0  0  0  0  0  0  0  0  0  0  0  0
  151.2004  141.9312  157.1882 C   0  0  0  0  0  0  0  0  0  0  0  0
  151.2017  143.3348  157.7721 C   0  0  0  0  0  0  0  0  0  0  0  0
  151.6823  143.7421  158.9636 C   0  0  0  0  0  0  0  0  0  0  0  0
  152.4017  142.9646  159.9874 C   0  0  0  0  0  0  0  0  0  0  0  0
  153.2275  141.8623  159.6692 C   0  0  0  0  0  0  0  0  0  0  0  0
  153.8765  141.1360  160.6866 C   0  0  0  0  0  0  0  0  0  0  0  0
  153.7126  141.5090  162.0335 C   0  0  0  0  0  0  0  0  0  0  0  0
  152.9001  142.6104  162.3603 C   0  0  0  0  0  0  0  0  0  0  0  0
  152.2472  143.3311  161.3417 C   0  0  0  0  0  0  0  0  0  0  0  0
  151.7553  139.7741  154.6863 C   0  0  0  0  0  0  0  0  0  0  0  0
  152.5454  140.7186  154.7099 O   0  0  0  0  0  0  0  0  0  0  0  0
  152.1592  138.4898  154.4436 N   0  5  0  0  0  0  0  0  0  0  0  0
  151.3078  137.4230  154.4154 C   0  0  0  0  0  0  0  0  0  0  0  0
  151.6965  136.2760  154.1958 O   0  0  0  0  0  0  0  0  0  0  0  0
  147.8843  136.8634  154.8169 H   0  0  0  0  0  0  0  0  0  0  0  0
  149.1558  135.7826  155.3968 H   0  0  0  0  0  0  0  0  0  0  0  0
  148.9192  136.0240  153.6603 H   0  0  0  0  0  0  0  0  0  0  0  0
  148.4847  139.2254  155.0950 H   0  0  0  0  0  0  0  0  0  0  0  0
  150.6058  142.0714  154.7238 H   0  0  0  0  0  0  0  0  0  0  0  0
  148.9487  141.4934  154.8002 H   0  0  0  0  0  0  0  0  0  0  0  0
  151.4734  141.1725  157.9175 H   0  0  0  0  0  0  0  0  0  0  0  0
  151.9592  141.8951  156.4070 H   0  0  0  0  0  0  0  0  0  0  0  0
  150.7386  144.0787  157.1406 H   0  0  0  0  0  0  0  0  0  0  0  0
  151.5541  144.7879  159.2031 H   0  0  0  0  0  0  0  0  0  0  0  0
  153.3874  141.5735  158.6415 H   0  0  0  0  0  0  0  0  0  0  0  0
  154.5041  140.2948  160.4319 H   0  0  0  0  0  0  0  0  0  0  0  0
  154.2096  140.9518  162.8138 H   0  0  0  0  0  0  0  0  0  0  0  0
  152.7706  142.8983  163.3930 H   0  0  0  0  0  0  0  0  0  0  0  0
  151.6178  144.1682  161.6065 H   0  0  0  0  0  0  0  0  0  0  0  0
  1  2  1  0  0  0  0
  1 21  1  0  0  0  0
  1 22  1  0  0  0  0
  1 23  1  0  0  0  0
  2 19  1  0  0  0  0
  2  3  2  0  0  0  0
  3  4  1  0  0  0  0
  3 24  1  0  0  0  0
  4  5  1  0  0  0  0
  4 16  1  0  0  0  0
  5  6  1  0  0  0  0
  5 25  1  0  0  0  0
  5 26  1  0  0  0  0
  6  7  1  0  0  0  0
  7  8  1  0  0  0  0
  7 27  1  0  0  0  0
  7 28  1  0  0  0  0
  8  9  2  0  0  0  0
  8 29  1  0  0  0  0
  9 10  1  0  0  0  0
  9 30  1  0  0  0  0
 10 15  1  0  0  0  0
 10 11  2  0  0  0  0
 11 12  1  0  0  0  0
 11 31  1  0  0  0  0
 12 13  2  0  0  0  0
 12 32  1  0  0  0  0
 13 14  1  0  0  0  0
 13 33  1  0  0  0  0
 14 15  2  0  0  0  0
 14 34  1  0  0  0  0
 15 35  1  0  0  0  0
 16 17  2  0  0  0  0
 16 18  1  0  0  0  0
 18 19  1  0  0  0  0
 19 20  2  0  0  0  0
M  CHG  1  18  -1
M  END
> <s_m_source_file>
AV-unprocessed.smi

> <i_m_source_file_index>
2636

> <i_lp_mmshare_version>
43012

> <i_f3d_flags>
0

> <s_epik_input>
Tz1jMVtuSF1jKD1PKW4oW2NIXWMxW0NIM10pW0NIMl1PW0NIMl0vW0NIXT1bQ0hdL2MyW2NIXVtjSF1bY0hdW2NIXVtjSF0y

> <s_epik_cmdline>
J2VwaWtfcHl0aG9uJywgJy1waCcsICc3LjAnLCAnLXRuJywgJzgnLCAnLW1hJywgJzIwMCcsICctbWV0YWxfYmluZGluZycsICctaW1hZScsICc8aW5maWxlLm1hZT4nLCAnLW9tYWUnLCAnPG91dGZpbGUubWFlPic=

> <r_lp_tautomer_probability>
0.999537

> <r_epik_Ionization_Penalty>
3.43625

> <r_epik_Ionization_Penalty_Charging>
7.29021e-08

> <r_epik_Ionization_Penalty_Neutral>
3.43625

> <r_epik_State_Penalty>
3.43567

> <r_epik_Charging_Adjusted_Penalty>
3.43567

> <i_epik_Tot_Q>
-1

> <i_epik_Tot_abs_Q>
1

> <r_epik_Metal_State_Penalty>
0.168611

> <b_epik_Metal_Only>
1

> <s_epik_Chemistry_Notes>
This compound contains an acetal/aminal-like group ( X-CH(R)-Y where X, Y are N, S, or O) that may be acid/base labile, releasing an aldehyde.

> <s_lp_Force_Field>
OPLS_2005

> <r_lp_Energy>
10.6813

> <b_lp_Chiralities_Consistent>
1

> <s_lp_Variant>
AV-unprocessed.smi:2636-4

> <Gold.Version>
5.8.1

> <Gold.Id.Protein>
6NUR|6NUR_protein|mol2

> <Gold.PLP.Fitness>
51.4114

> <Gold.PLP.PLP>
-46.7708

> <Gold.PLP.part.hbond>
-3.0000

> <Gold.PLP.part.metal>
0.0000

> <Gold.PLP.part.buried>
-3.0773

> <Gold.PLP.part.nonpolar>
-40.2684

> <Gold.PLP.part.repulsive>
0.2417

> <Gold.PLP.ligand.clash>
0.0000

> <Gold.PLP.ligand.torsion>
1.1199

> <Gold.PLP.Chemscore.Hbond>
2.2816

> <Gold.PLP.Chemscore.CHOScore>
0.0000

> <Gold.PLP.Chemscore.Metal>
0.0000

> <Gold.Chemscore.Hbonds>
donor molecule, donor type, donor heavy atom, donor atom, acceptor molecule, acceptor atom, score
      P1  H  7997  8010       L1    17  0.25
      P1  H 10752 10763       L1    20  0.84

> <Gold.PLP.Chemscore.Internal.Correction>
0.0356

> <Gold.Rescore>
     Score         DG    S(hbond)    S(metal)    S(lipo)     H(rot)  DE(clash)    DE(int)     intcor
     16.91     -19.07       1.77        0.00     106.76       1.88       1.08       1.08       ----

> <Gold.Chemscore.Fitness>
16.9085

> <Gold.Chemscore.DG>
-19.0684

> <Gold.Chemscore.ZeroCoef>
-5.4800

> <Gold.Chemscore.Hbond>
1.7695

> <Gold.Chemscore.Metal>
0.0000

> <Gold.Chemscore.Lipo>
106.7601

> <Gold.Chemscore.Internal_Hbond>
0.0000

> <Gold.Chemscore.DEClash>
1.0801

> <Gold.Chemscore.DEInternal>
1.0798

> <Gold.Chemscore.Rot>
1.8800

> <Gold.Chemscore.Internal.Correction>
   9.000000E+99

> <Gold.Chemscore.Hbonds>
donor molecule, donor type, donor heavy atom, donor atom, acceptor molecule, acceptor atom, score
      P1  H  7997  8010       L1    17  0.19
      P1  H 10752 10763       L1    20  0.79

> <Gold.Chemscore.Hbond.Weighted>
-5.9103

> <Gold.Chemscore.Metal.Weighted>
-0.0000

> <Gold.Chemscore.Lipo.Weighted>
-12.4909

> <Gold.Chemscore.Internal_Hbond.Weighted>
0.0000

> <Gold.Chemscore.DEClash.Weighted>
1.0801

> <Gold.Chemscore.DEInternal.Weighted>
1.0798

> <Gold.Chemscore.Rot.Weighted>
4.8129

> <Gold.Chemscore.Internal.Correction.Weighted>
   9.000000E+99

> <Gold.Protein.RotatedTorsions>
[ 6907 6896 6895 6894 ] final  -17.41 input  -60.11 | X-H torsion
[ 7974 7965 7964 7962 ] final  162.57 input  175.53 | X-H torsion
[ 8008 7997 7996 7995 ] final   95.40 input   59.86 | X-H torsion
[ 10167 10162 10161 10158 ] final   23.02 input  -65.29 | X-H torsion
[ 10718 10713 10712 10709 ] final  -77.40 input   66.30 | X-H torsion
[ 10763 10752 10751 10750 ] final   62.30 input  -60.55 | X-H torsion
[ 11005 11000 10999 10996 ] final  -83.05 input  -57.11 | X-H torsion

> <Gold.Protein.ActiveResidues>
 VAL166  LYS551  ARG553  GLY616  TRP617  ASP618  TYR619  PRO620  LYS621  CYS622 
 ASP623  PHE694  ASN695  SER759  ASP760  ASP761  ALA762  ILE779  LEU786  VAL792 
 PHE793  MET794  SER795  GLU796  ALA797  LYS798  CYS799  TRP800  GLU811  SER814 

> <Gold.Protein.RotatedAtoms>
  151.2938  135.0749  159.9213 H   0  0  0  0  0  0  0  0  0  0  0  0  # atno 6907 bound_to 6896
  152.5311  133.9904  159.7858 H   0  0  0  0  0  0  0  0  0  0  0  0  # atno 6908 bound_to 6896
  151.0179  133.5853  159.2705 H   0  0  0  0  0  0  0  0  0  0  0  0  # atno 6909 bound_to 6896
  144.7630  139.8058  143.6325 H   0  0  0  0  0  0  0  0  0  0  0  0  # atno 7974 bound_to 7965
  156.0684  140.3287  155.7546 H   0  0  0  0  0  0  0  0  0  0  0  0  # atno 8008 bound_to 7997
  155.5344  140.0596  157.2900 H   0  0  0  0  0  0  0  0  0  0  0  0  # atno 8009 bound_to 7997
  154.4517  140.1921  156.0517 H   0  0  0  0  0  0  0  0  0  0  0  0  # atno 8010 bound_to 7997
  140.5302  143.9854  150.6462 H   0  0  0  0  0  0  0  0  0  0  0  0  # atno 10167 bound_to 10162
  156.0146  130.4490  150.3339 H   0  0  0  0  0  0  0  0  0  0  0  0  # atno 10718 bound_to 10713
  152.9978  135.5470  154.6171 H   0  0  0  0  0  0  0  0  0  0  0  0  # atno 10763 bound_to 10752
  154.5479  135.2824  155.1038 H   0  0  0  0  0  0  0  0  0  0  0  0  # atno 10764 bound_to 10752
  154.2289  135.6437  153.5221 H   0  0  0  0  0  0  0  0  0  0  0  0  # atno 10765 bound_to 10752
  141.1660  133.7275  156.8663 H   0  0  0  0  0  0  0  0  0  0  0  0  # atno 11005 bound_to 11000
  146.1712  139.4863  142.9926 LP  0  0  0  0  0  0  0  0  0  0  0  0  # atno 17320 bound_to 7965
  145.6557  141.0252  143.1736 LP  0  0  0  0  0  0  0  0  0  0  0  0  # atno 17321 bound_to 7965
  140.3227  143.3127  152.0768 LP  0  0  0  0  0  0  0  0  0  0  0  0  # atno 17342 bound_to 10162
  139.4952  144.6563  151.6565 LP  0  0  0  0  0  0  0  0  0  0  0  0  # atno 17343 bound_to 10162
  157.1436  131.0303  151.2916 LP  0  0  0  0  0  0  0  0  0  0  0  0  # atno 17370 bound_to 10713
  157.4451  130.7566  149.7102 LP  0  0  0  0  0  0  0  0  0  0  0  0  # atno 17371 bound_to 10713
  140.1813  134.9031  157.2952 LP  0  0  0  0  0  0  0  0  0  0  0  0  # atno 17394 bound_to 11000
  140.2392  134.3816  155.7488 LP  0  0  0  0  0  0  0  0  0  0  0  0  # atno 17395 bound_to 11000

$$$$
