AV-unprocessed.smi:3285|AV-procd|sdf|12585|dock1
  -GOLD-   2272018503D 1   1.00000     0.00000
 Structure written by MMmdl.
 45 46  0  0  0  0  0  0  0  0  2 V2000
  146.7040  141.3688  154.4390 C   0  0  0  0  0  0  0  0  0  0  0  0
  147.6049  140.2592  154.9002 C   0  0  0  0  0  0  0  0  0  0  0  0
  147.2232  139.0021  154.7516 N   0  0  0  0  0  0  0  0  0  0  0  0
  148.2601  138.2225  155.2729 O   0  0  0  0  0  0  0  0  0  0  0  0
  149.2363  139.0511  155.7234 C   0  0  0  0  0  0  0  0  0  0  0  0
  150.4391  138.4058  156.3239 C   0  0  0  0  0  0  0  0  0  0  0  0
  148.8846  140.3570  155.5185 C   0  0  0  0  0  0  0  0  0  0  0  0
  149.6525  141.6045  155.8618 C   0  0  0  0  0  0  0  0  0  0  0  0
  149.6853  141.8440  157.3766 C   0  0  0  0  0  0  0  0  0  0  0  0
  150.0080  143.2533  157.6816 N   0  3  0  0  0  0  0  0  0  0  0  0
  151.4379  143.6230  157.5586 C   0  0  1  0  0  0  0  0  0  0  0  0
  151.6090  145.1476  157.6648 C   0  0  0  0  0  0  0  0  0  0  0  0
  151.3548  145.6578  159.0922 C   0  0  0  0  0  0  0  0  0  0  0  0
  152.2475  144.9516  160.1327 C   0  0  1  0  0  0  0  0  0  0  0  0
  151.9552  145.5110  161.5363 C   0  0  0  0  0  0  0  0  0  0  0  0
  152.0767  143.4117  160.0462 C   0  0  2  0  0  0  0  0  0  0  0  0
  152.9921  142.6517  161.0226 C   0  0  0  0  0  0  0  0  0  0  0  0
  152.3263  142.9169  158.6046 C   0  0  0  0  0  0  0  0  0  0  0  0
  146.2607  141.8889  155.2883 H   0  0  0  0  0  0  0  0  0  0  0  0
  145.8892  140.9962  153.8169 H   0  0  0  0  0  0  0  0  0  0  0  0
  147.2566  142.1021  153.8518 H   0  0  0  0  0  0  0  0  0  0  0  0
  150.6798  138.8569  157.2866 H   0  0  0  0  0  0  0  0  0  0  0  0
  151.3041  138.5199  155.6704 H   0  0  0  0  0  0  0  0  0  0  0  0
  150.2755  137.3396  156.4836 H   0  0  0  0  0  0  0  0  0  0  0  0
  150.6741  141.5414  155.4851 H   0  0  0  0  0  0  0  0  0  0  0  0
  149.2098  142.4706  155.3684 H   0  0  0  0  0  0  0  0  0  0  0  0
  148.7180  141.5860  157.8069 H   0  0  0  0  0  0  0  0  0  0  0  0
  150.4296  141.1936  157.8382 H   0  0  0  0  0  0  0  0  0  0  0  0
  149.4894  143.8268  157.0319 H   0  0  0  0  0  0  0  0  0  0  0  0
  151.7647  143.3227  156.5620 H   0  0  0  0  0  0  0  0  0  0  0  0
  152.6240  145.4160  157.3684 H   0  0  0  0  0  0  0  0  0  0  0  0
  150.9458  145.6537  156.9622 H   0  0  0  0  0  0  0  0  0  0  0  0
  151.5305  146.7338  159.1233 H   0  0  0  0  0  0  0  0  0  0  0  0
  150.3049  145.5152  159.3511 H   0  0  0  0  0  0  0  0  0  0  0  0
  153.2851  145.1916  159.8947 H   0  0  0  0  0  0  0  0  0  0  0  0
  150.9530  145.2417  161.8712 H   0  0  0  0  0  0  0  0  0  0  0  0
  152.0256  146.5993  161.5459 H   0  0  0  0  0  0  0  0  0  0  0  0
  152.6668  145.1439  162.2754 H   0  0  0  0  0  0  0  0  0  0  0  0
  151.0473  143.1673  160.3118 H   0  0  0  0  0  0  0  0  0  0  0  0
  154.0408  142.9040  160.8622 H   0  0  0  0  0  0  0  0  0  0  0  0
  152.8887  141.5737  160.8969 H   0  0  0  0  0  0  0  0  0  0  0  0
  152.7493  142.8716  162.0618 H   0  0  0  0  0  0  0  0  0  0  0  0
  152.2014  141.8358  158.5497 H   0  0  0  0  0  0  0  0  0  0  0  0
  153.3712  143.0983  158.3487 H   0  0  0  0  0  0  0  0  0  0  0  0
  149.6957  143.4703  158.6174 H   0  0  0  0  0  0  0  0  0  0  0  0
  1  2  1  0  0  0  0
  1 19  1  0  0  0  0
  1 20  1  0  0  0  0
  1 21  1  0  0  0  0
  2  7  1  0  0  0  0
  2  3  2  0  0  0  0
  3  4  1  0  0  0  0
  4  5  1  0  0  0  0
  5  6  1  0  0  0  0
  5  7  2  0  0  0  0
  6 22  1  0  0  0  0
  6 23  1  0  0  0  0
  6 24  1  0  0  0  0
  7  8  1  0  0  0  0
  8  9  1  0  0  0  0
  8 25  1  0  0  0  0
  8 26  1  0  0  0  0
  9 10  1  0  0  0  0
  9 27  1  0  0  0  0
  9 28  1  0  0  0  0
 10 11  1  0  0  0  0
 10 29  1  0  0  0  0
 10 45  1  0  0  0  0
 11 18  1  0  0  0  0
 11 12  1  0  0  0  0
 11 30  1  0  0  0  0
 12 13  1  0  0  0  0
 12 31  1  0  0  0  0
 12 32  1  0  0  0  0
 13 14  1  0  0  0  0
 13 33  1  0  0  0  0
 13 34  1  0  0  0  0
 14 15  1  0  0  0  0
 14 16  1  0  0  0  0
 14 35  1  0  0  0  0
 15 36  1  0  0  0  0
 15 37  1  0  0  0  0
 15 38  1  0  0  0  0
 16 17  1  0  0  0  0
 16 18  1  0  0  0  0
 16 39  1  0  0  0  0
 17 40  1  0  0  0  0
 17 41  1  0  0  0  0
 17 42  1  0  0  0  0
 18 43  1  0  0  0  0
 18 44  1  0  0  0  0
M  CHG  1  10   1
M  END
> <s_m_source_file>
AV-unprocessed.smi

> <i_m_source_file_index>
3285

> <i_lp_mmshare_version>
43012

> <i_f3d_flags>
0

> <s_epik_input>
W0NIM11jMW5vYyhbQ0gzXSljMVtDSDJdW0NIMl1bTkhdW0NAQEhdMltDSDJdW0NIMl1bQ0BASF0oW0NIM10pW0NAQEhdKFtDSDNdKVtDSDJdMg==

> <s_epik_cmdline>
J2VwaWtfcHl0aG9uJywgJy1waCcsICc3LjAnLCAnLXRuJywgJzgnLCAnLW1hJywgJzIwMCcsICctbWV0YWxfYmluZGluZycsICctaW1hZScsICc8aW5maWxlLm1hZT4nLCAnLW9tYWUnLCAnPG91dGZpbGUubWFlPic=

> <r_lp_tautomer_probability>
1

> <r_epik_Ionization_Penalty>
0.000204615

> <r_epik_Ionization_Penalty_Charging>
0.000204615

> <r_epik_Ionization_Penalty_Neutral>
9.28663e-11

> <r_epik_State_Penalty>
-0

> <r_epik_Charging_Adjusted_Penalty>
0.000204615

> <i_epik_Tot_Q>
1

> <i_epik_Tot_abs_Q>
1

> <r_epik_Metal_State_Penalty>
-0

> <b_epik_Metal_Only>
0

> <s_lp_Force_Field>
OPLS_2005

> <r_lp_Energy>
13.8901

> <b_lp_Chiralities_Consistent>
1

> <s_lp_Variant>
AV-unprocessed.smi:3285-6

> <Gold.Version>
5.8.1

> <Gold.Id.Protein>
6NUR|6NUR_protein|mol2

> <Gold.PLP.Fitness>
49.0957

> <Gold.PLP.PLP>
-43.7216

> <Gold.PLP.part.hbond>
-1.0000

> <Gold.PLP.part.metal>
0.0000

> <Gold.PLP.part.buried>
-4.4168

> <Gold.PLP.part.nonpolar>
-39.1389

> <Gold.PLP.part.repulsive>
1.1074

> <Gold.PLP.ligand.clash>
0.0000

> <Gold.PLP.ligand.torsion>
0.3170

> <Gold.PLP.Chemscore.Hbond>
2.0000

> <Gold.PLP.Chemscore.CHOScore>
0.0000

> <Gold.PLP.Chemscore.Metal>
0.0000

> <Gold.Chemscore.Hbonds>
donor molecule, donor type, donor heavy atom, donor atom, acceptor molecule, acceptor atom, score
      L1  H    10    29       P1  8028  2.00

> <Gold.PLP.Chemscore.Internal.Correction>
0.0081

> <Gold.Rescore>
     Score         DG    S(hbond)    S(metal)    S(lipo)     H(rot)  DE(clash)    DE(int)     intcor
     19.31     -22.05       0.99        0.00     142.78       1.35       1.97       0.77       ----

> <Gold.Chemscore.Fitness>
19.3148

> <Gold.Chemscore.DG>
-22.0546

> <Gold.Chemscore.ZeroCoef>
-5.4800

> <Gold.Chemscore.Hbond>
0.9930

> <Gold.Chemscore.Metal>
0.0000

> <Gold.Chemscore.Lipo>
142.7783

> <Gold.Chemscore.Internal_Hbond>
0.0000

> <Gold.Chemscore.DEClash>
1.9677

> <Gold.Chemscore.DEInternal>
0.7721

> <Gold.Chemscore.Rot>
1.3465

> <Gold.Chemscore.Internal.Correction>
   9.000000E+99

> <Gold.Chemscore.Hbonds>
donor molecule, donor type, donor heavy atom, donor atom, acceptor molecule, acceptor atom, score
      L1  H    10    29       P1  8028  0.78

> <Gold.Chemscore.Hbond.Weighted>
-3.3165

> <Gold.Chemscore.Metal.Weighted>
-0.0000

> <Gold.Chemscore.Lipo.Weighted>
-16.7051

> <Gold.Chemscore.Internal_Hbond.Weighted>
0.0000

> <Gold.Chemscore.DEClash.Weighted>
1.9677

> <Gold.Chemscore.DEInternal.Weighted>
0.7721

> <Gold.Chemscore.Rot.Weighted>
3.4470

> <Gold.Chemscore.Internal.Correction.Weighted>
   9.000000E+99

> <Gold.Protein.RotatedTorsions>
[ 6907 6896 6895 6894 ] final  -44.67 input  -60.11 | X-H torsion
[ 7974 7965 7964 7962 ] final   -8.09 input  175.53 | X-H torsion
[ 8008 7997 7996 7995 ] final  -14.62 input   59.86 | X-H torsion
[ 10167 10162 10161 10158 ] final   44.60 input  -65.29 | X-H torsion
[ 10718 10713 10712 10709 ] final   39.90 input   66.30 | X-H torsion
[ 10763 10752 10751 10750 ] final   47.27 input  -60.55 | X-H torsion
[ 11005 11000 10999 10996 ] final  110.27 input  -57.11 | X-H torsion

> <Gold.Protein.ActiveResidues>
 VAL166  LYS551  ARG553  GLY616  TRP617  ASP618  TYR619  PRO620  LYS621  CYS622 
 ASP623  PHE694  ASN695  SER759  ASP760  ASP761  ALA762  ILE779  LEU786  VAL792 
 PHE793  MET794  SER795  GLU796  ALA797  LYS798  CYS799  TRP800  GLU811  SER814 

> <Gold.Protein.RotatedAtoms>
  150.9303  134.8718  159.7546 H   0  0  0  0  0  0  0  0  0  0  0  0  # atno 6907 bound_to 6896
  152.5035  134.4088  159.9451 H   0  0  0  0  0  0  0  0  0  0  0  0  # atno 6908 bound_to 6896
  151.4116  133.3686  159.2779 H   0  0  0  0  0  0  0  0  0  0  0  0  # atno 6909 bound_to 6896
  146.2290  140.2416  142.8343 H   0  0  0  0  0  0  0  0  0  0  0  0  # atno 7974 bound_to 7965
  154.5196  140.2218  155.9001 H   0  0  0  0  0  0  0  0  0  0  0  0  # atno 8008 bound_to 7997
  156.1646  140.3135  155.8832 H   0  0  0  0  0  0  0  0  0  0  0  0  # atno 8009 bound_to 7997
  155.3681  140.0465  157.3036 H   0  0  0  0  0  0  0  0  0  0  0  0  # atno 8010 bound_to 7997
  140.3327  144.2569  150.6166 H   0  0  0  0  0  0  0  0  0  0  0  0  # atno 10167 bound_to 10162
  157.3760  130.7727  149.7155 H   0  0  0  0  0  0  0  0  0  0  0  0  # atno 10718 bound_to 10713
  152.9801  135.5982  154.3735 H   0  0  0  0  0  0  0  0  0  0  0  0  # atno 10763 bound_to 10752
  154.3406  135.2768  155.2426 H   0  0  0  0  0  0  0  0  0  0  0  0  # atno 10764 bound_to 10752
  154.4509  135.5990  153.6246 H   0  0  0  0  0  0  0  0  0  0  0  0  # atno 10765 bound_to 10752
  139.8878  134.9480  156.6253 H   0  0  0  0  0  0  0  0  0  0  0  0  # atno 11005 bound_to 11000
  144.9480  140.8149  143.5589 LP  0  0  0  0  0  0  0  0  0  0  0  0  # atno 17320 bound_to 7965
  145.2374  139.2088  143.5011 LP  0  0  0  0  0  0  0  0  0  0  0  0  # atno 17321 bound_to 7965
  140.5383  143.2229  151.8127 LP  0  0  0  0  0  0  0  0  0  0  0  0  # atno 17342 bound_to 10162
  139.4854  144.4633  151.9514 LP  0  0  0  0  0  0  0  0  0  0  0  0  # atno 17343 bound_to 10162
  155.9765  130.4074  150.3773 LP  0  0  0  0  0  0  0  0  0  0  0  0  # atno 17370 bound_to 10713
  157.1870  131.0406  151.2719 LP  0  0  0  0  0  0  0  0  0  0  0  0  # atno 17371 bound_to 10713
  140.7708  133.8740  155.8490 LP  0  0  0  0  0  0  0  0  0  0  0  0  # atno 17394 bound_to 11000
  140.9844  134.1363  157.4466 LP  0  0  0  0  0  0  0  0  0  0  0  0  # atno 17395 bound_to 11000

$$$$
