AV-unprocessed.smi:1624|AV-procd|sdf|6503|dock3
  -GOLD-   22720 7173D 1   1.00000     0.00000
 Structure written by MMmdl.
 36 37  0  0  0  0  0  0  0  0  1 V2000
  146.4259  136.9765  153.6945 O   0  0  0  0  0  0  0  0  0  0  0  0
  145.7252  137.8927  153.2630 C   0  0  0  0  0  0  0  0  0  0  0  0
  144.5967  137.6947  152.5669 N   0  0  0  0  0  0  0  0  0  0  0  0
  144.0421  136.3904  152.2279 C   0  0  0  0  0  0  0  0  0  0  0  0
  145.0591  135.5221  151.4642 C   0  0  0  0  0  0  0  0  0  0  0  0
  144.8407  134.0958  151.7330 N   0  0  0  0  0  0  0  0  0  0  0  0
  143.6733  133.4816  151.0787 C   0  0  0  0  0  0  0  0  0  0  0  0
  144.0426  132.4950  149.9461 C   0  0  0  0  0  0  0  0  0  0  0  0
  145.3872  131.7558  150.0942 C   0  0  0  0  0  0  0  0  0  0  0  0
  145.5886  131.0317  151.4419 C   0  0  0  0  0  0  0  0  0  0  0  0
  145.4047  131.8866  152.7186 C   0  0  0  0  0  0  0  0  0  0  0  0
  145.6845  133.3852  152.5214 C   0  0  0  0  0  0  0  0  0  0  0  0
  146.6644  133.8830  153.0765 O   0  0  0  0  0  0  0  0  0  0  0  0
  145.9756  139.2045  153.4182 N   0  0  0  0  0  0  0  0  0  0  0  0
  147.0645  139.8208  154.0895 C   0  0  0  0  0  0  0  0  0  0  0  0
  148.0146  139.1402  154.7494 N   0  0  0  0  0  0  0  0  0  0  0  0
  148.9625  139.9852  155.3125 N   0  0  0  0  0  0  0  0  0  0  0  0
  148.6902  141.2676  155.0553 C   0  0  0  0  0  0  0  0  0  0  0  0
  147.2495  141.5687  154.0995 S   0  0  0  0  0  0  0  0  0  0  0  0
  144.0819  138.5031  152.2498 H   0  0  0  0  0  0  0  0  0  0  0  0
  143.7069  135.8805  153.1330 H   0  0  0  0  0  0  0  0  0  0  0  0
  143.1527  136.5545  151.6192 H   0  0  0  0  0  0  0  0  0  0  0  0
  144.9853  135.7171  150.3929 H   0  0  0  0  0  0  0  0  0  0  0  0
  146.0757  135.8116  151.7327 H   0  0  0  0  0  0  0  0  0  0  0  0
  143.0690  132.9725  151.8296 H   0  0  0  0  0  0  0  0  0  0  0  0
  143.0034  134.2396  150.6718 H   0  0  0  0  0  0  0  0  0  0  0  0
  143.2364  131.7692  149.8358 H   0  0  0  0  0  0  0  0  0  0  0  0
  144.0717  133.0460  149.0054 H   0  0  0  0  0  0  0  0  0  0  0  0
  145.4787  131.0291  149.2865 H   0  0  0  0  0  0  0  0  0  0  0  0
  146.2058  132.4587  149.9328 H   0  0  0  0  0  0  0  0  0  0  0  0
  144.9062  130.1826  151.4927 H   0  0  0  0  0  0  0  0  0  0  0  0
  146.5905  130.6010  151.4500 H   0  0  0  0  0  0  0  0  0  0  0  0
  144.3954  131.7639  153.1106 H   0  0  0  0  0  0  0  0  0  0  0  0
  146.0566  131.5014  153.5038 H   0  0  0  0  0  0  0  0  0  0  0  0
  145.3060  139.8387  153.0085 H   0  0  0  0  0  0  0  0  0  0  0  0
  149.3425  142.0420  155.4305 H   0  0  0  0  0  0  0  0  0  0  0  0
  1  2  2  0  0  0  0
  2  3  1  0  0  0  0
  2 14  1  0  0  0  0
  3  4  1  0  0  0  0
  3 20  1  0  0  0  0
  4  5  1  0  0  0  0
  4 21  1  0  0  0  0
  4 22  1  0  0  0  0
  5  6  1  0  0  0  0
  5 23  1  0  0  0  0
  5 24  1  0  0  0  0
  6 12  1  0  0  0  0
  6  7  1  0  0  0  0
  7  8  1  0  0  0  0
  7 25  1  0  0  0  0
  7 26  1  0  0  0  0
  8  9  1  0  0  0  0
  8 27  1  0  0  0  0
  8 28  1  0  0  0  0
  9 10  1  0  0  0  0
  9 29  1  0  0  0  0
  9 30  1  0  0  0  0
 10 11  1  0  0  0  0
 10 31  1  0  0  0  0
 10 32  1  0  0  0  0
 11 12  1  0  0  0  0
 11 33  1  0  0  0  0
 11 34  1  0  0  0  0
 12 13  2  0  0  0  0
 14 15  1  0  0  0  0
 14 35  1  0  0  0  0
 15 19  1  0  0  0  0
 15 16  2  0  0  0  0
 16 17  1  0  0  0  0
 17 18  2  0  0  0  0
 18 19  1  0  0  0  0
 18 36  1  0  0  0  0
M  END
> <s_m_source_file>
AV-unprocessed.smi

> <i_m_source_file_index>
1624

> <i_lp_mmshare_version>
43012

> <i_f3d_flags>
0

> <s_epik_input>
czFbY0hdbm5jMVtOSF1DKD1PKVtOSF1bQ0gyXVtDSDJdTjJbQ0gyXVtDSDJdW0NIMl1bQ0gyXVtDSDJdQzI9Tw==

> <s_epik_cmdline>
J2VwaWtfcHl0aG9uJywgJy1waCcsICc3LjAnLCAnLXRuJywgJzgnLCAnLW1hJywgJzIwMCcsICctbWV0YWxfYmluZGluZycsICctaW1hZScsICc8aW5maWxlLm1hZT4nLCAnLW9tYWUnLCAnPG91dGZpbGUubWFlPic=

> <r_lp_tautomer_probability>
1

> <r_epik_Ionization_Penalty>
0.00222419

> <r_epik_Ionization_Penalty_Charging>
0

> <r_epik_Ionization_Penalty_Neutral>
0.00222419

> <r_epik_State_Penalty>
-0

> <r_epik_Charging_Adjusted_Penalty>
0

> <i_epik_Tot_Q>
0

> <i_epik_Tot_abs_Q>
0

> <r_epik_Metal_State_Penalty>
0.3454

> <b_epik_Metal_Only>
0

> <s_lp_Force_Field>
OPLS_2005

> <r_lp_Energy>
20.1162

> <b_lp_Chiralities_Consistent>
1

> <s_lp_Variant>
AV-unprocessed.smi:1624-1

> <Gold.Version>
5.8.1

> <Gold.Id.Protein>
6NUR|6NUR_protein|mol2

> <Gold.PLP.Fitness>
41.9533

> <Gold.PLP.PLP>
-33.8304

> <Gold.PLP.part.hbond>
-3.0000

> <Gold.PLP.part.metal>
0.0000

> <Gold.PLP.part.buried>
-6.8045

> <Gold.PLP.part.nonpolar>
-26.4407

> <Gold.PLP.part.repulsive>
1.6835

> <Gold.PLP.ligand.clash>
0.0000

> <Gold.PLP.ligand.torsion>
0.3596

> <Gold.PLP.Chemscore.Hbond>
1.9440

> <Gold.PLP.Chemscore.CHOScore>
0.9997

> <Gold.PLP.Chemscore.Metal>
0.0000

> <Gold.Chemscore.Hbonds>
donor molecule, donor type, donor heavy atom, donor atom, acceptor molecule, acceptor atom, score
      L1  H     3    20       P1 10175  0.99
      L1  H    14    35       P1 10175  1.00
      L1  C    18    36       P1  8028  0.51

> <Gold.PLP.Chemscore.Internal.Correction>
0.0109

> <Gold.Rescore>
     Score         DG    S(hbond)    S(metal)    S(lipo)     H(rot)  DE(clash)    DE(int)     intcor
     13.60     -15.25       1.95        0.00      66.41       1.76       0.06       1.59       ----

> <Gold.Chemscore.Fitness>
13.6024

> <Gold.Chemscore.DG>
-15.2496

> <Gold.Chemscore.ZeroCoef>
-5.4800

> <Gold.Chemscore.Hbond>
1.9488

> <Gold.Chemscore.Metal>
0.0000

> <Gold.Chemscore.Lipo>
66.4126

> <Gold.Chemscore.Internal_Hbond>
0.0000

> <Gold.Chemscore.DEClash>
0.0551

> <Gold.Chemscore.DEInternal>
1.5921

> <Gold.Chemscore.Rot>
1.7615

> <Gold.Chemscore.Internal.Correction>
   9.000000E+99

> <Gold.Chemscore.Hbonds>
donor molecule, donor type, donor heavy atom, donor atom, acceptor molecule, acceptor atom, score
      L1  H     3    20       P1 10175  0.90
      L1  H    14    35       P1 10175  0.99

> <Gold.Chemscore.Hbond.Weighted>
-6.5088

> <Gold.Chemscore.Metal.Weighted>
-0.0000

> <Gold.Chemscore.Lipo.Weighted>
-7.7703

> <Gold.Chemscore.Internal_Hbond.Weighted>
0.0000

> <Gold.Chemscore.DEClash.Weighted>
0.0551

> <Gold.Chemscore.DEInternal.Weighted>
1.5921

> <Gold.Chemscore.Rot.Weighted>
4.5095

> <Gold.Chemscore.Internal.Correction.Weighted>
   9.000000E+99

> <Gold.Protein.RotatedTorsions>
[ 6907 6896 6895 6894 ] final   -0.86 input  -60.11 | X-H torsion
[ 7974 7965 7964 7962 ] final  173.80 input  175.53 | X-H torsion
[ 8008 7997 7996 7995 ] final  155.31 input   59.86 | X-H torsion
[ 10167 10162 10161 10158 ] final  -10.69 input  -65.29 | X-H torsion
[ 10718 10713 10712 10709 ] final  -32.83 input   66.30 | X-H torsion
[ 10763 10752 10751 10750 ] final   62.38 input  -60.55 | X-H torsion
[ 11005 11000 10999 10996 ] final -142.13 input  -57.11 | X-H torsion

> <Gold.Protein.ActiveResidues>
 VAL166  LYS551  ARG553  GLY616  TRP617  ASP618  TYR619  PRO620  LYS621  CYS622 
 ASP623  PHE694  ASN695  SER759  ASP760  ASP761  ALA762  ILE779  LEU786  VAL792 
 PHE793  MET794  SER795  GLU796  ALA797  LYS798  CYS799  TRP800  GLU811  SER814 

> <Gold.Protein.RotatedAtoms>
  151.5555  135.1066  159.9959 H   0  0  0  0  0  0  0  0  0  0  0  0  # atno 6907 bound_to 6896
  152.4471  133.7554  159.6727 H   0  0  0  0  0  0  0  0  0  0  0  0  # atno 6908 bound_to 6896
  150.8390  133.7899  159.3092 H   0  0  0  0  0  0  0  0  0  0  0  0  # atno 6909 bound_to 6896
  144.7235  139.9702  143.6437 H   0  0  0  0  0  0  0  0  0  0  0  0  # atno 7974 bound_to 7965
  156.2485  140.1943  156.6781 H   0  0  0  0  0  0  0  0  0  0  0  0  # atno 8008 bound_to 7997
  154.6343  140.0592  156.9795 H   0  0  0  0  0  0  0  0  0  0  0  0  # atno 8009 bound_to 7997
  155.1662  140.3264  155.4404 H   0  0  0  0  0  0  0  0  0  0  0  0  # atno 8010 bound_to 7997
  140.7120  143.5720  150.9082 H   0  0  0  0  0  0  0  0  0  0  0  0  # atno 10167 bound_to 10162
  156.3700  130.4338  149.7553 H   0  0  0  0  0  0  0  0  0  0  0  0  # atno 10718 bound_to 10713
  152.9981  135.5467  154.6184 H   0  0  0  0  0  0  0  0  0  0  0  0  # atno 10763 bound_to 10752
  154.5489  135.2825  155.1029 H   0  0  0  0  0  0  0  0  0  0  0  0  # atno 10764 bound_to 10752
  154.2277  135.6439  153.5218 H   0  0  0  0  0  0  0  0  0  0  0  0  # atno 10765 bound_to 10752
  140.8256  134.2579  157.4880 H   0  0  0  0  0  0  0  0  0  0  0  0  # atno 11005 bound_to 11000
  146.0569  139.3565  143.0605 LP  0  0  0  0  0  0  0  0  0  0  0  0  # atno 17320 bound_to 7965
  145.8143  140.9710  143.0932 LP  0  0  0  0  0  0  0  0  0  0  0  0  # atno 17321 bound_to 7965
  139.9446  143.6342  152.3045 LP  0  0  0  0  0  0  0  0  0  0  0  0  # atno 17342 bound_to 10162
  139.6839  144.7653  151.1559 LP  0  0  0  0  0  0  0  0  0  0  0  0  # atno 17343 bound_to 10162
  156.4684  130.7985  151.3003 LP  0  0  0  0  0  0  0  0  0  0  0  0  # atno 17370 bound_to 10713
  157.7483  131.0044  150.3073 LP  0  0  0  0  0  0  0  0  0  0  0  0  # atno 17371 bound_to 10713
  139.8706  134.9559  156.4220 LP  0  0  0  0  0  0  0  0  0  0  0  0  # atno 17394 bound_to 11000
  140.9053  133.7750  155.9727 LP  0  0  0  0  0  0  0  0  0  0  0  0  # atno 17395 bound_to 11000

$$$$
