AV-unprocessed.smi:970|AV-procd|sdf|4294|dock1
  -GOLD-   22720 2203D 1   1.00000     0.00000
 Structure written by MMmdl.
 31 31  0  0  0  0  0  0  0  0  1 V2000
  152.5050  144.7565  158.2806 C   0  0  0  0  0  0  0  0  0  0  0  0
  153.1341  143.7988  159.1767 N   0  0  0  0  0  0  0  0  0  0  0  0
  152.7475  142.5220  159.3091 C   0  0  0  0  0  0  0  0  0  0  0  0
  151.8056  142.0354  158.6809 O   0  0  0  0  0  0  0  0  0  0  0  0
  153.5380  141.6727  160.3182 C   0  0  1  0  0  0  0  0  0  0  0  0
  153.3887  142.3174  161.7063 C   0  0  0  0  0  0  0  0  0  0  0  0
  152.9933  140.3184  160.3916 N   0  0  0  0  0  0  0  0  0  0  0  0
  152.9244  139.4524  159.3669 C   0  0  0  0  0  0  0  0  0  0  0  0
  153.3286  139.7191  158.2344 O   0  0  0  0  0  0  0  0  0  0  0  0
  152.3055  138.0810  159.6774 C   0  0  1  0  0  0  0  0  0  0  0  0
  152.0019  137.2655  158.4039 C   0  0  0  0  0  0  0  0  0  0  0  0
  153.1501  137.3510  160.6152 N   0  0  0  0  0  0  0  0  0  0  0  0
  153.6177  137.7166  161.8111 C   0  0  0  0  0  0  0  0  0  0  0  0
  154.4090  136.8173  162.3787 N   0  0  0  0  0  0  0  0  0  0  0  0
  154.3967  135.8576  161.4069 C   0  0  0  0  0  0  0  0  0  0  0  0
  153.6680  136.1311  160.3252 N   0  0  0  0  0  0  0  0  0  0  0  0
  153.0491  145.7006  158.3037 H   0  0  0  0  0  0  0  0  0  0  0  0
  151.4747  144.9487  158.5825 H   0  0  0  0  0  0  0  0  0  0  0  0
  152.5048  144.3883  157.2538 H   0  0  0  0  0  0  0  0  0  0  0  0
  153.9161  144.1242  159.7266 H   0  0  0  0  0  0  0  0  0  0  0  0
  154.5937  141.6376  160.0414 H   0  0  0  0  0  0  0  0  0  0  0  0
  153.7817  143.3350  161.7156 H   0  0  0  0  0  0  0  0  0  0  0  0
  153.9391  141.7516  162.4587 H   0  0  0  0  0  0  0  0  0  0  0  0
  152.3461  142.3603  162.0253 H   0  0  0  0  0  0  0  0  0  0  0  0
  152.6305  140.0241  161.2865 H   0  0  0  0  0  0  0  0  0  0  0  0
  151.3522  138.2583  160.1785 H   0  0  0  0  0  0  0  0  0  0  0  0
  151.3206  137.8058  157.7459 H   0  0  0  0  0  0  0  0  0  0  0  0
  151.5285  136.3158  158.6542 H   0  0  0  0  0  0  0  0  0  0  0  0
  152.9044  137.0435  157.8329 H   0  0  0  0  0  0  0  0  0  0  0  0
  153.3780  138.6627  162.2741 H   0  0  0  0  0  0  0  0  0  0  0  0
  154.9470  134.9324  161.4960 H   0  0  0  0  0  0  0  0  0  0  0  0
  1  2  1  0  0  0  0
  1 17  1  0  0  0  0
  1 18  1  0  0  0  0
  1 19  1  0  0  0  0
  2  3  1  0  0  0  0
  2 20  1  0  0  0  0
  3  4  2  0  0  0  0
  3  5  1  0  0  0  0
  5  6  1  0  0  0  0
  5  7  1  0  0  0  0
  5 21  1  0  0  0  0
  6 22  1  0  0  0  0
  6 23  1  0  0  0  0
  6 24  1  0  0  0  0
  7  8  1  0  0  0  0
  7 25  1  0  0  0  0
  8  9  2  0  0  0  0
  8 10  1  0  0  0  0
 10 11  1  0  0  0  0
 10 12  1  0  0  0  0
 10 26  1  0  0  0  0
 11 27  1  0  0  0  0
 11 28  1  0  0  0  0
 11 29  1  0  0  0  0
 12 16  1  0  0  0  0
 12 13  1  0  0  0  0
 13 14  2  0  0  0  0
 13 30  1  0  0  0  0
 14 15  1  0  0  0  0
 15 16  2  0  0  0  0
 15 31  1  0  0  0  0
M  END
> <s_m_source_file>
AV-unprocessed.smi

> <i_m_source_file_index>
970

> <i_lp_mmshare_version>
43012

> <i_f3d_flags>
0

> <s_epik_input>
W0NIM11bTkhdQyg9TylbQ0BIXShbQ0gzXSlbTkhdQyg9TylbQ0BIXShbQ0gzXSluMVtjSF1uW2NIXW4x

> <s_epik_cmdline>
J2VwaWtfcHl0aG9uJywgJy1waCcsICc3LjAnLCAnLXRuJywgJzgnLCAnLW1hJywgJzIwMCcsICctbWV0YWxfYmluZGluZycsICctaW1hZScsICc8aW5maWxlLm1hZT4nLCAnLW9tYWUnLCAnPG91dGZpbGUubWFlPic=

> <r_lp_tautomer_probability>
1

> <r_epik_Ionization_Penalty>
1.07271e-05

> <r_epik_Ionization_Penalty_Charging>
0

> <r_epik_Ionization_Penalty_Neutral>
1.07271e-05

> <r_epik_State_Penalty>
-0

> <r_epik_Charging_Adjusted_Penalty>
0

> <i_epik_Tot_Q>
0

> <i_epik_Tot_abs_Q>
0

> <r_epik_Metal_State_Penalty>
-0

> <b_epik_Metal_Only>
0

> <s_lp_Force_Field>
OPLS_2005

> <r_lp_Energy>
8.70478

> <b_lp_Chiralities_Consistent>
1

> <s_lp_Variant>
AV-unprocessed.smi:970-4

> <Gold.Version>
5.8.1

> <Gold.Id.Protein>
6NUR|6NUR_protein|mol2

> <Gold.PLP.Fitness>
36.0017

> <Gold.PLP.PLP>
-30.2608

> <Gold.PLP.part.hbond>
-2.0000

> <Gold.PLP.part.metal>
0.0000

> <Gold.PLP.part.buried>
-3.9111

> <Gold.PLP.part.nonpolar>
-24.2206

> <Gold.PLP.part.repulsive>
0.1176

> <Gold.PLP.ligand.clash>
0.0000

> <Gold.PLP.ligand.torsion>
0.1906

> <Gold.PLP.Chemscore.Hbond>
2.0000

> <Gold.PLP.Chemscore.CHOScore>
0.0000

> <Gold.PLP.Chemscore.Metal>
0.0000

> <Gold.Chemscore.Hbonds>
donor molecule, donor type, donor heavy atom, donor atom, acceptor molecule, acceptor atom, score
      P1  H  6896  6909       L1    16  1.00
      P1  H  7997  8010       L1     9  1.00

> <Gold.PLP.Chemscore.Internal.Correction>
0.1220

> <Gold.Rescore>
     Score         DG    S(hbond)    S(metal)    S(lipo)     H(rot)  DE(clash)    DE(int)     intcor
      9.25     -10.92       1.97        0.00      46.91       2.59       0.03       1.63       ----

> <Gold.Chemscore.Fitness>
9.2527

> <Gold.Chemscore.DG>
-10.9173

> <Gold.Chemscore.ZeroCoef>
-5.4800

> <Gold.Chemscore.Hbond>
1.9662

> <Gold.Chemscore.Metal>
0.0000

> <Gold.Chemscore.Lipo>
46.9088

> <Gold.Chemscore.Internal_Hbond>
0.0000

> <Gold.Chemscore.DEClash>
0.0310

> <Gold.Chemscore.DEInternal>
1.6336

> <Gold.Chemscore.Rot>
2.5852

> <Gold.Chemscore.Internal.Correction>
   9.000000E+99

> <Gold.Chemscore.Hbonds>
donor molecule, donor type, donor heavy atom, donor atom, acceptor molecule, acceptor atom, score
      P1  H  6896  6909       L1    16  0.64
      P1  H  7997  8010       L1     9  1.00

> <Gold.Chemscore.Hbond.Weighted>
-6.5672

> <Gold.Chemscore.Metal.Weighted>
-0.0000

> <Gold.Chemscore.Lipo.Weighted>
-5.4883

> <Gold.Chemscore.Internal_Hbond.Weighted>
0.0000

> <Gold.Chemscore.DEClash.Weighted>
0.0310

> <Gold.Chemscore.DEInternal.Weighted>
1.6336

> <Gold.Chemscore.Rot.Weighted>
6.6182

> <Gold.Chemscore.Internal.Correction.Weighted>
   9.000000E+99

> <Gold.Protein.RotatedTorsions>
[ 6907 6896 6895 6894 ] final  166.65 input  -60.11 | X-H torsion
[ 7974 7965 7964 7962 ] final   56.41 input  175.53 | X-H torsion
[ 8008 7997 7996 7995 ] final   38.78 input   59.86 | X-H torsion
[ 10167 10162 10161 10158 ] final  147.81 input  -65.29 | X-H torsion
[ 10718 10713 10712 10709 ] final -111.92 input   66.30 | X-H torsion
[ 10763 10752 10751 10750 ] final  -90.84 input  -60.55 | X-H torsion
[ 11005 11000 10999 10996 ] final  113.88 input  -57.11 | X-H torsion

> <Gold.Protein.ActiveResidues>
 VAL166  LYS551  ARG553  GLY616  TRP617  ASP618  TYR619  PRO620  LYS621  CYS622 
 ASP623  PHE694  ASN695  SER759  ASP760  ASP761  ALA762  ILE779  LEU786  VAL792 
 PHE793  MET794  SER795  GLU796  ALA797  LYS798  CYS799  TRP800  GLU811  SER814 

> <Gold.Protein.RotatedAtoms>
  151.8756  133.3484  159.3748 H   0  0  0  0  0  0  0  0  0  0  0  0  # atno 6907 bound_to 6896
  150.7141  134.5070  159.5598 H   0  0  0  0  0  0  0  0  0  0  0  0  # atno 6908 bound_to 6896
  152.2611  134.8033  160.0481 H   0  0  0  0  0  0  0  0  0  0  0  0  # atno 6909 bound_to 6896
  145.9401  139.3881  143.0369 H   0  0  0  0  0  0  0  0  0  0  0  0  # atno 7974 bound_to 7965
  155.2258  140.3334  155.4309 H   0  0  0  0  0  0  0  0  0  0  0  0  # atno 8008 bound_to 7997
  156.2315  140.1852  156.7277 H   0  0  0  0  0  0  0  0  0  0  0  0  # atno 8009 bound_to 7997
  154.5985  140.0627  156.9322 H   0  0  0  0  0  0  0  0  0  0  0  0  # atno 8010 bound_to 7997
  139.4884  144.5727  151.7023 H   0  0  0  0  0  0  0  0  0  0  0  0  # atno 10167 bound_to 10162
  156.0675  130.5893  150.8439 H   0  0  0  0  0  0  0  0  0  0  0  0  # atno 10718 bound_to 10713
  154.6699  135.5289  153.8125 H   0  0  0  0  0  0  0  0  0  0  0  0  # atno 10763 bound_to 10752
  153.0495  135.6526  154.0740 H   0  0  0  0  0  0  0  0  0  0  0  0  # atno 10764 bound_to 10752
  154.0640  135.2959  155.3300 H   0  0  0  0  0  0  0  0  0  0  0  0  # atno 10765 bound_to 10752
  139.8965  134.9558  156.6806 H   0  0  0  0  0  0  0  0  0  0  0  0  # atno 11005 bound_to 11000
  145.8311  140.9630  143.0848 LP  0  0  0  0  0  0  0  0  0  0  0  0  # atno 17320 bound_to 7965
  144.6778  140.0164  143.7484 LP  0  0  0  0  0  0  0  0  0  0  0  0  # atno 17321 bound_to 7965
  140.5318  144.0719  150.6056 LP  0  0  0  0  0  0  0  0  0  0  0  0  # atno 17342 bound_to 10162
  140.3711  143.2854  152.0277 LP  0  0  0  0  0  0  0  0  0  0  0  0  # atno 17343 bound_to 10162
  157.5726  131.0946  150.9394 LP  0  0  0  0  0  0  0  0  0  0  0  0  # atno 17370 bound_to 10713
  156.9607  130.5454  149.5286 LP  0  0  0  0  0  0  0  0  0  0  0  0  # atno 17371 bound_to 10713
  140.7302  133.9065  155.8206 LP  0  0  0  0  0  0  0  0  0  0  0  0  # atno 17394 bound_to 11000
  141.0159  134.0956  157.4172 LP  0  0  0  0  0  0  0  0  0  0  0  0  # atno 17395 bound_to 11000

$$$$
