AV-unprocessed.smi:2698|AV-procd|sdf|10417|dock7
  -GOLD-   2272014453D 1   1.00000     0.00000
 Structure written by MMmdl.
 34 34  0  0  0  0  0  0  0  0  3 V2000
  152.0877  141.9746  159.3553 C   0  0  0  0  0  0  0  0  0  0  0  0
  151.9745  142.7034  158.0032 C   0  0  0  0  0  0  0  0  0  0  0  0
  152.0352  144.2245  158.2071 C   0  0  0  0  0  0  0  0  0  0  0  0
  150.7105  142.3148  157.2019 C   0  0  0  0  0  0  0  0  0  0  0  0
  150.7206  140.8613  156.7227 C   0  0  0  0  0  0  0  0  0  0  0  0
  150.7564  139.9426  157.5410 O   0  0  0  0  0  0  0  0  0  0  0  0
  150.6906  140.6750  155.3943 N   0  0  0  0  0  0  0  0  0  0  0  0
  150.7228  139.3887  154.6987 C   0  0  2  0  0  0  0  0  0  0  0  0
  149.4162  138.6143  154.9744 C   0  0  0  0  0  0  0  0  0  0  0  0
  148.2020  139.0776  154.2022 C   0  0  0  0  0  0  0  0  0  0  0  0
  147.1933  139.9702  154.5215 C   0  0  0  0  0  0  0  0  0  0  0  0
  146.3322  140.0317  153.4386 N   0  0  0  0  0  0  0  0  0  0  0  0
  146.8271  139.2182  152.5085 C   0  0  0  0  0  0  0  0  0  0  0  0
  147.9501  138.6292  152.9147 N   0  3  0  0  0  0  0  0  0  0  0  0
  151.9426  138.5910  155.1716 C   0  0  0  0  0  0  0  0  0  0  0  0
  152.0160  137.3911  154.8240 O   0  0  0  0  0  0  0  0  0  0  0  0
  152.7858  139.1980  155.8666 O   0  5  0  0  0  0  0  0  0  0  0  0
  145.4952  140.5927  153.3670 H   0  0  0  0  0  0  0  0  0  0  0  0
  151.2145  142.1639  159.9804 H   0  0  0  0  0  0  0  0  0  0  0  0
  152.9681  142.3067  159.9062 H   0  0  0  0  0  0  0  0  0  0  0  0
  152.1806  140.8962  159.2286 H   0  0  0  0  0  0  0  0  0  0  0  0
  152.8475  142.4267  157.4097 H   0  0  0  0  0  0  0  0  0  0  0  0
  151.1866  144.5799  158.7925 H   0  0  0  0  0  0  0  0  0  0  0  0
  152.0244  144.7505  157.2520 H   0  0  0  0  0  0  0  0  0  0  0  0
  152.9461  144.5170  158.7301 H   0  0  0  0  0  0  0  0  0  0  0  0
  149.8183  142.4779  157.8081 H   0  0  0  0  0  0  0  0  0  0  0  0
  150.6068  142.9665  156.3326 H   0  0  0  0  0  0  0  0  0  0  0  0
  150.6263  141.4942  154.8069 H   0  0  0  0  0  0  0  0  0  0  0  0
  150.8220  139.5337  153.6211 H   0  0  0  0  0  0  0  0  0  0  0  0
  149.5574  137.5567  154.7470 H   0  0  0  0  0  0  0  0  0  0  0  0
  149.1783  138.6665  156.0383 H   0  0  0  0  0  0  0  0  0  0  0  0
  147.0091  140.5597  155.4071 H   0  0  0  0  0  0  0  0  0  0  0  0
  146.3745  139.0575  151.5408 H   0  0  0  0  0  0  0  0  0  0  0  0
  148.5100  137.9732  152.3886 H   0  0  0  0  0  0  0  0  0  0  0  0
  1  2  1  0  0  0  0
  1 19  1  0  0  0  0
  1 20  1  0  0  0  0
  1 21  1  0  0  0  0
  2  3  1  0  0  0  0
  2  4  1  0  0  0  0
  2 22  1  0  0  0  0
  3 23  1  0  0  0  0
  3 24  1  0  0  0  0
  3 25  1  0  0  0  0
  4  5  1  0  0  0  0
  4 26  1  0  0  0  0
  4 27  1  0  0  0  0
  5  6  2  0  0  0  0
  5  7  1  0  0  0  0
  7  8  1  0  0  0  0
  7 28  1  0  0  0  0
  8  9  1  0  0  0  0
  8 15  1  0  0  0  0
  8 29  1  0  0  0  0
  9 10  1  0  0  0  0
  9 30  1  0  0  0  0
  9 31  1  0  0  0  0
 10 14  1  0  0  0  0
 10 11  2  0  0  0  0
 11 12  1  0  0  0  0
 11 32  1  0  0  0  0
 12 18  1  0  0  0  0
 12 13  1  0  0  0  0
 13 14  2  0  0  0  0
 13 33  1  0  0  0  0
 14 34  1  0  0  0  0
 15 16  2  0  0  0  0
 15 17  1  0  0  0  0
M  CHG  1  14   1
M  CHG  1  17  -1
M  END
> <s_m_source_file>
AV-unprocessed.smi

> <i_m_source_file_index>
2698

> <i_lp_mmshare_version>
43012

> <i_f3d_flags>
0

> <s_epik_input>
W0NIM11bQ0hdKFtDSDNdKVtDSDJdQyg9TylbTkhdW0NAQEhdKEMoPU8pW09IXSlbQ0gyXWMxW2NIXVtuSF1bY0hdbjE=

> <s_epik_cmdline>
J2VwaWtfcHl0aG9uJywgJy1waCcsICc3LjAnLCAnLXRuJywgJzgnLCAnLW1hJywgJzIwMCcsICctbWV0YWxfYmluZGluZycsICctaW1hZScsICc8aW5maWxlLm1hZT4nLCAnLW9tYWUnLCAnPG91dGZpbGUubWFlPic=

> <r_lp_tautomer_probability>
1

> <r_epik_Ionization_Penalty>
0.478676

> <r_epik_Ionization_Penalty_Charging>
5.56794e-05

> <r_epik_Ionization_Penalty_Neutral>
0.478621

> <r_epik_State_Penalty>
0.385221

> <r_epik_Charging_Adjusted_Penalty>
0.385276

> <i_epik_Tot_Q>
0

> <i_epik_Tot_abs_Q>
2

> <r_epik_Metal_State_Penalty>
0.800557

> <b_epik_Metal_Only>
0

> <s_lp_Force_Field>
OPLS_2005

> <r_lp_Energy>
0.68782

> <b_lp_Chiralities_Consistent>
1

> <s_lp_Variant>
AV-unprocessed.smi:2698-1

> <Gold.Version>
5.8.1

> <Gold.Id.Protein>
6NUR|6NUR_protein|mol2

> <Gold.PLP.Fitness>
53.4987

> <Gold.PLP.PLP>
-31.9157

> <Gold.PLP.part.hbond>
-4.9702

> <Gold.PLP.part.metal>
0.0000

> <Gold.PLP.part.buried>
-4.3582

> <Gold.PLP.part.nonpolar>
-23.9992

> <Gold.PLP.part.repulsive>
1.4441

> <Gold.PLP.ligand.clash>
0.0000

> <Gold.PLP.ligand.torsion>
0.8068

> <Gold.PLP.Chemscore.Hbond>
7.7120

> <Gold.PLP.Chemscore.CHOScore>
0.0000

> <Gold.PLP.Chemscore.Metal>
0.0000

> <Gold.Chemscore.Hbonds>
donor molecule, donor type, donor heavy atom, donor atom, acceptor molecule, acceptor atom, score
      L1  H    12    18       P1 10175  1.54
      L1  H    14    34       P1  7948  2.00
      P1  H  7997  8009       L1    17  2.00
      P1  H 10752 10765       L1    16  1.73

> <Gold.PLP.Chemscore.Internal.Correction>
0.0604

> <Gold.Rescore>
     Score         DG    S(hbond)    S(metal)    S(lipo)     H(rot)  DE(clash)    DE(int)     intcor
     11.16     -16.80       3.75        0.00      57.22       3.09       0.07       5.57       ----

> <Gold.Chemscore.Fitness>
11.1647

> <Gold.Chemscore.DG>
-16.7976

> <Gold.Chemscore.ZeroCoef>
-5.4800

> <Gold.Chemscore.Hbond>
3.7516

> <Gold.Chemscore.Metal>
0.0000

> <Gold.Chemscore.Lipo>
57.2174

> <Gold.Chemscore.Internal_Hbond>
0.0000

> <Gold.Chemscore.DEClash>
0.0650

> <Gold.Chemscore.DEInternal>
5.5679

> <Gold.Chemscore.Rot>
3.0887

> <Gold.Chemscore.Internal.Correction>
   9.000000E+99

> <Gold.Chemscore.Hbonds>
donor molecule, donor type, donor heavy atom, donor atom, acceptor molecule, acceptor atom, score
      L1  H    12    18       P1 10175  0.68
      L1  H    14    34       P1  7948  0.98
      P1  H  7997  8009       L1    17  0.97
      P1  H 10752 10765       L1    16  0.81

> <Gold.Chemscore.Hbond.Weighted>
-12.5302

> <Gold.Chemscore.Metal.Weighted>
-0.0000

> <Gold.Chemscore.Lipo.Weighted>
-6.6944

> <Gold.Chemscore.Internal_Hbond.Weighted>
0.0000

> <Gold.Chemscore.DEClash.Weighted>
0.0650

> <Gold.Chemscore.DEInternal.Weighted>
5.5679

> <Gold.Chemscore.Rot.Weighted>
7.9070

> <Gold.Chemscore.Internal.Correction.Weighted>
   9.000000E+99

> <Gold.Protein.RotatedTorsions>
[ 6907 6896 6895 6894 ] final -142.65 input  -60.11 | X-H torsion
[ 7974 7965 7964 7962 ] final -137.77 input  175.53 | X-H torsion
[ 8008 7997 7996 7995 ] final -173.47 input   59.86 | X-H torsion
[ 10167 10162 10161 10158 ] final  -94.05 input  -65.29 | X-H torsion
[ 10718 10713 10712 10709 ] final  -28.27 input   66.30 | X-H torsion
[ 10763 10752 10751 10750 ] final  175.33 input  -60.55 | X-H torsion
[ 11005 11000 10999 10996 ] final   36.65 input  -57.11 | X-H torsion

> <Gold.Protein.ActiveResidues>
 VAL166  LYS551  ARG553  GLY616  TRP617  ASP618  TYR619  PRO620  LYS621  CYS622 
 ASP623  PHE694  ASN695  SER759  ASP760  ASP761  ALA762  ILE779  LEU786  VAL792 
 PHE793  MET794  SER795  GLU796  ALA797  LYS798  CYS799  TRP800  GLU811  SER814 

> <Gold.Protein.RotatedAtoms>
  151.0900  133.5323  159.2615 H   0  0  0  0  0  0  0  0  0  0  0  0  # atno 6907 bound_to 6896
  151.2194  135.0512  159.8953 H   0  0  0  0  0  0  0  0  0  0  0  0  # atno 6908 bound_to 6896
  152.5433  134.0704  159.8245 H   0  0  0  0  0  0  0  0  0  0  0  0  # atno 6909 bound_to 6896
  144.8814  140.6513  143.5203 H   0  0  0  0  0  0  0  0  0  0  0  0  # atno 7974 bound_to 7965
  155.9578  140.1138  157.0922 H   0  0  0  0  0  0  0  0  0  0  0  0  # atno 8008 bound_to 7997
  154.4124  140.1188  156.5205 H   0  0  0  0  0  0  0  0  0  0  0  0  # atno 8009 bound_to 7997
  155.6760  140.3473  155.4839 H   0  0  0  0  0  0  0  0  0  0  0  0  # atno 8010 bound_to 7997
  140.3184  143.3063  152.0073 H   0  0  0  0  0  0  0  0  0  0  0  0  # atno 10167 bound_to 10162
  156.4274  130.4438  149.7141 H   0  0  0  0  0  0  0  0  0  0  0  0  # atno 10718 bound_to 10713
  154.4661  135.2769  155.1677 H   0  0  0  0  0  0  0  0  0  0  0  0  # atno 10763 bound_to 10752
  154.3445  135.6163  153.5616 H   0  0  0  0  0  0  0  0  0  0  0  0  # atno 10764 bound_to 10752
  152.9859  135.5796  154.5032 H   0  0  0  0  0  0  0  0  0  0  0  0  # atno 10765 bound_to 10752
  140.2304  134.3534  155.7966 H   0  0  0  0  0  0  0  0  0  0  0  0  # atno 11005 bound_to 11000
  145.3947  139.1609  143.4210 LP  0  0  0  0  0  0  0  0  0  0  0  0  # atno 17320 bound_to 7965
  146.2997  140.4039  142.8708 LP  0  0  0  0  0  0  0  0  0  0  0  0  # atno 17321 bound_to 7965
  139.4879  144.6330  151.7032 LP  0  0  0  0  0  0  0  0  0  0  0  0  # atno 17342 bound_to 10162
  140.5505  144.0432  150.6125 LP  0  0  0  0  0  0  0  0  0  0  0  0  # atno 17343 bound_to 10162
  156.4057  130.7697  151.2707 LP  0  0  0  0  0  0  0  0  0  0  0  0  # atno 17370 bound_to 10713
  157.7508  131.0226  150.3800 LP  0  0  0  0  0  0  0  0  0  0  0  0  # atno 17371 bound_to 10713
  141.2218  133.7242  156.8722 LP  0  0  0  0  0  0  0  0  0  0  0  0  # atno 17394 bound_to 11000
  140.1756  134.9069  157.2887 LP  0  0  0  0  0  0  0  0  0  0  0  0  # atno 17395 bound_to 11000

$$$$
