AV-unprocessed.smi:72|AV-procd|sdf|705|dock4
  -GOLD-   2262017 23D 1   1.00000     0.00000
 Structure written by MMmdl.
 30 31  0  0  0  0  0  0  0  0  2 V2000
  146.0334  138.9995  152.0929 N   0  0  0  0  0  0  0  0  0  0  0  0
  147.0587  139.3745  152.9362 C   0  0  0  0  0  0  0  0  0  0  0  0
  148.1750  138.5593  152.9931 N   0  3  0  0  0  0  0  0  0  0  0  0
  149.2543  138.7813  153.7558 C   0  0  0  0  0  0  0  0  0  0  0  0
  149.2850  139.8509  154.5250 N   0  0  0  0  0  0  0  0  0  0  0  0
  150.4673  140.1601  155.4118 C   0  0  2  0  0  0  0  0  0  0  0  0
  151.6383  139.9048  154.6961 O   0  0  0  0  0  0  0  0  0  0  0  0
  152.2603  138.7177  155.1788 C   0  0  1  0  0  0  0  0  0  0  0  0
  153.7570  138.6889  154.8250 C   0  0  0  0  0  0  0  0  0  0  0  0
  154.4391  137.8156  155.6994 O   0  0  0  0  0  0  0  0  0  0  0  0
  151.9309  138.7470  156.6759 C   0  0  1  0  0  0  0  0  0  0  0  0
  152.8012  139.6177  157.3754 O   0  0  0  0  0  0  0  0  0  0  0  0
  150.5085  139.2913  156.6926 C   0  0  2  0  0  0  0  0  0  0  0  0
  149.5890  138.2120  156.6829 O   0  0  0  0  0  0  0  0  0  0  0  0
  148.1840  140.7457  154.5365 C   0  0  0  0  0  0  0  0  0  0  0  0
  148.1998  141.7423  155.2582 O   0  0  0  0  0  0  0  0  0  0  0  0
  147.1022  140.4296  153.7015 N   0  0  0  0  0  0  0  0  0  0  0  0
  150.4216  141.2322  155.6107 H   0  0  0  0  0  0  0  0  0  0  0  0
  151.7608  137.8489  154.7466 H   0  0  0  0  0  0  0  0  0  0  0  0
  152.0096  137.7580  157.1299 H   0  0  0  0  0  0  0  0  0  0  0  0
  150.3064  139.9111  157.5674 H   0  0  0  0  0  0  0  0  0  0  0  0
  145.1823  139.5336  151.9863 H   0  0  0  0  0  0  0  0  0  0  0  0
  146.0483  138.1681  151.5196 H   0  0  0  0  0  0  0  0  0  0  0  0
  150.0764  138.0793  153.7215 H   0  0  0  0  0  0  0  0  0  0  0  0
  153.9176  138.3886  153.7890 H   0  0  0  0  0  0  0  0  0  0  0  0
  154.1919  139.6810  154.9496 H   0  0  0  0  0  0  0  0  0  0  0  0
  154.6787  138.2957  156.4776 H   0  0  0  0  0  0  0  0  0  0  0  0
  152.2995  140.3485  157.7032 H   0  0  0  0  0  0  0  0  0  0  0  0
  149.8977  137.5509  157.2843 H   0  0  0  0  0  0  0  0  0  0  0  0
  148.1740  137.7331  152.4121 H   0  0  0  0  0  0  0  0  0  0  0  0
  1  2  1  0  0  0  0
  1 22  1  0  0  0  0
  1 23  1  0  0  0  0
  2 17  2  0  0  0  0
  2  3  1  0  0  0  0
  3  4  2  0  0  0  0
  3 30  1  0  0  0  0
  4  5  1  0  0  0  0
  4 24  1  0  0  0  0
  5  6  1  0  0  0  0
  5 15  1  0  0  0  0
  6 18  1  0  0  0  0
  6 13  1  0  0  0  0
  6  7  1  0  0  0  0
  7  8  1  0  0  0  0
  8 19  1  0  0  0  0
  8  9  1  0  0  0  0
  8 11  1  0  0  0  0
  9 10  1  0  0  0  0
  9 25  1  0  0  0  0
  9 26  1  0  0  0  0
 10 27  1  0  0  0  0
 11 20  1  0  0  0  0
 11 12  1  0  0  0  0
 11 13  1  0  0  0  0
 12 28  1  0  0  0  0
 13 21  1  0  0  0  0
 13 14  1  0  0  0  0
 14 29  1  0  0  0  0
 15 16  2  0  0  0  0
 15 17  1  0  0  0  0
M  CHG  1   3   1
M  END
> <s_m_source_file>
AV-unprocessed.smi

> <i_m_source_file_index>
72

> <i_lp_mmshare_version>
43012

> <i_f3d_flags>
0

> <s_epik_input>
W05IMl1jMW5bY0hdbihjKD1PKW4xKVtDQEBIXTJPW0NASF0oW0NIMl1bT0hdKVtDQEBIXShbT0hdKVtDQEhdMltPSF0=

> <s_epik_cmdline>
J2VwaWtfcHl0aG9uJywgJy1waCcsICc3LjAnLCAnLXRuJywgJzgnLCAnLW1hJywgJzIwMCcsICctbWV0YWxfYmluZGluZycsICctaW1hZScsICc8aW5maWxlLm1hZT4nLCAnLW9tYWUnLCAnPG91dGZpbGUubWFlPic=

> <r_lp_tautomer_probability>
4.77166e-05

> <r_epik_Ionization_Penalty>
0.104979

> <r_epik_Ionization_Penalty_Charging>
0.0999619

> <r_epik_Ionization_Penalty_Neutral>
0.00501745

> <r_epik_State_Penalty>
2.51541

> <r_epik_Charging_Adjusted_Penalty>
2.61537

> <i_epik_Tot_Q>
1

> <i_epik_Tot_abs_Q>
1

> <r_epik_Metal_State_Penalty>
3.53763

> <b_epik_Metal_Only>
0

> <s_epik_Chemistry_Notes>
This compound contains an acetal/aminal-like group ( X-CH(R)-Y where X, Y are N, S, or O) that may be acid/base labile, releasing an aldehyde.

> <s_lp_Force_Field>
OPLS_2005

> <r_lp_Energy>
35.1753

> <b_lp_Chiralities_Consistent>
1

> <s_lp_Variant>
AV-unprocessed.smi:72-43

> <Gold.Version>
5.8.1

> <Gold.Id.Protein>
6NUR|6NUR_protein|mol2

> <Gold.PLP.Fitness>
38.9256

> <Gold.PLP.PLP>
-24.8031

> <Gold.PLP.part.hbond>
-7.4396

> <Gold.PLP.part.metal>
0.0000

> <Gold.PLP.part.buried>
0.7240

> <Gold.PLP.part.nonpolar>
-19.3133

> <Gold.PLP.part.repulsive>
0.9510

> <Gold.PLP.ligand.clash>
0.0000

> <Gold.PLP.ligand.torsion>
0.6566

> <Gold.PLP.Chemscore.Hbond>
5.0000

> <Gold.PLP.Chemscore.CHOScore>
0.1139

> <Gold.PLP.Chemscore.Metal>
0.0000

> <Gold.Chemscore.Hbonds>
donor molecule, donor type, donor heavy atom, donor atom, acceptor molecule, acceptor atom, score
      L1  H     1    22       P1 10175  1.00
      L1  H     3    30       P1  7948  2.00
      P1  H  7989  7998       L1     7  1.00
      P1  H  7997  8010       L1    12  1.00
      L1  C     4    24       P1  7948  0.11

> <Gold.PLP.Chemscore.Internal.Correction>
0.0938

> <Gold.Rescore>
     Score         DG    S(hbond)    S(metal)    S(lipo)     H(rot)  DE(clash)    DE(int)     intcor
      8.88     -10.60       3.73        0.00      26.37       4.08       0.20       1.52       ----

> <Gold.Chemscore.Fitness>
8.8754

> <Gold.Chemscore.DG>
-10.5960

> <Gold.Chemscore.ZeroCoef>
-5.4800

> <Gold.Chemscore.Hbond>
3.7340

> <Gold.Chemscore.Metal>
0.0000

> <Gold.Chemscore.Lipo>
26.3667

> <Gold.Chemscore.Internal_Hbond>
0.0000

> <Gold.Chemscore.DEClash>
0.1973

> <Gold.Chemscore.DEInternal>
1.5233

> <Gold.Chemscore.Rot>
4.0783

> <Gold.Chemscore.Internal.Correction>
   9.000000E+99

> <Gold.Chemscore.Hbonds>
donor molecule, donor type, donor heavy atom, donor atom, acceptor molecule, acceptor atom, score
      L1  H     1    22       P1 10175  0.94
      L1  H     3    30       P1  7948  0.94
      P1  H  7989  7998       L1     7  0.56
      P1  H  7997  8010       L1    12  0.87

> <Gold.Chemscore.Hbond.Weighted>
-12.4715

> <Gold.Chemscore.Metal.Weighted>
-0.0000

> <Gold.Chemscore.Lipo.Weighted>
-3.0849

> <Gold.Chemscore.Internal_Hbond.Weighted>
0.0000

> <Gold.Chemscore.DEClash.Weighted>
0.1973

> <Gold.Chemscore.DEInternal.Weighted>
1.5233

> <Gold.Chemscore.Rot.Weighted>
10.4404

> <Gold.Chemscore.Internal.Correction.Weighted>
   9.000000E+99

> <Gold.Protein.RotatedTorsions>
[ 6907 6896 6895 6894 ] final  -53.43 input  -60.11 | X-H torsion
[ 7974 7965 7964 7962 ] final  -50.09 input  175.53 | X-H torsion
[ 8008 7997 7996 7995 ] final   38.80 input   59.86 | X-H torsion
[ 10167 10162 10161 10158 ] final -175.72 input  -65.29 | X-H torsion
[ 10718 10713 10712 10709 ] final  -45.13 input   66.30 | X-H torsion
[ 10763 10752 10751 10750 ] final  -76.02 input  -60.55 | X-H torsion
[ 11005 11000 10999 10996 ] final  -35.48 input  -57.11 | X-H torsion

> <Gold.Protein.ActiveResidues>
 VAL166  LYS551  ARG553  GLY616  TRP617  ASP618  TYR619  PRO620  LYS621  CYS622 
 ASP623  PHE694  ASN695  SER759  ASP760  ASP761  ALA762  ILE779  LEU786  VAL792 
 PHE793  MET794  SER795  GLU796  ALA797  LYS798  CYS799  TRP800  GLU811  SER814 

> <Gold.Protein.RotatedAtoms>
  150.8427  134.7725  159.6945 H   0  0  0  0  0  0  0  0  0  0  0  0  # atno 6907 bound_to 6896
  152.4511  134.5388  159.9843 H   0  0  0  0  0  0  0  0  0  0  0  0  # atno 6908 bound_to 6896
  151.5525  133.3377  159.2991 H   0  0  0  0  0  0  0  0  0  0  0  0  # atno 6909 bound_to 6896
  145.9336  140.7727  142.9587 H   0  0  0  0  0  0  0  0  0  0  0  0  # atno 7974 bound_to 7965
  155.2261  140.3334  155.4309 H   0  0  0  0  0  0  0  0  0  0  0  0  # atno 8008 bound_to 7997
  156.2314  140.1852  156.7280 H   0  0  0  0  0  0  0  0  0  0  0  0  # atno 8009 bound_to 7997
  154.5984  140.0627  156.9320 H   0  0  0  0  0  0  0  0  0  0  0  0  # atno 8010 bound_to 7997
  139.5566  144.1974  152.1169 H   0  0  0  0  0  0  0  0  0  0  0  0  # atno 10167 bound_to 10162
  156.2315  130.4173  149.8869 H   0  0  0  0  0  0  0  0  0  0  0  0  # atno 10718 bound_to 10713
  154.4942  135.5812  153.6482 H   0  0  0  0  0  0  0  0  0  0  0  0  # atno 10763 bound_to 10752
  152.9867  135.6120  154.3085 H   0  0  0  0  0  0  0  0  0  0  0  0  # atno 10764 bound_to 10752
  154.2987  135.2847  155.2600 H   0  0  0  0  0  0  0  0  0  0  0  0  # atno 10765 bound_to 10752
  140.9799  133.7062  156.1667 H   0  0  0  0  0  0  0  0  0  0  0  0  # atno 11005 bound_to 11000
  144.6768  140.2167  143.7371 LP  0  0  0  0  0  0  0  0  0  0  0  0  # atno 17320 bound_to 7965
  145.8393  139.2122  143.1836 LP  0  0  0  0  0  0  0  0  0  0  0  0  # atno 17321 bound_to 7965
  140.1479  144.5142  150.6705 LP  0  0  0  0  0  0  0  0  0  0  0  0  # atno 17342 bound_to 10162
  140.6840  143.2340  151.5310 LP  0  0  0  0  0  0  0  0  0  0  0  0  # atno 17343 bound_to 10162
  156.6481  130.8732  151.3526 LP  0  0  0  0  0  0  0  0  0  0  0  0  # atno 17370 bound_to 10713
  157.7135  130.9469  150.1172 LP  0  0  0  0  0  0  0  0  0  0  0  0  # atno 17371 bound_to 10713
  140.7202  134.4367  157.5575 LP  0  0  0  0  0  0  0  0  0  0  0  0  # atno 17394 bound_to 11000
  139.8946  134.8703  156.2170 LP  0  0  0  0  0  0  0  0  0  0  0  0  # atno 17395 bound_to 11000

$$$$
