AV-unprocessed.smi:1158|AV-procd|sdf|4913|dock4
  -GOLD-   22720 3493D 1   1.00000     0.00000
 Structure written by MMmdl.
 43 44  0  0  0  0  0  0  0  0  2 V2000
  151.8849  145.3010  158.7814 C   0  0  0  0  0  0  0  0  0  0  0  0
  151.3094  144.2378  158.0301 O   0  0  0  0  0  0  0  0  0  0  0  0
  151.6574  142.9393  158.3509 C   0  0  0  0  0  0  0  0  0  0  0  0
  152.5482  142.7393  159.3543 N   0  0  0  0  0  0  0  0  0  0  0  0
  152.8932  141.4729  159.6643 C   0  0  0  0  0  0  0  0  0  0  0  0
  152.3798  140.3485  158.9926 C   0  0  0  0  0  0  0  0  0  0  0  0
  151.4545  140.5529  157.9524 C   0  0  0  0  0  0  0  0  0  0  0  0
  151.0708  141.8762  157.6247 C   0  0  0  0  0  0  0  0  0  0  0  0
  150.1578  142.2035  156.5840 N   0  0  0  0  0  0  0  0  0  0  0  0
  149.5158  141.3843  155.7346 C   0  0  0  0  0  0  0  0  0  0  0  0
  149.6245  140.1592  155.7008 O   0  0  0  0  0  0  0  0  0  0  0  0
  148.7122  142.0774  154.9156 N   0  0  0  0  0  0  0  0  0  0  0  0
  147.8471  141.5022  153.8861 C   0  0  2  0  0  0  0  0  0  0  0  0
  146.9107  142.5555  153.2641 C   0  0  0  0  0  0  0  0  0  0  0  0
  145.8383  143.0287  154.2607 C   0  0  0  0  0  0  0  0  0  0  0  0
  145.0474  141.8879  154.7932 N   0  3  2  0  0  0  0  0  0  0  0  0
  143.9301  142.3506  155.6582 C   0  0  0  0  0  0  0  0  0  0  0  0
  144.3145  143.5166  156.5861 C   0  0  0  0  0  0  0  0  0  0  0  0
  143.3023  143.8805  157.3721 F   0  0  0  0  0  0  0  0  0  0  0  0
  145.3342  143.1478  157.3604 F   0  0  0  0  0  0  0  0  0  0  0  0
  145.9217  140.8737  155.4417 C   0  0  0  0  0  0  0  0  0  0  0  0
  147.0051  140.3588  154.4748 C   0  0  0  0  0  0  0  0  0  0  0  0
  151.5135  146.2526  158.4017 H   0  0  0  0  0  0  0  0  0  0  0  0
  152.9721  145.3112  158.6912 H   0  0  0  0  0  0  0  0  0  0  0  0
  151.6131  145.2370  159.8360 H   0  0  0  0  0  0  0  0  0  0  0  0
  153.6050  141.3532  160.4675 H   0  0  0  0  0  0  0  0  0  0  0  0
  152.6923  139.3515  159.2658 H   0  0  0  0  0  0  0  0  0  0  0  0
  151.0730  139.6944  157.4224 H   0  0  0  0  0  0  0  0  0  0  0  0
  149.9084  143.1802  156.5297 H   0  0  0  0  0  0  0  0  0  0  0  0
  148.6799  143.0800  155.0280 H   0  0  0  0  0  0  0  0  0  0  0  0
  148.4850  141.0879  153.1034 H   0  0  0  0  0  0  0  0  0  0  0  0
  147.4807  143.4087  152.8946 H   0  0  0  0  0  0  0  0  0  0  0  0
  146.4190  142.1240  152.3911 H   0  0  0  0  0  0  0  0  0  0  0  0
  146.3015  143.5699  155.0873 H   0  0  0  0  0  0  0  0  0  0  0  0
  145.1758  143.7332  153.7563 H   0  0  0  0  0  0  0  0  0  0  0  0
  143.0569  142.6025  155.0545 H   0  0  0  0  0  0  0  0  0  0  0  0
  143.6294  141.5177  156.2955 H   0  0  0  0  0  0  0  0  0  0  0  0
  144.6415  144.3941  156.0274 H   0  0  0  0  0  0  0  0  0  0  0  0
  146.3808  141.3031  156.3335 H   0  0  0  0  0  0  0  0  0  0  0  0
  145.3321  140.0206  155.7711 H   0  0  0  0  0  0  0  0  0  0  0  0
  146.5251  139.8128  153.6614 H   0  0  0  0  0  0  0  0  0  0  0  0
  147.6483  139.6388  154.9824 H   0  0  0  0  0  0  0  0  0  0  0  0
  144.6242  141.4414  153.9919 H   0  0  0  0  0  0  0  0  0  0  0  0
  1  2  1  0  0  0  0
  1 23  1  0  0  0  0
  1 24  1  0  0  0  0
  1 25  1  0  0  0  0
  2  3  1  0  0  0  0
  3  8  1  0  0  0  0
  3  4  2  0  0  0  0
  4  5  1  0  0  0  0
  5  6  2  0  0  0  0
  5 26  1  0  0  0  0
  6  7  1  0  0  0  0
  6 27  1  0  0  0  0
  7  8  2  0  0  0  0
  7 28  1  0  0  0  0
  8  9  1  0  0  0  0
  9 10  1  0  0  0  0
  9 29  1  0  0  0  0
 10 11  2  0  0  0  0
 10 12  1  0  0  0  0
 12 13  1  0  0  0  0
 12 30  1  0  0  0  0
 13 22  1  0  0  0  0
 13 14  1  0  0  0  0
 13 31  1  0  0  0  0
 14 15  1  0  0  0  0
 14 32  1  0  0  0  0
 14 33  1  0  0  0  0
 15 16  1  0  0  0  0
 15 34  1  0  0  0  0
 15 35  1  0  0  0  0
 16 17  1  0  0  0  0
 16 21  1  0  0  0  0
 16 43  1  0  0  0  0
 17 18  1  0  0  0  0
 17 36  1  0  0  0  0
 17 37  1  0  0  0  0
 18 19  1  0  0  0  0
 18 20  1  0  0  0  0
 18 38  1  0  0  0  0
 21 22  1  0  0  0  0
 21 39  1  0  0  0  0
 21 40  1  0  0  0  0
 22 41  1  0  0  0  0
 22 42  1  0  0  0  0
M  CHG  1  16   1
M  END
> <s_m_source_file>
AV-unprocessed.smi

> <i_m_source_file_index>
1158

> <i_lp_mmshare_version>
43012

> <i_f3d_flags>
0

> <s_epik_input>
W0NIM11PYzFuW2NIXVtjSF1bY0hdYzFbTkhdQyg9TylbTkhdW0NIXTJbQ0gyXVtDSDJdTihbQ0gyXVtDSF0oRilGKVtDSDJdW0NIMl0y

> <s_epik_cmdline>
J2VwaWtfcHl0aG9uJywgJy1waCcsICc3LjAnLCAnLXRuJywgJzgnLCAnLW1hJywgJzIwMCcsICctbWV0YWxfYmluZGluZycsICctaW1hZScsICc8aW5maWxlLm1hZT4nLCAnLW9tYWUnLCAnPG91dGZpbGUubWFlPic=

> <r_lp_tautomer_probability>
1

> <r_epik_Ionization_Penalty>
0.802109

> <r_epik_Ionization_Penalty_Charging>
0.802031

> <r_epik_Ionization_Penalty_Neutral>
7.83352e-05

> <r_epik_State_Penalty>
0.833408

> <r_epik_Charging_Adjusted_Penalty>
1.63544

> <i_epik_Tot_Q>
1

> <i_epik_Tot_abs_Q>
1

> <r_epik_Metal_State_Penalty>
0.833416

> <b_epik_Metal_Only>
0

> <s_lp_Force_Field>
OPLS_2005

> <r_lp_Energy>
20.396

> <b_lp_Chiralities_Consistent>
1

> <s_lp_Variant>
AV-unprocessed.smi:1158-3

> <Gold.Version>
5.8.1

> <Gold.Id.Protein>
6NUR|6NUR_protein|mol2

> <Gold.PLP.Fitness>
46.2428

> <Gold.PLP.PLP>
-34.8612

> <Gold.PLP.part.hbond>
-3.0000

> <Gold.PLP.part.metal>
0.0000

> <Gold.PLP.part.buried>
-9.0136

> <Gold.PLP.part.nonpolar>
-23.9769

> <Gold.PLP.part.repulsive>
0.4387

> <Gold.PLP.ligand.clash>
0.0000

> <Gold.PLP.ligand.torsion>
0.3224

> <Gold.PLP.Chemscore.Hbond>
4.0000

> <Gold.PLP.Chemscore.CHOScore>
0.0000

> <Gold.PLP.Chemscore.Metal>
0.0000

> <Gold.Chemscore.Hbonds>
donor molecule, donor type, donor heavy atom, donor atom, acceptor molecule, acceptor atom, score
      L1  H     9    29       P1  8028  0.98
      L1  H    12    30       P1  8028  1.00
      L1  H    16    43       P1 10175  2.00

> <Gold.PLP.Chemscore.Internal.Correction>
0.0264

> <Gold.Rescore>
     Score         DG    S(hbond)    S(metal)    S(lipo)     H(rot)  DE(clash)    DE(int)     intcor
     15.15     -19.66       2.93        0.00      72.11       1.58       1.33       3.18       ----

> <Gold.Chemscore.Fitness>
15.1466

> <Gold.Chemscore.DG>
-19.6582

> <Gold.Chemscore.ZeroCoef>
-5.4800

> <Gold.Chemscore.Hbond>
2.9277

> <Gold.Chemscore.Metal>
0.0000

> <Gold.Chemscore.Lipo>
72.1102

> <Gold.Chemscore.Internal_Hbond>
0.0000

> <Gold.Chemscore.DEClash>
1.3286

> <Gold.Chemscore.DEInternal>
3.1829

> <Gold.Chemscore.Rot>
1.5770

> <Gold.Chemscore.Internal.Correction>
   9.000000E+99

> <Gold.Chemscore.Hbonds>
donor molecule, donor type, donor heavy atom, donor atom, acceptor molecule, acceptor atom, score
      L1  H     9    29       P1  8028  0.88
      L1  H    12    30       P1  8028  1.00
      L1  H    16    43       P1 10175  0.29

> <Gold.Chemscore.Hbond.Weighted>
-9.7784

> <Gold.Chemscore.Metal.Weighted>
-0.0000

> <Gold.Chemscore.Lipo.Weighted>
-8.4369

> <Gold.Chemscore.Internal_Hbond.Weighted>
0.0000

> <Gold.Chemscore.DEClash.Weighted>
1.3286

> <Gold.Chemscore.DEInternal.Weighted>
3.1829

> <Gold.Chemscore.Rot.Weighted>
4.0371

> <Gold.Chemscore.Internal.Correction.Weighted>
   9.000000E+99

> <Gold.Protein.RotatedTorsions>
[ 6907 6896 6895 6894 ] final  103.49 input  -60.11 | X-H torsion
[ 7974 7965 7964 7962 ] final  148.59 input  175.53 | X-H torsion
[ 8008 7997 7996 7995 ] final  -91.59 input   59.86 | X-H torsion
[ 10167 10162 10161 10158 ] final  -55.28 input  -65.29 | X-H torsion
[ 10718 10713 10712 10709 ] final -156.87 input   66.30 | X-H torsion
[ 10763 10752 10751 10750 ] final  132.51 input  -60.55 | X-H torsion
[ 11005 11000 10999 10996 ] final  -73.57 input  -57.11 | X-H torsion

> <Gold.Protein.ActiveResidues>
 VAL166  LYS551  ARG553  GLY616  TRP617  ASP618  TYR619  PRO620  LYS621  CYS622 
 ASP623  PHE694  ASN695  SER759  ASP760  ASP761  ALA762  ILE779  LEU786  VAL792 
 PHE793  MET794  SER795  GLU796  ALA797  LYS798  CYS799  TRP800  GLU811  SER814 

> <Gold.Protein.RotatedAtoms>
  152.5293  133.9817  159.7809 H   0  0  0  0  0  0  0  0  0  0  0  0  # atno 6907 bound_to 6896
  151.0070  133.5994  159.2694 H   0  0  0  0  0  0  0  0  0  0  0  0  # atno 6908 bound_to 6896
  151.3082  135.0793  159.9316 H   0  0  0  0  0  0  0  0  0  0  0  0  # atno 6909 bound_to 6896
  144.8502  139.6173  143.5977 H   0  0  0  0  0  0  0  0  0  0  0  0  # atno 7974 bound_to 7965
  154.7126  140.0518  157.0564 H   0  0  0  0  0  0  0  0  0  0  0  0  # atno 8008 bound_to 7997
  155.0535  140.3181  155.4665 H   0  0  0  0  0  0  0  0  0  0  0  0  # atno 8009 bound_to 7997
  156.2793  140.2111  156.5661 H   0  0  0  0  0  0  0  0  0  0  0  0  # atno 8010 bound_to 7997
  140.6383  143.2494  151.5058 H   0  0  0  0  0  0  0  0  0  0  0  0  # atno 10167 bound_to 10162
  156.5325  130.8527  151.2721 H   0  0  0  0  0  0  0  0  0  0  0  0  # atno 10718 bound_to 10713
  153.7919  135.3154  155.3379 H   0  0  0  0  0  0  0  0  0  0  0  0  # atno 10763 bound_to 10752
  154.8122  135.4660  154.0550 H   0  0  0  0  0  0  0  0  0  0  0  0  # atno 10764 bound_to 10752
  153.1871  135.6902  153.8488 H   0  0  0  0  0  0  0  0  0  0  0  0  # atno 10765 bound_to 10752
  141.1624  133.6882  156.7231 H   0  0  0  0  0  0  0  0  0  0  0  0  # atno 11005 bound_to 11000
  146.2778  139.6798  142.9250 LP  0  0  0  0  0  0  0  0  0  0  0  0  # atno 17320 bound_to 7965
  145.4515  141.0428  143.2801 LP  0  0  0  0  0  0  0  0  0  0  0  0  # atno 17321 bound_to 7965
  139.5593  144.2197  152.1664 LP  0  0  0  0  0  0  0  0  0  0  0  0  # atno 17342 bound_to 10162
  140.1460  144.5158  150.6715 LP  0  0  0  0  0  0  0  0  0  0  0  0  # atno 17343 bound_to 10162
  157.7419  130.9880  150.2480 LP  0  0  0  0  0  0  0  0  0  0  0  0  # atno 17370 bound_to 10713
  156.3047  130.3763  149.7717 LP  0  0  0  0  0  0  0  0  0  0  0  0  # atno 17371 bound_to 10713
  140.2801  134.8324  157.3925 LP  0  0  0  0  0  0  0  0  0  0  0  0  # atno 17394 bound_to 11000
  140.1441  134.4934  155.8009 LP  0  0  0  0  0  0  0  0  0  0  0  0  # atno 17395 bound_to 11000

$$$$
