AV-unprocessed.smi:3194|AV-procd|sdf|12212|dock5
  -GOLD-   2272018 53D 1   1.00000     0.00000
 Structure written by MMmdl.
 27 27  0  0  0  0  0  0  0  0  2 V2000
  147.8685  141.6469  154.4843 C   0  0  0  0  0  0  0  0  0  0  0  0
  149.0818  140.7062  154.4518 C   0  0  2  0  0  0  0  0  0  0  0  0
  148.6488  139.2447  154.2226 C   0  0  0  0  0  0  0  0  0  0  0  0
  148.3966  138.9905  152.8543 O   0  0  0  0  0  0  0  0  0  0  0  0
  149.7930  140.8134  155.7274 N   0  5  0  0  0  0  0  0  0  0  0  0
  151.0079  140.2467  155.9836 C   0  0  0  0  0  0  0  0  0  0  0  0
  151.8139  139.7165  155.2102 O   0  0  0  0  0  0  0  0  0  0  0  0
  151.3576  140.3009  157.4859 C   0  0  0  0  0  0  0  0  0  0  0  0
  150.3704  139.7353  158.1861 F   0  0  0  0  0  0  0  0  0  0  0  0
  152.4646  139.5861  157.7122 F   0  0  0  0  0  0  0  0  0  0  0  0
  151.5461  141.7463  157.9465 C   0  0  0  0  0  0  0  0  0  0  0  0
  151.9617  142.0423  159.2654 C   0  0  0  0  0  0  0  0  0  0  0  0
  152.1392  143.3896  159.6325 C   0  0  0  0  0  0  0  0  0  0  0  0
  151.8946  144.3921  158.6752 C   0  0  0  0  0  0  0  0  0  0  0  0
  151.4836  143.9992  157.3864 C   0  0  0  0  0  0  0  0  0  0  0  0
  151.3104  142.7107  157.0238 N   0  0  0  0  0  0  0  0  0  0  0  0
  149.6990  141.0081  153.6036 H   0  0  0  0  0  0  0  0  0  0  0  0
  147.3163  141.6039  153.5453 H   0  0  0  0  0  0  0  0  0  0  0  0
  148.1768  142.6822  154.6349 H   0  0  0  0  0  0  0  0  0  0  0  0
  147.1790  141.3831  155.2872 H   0  0  0  0  0  0  0  0  0  0  0  0
  149.4103  138.5509  154.5814 H   0  0  0  0  0  0  0  0  0  0  0  0
  147.7356  139.0306  154.7783 H   0  0  0  0  0  0  0  0  0  0  0  0
  148.5491  138.0738  152.6872 H   0  0  0  0  0  0  0  0  0  0  0  0
  152.1548  141.2538  159.9774 H   0  0  0  0  0  0  0  0  0  0  0  0
  152.4603  143.6490  160.6305 H   0  0  0  0  0  0  0  0  0  0  0  0
  152.0219  145.4357  158.9206 H   0  0  0  0  0  0  0  0  0  0  0  0
  151.2881  144.7405  156.6257 H   0  0  0  0  0  0  0  0  0  0  0  0
  1  2  1  0  0  0  0
  1 18  1  0  0  0  0
  1 19  1  0  0  0  0
  1 20  1  0  0  0  0
  2 17  1  0  0  0  0
  2  3  1  0  0  0  0
  2  5  1  0  0  0  0
  3  4  1  0  0  0  0
  3 21  1  0  0  0  0
  3 22  1  0  0  0  0
  4 23  1  0  0  0  0
  5  6  1  0  0  0  0
  6  7  2  0  0  0  0
  6  8  1  0  0  0  0
  8  9  1  0  0  0  0
  8 10  1  0  0  0  0
  8 11  1  0  0  0  0
 11 16  1  0  0  0  0
 11 12  2  0  0  0  0
 12 13  1  0  0  0  0
 12 24  1  0  0  0  0
 13 14  2  0  0  0  0
 13 25  1  0  0  0  0
 14 15  1  0  0  0  0
 14 26  1  0  0  0  0
 15 16  2  0  0  0  0
 15 27  1  0  0  0  0
M  CHG  1   5  -1
M  END
> <s_m_source_file>
AV-unprocessed.smi

> <i_m_source_file_index>
3194

> <i_lp_mmshare_version>
43012

> <i_f3d_flags>
0

> <s_epik_input>
W09IXVtDSDJdW0NASF0oW0NIM10pW05IXUMoPU8pQyhGKShGKWMxW2NIXVtjSF1bY0hdW2NIXW4x

> <s_epik_cmdline>
J2VwaWtfcHl0aG9uJywgJy1waCcsICc3LjAnLCAnLXRuJywgJzgnLCAnLW1hJywgJzIwMCcsICctbWV0YWxfYmluZGluZycsICctaW1hZScsICc8aW5maWxlLm1hZT4nLCAnLW9tYWUnLCAnPG91dGZpbGUubWFlPic=

> <r_lp_tautomer_probability>
1

> <r_epik_Ionization_Penalty>
5.78943

> <r_epik_Ionization_Penalty_Charging>
5.78942

> <r_epik_Ionization_Penalty_Neutral>
4.0054e-06

> <r_epik_State_Penalty>
5.78939

> <r_epik_Charging_Adjusted_Penalty>
11.5788

> <i_epik_Tot_Q>
-1

> <i_epik_Tot_abs_Q>
1

> <r_epik_Metal_State_Penalty>
1.76064

> <b_epik_Metal_Only>
1

> <s_lp_Force_Field>
OPLS_2005

> <r_lp_Energy>
16.8834

> <b_lp_Chiralities_Consistent>
1

> <s_lp_Variant>
AV-unprocessed.smi:3194-4

> <Gold.Version>
5.8.1

> <Gold.Id.Protein>
6NUR|6NUR_protein|mol2

> <Gold.PLP.Fitness>
40.6625

> <Gold.PLP.PLP>
-33.5398

> <Gold.PLP.part.hbond>
-2.3768

> <Gold.PLP.part.metal>
0.0000

> <Gold.PLP.part.buried>
-2.7066

> <Gold.PLP.part.nonpolar>
-28.9118

> <Gold.PLP.part.repulsive>
0.1848

> <Gold.PLP.ligand.clash>
0.1432

> <Gold.PLP.ligand.torsion>
0.4555

> <Gold.PLP.Chemscore.Hbond>
1.9670

> <Gold.PLP.Chemscore.CHOScore>
0.7445

> <Gold.PLP.Chemscore.Metal>
0.0000

> <Gold.Chemscore.Hbonds>
donor molecule, donor type, donor heavy atom, donor atom, acceptor molecule, acceptor atom, score
      L1  H     4    23       P1  7948  0.99
      P1  H  7989  7998       L1     7  0.92
      L1  C    15    27       P1  8028  0.70

> <Gold.PLP.Chemscore.Internal.Correction>
0.0426

> <Gold.Rescore>
     Score         DG    S(hbond)    S(metal)    S(lipo)     H(rot)  DE(clash)    DE(int)     intcor
     11.85     -13.98       1.70        0.00      77.25       2.43       0.32       1.81       ----

> <Gold.Chemscore.Fitness>
11.8466

> <Gold.Chemscore.DG>
-13.9773

> <Gold.Chemscore.ZeroCoef>
-5.4800

> <Gold.Chemscore.Hbond>
1.6988

> <Gold.Chemscore.Metal>
0.0000

> <Gold.Chemscore.Lipo>
77.2491

> <Gold.Chemscore.Internal_Hbond>
0.0000

> <Gold.Chemscore.DEClash>
0.3159

> <Gold.Chemscore.DEInternal>
1.8148

> <Gold.Chemscore.Rot>
2.4277

> <Gold.Chemscore.Internal.Correction>
   9.000000E+99

> <Gold.Chemscore.Hbonds>
donor molecule, donor type, donor heavy atom, donor atom, acceptor molecule, acceptor atom, score
      L1  H     4    23       P1  7948  0.92
      P1  H  7989  7998       L1     7  0.33

> <Gold.Chemscore.Hbond.Weighted>
-5.6740

> <Gold.Chemscore.Metal.Weighted>
-0.0000

> <Gold.Chemscore.Lipo.Weighted>
-9.0381

> <Gold.Chemscore.Internal_Hbond.Weighted>
0.0000

> <Gold.Chemscore.DEClash.Weighted>
0.3159

> <Gold.Chemscore.DEInternal.Weighted>
1.8148

> <Gold.Chemscore.Rot.Weighted>
6.2149

> <Gold.Chemscore.Internal.Correction.Weighted>
   9.000000E+99

> <Gold.Protein.RotatedTorsions>
[ 6907 6896 6895 6894 ] final   -1.27 input  -60.11 | X-H torsion
[ 7974 7965 7964 7962 ] final  -34.08 input  175.53 | X-H torsion
[ 8008 7997 7996 7995 ] final   93.26 input   59.86 | X-H torsion
[ 10167 10162 10161 10158 ] final   68.33 input  -65.29 | X-H torsion
[ 10718 10713 10712 10709 ] final   60.78 input   66.30 | X-H torsion
[ 10763 10752 10751 10750 ] final   47.21 input  -60.55 | X-H torsion
[ 11005 11000 10999 10996 ] final   76.79 input  -57.11 | X-H torsion

> <Gold.Protein.ActiveResidues>
 VAL166  LYS551  ARG553  GLY616  TRP617  ASP618  TYR619  PRO620  LYS621  CYS622 
 ASP623  PHE694  ASN695  SER759  ASP760  ASP761  ALA762  ILE779  LEU786  VAL792 
 PHE793  MET794  SER795  GLU796  ALA797  LYS798  CYS799  TRP800  GLU811  SER814 

> <Gold.Protein.RotatedAtoms>
  151.5488  135.1067  159.9944 H   0  0  0  0  0  0  0  0  0  0  0  0  # atno 6907 bound_to 6896
  152.4501  133.7608  159.6756 H   0  0  0  0  0  0  0  0  0  0  0  0  # atno 6908 bound_to 6896
  150.8427  133.7844  159.3079 H   0  0  0  0  0  0  0  0  0  0  0  0  # atno 6909 bound_to 6896
  146.0859  140.5994  142.8887 H   0  0  0  0  0  0  0  0  0  0  0  0  # atno 7974 bound_to 7965
  156.0447  140.3315  155.7283 H   0  0  0  0  0  0  0  0  0  0  0  0  # atno 8008 bound_to 7997
  155.5692  140.0626  157.2828 H   0  0  0  0  0  0  0  0  0  0  0  0  # atno 8009 bound_to 7997
  154.4408  140.1864  156.0850 H   0  0  0  0  0  0  0  0  0  0  0  0  # atno 8010 bound_to 7997
  140.0799  144.5080  150.7169 H   0  0  0  0  0  0  0  0  0  0  0  0  # atno 10167 bound_to 10162
  157.5779  130.8958  149.9379 H   0  0  0  0  0  0  0  0  0  0  0  0  # atno 10718 bound_to 10713
  152.9802  135.5983  154.3726 H   0  0  0  0  0  0  0  0  0  0  0  0  # atno 10763 bound_to 10752
  154.3398  135.2768  155.2430 H   0  0  0  0  0  0  0  0  0  0  0  0  # atno 10764 bound_to 10752
  154.4517  135.5988  153.6251 H   0  0  0  0  0  0  0  0  0  0  0  0  # atno 10765 bound_to 10752
  139.9282  134.7630  156.1440 H   0  0  0  0  0  0  0  0  0  0  0  0  # atno 11005 bound_to 11000
  144.7325  140.4714  143.6927 LP  0  0  0  0  0  0  0  0  0  0  0  0  # atno 17320 bound_to 7965
  145.6131  139.1515  143.3064 LP  0  0  0  0  0  0  0  0  0  0  0  0  # atno 17321 bound_to 7965
  140.7083  143.2485  151.4659 LP  0  0  0  0  0  0  0  0  0  0  0  0  # atno 17342 bound_to 10162
  139.5786  144.1762  152.1937 LP  0  0  0  0  0  0  0  0  0  0  0  0  # atno 17343 bound_to 10162
  156.0824  130.3671  150.0554 LP  0  0  0  0  0  0  0  0  0  0  0  0  # atno 17370 bound_to 10713
  156.8698  130.9520  151.3610 LP  0  0  0  0  0  0  0  0  0  0  0  0  # atno 17371 bound_to 10713
  141.0854  133.6736  156.2426 LP  0  0  0  0  0  0  0  0  0  0  0  0  # atno 17394 bound_to 11000
  140.6275  134.5298  157.5555 LP  0  0  0  0  0  0  0  0  0  0  0  0  # atno 17395 bound_to 11000

$$$$
