AV-unprocessed.smi:384|AV-procd|sdf|2467|dock2
  -GOLD-   2262022403D 1   1.00000     0.00000
 Structure written by MMmdl.
 32 33  0  0  0  0  0  0  0  0  2 V2000
  151.3018  143.1476  157.3938 C   0  0  0  0  0  0  0  0  0  0  0  0
  150.7700  142.3190  158.5765 C   0  0  1  0  0  0  0  0  0  0  0  0
  151.1932  140.8372  158.5289 C   0  0  0  0  0  0  0  0  0  0  0  0
  152.5974  140.6909  158.8885 N   0  0  0  0  0  0  0  0  0  0  0  0
  153.0731  139.3810  158.7385 C   0  0  0  0  0  0  0  0  0  0  0  0
  153.0725  138.5225  159.8563 C   0  0  0  0  0  0  0  0  0  0  0  0
  153.5486  137.2067  159.7000 C   0  0  0  0  0  0  0  0  0  0  0  0
  154.0133  136.7885  158.4330 C   0  0  0  0  0  0  0  0  0  0  0  0
  154.5284  135.3936  158.2150 C   0  0  0  0  0  0  0  0  0  0  0  0
  155.1856  135.1480  157.1791 O   0  0  0  0  0  0  0  0  0  0  0  0
  154.2835  134.5196  159.0764 O   0  5  0  0  0  0  0  0  0  0  0  0
  153.9754  137.7291  157.3784 C   0  0  0  0  0  0  0  0  0  0  0  0
  153.5185  138.9925  157.5203 N   0  0  0  0  0  0  0  0  0  0  0  0
  152.8993  141.2803  160.1852 C   0  0  0  0  0  0  0  0  0  0  0  0
  152.5044  142.7676  160.1886 C   0  0  2  0  0  0  0  0  0  0  0  0
  152.7056  143.4099  161.5649 C   0  0  0  0  0  0  0  0  0  0  0  0
  151.1255  142.8935  159.8377 O   0  0  0  0  0  0  0  0  0  0  0  0
  150.9168  142.7629  156.4491 H   0  0  0  0  0  0  0  0  0  0  0  0
  152.3895  143.1288  157.3306 H   0  0  0  0  0  0  0  0  0  0  0  0
  150.9888  144.1884  157.4777 H   0  0  0  0  0  0  0  0  0  0  0  0
  149.6817  142.3547  158.5215 H   0  0  0  0  0  0  0  0  0  0  0  0
  150.5843  140.2634  159.2293 H   0  0  0  0  0  0  0  0  0  0  0  0
  151.0134  140.4210  157.5367 H   0  0  0  0  0  0  0  0  0  0  0  0
  152.7119  138.8619  160.8162 H   0  0  0  0  0  0  0  0  0  0  0  0
  153.5513  136.5365  160.5473 H   0  0  0  0  0  0  0  0  0  0  0  0
  154.3180  137.4718  156.3867 H   0  0  0  0  0  0  0  0  0  0  0  0
  152.3553  140.7479  160.9669 H   0  0  0  0  0  0  0  0  0  0  0  0
  153.9633  141.1721  160.4008 H   0  0  0  0  0  0  0  0  0  0  0  0
  153.1178  143.3108  159.4694 H   0  0  0  0  0  0  0  0  0  0  0  0
  153.7476  143.3449  161.8793 H   0  0  0  0  0  0  0  0  0  0  0  0
  152.0953  142.9182  162.3230 H   0  0  0  0  0  0  0  0  0  0  0  0
  152.4290  144.4643  161.5465 H   0  0  0  0  0  0  0  0  0  0  0  0
  1  2  1  0  0  0  0
  1 18  1  0  0  0  0
  1 19  1  0  0  0  0
  1 20  1  0  0  0  0
  2 17  1  0  0  0  0
  2  3  1  0  0  0  0
  2 21  1  0  0  0  0
  3  4  1  0  0  0  0
  3 22  1  0  0  0  0
  3 23  1  0  0  0  0
  4  5  1  0  0  0  0
  4 14  1  0  0  0  0
  5 13  1  0  0  0  0
  5  6  2  0  0  0  0
  6  7  1  0  0  0  0
  6 24  1  0  0  0  0
  7  8  2  0  0  0  0
  7 25  1  0  0  0  0
  8  9  1  0  0  0  0
  8 12  1  0  0  0  0
  9 10  2  0  0  0  0
  9 11  1  0  0  0  0
 12 13  2  0  0  0  0
 12 26  1  0  0  0  0
 14 15  1  0  0  0  0
 14 27  1  0  0  0  0
 14 28  1  0  0  0  0
 15 16  1  0  0  0  0
 15 17  1  0  0  0  0
 15 29  1  0  0  0  0
 16 30  1  0  0  0  0
 16 31  1  0  0  0  0
 16 32  1  0  0  0  0
M  CHG  1  11  -1
M  END
> <s_m_source_file>
AV-unprocessed.smi

> <i_m_source_file_index>
384

> <i_lp_mmshare_version>
43012

> <i_f3d_flags>
0

> <s_epik_input>
W0NIM11bQ0BASF0xW0NIMl1OKFtDSDJdW0NASF0oTzEpW0NIM10pYzJbY0hdW2NIXWMoW2NIXW4yKUMoPU8pW09IXQ==

> <s_epik_cmdline>
J2VwaWtfcHl0aG9uJywgJy1waCcsICc3LjAnLCAnLXRuJywgJzgnLCAnLW1hJywgJzIwMCcsICctbWV0YWxfYmluZGluZycsICctaW1hZScsICc8aW5maWxlLm1hZT4nLCAnLW9tYWUnLCAnPG91dGZpbGUubWFlPic=

> <r_epik_Ionization_Penalty>
0.0114922

> <r_epik_Ionization_Penalty_Charging>
0.000195896

> <r_epik_Ionization_Penalty_Neutral>
0.0112963

> <r_epik_State_Penalty>
0.00868573

> <r_epik_Charging_Adjusted_Penalty>
0.00888162

> <i_epik_Tot_Q>
-1

> <i_epik_Tot_abs_Q>
1

> <r_epik_Metal_State_Penalty>
8.74964e-06

> <b_epik_Metal_Only>
0

> <s_lp_Force_Field>
OPLS_2005

> <r_lp_Energy>
19.6652

> <b_lp_Chiralities_Consistent>
1

> <s_lp_Variant>
AV-unprocessed.smi:384-3

> <Gold.Version>
5.8.1

> <Gold.Id.Protein>
6NUR|6NUR_protein|mol2

> <Gold.PLP.Fitness>
42.1921

> <Gold.PLP.PLP>
-28.7010

> <Gold.PLP.part.hbond>
-3.9464

> <Gold.PLP.part.metal>
0.0000

> <Gold.PLP.part.buried>
-3.7178

> <Gold.PLP.part.nonpolar>
-19.9640

> <Gold.PLP.part.repulsive>
0.0147

> <Gold.PLP.ligand.clash>
0.0000

> <Gold.PLP.ligand.torsion>
0.8027

> <Gold.PLP.Chemscore.Hbond>
5.0000

> <Gold.PLP.Chemscore.CHOScore>
0.0000

> <Gold.PLP.Chemscore.Metal>
0.0000

> <Gold.Chemscore.Hbonds>
donor molecule, donor type, donor heavy atom, donor atom, acceptor molecule, acceptor atom, score
      P1  H  6896  6907       L1    11  2.00
      P1  H  7997  8009       L1    13  1.00
      P1  H 10752 10765       L1    10  1.89

> <Gold.PLP.Chemscore.Internal.Correction>
0.0965

> <Gold.Rescore>
     Score         DG    S(hbond)    S(metal)    S(lipo)     H(rot)  DE(clash)    DE(int)     intcor
     19.28     -20.42       2.57        0.00      76.34       1.00       0.36       0.79       ----

> <Gold.Chemscore.Fitness>
19.2754

> <Gold.Chemscore.DG>
-20.4206

> <Gold.Chemscore.ZeroCoef>
-5.4800

> <Gold.Chemscore.Hbond>
2.5655

> <Gold.Chemscore.Metal>
0.0000

> <Gold.Chemscore.Lipo>
76.3419

> <Gold.Chemscore.Internal_Hbond>
0.0000

> <Gold.Chemscore.DEClash>
0.3555

> <Gold.Chemscore.DEInternal>
0.7897

> <Gold.Chemscore.Rot>
1.0000

> <Gold.Chemscore.Internal.Correction>
   9.000000E+99

> <Gold.Chemscore.Hbonds>
donor molecule, donor type, donor heavy atom, donor atom, acceptor molecule, acceptor atom, score
      P1  H  6896  6907       L1    11  0.94
      P1  H  7997  8009       L1    13  0.74
      P1  H 10752 10765       L1    10  0.88

> <Gold.Chemscore.Hbond.Weighted>
-8.5686

> <Gold.Chemscore.Metal.Weighted>
-0.0000

> <Gold.Chemscore.Lipo.Weighted>
-8.9320

> <Gold.Chemscore.Internal_Hbond.Weighted>
0.0000

> <Gold.Chemscore.DEClash.Weighted>
0.3555

> <Gold.Chemscore.DEInternal.Weighted>
0.7897

> <Gold.Chemscore.Rot.Weighted>
2.5600

> <Gold.Chemscore.Internal.Correction.Weighted>
   9.000000E+99

> <Gold.Protein.RotatedTorsions>
[ 6907 6896 6895 6894 ] final   76.46 input  -60.11 | X-H torsion
[ 7974 7965 7964 7962 ] final  -86.22 input  175.53 | X-H torsion
[ 8008 7997 7996 7995 ] final  174.60 input   59.86 | X-H torsion
[ 10167 10162 10161 10158 ] final  155.64 input  -65.29 | X-H torsion
[ 10718 10713 10712 10709 ] final -122.30 input   66.30 | X-H torsion
[ 10763 10752 10751 10750 ] final  -78.35 input  -60.55 | X-H torsion
[ 11005 11000 10999 10996 ] final  153.84 input  -57.11 | X-H torsion

> <Gold.Protein.ActiveResidues>
 VAL166  LYS551  ARG553  GLY616  TRP617  ASP618  TYR619  PRO620  LYS621  CYS622 
 ASP623  PHE694  ASN695  SER759  ASP760  ASP761  ALA762  ILE779  LEU786  VAL792 
 PHE793  MET794  SER795  GLU796  ALA797  LYS798  CYS799  TRP800  GLU811  SER814 

> <Gold.Protein.RotatedAtoms>
  152.5074  134.3966  159.9401 H   0  0  0  0  0  0  0  0  0  0  0  0  # atno 6907 bound_to 6896
  151.3928  133.3777  159.2730 H   0  0  0  0  0  0  0  0  0  0  0  0  # atno 6908 bound_to 6896
  150.9420  134.8849  159.7677 H   0  0  0  0  0  0  0  0  0  0  0  0  # atno 6909 bound_to 6896
  145.4828  140.9556  143.1855 H   0  0  0  0  0  0  0  0  0  0  0  0  # atno 7974 bound_to 7965
  156.0957  140.1430  156.9533 H   0  0  0  0  0  0  0  0  0  0  0  0  # atno 8008 bound_to 7997
  154.4670  140.0923  156.7092 H   0  0  0  0  0  0  0  0  0  0  0  0  # atno 8009 bound_to 7997
  155.4844  140.3446  155.4347 H   0  0  0  0  0  0  0  0  0  0  0  0  # atno 8010 bound_to 7997
  139.4821  144.5080  151.8068 H   0  0  0  0  0  0  0  0  0  0  0  0  # atno 10167 bound_to 10162
  156.1407  130.6464  150.9766 H   0  0  0  0  0  0  0  0  0  0  0  0  # atno 10718 bound_to 10713
  154.5248  135.5733  153.6710 H   0  0  0  0  0  0  0  0  0  0  0  0  # atno 10763 bound_to 10752
  152.9925  135.6190  154.2707 H   0  0  0  0  0  0  0  0  0  0  0  0  # atno 10764 bound_to 10752
  154.2630  135.2855  155.2749 H   0  0  0  0  0  0  0  0  0  0  0  0  # atno 10765 bound_to 10752
  140.1435  134.8723  157.2362 H   0  0  0  0  0  0  0  0  0  0  0  0  # atno 11005 bound_to 11000
  144.7879  139.6388  143.7126 LP  0  0  0  0  0  0  0  0  0  0  0  0  # atno 17320 bound_to 7965
  146.2331  139.5852  142.9542 LP  0  0  0  0  0  0  0  0  0  0  0  0  # atno 17321 bound_to 7965
  140.4580  144.1762  150.5903 LP  0  0  0  0  0  0  0  0  0  0  0  0  # atno 17342 bound_to 10162
  140.4515  143.2485  151.9342 LP  0  0  0  0  0  0  0  0  0  0  0  0  # atno 17343 bound_to 10162
  157.6573  131.0887  150.7918 LP  0  0  0  0  0  0  0  0  0  0  0  0  # atno 17370 bound_to 10713
  156.7994  130.4916  149.5372 LP  0  0  0  0  0  0  0  0  0  0  0  0  # atno 17371 bound_to 10713
  140.2693  134.3479  155.7379 LP  0  0  0  0  0  0  0  0  0  0  0  0  # atno 17394 bound_to 11000
  141.2189  133.7414  156.9198 LP  0  0  0  0  0  0  0  0  0  0  0  0  # atno 17395 bound_to 11000

$$$$
