AV-unprocessed.smi:1737|AV-procd|sdf|6996|dock2
  -GOLD-   22720 8213D 1   1.00000     0.00000
 Structure written by MMmdl.
 43 44  0  0  0  0  0  0  0  0  2 V2000
  147.5398  132.8636  152.4737 C   0  0  0  0  0  0  0  0  0  0  0  0
  146.2217  132.8102  151.7181 C   0  0  0  0  0  0  0  0  0  0  0  0
  145.5853  131.5650  151.5278 C   0  0  0  0  0  0  0  0  0  0  0  0
  144.3672  131.5174  150.8285 C   0  0  0  0  0  0  0  0  0  0  0  0
  143.8334  132.7246  150.3456 C   0  0  0  0  0  0  0  0  0  0  0  0
  144.4348  133.9186  150.5234 N   0  0  0  0  0  0  0  0  0  0  0  0
  145.6118  133.9821  151.1950 C   0  0  0  0  0  0  0  0  0  0  0  0
  146.2996  135.2075  151.4226 N   0  0  0  0  0  0  0  0  0  0  0  0
  145.7813  136.4260  151.6568 C   0  0  0  0  0  0  0  0  0  0  0  0
  144.5815  136.6999  151.6775 O   0  0  0  0  0  0  0  0  0  0  0  0
  146.7479  137.3298  151.8720 N   0  0  0  0  0  0  0  0  0  0  0  0
  146.5346  138.7489  152.1541 C   0  0  0  0  0  0  0  0  0  0  0  0
  146.7280  139.1192  153.6495 C   0  0  1  0  0  0  0  0  0  0  0  0
  148.2129  138.9626  154.0446 C   0  0  0  0  0  0  0  0  0  0  0  0
  146.1807  140.4751  153.9809 N   0  3  0  0  0  0  0  0  0  0  0  0
  145.9399  140.6657  155.4374 C   0  0  0  0  0  0  0  0  0  0  0  0
  145.3299  142.0475  155.7229 C   0  0  0  0  0  0  0  0  0  0  0  0
  146.1921  143.0596  155.2255 O   0  0  0  0  0  0  0  0  0  0  0  0
  146.3494  142.9618  153.8180 C   0  0  0  0  0  0  0  0  0  0  0  0
  146.9882  141.6102  153.4553 C   0  0  0  0  0  0  0  0  0  0  0  0
  147.8548  131.8700  152.7944 H   0  0  0  0  0  0  0  0  0  0  0  0
  147.4458  133.4884  153.3625 H   0  0  0  0  0  0  0  0  0  0  0  0
  148.3261  133.2754  151.8402 H   0  0  0  0  0  0  0  0  0  0  0  0
  146.0224  130.6552  151.9122 H   0  0  0  0  0  0  0  0  0  0  0  0
  143.8551  130.5804  150.6663 H   0  0  0  0  0  0  0  0  0  0  0  0
  142.8997  132.7329  149.8032 H   0  0  0  0  0  0  0  0  0  0  0  0
  147.3065  135.1425  151.4145 H   0  0  0  0  0  0  0  0  0  0  0  0
  147.7063  137.0173  151.8189 H   0  0  0  0  0  0  0  0  0  0  0  0
  147.2393  139.3095  151.5404 H   0  0  0  0  0  0  0  0  0  0  0  0
  145.5513  139.0660  151.8022 H   0  0  0  0  0  0  0  0  0  0  0  0
  146.1729  138.3872  154.2385 H   0  0  0  0  0  0  0  0  0  0  0  0
  148.6229  138.0238  153.6712 H   0  0  0  0  0  0  0  0  0  0  0  0
  148.3466  138.9426  155.1260 H   0  0  0  0  0  0  0  0  0  0  0  0
  148.8247  139.7709  153.6437 H   0  0  0  0  0  0  0  0  0  0  0  0
  145.2587  139.9088  155.8232 H   0  0  0  0  0  0  0  0  0  0  0  0
  146.8800  140.5556  155.9803 H   0  0  0  0  0  0  0  0  0  0  0  0
  144.3393  142.1375  155.2739 H   0  0  0  0  0  0  0  0  0  0  0  0
  145.2060  142.1878  156.7969 H   0  0  0  0  0  0  0  0  0  0  0  0
  145.3849  143.0824  153.3216 H   0  0  0  0  0  0  0  0  0  0  0  0
  146.9850  143.7795  153.4778 H   0  0  0  0  0  0  0  0  0  0  0  0
  148.0016  141.5543  153.8556 H   0  0  0  0  0  0  0  0  0  0  0  0
  147.0647  141.5660  152.3697 H   0  0  0  0  0  0  0  0  0  0  0  0
  145.2809  140.5361  153.5260 H   0  0  0  0  0  0  0  0  0  0  0  0
  1  2  1  0  0  0  0
  1 21  1  0  0  0  0
  1 22  1  0  0  0  0
  1 23  1  0  0  0  0
  2  7  1  0  0  0  0
  2  3  2  0  0  0  0
  3  4  1  0  0  0  0
  3 24  1  0  0  0  0
  4  5  2  0  0  0  0
  4 25  1  0  0  0  0
  5  6  1  0  0  0  0
  5 26  1  0  0  0  0
  6  7  2  0  0  0  0
  7  8  1  0  0  0  0
  8  9  1  0  0  0  0
  8 27  1  0  0  0  0
  9 10  2  0  0  0  0
  9 11  1  0  0  0  0
 11 12  1  0  0  0  0
 11 28  1  0  0  0  0
 12 13  1  0  0  0  0
 12 29  1  0  0  0  0
 12 30  1  0  0  0  0
 13 14  1  0  0  0  0
 13 15  1  0  0  0  0
 13 31  1  0  0  0  0
 14 32  1  0  0  0  0
 14 33  1  0  0  0  0
 14 34  1  0  0  0  0
 15 20  1  0  0  0  0
 15 16  1  0  0  0  0
 15 43  1  0  0  0  0
 16 17  1  0  0  0  0
 16 35  1  0  0  0  0
 16 36  1  0  0  0  0
 17 18  1  0  0  0  0
 17 37  1  0  0  0  0
 17 38  1  0  0  0  0
 18 19  1  0  0  0  0
 19 20  1  0  0  0  0
 19 39  1  0  0  0  0
 19 40  1  0  0  0  0
 20 41  1  0  0  0  0
 20 42  1  0  0  0  0
M  CHG  1  15   1
M  END
> <s_m_source_file>
AV-unprocessed.smi

> <i_m_source_file_index>
1737

> <i_lp_mmshare_version>
43012

> <i_f3d_flags>
0

> <s_epik_input>
W0NIM11jMVtjSF1bY0hdW2NIXW5jMVtOSF1DKD1PKVtOSF1bQ0gyXVtDQEhdKFtDSDNdKU4yW0NIMl1bQ0gyXU9bQ0gyXVtDSDJdMg==

> <s_epik_cmdline>
J2VwaWtfcHl0aG9uJywgJy1waCcsICc3LjAnLCAnLXRuJywgJzgnLCAnLW1hJywgJzIwMCcsICctbWV0YWxfYmluZGluZycsICctaW1hZScsICc8aW5maWxlLm1hZT4nLCAnLW9tYWUnLCAnPG91dGZpbGUubWFlPic=

> <r_epik_Ionization_Penalty>
0.602573

> <r_epik_Ionization_Penalty_Charging>
0.602531

> <r_epik_Ionization_Penalty_Neutral>
4.25912e-05

> <r_epik_State_Penalty>
0.617039

> <r_epik_Charging_Adjusted_Penalty>
1.21957

> <i_epik_Tot_Q>
1

> <i_epik_Tot_abs_Q>
1

> <r_epik_Metal_State_Penalty>
0.617042

> <b_epik_Metal_Only>
0

> <s_lp_Force_Field>
OPLS_2005

> <r_lp_Energy>
29.9094

> <b_lp_Chiralities_Consistent>
1

> <s_lp_Variant>
AV-unprocessed.smi:1737-4

> <Gold.Version>
5.8.1

> <Gold.Id.Protein>
6NUR|6NUR_protein|mol2

> <Gold.PLP.Fitness>
48.0925

> <Gold.PLP.PLP>
-34.7056

> <Gold.PLP.part.hbond>
-2.9361

> <Gold.PLP.part.metal>
0.0000

> <Gold.PLP.part.buried>
-6.5617

> <Gold.PLP.part.nonpolar>
-28.5703

> <Gold.PLP.part.repulsive>
2.5134

> <Gold.PLP.ligand.clash>
0.0000

> <Gold.PLP.ligand.torsion>
0.6141

> <Gold.PLP.Chemscore.Hbond>
3.8553

> <Gold.PLP.Chemscore.CHOScore>
1.0000

> <Gold.PLP.Chemscore.Metal>
0.0000

> <Gold.Chemscore.Hbonds>
donor molecule, donor type, donor heavy atom, donor atom, acceptor molecule, acceptor atom, score
      L1  H     8    27       P1  7948  0.85
      L1  H    11    28       P1  7948  0.80
      L1  H    15    43       P1 10175  2.00
      L1  C     5    26       P1 10186  0.96

> <Gold.PLP.Chemscore.Internal.Correction>
0.0493

> <Gold.Rescore>
     Score         DG    S(hbond)    S(metal)    S(lipo)     H(rot)  DE(clash)    DE(int)     intcor
     17.64     -19.20       2.78        0.00      71.11       1.51       0.05       1.51       ----

> <Gold.Chemscore.Fitness>
17.6446

> <Gold.Chemscore.DG>
-19.2041

> <Gold.Chemscore.ZeroCoef>
-5.4800

> <Gold.Chemscore.Hbond>
2.7776

> <Gold.Chemscore.Metal>
0.0000

> <Gold.Chemscore.Lipo>
71.1072

> <Gold.Chemscore.Internal_Hbond>
0.0000

> <Gold.Chemscore.DEClash>
0.0524

> <Gold.Chemscore.DEInternal>
1.5070

> <Gold.Chemscore.Rot>
1.5128

> <Gold.Chemscore.Internal.Correction>
   9.000000E+99

> <Gold.Chemscore.Hbonds>
donor molecule, donor type, donor heavy atom, donor atom, acceptor molecule, acceptor atom, score
      L1  H     8    27       P1  7948  0.61
      L1  H    11    28       P1  7948  0.79
      L1  H    15    43       P1 10175  0.98

> <Gold.Chemscore.Hbond.Weighted>
-9.2772

> <Gold.Chemscore.Metal.Weighted>
-0.0000

> <Gold.Chemscore.Lipo.Weighted>
-8.3195

> <Gold.Chemscore.Internal_Hbond.Weighted>
0.0000

> <Gold.Chemscore.DEClash.Weighted>
0.0524

> <Gold.Chemscore.DEInternal.Weighted>
1.5070

> <Gold.Chemscore.Rot.Weighted>
3.8726

> <Gold.Chemscore.Internal.Correction.Weighted>
   9.000000E+99

> <Gold.Protein.RotatedTorsions>
[ 6907 6896 6895 6894 ] final  137.85 input  -60.11 | X-H torsion
[ 7974 7965 7964 7962 ] final   51.84 input  175.53 | X-H torsion
[ 8008 7997 7996 7995 ] final    7.42 input   59.86 | X-H torsion
[ 10167 10162 10161 10158 ] final -178.79 input  -65.29 | X-H torsion
[ 10718 10713 10712 10709 ] final  145.95 input   66.30 | X-H torsion
[ 10763 10752 10751 10750 ] final   78.20 input  -60.55 | X-H torsion
[ 11005 11000 10999 10996 ] final  168.89 input  -57.11 | X-H torsion

> <Gold.Protein.ActiveResidues>
 VAL166  LYS551  ARG553  GLY616  TRP617  ASP618  TYR619  PRO620  LYS621  CYS622 
 ASP623  PHE694  ASN695  SER759  ASP760  ASP761  ALA762  ILE779  LEU786  VAL792 
 PHE793  MET794  SER795  GLU796  ALA797  LYS798  CYS799  TRP800  GLU811  SER814 

> <Gold.Protein.RotatedAtoms>
  152.2733  133.5402  159.5452 H   0  0  0  0  0  0  0  0  0  0  0  0  # atno 6907 bound_to 6896
  150.7167  134.0667  159.3859 H   0  0  0  0  0  0  0  0  0  0  0  0  # atno 6908 bound_to 6896
  151.8581  135.0534  160.0517 H   0  0  0  0  0  0  0  0  0  0  0  0  # atno 6909 bound_to 6896
  145.9873  139.4303  143.0095 H   0  0  0  0  0  0  0  0  0  0  0  0  # atno 7974 bound_to 7965
  154.7537  140.2771  155.6271 H   0  0  0  0  0  0  0  0  0  0  0  0  # atno 8008 bound_to 7997
  156.2901  140.2673  156.2223 H   0  0  0  0  0  0  0  0  0  0  0  0  # atno 8009 bound_to 7997
  155.0105  140.0372  157.2387 H   0  0  0  0  0  0  0  0  0  0  0  0  # atno 8010 bound_to 7997
  139.5416  144.2348  152.0906 H   0  0  0  0  0  0  0  0  0  0  0  0  # atno 10167 bound_to 10162
  157.3391  131.0933  151.1098 H   0  0  0  0  0  0  0  0  0  0  0  0  # atno 10718 bound_to 10713
  153.0856  135.4886  154.8590 H   0  0  0  0  0  0  0  0  0  0  0  0  # atno 10763 bound_to 10752
  154.7206  135.3038  154.9055 H   0  0  0  0  0  0  0  0  0  0  0  0  # atno 10764 bound_to 10752
  153.9721  135.6800  153.4800 H   0  0  0  0  0  0  0  0  0  0  0  0  # atno 10765 bound_to 10752
  140.2920  134.7665  157.3846 H   0  0  0  0  0  0  0  0  0  0  0  0  # atno 11005 bound_to 11000
  145.7681  140.9908  143.1164 LP  0  0  0  0  0  0  0  0  0  0  0  0  # atno 17320 bound_to 7965
  144.6878  139.9413  143.7475 LP  0  0  0  0  0  0  0  0  0  0  0  0  # atno 17321 bound_to 7965
  140.1828  144.4828  150.6519 LP  0  0  0  0  0  0  0  0  0  0  0  0  # atno 17342 bound_to 10162
  140.6648  143.2264  151.5770 LP  0  0  0  0  0  0  0  0  0  0  0  0  # atno 17343 bound_to 10162
  157.2316  130.6528  149.5852 LP  0  0  0  0  0  0  0  0  0  0  0  0  # atno 17370 bound_to 10713
  155.9705  130.4597  150.6045 LP  0  0  0  0  0  0  0  0  0  0  0  0  # atno 17371 bound_to 10713
  140.1186  134.5249  155.8203 LP  0  0  0  0  0  0  0  0  0  0  0  0  # atno 17394 bound_to 11000
  141.2144  133.6748  156.6824 LP  0  0  0  0  0  0  0  0  0  0  0  0  # atno 17395 bound_to 11000

$$$$
