AV-unprocessed.smi:1542|AV-procd|sdf|6204|dock9
  -GOLD-   22720 6373D 1   1.00000     0.00000
 Structure written by MMmdl.
 46 48  0  0  0  0  0  0  0  0  2 V2000
  148.5776  139.0489  153.3381 O   0  0  0  0  0  0  0  0  0  0  0  0
  147.8688  140.1443  153.8775 C   0  0  0  0  0  0  0  0  0  0  0  0
  148.8123  141.0481  154.6840 C   0  0  0  0  0  0  0  0  0  0  0  0
  148.9481  140.6158  156.1549 C   0  0  0  0  0  0  0  0  0  0  0  0
  149.8681  141.4955  156.9451 C   0  0  0  0  0  0  0  0  0  0  0  0
  149.9627  142.8542  156.8630 N   0  3  0  0  0  0  0  0  0  0  0  0
  150.9675  143.3138  157.7145 C   0  0  0  0  0  0  0  0  0  0  0  0
  151.4237  144.6025  157.9732 C   0  0  0  0  0  0  0  0  0  0  0  0
  152.4842  144.7252  158.8948 C   0  0  0  0  0  0  0  0  0  0  0  0
  153.0505  143.5938  159.5170 C   0  0  0  0  0  0  0  0  0  0  0  0
  152.5781  142.2924  159.2475 C   0  0  0  0  0  0  0  0  0  0  0  0
  151.5255  142.1804  158.3391 C   0  0  0  0  0  0  0  0  0  0  0  0
  150.8173  141.0827  157.8350 N   0  0  0  0  0  0  0  0  0  0  0  0
  151.1683  139.7266  158.2915 C   0  0  0  0  0  0  0  0  0  0  0  0
  151.4793  138.7022  157.1565 C   0  0  0  0  0  0  0  0  0  0  0  0
  152.5104  137.8696  157.6560 O   0  0  0  0  0  0  0  0  0  0  0  0
  150.2410  137.8135  156.8834 C   0  0  0  0  0  0  0  0  0  0  0  0
  150.4586  136.7923  155.7521 C   0  0  0  0  0  0  0  0  0  0  0  0
  150.9330  137.4749  154.4624 C   0  0  0  0  0  0  0  0  0  0  0  0
  152.2071  138.2919  154.7140 C   0  0  0  0  0  0  0  0  0  0  0  0
  151.9906  139.3295  155.8297 C   0  0  0  0  0  0  0  0  0  0  0  0
  148.7675  139.2305  152.4300 H   0  0  0  0  0  0  0  0  0  0  0  0
  147.4226  140.7058  153.0562 H   0  0  0  0  0  0  0  0  0  0  0  0
  147.0519  139.7790  154.5006 H   0  0  0  0  0  0  0  0  0  0  0  0
  149.7911  141.0716  154.2029 H   0  0  0  0  0  0  0  0  0  0  0  0
  148.4279  142.0683  154.6499 H   0  0  0  0  0  0  0  0  0  0  0  0
  147.9645  140.6187  156.6245 H   0  0  0  0  0  0  0  0  0  0  0  0
  149.3206  139.5928  156.2135 H   0  0  0  0  0  0  0  0  0  0  0  0
  150.9945  145.4700  157.4939 H   0  0  0  0  0  0  0  0  0  0  0  0
  152.8732  145.7064  159.1261 H   0  0  0  0  0  0  0  0  0  0  0  0
  153.8653  143.7260  160.2142 H   0  0  0  0  0  0  0  0  0  0  0  0
  153.0245  141.4326  159.7248 H   0  0  0  0  0  0  0  0  0  0  0  0
  152.0003  139.8157  158.9913 H   0  0  0  0  0  0  0  0  0  0  0  0
  150.3439  139.3740  158.9117 H   0  0  0  0  0  0  0  0  0  0  0  0
  152.7342  138.1617  158.5266 H   0  0  0  0  0  0  0  0  0  0  0  0
  149.9452  137.2881  157.7927 H   0  0  0  0  0  0  0  0  0  0  0  0
  149.3973  138.4508  156.6162 H   0  0  0  0  0  0  0  0  0  0  0  0
  151.1912  136.0462  156.0618 H   0  0  0  0  0  0  0  0  0  0  0  0
  149.5323  136.2491  155.5632 H   0  0  0  0  0  0  0  0  0  0  0  0
  151.1163  136.7265  153.6907 H   0  0  0  0  0  0  0  0  0  0  0  0
  150.1465  138.1278  154.0816 H   0  0  0  0  0  0  0  0  0  0  0  0
  153.0272  137.6236  154.9781 H   0  0  0  0  0  0  0  0  0  0  0  0
  152.5090  138.7964  153.7958 H   0  0  0  0  0  0  0  0  0  0  0  0
  151.2670  140.0579  155.4627 H   0  0  0  0  0  0  0  0  0  0  0  0
  152.9190  139.8761  155.9985 H   0  0  0  0  0  0  0  0  0  0  0  0
  149.3806  143.4235  156.2621 H   0  0  0  0  0  0  0  0  0  0  0  0
  1  2  1  0  0  0  0
  1 22  1  0  0  0  0
  2  3  1  0  0  0  0
  2 23  1  0  0  0  0
  2 24  1  0  0  0  0
  3  4  1  0  0  0  0
  3 25  1  0  0  0  0
  3 26  1  0  0  0  0
  4  5  1  0  0  0  0
  4 27  1  0  0  0  0
  4 28  1  0  0  0  0
  5 13  1  0  0  0  0
  5  6  2  0  0  0  0
  6  7  1  0  0  0  0
  6 46  1  0  0  0  0
  7 12  2  0  0  0  0
  7  8  1  0  0  0  0
  8  9  2  0  0  0  0
  8 29  1  0  0  0  0
  9 10  1  0  0  0  0
  9 30  1  0  0  0  0
 10 11  2  0  0  0  0
 10 31  1  0  0  0  0
 11 12  1  0  0  0  0
 11 32  1  0  0  0  0
 12 13  1  0  0  0  0
 13 14  1  0  0  0  0
 14 15  1  0  0  0  0
 14 33  1  0  0  0  0
 14 34  1  0  0  0  0
 15 21  1  0  0  0  0
 15 16  1  0  0  0  0
 15 17  1  0  0  0  0
 16 35  1  0  0  0  0
 17 18  1  0  0  0  0
 17 36  1  0  0  0  0
 17 37  1  0  0  0  0
 18 19  1  0  0  0  0
 18 38  1  0  0  0  0
 18 39  1  0  0  0  0
 19 20  1  0  0  0  0
 19 40  1  0  0  0  0
 19 41  1  0  0  0  0
 20 21  1  0  0  0  0
 20 42  1  0  0  0  0
 20 43  1  0  0  0  0
 21 44  1  0  0  0  0
 21 45  1  0  0  0  0
M  CHG  1   6   1
M  END
> <s_m_source_file>
AV-unprocessed.smi

> <i_m_source_file_index>
1542

> <i_lp_mmshare_version>
43012

> <i_f3d_flags>
0

> <s_epik_input>
W09IXVtDSDJdW0NIMl1bQ0gyXWMobjEpbihjKGMxMilbY0hdW2NIXVtjSF1bY0hdMilbQ0gyXUMzKFtPSF0pW0NIMl1bQ0gyXVtDSDJdW0NIMl1bQ0gyXTM=

> <s_epik_cmdline>
J2VwaWtfcHl0aG9uJywgJy1waCcsICc3LjAnLCAnLXRuJywgJzgnLCAnLW1hJywgJzIwMCcsICctbWV0YWxfYmluZGluZycsICctaW1hZScsICc8aW5maWxlLm1hZT4nLCAnLW9tYWUnLCAnPG91dGZpbGUubWFlPic=

> <r_epik_Ionization_Penalty>
0.555973

> <r_epik_Ionization_Penalty_Charging>
0.555973

> <r_epik_Ionization_Penalty_Neutral>
2.09159e-07

> <r_epik_State_Penalty>
0.566728

> <r_epik_Charging_Adjusted_Penalty>
1.1227

> <i_epik_Tot_Q>
1

> <i_epik_Tot_abs_Q>
1

> <r_epik_Metal_State_Penalty>
4.37256

> <b_epik_Metal_Only>
0

> <s_lp_Force_Field>
OPLS_2005

> <r_lp_Energy>
23.0728

> <b_lp_Chiralities_Consistent>
1

> <s_lp_Variant>
AV-unprocessed.smi:1542-2

> <Gold.Version>
5.8.1

> <Gold.Id.Protein>
6NUR|6NUR_protein|mol2

> <Gold.PLP.Fitness>
52.6619

> <Gold.PLP.PLP>
-45.7505

> <Gold.PLP.part.hbond>
-2.5381

> <Gold.PLP.part.metal>
0.0000

> <Gold.PLP.part.buried>
-4.4076

> <Gold.PLP.part.nonpolar>
-39.5010

> <Gold.PLP.part.repulsive>
0.0265

> <Gold.PLP.ligand.clash>
0.0000

> <Gold.PLP.ligand.torsion>
1.1985

> <Gold.PLP.Chemscore.Hbond>
3.0000

> <Gold.PLP.Chemscore.CHOScore>
0.0000

> <Gold.PLP.Chemscore.Metal>
0.0000

> <Gold.Chemscore.Hbonds>
donor molecule, donor type, donor heavy atom, donor atom, acceptor molecule, acceptor atom, score
      L1  H     1    22       P1  7957  1.00
      L1  H     6    46       P1  8028  1.92

> <Gold.PLP.Chemscore.Internal.Correction>
0.3084

> <Gold.Rescore>
     Score         DG    S(hbond)    S(metal)    S(lipo)     H(rot)  DE(clash)    DE(int)     intcor
     17.87     -19.20       1.97        0.00     122.59       2.82       0.09       1.23       ----

> <Gold.Chemscore.Fitness>
17.8737

> <Gold.Chemscore.DG>
-19.1955

> <Gold.Chemscore.ZeroCoef>
-5.4800

> <Gold.Chemscore.Hbond>
1.9715

> <Gold.Chemscore.Metal>
0.0000

> <Gold.Chemscore.Lipo>
122.5937

> <Gold.Chemscore.Internal_Hbond>
0.0000

> <Gold.Chemscore.DEClash>
0.0910

> <Gold.Chemscore.DEInternal>
1.2309

> <Gold.Chemscore.Rot>
2.8175

> <Gold.Chemscore.Internal.Correction>
   9.000000E+99

> <Gold.Chemscore.Hbonds>
donor molecule, donor type, donor heavy atom, donor atom, acceptor molecule, acceptor atom, score
      L1  H     1    22       P1  7957  0.98
      L1  H     6    46       P1  8028  0.88

> <Gold.Chemscore.Hbond.Weighted>
-6.5849

> <Gold.Chemscore.Metal.Weighted>
-0.0000

> <Gold.Chemscore.Lipo.Weighted>
-14.3435

> <Gold.Chemscore.Internal_Hbond.Weighted>
0.0000

> <Gold.Chemscore.DEClash.Weighted>
0.0910

> <Gold.Chemscore.DEInternal.Weighted>
1.2309

> <Gold.Chemscore.Rot.Weighted>
7.2128

> <Gold.Chemscore.Internal.Correction.Weighted>
   9.000000E+99

> <Gold.Protein.RotatedTorsions>
[ 6907 6896 6895 6894 ] final   13.27 input  -60.11 | X-H torsion
[ 7974 7965 7964 7962 ] final  167.85 input  175.53 | X-H torsion
[ 8008 7997 7996 7995 ] final  -61.18 input   59.86 | X-H torsion
[ 10167 10162 10161 10158 ] final  137.29 input  -65.29 | X-H torsion
[ 10718 10713 10712 10709 ] final  -40.47 input   66.30 | X-H torsion
[ 10763 10752 10751 10750 ] final  166.39 input  -60.55 | X-H torsion
[ 11005 11000 10999 10996 ] final  174.26 input  -57.11 | X-H torsion

> <Gold.Protein.ActiveResidues>
 VAL166  LYS551  ARG553  GLY616  TRP617  ASP618  TYR619  PRO620  LYS621  CYS622 
 ASP623  PHE694  ASN695  SER759  ASP760  ASP761  ALA762  ILE779  LEU786  VAL792 
 PHE793  MET794  SER795  GLU796  ALA797  LYS798  CYS799  TRP800  GLU811  SER814 

> <Gold.Protein.RotatedAtoms>
  151.7837  135.0755  160.0377 H   0  0  0  0  0  0  0  0  0  0  0  0  # atno 6907 bound_to 6896
  152.3205  133.5844  159.5750 H   0  0  0  0  0  0  0  0  0  0  0  0  # atno 6908 bound_to 6896
  150.7367  133.9934  159.3656 H   0  0  0  0  0  0  0  0  0  0  0  0  # atno 6909 bound_to 6896
  144.7409  139.8821  143.6397 H   0  0  0  0  0  0  0  0  0  0  0  0  # atno 7974 bound_to 7965
  154.4435  140.1023  156.6391 H   0  0  0  0  0  0  0  0  0  0  0  0  # atno 8008 bound_to 7997
  155.5521  140.3486  155.4452 H   0  0  0  0  0  0  0  0  0  0  0  0  # atno 8009 bound_to 7997
  156.0521  140.1306  157.0027 H   0  0  0  0  0  0  0  0  0  0  0  0  # atno 8010 bound_to 7997
  139.5149  144.6418  151.5549 H   0  0  0  0  0  0  0  0  0  0  0  0  # atno 10167 bound_to 10162
  156.2810  130.4217  149.8337 H   0  0  0  0  0  0  0  0  0  0  0  0  # atno 10718 bound_to 10713
  154.3383  135.2754  155.2436 H   0  0  0  0  0  0  0  0  0  0  0  0  # atno 10763 bound_to 10752
  154.4717  135.5881  153.6330 H   0  0  0  0  0  0  0  0  0  0  0  0  # atno 10764 bound_to 10752
  152.9860  135.6090  154.3582 H   0  0  0  0  0  0  0  0  0  0  0  0  # atno 10765 bound_to 10752
  140.3494  134.7208  157.4258 H   0  0  0  0  0  0  0  0  0  0  0  0  # atno 11005 bound_to 11000
  146.1204  139.4221  143.0232 LP  0  0  0  0  0  0  0  0  0  0  0  0  # atno 17320 bound_to 7965
  145.7313  141.0041  143.1350 LP  0  0  0  0  0  0  0  0  0  0  0  0  # atno 17321 bound_to 7965
  140.6187  143.9299  150.6509 LP  0  0  0  0  0  0  0  0  0  0  0  0  # atno 17342 bound_to 10162
  140.2566  143.3554  152.1359 LP  0  0  0  0  0  0  0  0  0  0  0  0  # atno 17343 bound_to 10162
  156.5784  130.8455  151.3376 LP  0  0  0  0  0  0  0  0  0  0  0  0  # atno 17370 bound_to 10713
  157.7314  130.9700  150.1880 LP  0  0  0  0  0  0  0  0  0  0  0  0  # atno 17371 bound_to 10713
  140.0715  134.5856  155.8637 LP  0  0  0  0  0  0  0  0  0  0  0  0  # atno 17394 bound_to 11000
  141.2016  133.6620  156.5961 LP  0  0  0  0  0  0  0  0  0  0  0  0  # atno 17395 bound_to 11000

$$$$
