AV-unprocessed.smi:281|AV-procd|sdf|2108|dock5
  -GOLD-   2262021403D 1   1.00000     0.00000
 Structure written by MMmdl.
 55 59  0  0  0  0  0  0  0  0  1 V2000
  148.5502  141.9973  154.0716 C   0  0  0  0  0  0  0  0  0  0  0  0
  148.9062  140.7730  154.9213 C   0  0  1  0  0  0  0  0  0  0  0  0
  148.1575  139.5114  154.4577 C   0  0  0  0  0  0  0  0  0  0  0  0
  148.6072  138.3604  155.2280 N   0  0  0  0  0  0  0  0  0  0  0  0
  147.8951  137.2320  155.0305 C   0  0  0  0  0  0  0  0  0  0  0  0
  148.1545  136.1892  155.8561 N   0  0  0  0  0  0  0  0  0  0  0  0
  147.4884  135.0398  155.7083 C   0  0  0  0  0  0  0  0  0  0  0  0
  146.5441  134.7301  154.8170 N   0  0  0  0  0  0  0  0  0  0  0  0
  146.2849  135.7778  153.9824 C   0  0  0  0  0  0  0  0  0  0  0  0
  146.9141  137.0540  154.0142 C   0  0  0  0  0  0  0  0  0  0  0  0
  146.4072  137.8572  152.9999 N   0  0  0  0  0  0  0  0  0  0  0  0
  145.5236  137.1017  152.4074 C   0  0  0  0  0  0  0  0  0  0  0  0
  145.3749  135.8412  152.9411 N   0  0  0  0  0  0  0  0  0  0  0  0
  144.4628  134.8018  152.4872 C   0  0  0  0  0  0  0  0  0  0  0  0
  144.8291  134.2145  151.1022 C   0  0  2  0  0  0  0  0  0  0  0  0
  144.7253  135.2368  150.1280 O   0  0  0  0  0  0  0  0  0  0  0  0
  143.9213  133.0490  150.7009 C   0  0  0  0  0  0  0  0  0  0  0  0
  144.8364  131.8327  150.7826 C   0  0  0  0  0  0  0  0  0  0  0  0
  146.0894  132.3578  150.3834 O   0  0  0  0  0  0  0  0  0  0  0  0
  146.2446  133.6059  151.0426 C   0  0  0  0  0  0  0  0  0  0  0  0
  150.0456  138.1543  155.1406 C   0  0  0  0  0  0  0  0  0  0  0  0
  150.8043  139.4372  155.5653 C   0  0  1  0  0  0  0  0  0  0  0  0
  150.7294  139.7007  157.0664 C   0  0  0  0  0  0  0  0  0  0  0  0
  151.8609  138.8454  157.6236 C   0  0  0  0  0  0  0  0  0  0  0  0
  152.8576  138.8253  156.6093 O   0  0  0  0  0  0  0  0  0  0  0  0
  152.3344  139.3518  155.3925 C   0  0  1  0  0  0  0  0  0  0  0  0
  152.8538  138.5564  154.1861 C   0  0  0  0  0  0  0  0  0  0  0  0
  150.3139  140.5540  154.8158 O   0  0  0  0  0  0  0  0  0  0  0  0
  147.4839  142.2181  154.1284 H   0  0  0  0  0  0  0  0  0  0  0  0
  148.8041  141.8378  153.0233 H   0  0  0  0  0  0  0  0  0  0  0  0
  149.0905  142.8798  154.4147 H   0  0  0  0  0  0  0  0  0  0  0  0
  148.6469  140.9910  155.9580 H   0  0  0  0  0  0  0  0  0  0  0  0
  147.0818  139.6431  154.5827 H   0  0  0  0  0  0  0  0  0  0  0  0
  148.3427  139.3450  153.3962 H   0  0  0  0  0  0  0  0  0  0  0  0
  147.7491  134.2559  156.4040 H   0  0  0  0  0  0  0  0  0  0  0  0
  144.9501  137.4490  151.5603 H   0  0  0  0  0  0  0  0  0  0  0  0
  144.4502  134.0100  153.2376 H   0  0  0  0  0  0  0  0  0  0  0  0
  143.4541  135.2168  152.4664 H   0  0  0  0  0  0  0  0  0  0  0  0
  145.0206  134.8919  149.2992 H   0  0  0  0  0  0  0  0  0  0  0  0
  143.0400  132.9452  151.3350 H   0  0  0  0  0  0  0  0  0  0  0  0
  143.5709  133.1609  149.6733 H   0  0  0  0  0  0  0  0  0  0  0  0
  144.9018  131.4585  151.8058 H   0  0  0  0  0  0  0  0  0  0  0  0
  144.5149  131.0172  150.1346 H   0  0  0  0  0  0  0  0  0  0  0  0
  146.9741  134.2396  150.5366 H   0  0  0  0  0  0  0  0  0  0  0  0
  146.6259  133.3996  152.0432 H   0  0  0  0  0  0  0  0  0  0  0  0
  150.3432  137.3053  155.7578 H   0  0  0  0  0  0  0  0  0  0  0  0
  150.2872  137.8979  154.1086 H   0  0  0  0  0  0  0  0  0  0  0  0
  150.9398  140.7519  157.2689 H   0  0  0  0  0  0  0  0  0  0  0  0
  149.7632  139.4637  157.5128 H   0  0  0  0  0  0  0  0  0  0  0  0
  152.2549  139.2364  158.5618 H   0  0  0  0  0  0  0  0  0  0  0  0
  151.5200  137.8247  157.7995 H   0  0  0  0  0  0  0  0  0  0  0  0
  152.7219  140.3696  155.3210 H   0  0  0  0  0  0  0  0  0  0  0  0
  152.4378  138.9413  153.2548 H   0  0  0  0  0  0  0  0  0  0  0  0
  152.6001  137.4988  154.2609 H   0  0  0  0  0  0  0  0  0  0  0  0
  153.9394  138.6262  154.1178 H   0  0  0  0  0  0  0  0  0  0  0  0
  1  2  1  0  0  0  0
  1 29  1  0  0  0  0
  1 30  1  0  0  0  0
  1 31  1  0  0  0  0
  2 28  1  0  0  0  0
  2  3  1  0  0  0  0
  2 32  1  0  0  0  0
  3  4  1  0  0  0  0
  3 33  1  0  0  0  0
  3 34  1  0  0  0  0
  4  5  1  0  0  0  0
  4 21  1  0  0  0  0
  5 10  1  0  0  0  0
  5  6  2  0  0  0  0
  6  7  1  0  0  0  0
  7  8  2  0  0  0  0
  7 35  1  0  0  0  0
  8  9  1  0  0  0  0
  9 13  1  0  0  0  0
  9 10  2  0  0  0  0
 10 11  1  0  0  0  0
 11 12  2  0  0  0  0
 12 13  1  0  0  0  0
 12 36  1  0  0  0  0
 13 14  1  0  0  0  0
 14 15  1  0  0  0  0
 14 37  1  0  0  0  0
 14 38  1  0  0  0  0
 15 20  1  0  0  0  0
 15 16  1  0  0  0  0
 15 17  1  0  0  0  0
 16 39  1  0  0  0  0
 17 18  1  0  0  0  0
 17 40  1  0  0  0  0
 17 41  1  0  0  0  0
 18 19  1  0  0  0  0
 18 42  1  0  0  0  0
 18 43  1  0  0  0  0
 19 20  1  0  0  0  0
 20 44  1  0  0  0  0
 20 45  1  0  0  0  0
 21 22  1  0  0  0  0
 21 46  1  0  0  0  0
 21 47  1  0  0  0  0
 22 26  1  0  0  0  0
 22 23  1  0  0  0  0
 22 28  1  0  0  0  0
 23 24  1  0  0  0  0
 23 48  1  0  0  0  0
 23 49  1  0  0  0  0
 24 25  1  0  0  0  0
 24 50  1  0  0  0  0
 24 51  1  0  0  0  0
 25 26  1  0  0  0  0
 26 27  1  0  0  0  0
 26 52  1  0  0  0  0
 27 53  1  0  0  0  0
 27 54  1  0  0  0  0
 27 55  1  0  0  0  0
M  END
> <s_m_source_file>
AV-unprocessed.smi

> <i_m_source_file_index>
281

> <i_lp_mmshare_version>
43012

> <i_f3d_flags>
0

> <s_epik_input>
W0NIM11bQ0BASF0xT1tDSDJdW0NIMl1bQ0BAXTEyW0NIMl1OKFtDSDJdW0NASF0oTzIpW0NIM10pYyhuW2NIXW4zKWMoYzM0KW5bY0hdbjRbQ0gyXVtDQEBdNShbT0hdKVtDSDJdW0NIMl1PW0NIMl01

> <s_epik_cmdline>
J2VwaWtfcHl0aG9uJywgJy1waCcsICc3LjAnLCAnLXRuJywgJzgnLCAnLW1hJywgJzIwMCcsICctbWV0YWxfYmluZGluZycsICctaW1hZScsICc8aW5maWxlLm1hZT4nLCAnLW9tYWUnLCAnPG91dGZpbGUubWFlPic=

> <r_lp_tautomer_probability>
1

> <r_epik_Ionization_Penalty>
0.00571331

> <r_epik_Ionization_Penalty_Charging>
0

> <r_epik_Ionization_Penalty_Neutral>
0.00571331

> <r_epik_State_Penalty>
0.00399586

> <r_epik_Charging_Adjusted_Penalty>
0.00399586

> <i_epik_Tot_Q>
0

> <i_epik_Tot_abs_Q>
0

> <r_epik_Metal_State_Penalty>
-0

> <b_epik_Metal_Only>
0

> <s_lp_Force_Field>
OPLS_2005

> <r_lp_Energy>
55.9706

> <b_lp_Chiralities_Consistent>
1

> <s_lp_Variant>
AV-unprocessed.smi:281-8

> <Gold.Version>
5.8.1

> <Gold.Id.Protein>
6NUR|6NUR_protein|mol2

> <Gold.PLP.Fitness>
44.1422

> <Gold.PLP.PLP>
-33.2704

> <Gold.PLP.part.hbond>
-3.0000

> <Gold.PLP.part.metal>
0.0000

> <Gold.PLP.part.buried>
-3.4974

> <Gold.PLP.part.nonpolar>
-27.1903

> <Gold.PLP.part.repulsive>
0.6622

> <Gold.PLP.ligand.clash>
0.0000

> <Gold.PLP.ligand.torsion>
0.1750

> <Gold.PLP.Chemscore.Hbond>
2.6951

> <Gold.PLP.Chemscore.CHOScore>
1.0000

> <Gold.PLP.Chemscore.Metal>
0.0000

> <Gold.Chemscore.Hbonds>
donor molecule, donor type, donor heavy atom, donor atom, acceptor molecule, acceptor atom, score
      L1  H    16    39       P1  7921  1.00
      P1  H  7989  7998       L1    28  0.94
      P1  H  7997  8009       L1    25  0.93
      L1  C    12    36       P1 10171  1.00

> <Gold.PLP.Chemscore.Internal.Correction>
0.1365

> <Gold.Rescore>
     Score         DG    S(hbond)    S(metal)    S(lipo)     H(rot)  DE(clash)    DE(int)     intcor
     13.58     -17.02       1.91        0.00      90.03       2.09       1.81       1.63       ----

> <Gold.Chemscore.Fitness>
13.5849

> <Gold.Chemscore.DG>
-17.0212

> <Gold.Chemscore.ZeroCoef>
-5.4800

> <Gold.Chemscore.Hbond>
1.9057

> <Gold.Chemscore.Metal>
0.0000

> <Gold.Chemscore.Lipo>
90.0285

> <Gold.Chemscore.Internal_Hbond>
0.0000

> <Gold.Chemscore.DEClash>
1.8051

> <Gold.Chemscore.DEInternal>
1.6311

> <Gold.Chemscore.Rot>
2.0927

> <Gold.Chemscore.Internal.Correction>
   9.000000E+99

> <Gold.Chemscore.Hbonds>
donor molecule, donor type, donor heavy atom, donor atom, acceptor molecule, acceptor atom, score
      L1  H    16    39       P1  7921  0.95
      P1  H  7989  7998       L1    28  0.50
      P1  H  7997  8009       L1    25  0.18

> <Gold.Chemscore.Hbond.Weighted>
-6.3652

> <Gold.Chemscore.Metal.Weighted>
-0.0000

> <Gold.Chemscore.Lipo.Weighted>
-10.5333

> <Gold.Chemscore.Internal_Hbond.Weighted>
0.0000

> <Gold.Chemscore.DEClash.Weighted>
1.8051

> <Gold.Chemscore.DEInternal.Weighted>
1.6311

> <Gold.Chemscore.Rot.Weighted>
5.3573

> <Gold.Chemscore.Internal.Correction.Weighted>
   9.000000E+99

> <Gold.Protein.RotatedTorsions>
[ 6907 6896 6895 6894 ] final  105.87 input  -60.11 | X-H torsion
[ 7974 7965 7964 7962 ] final  161.31 input  175.53 | X-H torsion
[ 8008 7997 7996 7995 ] final  166.26 input   59.86 | X-H torsion
[ 10167 10162 10161 10158 ] final -177.61 input  -65.29 | X-H torsion
[ 10718 10713 10712 10709 ] final   -7.58 input   66.30 | X-H torsion
[ 10763 10752 10751 10750 ] final  160.34 input  -60.55 | X-H torsion
[ 11005 11000 10999 10996 ] final   51.12 input  -57.11 | X-H torsion

> <Gold.Protein.ActiveResidues>
 VAL166  LYS551  ARG553  GLY616  TRP617  ASP618  TYR619  PRO620  LYS621  CYS622 
 ASP623  PHE694  ASN695  SER759  ASP760  ASP761  ALA762  ILE779  LEU786  VAL792 
 PHE793  MET794  SER795  GLU796  ALA797  LYS798  CYS799  TRP800  GLU811  SER814 

> <Gold.Protein.RotatedAtoms>
  152.5215  133.9464  159.7650 H   0  0  0  0  0  0  0  0  0  0  0  0  # atno 6907 bound_to 6896
  150.9783  133.6263  159.2733 H   0  0  0  0  0  0  0  0  0  0  0  0  # atno 6908 bound_to 6896
  151.3450  135.0878  159.9436 H   0  0  0  0  0  0  0  0  0  0  0  0  # atno 6909 bound_to 6896
  144.7692  139.7880  143.6303 H   0  0  0  0  0  0  0  0  0  0  0  0  # atno 7974 bound_to 7965
  156.1733  140.1648  156.8408 H   0  0  0  0  0  0  0  0  0  0  0  0  # atno 8008 bound_to 7997
  154.5280  140.0763  156.8327 H   0  0  0  0  0  0  0  0  0  0  0  0  # atno 8009 bound_to 7997
  155.3467  140.3387  155.4241 H   0  0  0  0  0  0  0  0  0  0  0  0  # atno 8010 bound_to 7997
  139.5472  144.2205  152.1009 H   0  0  0  0  0  0  0  0  0  0  0  0  # atno 10167 bound_to 10162
  156.7152  130.5134  149.5882 H   0  0  0  0  0  0  0  0  0  0  0  0  # atno 10718 bound_to 10713
  154.2458  135.2773  155.2836 H   0  0  0  0  0  0  0  0  0  0  0  0  # atno 10763 bound_to 10752
  154.5506  135.5676  153.6922 H   0  0  0  0  0  0  0  0  0  0  0  0  # atno 10764 bound_to 10752
  152.9990  135.6273  154.2604 H   0  0  0  0  0  0  0  0  0  0  0  0  # atno 10765 bound_to 10752
  140.0960  134.5145  155.8807 H   0  0  0  0  0  0  0  0  0  0  0  0  # atno 11005 bound_to 11000
  146.1825  139.5024  142.9857 LP  0  0  0  0  0  0  0  0  0  0  0  0  # atno 17320 bound_to 7965
  145.6375  141.0291  143.1829 LP  0  0  0  0  0  0  0  0  0  0  0  0  # atno 17321 bound_to 7965
  140.1694  144.4950  150.6588 LP  0  0  0  0  0  0  0  0  0  0  0  0  # atno 17342 bound_to 10162
  140.6723  143.2291  151.5593 LP  0  0  0  0  0  0  0  0  0  0  0  0  # atno 17343 bound_to 10162
  156.1633  130.6388  151.0746 LP  0  0  0  0  0  0  0  0  0  0  0  0  # atno 17370 bound_to 10713
  157.6920  131.0807  150.7079 LP  0  0  0  0  0  0  0  0  0  0  0  0  # atno 17371 bound_to 10713
  141.2092  133.6681  156.6423 LP  0  0  0  0  0  0  0  0  0  0  0  0  # atno 17394 bound_to 11000
  140.3286  134.7948  157.4308 LP  0  0  0  0  0  0  0  0  0  0  0  0  # atno 17395 bound_to 11000

$$$$
