AV-unprocessed.smi:827|AV-procd|sdf|3857|dock9
  -GOLD-   22720 1313D 1   1.00000     0.00000
 Structure written by MMmdl.
 47 48  0  0  0  0  0  0  0  0  2 V2000
  152.2878  137.8125  154.5429 C   0  0  0  0  0  0  0  0  0  0  0  0
  150.9342  138.1014  154.2104 O   0  0  0  0  0  0  0  0  0  0  0  0
  150.4161  139.3327  154.5646 C   0  0  0  0  0  0  0  0  0  0  0  0
  151.1919  140.1730  155.2946 N   0  0  0  0  0  0  0  0  0  0  0  0
  150.6874  141.3743  155.6427 C   0  0  0  0  0  0  0  0  0  0  0  0
  149.3922  141.7965  155.2913 C   0  0  0  0  0  0  0  0  0  0  0  0
  148.5852  140.9269  154.5350 C   0  0  0  0  0  0  0  0  0  0  0  0
  149.1060  139.6676  154.1486 C   0  0  0  0  0  0  0  0  0  0  0  0
  148.3753  138.7047  153.3980 N   0  0  0  0  0  0  0  0  0  0  0  0
  147.0460  138.5984  153.2324 C   0  0  0  0  0  0  0  0  0  0  0  0
  146.2013  139.3459  153.7251 O   0  0  0  0  0  0  0  0  0  0  0  0
  146.7378  137.5682  152.4318 N   0  0  0  0  0  0  0  0  0  0  0  0
  145.3824  137.1806  152.0576 C   0  0  0  0  0  0  0  0  0  0  0  0
  145.3815  135.9921  151.0760 C   0  0  0  0  0  0  0  0  0  0  0  0
  146.3083  134.9094  151.4916 N   0  3  0  0  0  0  0  0  0  0  0  0
  146.2379  134.5996  152.9473 C   0  0  0  0  0  0  0  0  0  0  0  0
  147.2064  133.4657  153.3306 C   0  0  0  0  0  0  0  0  0  0  0  0
  146.9229  132.2929  152.4983 N   0  0  0  0  0  0  0  0  0  0  0  0
  146.4045  131.1214  152.9386 C   0  0  0  0  0  0  0  0  0  0  0  0
  146.0829  130.0176  151.9287 C   0  0  0  0  0  0  0  0  0  0  0  0
  146.1794  130.9005  154.1284 O   0  0  0  0  0  0  0  0  0  0  0  0
  147.1388  132.5832  151.0784 C   0  0  0  0  0  0  0  0  0  0  0  0
  146.1696  133.6966  150.6406 C   0  0  0  0  0  0  0  0  0  0  0  0
  152.5400  136.8126  154.1905 H   0  0  0  0  0  0  0  0  0  0  0  0
  152.4466  137.8330  155.6221 H   0  0  0  0  0  0  0  0  0  0  0  0
  152.9743  138.5134  154.0657 H   0  0  0  0  0  0  0  0  0  0  0  0
  151.3337  142.0159  156.2230 H   0  0  0  0  0  0  0  0  0  0  0  0
  149.0245  142.7642  155.5995 H   0  0  0  0  0  0  0  0  0  0  0  0
  147.5841  141.2381  154.2808 H   0  0  0  0  0  0  0  0  0  0  0  0
  148.9416  138.0583  152.8677 H   0  0  0  0  0  0  0  0  0  0  0  0
  147.4932  137.0061  152.0668 H   0  0  0  0  0  0  0  0  0  0  0  0
  144.8442  136.9115  152.9668 H   0  0  0  0  0  0  0  0  0  0  0  0
  144.8707  138.0477  151.6391 H   0  0  0  0  0  0  0  0  0  0  0  0
  144.3779  135.5823  150.9524 H   0  0  0  0  0  0  0  0  0  0  0  0
  145.6830  136.3647  150.0956 H   0  0  0  0  0  0  0  0  0  0  0  0
  146.4787  135.4841  153.5355 H   0  0  0  0  0  0  0  0  0  0  0  0
  145.2173  134.3138  153.2080 H   0  0  0  0  0  0  0  0  0  0  0  0
  148.2361  133.7826  153.1579 H   0  0  0  0  0  0  0  0  0  0  0  0
  147.1389  133.2714  154.4001 H   0  0  0  0  0  0  0  0  0  0  0  0
  146.9796  129.7129  151.3881 H   0  0  0  0  0  0  0  0  0  0  0  0
  145.3331  130.3552  151.2126 H   0  0  0  0  0  0  0  0  0  0  0  0
  145.6856  129.1370  152.4352 H   0  0  0  0  0  0  0  0  0  0  0  0
  148.1712  132.9037  150.9310 H   0  0  0  0  0  0  0  0  0  0  0  0
  147.0063  131.7080  150.4409 H   0  0  0  0  0  0  0  0  0  0  0  0
  145.1419  133.3333  150.6951 H   0  0  0  0  0  0  0  0  0  0  0  0
  146.3607  133.9556  149.5984 H   0  0  0  0  0  0  0  0  0  0  0  0
  147.2422  135.2534  151.3193 H   0  0  0  0  0  0  0  0  0  0  0  0
  1  2  1  0  0  0  0
  1 24  1  0  0  0  0
  1 25  1  0  0  0  0
  1 26  1  0  0  0  0
  2  3  1  0  0  0  0
  3  8  1  0  0  0  0
  3  4  2  0  0  0  0
  4  5  1  0  0  0  0
  5  6  2  0  0  0  0
  5 27  1  0  0  0  0
  6  7  1  0  0  0  0
  6 28  1  0  0  0  0
  7  8  2  0  0  0  0
  7 29  1  0  0  0  0
  8  9  1  0  0  0  0
  9 10  1  0  0  0  0
  9 30  1  0  0  0  0
 10 11  2  0  0  0  0
 10 12  1  0  0  0  0
 12 13  1  0  0  0  0
 12 31  1  0  0  0  0
 13 14  1  0  0  0  0
 13 32  1  0  0  0  0
 13 33  1  0  0  0  0
 14 15  1  0  0  0  0
 14 34  1  0  0  0  0
 14 35  1  0  0  0  0
 15 23  1  0  0  0  0
 15 16  1  0  0  0  0
 15 47  1  0  0  0  0
 16 17  1  0  0  0  0
 16 36  1  0  0  0  0
 16 37  1  0  0  0  0
 17 18  1  0  0  0  0
 17 38  1  0  0  0  0
 17 39  1  0  0  0  0
 18 19  1  0  0  0  0
 18 22  1  0  0  0  0
 19 20  1  0  0  0  0
 19 21  2  0  0  0  0
 20 40  1  0  0  0  0
 20 41  1  0  0  0  0
 20 42  1  0  0  0  0
 22 23  1  0  0  0  0
 22 43  1  0  0  0  0
 22 44  1  0  0  0  0
 23 45  1  0  0  0  0
 23 46  1  0  0  0  0
M  CHG  1  15   1
M  END
> <s_m_source_file>
AV-unprocessed.smi

> <i_m_source_file_index>
827

> <i_lp_mmshare_version>
43012

> <i_f3d_flags>
0

> <s_epik_input>
W0NIM11PYzFuW2NIXVtjSF1bY0hdYzFbTkhdQyg9TylbTkhdW0NIMl1bQ0gyXU4yW0NIMl1bQ0gyXU4oQyg9TylbQ0gzXSlbQ0gyXVtDSDJdMg==

> <s_epik_cmdline>
J2VwaWtfcHl0aG9uJywgJy1waCcsICc3LjAnLCAnLXRuJywgJzgnLCAnLW1hJywgJzIwMCcsICctbWV0YWxfYmluZGluZycsICctaW1hZScsICc8aW5maWxlLm1hZT4nLCAnLW9tYWUnLCAnPG91dGZpbGUubWFlPic=

> <r_lp_tautomer_probability>
1

> <r_epik_Ionization_Penalty>
0.63011

> <r_epik_Ionization_Penalty_Charging>
0.630034

> <r_epik_Ionization_Penalty_Neutral>
7.67152e-05

> <r_epik_State_Penalty>
0.646805

> <r_epik_Charging_Adjusted_Penalty>
1.27684

> <i_epik_Tot_Q>
1

> <i_epik_Tot_abs_Q>
1

> <r_epik_Metal_State_Penalty>
0.64681

> <b_epik_Metal_Only>
0

> <s_lp_Force_Field>
OPLS_2005

> <r_lp_Energy>
42.7203

> <b_lp_Chiralities_Consistent>
1

> <s_lp_Variant>
AV-unprocessed.smi:827-2

> <Gold.Version>
5.8.1

> <Gold.Id.Protein>
6NUR|6NUR_protein|mol2

> <Gold.PLP.Fitness>
46.6562

> <Gold.PLP.PLP>
-35.3062

> <Gold.PLP.part.hbond>
-5.0000

> <Gold.PLP.part.metal>
0.0000

> <Gold.PLP.part.buried>
3.7749

> <Gold.PLP.part.nonpolar>
-34.8380

> <Gold.PLP.part.repulsive>
0.7129

> <Gold.PLP.ligand.clash>
0.0000

> <Gold.PLP.ligand.torsion>
0.2537

> <Gold.PLP.Chemscore.Hbond>
3.9337

> <Gold.PLP.Chemscore.CHOScore>
0.0000

> <Gold.PLP.Chemscore.Metal>
0.0000

> <Gold.Chemscore.Hbonds>
donor molecule, donor type, donor heavy atom, donor atom, acceptor molecule, acceptor atom, score
      L1  H     9    30       P1  7948  0.87
      L1  H    12    31       P1  7948  1.00
      L1  H    15    47       P1  7948  2.00
      P1  H  7989  7998       L1     4  0.05

> <Gold.PLP.Chemscore.Internal.Correction>
0.0562

> <Gold.Rescore>
     Score         DG    S(hbond)    S(metal)    S(lipo)     H(rot)  DE(clash)    DE(int)     intcor
     15.35     -19.40       2.69        0.00      83.08       1.87       2.54       1.52       ----

> <Gold.Chemscore.Fitness>
15.3469

> <Gold.Chemscore.DG>
-19.3993

> <Gold.Chemscore.ZeroCoef>
-5.4800

> <Gold.Chemscore.Hbond>
2.6928

> <Gold.Chemscore.Metal>
0.0000

> <Gold.Chemscore.Lipo>
83.0827

> <Gold.Chemscore.Internal_Hbond>
0.0000

> <Gold.Chemscore.DEClash>
2.5371

> <Gold.Chemscore.DEInternal>
1.5154

> <Gold.Chemscore.Rot>
1.8732

> <Gold.Chemscore.Internal.Correction>
   9.000000E+99

> <Gold.Chemscore.Hbonds>
donor molecule, donor type, donor heavy atom, donor atom, acceptor molecule, acceptor atom, score
      L1  H     9    30       P1  7948  0.80
      L1  H    12    31       P1  7948  1.00
      L1  H    15    47       P1  7948  0.74

> <Gold.Chemscore.Hbond.Weighted>
-8.9941

> <Gold.Chemscore.Metal.Weighted>
-0.0000

> <Gold.Chemscore.Lipo.Weighted>
-9.7207

> <Gold.Chemscore.Internal_Hbond.Weighted>
0.0000

> <Gold.Chemscore.DEClash.Weighted>
2.5371

> <Gold.Chemscore.DEInternal.Weighted>
1.5154

> <Gold.Chemscore.Rot.Weighted>
4.7955

> <Gold.Chemscore.Internal.Correction.Weighted>
   9.000000E+99

> <Gold.Protein.RotatedTorsions>
[ 6907 6896 6895 6894 ] final  101.24 input  -60.11 | X-H torsion
[ 7974 7965 7964 7962 ] final   93.06 input  175.53 | X-H torsion
[ 8008 7997 7996 7995 ] final -159.29 input   59.86 | X-H torsion
[ 10167 10162 10161 10158 ] final  -14.90 input  -65.29 | X-H torsion
[ 10718 10713 10712 10709 ] final   15.06 input   66.30 | X-H torsion
[ 10763 10752 10751 10750 ] final  165.44 input  -60.55 | X-H torsion
[ 11005 11000 10999 10996 ] final -106.10 input  -57.11 | X-H torsion

> <Gold.Protein.ActiveResidues>
 VAL166  LYS551  ARG553  GLY616  TRP617  ASP618  TYR619  PRO620  LYS621  CYS622 
 ASP623  PHE694  ASN695  SER759  ASP760  ASP761  ALA762  ILE779  LEU786  VAL792 
 PHE793  MET794  SER795  GLU796  ALA797  LYS798  CYS799  TRP800  GLU811  SER814 

> <Gold.Protein.RotatedAtoms>
  152.5354  134.0155  159.7957 H   0  0  0  0  0  0  0  0  0  0  0  0  # atno 6907 bound_to 6896
  151.0350  133.5748  159.2664 H   0  0  0  0  0  0  0  0  0  0  0  0  # atno 6908 bound_to 6896
  151.2739  135.0700  159.9198 H   0  0  0  0  0  0  0  0  0  0  0  0  # atno 6909 bound_to 6896
  145.4840  139.2278  143.2866 H   0  0  0  0  0  0  0  0  0  0  0  0  # atno 7974 bound_to 7965
  155.7603  140.0838  157.2158 H   0  0  0  0  0  0  0  0  0  0  0  0  # atno 8008 bound_to 7997
  154.4004  140.1544  156.2881 H   0  0  0  0  0  0  0  0  0  0  0  0  # atno 8009 bound_to 7997
  155.8846  140.3418  155.5914 H   0  0  0  0  0  0  0  0  0  0  0  0  # atno 8010 bound_to 7997
  140.7209  143.5273  150.9561 H   0  0  0  0  0  0  0  0  0  0  0  0  # atno 10167 bound_to 10162
  157.0481  130.6258  149.5763 H   0  0  0  0  0  0  0  0  0  0  0  0  # atno 10718 bound_to 10713
  154.3240  135.2755  155.2505 H   0  0  0  0  0  0  0  0  0  0  0  0  # atno 10763 bound_to 10752
  154.4846  135.5849  153.6418 H   0  0  0  0  0  0  0  0  0  0  0  0  # atno 10764 bound_to 10752
  152.9873  135.6119  154.3427 H   0  0  0  0  0  0  0  0  0  0  0  0  # atno 10765 bound_to 10752
  141.1021  133.8865  157.1815 H   0  0  0  0  0  0  0  0  0  0  0  0  # atno 11005 bound_to 11000
  146.2324  140.5629  142.8969 LP  0  0  0  0  0  0  0  0  0  0  0  0  # atno 17320 bound_to 7965
  144.7872  140.5960  143.6566 LP  0  0  0  0  0  0  0  0  0  0  0  0  # atno 17321 bound_to 7965
  139.8993  143.6856  152.3134 LP  0  0  0  0  0  0  0  0  0  0  0  0  # atno 17342 bound_to 10162
  139.7200  144.7604  151.0971 LP  0  0  0  0  0  0  0  0  0  0  0  0  # atno 17343 bound_to 10162
  156.0016  130.5096  150.7684 LP  0  0  0  0  0  0  0  0  0  0  0  0  # atno 17370 bound_to 10713
  157.5052  131.0921  151.0266 LP  0  0  0  0  0  0  0  0  0  0  0  0  # atno 17371 bound_to 10713
  139.9876  135.0076  156.9900 LP  0  0  0  0  0  0  0  0  0  0  0  0  # atno 17394 bound_to 11000
  140.4995  134.1111  155.7248 LP  0  0  0  0  0  0  0  0  0  0  0  0  # atno 17395 bound_to 11000

$$$$
