AV-unprocessed.smi:101|AV-procd|sdf|930|dock9
  -GOLD-   2262017443D 1   1.00000     0.00000
 Structure written by MMmdl.
 43 45  0  0  0  0  0  0  0  0  2 V2000
  143.6072  144.6438  154.5613 C   0  0  0  0  0  0  0  0  0  0  0  0
  144.5798  143.6062  155.0937 C   0  0  0  0  0  0  0  0  0  0  0  0
  145.6468  143.1845  154.3796 C   0  0  0  0  0  0  0  0  0  0  0  0
  146.5327  142.2415  154.8698 N   0  0  0  0  0  0  0  0  0  0  0  0
  147.7196  141.8032  154.0371 C   0  0  1  0  0  0  0  0  0  0  0  0
  148.8362  141.7099  154.8710 O   0  0  0  0  0  0  0  0  0  0  0  0
  149.5702  140.5329  154.5561 C   0  0  1  0  0  0  0  0  0  0  0  0
  150.4481  140.0973  155.7378 C   0  0  0  0  0  0  0  0  0  0  0  0
  151.0574  141.2419  156.3116 O   0  0  0  0  0  0  0  0  0  0  0  0
  151.9621  141.1002  157.2989 C   0  0  0  0  0  0  0  0  0  0  0  0
  152.6386  140.0828  157.4633 O   0  0  0  0  0  0  0  0  0  0  0  0
  152.0614  142.3055  158.1721 C   0  0  0  0  0  0  0  0  0  0  0  0
  151.5575  143.5422  157.7062 C   0  0  0  0  0  0  0  0  0  0  0  0
  151.6381  144.6976  158.5079 C   0  0  0  0  0  0  0  0  0  0  0  0
  152.2242  144.6304  159.7852 C   0  0  0  0  0  0  0  0  0  0  0  0
  152.7298  143.4063  160.2603 C   0  0  0  0  0  0  0  0  0  0  0  0
  152.6499  142.2498  159.4600 C   0  0  0  0  0  0  0  0  0  0  0  0
  148.4915  139.5320  154.1249 C   0  0  1  0  0  0  0  0  0  0  0  0
  147.9016  138.9061  155.2534 O   0  0  0  0  0  0  0  0  0  0  0  0
  147.5132  140.4259  153.3692 C   0  0  1  0  0  0  0  0  0  0  0  0
  146.1870  139.9260  153.3705 O   0  0  0  0  0  0  0  0  0  0  0  0
  146.3354  141.6998  156.1671 C   0  0  0  0  0  0  0  0  0  0  0  0
  147.1537  140.8820  156.5882 O   0  0  0  0  0  0  0  0  0  0  0  0
  145.2575  142.1145  156.8922 N   0  5  0  0  0  0  0  0  0  0  0  0
  144.3663  143.0383  156.4302 C   0  0  0  0  0  0  0  0  0  0  0  0
  143.3990  143.4044  157.0973 O   0  0  0  0  0  0  0  0  0  0  0  0
  143.8681  144.9479  153.5472 H   0  0  0  0  0  0  0  0  0  0  0  0
  143.6155  145.5317  155.1941 H   0  0  0  0  0  0  0  0  0  0  0  0
  142.5933  144.2428  154.5429 H   0  0  0  0  0  0  0  0  0  0  0  0
  145.8116  143.6007  153.3970 H   0  0  0  0  0  0  0  0  0  0  0  0
  147.9103  142.5976  153.3148 H   0  0  0  0  0  0  0  0  0  0  0  0
  150.2001  140.7501  153.6913 H   0  0  0  0  0  0  0  0  0  0  0  0
  149.8546  139.5651  156.4829 H   0  0  0  0  0  0  0  0  0  0  0  0
  151.2289  139.4199  155.3896 H   0  0  0  0  0  0  0  0  0  0  0  0
  151.1031  143.6183  156.7286 H   0  0  0  0  0  0  0  0  0  0  0  0
  151.2493  145.6362  158.1415 H   0  0  0  0  0  0  0  0  0  0  0  0
  152.2857  145.5163  160.3999 H   0  0  0  0  0  0  0  0  0  0  0  0
  153.1804  143.3534  161.2404 H   0  0  0  0  0  0  0  0  0  0  0  0
  153.0492  141.3269  159.8543 H   0  0  0  0  0  0  0  0  0  0  0  0
  148.9002  138.7519  153.4818 H   0  0  0  0  0  0  0  0  0  0  0  0
  148.5486  138.3537  155.6643 H   0  0  0  0  0  0  0  0  0  0  0  0
  147.8445  140.5200  152.3343 H   0  0  0  0  0  0  0  0  0  0  0  0
  145.6385  140.5461  152.9143 H   0  0  0  0  0  0  0  0  0  0  0  0
  1  2  1  0  0  0  0
  1 27  1  0  0  0  0
  1 28  1  0  0  0  0
  1 29  1  0  0  0  0
  2 25  1  0  0  0  0
  2  3  2  0  0  0  0
  3  4  1  0  0  0  0
  3 30  1  0  0  0  0
  4  5  1  0  0  0  0
  4 22  1  0  0  0  0
  5 20  1  0  0  0  0
  5  6  1  0  0  0  0
  5 31  1  0  0  0  0
  6  7  1  0  0  0  0
  7  8  1  0  0  0  0
  7 18  1  0  0  0  0
  7 32  1  0  0  0  0
  8  9  1  0  0  0  0
  8 33  1  0  0  0  0
  8 34  1  0  0  0  0
  9 10  1  0  0  0  0
 10 11  2  0  0  0  0
 10 12  1  0  0  0  0
 12 17  1  0  0  0  0
 12 13  2  0  0  0  0
 13 14  1  0  0  0  0
 13 35  1  0  0  0  0
 14 15  2  0  0  0  0
 14 36  1  0  0  0  0
 15 16  1  0  0  0  0
 15 37  1  0  0  0  0
 16 17  2  0  0  0  0
 16 38  1  0  0  0  0
 17 39  1  0  0  0  0
 18 19  1  0  0  0  0
 18 20  1  0  0  0  0
 18 40  1  0  0  0  0
 19 41  1  0  0  0  0
 20 21  1  0  0  0  0
 20 42  1  0  0  0  0
 21 43  1  0  0  0  0
 22 23  2  0  0  0  0
 22 24  1  0  0  0  0
 24 25  1  0  0  0  0
 25 26  2  0  0  0  0
M  CHG  1  24  -1
M  END
> <s_m_source_file>
AV-unprocessed.smi

> <i_m_source_file_index>
101

> <i_lp_mmshare_version>
43012

> <i_f3d_flags>
0

> <s_epik_input>
Tz1jMVtuSF1jKD1PKW4oW2NIXWMxW0NIM10pW0NAQEhdMk9bQ0BIXShbQ0BASF0oW09IXSlbQ0BIXTJbT0hdKVtDSDJdT0MoPU8pYzNbY0hdW2NIXVtjSF1bY0hdW2NIXTM=

> <s_epik_cmdline>
J2VwaWtfcHl0aG9uJywgJy1waCcsICc3LjAnLCAnLXRuJywgJzgnLCAnLW1hJywgJzIwMCcsICctbWV0YWxfYmluZGluZycsICctaW1hZScsICc8aW5maWxlLm1hZT4nLCAnLW9tYWUnLCAnPG91dGZpbGUubWFlPic=

> <r_lp_tautomer_probability>
0.999537

> <r_epik_Ionization_Penalty>
3.21006

> <r_epik_Ionization_Penalty_Charging>
5.75142e-08

> <r_epik_Ionization_Penalty_Neutral>
3.21006

> <r_epik_State_Penalty>
3.20925

> <r_epik_Charging_Adjusted_Penalty>
3.20925

> <i_epik_Tot_Q>
-1

> <i_epik_Tot_abs_Q>
1

> <r_epik_Metal_State_Penalty>
0.119957

> <b_epik_Metal_Only>
1

> <s_epik_Chemistry_Notes>
This compound has an ester and may undergo hydrolysis at high or low pH. This compound contains an acetal/aminal-like group ( X-CH(R)-Y where X, Y are N, S, or O) that may be acid/base labile, releasing an aldehyde.

> <s_lp_Force_Field>
OPLS_2005

> <r_lp_Energy>
50.5402

> <b_lp_Chiralities_Consistent>
1

> <s_lp_Variant>
AV-unprocessed.smi:101-18

> <Gold.Version>
5.8.1

> <Gold.Id.Protein>
6NUR|6NUR_protein|mol2

> <Gold.PLP.Fitness>
51.4475

> <Gold.PLP.PLP>
-49.0511

> <Gold.PLP.part.hbond>
-2.0000

> <Gold.PLP.part.metal>
0.0000

> <Gold.PLP.part.buried>
-6.8044

> <Gold.PLP.part.nonpolar>
-41.7157

> <Gold.PLP.part.repulsive>
0.4577

> <Gold.PLP.ligand.clash>
0.0390

> <Gold.PLP.ligand.torsion>
1.1693

> <Gold.PLP.Chemscore.Hbond>
1.5833

> <Gold.PLP.Chemscore.CHOScore>
0.0000

> <Gold.PLP.Chemscore.Metal>
0.0000

> <Gold.Chemscore.Hbonds>
donor molecule, donor type, donor heavy atom, donor atom, acceptor molecule, acceptor atom, score
      L1  H    21    43       P1 10175  0.62
      P1  H  7997  8008       L1    11  1.00

> <Gold.PLP.Chemscore.Internal.Correction>
0.0243

> <Gold.Rescore>
     Score         DG    S(hbond)    S(metal)    S(lipo)     H(rot)  DE(clash)    DE(int)     intcor
     11.18     -15.85       1.79        0.00     109.10       3.27       0.03       4.63       ----

> <Gold.Chemscore.Fitness>
11.1843

> <Gold.Chemscore.DG>
-15.8527

> <Gold.Chemscore.ZeroCoef>
-5.4800

> <Gold.Chemscore.Hbond>
1.7869

> <Gold.Chemscore.Metal>
0.0000

> <Gold.Chemscore.Lipo>
109.0958

> <Gold.Chemscore.Internal_Hbond>
0.0000

> <Gold.Chemscore.DEClash>
0.0348

> <Gold.Chemscore.DEInternal>
4.6335

> <Gold.Chemscore.Rot>
3.2656

> <Gold.Chemscore.Internal.Correction>
   9.000000E+99

> <Gold.Chemscore.Hbonds>
donor molecule, donor type, donor heavy atom, donor atom, acceptor molecule, acceptor atom, score
      L1  H    21    43       P1 10175  0.44
      P1  H  7997  8008       L1    11  0.92

> <Gold.Chemscore.Hbond.Weighted>
-5.9683

> <Gold.Chemscore.Metal.Weighted>
-0.0000

> <Gold.Chemscore.Lipo.Weighted>
-12.7642

> <Gold.Chemscore.Internal_Hbond.Weighted>
0.0000

> <Gold.Chemscore.DEClash.Weighted>
0.0348

> <Gold.Chemscore.DEInternal.Weighted>
4.6335

> <Gold.Chemscore.Rot.Weighted>
8.3598

> <Gold.Chemscore.Internal.Correction.Weighted>
   9.000000E+99

> <Gold.Protein.RotatedTorsions>
[ 6907 6896 6895 6894 ] final  -16.77 input  -60.11 | X-H torsion
[ 7974 7965 7964 7962 ] final  114.24 input  175.53 | X-H torsion
[ 8008 7997 7996 7995 ] final  -65.10 input   59.86 | X-H torsion
[ 10167 10162 10161 10158 ] final   40.80 input  -65.29 | X-H torsion
[ 10718 10713 10712 10709 ] final  176.36 input   66.30 | X-H torsion
[ 10763 10752 10751 10750 ] final  103.33 input  -60.55 | X-H torsion
[ 11005 11000 10999 10996 ] final   33.00 input  -57.11 | X-H torsion

> <Gold.Protein.ActiveResidues>
 VAL166  LYS551  ARG553  GLY616  TRP617  ASP618  TYR619  PRO620  LYS621  CYS622 
 ASP623  PHE694  ASN695  SER759  ASP760  ASP761  ALA762  ILE779  LEU786  VAL792 
 PHE793  MET794  SER795  GLU796  ALA797  LYS798  CYS799  TRP800  GLU811  SER814 

> <Gold.Protein.RotatedAtoms>
  151.3036  135.0775  159.9247 H   0  0  0  0  0  0  0  0  0  0  0  0  # atno 6907 bound_to 6896
  152.5292  133.9808  159.7816 H   0  0  0  0  0  0  0  0  0  0  0  0  # atno 6908 bound_to 6896
  151.0099  133.5924  159.2714 H   0  0  0  0  0  0  0  0  0  0  0  0  # atno 6909 bound_to 6896
  145.2069  139.2925  143.4289 H   0  0  0  0  0  0  0  0  0  0  0  0  # atno 7974 bound_to 7965
  154.4651  140.0940  156.6999 H   0  0  0  0  0  0  0  0  0  0  0  0  # atno 8008 bound_to 7997
  155.4881  140.3470  155.4332 H   0  0  0  0  0  0  0  0  0  0  0  0  # atno 8009 bound_to 7997
  156.0942  140.1405  156.9542 H   0  0  0  0  0  0  0  0  0  0  0  0  # atno 8010 bound_to 7997
  140.3706  144.2110  150.6133 H   0  0  0  0  0  0  0  0  0  0  0  0  # atno 10167 bound_to 10162
  156.9212  130.9941  151.3004 H   0  0  0  0  0  0  0  0  0  0  0  0  # atno 10718 bound_to 10713
  153.3512  135.3980  155.1648 H   0  0  0  0  0  0  0  0  0  0  0  0  # atno 10763 bound_to 10752
  154.8662  135.3657  154.5219 H   0  0  0  0  0  0  0  0  0  0  0  0  # atno 10764 bound_to 10752
  153.5671  135.7080  153.5581 H   0  0  0  0  0  0  0  0  0  0  0  0  # atno 10765 bound_to 10752
  140.2677  134.3119  155.7837 H   0  0  0  0  0  0  0  0  0  0  0  0  # atno 11005 bound_to 11000
  146.3406  140.2332  142.8594 LP  0  0  0  0  0  0  0  0  0  0  0  0  # atno 17320 bound_to 7965
  144.9893  140.8532  143.5349 LP  0  0  0  0  0  0  0  0  0  0  0  0  # atno 17321 bound_to 7965
  140.5037  143.2310  151.8640 LP  0  0  0  0  0  0  0  0  0  0  0  0  # atno 17342 bound_to 10162
  139.4804  144.5030  151.9035 LP  0  0  0  0  0  0  0  0  0  0  0  0  # atno 17343 bound_to 10162
  157.5906  130.8441  149.8654 LP  0  0  0  0  0  0  0  0  0  0  0  0  # atno 17370 bound_to 10713
  156.0490  130.3721  150.1247 LP  0  0  0  0  0  0  0  0  0  0  0  0  # atno 17371 bound_to 10713
  141.2182  133.7447  156.9285 LP  0  0  0  0  0  0  0  0  0  0  0  0  # atno 17394 bound_to 11000
  140.1403  134.9298  157.2458 LP  0  0  0  0  0  0  0  0  0  0  0  0  # atno 17395 bound_to 11000

$$$$
