AV-unprocessed.smi:83|AV-procd|sdf|807|dock8
  -GOLD-   2262017203D 1   1.00000     0.00000
 Structure written by MMmdl.
 56 59  0  0  0  0  0  0  0  0  1 V2000
  152.0223  145.9419  159.8577 C   0  0  0  0  0  0  0  0  0  0  0  0
  151.9590  144.8534  158.7848 C   0  0  0  0  0  0  0  0  0  0  0  0
  151.6350  145.1627  157.6382 O   0  0  0  0  0  0  0  0  0  0  0  0
  152.2594  143.5871  159.1374 N   0  0  0  0  0  0  0  0  0  0  0  0
  152.6659  143.1445  160.4702 C   0  0  0  0  0  0  0  0  0  0  0  0
  153.0794  141.6805  160.3063 C   0  0  0  0  0  0  0  0  0  0  0  0
  152.2860  141.2040  159.0942 C   0  0  2  0  0  0  0  0  0  0  0  0
  152.8799  139.9583  158.4064 C   0  0  0  0  0  0  0  0  0  0  0  0
  153.1619  138.8722  159.3470 N   0  0  0  0  0  0  0  0  0  0  0  0
  152.5304  137.5796  159.1151 C   0  0  0  0  0  0  0  0  0  0  0  0
  154.2880  138.9415  160.1086 C   0  0  0  0  0  0  0  0  0  0  0  0
  155.3508  139.6269  159.6094 N   0  0  0  0  0  0  0  0  0  0  0  0
  156.4899  139.7193  160.3000 C   0  0  0  0  0  0  0  0  0  0  0  0
  156.7835  139.2064  161.4948 N   0  0  0  0  0  0  0  0  0  0  0  0
  155.7262  138.5143  162.0056 C   0  0  0  0  0  0  0  0  0  0  0  0
  154.4522  138.3353  161.3918 C   0  0  0  0  0  0  0  0  0  0  0  0
  153.6463  137.5599  162.2207 N   0  0  0  0  0  0  0  0  0  0  0  0
  154.3937  137.3045  163.2590 C   0  0  0  0  0  0  0  0  0  0  0  0
  155.6597  137.8382  163.2100 N   0  0  0  0  0  0  0  0  0  0  0  0
  156.7006  137.7081  164.2134 C   0  0  0  0  0  0  0  0  0  0  0  0
  156.3297  138.4032  165.5369 C   0  0  1  0  0  0  0  0  0  0  0  0
  157.0161  137.8065  166.6218 O   0  0  0  0  0  0  0  0  0  0  0  0
  156.5833  139.9237  165.5020 C   0  0  1  0  0  0  0  0  0  0  0  0
  155.8980  140.7062  164.3688 C   0  0  0  0  0  0  0  0  0  0  0  0
  155.2861  141.9080  165.0730 C   0  0  0  0  0  0  0  0  0  0  0  0
  155.9887  141.9274  166.4260 C   0  0  0  0  0  0  0  0  0  0  0  0
  156.1720  140.5510  166.7105 O   0  0  0  0  0  0  0  0  0  0  0  0
  152.2168  142.4574  158.2140 C   0  0  0  0  0  0  0  0  0  0  0  0
  151.3806  145.6908  160.7026 H   0  0  0  0  0  0  0  0  0  0  0  0
  151.6873  146.8985  159.4551 H   0  0  0  0  0  0  0  0  0  0  0  0
  153.0436  146.0680  160.2180 H   0  0  0  0  0  0  0  0  0  0  0  0
  153.4858  143.7413  160.8721 H   0  0  0  0  0  0  0  0  0  0  0  0
  151.8162  143.2268  161.1495 H   0  0  0  0  0  0  0  0  0  0  0  0
  154.1487  141.6256  160.0963 H   0  0  0  0  0  0  0  0  0  0  0  0
  152.8841  141.0861  161.1994 H   0  0  0  0  0  0  0  0  0  0  0  0
  151.2757  140.9753  159.4378 H   0  0  0  0  0  0  0  0  0  0  0  0
  152.2305  139.6288  157.5952 H   0  0  0  0  0  0  0  0  0  0  0  0
  153.8195  140.2340  157.9268 H   0  0  0  0  0  0  0  0  0  0  0  0
  152.4692  137.0029  160.0386 H   0  0  0  0  0  0  0  0  0  0  0  0
  153.0869  137.0034  158.3754 H   0  0  0  0  0  0  0  0  0  0  0  0
  151.5148  137.7129  158.7422 H   0  0  0  0  0  0  0  0  0  0  0  0
  157.2797  140.2832  159.8260 H   0  0  0  0  0  0  0  0  0  0  0  0
  154.0408  136.7156  164.0932 H   0  0  0  0  0  0  0  0  0  0  0  0
  156.8957  136.6473  164.3777 H   0  0  0  0  0  0  0  0  0  0  0  0
  157.6184  138.1349  163.8072 H   0  0  0  0  0  0  0  0  0  0  0  0
  155.2658  138.2497  165.7213 H   0  0  0  0  0  0  0  0  0  0  0  0
  157.3814  138.4928  167.1589 H   0  0  0  0  0  0  0  0  0  0  0  0
  157.6592  140.0895  165.4218 H   0  0  0  0  0  0  0  0  0  0  0  0
  156.6344  141.0175  163.6268 H   0  0  0  0  0  0  0  0  0  0  0  0
  155.1319  140.1325  163.8470 H   0  0  0  0  0  0  0  0  0  0  0  0
  155.4120  142.8383  164.5183 H   0  0  0  0  0  0  0  0  0  0  0  0
  154.2176  141.7436  165.2181 H   0  0  0  0  0  0  0  0  0  0  0  0
  156.9601  142.4198  166.3555 H   0  0  0  0  0  0  0  0  0  0  0  0
  155.4036  142.4253  167.1994 H   0  0  0  0  0  0  0  0  0  0  0  0
  151.3134  142.4610  157.6016 H   0  0  0  0  0  0  0  0  0  0  0  0
  153.0789  142.5197  157.5483 H   0  0  0  0  0  0  0  0  0  0  0  0
  1  2  1  0  0  0  0
  1 29  1  0  0  0  0
  1 30  1  0  0  0  0
  1 31  1  0  0  0  0
  2  3  2  0  0  0  0
  2  4  1  0  0  0  0
  4 28  1  0  0  0  0
  4  5  1  0  0  0  0
  5  6  1  0  0  0  0
  5 32  1  0  0  0  0
  5 33  1  0  0  0  0
  6  7  1  0  0  0  0
  6 34  1  0  0  0  0
  6 35  1  0  0  0  0
  7  8  1  0  0  0  0
  7 28  1  0  0  0  0
  7 36  1  0  0  0  0
  8  9  1  0  0  0  0
  8 37  1  0  0  0  0
  8 38  1  0  0  0  0
  9 10  1  0  0  0  0
  9 11  1  0  0  0  0
 10 39  1  0  0  0  0
 10 40  1  0  0  0  0
 10 41  1  0  0  0  0
 11 16  1  0  0  0  0
 11 12  2  0  0  0  0
 12 13  1  0  0  0  0
 13 14  2  0  0  0  0
 13 42  1  0  0  0  0
 14 15  1  0  0  0  0
 15 19  1  0  0  0  0
 15 16  2  0  0  0  0
 16 17  1  0  0  0  0
 17 18  2  0  0  0  0
 18 19  1  0  0  0  0
 18 43  1  0  0  0  0
 19 20  1  0  0  0  0
 20 21  1  0  0  0  0
 20 44  1  0  0  0  0
 20 45  1  0  0  0  0
 21 22  1  0  0  0  0
 21 23  1  0  0  0  0
 21 46  1  0  0  0  0
 22 47  1  0  0  0  0
 23 27  1  0  0  0  0
 23 24  1  0  0  0  0
 23 48  1  0  0  0  0
 24 25  1  0  0  0  0
 24 49  1  0  0  0  0
 24 50  1  0  0  0  0
 25 26  1  0  0  0  0
 25 51  1  0  0  0  0
 25 52  1  0  0  0  0
 26 27  1  0  0  0  0
 26 53  1  0  0  0  0
 26 54  1  0  0  0  0
 28 55  1  0  0  0  0
 28 56  1  0  0  0  0
M  END
> <s_m_source_file>
AV-unprocessed.smi

> <i_m_source_file_index>
83

> <i_lp_mmshare_version>
43012

> <i_f3d_flags>
0

> <s_epik_input>
W0NIM11DKD1PKU4xW0NIMl1bQ0gyXVtDQEhdKFtDSDJdMSlbQ0gyXU4oW0NIM10pYyhuW2NIXW4yKWMoYzIzKW5bY0hdbjNbQ0gyXVtDQEhdKFtPSF0pW0NAQEhdNFtDSDJdW0NIMl1bQ0gyXU80

> <s_epik_cmdline>
J2VwaWtfcHl0aG9uJywgJy1waCcsICc3LjAnLCAnLXRuJywgJzgnLCAnLW1hJywgJzIwMCcsICctbWV0YWxfYmluZGluZycsICctaW1hZScsICc8aW5maWxlLm1hZT4nLCAnLW9tYWUnLCAnPG91dGZpbGUubWFlPic=

> <r_lp_tautomer_probability>
1

> <r_epik_Ionization_Penalty>
0.00109752

> <r_epik_Ionization_Penalty_Charging>
0

> <r_epik_Ionization_Penalty_Neutral>
0.00109752

> <r_epik_State_Penalty>
0.000634803

> <r_epik_Charging_Adjusted_Penalty>
0.000634803

> <i_epik_Tot_Q>
0

> <i_epik_Tot_abs_Q>
0

> <r_epik_Metal_State_Penalty>
-0

> <b_epik_Metal_Only>
0

> <s_lp_Force_Field>
OPLS_2005

> <r_lp_Energy>
54.4429

> <b_lp_Chiralities_Consistent>
1

> <s_lp_Variant>
AV-unprocessed.smi:83-8

> <Gold.Version>
5.8.1

> <Gold.Id.Protein>
6NUR|6NUR_protein|mol2

> <Gold.PLP.Fitness>
47.4901

> <Gold.PLP.PLP>
-47.9447

> <Gold.PLP.part.hbond>
-1.3181

> <Gold.PLP.part.metal>
0.0000

> <Gold.PLP.part.buried>
-2.9025

> <Gold.PLP.part.nonpolar>
-41.0626

> <Gold.PLP.part.repulsive>
0.1870

> <Gold.PLP.ligand.clash>
0.0000

> <Gold.PLP.ligand.torsion>
1.0630

> <Gold.PLP.Chemscore.Hbond>
0.3900

> <Gold.PLP.Chemscore.CHOScore>
0.0000

> <Gold.PLP.Chemscore.Metal>
0.0000

> <Gold.Chemscore.Hbonds>
donor molecule, donor type, donor heavy atom, donor atom, acceptor molecule, acceptor atom, score
      P1  H  7997  8008       L1    12  0.39

> <Gold.PLP.Chemscore.Internal.Correction>
0.5013

> <Gold.Rescore>
     Score         DG    S(hbond)    S(metal)    S(lipo)     H(rot)  DE(clash)    DE(int)     intcor
      9.32     -13.17       0.86        0.00      98.50       2.62       1.74       2.11       ----

> <Gold.Chemscore.Fitness>
9.3177

> <Gold.Chemscore.DG>
-13.1737

> <Gold.Chemscore.ZeroCoef>
-5.4800

> <Gold.Chemscore.Hbond>
0.8575

> <Gold.Chemscore.Metal>
0.0000

> <Gold.Chemscore.Lipo>
98.4989

> <Gold.Chemscore.Internal_Hbond>
0.0000

> <Gold.Chemscore.DEClash>
1.7415

> <Gold.Chemscore.DEInternal>
2.1145

> <Gold.Chemscore.Rot>
2.6152

> <Gold.Chemscore.Internal.Correction>
   9.000000E+99

> <Gold.Chemscore.Hbonds>
donor molecule, donor type, donor heavy atom, donor atom, acceptor molecule, acceptor atom, score
      P1  H  7997  8008       L1    12  0.36

> <Gold.Chemscore.Hbond.Weighted>
-2.8642

> <Gold.Chemscore.Metal.Weighted>
-0.0000

> <Gold.Chemscore.Lipo.Weighted>
-11.5244

> <Gold.Chemscore.Internal_Hbond.Weighted>
0.0000

> <Gold.Chemscore.DEClash.Weighted>
1.7415

> <Gold.Chemscore.DEInternal.Weighted>
2.1145

> <Gold.Chemscore.Rot.Weighted>
6.6949

> <Gold.Chemscore.Internal.Correction.Weighted>
   9.000000E+99

> <Gold.Protein.RotatedTorsions>
[ 6907 6896 6895 6894 ] final   19.43 input  -60.11 | X-H torsion
[ 7974 7965 7964 7962 ] final -115.69 input  175.53 | X-H torsion
[ 8008 7997 7996 7995 ] final -132.66 input   59.86 | X-H torsion
[ 10167 10162 10161 10158 ] final   19.06 input  -65.29 | X-H torsion
[ 10718 10713 10712 10709 ] final -153.87 input   66.30 | X-H torsion
[ 10763 10752 10751 10750 ] final  167.93 input  -60.55 | X-H torsion
[ 11005 11000 10999 10996 ] final   48.72 input  -57.11 | X-H torsion

> <Gold.Protein.ActiveResidues>
 VAL166  LYS551  ARG553  GLY616  TRP617  ASP618  TYR619  PRO620  LYS621  CYS622 
 ASP623  PHE694  ASN695  SER759  ASP760  ASP761  ALA762  ILE779  LEU786  VAL792 
 PHE793  MET794  SER795  GLU796  ALA797  LYS798  CYS799  TRP800  GLU811  SER814 

> <Gold.Protein.RotatedAtoms>
  151.8807  135.0454  160.0488 H   0  0  0  0  0  0  0  0  0  0  0  0  # atno 6907 bound_to 6896
  152.2515  133.5214  159.5336 H   0  0  0  0  0  0  0  0  0  0  0  0  # atno 6908 bound_to 6896
  150.7085  134.0870  159.3960 H   0  0  0  0  0  0  0  0  0  0  0  0  # atno 6909 bound_to 6896
  145.1055  140.8579  143.3901 H   0  0  0  0  0  0  0  0  0  0  0  0  # atno 7974 bound_to 7965
  155.3326  140.0468  157.3043 H   0  0  0  0  0  0  0  0  0  0  0  0  # atno 8008 bound_to 7997
  154.5320  140.2260  155.8754 H   0  0  0  0  0  0  0  0  0  0  0  0  # atno 8009 bound_to 7997
  156.1798  140.3076  155.9133 H   0  0  0  0  0  0  0  0  0  0  0  0  # atno 8010 bound_to 7997
  140.5607  143.9343  150.6640 H   0  0  0  0  0  0  0  0  0  0  0  0  # atno 10167 bound_to 10162
  156.4916  130.8350  151.2572 H   0  0  0  0  0  0  0  0  0  0  0  0  # atno 10718 bound_to 10713
  154.3611  135.2753  155.2319 H   0  0  0  0  0  0  0  0  0  0  0  0  # atno 10763 bound_to 10752
  154.4507  135.5931  153.6193 H   0  0  0  0  0  0  0  0  0  0  0  0  # atno 10764 bound_to 10752
  152.9843  135.6041  154.3832 H   0  0  0  0  0  0  0  0  0  0  0  0  # atno 10765 bound_to 10752
  140.1166  134.4884  155.8632 H   0  0  0  0  0  0  0  0  0  0  0  0  # atno 11005 bound_to 11000
  145.0906  139.2893  143.5737 LP  0  0  0  0  0  0  0  0  0  0  0  0  # atno 17320 bound_to 7965
  146.3528  140.0442  142.8640 LP  0  0  0  0  0  0  0  0  0  0  0  0  # atno 17321 bound_to 7965
  140.2793  143.3401  152.1166 LP  0  0  0  0  0  0  0  0  0  0  0  0  # atno 17342 bound_to 10162
  139.5069  144.6821  151.5981 LP  0  0  0  0  0  0  0  0  0  0  0  0  # atno 17343 bound_to 10162
  157.7473  131.0011  150.2953 LP  0  0  0  0  0  0  0  0  0  0  0  0  # atno 17370 bound_to 10713
  156.3421  130.3817  149.7400 LP  0  0  0  0  0  0  0  0  0  0  0  0  # atno 17371 bound_to 10713
  141.2142  133.6746  156.6808 LP  0  0  0  0  0  0  0  0  0  0  0  0  # atno 17394 bound_to 11000
  140.3020  134.8156  157.4105 LP  0  0  0  0  0  0  0  0  0  0  0  0  # atno 17395 bound_to 11000

$$$$
