AV-unprocessed.smi:177|AV-procd|sdf|1437|dock9
  -GOLD-   2262019223D 1   1.00000     0.00000
 Structure written by MMmdl.
 61 65  0  0  0  0  0  0  0  0  1 V2000
  151.4573  145.6447  160.0480 C   0  0  0  0  0  0  0  0  0  0  0  0
  151.8868  144.6636  159.1166 O   0  0  0  0  0  0  0  0  0  0  0  0
  151.9313  143.3399  159.6351 C   0  0  2  0  0  0  0  0  0  0  0  0
  152.8000  143.3753  160.9043 C   0  0  0  0  0  0  0  0  0  0  0  0
  152.9855  141.9708  161.4970 C   0  0  0  0  0  0  0  0  0  0  0  0
  153.5760  141.0153  160.4501 C   0  0  1  0  0  0  0  0  0  0  0  0
  153.7192  139.7218  161.0252 O   0  0  0  0  0  0  0  0  0  0  0  0
  154.3582  138.8202  160.1298 C   0  0  0  0  0  0  0  0  0  0  0  0
  153.4978  138.6586  158.8674 C   0  0  0  0  0  0  0  0  0  0  0  0
  153.2217  139.9559  158.2561 N   0  0  0  0  0  0  0  0  0  0  0  0
  152.5831  139.7844  157.0728 C   0  0  0  0  0  0  0  0  0  0  0  0
  153.2180  139.1925  156.0258 N   0  0  0  0  0  0  0  0  0  0  0  0
  152.5869  139.0430  154.8574 C   0  0  0  0  0  0  0  0  0  0  0  0
  151.3503  139.4173  154.5222 N   0  0  0  0  0  0  0  0  0  0  0  0
  150.7176  140.0284  155.5651 C   0  0  0  0  0  0  0  0  0  0  0  0
  151.2572  140.2491  156.8631 C   0  0  0  0  0  0  0  0  0  0  0  0
  150.3232  140.8918  157.6650 N   0  0  0  0  0  0  0  0  0  0  0  0
  149.2871  141.0406  156.8851 C   0  0  0  0  0  0  0  0  0  0  0  0
  149.4418  140.5657  155.6012 N   0  0  0  0  0  0  0  0  0  0  0  0
  148.4486  140.5918  154.5362 C   0  0  0  0  0  0  0  0  0  0  0  0
  147.3736  139.4616  154.5802 C   0  0  0  0  0  0  0  0  0  0  0  0
  146.8458  139.2641  153.1300 C   0  0  0  0  0  0  0  0  0  0  0  0
  147.8211  138.7098  152.2692 O   0  0  0  0  0  0  0  0  0  0  0  0
  147.9543  138.1423  155.1541 C   0  0  0  0  0  0  0  0  0  0  0  0
  146.8721  137.0723  155.3877 C   0  0  0  0  0  0  0  0  0  0  0  0
  145.8740  137.5780  156.2658 O   0  0  0  0  0  0  0  0  0  0  0  0
  145.1974  138.7148  155.7437 C   0  0  0  0  0  0  0  0  0  0  0  0
  146.1977  139.8627  155.5087 C   0  0  0  0  0  0  0  0  0  0  0  0
  152.6666  140.9332  159.2013 C   0  0  2  0  0  0  0  0  0  0  0  0
  152.5110  142.3519  158.5990 C   0  0  0  0  0  0  0  0  0  0  0  0
  151.5111  146.6298  159.5851 H   0  0  0  0  0  0  0  0  0  0  0  0
  152.0960  145.6579  160.9318 H   0  0  0  0  0  0  0  0  0  0  0  0
  150.4266  145.4846  160.3629 H   0  0  0  0  0  0  0  0  0  0  0  0
  150.9266  143.0225  159.9208 H   0  0  0  0  0  0  0  0  0  0  0  0
  153.7767  143.8003  160.6687 H   0  0  0  0  0  0  0  0  0  0  0  0
  152.3482  144.0339  161.6469 H   0  0  0  0  0  0  0  0  0  0  0  0
  153.6389  142.0196  162.3683 H   0  0  0  0  0  0  0  0  0  0  0  0
  152.0260  141.5891  161.8483 H   0  0  0  0  0  0  0  0  0  0  0  0
  154.5637  141.3844  160.1652 H   0  0  0  0  0  0  0  0  0  0  0  0
  155.3566  139.1808  159.8773 H   0  0  0  0  0  0  0  0  0  0  0  0
  154.4838  137.8573  160.6249 H   0  0  0  0  0  0  0  0  0  0  0  0
  154.0119  138.0065  158.1600 H   0  0  0  0  0  0  0  0  0  0  0  0
  152.5547  138.1726  159.1228 H   0  0  0  0  0  0  0  0  0  0  0  0
  153.1555  138.5552  154.0792 H   0  0  0  0  0  0  0  0  0  0  0  0
  148.3750  141.5089  157.2256 H   0  0  0  0  0  0  0  0  0  0  0  0
  147.9600  141.5668  154.5631 H   0  0  0  0  0  0  0  0  0  0  0  0
  148.9911  140.5596  153.5908 H   0  0  0  0  0  0  0  0  0  0  0  0
  145.9739  138.6139  153.0926 H   0  0  0  0  0  0  0  0  0  0  0  0
  146.5284  140.2196  152.7110 H   0  0  0  0  0  0  0  0  0  0  0  0
  148.4151  139.3965  152.0070 H   0  0  0  0  0  0  0  0  0  0  0  0
  148.7365  137.7479  154.5051 H   0  0  0  0  0  0  0  0  0  0  0  0
  148.4301  138.3303  156.1158 H   0  0  0  0  0  0  0  0  0  0  0  0
  146.4219  136.7415  154.4514 H   0  0  0  0  0  0  0  0  0  0  0  0
  147.3186  136.1893  155.8452 H   0  0  0  0  0  0  0  0  0  0  0  0
  144.6599  138.4498  154.8335 H   0  0  0  0  0  0  0  0  0  0  0  0
  144.4427  139.0279  156.4652 H   0  0  0  0  0  0  0  0  0  0  0  0
  146.5750  140.1554  156.4879 H   0  0  0  0  0  0  0  0  0  0  0  0
  145.6787  140.7351  155.1104 H   0  0  0  0  0  0  0  0  0  0  0  0
  151.6846  140.5766  159.5174 H   0  0  0  0  0  0  0  0  0  0  0  0
  151.8633  142.3252  157.7247 H   0  0  0  0  0  0  0  0  0  0  0  0
  153.4800  142.7122  158.2507 H   0  0  0  0  0  0  0  0  0  0  0  0
  1  2  1  0  0  0  0
  1 31  1  0  0  0  0
  1 32  1  0  0  0  0
  1 33  1  0  0  0  0
  2  3  1  0  0  0  0
  3 30  1  0  0  0  0
  3  4  1  0  0  0  0
  3 34  1  0  0  0  0
  4  5  1  0  0  0  0
  4 35  1  0  0  0  0
  4 36  1  0  0  0  0
  5  6  1  0  0  0  0
  5 37  1  0  0  0  0
  5 38  1  0  0  0  0
  6 29  1  0  0  0  0
  6  7  1  0  0  0  0
  6 39  1  0  0  0  0
  7  8  1  0  0  0  0
  8  9  1  0  0  0  0
  8 40  1  0  0  0  0
  8 41  1  0  0  0  0
  9 10  1  0  0  0  0
  9 42  1  0  0  0  0
  9 43  1  0  0  0  0
 10 11  1  0  0  0  0
 10 29  1  0  0  0  0
 11 16  1  0  0  0  0
 11 12  2  0  0  0  0
 12 13  1  0  0  0  0
 13 14  2  0  0  0  0
 13 44  1  0  0  0  0
 14 15  1  0  0  0  0
 15 19  1  0  0  0  0
 15 16  2  0  0  0  0
 16 17  1  0  0  0  0
 17 18  2  0  0  0  0
 18 19  1  0  0  0  0
 18 45  1  0  0  0  0
 19 20  1  0  0  0  0
 20 21  1  0  0  0  0
 20 46  1  0  0  0  0
 20 47  1  0  0  0  0
 21 28  1  0  0  0  0
 21 22  1  0  0  0  0
 21 24  1  0  0  0  0
 22 23  1  0  0  0  0
 22 48  1  0  0  0  0
 22 49  1  0  0  0  0
 23 50  1  0  0  0  0
 24 25  1  0  0  0  0
 24 51  1  0  0  0  0
 24 52  1  0  0  0  0
 25 26  1  0  0  0  0
 25 53  1  0  0  0  0
 25 54  1  0  0  0  0
 26 27  1  0  0  0  0
 27 28  1  0  0  0  0
 27 55  1  0  0  0  0
 27 56  1  0  0  0  0
 28 57  1  0  0  0  0
 28 58  1  0  0  0  0
 29 30  1  0  0  0  0
 29 59  1  0  0  0  0
 30 60  1  0  0  0  0
 30 61  1  0  0  0  0
M  END
> <s_m_source_file>
AV-unprocessed.smi

> <i_m_source_file_index>
177

> <i_lp_mmshare_version>
43012

> <i_f3d_flags>
0

> <s_epik_input>
W0NIM11PW0NASF0oW0NIMl1bQ0gyXTEpW0NIMl1bQ0BIXShbQ0BASF0xMilOKFtDSDJdW0NIMl1PMiljKG5bY0hdbjMpYyhjMzQpbltjSF1uNFtDSDJdQzUoW0NIMl1bT0hdKVtDSDJdW0NIMl1PW0NIMl1bQ0gyXTU=

> <s_epik_cmdline>
J2VwaWtfcHl0aG9uJywgJy1waCcsICc3LjAnLCAnLXRuJywgJzgnLCAnLW1hJywgJzIwMCcsICctbWV0YWxfYmluZGluZycsICctaW1hZScsICc8aW5maWxlLm1hZT4nLCAnLW9tYWUnLCAnPG91dGZpbGUubWFlPic=

> <r_lp_tautomer_probability>
1

> <r_epik_Ionization_Penalty>
0.0065899

> <r_epik_Ionization_Penalty_Charging>
0

> <r_epik_Ionization_Penalty_Neutral>
0.0065899

> <r_epik_State_Penalty>
0.00470042

> <r_epik_Charging_Adjusted_Penalty>
0.00470042

> <i_epik_Tot_Q>
0

> <i_epik_Tot_abs_Q>
0

> <r_epik_Metal_State_Penalty>
-0

> <b_epik_Metal_Only>
0

> <s_lp_Force_Field>
OPLS_2005

> <r_lp_Energy>
44.8058

> <b_lp_Chiralities_Consistent>
1

> <s_lp_Variant>
AV-unprocessed.smi:177-1

> <Gold.Version>
5.8.1

> <Gold.Id.Protein>
6NUR|6NUR_protein|mol2

> <Gold.PLP.Fitness>
52.0052

> <Gold.PLP.PLP>
-45.5090

> <Gold.PLP.part.hbond>
-4.7694

> <Gold.PLP.part.metal>
0.0000

> <Gold.PLP.part.buried>
-5.3952

> <Gold.PLP.part.nonpolar>
-36.4589

> <Gold.PLP.part.repulsive>
0.1770

> <Gold.PLP.ligand.clash>
0.0000

> <Gold.PLP.ligand.torsion>
1.0554

> <Gold.PLP.Chemscore.Hbond>
2.8178

> <Gold.PLP.Chemscore.CHOScore>
0.0000

> <Gold.PLP.Chemscore.Metal>
0.0000

> <Gold.Chemscore.Hbonds>
donor molecule, donor type, donor heavy atom, donor atom, acceptor molecule, acceptor atom, score
      L1  H    23    50       P1  7957  1.00
      P1  H  7989  7998       L1    14  0.95
      P1  H  7997  8008       L1    12  0.81
      P1  H  7997  8010       L1    10  0.01

> <Gold.PLP.Chemscore.Internal.Correction>
0.1536

> <Gold.Rescore>
     Score         DG    S(hbond)    S(metal)    S(lipo)     H(rot)  DE(clash)    DE(int)     intcor
     11.16     -16.66       1.50        0.00     109.23       2.58       0.78       4.72       ----

> <Gold.Chemscore.Fitness>
11.1579

> <Gold.Chemscore.DG>
-16.6551

> <Gold.Chemscore.ZeroCoef>
-5.4800

> <Gold.Chemscore.Hbond>
1.4973

> <Gold.Chemscore.Metal>
0.0000

> <Gold.Chemscore.Lipo>
109.2332

> <Gold.Chemscore.Internal_Hbond>
0.0000

> <Gold.Chemscore.DEClash>
0.7821

> <Gold.Chemscore.DEInternal>
4.7152

> <Gold.Chemscore.Rot>
2.5806

> <Gold.Chemscore.Internal.Correction>
   9.000000E+99

> <Gold.Chemscore.Hbonds>
donor molecule, donor type, donor heavy atom, donor atom, acceptor molecule, acceptor atom, score
      L1  H    23    50       P1  7957  0.95
      P1  H  7989  7998       L1    14  0.07
      P1  H  7997  8008       L1    12  0.13

> <Gold.Chemscore.Hbond.Weighted>
-5.0011

> <Gold.Chemscore.Metal.Weighted>
-0.0000

> <Gold.Chemscore.Lipo.Weighted>
-12.7803

> <Gold.Chemscore.Internal_Hbond.Weighted>
0.0000

> <Gold.Chemscore.DEClash.Weighted>
0.7821

> <Gold.Chemscore.DEInternal.Weighted>
4.7152

> <Gold.Chemscore.Rot.Weighted>
6.6062

> <Gold.Chemscore.Internal.Correction.Weighted>
   9.000000E+99

> <Gold.Protein.RotatedTorsions>
[ 6907 6896 6895 6894 ] final  -13.79 input  -60.11 | X-H torsion
[ 7974 7965 7964 7962 ] final  121.34 input  175.53 | X-H torsion
[ 8008 7997 7996 7995 ] final  -17.73 input   59.86 | X-H torsion
[ 10167 10162 10161 10158 ] final  150.15 input  -65.29 | X-H torsion
[ 10718 10713 10712 10709 ] final -136.15 input   66.30 | X-H torsion
[ 10763 10752 10751 10750 ] final   35.98 input  -60.55 | X-H torsion
[ 11005 11000 10999 10996 ] final  118.26 input  -57.11 | X-H torsion

> <Gold.Protein.ActiveResidues>
 VAL166  LYS551  ARG553  GLY616  TRP617  ASP618  TYR619  PRO620  LYS621  CYS622 
 ASP623  PHE694  ASN695  SER759  ASP760  ASP761  ALA762  ILE779  LEU786  VAL792 
 PHE793  MET794  SER795  GLU796  ALA797  LYS798  CYS799  TRP800  GLU811  SER814 

> <Gold.Protein.RotatedAtoms>
  151.3495  135.0881  159.9397 H   0  0  0  0  0  0  0  0  0  0  0  0  # atno 6907 bound_to 6896
  152.5191  133.9367  159.7617 H   0  0  0  0  0  0  0  0  0  0  0  0  # atno 6908 bound_to 6896
  150.9739  133.6261  159.2763 H   0  0  0  0  0  0  0  0  0  0  0  0  # atno 6909 bound_to 6896
  145.1204  139.3392  143.4717 H   0  0  0  0  0  0  0  0  0  0  0  0  # atno 7974 bound_to 7965
  154.4957  140.2135  155.9453 H   0  0  0  0  0  0  0  0  0  0  0  0  # atno 8008 bound_to 7997
  156.1366  140.3187  155.8399 H   0  0  0  0  0  0  0  0  0  0  0  0  # atno 8009 bound_to 7997
  155.4197  140.0496  157.3017 H   0  0  0  0  0  0  0  0  0  0  0  0  # atno 8010 bound_to 7997
  139.4853  144.5545  151.7342 H   0  0  0  0  0  0  0  0  0  0  0  0  # atno 10167 bound_to 10162
  156.2739  130.7281  151.1257 H   0  0  0  0  0  0  0  0  0  0  0  0  # atno 10718 bound_to 10713
  153.0096  135.6318  154.1913 H   0  0  0  0  0  0  0  0  0  0  0  0  # atno 10763 bound_to 10752
  154.1655  135.2821  155.3098 H   0  0  0  0  0  0  0  0  0  0  0  0  # atno 10764 bound_to 10752
  154.5948  135.5606  153.7375 H   0  0  0  0  0  0  0  0  0  0  0  0  # atno 10765 bound_to 10752
  139.9103  134.9618  156.7475 H   0  0  0  0  0  0  0  0  0  0  0  0  # atno 11005 bound_to 11000
  146.3521  140.1162  142.8602 LP  0  0  0  0  0  0  0  0  0  0  0  0  # atno 17320 bound_to 7965
  145.0746  140.9179  143.4861 LP  0  0  0  0  0  0  0  0  0  0  0  0  # atno 17321 bound_to 7965
  140.5104  144.1034  150.5993 LP  0  0  0  0  0  0  0  0  0  0  0  0  # atno 17342 bound_to 10162
  140.3957  143.2729  152.0007 LP  0  0  0  0  0  0  0  0  0  0  0  0  # atno 17343 bound_to 10162
  157.7293  131.0625  150.5781 LP  0  0  0  0  0  0  0  0  0  0  0  0  # atno 17370 bound_to 10713
  156.5880  130.4322  149.5949 LP  0  0  0  0  0  0  0  0  0  0  0  0  # atno 17371 bound_to 10713
  140.6800  133.9483  155.7905 LP  0  0  0  0  0  0  0  0  0  0  0  0  # atno 17394 bound_to 11000
  141.0517  134.0475  157.3775 LP  0  0  0  0  0  0  0  0  0  0  0  0  # atno 17395 bound_to 11000

$$$$
