AV-unprocessed.smi:3112|AV-procd|sdf|11849|dock2
  -GOLD-   2272017233D 1   1.00000     0.00000
 Structure written by MMmdl.
 36 36  0  0  0  0  0  0  0  0  1 V2000
  145.4566  135.5744  151.0202 C   0  0  0  0  0  0  0  0  0  0  0  0
  145.4557  136.6753  152.0891 C   0  0  0  0  0  0  0  0  0  0  0  0
  146.6283  137.6656  151.9448 C   0  0  1  0  0  0  0  0  0  0  0  0
  146.6983  138.1779  150.6288 O   0  0  0  0  0  0  0  0  0  0  0  0
  146.5925  138.8371  152.9444 C   0  0  0  0  0  0  0  0  0  0  0  0
  147.9194  139.4141  153.1646 N   0  0  0  0  0  0  0  0  0  0  0  0
  148.0656  140.3177  154.3150 C   0  0  2  0  0  0  0  0  0  0  0  0
  147.1471  141.5299  154.0865 C   0  0  0  0  0  0  0  0  0  0  0  0
  149.5286  140.7680  154.6172 C   0  0  1  0  0  0  0  0  0  0  0  0
  149.6755  141.6577  155.8692 C   0  0  0  0  0  0  0  0  0  0  0  0
  150.5020  139.6782  154.5642 N   0  0  0  0  0  0  0  0  0  0  0  0
  151.8195  139.6986  154.9764 C   0  0  0  0  0  0  0  0  0  0  0  0
  152.3571  138.4736  154.7040 C   0  0  0  0  0  0  0  0  0  0  0  0
  151.2814  137.7589  154.1089 C   0  0  0  0  0  0  0  0  0  0  0  0
  150.1758  138.4797  154.0270 N   0  0  0  0  0  0  0  0  0  0  0  0
  144.6323  134.8792  151.1794 H   0  0  0  0  0  0  0  0  0  0  0  0
  146.3831  135.0003  151.0460 H   0  0  0  0  0  0  0  0  0  0  0  0
  145.3473  135.9917  150.0191 H   0  0  0  0  0  0  0  0  0  0  0  0
  144.5042  137.2070  152.0581 H   0  0  0  0  0  0  0  0  0  0  0  0
  145.5090  136.2024  153.0703 H   0  0  0  0  0  0  0  0  0  0  0  0
  147.5585  137.1229  152.1164 H   0  0  0  0  0  0  0  0  0  0  0  0
  145.8187  138.3250  150.3169 H   0  0  0  0  0  0  0  0  0  0  0  0
  145.9218  139.6056  152.5592 H   0  0  0  0  0  0  0  0  0  0  0  0
  146.1616  138.4836  153.8781 H   0  0  0  0  0  0  0  0  0  0  0  0
  148.2233  139.8886  152.3206 H   0  0  0  0  0  0  0  0  0  0  0  0
  147.6818  139.8137  155.2026 H   0  0  0  0  0  0  0  0  0  0  0  0
  147.1713  142.2125  154.9362 H   0  0  0  0  0  0  0  0  0  0  0  0
  146.1112  141.2162  153.9538 H   0  0  0  0  0  0  0  0  0  0  0  0
  147.4354  142.0920  153.1980 H   0  0  0  0  0  0  0  0  0  0  0  0
  149.8108  141.4372  153.8028 H   0  0  0  0  0  0  0  0  0  0  0  0
  149.0051  142.5155  155.8154 H   0  0  0  0  0  0  0  0  0  0  0  0
  150.6914  142.0462  155.9475 H   0  0  0  0  0  0  0  0  0  0  0  0
  149.4603  141.1341  156.7978 H   0  0  0  0  0  0  0  0  0  0  0  0
  152.2616  140.5766  155.4237 H   0  0  0  0  0  0  0  0  0  0  0  0
  153.3666  138.1410  154.8951 H   0  0  0  0  0  0  0  0  0  0  0  0
  151.2713  136.7457  153.7350 H   0  0  0  0  0  0  0  0  0  0  0  0
  1  2  1  0  0  0  0
  1 16  1  0  0  0  0
  1 17  1  0  0  0  0
  1 18  1  0  0  0  0
  2  3  1  0  0  0  0
  2 19  1  0  0  0  0
  2 20  1  0  0  0  0
  3  4  1  0  0  0  0
  3  5  1  0  0  0  0
  3 21  1  0  0  0  0
  4 22  1  0  0  0  0
  5  6  1  0  0  0  0
  5 23  1  0  0  0  0
  5 24  1  0  0  0  0
  6  7  1  0  0  0  0
  6 25  1  0  0  0  0
  7  8  1  0  0  0  0
  7  9  1  0  0  0  0
  7 26  1  0  0  0  0
  8 27  1  0  0  0  0
  8 28  1  0  0  0  0
  8 29  1  0  0  0  0
  9 10  1  0  0  0  0
  9 11  1  0  0  0  0
  9 30  1  0  0  0  0
 10 31  1  0  0  0  0
 10 32  1  0  0  0  0
 10 33  1  0  0  0  0
 11 15  1  0  0  0  0
 11 12  1  0  0  0  0
 12 13  2  0  0  0  0
 12 34  1  0  0  0  0
 13 14  1  0  0  0  0
 13 35  1  0  0  0  0
 14 15  2  0  0  0  0
 14 36  1  0  0  0  0
M  END
> <s_m_source_file>
AV-unprocessed.smi

> <i_m_source_file_index>
3112

> <i_lp_mmshare_version>
43012

> <i_f3d_flags>
0

> <s_epik_input>
W0NIM11bQ0gyXVtDQEhdKFtPSF0pW0NIMl1bTkhdW0NASF0oW0NIM10pW0NASF0oW0NIM10pbjFbY0hdW2NIXVtjSF1uMQ==

> <s_epik_cmdline>
J2VwaWtfcHl0aG9uJywgJy1waCcsICc3LjAnLCAnLXRuJywgJzgnLCAnLW1hJywgJzIwMCcsICctbWV0YWxfYmluZGluZycsICctaW1hZScsICc8aW5maWxlLm1hZT4nLCAnLW9tYWUnLCAnPG91dGZpbGUubWFlPic=

> <r_lp_tautomer_probability>
1

> <r_epik_Ionization_Penalty>
2.16876

> <r_epik_Ionization_Penalty_Charging>
0

> <r_epik_Ionization_Penalty_Neutral>
2.16876

> <r_epik_State_Penalty>
2.30854

> <r_epik_Charging_Adjusted_Penalty>
2.30854

> <i_epik_Tot_Q>
0

> <i_epik_Tot_abs_Q>
0

> <r_epik_Metal_State_Penalty>
2.3073

> <b_epik_Metal_Only>
0

> <s_lp_Force_Field>
OPLS_2005

> <r_lp_Energy>
23.5049

> <b_lp_Chiralities_Consistent>
1

> <s_lp_Variant>
AV-unprocessed.smi:3112-14

> <Gold.Version>
5.8.1

> <Gold.Id.Protein>
6NUR|6NUR_protein|mol2

> <Gold.PLP.Fitness>
43.7807

> <Gold.PLP.PLP>
-33.7477

> <Gold.PLP.part.hbond>
-3.4684

> <Gold.PLP.part.metal>
0.0000

> <Gold.PLP.part.buried>
1.8970

> <Gold.PLP.part.nonpolar>
-32.9357

> <Gold.PLP.part.repulsive>
0.2423

> <Gold.PLP.ligand.clash>
0.0000

> <Gold.PLP.ligand.torsion>
0.8590

> <Gold.PLP.Chemscore.Hbond>
2.9600

> <Gold.PLP.Chemscore.CHOScore>
0.8481

> <Gold.PLP.Chemscore.Metal>
0.0000

> <Gold.Chemscore.Hbonds>
donor molecule, donor type, donor heavy atom, donor atom, acceptor molecule, acceptor atom, score
      L1  H     4    22       P1 10171  1.00
      L1  H     6    25       P1  7957  0.88
      P1  H  7954  7966       L1     4  0.99
      L1  C    14    36       P1  7949  0.98

> <Gold.PLP.Chemscore.Internal.Correction>
0.3266

> <Gold.Rescore>
     Score         DG    S(hbond)    S(metal)    S(lipo)     H(rot)  DE(clash)    DE(int)     intcor
     14.64     -17.27       2.69        0.00      74.62       2.31       0.11       2.53       ----

> <Gold.Chemscore.Fitness>
14.6369

> <Gold.Chemscore.DG>
-17.2741

> <Gold.Chemscore.ZeroCoef>
-5.4800

> <Gold.Chemscore.Hbond>
2.6882

> <Gold.Chemscore.Metal>
0.0000

> <Gold.Chemscore.Lipo>
74.6250

> <Gold.Chemscore.Internal_Hbond>
0.0000

> <Gold.Chemscore.DEClash>
0.1075

> <Gold.Chemscore.DEInternal>
2.5297

> <Gold.Chemscore.Rot>
2.3108

> <Gold.Chemscore.Internal.Correction>
   9.000000E+99

> <Gold.Chemscore.Hbonds>
donor molecule, donor type, donor heavy atom, donor atom, acceptor molecule, acceptor atom, score
      L1  H     4    22       P1 10171  0.95
      L1  H     6    25       P1  7957  0.87
      P1  H  7954  7966       L1     4  0.83

> <Gold.Chemscore.Hbond.Weighted>
-8.9787

> <Gold.Chemscore.Metal.Weighted>
-0.0000

> <Gold.Chemscore.Lipo.Weighted>
-8.7311

> <Gold.Chemscore.Internal_Hbond.Weighted>
0.0000

> <Gold.Chemscore.DEClash.Weighted>
0.1075

> <Gold.Chemscore.DEInternal.Weighted>
2.5297

> <Gold.Chemscore.Rot.Weighted>
5.9157

> <Gold.Chemscore.Internal.Correction.Weighted>
   9.000000E+99

> <Gold.Protein.RotatedTorsions>
[ 6907 6896 6895 6894 ] final  173.32 input  -60.11 | X-H torsion
[ 7974 7965 7964 7962 ] final -172.52 input  175.53 | X-H torsion
[ 8008 7997 7996 7995 ] final  -62.49 input   59.86 | X-H torsion
[ 10167 10162 10161 10158 ] final  -79.49 input  -65.29 | X-H torsion
[ 10718 10713 10712 10709 ] final   10.61 input   66.30 | X-H torsion
[ 10763 10752 10751 10750 ] final   -1.18 input  -60.55 | X-H torsion
[ 11005 11000 10999 10996 ] final -174.19 input  -57.11 | X-H torsion

> <Gold.Protein.ActiveResidues>
 VAL166  LYS551  ARG553  GLY616  TRP617  ASP618  TYR619  PRO620  LYS621  CYS622 
 ASP623  PHE694  ASN695  SER759  ASP760  ASP761  ALA762  ILE779  LEU786  VAL792 
 PHE793  MET794  SER795  GLU796  ALA797  LYS798  CYS799  TRP800  GLU811  SER814 

> <Gold.Protein.RotatedAtoms>
  151.7702  133.3340  159.3442 H   0  0  0  0  0  0  0  0  0  0  0  0  # atno 6907 bound_to 6896
  150.7464  134.6025  159.6053 H   0  0  0  0  0  0  0  0  0  0  0  0  # atno 6908 bound_to 6896
  152.3346  134.7216  160.0332 H   0  0  0  0  0  0  0  0  0  0  0  0  # atno 6909 bound_to 6896
  144.7145  140.1760  143.6363 H   0  0  0  0  0  0  0  0  0  0  0  0  # atno 7974 bound_to 7965
  154.4503  140.0995  156.6595 H   0  0  0  0  0  0  0  0  0  0  0  0  # atno 8008 bound_to 7997
  155.5308  140.3481  155.4407 H   0  0  0  0  0  0  0  0  0  0  0  0  # atno 8009 bound_to 7997
  156.0665  140.1339  156.9868 H   0  0  0  0  0  0  0  0  0  0  0  0  # atno 8010 bound_to 7997
  140.4588  143.2460  151.8379 H   0  0  0  0  0  0  0  0  0  0  0  0  # atno 10167 bound_to 10162
  156.9835  130.6015  149.5679 H   0  0  0  0  0  0  0  0  0  0  0  0  # atno 10718 bound_to 10713
  153.3415  135.6981  153.6863 H   0  0  0  0  0  0  0  0  0  0  0  0  # atno 10763 bound_to 10752
  153.5626  135.3532  155.2806 H   0  0  0  0  0  0  0  0  0  0  0  0  # atno 10764 bound_to 10752
  154.8637  135.4253  154.2629 H   0  0  0  0  0  0  0  0  0  0  0  0  # atno 10765 bound_to 10752
  140.4773  134.6109  157.4905 H   0  0  0  0  0  0  0  0  0  0  0  0  # atno 11005 bound_to 11000
  145.8900  139.2370  143.1555 LP  0  0  0  0  0  0  0  0  0  0  0  0  # atno 17320 bound_to 7965
  145.9912  140.8601  143.0065 LP  0  0  0  0  0  0  0  0  0  0  0  0  # atno 17321 bound_to 7965
  139.4804  144.5032  151.9032 LP  0  0  0  0  0  0  0  0  0  0  0  0  # atno 17342 bound_to 10162
  140.4118  144.2359  150.5888 LP  0  0  0  0  0  0  0  0  0  0  0  0  # atno 17343 bound_to 10162
  156.0235  130.5329  150.8342 LP  0  0  0  0  0  0  0  0  0  0  0  0  # atno 17370 bound_to 10713
  157.5509  131.0944  150.9696 LP  0  0  0  0  0  0  0  0  0  0  0  0  # atno 17371 bound_to 10713
  139.9848  134.7079  155.9793 LP  0  0  0  0  0  0  0  0  0  0  0  0  # atno 17394 bound_to 11000
  141.1548  133.6544  156.4128 LP  0  0  0  0  0  0  0  0  0  0  0  0  # atno 17395 bound_to 11000

$$$$
