AV-unprocessed.smi:2791|AV-procd|sdf|10771|dock3
  -GOLD-   2272015203D 1   1.00000     0.00000
 Structure written by MMmdl.
 35 36  0  0  0  0  0  0  0  0  1 V2000
  142.7362  135.1261  153.7340 C   0  0  0  0  0  0  0  0  0  0  0  0
  143.6884  134.4564  152.9180 O   0  0  0  0  0  0  0  0  0  0  0  0
  144.8790  135.1860  152.6182 C   0  0  0  0  0  0  0  0  0  0  0  0
  145.7549  135.3895  153.8621 C   0  0  0  0  0  0  0  0  0  0  0  0
  146.8728  136.2752  153.5663 N   0  0  0  0  0  0  0  0  0  0  0  0
  147.1129  137.4287  154.2019 C   0  0  0  0  0  0  0  0  0  0  0  0
  146.4038  137.8593  155.1117 O   0  0  0  0  0  0  0  0  0  0  0  0
  148.2092  138.0334  153.7120 N   0  0  0  0  0  0  0  0  0  0  0  0
  148.7689  139.2133  154.0900 C   0  0  0  0  0  0  0  0  0  0  0  0
  148.1826  140.4436  154.2128 C   0  0  0  0  0  0  0  0  0  0  0  0
  149.2676  141.2603  154.6425 C   0  0  0  0  0  0  0  0  0  0  0  0
  150.4051  140.5885  154.7713 N   0  0  0  0  0  0  0  0  0  0  0  0
  150.1001  139.3173  154.4303 N   0  0  0  0  0  0  0  0  0  0  0  0
  151.1253  138.2923  154.4584 C   0  0  0  0  0  0  0  0  0  0  0  0
  145.5320  134.5425  151.3802 C   0  0  0  0  0  0  0  0  0  0  0  0
  145.7190  135.9444  150.7975 C   0  0  0  0  0  0  0  0  0  0  0  0
  144.5814  136.3988  151.7135 C   0  0  0  0  0  0  0  0  0  0  0  0
  141.8311  134.5225  153.7957 H   0  0  0  0  0  0  0  0  0  0  0  0
  142.4586  136.0978  153.3250 H   0  0  0  0  0  0  0  0  0  0  0  0
  143.1021  135.2656  154.7510 H   0  0  0  0  0  0  0  0  0  0  0  0
  145.1664  135.8277  154.6697 H   0  0  0  0  0  0  0  0  0  0  0  0
  146.1281  134.4393  154.2455 H   0  0  0  0  0  0  0  0  0  0  0  0
  147.5026  135.9852  152.8325 H   0  0  0  0  0  0  0  0  0  0  0  0
  148.6768  137.5586  152.9539 H   0  0  0  0  0  0  0  0  0  0  0  0
  147.1579  140.7316  154.0339 H   0  0  0  0  0  0  0  0  0  0  0  0
  149.2629  142.3168  154.8658 H   0  0  0  0  0  0  0  0  0  0  0  0
  151.1979  137.8200  153.4784 H   0  0  0  0  0  0  0  0  0  0  0  0
  150.8665  137.5364  155.2000 H   0  0  0  0  0  0  0  0  0  0  0  0
  152.0938  138.7237  154.7148 H   0  0  0  0  0  0  0  0  0  0  0  0
  146.4623  134.0078  151.5742 H   0  0  0  0  0  0  0  0  0  0  0  0
  144.8393  133.9360  150.7935 H   0  0  0  0  0  0  0  0  0  0  0  0
  146.6803  136.3892  151.0603 H   0  0  0  0  0  0  0  0  0  0  0  0
  145.5094  136.0286  149.7308 H   0  0  0  0  0  0  0  0  0  0  0  0
  143.6078  136.3453  151.2228 H   0  0  0  0  0  0  0  0  0  0  0  0
  144.7404  137.3701  152.1831 H   0  0  0  0  0  0  0  0  0  0  0  0
  1  2  1  0  0  0  0
  1 18  1  0  0  0  0
  1 19  1  0  0  0  0
  1 20  1  0  0  0  0
  2  3  1  0  0  0  0
  3 17  1  0  0  0  0
  3  4  1  0  0  0  0
  3 15  1  0  0  0  0
  4  5  1  0  0  0  0
  4 21  1  0  0  0  0
  4 22  1  0  0  0  0
  5  6  1  0  0  0  0
  5 23  1  0  0  0  0
  6  7  2  0  0  0  0
  6  8  1  0  0  0  0
  8  9  1  0  0  0  0
  8 24  1  0  0  0  0
  9 13  1  0  0  0  0
  9 10  2  0  0  0  0
 10 11  1  0  0  0  0
 10 25  1  0  0  0  0
 11 12  2  0  0  0  0
 11 26  1  0  0  0  0
 12 13  1  0  0  0  0
 13 14  1  0  0  0  0
 14 27  1  0  0  0  0
 14 28  1  0  0  0  0
 14 29  1  0  0  0  0
 15 16  1  0  0  0  0
 15 30  1  0  0  0  0
 15 31  1  0  0  0  0
 16 17  1  0  0  0  0
 16 32  1  0  0  0  0
 16 33  1  0  0  0  0
 17 34  1  0  0  0  0
 17 35  1  0  0  0  0
M  END
> <s_m_source_file>
AV-unprocessed.smi

> <i_m_source_file_index>
2791

> <i_lp_mmshare_version>
43012

> <i_f3d_flags>
0

> <s_epik_input>
W0NIMl0xW0NIMl1bQ0gyXUMxKE9bQ0gzXSlbQ0gyXVtOSF1DKD1PKVtOSF1jMltjSF1bY0hdbm4yW0NIM10=

> <s_epik_cmdline>
J2VwaWtfcHl0aG9uJywgJy1waCcsICc3LjAnLCAnLXRuJywgJzgnLCAnLW1hJywgJzIwMCcsICctbWV0YWxfYmluZGluZycsICctaW1hZScsICc8aW5maWxlLm1hZT4nLCAnLW9tYWUnLCAnPG91dGZpbGUubWFlPic=

> <r_lp_tautomer_probability>
1

> <r_epik_Ionization_Penalty>
4.34911e-05

> <r_epik_Ionization_Penalty_Charging>
0

> <r_epik_Ionization_Penalty_Neutral>
4.34911e-05

> <r_epik_State_Penalty>
-0

> <r_epik_Charging_Adjusted_Penalty>
0

> <i_epik_Tot_Q>
0

> <i_epik_Tot_abs_Q>
0

> <r_epik_Metal_State_Penalty>
-0

> <b_epik_Metal_Only>
0

> <s_lp_Force_Field>
OPLS_2005

> <r_lp_Energy>
18.0019

> <b_lp_Chiralities_Consistent>
1

> <s_lp_Variant>
AV-unprocessed.smi:2791-1

> <Gold.Version>
5.8.1

> <Gold.Id.Protein>
6NUR|6NUR_protein|mol2

> <Gold.PLP.Fitness>
37.7018

> <Gold.PLP.PLP>
-27.2325

> <Gold.PLP.part.hbond>
-3.0000

> <Gold.PLP.part.metal>
0.0000

> <Gold.PLP.part.buried>
-1.7926

> <Gold.PLP.part.nonpolar>
-21.8762

> <Gold.PLP.part.repulsive>
0.2711

> <Gold.PLP.ligand.clash>
0.0000

> <Gold.PLP.ligand.torsion>
0.6946

> <Gold.PLP.Chemscore.Hbond>
2.9120

> <Gold.PLP.Chemscore.CHOScore>
0.9395

> <Gold.PLP.Chemscore.Metal>
0.0000

> <Gold.Chemscore.Hbonds>
donor molecule, donor type, donor heavy atom, donor atom, acceptor molecule, acceptor atom, score
      L1  H     5    23       P1  7948  1.00
      L1  H     8    24       P1  7948  1.00
      P1  H  7989  7998       L1    12  0.85
      L1  C    11    26       P1  8028  0.96

> <Gold.PLP.Chemscore.Internal.Correction>
0.3042

> <Gold.Rescore>
     Score         DG    S(hbond)    S(metal)    S(lipo)     H(rot)  DE(clash)    DE(int)     intcor
     13.50     -15.23       2.43        0.00      47.45       1.53       0.10       1.63       ----

> <Gold.Chemscore.Fitness>
13.5017

> <Gold.Chemscore.DG>
-15.2322

> <Gold.Chemscore.ZeroCoef>
-5.4800

> <Gold.Chemscore.Hbond>
2.4334

> <Gold.Chemscore.Metal>
0.0000

> <Gold.Chemscore.Lipo>
47.4481

> <Gold.Chemscore.Internal_Hbond>
0.0000

> <Gold.Chemscore.DEClash>
0.1013

> <Gold.Chemscore.DEInternal>
1.6292

> <Gold.Chemscore.Rot>
1.5339

> <Gold.Chemscore.Internal.Correction>
   9.000000E+99

> <Gold.Chemscore.Hbonds>
donor molecule, donor type, donor heavy atom, donor atom, acceptor molecule, acceptor atom, score
      L1  H     5    23       P1  7948  0.96
      L1  H     8    24       P1  7948  0.99
      P1  H  7989  7998       L1    12  0.15

> <Gold.Chemscore.Hbond.Weighted>
-8.1275

> <Gold.Chemscore.Metal.Weighted>
-0.0000

> <Gold.Chemscore.Lipo.Weighted>
-5.5514

> <Gold.Chemscore.Internal_Hbond.Weighted>
0.0000

> <Gold.Chemscore.DEClash.Weighted>
0.1013

> <Gold.Chemscore.DEInternal.Weighted>
1.6292

> <Gold.Chemscore.Rot.Weighted>
3.9267

> <Gold.Chemscore.Internal.Correction.Weighted>
   9.000000E+99

> <Gold.Protein.RotatedTorsions>
[ 6907 6896 6895 6894 ] final  146.62 input  -60.11 | X-H torsion
[ 7974 7965 7964 7962 ] final   73.13 input  175.53 | X-H torsion
[ 8008 7997 7996 7995 ] final  137.87 input   59.86 | X-H torsion
[ 10167 10162 10161 10158 ] final   95.02 input  -65.29 | X-H torsion
[ 10718 10713 10712 10709 ] final  148.55 input   66.30 | X-H torsion
[ 10763 10752 10751 10750 ] final   96.65 input  -60.55 | X-H torsion
[ 11005 11000 10999 10996 ] final  -90.26 input  -57.11 | X-H torsion

> <Gold.Protein.ActiveResidues>
 VAL166  LYS551  ARG553  GLY616  TRP617  ASP618  TYR619  PRO620  LYS621  CYS622 
 ASP623  PHE694  ASN695  SER759  ASP760  ASP761  ALA762  ILE779  LEU786  VAL792 
 PHE793  MET794  SER795  GLU796  ALA797  LYS798  CYS799  TRP800  GLU811  SER814 

> <Gold.Protein.RotatedAtoms>
  152.1655  133.4609  159.4882 H   0  0  0  0  0  0  0  0  0  0  0  0  # atno 6907 bound_to 6896
  150.6912  134.2018  159.4334 H   0  0  0  0  0  0  0  0  0  0  0  0  # atno 6908 bound_to 6896
  151.9922  134.9972  160.0612 H   0  0  0  0  0  0  0  0  0  0  0  0  # atno 6909 bound_to 6896
  145.7447  139.2735  143.1466 H   0  0  0  0  0  0  0  0  0  0  0  0  # atno 7974 bound_to 7965
  156.3000  140.2408  156.3981 H   0  0  0  0  0  0  0  0  0  0  0  0  # atno 8008 bound_to 7997
  154.8552  140.0422  157.1650 H   0  0  0  0  0  0  0  0  0  0  0  0  # atno 8009 bound_to 7997
  154.8955  140.2969  155.5350 H   0  0  0  0  0  0  0  0  0  0  0  0  # atno 8010 bound_to 7997
  139.8028  144.6806  150.9742 H   0  0  0  0  0  0  0  0  0  0  0  0  # atno 10167 bound_to 10162
  157.3072  131.0881  151.1345 H   0  0  0  0  0  0  0  0  0  0  0  0  # atno 10718 bound_to 10713
  153.2675  135.4211  155.0955 H   0  0  0  0  0  0  0  0  0  0  0  0  # atno 10763 bound_to 10752
  154.8443  135.3464  154.6291 H   0  0  0  0  0  0  0  0  0  0  0  0  # atno 10764 bound_to 10752
  153.6711  135.7043  153.5204 H   0  0  0  0  0  0  0  0  0  0  0  0  # atno 10765 bound_to 10752
  141.1569  133.7681  156.9712 H   0  0  0  0  0  0  0  0  0  0  0  0  # atno 11005 bound_to 11000
  146.0414  140.8161  142.9827 LP  0  0  0  0  0  0  0  0  0  0  0  0  # atno 17320 bound_to 7965
  144.6863  140.2916  143.7277 LP  0  0  0  0  0  0  0  0  0  0  0  0  # atno 17321 bound_to 7965
  140.7820  143.4264  151.0762 LP  0  0  0  0  0  0  0  0  0  0  0  0  # atno 17342 bound_to 10162
  139.7935  143.8185  152.3154 LP  0  0  0  0  0  0  0  0  0  0  0  0  # atno 17343 bound_to 10162
  157.2681  130.6691  149.6006 LP  0  0  0  0  0  0  0  0  0  0  0  0  # atno 17370 bound_to 10713
  155.9675  130.4487  150.5632 LP  0  0  0  0  0  0  0  0  0  0  0  0  # atno 17371 bound_to 10713
  140.1128  134.9466  157.2090 LP  0  0  0  0  0  0  0  0  0  0  0  0  # atno 17394 bound_to 11000
  140.3172  134.2957  155.7254 LP  0  0  0  0  0  0  0  0  0  0  0  0  # atno 17395 bound_to 11000

$$$$
