AV-unprocessed.smi:2746|AV-procd|sdf|10572|dock10
  -GOLD-   2272015 23D 1   1.00000     0.00000
 Structure written by MMmdl.
 38 39  0  0  0  0  0  0  0  0  1 V2000
  150.9946  145.3269  159.9792 C   0  0  0  0  0  0  0  0  0  0  0  0
  151.8589  144.6736  159.1881 C   0  0  0  0  0  0  0  0  0  0  0  0
  152.4316  143.3012  159.4904 C   0  0  1  0  0  0  0  0  0  0  0  0
  151.8360  142.7255  160.7815 C   0  0  0  0  0  0  0  0  0  0  0  0
  152.1667  142.3870  158.3851 N   0  0  0  0  0  0  0  0  0  0  0  0
  152.3737  141.0588  158.4023 C   0  0  0  0  0  0  0  0  0  0  0  0
  152.8355  140.4595  159.3745 O   0  0  0  0  0  0  0  0  0  0  0  0
  152.0449  140.3290  157.1274 C   0  0  0  0  0  0  0  0  0  0  0  0
  150.9249  140.7243  156.3593 C   0  0  0  0  0  0  0  0  0  0  0  0
  150.6389  140.0395  155.1570 C   0  0  0  0  0  0  0  0  0  0  0  0
  149.5468  140.3792  154.3469 N   0  0  0  0  0  0  0  0  0  0  0  0
  148.7029  139.2446  153.9941 C   0  0  0  0  0  0  0  0  0  0  0  0
  147.6069  139.6911  153.0106 C   0  0  0  0  0  0  0  0  0  0  0  0
  146.8631  140.7657  153.5786 O   0  0  0  0  0  0  0  0  0  0  0  0
  147.6839  141.8978  153.8533 C   0  0  0  0  0  0  0  0  0  0  0  0
  148.7806  141.5075  154.8594 C   0  0  0  0  0  0  0  0  0  0  0  0
  151.4893  138.9871  154.7667 C   0  0  0  0  0  0  0  0  0  0  0  0
  152.5826  138.6653  155.5923 C   0  0  0  0  0  0  0  0  0  0  0  0
  152.8594  139.3158  156.7417 N   0  0  0  0  0  0  0  0  0  0  0  0
  150.6486  144.8959  160.9075 H   0  0  0  0  0  0  0  0  0  0  0  0
  150.6222  146.3035  159.7076 H   0  0  0  0  0  0  0  0  0  0  0  0
  152.1821  145.1370  158.2671 H   0  0  0  0  0  0  0  0  0  0  0  0
  153.5109  143.3918  159.6282 H   0  0  0  0  0  0  0  0  0  0  0  0
  152.0394  143.3780  161.6312 H   0  0  0  0  0  0  0  0  0  0  0  0
  152.2641  141.7486  161.0088 H   0  0  0  0  0  0  0  0  0  0  0  0
  150.7544  142.6059  160.7047 H   0  0  0  0  0  0  0  0  0  0  0  0
  151.7949  142.7891  157.5366 H   0  0  0  0  0  0  0  0  0  0  0  0
  150.2938  141.5393  156.6841 H   0  0  0  0  0  0  0  0  0  0  0  0
  149.3104  138.4579  153.5452 H   0  0  0  0  0  0  0  0  0  0  0  0
  148.2444  138.8276  154.8918 H   0  0  0  0  0  0  0  0  0  0  0  0
  148.0410  139.9993  152.0580 H   0  0  0  0  0  0  0  0  0  0  0  0
  146.9305  138.8630  152.7994 H   0  0  0  0  0  0  0  0  0  0  0  0
  148.1217  142.2757  152.9280 H   0  0  0  0  0  0  0  0  0  0  0  0
  147.0646  142.6960  154.2621 H   0  0  0  0  0  0  0  0  0  0  0  0
  148.3277  141.2432  155.8162 H   0  0  0  0  0  0  0  0  0  0  0  0
  149.4437  142.3549  155.0381 H   0  0  0  0  0  0  0  0  0  0  0  0
  151.3101  138.4369  153.8545 H   0  0  0  0  0  0  0  0  0  0  0  0
  153.2540  137.8641  155.3219 H   0  0  0  0  0  0  0  0  0  0  0  0
  1  2  2  0  0  0  0
  1 20  1  0  0  0  0
  1 21  1  0  0  0  0
  2  3  1  0  0  0  0
  2 22  1  0  0  0  0
  3  4  1  0  0  0  0
  3  5  1  0  0  0  0
  3 23  1  0  0  0  0
  4 24  1  0  0  0  0
  4 25  1  0  0  0  0
  4 26  1  0  0  0  0
  5  6  1  0  0  0  0
  5 27  1  0  0  0  0
  6  7  2  0  0  0  0
  6  8  1  0  0  0  0
  8 19  1  0  0  0  0
  8  9  2  0  0  0  0
  9 10  1  0  0  0  0
  9 28  1  0  0  0  0
 10 11  1  0  0  0  0
 10 17  2  0  0  0  0
 11 16  1  0  0  0  0
 11 12  1  0  0  0  0
 12 13  1  0  0  0  0
 12 29  1  0  0  0  0
 12 30  1  0  0  0  0
 13 14  1  0  0  0  0
 13 31  1  0  0  0  0
 13 32  1  0  0  0  0
 14 15  1  0  0  0  0
 15 16  1  0  0  0  0
 15 33  1  0  0  0  0
 15 34  1  0  0  0  0
 16 35  1  0  0  0  0
 16 36  1  0  0  0  0
 17 18  1  0  0  0  0
 17 37  1  0  0  0  0
 18 19  2  0  0  0  0
 18 38  1  0  0  0  0
M  END
> <s_m_source_file>
AV-unprocessed.smi

> <i_m_source_file_index>
2746

> <i_lp_mmshare_version>
43012

> <i_f3d_flags>
0

> <s_epik_input>
W0NIMl09W0NIXVtDQEhdKFtDSDNdKVtOSF1DKD1PKWMxW2NIXWMoW2NIXVtjSF1uMSlOMltDSDJdW0NIMl1PW0NIMl1bQ0gyXTI=

> <s_epik_cmdline>
J2VwaWtfcHl0aG9uJywgJy1waCcsICc3LjAnLCAnLXRuJywgJzgnLCAnLW1hJywgJzIwMCcsICctbWV0YWxfYmluZGluZycsICctaW1hZScsICc8aW5maWxlLm1hZT4nLCAnLW9tYWUnLCAnPG91dGZpbGUubWFlPic=

> <r_lp_tautomer_probability>
1

> <r_epik_Ionization_Penalty>
0.373275

> <r_epik_Ionization_Penalty_Charging>
0

> <r_epik_Ionization_Penalty_Neutral>
0.373275

> <r_epik_State_Penalty>
0.370855

> <r_epik_Charging_Adjusted_Penalty>
0.370855

> <i_epik_Tot_Q>
0

> <i_epik_Tot_abs_Q>
0

> <r_epik_Metal_State_Penalty>
0.225885

> <b_epik_Metal_Only>
0

> <s_lp_Force_Field>
OPLS_2005

> <r_lp_Energy>
21.8565

> <b_lp_Chiralities_Consistent>
1

> <s_lp_Variant>
AV-unprocessed.smi:2746-2

> <Gold.Version>
5.8.1

> <Gold.Id.Protein>
6NUR|6NUR_protein|mol2

> <Gold.PLP.Fitness>
42.3042

> <Gold.PLP.PLP>
-41.3327

> <Gold.PLP.part.hbond>
-1.0451

> <Gold.PLP.part.metal>
0.0000

> <Gold.PLP.part.buried>
-2.7679

> <Gold.PLP.part.nonpolar>
-37.3745

> <Gold.PLP.part.repulsive>
0.3371

> <Gold.PLP.ligand.clash>
0.6730

> <Gold.PLP.ligand.torsion>
0.7420

> <Gold.PLP.Chemscore.Hbond>
1.0000

> <Gold.PLP.Chemscore.CHOScore>
0.0000

> <Gold.PLP.Chemscore.Metal>
0.0000

> <Gold.Chemscore.Hbonds>
donor molecule, donor type, donor heavy atom, donor atom, acceptor molecule, acceptor atom, score
      P1  H  7997  8010       L1    19  1.00

> <Gold.PLP.Chemscore.Internal.Correction>
0.1286

> <Gold.Rescore>
     Score         DG    S(hbond)    S(metal)    S(lipo)     H(rot)  DE(clash)    DE(int)     intcor
     14.49     -16.32       0.51        0.00     105.80       1.27       0.00       1.82       ----

> <Gold.Chemscore.Fitness>
14.4897

> <Gold.Chemscore.DG>
-16.3164

> <Gold.Chemscore.ZeroCoef>
-5.4800

> <Gold.Chemscore.Hbond>
0.5149

> <Gold.Chemscore.Metal>
0.0000

> <Gold.Chemscore.Lipo>
105.8010

> <Gold.Chemscore.Internal_Hbond>
0.0000

> <Gold.Chemscore.DEClash>
0.0038

> <Gold.Chemscore.DEInternal>
1.8229

> <Gold.Chemscore.Rot>
1.2742

> <Gold.Chemscore.Internal.Correction>
   9.000000E+99

> <Gold.Chemscore.Hbonds>
donor molecule, donor type, donor heavy atom, donor atom, acceptor molecule, acceptor atom, score
      P1  H  7997  8010       L1    19  0.24

> <Gold.Chemscore.Hbond.Weighted>
-1.7196

> <Gold.Chemscore.Metal.Weighted>
-0.0000

> <Gold.Chemscore.Lipo.Weighted>
-12.3787

> <Gold.Chemscore.Internal_Hbond.Weighted>
0.0000

> <Gold.Chemscore.DEClash.Weighted>
0.0038

> <Gold.Chemscore.DEInternal.Weighted>
1.8229

> <Gold.Chemscore.Rot.Weighted>
3.2619

> <Gold.Chemscore.Internal.Correction.Weighted>
   9.000000E+99

> <Gold.Protein.RotatedTorsions>
[ 6907 6896 6895 6894 ] final   -0.49 input  -60.11 | X-H torsion
[ 7974 7965 7964 7962 ] final -147.13 input  175.53 | X-H torsion
[ 8008 7997 7996 7995 ] final   65.55 input   59.86 | X-H torsion
[ 10167 10162 10161 10158 ] final -148.69 input  -65.29 | X-H torsion
[ 10718 10713 10712 10709 ] final  -12.71 input   66.30 | X-H torsion
[ 10763 10752 10751 10750 ] final  140.20 input  -60.55 | X-H torsion
[ 11005 11000 10999 10996 ] final -150.82 input  -57.11 | X-H torsion

> <Gold.Protein.ActiveResidues>
 VAL166  LYS551  ARG553  GLY616  TRP617  ASP618  TYR619  PRO620  LYS621  CYS622 
 ASP623  PHE694  ASN695  SER759  ASP760  ASP761  ALA762  ILE779  LEU786  VAL792 
 PHE793  MET794  SER795  GLU796  ALA797  LYS798  CYS799  TRP800  GLU811  SER814 

> <Gold.Protein.RotatedAtoms>
  151.5614  135.1065  159.9973 H   0  0  0  0  0  0  0  0  0  0  0  0  # atno 6907 bound_to 6896
  152.4445  133.7505  159.6702 H   0  0  0  0  0  0  0  0  0  0  0  0  # atno 6908 bound_to 6896
  150.8357  133.7949  159.3104 H   0  0  0  0  0  0  0  0  0  0  0  0  # atno 6909 bound_to 6896
  144.8113  140.5367  143.5640 H   0  0  0  0  0  0  0  0  0  0  0  0  # atno 7974 bound_to 7965
  155.6635  140.3497  155.4791 H   0  0  0  0  0  0  0  0  0  0  0  0  # atno 8008 bound_to 7997
  155.9748  140.1163  157.0802 H   0  0  0  0  0  0  0  0  0  0  0  0  # atno 8009 bound_to 7997
  154.4176  140.1150  156.5342 H   0  0  0  0  0  0  0  0  0  0  0  0  # atno 8010 bound_to 7997
  139.7509  143.8520  152.2586 H   0  0  0  0  0  0  0  0  0  0  0  0  # atno 10167 bound_to 10162
  156.6407  130.4927  149.6096 H   0  0  0  0  0  0  0  0  0  0  0  0  # atno 10718 bound_to 10713
  153.9188  135.3003  155.3448 H   0  0  0  0  0  0  0  0  0  0  0  0  # atno 10763 bound_to 10752
  154.7586  135.4945  153.9424 H   0  0  0  0  0  0  0  0  0  0  0  0  # atno 10764 bound_to 10752
  153.1153  135.6769  153.9532 H   0  0  0  0  0  0  0  0  0  0  0  0  # atno 10765 bound_to 10752
  140.7362  134.3566  157.5157 H   0  0  0  0  0  0  0  0  0  0  0  0  # atno 11005 bound_to 11000
  145.5316  139.1475  143.3496 LP  0  0  0  0  0  0  0  0  0  0  0  0  # atno 17320 bound_to 7965
  146.2412  140.5457  142.8933 LP  0  0  0  0  0  0  0  0  0  0  0  0  # atno 17321 bound_to 7965
  139.8498  144.7170  150.9228 LP  0  0  0  0  0  0  0  0  0  0  0  0  # atno 17342 bound_to 10162
  140.7797  143.3909  151.1312 LP  0  0  0  0  0  0  0  0  0  0  0  0  # atno 17343 bound_to 10162
  156.2161  130.6709  151.1320 LP  0  0  0  0  0  0  0  0  0  0  0  0  # atno 17370 bound_to 10713
  157.7172  131.0703  150.6281 LP  0  0  0  0  0  0  0  0  0  0  0  0  # atno 17371 bound_to 10713
  139.8816  134.9051  156.2891 LP  0  0  0  0  0  0  0  0  0  0  0  0  # atno 17394 bound_to 11000
  140.9877  133.7228  156.0767 LP  0  0  0  0  0  0  0  0  0  0  0  0  # atno 17395 bound_to 11000

$$$$
