AV-unprocessed.smi:1235|AV-procd|sdf|5176|dock2
  -GOLD-   22720 4253D 1   1.00000     0.00000
 Structure written by MMmdl.
 50 51  0  0  0  0  0  0  0  0  2 V2000
  151.9657  141.7892  158.9889 C   0  0  0  0  0  0  0  0  0  0  0  0
  150.6107  141.5588  158.6448 O   0  0  0  0  0  0  0  0  0  0  0  0
  150.4036  140.2723  158.0869 C   0  0  0  0  0  0  0  0  0  0  0  0
  150.8075  140.3031  156.6051 C   0  0  0  0  0  0  0  0  0  0  0  0
  150.8023  138.9600  156.0171 N   0  0  0  0  0  0  0  0  0  0  0  0
  149.5786  138.3164  156.0929 N   0  0  0  0  0  0  0  0  0  0  0  0
  149.4400  137.1233  155.6116 C   0  0  0  0  0  0  0  0  0  0  0  0
  148.1390  136.4002  155.6723 C   0  0  0  0  0  0  0  0  0  0  0  0
  147.3903  136.4830  156.6471 O   0  0  0  0  0  0  0  0  0  0  0  0
  147.8448  135.6554  154.5927 N   0  0  0  0  0  0  0  0  0  0  0  0
  146.6345  134.8611  154.4381 C   0  0  0  0  0  0  0  0  0  0  0  0
  145.8932  135.2680  153.1534 C   0  0  0  0  0  0  0  0  0  0  0  0
  145.2293  134.1289  152.4632 N   0  3  1  0  0  0  0  0  0  0  0  0
  144.8323  134.4803  151.0725 C   0  0  0  0  0  0  0  0  0  0  0  0
  143.9594  133.3838  150.4419 C   0  0  0  0  0  0  0  0  0  0  0  0
  144.6698  132.0268  150.4781 C   0  0  0  0  0  0  0  0  0  0  0  0
  145.0836  131.6952  151.9183 C   0  0  0  0  0  0  0  0  0  0  0  0
  145.9386  132.8129  152.5533 C   0  0  1  0  0  0  0  0  0  0  0  0
  147.3745  132.8419  151.9862 C   0  0  0  0  0  0  0  0  0  0  0  0
  150.5590  136.4378  154.9879 C   0  0  0  0  0  0  0  0  0  0  0  0
  151.7484  137.0761  154.9269 C   0  0  0  0  0  0  0  0  0  0  0  0
  151.9331  138.4246  155.4660 C   0  0  0  0  0  0  0  0  0  0  0  0
  153.0079  139.0227  155.4303 O   0  0  0  0  0  0  0  0  0  0  0  0
  152.0706  142.7862  159.4173 H   0  0  0  0  0  0  0  0  0  0  0  0
  152.6111  141.7300  158.1115 H   0  0  0  0  0  0  0  0  0  0  0  0
  152.3133  141.0671  159.7290 H   0  0  0  0  0  0  0  0  0  0  0  0
  150.9963  139.5324  158.6273 H   0  0  0  0  0  0  0  0  0  0  0  0
  149.3538  139.9899  158.1841 H   0  0  0  0  0  0  0  0  0  0  0  0
  150.1202  140.9502  156.0567 H   0  0  0  0  0  0  0  0  0  0  0  0
  151.7901  140.7649  156.4942 H   0  0  0  0  0  0  0  0  0  0  0  0
  148.5111  135.6385  153.8337 H   0  0  0  0  0  0  0  0  0  0  0  0
  146.9261  133.8112  154.4112 H   0  0  0  0  0  0  0  0  0  0  0  0
  145.9859  135.0001  155.3049 H   0  0  0  0  0  0  0  0  0  0  0  0
  145.1259  135.9933  153.4281 H   0  0  0  0  0  0  0  0  0  0  0  0
  146.5632  135.7883  152.4685 H   0  0  0  0  0  0  0  0  0  0  0  0
  144.2698  135.4146  151.0775 H   0  0  0  0  0  0  0  0  0  0  0  0
  145.7192  134.6571  150.4632 H   0  0  0  0  0  0  0  0  0  0  0  0
  143.0120  133.3160  150.9781 H   0  0  0  0  0  0  0  0  0  0  0  0
  143.7140  133.6484  149.4129 H   0  0  0  0  0  0  0  0  0  0  0  0
  144.0136  131.2484  150.0878 H   0  0  0  0  0  0  0  0  0  0  0  0
  145.5459  132.0472  149.8291 H   0  0  0  0  0  0  0  0  0  0  0  0
  144.1849  131.5488  152.5192 H   0  0  0  0  0  0  0  0  0  0  0  0
  145.6201  130.7460  151.9440 H   0  0  0  0  0  0  0  0  0  0  0  0
  146.0216  132.5521  153.6075 H   0  0  0  0  0  0  0  0  0  0  0  0
  147.8344  131.8558  152.0561 H   0  0  0  0  0  0  0  0  0  0  0  0
  148.0165  133.5239  152.5427 H   0  0  0  0  0  0  0  0  0  0  0  0
  147.4020  133.1373  150.9378 H   0  0  0  0  0  0  0  0  0  0  0  0
  150.4516  135.4423  154.5820 H   0  0  0  0  0  0  0  0  0  0  0  0
  152.5896  136.5784  154.4670 H   0  0  0  0  0  0  0  0  0  0  0  0
  144.3579  133.9931  152.9557 H   0  0  0  0  0  0  0  0  0  0  0  0
  1  2  1  0  0  0  0
  1 24  1  0  0  0  0
  1 25  1  0  0  0  0
  1 26  1  0  0  0  0
  2  3  1  0  0  0  0
  3  4  1  0  0  0  0
  3 27  1  0  0  0  0
  3 28  1  0  0  0  0
  4  5  1  0  0  0  0
  4 29  1  0  0  0  0
  4 30  1  0  0  0  0
  5 22  1  0  0  0  0
  5  6  1  0  0  0  0
  6  7  2  0  0  0  0
  7  8  1  0  0  0  0
  7 20  1  0  0  0  0
  8  9  2  0  0  0  0
  8 10  1  0  0  0  0
 10 11  1  0  0  0  0
 10 31  1  0  0  0  0
 11 12  1  0  0  0  0
 11 32  1  0  0  0  0
 11 33  1  0  0  0  0
 12 13  1  0  0  0  0
 12 34  1  0  0  0  0
 12 35  1  0  0  0  0
 13 18  1  0  0  0  0
 13 14  1  0  0  0  0
 13 50  1  0  0  0  0
 14 15  1  0  0  0  0
 14 36  1  0  0  0  0
 14 37  1  0  0  0  0
 15 16  1  0  0  0  0
 15 38  1  0  0  0  0
 15 39  1  0  0  0  0
 16 17  1  0  0  0  0
 16 40  1  0  0  0  0
 16 41  1  0  0  0  0
 17 18  1  0  0  0  0
 17 42  1  0  0  0  0
 17 43  1  0  0  0  0
 18 19  1  0  0  0  0
 18 44  1  0  0  0  0
 19 45  1  0  0  0  0
 19 46  1  0  0  0  0
 19 47  1  0  0  0  0
 20 21  2  0  0  0  0
 20 48  1  0  0  0  0
 21 22  1  0  0  0  0
 21 49  1  0  0  0  0
 22 23  2  0  0  0  0
M  CHG  1  13   1
M  END
> <s_m_source_file>
AV-unprocessed.smi

> <i_m_source_file_index>
1235

> <i_lp_mmshare_version>
43012

> <i_f3d_flags>
0

> <s_epik_input>
W0NIM11PW0NIMl1bQ0gyXW4xbmMoW2NIXVtjSF1jMT1PKUMoPU8pW05IXVtDSDJdW0NIMl1OMltDSDJdW0NIMl1bQ0gyXVtDSDJdW0NASF0yW0NIM10=

> <s_epik_cmdline>
J2VwaWtfcHl0aG9uJywgJy1waCcsICc3LjAnLCAnLXRuJywgJzgnLCAnLW1hJywgJzIwMCcsICctbWV0YWxfYmluZGluZycsICctaW1hZScsICc8aW5maWxlLm1hZT4nLCAnLW9tYWUnLCAnPG91dGZpbGUubWFlPic=

> <r_lp_tautomer_probability>
1

> <r_epik_Ionization_Penalty>
0.00271975

> <r_epik_Ionization_Penalty_Charging>
0.00271407

> <r_epik_Ionization_Penalty_Neutral>
5.6803e-06

> <r_epik_State_Penalty>
0.00189271

> <r_epik_Charging_Adjusted_Penalty>
0.00460678

> <i_epik_Tot_Q>
1

> <i_epik_Tot_abs_Q>
1

> <r_epik_Metal_State_Penalty>
-0

> <b_epik_Metal_Only>
0

> <s_lp_Force_Field>
OPLS_2005

> <r_lp_Energy>
41.7034

> <b_lp_Chiralities_Consistent>
1

> <s_lp_Variant>
AV-unprocessed.smi:1235-2

> <Gold.Version>
5.8.1

> <Gold.Id.Protein>
6NUR|6NUR_protein|mol2

> <Gold.PLP.Fitness>
40.7095

> <Gold.PLP.PLP>
-36.6302

> <Gold.PLP.part.hbond>
-3.0000

> <Gold.PLP.part.metal>
0.0000

> <Gold.PLP.part.buried>
-4.8066

> <Gold.PLP.part.nonpolar>
-30.9355

> <Gold.PLP.part.repulsive>
0.2201

> <Gold.PLP.ligand.clash>
0.0000

> <Gold.PLP.ligand.torsion>
1.1270

> <Gold.PLP.Chemscore.Hbond>
2.0152

> <Gold.PLP.Chemscore.CHOScore>
0.0000

> <Gold.PLP.Chemscore.Metal>
0.0000

> <Gold.Chemscore.Hbonds>
donor molecule, donor type, donor heavy atom, donor atom, acceptor molecule, acceptor atom, score
      L1  H    10    31       P1  7948  0.81
      P1  H  7997  8008       L1    23  1.00

> <Gold.PLP.Chemscore.Internal.Correction>
0.2877

> <Gold.Rescore>
     Score         DG    S(hbond)    S(metal)    S(lipo)     H(rot)  DE(clash)    DE(int)     intcor
     15.40     -16.42       1.95        0.00      81.51       2.00       0.07       0.94       ----

> <Gold.Chemscore.Fitness>
15.3979

> <Gold.Chemscore.DG>
-16.4174

> <Gold.Chemscore.ZeroCoef>
-5.4800

> <Gold.Chemscore.Hbond>
1.9537

> <Gold.Chemscore.Metal>
0.0000

> <Gold.Chemscore.Lipo>
81.5143

> <Gold.Chemscore.Internal_Hbond>
0.0000

> <Gold.Chemscore.DEClash>
0.0745

> <Gold.Chemscore.DEInternal>
0.9450

> <Gold.Chemscore.Rot>
2.0020

> <Gold.Chemscore.Internal.Correction>
   9.000000E+99

> <Gold.Chemscore.Hbonds>
donor molecule, donor type, donor heavy atom, donor atom, acceptor molecule, acceptor atom, score
      L1  H    10    31       P1  7948  0.75
      P1  H  7997  8008       L1    23  0.99

> <Gold.Chemscore.Hbond.Weighted>
-6.5254

> <Gold.Chemscore.Metal.Weighted>
-0.0000

> <Gold.Chemscore.Lipo.Weighted>
-9.5372

> <Gold.Chemscore.Internal_Hbond.Weighted>
0.0000

> <Gold.Chemscore.DEClash.Weighted>
0.0745

> <Gold.Chemscore.DEInternal.Weighted>
0.9450

> <Gold.Chemscore.Rot.Weighted>
5.1252

> <Gold.Chemscore.Internal.Correction.Weighted>
   9.000000E+99

> <Gold.Protein.RotatedTorsions>
[ 6907 6896 6895 6894 ] final  153.89 input  -60.11 | X-H torsion
[ 7974 7965 7964 7962 ] final   14.55 input  175.53 | X-H torsion
[ 8008 7997 7996 7995 ] final  -15.22 input   59.86 | X-H torsion
[ 10167 10162 10161 10158 ] final -143.89 input  -65.29 | X-H torsion
[ 10718 10713 10712 10709 ] final -140.21 input   66.30 | X-H torsion
[ 10763 10752 10751 10750 ] final  168.12 input  -60.55 | X-H torsion
[ 11005 11000 10999 10996 ] final -149.28 input  -57.11 | X-H torsion

> <Gold.Protein.ActiveResidues>
 VAL166  LYS551  ARG553  GLY616  TRP617  ASP618  TYR619  PRO620  LYS621  CYS622 
 ASP623  PHE694  ASN695  SER759  ASP760  ASP761  ALA762  ILE779  LEU786  VAL792 
 PHE793  MET794  SER795  GLU796  ALA797  LYS798  CYS799  TRP800  GLU811  SER814 

> <Gold.Protein.RotatedAtoms>
  152.0662  133.4085  159.4438 H   0  0  0  0  0  0  0  0  0  0  0  0  # atno 6907 bound_to 6896
  150.6864  134.3144  159.4769 H   0  0  0  0  0  0  0  0  0  0  0  0  # atno 6908 bound_to 6896
  152.0970  134.9367  160.0621 H   0  0  0  0  0  0  0  0  0  0  0  0  # atno 6909 bound_to 6896
  146.2302  139.9025  142.8537 H   0  0  0  0  0  0  0  0  0  0  0  0  # atno 7974 bound_to 7965
  154.5147  140.2202  155.9088 H   0  0  0  0  0  0  0  0  0  0  0  0  # atno 8008 bound_to 7997
  156.1594  140.3145  155.8747 H   0  0  0  0  0  0  0  0  0  0  0  0  # atno 8009 bound_to 7997
  155.3782  140.0471  157.3035 H   0  0  0  0  0  0  0  0  0  0  0  0  # atno 8010 bound_to 7997
  139.7951  143.7912  152.2653 H   0  0  0  0  0  0  0  0  0  0  0  0  # atno 10167 bound_to 10162
  156.3196  130.7527  151.1622 H   0  0  0  0  0  0  0  0  0  0  0  0  # atno 10718 bound_to 10713
  154.3639  135.2753  155.2304 H   0  0  0  0  0  0  0  0  0  0  0  0  # atno 10763 bound_to 10752
  154.4480  135.5938  153.6176 H   0  0  0  0  0  0  0  0  0  0  0  0  # atno 10764 bound_to 10752
  152.9842  135.6035  154.3863 H   0  0  0  0  0  0  0  0  0  0  0  0  # atno 10765 bound_to 10752
  140.7524  134.3392  157.5122 H   0  0  0  0  0  0  0  0  0  0  0  0  # atno 11005 bound_to 11000
  145.2309  140.9972  143.3991 LP  0  0  0  0  0  0  0  0  0  0  0  0  # atno 17320 bound_to 7965
  144.9531  139.4061  143.6392 LP  0  0  0  0  0  0  0  0  0  0  0  0  # atno 17321 bound_to 7965
  139.8015  144.7372  150.9819 LP  0  0  0  0  0  0  0  0  0  0  0  0  # atno 17342 bound_to 10162
  140.7820  143.4341  151.0650 LP  0  0  0  0  0  0  0  0  0  0  0  0  # atno 17343 bound_to 10162
  157.7409  131.0511  150.5135 LP  0  0  0  0  0  0  0  0  0  0  0  0  # atno 17370 bound_to 10713
  156.5285  130.4179  149.6213 LP  0  0  0  0  0  0  0  0  0  0  0  0  # atno 17371 bound_to 10713
  139.8785  134.9150  156.3121 LP  0  0  0  0  0  0  0  0  0  0  0  0  # atno 17394 bound_to 11000
  140.9739  133.7310  156.0574 LP  0  0  0  0  0  0  0  0  0  0  0  0  # atno 17395 bound_to 11000

$$$$
