AV-unprocessed.smi:2597|AV-procd|sdf|10170|dock2
  -GOLD-   2272014183D 1   1.00000     0.00000
 Structure written by MMmdl.
 31 32  0  0  0  0  0  0  0  0  2 V2000
  147.5343  133.9170  152.5994 N   0  3  0  0  0  0  0  0  0  0  0  0
  146.8252  133.0141  151.6728 C   0  0  1  0  0  0  0  0  0  0  0  0
  146.4456  131.6919  152.3704 C   0  0  0  0  0  0  0  0  0  0  0  0
  145.7125  130.7442  151.4078 C   0  0  0  0  0  0  0  0  0  0  0  0
  144.4743  131.4104  150.7883 C   0  0  0  0  0  0  0  0  0  0  0  0
  144.8365  132.7351  150.0906 C   0  0  0  0  0  0  0  0  0  0  0  0
  145.6192  133.7179  150.9926 C   0  0  1  0  0  0  0  0  0  0  0  0
  144.7525  134.4476  151.9197 N   0  0  0  0  0  0  0  0  0  0  0  0
  143.3725  134.4299  151.9646 C   0  0  0  0  0  0  0  0  0  0  0  0
  143.0681  135.2861  152.9842 C   0  0  0  0  0  0  0  0  0  0  0  0
  141.7276  135.6955  153.5130 C   0  0  0  0  0  0  0  0  0  0  0  0
  141.0643  134.5101  153.8961 O   0  0  0  0  0  0  0  0  0  0  0  0
  144.2559  135.7802  153.5177 N   0  0  0  0  0  0  0  0  0  0  0  0
  145.2565  135.2680  152.8753 N   0  0  0  0  0  0  0  0  0  0  0  0
  147.5416  132.7675  150.8879 H   0  0  0  0  0  0  0  0  0  0  0  0
  146.0351  134.4773  150.3283 H   0  0  0  0  0  0  0  0  0  0  0  0
  147.8057  134.7569  152.1078 H   0  0  0  0  0  0  0  0  0  0  0  0
  148.3594  133.4561  152.9554 H   0  0  0  0  0  0  0  0  0  0  0  0
  147.3451  131.1995  152.7417 H   0  0  0  0  0  0  0  0  0  0  0  0
  145.8258  131.8781  153.2470 H   0  0  0  0  0  0  0  0  0  0  0  0
  146.3932  130.4351  150.6135 H   0  0  0  0  0  0  0  0  0  0  0  0
  145.4200  129.8345  151.9331 H   0  0  0  0  0  0  0  0  0  0  0  0
  144.0174  130.7323  150.0669 H   0  0  0  0  0  0  0  0  0  0  0  0
  143.7201  131.5766  151.5565 H   0  0  0  0  0  0  0  0  0  0  0  0
  145.4480  132.5048  149.2170 H   0  0  0  0  0  0  0  0  0  0  0  0
  143.9350  133.2128  149.7047 H   0  0  0  0  0  0  0  0  0  0  0  0
  142.7545  133.8453  151.2989 H   0  0  0  0  0  0  0  0  0  0  0  0
  141.8275  136.3552  154.3749 H   0  0  0  0  0  0  0  0  0  0  0  0
  141.1374  136.2180  152.7594 H   0  0  0  0  0  0  0  0  0  0  0  0
  140.5681  134.1926  153.1572 H   0  0  0  0  0  0  0  0  0  0  0  0
  146.9256  134.1593  153.3681 H   0  0  0  0  0  0  0  0  0  0  0  0
  1  2  1  0  0  0  0
  1 17  1  0  0  0  0
  1 18  1  0  0  0  0
  1 31  1  0  0  0  0
  2 15  1  0  0  0  0
  2  7  1  0  0  0  0
  2  3  1  0  0  0  0
  3  4  1  0  0  0  0
  3 19  1  0  0  0  0
  3 20  1  0  0  0  0
  4  5  1  0  0  0  0
  4 21  1  0  0  0  0
  4 22  1  0  0  0  0
  5  6  1  0  0  0  0
  5 23  1  0  0  0  0
  5 24  1  0  0  0  0
  6  7  1  0  0  0  0
  6 25  1  0  0  0  0
  6 26  1  0  0  0  0
  7 16  1  0  0  0  0
  7  8  1  0  0  0  0
  8 14  1  0  0  0  0
  8  9  1  0  0  0  0
  9 10  2  0  0  0  0
  9 27  1  0  0  0  0
 10 11  1  0  0  0  0
 10 13  1  0  0  0  0
 11 12  1  0  0  0  0
 11 28  1  0  0  0  0
 11 29  1  0  0  0  0
 12 30  1  0  0  0  0
 13 14  2  0  0  0  0
M  CHG  1   1   1
M  END
> <s_m_source_file>
AV-unprocessed.smi

> <i_m_source_file_index>
2597

> <i_lp_mmshare_version>
43012

> <i_f3d_flags>
0

> <s_epik_input>
W05IMl1bQ0BIXTFbQ0gyXVtDSDJdW0NIMl1bQ0gyXVtDQEhdMW4yW2NIXWMobm4yKVtDSDJdW09IXQ==

> <s_epik_cmdline>
J2VwaWtfcHl0aG9uJywgJy1waCcsICc3LjAnLCAnLXRuJywgJzgnLCAnLW1hJywgJzIwMCcsICctbWV0YWxfYmluZGluZycsICctaW1hZScsICc8aW5maWxlLm1hZT4nLCAnLW9tYWUnLCAnPG91dGZpbGUubWFlPic=

> <r_lp_tautomer_probability>
1

> <r_epik_Ionization_Penalty>
0.014346

> <r_epik_Ionization_Penalty_Charging>
0.014316

> <r_epik_Ionization_Penalty_Neutral>
3.00097e-05

> <r_epik_State_Penalty>
0.0111909

> <r_epik_Charging_Adjusted_Penalty>
0.0255069

> <i_epik_Tot_Q>
1

> <i_epik_Tot_abs_Q>
1

> <r_epik_Metal_State_Penalty>
0.011192

> <b_epik_Metal_Only>
0

> <s_lp_Force_Field>
OPLS_2005

> <r_lp_Energy>
16.1833

> <b_lp_Chiralities_Consistent>
1

> <s_lp_Variant>
AV-unprocessed.smi:2597-1

> <Gold.Version>
5.8.1

> <Gold.Id.Protein>
6NUR|6NUR_protein|mol2

> <Gold.PLP.Fitness>
38.9183

> <Gold.PLP.PLP>
-27.2969

> <Gold.PLP.part.hbond>
-3.0752

> <Gold.PLP.part.metal>
0.0000

> <Gold.PLP.part.buried>
-5.8393

> <Gold.PLP.part.nonpolar>
-18.7870

> <Gold.PLP.part.repulsive>
0.1306

> <Gold.PLP.ligand.clash>
0.0000

> <Gold.PLP.ligand.torsion>
0.2205

> <Gold.PLP.Chemscore.Hbond>
3.0000

> <Gold.PLP.Chemscore.CHOScore>
0.9991

> <Gold.PLP.Chemscore.Metal>
0.0000

> <Gold.Chemscore.Hbonds>
donor molecule, donor type, donor heavy atom, donor atom, acceptor molecule, acceptor atom, score
      L1  H     1    17       P1  7948  2.00
      P1  H 11000 11005       L1    12  1.00
      L1  C     9    27       P1 10186  1.00

> <Gold.PLP.Chemscore.Internal.Correction>
0.0650

> <Gold.Rescore>
     Score         DG    S(hbond)    S(metal)    S(lipo)     H(rot)  DE(clash)    DE(int)     intcor
     12.89     -14.39       1.88        0.00      63.01       1.86       0.00       1.51       ----

> <Gold.Chemscore.Fitness>
12.8859

> <Gold.Chemscore.DG>
-14.3942

> <Gold.Chemscore.ZeroCoef>
-5.4800

> <Gold.Chemscore.Hbond>
1.8835

> <Gold.Chemscore.Metal>
0.0000

> <Gold.Chemscore.Lipo>
63.0111

> <Gold.Chemscore.Internal_Hbond>
0.0000

> <Gold.Chemscore.DEClash>
0.0000

> <Gold.Chemscore.DEInternal>
1.5083

> <Gold.Chemscore.Rot>
1.8551

> <Gold.Chemscore.Internal.Correction>
   9.000000E+99

> <Gold.Chemscore.Hbonds>
donor molecule, donor type, donor heavy atom, donor atom, acceptor molecule, acceptor atom, score
      L1  H     1    17       P1  7948  0.58
      P1  H 11000 11005       L1    12  0.96

> <Gold.Chemscore.Hbond.Weighted>
-6.2908

> <Gold.Chemscore.Metal.Weighted>
-0.0000

> <Gold.Chemscore.Lipo.Weighted>
-7.3723

> <Gold.Chemscore.Internal_Hbond.Weighted>
0.0000

> <Gold.Chemscore.DEClash.Weighted>
0.0000

> <Gold.Chemscore.DEInternal.Weighted>
1.5083

> <Gold.Chemscore.Rot.Weighted>
4.7489

> <Gold.Chemscore.Internal.Correction.Weighted>
   9.000000E+99

> <Gold.Protein.RotatedTorsions>
[ 6907 6896 6895 6894 ] final -163.73 input  -60.11 | X-H torsion
[ 7974 7965 7964 7962 ] final  163.27 input  175.53 | X-H torsion
[ 8008 7997 7996 7995 ] final  -96.20 input   59.86 | X-H torsion
[ 10167 10162 10161 10158 ] final -127.41 input  -65.29 | X-H torsion
[ 10718 10713 10712 10709 ] final -138.66 input   66.30 | X-H torsion
[ 10763 10752 10751 10750 ] final   77.06 input  -60.55 | X-H torsion
[ 11005 11000 10999 10996 ] final   14.64 input  -57.11 | X-H torsion

> <Gold.Protein.ActiveResidues>
 VAL166  LYS551  ARG553  GLY616  TRP617  ASP618  TYR619  PRO620  LYS621  CYS622 
 ASP623  PHE694  ASN695  SER759  ASP760  ASP761  ALA762  ILE779  LEU786  VAL792 
 PHE793  MET794  SER795  GLU796  ALA797  LYS798  CYS799  TRP800  GLU811  SER814 

> <Gold.Protein.RotatedAtoms>
  151.4006  133.3759  159.2731 H   0  0  0  0  0  0  0  0  0  0  0  0  # atno 6907 bound_to 6896
  150.9436  134.8844  159.7638 H   0  0  0  0  0  0  0  0  0  0  0  0  # atno 6908 bound_to 6896
  152.5082  134.3958  159.9451 H   0  0  0  0  0  0  0  0  0  0  0  0  # atno 6909 bound_to 6896
  144.7598  139.8158  143.6337 H   0  0  0  0  0  0  0  0  0  0  0  0  # atno 7974 bound_to 7965
  154.7713  140.0473  157.1053 H   0  0  0  0  0  0  0  0  0  0  0  0  # atno 8008 bound_to 7997
  154.9817  140.3102  155.4924 H   0  0  0  0  0  0  0  0  0  0  0  0  # atno 8009 bound_to 7997
  156.2921  140.2235  156.4916 H   0  0  0  0  0  0  0  0  0  0  0  0  # atno 8010 bound_to 7997
  139.9611  143.5949  152.2444 H   0  0  0  0  0  0  0  0  0  0  0  0  # atno 10167 bound_to 10162
  156.3019  130.7433  151.1487 H   0  0  0  0  0  0  0  0  0  0  0  0  # atno 10718 bound_to 10713
  153.0771  135.4928  154.8426 H   0  0  0  0  0  0  0  0  0  0  0  0  # atno 10763 bound_to 10752
  154.7102  135.3018  154.9212 H   0  0  0  0  0  0  0  0  0  0  0  0  # atno 10764 bound_to 10752
  153.9908  135.6778  153.4807 H   0  0  0  0  0  0  0  0  0  0  0  0  # atno 10765 bound_to 10752
  140.4673  134.1067  155.7726 H   0  0  0  0  0  0  0  0  0  0  0  0  # atno 11005 bound_to 11000
  146.1648  139.4775  142.9965 LP  0  0  0  0  0  0  0  0  0  0  0  0  # atno 17320 bound_to 7965
  145.6658  141.0229  143.1684 LP  0  0  0  0  0  0  0  0  0  0  0  0  # atno 17321 bound_to 7965
  139.6553  144.7662  151.2067 LP  0  0  0  0  0  0  0  0  0  0  0  0  # atno 17342 bound_to 10162
  140.7553  143.6095  150.8619 LP  0  0  0  0  0  0  0  0  0  0  0  0  # atno 17343 bound_to 10162
  157.7370  131.0556  150.5382 LP  0  0  0  0  0  0  0  0  0  0  0  0  # atno 17370 bound_to 10713
  156.5510  130.4232  149.6107 LP  0  0  0  0  0  0  0  0  0  0  0  0  # atno 17371 bound_to 10713
  141.1593  133.8822  157.1891 LP  0  0  0  0  0  0  0  0  0  0  0  0  # atno 17394 bound_to 11000
  139.9907  135.0065  156.9969 LP  0  0  0  0  0  0  0  0  0  0  0  0  # atno 17395 bound_to 11000

$$$$
