AV-unprocessed.smi:1427|AV-procd|sdf|5812|dock5
  -GOLD-   22720 5463D 1   1.00000     0.00000
 Structure written by MMmdl.
 33 34  0  0  0  0  0  0  0  0  1 V2000
  145.6467  135.8880  155.1315 C   0  0  0  0  0  0  0  0  0  0  0  0
  146.0056  135.6246  153.6629 C   0  0  1  0  0  0  0  0  0  0  0  0
  144.7447  135.3378  152.8187 C   0  0  0  0  0  0  0  0  0  0  0  0
  145.0030  134.4266  151.7167 N   0  0  0  0  0  0  0  0  0  0  0  0
  144.1163  133.9468  150.7761 C   0  0  0  0  0  0  0  0  0  0  0  0
  144.8100  133.1029  149.9571 C   0  0  0  0  0  0  0  0  0  0  0  0
  146.1325  133.1347  150.4809 C   0  0  0  0  0  0  0  0  0  0  0  0
  146.2461  133.9307  151.5315 N   0  0  0  0  0  0  0  0  0  0  0  0
  146.7343  136.7780  153.1360 N   0  0  0  0  0  0  0  0  0  0  0  0
  146.4446  138.0657  153.3831 C   0  0  0  0  0  0  0  0  0  0  0  0
  145.4805  138.4245  154.0611 O   0  0  0  0  0  0  0  0  0  0  0  0
  147.3893  139.1057  152.7645 C   0  0  1  0  0  0  0  0  0  0  0  0
  147.1455  140.5452  153.2590 C   0  0  0  0  0  0  0  0  0  0  0  0
  148.2457  140.8156  154.2947 C   0  0  0  0  0  0  0  0  0  0  0  0
  149.2735  139.7407  153.9822 C   0  0  0  0  0  0  0  0  0  0  0  0
  150.4048  139.7222  154.4612 O   0  0  0  0  0  0  0  0  0  0  0  0
  148.7712  138.8445  153.1322 N   0  0  0  0  0  0  0  0  0  0  0  0
  145.1281  135.0335  155.5672 H   0  0  0  0  0  0  0  0  0  0  0  0
  144.9969  136.7581  155.2327 H   0  0  0  0  0  0  0  0  0  0  0  0
  146.5410  136.0680  155.7290 H   0  0  0  0  0  0  0  0  0  0  0  0
  146.6464  134.7410  153.6430 H   0  0  0  0  0  0  0  0  0  0  0  0
  143.9717  134.8898  153.4441 H   0  0  0  0  0  0  0  0  0  0  0  0
  144.3263  136.2665  152.4268 H   0  0  0  0  0  0  0  0  0  0  0  0
  143.0756  134.2358  150.7742 H   0  0  0  0  0  0  0  0  0  0  0  0
  144.4299  132.5452  149.1143 H   0  0  0  0  0  0  0  0  0  0  0  0
  147.0073  132.6061  150.1316 H   0  0  0  0  0  0  0  0  0  0  0  0
  147.5426  136.5796  152.5646 H   0  0  0  0  0  0  0  0  0  0  0  0
  147.3059  139.0672  151.6771 H   0  0  0  0  0  0  0  0  0  0  0  0
  147.2432  141.2452  152.4280 H   0  0  0  0  0  0  0  0  0  0  0  0
  146.1490  140.6850  153.6813 H   0  0  0  0  0  0  0  0  0  0  0  0
  148.6656  141.8176  154.2034 H   0  0  0  0  0  0  0  0  0  0  0  0
  147.8775  140.6770  155.3119 H   0  0  0  0  0  0  0  0  0  0  0  0
  149.2761  138.0356  152.8003 H   0  0  0  0  0  0  0  0  0  0  0  0
  1  2  1  0  0  0  0
  1 18  1  0  0  0  0
  1 19  1  0  0  0  0
  1 20  1  0  0  0  0
  2  3  1  0  0  0  0
  2  9  1  0  0  0  0
  2 21  1  0  0  0  0
  3  4  1  0  0  0  0
  3 22  1  0  0  0  0
  3 23  1  0  0  0  0
  4  8  1  0  0  0  0
  4  5  1  0  0  0  0
  5  6  2  0  0  0  0
  5 24  1  0  0  0  0
  6  7  1  0  0  0  0
  6 25  1  0  0  0  0
  7  8  2  0  0  0  0
  7 26  1  0  0  0  0
  9 10  1  0  0  0  0
  9 27  1  0  0  0  0
 10 11  2  0  0  0  0
 10 12  1  0  0  0  0
 12 17  1  0  0  0  0
 12 13  1  0  0  0  0
 12 28  1  0  0  0  0
 13 14  1  0  0  0  0
 13 29  1  0  0  0  0
 13 30  1  0  0  0  0
 14 15  1  0  0  0  0
 14 31  1  0  0  0  0
 14 32  1  0  0  0  0
 15 16  2  0  0  0  0
 15 17  1  0  0  0  0
 17 33  1  0  0  0  0
M  END
> <s_m_source_file>
AV-unprocessed.smi

> <i_m_source_file_index>
1427

> <i_lp_mmshare_version>
43012

> <i_f3d_flags>
0

> <s_epik_input>
bjFbY0hdW2NIXVtjSF1uMVtDSDJdW0NAQEhdKFtDSDNdKVtOSF1DKD1PKVtDQEBIXTJbQ0gyXVtDSDJdQyg9TylbTkhdMg==

> <s_epik_cmdline>
J2VwaWtfcHl0aG9uJywgJy1waCcsICc3LjAnLCAnLXRuJywgJzgnLCAnLW1hJywgJzIwMCcsICctbWV0YWxfYmluZGluZycsICctaW1hZScsICc8aW5maWxlLm1hZT4nLCAnLW9tYWUnLCAnPG91dGZpbGUubWFlPic=

> <r_lp_tautomer_probability>
1

> <r_epik_Ionization_Penalty>
0.000310707

> <r_epik_Ionization_Penalty_Charging>
0

> <r_epik_Ionization_Penalty_Neutral>
0.000310707

> <r_epik_State_Penalty>
-0

> <r_epik_Charging_Adjusted_Penalty>
0

> <i_epik_Tot_Q>
0

> <i_epik_Tot_abs_Q>
0

> <r_epik_Metal_State_Penalty>
-0

> <b_epik_Metal_Only>
0

> <s_lp_Force_Field>
OPLS_2005

> <r_lp_Energy>
14.0885

> <b_lp_Chiralities_Consistent>
1

> <s_lp_Variant>
AV-unprocessed.smi:1427-4

> <Gold.Version>
5.8.1

> <Gold.Id.Protein>
6NUR|6NUR_protein|mol2

> <Gold.PLP.Fitness>
37.2028

> <Gold.PLP.PLP>
-24.2587

> <Gold.PLP.part.hbond>
-3.8269

> <Gold.PLP.part.metal>
0.0000

> <Gold.PLP.part.buried>
-1.4145

> <Gold.PLP.part.nonpolar>
-19.8124

> <Gold.PLP.part.repulsive>
0.5014

> <Gold.PLP.ligand.clash>
0.0000

> <Gold.PLP.ligand.torsion>
0.7897

> <Gold.PLP.Chemscore.Hbond>
2.8320

> <Gold.PLP.Chemscore.CHOScore>
2.0000

> <Gold.PLP.Chemscore.Metal>
0.0000

> <Gold.Chemscore.Hbonds>
donor molecule, donor type, donor heavy atom, donor atom, acceptor molecule, acceptor atom, score
      L1  H     9    27       P1  7948  1.00
      L1  H    17    33       P1  7948  0.83
      P1  H  7989  7998       L1    16  1.00
      L1  C     5    24       P1 10186  1.00
      L1  C     7    26       P1 10747  0.76

> <Gold.PLP.Chemscore.Internal.Correction>
0.0275

> <Gold.Rescore>
     Score         DG    S(hbond)    S(metal)    S(lipo)     H(rot)  DE(clash)    DE(int)     intcor
     12.63     -16.08       2.84        0.00      50.83       1.88       1.30       2.15       ----

> <Gold.Chemscore.Fitness>
12.6336

> <Gold.Chemscore.DG>
-16.0814

> <Gold.Chemscore.ZeroCoef>
-5.4800

> <Gold.Chemscore.Hbond>
2.8360

> <Gold.Chemscore.Metal>
0.0000

> <Gold.Chemscore.Lipo>
50.8318

> <Gold.Chemscore.Internal_Hbond>
0.0000

> <Gold.Chemscore.DEClash>
1.2961

> <Gold.Chemscore.DEInternal>
2.1517

> <Gold.Chemscore.Rot>
1.8821

> <Gold.Chemscore.Internal.Correction>
   9.000000E+99

> <Gold.Chemscore.Hbonds>
donor molecule, donor type, donor heavy atom, donor atom, acceptor molecule, acceptor atom, score
      L1  H     9    27       P1  7948  0.99
      L1  H    17    33       P1  7948  0.74
      P1  H  7989  7998       L1    16  0.82

> <Gold.Chemscore.Hbond.Weighted>
-9.4722

> <Gold.Chemscore.Metal.Weighted>
-0.0000

> <Gold.Chemscore.Lipo.Weighted>
-5.9473

> <Gold.Chemscore.Internal_Hbond.Weighted>
0.0000

> <Gold.Chemscore.DEClash.Weighted>
1.2961

> <Gold.Chemscore.DEInternal.Weighted>
2.1517

> <Gold.Chemscore.Rot.Weighted>
4.8181

> <Gold.Chemscore.Internal.Correction.Weighted>
   9.000000E+99

> <Gold.Protein.RotatedTorsions>
[ 6907 6896 6895 6894 ] final    1.11 input  -60.11 | X-H torsion
[ 7974 7965 7964 7962 ] final   39.00 input  175.53 | X-H torsion
[ 8008 7997 7996 7995 ] final   88.06 input   59.86 | X-H torsion
[ 10167 10162 10161 10158 ] final  -23.33 input  -65.29 | X-H torsion
[ 10718 10713 10712 10709 ] final   65.82 input   66.30 | X-H torsion
[ 10763 10752 10751 10750 ] final -133.55 input  -60.55 | X-H torsion
[ 11005 11000 10999 10996 ] final -174.91 input  -57.11 | X-H torsion

> <Gold.Protein.ActiveResidues>
 VAL166  LYS551  ARG553  GLY616  TRP617  ASP618  TYR619  PRO620  LYS621  CYS622 
 ASP623  PHE694  ASN695  SER759  ASP760  ASP761  ALA762  ILE779  LEU786  VAL792 
 PHE793  MET794  SER795  GLU796  ALA797  LYS798  CYS799  TRP800  GLU811  SER814 

> <Gold.Protein.RotatedAtoms>
  151.5874  135.1055  160.0030 H   0  0  0  0  0  0  0  0  0  0  0  0  # atno 6907 bound_to 6896
  152.4324  133.7296  159.6590 H   0  0  0  0  0  0  0  0  0  0  0  0  # atno 6908 bound_to 6896
  150.8217  133.8170  159.3159 H   0  0  0  0  0  0  0  0  0  0  0  0  # atno 6909 bound_to 6896
  146.1018  139.5704  142.9409 H   0  0  0  0  0  0  0  0  0  0  0  0  # atno 7974 bound_to 7965
  155.9831  140.3375  155.6681 H   0  0  0  0  0  0  0  0  0  0  0  0  # atno 8008 bound_to 7997
  155.6522  140.0707  157.2601 H   0  0  0  0  0  0  0  0  0  0  0  0  # atno 8009 bound_to 7997
  154.4197  140.1723  156.1674 H   0  0  0  0  0  0  0  0  0  0  0  0  # atno 8010 bound_to 7997
  140.7288  143.4453  151.0597 H   0  0  0  0  0  0  0  0  0  0  0  0  # atno 10167 bound_to 10162
  157.6130  130.9234  150.0027 H   0  0  0  0  0  0  0  0  0  0  0  0  # atno 10718 bound_to 10713
  154.8731  135.3762  154.4591 H   0  0  0  0  0  0  0  0  0  0  0  0  # atno 10763 bound_to 10752
  153.5261  135.7028  153.5712 H   0  0  0  0  0  0  0  0  0  0  0  0  # atno 10764 bound_to 10752
  153.3937  135.3966  155.1906 H   0  0  0  0  0  0  0  0  0  0  0  0  # atno 10765 bound_to 10752
  140.4692  134.6181  157.4875 H   0  0  0  0  0  0  0  0  0  0  0  0  # atno 11005 bound_to 11000
  145.5839  141.0379  143.2107 LP  0  0  0  0  0  0  0  0  0  0  0  0  # atno 17320 bound_to 7965
  144.7439  139.7373  143.7300 LP  0  0  0  0  0  0  0  0  0  0  0  0  # atno 17321 bound_to 7965
  139.8124  143.7933  152.3172 LP  0  0  0  0  0  0  0  0  0  0  0  0  # atno 17342 bound_to 10162
  139.7987  144.7382  150.9855 LP  0  0  0  0  0  0  0  0  0  0  0  0  # atno 17343 bound_to 10162
  156.1240  130.3645  149.9840 LP  0  0  0  0  0  0  0  0  0  0  0  0  # atno 17370 bound_to 10713
  156.7915  130.9257  151.3646 LP  0  0  0  0  0  0  0  0  0  0  0  0  # atno 17371 bound_to 10713
  139.9896  134.7007  155.9713 LP  0  0  0  0  0  0  0  0  0  0  0  0  # atno 17394 bound_to 11000
  141.1585  133.6540  156.4239 LP  0  0  0  0  0  0  0  0  0  0  0  0  # atno 17395 bound_to 11000

$$$$
