AV-unprocessed.smi:3|AV-procd|sdf|27|dock2
  -GOLD-   2262015143D 1   1.00000     0.00000
 Structure written by MMmdl.
 33 35  0  0  0  0  0  0  0  0  1 V2000
  150.7104  141.8162  156.5659 C   0  0  0  0  0  0  0  0  0  0  0  0
  151.6320  140.9497  157.2865 N   0  0  0  0  0  0  0  0  0  0  0  0
  151.8592  141.2275  158.7066 C   0  0  0  0  0  0  0  0  0  0  0  0
  152.5027  142.5947  158.9365 C   0  0  1  0  0  0  0  0  0  0  0  0
  151.7254  143.8804  158.6157 C   0  0  0  0  0  0  0  0  0  0  0  0
  152.3949  144.5438  159.8233 C   0  0  1  0  0  0  0  0  0  0  0  0
  151.6046  145.4131  160.6031 O   0  0  0  0  0  0  0  0  0  0  0  0
  152.6286  143.1311  160.3694 C   0  0  0  0  0  0  0  0  0  0  0  0
  152.0460  139.7233  156.7089 C   0  0  0  0  0  0  0  0  0  0  0  0
  153.1023  139.0854  157.2788 N   0  0  0  0  0  0  0  0  0  0  0  0
  153.5429  137.9255  156.7879 C   0  0  0  0  0  0  0  0  0  0  0  0
  153.0833  137.2361  155.7441 N   0  0  0  0  0  0  0  0  0  0  0  0
  152.0296  137.8704  155.1597 C   0  0  0  0  0  0  0  0  0  0  0  0
  151.3219  137.4387  154.0581 N   0  0  0  0  0  0  0  0  0  0  0  0
  150.3232  138.3408  153.7463 C   0  0  0  0  0  0  0  0  0  0  0  0
  150.3642  139.3775  154.6426 C   0  0  0  0  0  0  0  0  0  0  0  0
  151.4440  139.1082  155.5648 C   0  0  0  0  0  0  0  0  0  0  0  0
  153.4881  142.6494  158.4688 H   0  0  0  0  0  0  0  0  0  0  0  0
  153.3320  145.0330  159.5517 H   0  0  0  0  0  0  0  0  0  0  0  0
  151.4905  136.5911  153.5357 H   0  0  0  0  0  0  0  0  0  0  0  0
  151.1965  142.2450  155.6898 H   0  0  0  0  0  0  0  0  0  0  0  0
  150.3799  142.6438  157.1940 H   0  0  0  0  0  0  0  0  0  0  0  0
  149.8222  141.2657  156.2555 H   0  0  0  0  0  0  0  0  0  0  0  0
  150.9419  141.1264  159.2866 H   0  0  0  0  0  0  0  0  0  0  0  0
  152.5166  140.4485  159.0938 H   0  0  0  0  0  0  0  0  0  0  0  0
  151.9734  144.3260  157.6519 H   0  0  0  0  0  0  0  0  0  0  0  0
  150.6465  143.7720  158.7398 H   0  0  0  0  0  0  0  0  0  0  0  0
  152.1376  146.1677  160.8018 H   0  0  0  0  0  0  0  0  0  0  0  0
  151.8250  142.7899  161.0247 H   0  0  0  0  0  0  0  0  0  0  0  0
  153.6073  142.9749  160.8242 H   0  0  0  0  0  0  0  0  0  0  0  0
  154.3839  137.4880  157.3054 H   0  0  0  0  0  0  0  0  0  0  0  0
  149.6621  138.1721  152.9087 H   0  0  0  0  0  0  0  0  0  0  0  0
  149.7046  140.2311  154.6465 H   0  0  0  0  0  0  0  0  0  0  0  0
  1  2  1  0  0  0  0
  1 21  1  0  0  0  0
  1 22  1  0  0  0  0
  1 23  1  0  0  0  0
  2  3  1  0  0  0  0
  2  9  1  0  0  0  0
  3  4  1  0  0  0  0
  3 24  1  0  0  0  0
  3 25  1  0  0  0  0
  4 18  1  0  0  0  0
  4  8  1  0  0  0  0
  4  5  1  0  0  0  0
  5  6  1  0  0  0  0
  5 26  1  0  0  0  0
  5 27  1  0  0  0  0
  6 19  1  0  0  0  0
  6  7  1  0  0  0  0
  6  8  1  0  0  0  0
  7 28  1  0  0  0  0
  8 29  1  0  0  0  0
  8 30  1  0  0  0  0
  9 17  1  0  0  0  0
  9 10  2  0  0  0  0
 10 11  1  0  0  0  0
 11 12  2  0  0  0  0
 11 31  1  0  0  0  0
 12 13  1  0  0  0  0
 13 17  2  0  0  0  0
 13 14  1  0  0  0  0
 14 20  1  0  0  0  0
 14 15  1  0  0  0  0
 15 16  2  0  0  0  0
 15 32  1  0  0  0  0
 16 17  1  0  0  0  0
 16 33  1  0  0  0  0
M  END
> <s_m_source_file>
AV-unprocessed.smi

> <i_m_source_file_index>
3

> <i_lp_mmshare_version>
43012

> <i_f3d_flags>
0

> <s_epik_input>
W25IXTFbY0hdW2NIXWMoYzEyKWMobltjSF1uMilOKFtDSDNdKVtDSDJdW0NASF0zW0NIMl1bQ0BASF0oW09IXSlbQ0gyXTM=

> <s_epik_cmdline>
J2VwaWtfcHl0aG9uJywgJy1waCcsICc3LjAnLCAnLXRuJywgJzgnLCAnLW1hJywgJzIwMCcsICctbWV0YWxfYmluZGluZycsICctaW1hZScsICc8aW5maWxlLm1hZT4nLCAnLW9tYWUnLCAnPG91dGZpbGUubWFlPic=

> <r_lp_tautomer_probability>
0.999998

> <r_epik_Ionization_Penalty>
0.0134605

> <r_epik_Ionization_Penalty_Charging>
0

> <r_epik_Ionization_Penalty_Neutral>
0.0134605

> <r_epik_State_Penalty>
0.00982199

> <r_epik_Charging_Adjusted_Penalty>
0.00982199

> <i_epik_Tot_Q>
0

> <i_epik_Tot_abs_Q>
0

> <r_epik_Metal_State_Penalty>
0.00963912

> <b_epik_Metal_Only>
0

> <s_lp_Force_Field>
OPLS_2005

> <r_lp_Energy>
10.8509

> <b_lp_Chiralities_Consistent>
1

> <s_lp_Variant>
AV-unprocessed.smi:3-1

> <Gold.Version>
5.8.1

> <Gold.Id.Protein>
6NUR|6NUR_protein|mol2

> <Gold.PLP.Fitness>
47.9104

> <Gold.PLP.PLP>
-36.8799

> <Gold.PLP.part.hbond>
-4.5915

> <Gold.PLP.part.metal>
0.0000

> <Gold.PLP.part.buried>
-0.2138

> <Gold.PLP.part.nonpolar>
-31.8747

> <Gold.PLP.part.repulsive>
0.1360

> <Gold.PLP.ligand.clash>
0.0000

> <Gold.PLP.ligand.torsion>
0.2818

> <Gold.PLP.Chemscore.Hbond>
2.3660

> <Gold.PLP.Chemscore.CHOScore>
1.4302

> <Gold.PLP.Chemscore.Metal>
0.0000

> <Gold.Chemscore.Hbonds>
donor molecule, donor type, donor heavy atom, donor atom, acceptor molecule, acceptor atom, score
      L1  H    14    20       P1  7949  0.49
      P1  H  7997  8008       L1    10  0.85
      P1  H 10752 10763       L1    12  0.22
      L1  C    15    32       P1  7948  1.00
      L1  C    15    32       P1  7957  0.71

> <Gold.PLP.Chemscore.Internal.Correction>
0.2055

> <Gold.Rescore>
     Score         DG    S(hbond)    S(metal)    S(lipo)     H(rot)  DE(clash)    DE(int)     intcor
     12.57     -13.60       1.14        0.00      77.11       1.84       0.04       0.99       ----

> <Gold.Chemscore.Fitness>
12.5676

> <Gold.Chemscore.DG>
-13.5988

> <Gold.Chemscore.ZeroCoef>
-5.4800

> <Gold.Chemscore.Hbond>
1.1395

> <Gold.Chemscore.Metal>
0.0000

> <Gold.Chemscore.Lipo>
77.1141

> <Gold.Chemscore.Internal_Hbond>
0.0000

> <Gold.Chemscore.DEClash>
0.0383

> <Gold.Chemscore.DEInternal>
0.9929

> <Gold.Chemscore.Rot>
1.8396

> <Gold.Chemscore.Internal.Correction>
   9.000000E+99

> <Gold.Chemscore.Hbonds>
donor molecule, donor type, donor heavy atom, donor atom, acceptor molecule, acceptor atom, score
      L1  H    14    20       P1  7949  0.41
      P1  H  7997  8008       L1    10  0.07
      P1  H 10752 10763       L1    12  0.03

> <Gold.Chemscore.Hbond.Weighted>
-3.8059

> <Gold.Chemscore.Metal.Weighted>
-0.0000

> <Gold.Chemscore.Lipo.Weighted>
-9.0223

> <Gold.Chemscore.Internal_Hbond.Weighted>
0.0000

> <Gold.Chemscore.DEClash.Weighted>
0.0383

> <Gold.Chemscore.DEInternal.Weighted>
0.9929

> <Gold.Chemscore.Rot.Weighted>
4.7095

> <Gold.Chemscore.Internal.Correction.Weighted>
   9.000000E+99

> <Gold.Protein.RotatedTorsions>
[ 6907 6896 6895 6894 ] final   11.31 input  -60.11 | X-H torsion
[ 7974 7965 7964 7962 ] final  -37.75 input  175.53 | X-H torsion
[ 8008 7997 7996 7995 ] final  -71.93 input   59.86 | X-H torsion
[ 10167 10162 10161 10158 ] final -109.26 input  -65.29 | X-H torsion
[ 10718 10713 10712 10709 ] final   45.54 input   66.30 | X-H torsion
[ 10763 10752 10751 10750 ] final   59.24 input  -60.55 | X-H torsion
[ 11005 11000 10999 10996 ] final   35.14 input  -57.11 | X-H torsion

> <Gold.Protein.ActiveResidues>
 VAL166  LYS551  ARG553  GLY616  TRP617  ASP618  TYR619  PRO620  LYS621  CYS622 
 ASP623  PHE694  ASN695  SER759  ASP760  ASP761  ALA762  ILE779  LEU786  VAL792 
 PHE793  MET794  SER795  GLU796  ALA797  LYS798  CYS799  TRP800  GLU811  SER814 

> <Gold.Protein.RotatedAtoms>
  151.7523  135.0830  160.0332 H   0  0  0  0  0  0  0  0  0  0  0  0  # atno 6907 bound_to 6896
  152.3409  133.6061  159.5884 H   0  0  0  0  0  0  0  0  0  0  0  0  # atno 6908 bound_to 6896
  150.7478  133.9640  159.3566 H   0  0  0  0  0  0  0  0  0  0  0  0  # atno 6909 bound_to 6896
  146.0547  140.6432  142.9025 H   0  0  0  0  0  0  0  0  0  0  0  0  # atno 7974 bound_to 7965
  154.5126  140.0806  156.8020 H   0  0  0  0  0  0  0  0  0  0  0  0  # atno 8008 bound_to 7997
  155.3750  140.3425  155.4226 H   0  0  0  0  0  0  0  0  0  0  0  0  # atno 8009 bound_to 7997
  156.1591  140.1583  156.8630 H   0  0  0  0  0  0  0  0  0  0  0  0  # atno 8010 bound_to 7997
  140.1572  143.4150  152.1452 H   0  0  0  0  0  0  0  0  0  0  0  0  # atno 10167 bound_to 10162
  157.4386  130.8067  149.7672 H   0  0  0  0  0  0  0  0  0  0  0  0  # atno 10718 bound_to 10713
  152.9890  135.5578  154.5681 H   0  0  0  0  0  0  0  0  0  0  0  0  # atno 10763 bound_to 10752
  154.5087  135.2801  155.1363 H   0  0  0  0  0  0  0  0  0  0  0  0  # atno 10764 bound_to 10752
  154.2763  135.6353  153.5382 H   0  0  0  0  0  0  0  0  0  0  0  0  # atno 10765 bound_to 10752
  140.2456  134.3363  155.7909 H   0  0  0  0  0  0  0  0  0  0  0  0  # atno 11005 bound_to 11000
  144.7141  140.4148  143.7057 LP  0  0  0  0  0  0  0  0  0  0  0  0  # atno 17320 bound_to 7965
  145.6664  139.1591  143.2779 LP  0  0  0  0  0  0  0  0  0  0  0  0  # atno 17321 bound_to 7965
  139.5398  144.7245  151.4772 LP  0  0  0  0  0  0  0  0  0  0  0  0  # atno 17342 bound_to 10162
  140.6666  143.8385  150.6949 LP  0  0  0  0  0  0  0  0  0  0  0  0  # atno 17343 bound_to 10162
  155.9940  130.3921  150.2877 LP  0  0  0  0  0  0  0  0  0  0  0  0  # atno 17370 bound_to 10713
  157.1040  131.0203  151.3074 LP  0  0  0  0  0  0  0  0  0  0  0  0  # atno 17371 bound_to 10713
  141.2206  133.7324  156.8956 LP  0  0  0  0  0  0  0  0  0  0  0  0  # atno 17394 bound_to 11000
  140.1609  134.9166  157.2713 LP  0  0  0  0  0  0  0  0  0  0  0  0  # atno 17395 bound_to 11000

$$$$
