AV-unprocessed.smi:1288|AV-procd|sdf|5383|dock3
  -GOLD-   22720 4533D 1   1.00000     0.00000
 Structure written by MMmdl.
 43 45  0  0  0  0  0  0  0  0  2 V2000
  149.7468  141.4003  155.2000 C   0  0  0  0  0  0  0  0  0  0  0  0
  150.4653  141.8927  156.4114 C   0  0  0  0  0  0  0  0  0  0  0  0
  150.6020  143.1951  156.7888 N   0  3  0  0  0  0  0  0  0  0  0  0
  151.3344  143.2687  157.9745 C   0  0  0  0  0  0  0  0  0  0  0  0
  151.7252  144.3654  158.7368 C   0  0  0  0  0  0  0  0  0  0  0  0
  152.4667  144.0924  159.9049 C   0  0  0  0  0  0  0  0  0  0  0  0
  152.7919  142.7717  160.2759 C   0  0  0  0  0  0  0  0  0  0  0  0
  152.3924  141.6682  159.4937 C   0  0  0  0  0  0  0  0  0  0  0  0
  151.6611  141.9460  158.3385 C   0  0  0  0  0  0  0  0  0  0  0  0
  151.1083  141.1315  157.3422 N   0  0  0  0  0  0  0  0  0  0  0  0
  151.2781  139.6708  157.4138 C   0  0  0  0  0  0  0  0  0  0  0  0
  149.9562  138.9195  157.6686 C   0  0  2  0  0  0  0  0  0  0  0  0
  149.0534  139.7733  158.3431 O   0  0  0  0  0  0  0  0  0  0  0  0
  150.1710  137.6665  158.5316 C   0  0  0  0  0  0  0  0  0  0  0  0
  148.9757  137.3816  159.2388 O   0  0  0  0  0  0  0  0  0  0  0  0
  148.3969  136.1428  158.8641 C   0  0  0  0  0  0  0  0  0  0  0  0
  147.7072  135.4801  160.0400 C   0  0  0  0  0  0  0  0  0  0  0  0
  147.5613  136.1756  161.2590 C   0  0  0  0  0  0  0  0  0  0  0  0
  146.9173  135.5625  162.3516 C   0  0  0  0  0  0  0  0  0  0  0  0
  146.4169  134.2521  162.2294 C   0  0  0  0  0  0  0  0  0  0  0  0
  146.5600  133.5549  161.0142 C   0  0  0  0  0  0  0  0  0  0  0  0
  147.2032  134.1667  159.9202 C   0  0  0  0  0  0  0  0  0  0  0  0
  147.3337  133.4886  158.7545 F   0  0  0  0  0  0  0  0  0  0  0  0
  149.2591  142.2261  154.6812 H   0  0  0  0  0  0  0  0  0  0  0  0
  148.9863  140.6718  155.4819 H   0  0  0  0  0  0  0  0  0  0  0  0
  150.4484  140.9252  154.5141 H   0  0  0  0  0  0  0  0  0  0  0  0
  151.4754  145.3780  158.4558 H   0  0  0  0  0  0  0  0  0  0  0  0
  152.7905  144.9124  160.5296 H   0  0  0  0  0  0  0  0  0  0  0  0
  153.3582  142.6003  161.1801 H   0  0  0  0  0  0  0  0  0  0  0  0
  152.6414  140.6607  159.7918 H   0  0  0  0  0  0  0  0  0  0  0  0
  151.7071  139.3519  156.4632 H   0  0  0  0  0  0  0  0  0  0  0  0
  152.0220  139.4304  158.1735 H   0  0  0  0  0  0  0  0  0  0  0  0
  149.5207  138.6334  156.7105 H   0  0  0  0  0  0  0  0  0  0  0  0
  148.7280  140.4092  157.7237 H   0  0  0  0  0  0  0  0  0  0  0  0
  150.3997  136.8142  157.8898 H   0  0  0  0  0  0  0  0  0  0  0  0
  151.0160  137.7952  159.2106 H   0  0  0  0  0  0  0  0  0  0  0  0
  147.6676  136.2951  158.0667 H   0  0  0  0  0  0  0  0  0  0  0  0
  149.1662  135.4771  158.4689 H   0  0  0  0  0  0  0  0  0  0  0  0
  147.9408  137.1820  161.3600 H   0  0  0  0  0  0  0  0  0  0  0  0
  146.8064  136.0982  163.2829 H   0  0  0  0  0  0  0  0  0  0  0  0
  145.9231  133.7819  163.0670 H   0  0  0  0  0  0  0  0  0  0  0  0
  146.1751  132.5502  160.9207 H   0  0  0  0  0  0  0  0  0  0  0  0
  150.2202  143.9764  156.2713 H   0  0  0  0  0  0  0  0  0  0  0  0
  1  2  1  0  0  0  0
  1 24  1  0  0  0  0
  1 25  1  0  0  0  0
  1 26  1  0  0  0  0
  2 10  1  0  0  0  0
  2  3  2  0  0  0  0
  3  4  1  0  0  0  0
  3 43  1  0  0  0  0
  4  9  2  0  0  0  0
  4  5  1  0  0  0  0
  5  6  2  0  0  0  0
  5 27  1  0  0  0  0
  6  7  1  0  0  0  0
  6 28  1  0  0  0  0
  7  8  2  0  0  0  0
  7 29  1  0  0  0  0
  8  9  1  0  0  0  0
  8 30  1  0  0  0  0
  9 10  1  0  0  0  0
 10 11  1  0  0  0  0
 11 12  1  0  0  0  0
 11 31  1  0  0  0  0
 11 32  1  0  0  0  0
 12 13  1  0  0  0  0
 12 14  1  0  0  0  0
 12 33  1  0  0  0  0
 13 34  1  0  0  0  0
 14 15  1  0  0  0  0
 14 35  1  0  0  0  0
 14 36  1  0  0  0  0
 15 16  1  0  0  0  0
 16 17  1  0  0  0  0
 16 37  1  0  0  0  0
 16 38  1  0  0  0  0
 17 22  1  0  0  0  0
 17 18  2  0  0  0  0
 18 19  1  0  0  0  0
 18 39  1  0  0  0  0
 19 20  2  0  0  0  0
 19 40  1  0  0  0  0
 20 21  1  0  0  0  0
 20 41  1  0  0  0  0
 21 22  2  0  0  0  0
 21 42  1  0  0  0  0
 22 23  1  0  0  0  0
M  CHG  1   3   1
M  END
> <s_m_source_file>
AV-unprocessed.smi

> <i_m_source_file_index>
1288

> <i_lp_mmshare_version>
43012

> <i_f3d_flags>
0

> <s_epik_input>
W2NIXTFbY0hdW2NIXVtjSF1jKGMxMiluKGMobjIpW0NIM10pW0NIMl1bQ0BIXShbT0hdKVtDSDJdT1tDSDJdYzNbY0hdW2NIXVtjSF1bY0hdYzNG

> <s_epik_cmdline>
J2VwaWtfcHl0aG9uJywgJy1waCcsICc3LjAnLCAnLXRuJywgJzgnLCAnLW1hJywgJzIwMCcsICctbWV0YWxfYmluZGluZycsICctaW1hZScsICc8aW5maWxlLm1hZT4nLCAnLW9tYWUnLCAnPG91dGZpbGUubWFlPic=

> <r_epik_Ionization_Penalty>
0.952

> <r_epik_Ionization_Penalty_Charging>
0.951999

> <r_epik_Ionization_Penalty_Neutral>
1.07667e-06

> <r_epik_State_Penalty>
0.996343

> <r_epik_Charging_Adjusted_Penalty>
1.94834

> <i_epik_Tot_Q>
1

> <i_epik_Tot_abs_Q>
1

> <r_epik_Metal_State_Penalty>
4.96724

> <b_epik_Metal_Only>
0

> <s_lp_Force_Field>
OPLS_2005

> <r_lp_Energy>
19.7378

> <b_lp_Chiralities_Consistent>
1

> <s_lp_Variant>
AV-unprocessed.smi:1288-3

> <Gold.Version>
5.8.1

> <Gold.Id.Protein>
6NUR|6NUR_protein|mol2

> <Gold.PLP.Fitness>
57.9724

> <Gold.PLP.PLP>
-54.8427

> <Gold.PLP.part.hbond>
-2.5695

> <Gold.PLP.part.metal>
0.0000

> <Gold.PLP.part.buried>
-5.0759

> <Gold.PLP.part.nonpolar>
-48.4947

> <Gold.PLP.part.repulsive>
0.0719

> <Gold.PLP.ligand.clash>
0.0000

> <Gold.PLP.ligand.torsion>
1.4767

> <Gold.PLP.Chemscore.Hbond>
1.9840

> <Gold.PLP.Chemscore.CHOScore>
0.0000

> <Gold.PLP.Chemscore.Metal>
0.0000

> <Gold.Chemscore.Hbonds>
donor molecule, donor type, donor heavy atom, donor atom, acceptor molecule, acceptor atom, score
      L1  H     3    43       P1  8028  1.95

> <Gold.PLP.Chemscore.Internal.Correction>
0.1312

> <Gold.Rescore>
     Score         DG    S(hbond)    S(metal)    S(lipo)     H(rot)  DE(clash)    DE(int)     intcor
     17.68     -19.05       1.03        0.00     138.59       2.38       0.01       1.36       ----

> <Gold.Chemscore.Fitness>
17.6846

> <Gold.Chemscore.DG>
-19.0471

> <Gold.Chemscore.ZeroCoef>
-5.4800

> <Gold.Chemscore.Hbond>
1.0320

> <Gold.Chemscore.Metal>
0.0000

> <Gold.Chemscore.Lipo>
138.5919

> <Gold.Chemscore.Internal_Hbond>
0.0000

> <Gold.Chemscore.DEClash>
0.0067

> <Gold.Chemscore.DEInternal>
1.3558

> <Gold.Chemscore.Rot>
2.3809

> <Gold.Chemscore.Internal.Correction>
   9.000000E+99

> <Gold.Chemscore.Hbonds>
donor molecule, donor type, donor heavy atom, donor atom, acceptor molecule, acceptor atom, score
      L1  H     3    43       P1  8028  0.93

> <Gold.Chemscore.Hbond.Weighted>
-3.4470

> <Gold.Chemscore.Metal.Weighted>
-0.0000

> <Gold.Chemscore.Lipo.Weighted>
-16.2152

> <Gold.Chemscore.Internal_Hbond.Weighted>
0.0000

> <Gold.Chemscore.DEClash.Weighted>
0.0067

> <Gold.Chemscore.DEInternal.Weighted>
1.3558

> <Gold.Chemscore.Rot.Weighted>
6.0951

> <Gold.Chemscore.Internal.Correction.Weighted>
   9.000000E+99

> <Gold.Protein.RotatedTorsions>
[ 6907 6896 6895 6894 ] final   90.52 input  -60.11 | X-H torsion
[ 7974 7965 7964 7962 ] final   72.10 input  175.53 | X-H torsion
[ 8008 7997 7996 7995 ] final   10.02 input   59.86 | X-H torsion
[ 10167 10162 10161 10158 ] final  100.23 input  -65.29 | X-H torsion
[ 10718 10713 10712 10709 ] final   99.96 input   66.30 | X-H torsion
[ 10763 10752 10751 10750 ] final  125.71 input  -60.55 | X-H torsion
[ 11005 11000 10999 10996 ] final  -31.80 input  -57.11 | X-H torsion

> <Gold.Protein.ActiveResidues>
 VAL166  LYS551  ARG553  GLY616  TRP617  ASP618  TYR619  PRO620  LYS621  CYS622 
 ASP623  PHE694  ASN695  SER759  ASP760  ASP761  ALA762  ILE779  LEU786  VAL792 
 PHE793  MET794  SER795  GLU796  ALA797  LYS798  CYS799  TRP800  GLU811  SER814 

> <Gold.Protein.RotatedAtoms>
  152.5445  134.1798  159.8630 H   0  0  0  0  0  0  0  0  0  0  0  0  # atno 6907 bound_to 6896
  151.1802  133.4723  159.2601 H   0  0  0  0  0  0  0  0  0  0  0  0  # atno 6908 bound_to 6896
  151.1186  135.0078  159.8583 H   0  0  0  0  0  0  0  0  0  0  0  0  # atno 6909 bound_to 6896
  145.7575  139.2786  143.1395 H   0  0  0  0  0  0  0  0  0  0  0  0  # atno 7974 bound_to 7965
  154.7878  140.2830  155.6014 H   0  0  0  0  0  0  0  0  0  0  0  0  # atno 8008 bound_to 7997
  156.2960  140.2610  156.2647 H   0  0  0  0  0  0  0  0  0  0  0  0  # atno 8009 bound_to 7997
  154.9706  140.0376  157.2222 H   0  0  0  0  0  0  0  0  0  0  0  0  # atno 8010 bound_to 7997
  139.7546  144.6973  151.0382 H   0  0  0  0  0  0  0  0  0  0  0  0  # atno 10167 bound_to 10162
  157.6864  131.0685  150.5028 H   0  0  0  0  0  0  0  0  0  0  0  0  # atno 10718 bound_to 10713
  153.6816  135.3313  155.3180 H   0  0  0  0  0  0  0  0  0  0  0  0  # atno 10763 bound_to 10752
  154.8464  135.4410  154.1600 H   0  0  0  0  0  0  0  0  0  0  0  0  # atno 10764 bound_to 10752
  153.2618  135.6992  153.7647 H   0  0  0  0  0  0  0  0  0  0  0  0  # atno 10765 bound_to 10752
  140.9498  133.7228  156.1203 H   0  0  0  0  0  0  0  0  0  0  0  0  # atno 11005 bound_to 11000
  146.0296  140.8270  142.9882 LP  0  0  0  0  0  0  0  0  0  0  0  0  # atno 17320 bound_to 7965
  144.6837  140.2749  143.7300 LP  0  0  0  0  0  0  0  0  0  0  0  0  # atno 17321 bound_to 7965
  140.7801  143.4768  151.0071 LP  0  0  0  0  0  0  0  0  0  0  0  0  # atno 17342 bound_to 10162
  139.8456  143.7506  152.3179 LP  0  0  0  0  0  0  0  0  0  0  0  0  # atno 17343 bound_to 10162
  156.5349  130.4194  149.6183 LP  0  0  0  0  0  0  0  0  0  0  0  0  # atno 17370 bound_to 10713
  156.3036  130.7190  151.2068 LP  0  0  0  0  0  0  0  0  0  0  0  0  # atno 17371 bound_to 10713
  140.7618  134.3930  157.5524 LP  0  0  0  0  0  0  0  0  0  0  0  0  # atno 17394 bound_to 11000
  139.8844  134.8966  156.2705 LP  0  0  0  0  0  0  0  0  0  0  0  0  # atno 17395 bound_to 11000

$$$$
