AV-unprocessed.smi:54|AV-procd|sdf|533|dock4
  -GOLD-   2262016413D 1   1.00000     0.00000
 Structure written by MMmdl.
 44 46  0  0  0  0  0  0  0  0  1 V2000
  147.7058  134.1270  159.7769 C   0  0  0  0  0  0  0  0  0  0  0  0
  147.9264  135.4561  160.5174 C   0  0  0  0  0  0  0  0  0  0  0  0
  146.7636  135.7611  161.4757 C   0  0  0  0  0  0  0  0  0  0  0  0
  148.1189  136.6039  159.5202 C   0  0  0  0  0  0  0  0  0  0  0  0
  147.3580  137.5703  159.4831 O   0  0  0  0  0  0  0  0  0  0  0  0
  149.2640  136.4789  158.6391 N   0  0  0  0  0  0  0  0  0  0  0  0
  149.6515  137.3444  157.6747 C   0  0  0  0  0  0  0  0  0  0  0  0
  148.8251  137.8285  156.7576 N   0  0  0  0  0  0  0  0  0  0  0  0
  149.4101  138.6685  155.8492 C   0  0  0  0  0  0  0  0  0  0  0  0
  150.7393  139.0408  155.8179 C   0  0  0  0  0  0  0  0  0  0  0  0
  150.9726  139.9107  154.7595 N   0  0  0  0  0  0  0  0  0  0  0  0
  149.8077  140.0309  154.1885 C   0  0  0  0  0  0  0  0  0  0  0  0
  148.8046  139.3030  154.7812 N   0  0  0  0  0  0  0  0  0  0  0  0
  147.3739  139.2222  154.3604 C   0  0  2  0  0  0  0  0  0  0  0  0
  147.0157  137.8814  154.2726 O   0  0  0  0  0  0  0  0  0  0  0  0
  146.0025  137.7626  153.2852 C   0  0  2  0  0  0  0  0  0  0  0  0
  145.8026  136.2989  152.8554 C   0  0  0  0  0  0  0  0  0  0  0  0
  146.9311  135.5304  153.2147 O   0  0  0  0  0  0  0  0  0  0  0  0
  146.4801  138.7292  152.1894 C   0  0  2  0  0  0  0  0  0  0  0  0
  147.4060  138.1115  151.3157 O   0  0  0  0  0  0  0  0  0  0  0  0
  147.1530  139.8555  152.9747 C   0  0  1  0  0  0  0  0  0  0  0  0
  146.2704  140.9573  153.0560 O   0  0  0  0  0  0  0  0  0  0  0  0
  151.6446  138.5237  156.8029 C   0  0  0  0  0  0  0  0  0  0  0  0
  152.8474  138.7457  156.9238 O   0  0  0  0  0  0  0  0  0  0  0  0
  151.0082  137.6630  157.7046 N   0  0  0  0  0  0  0  0  0  0  0  0
  146.8129  139.7100  155.1592 H   0  0  0  0  0  0  0  0  0  0  0  0
  145.0720  138.1578  153.6988 H   0  0  0  0  0  0  0  0  0  0  0  0
  145.6447  139.0801  151.5818 H   0  0  0  0  0  0  0  0  0  0  0  0
  148.0951  140.1744  152.5254 H   0  0  0  0  0  0  0  0  0  0  0  0
  148.5260  133.9143  159.0902 H   0  0  0  0  0  0  0  0  0  0  0  0
  146.7811  134.1379  159.1982 H   0  0  0  0  0  0  0  0  0  0  0  0
  147.6448  133.2958  160.4798 H   0  0  0  0  0  0  0  0  0  0  0  0
  148.8375  135.3639  161.1105 H   0  0  0  0  0  0  0  0  0  0  0  0
  146.9183  136.7055  161.9988 H   0  0  0  0  0  0  0  0  0  0  0  0
  146.6679  134.9815  162.2318 H   0  0  0  0  0  0  0  0  0  0  0  0
  145.8118  135.8249  160.9465 H   0  0  0  0  0  0  0  0  0  0  0  0
  149.8574  135.6778  158.7956 H   0  0  0  0  0  0  0  0  0  0  0  0
  149.6509  140.6478  153.3156 H   0  0  0  0  0  0  0  0  0  0  0  0
  144.9403  135.8689  153.3657 H   0  0  0  0  0  0  0  0  0  0  0  0
  145.6238  136.2197  151.7840 H   0  0  0  0  0  0  0  0  0  0  0  0
  147.7050  135.9600  152.8835 H   0  0  0  0  0  0  0  0  0  0  0  0
  147.8396  137.4117  151.7792 H   0  0  0  0  0  0  0  0  0  0  0  0
  145.4193  140.6831  152.7505 H   0  0  0  0  0  0  0  0  0  0  0  0
  151.5869  137.2561  158.4243 H   0  0  0  0  0  0  0  0  0  0  0  0
  1  2  1  0  0  0  0
  1 30  1  0  0  0  0
  1 31  1  0  0  0  0
  1 32  1  0  0  0  0
  2  3  1  0  0  0  0
  2  4  1  0  0  0  0
  2 33  1  0  0  0  0
  3 34  1  0  0  0  0
  3 35  1  0  0  0  0
  3 36  1  0  0  0  0
  4  5  2  0  0  0  0
  4  6  1  0  0  0  0
  6 37  1  0  0  0  0
  6  7  1  0  0  0  0
  7 25  1  0  0  0  0
  7  8  2  0  0  0  0
  8  9  1  0  0  0  0
  9 13  1  0  0  0  0
  9 10  2  0  0  0  0
 10 11  1  0  0  0  0
 10 23  1  0  0  0  0
 11 12  2  0  0  0  0
 12 13  1  0  0  0  0
 12 38  1  0  0  0  0
 13 14  1  0  0  0  0
 14 26  1  0  0  0  0
 14 21  1  0  0  0  0
 14 15  1  0  0  0  0
 15 16  1  0  0  0  0
 16 27  1  0  0  0  0
 16 17  1  0  0  0  0
 16 19  1  0  0  0  0
 17 18  1  0  0  0  0
 17 39  1  0  0  0  0
 17 40  1  0  0  0  0
 18 41  1  0  0  0  0
 19 28  1  0  0  0  0
 19 20  1  0  0  0  0
 19 21  1  0  0  0  0
 20 42  1  0  0  0  0
 21 29  1  0  0  0  0
 21 22  1  0  0  0  0
 22 43  1  0  0  0  0
 23 24  2  0  0  0  0
 23 25  1  0  0  0  0
 25 44  1  0  0  0  0
M  END
> <s_m_source_file>
AV-unprocessed.smi

> <i_m_source_file_index>
54

> <i_lp_mmshare_version>
43012

> <i_f3d_flags>
0

> <s_epik_input>
W0NIM11bQ0hdKFtDSDNdKUMoPU8pW05IXWMobjEpW25IXWMoPU8pYyhjMTIpbltjSF1uMltDQEBIXTNPW0NASF0oW0NIMl1bT0hdKVtDQEBIXShbT0hdKVtDQEhdM1tPSF0=

> <s_epik_cmdline>
J2VwaWtfcHl0aG9uJywgJy1waCcsICc3LjAnLCAnLXRuJywgJzgnLCAnLW1hJywgJzIwMCcsICctbWV0YWxfYmluZGluZycsICctaW1hZScsICc8aW5maWxlLm1hZT4nLCAnLW9tYWUnLCAnPG91dGZpbGUubWFlPic=

> <r_lp_tautomer_probability>
0.85571

> <r_epik_Ionization_Penalty>
0.0316551

> <r_epik_Ionization_Penalty_Charging>
0.0316043

> <r_epik_Ionization_Penalty_Neutral>
5.07097e-05

> <r_epik_State_Penalty>
3.15494e-07

> <r_epik_Charging_Adjusted_Penalty>
0.0316047

> <i_epik_Tot_Q>
0

> <i_epik_Tot_abs_Q>
0

> <r_epik_Metal_State_Penalty>
0.421206

> <b_epik_Metal_Only>
0

> <s_epik_Chemistry_Notes>
This compound contains an acetal/aminal-like group ( X-CH(R)-Y where X, Y are N, S, or O) that may be acid/base labile, releasing an aldehyde.

> <s_lp_Force_Field>
OPLS_2005

> <r_lp_Energy>
38.1022

> <b_lp_Chiralities_Consistent>
1

> <s_lp_Variant>
AV-unprocessed.smi:54-5

> <Gold.Version>
5.8.1

> <Gold.Id.Protein>
6NUR|6NUR_protein|mol2

> <Gold.PLP.Fitness>
47.3134

> <Gold.PLP.PLP>
-28.6926

> <Gold.PLP.part.hbond>
-7.6262

> <Gold.PLP.part.metal>
0.0000

> <Gold.PLP.part.buried>
-1.9280

> <Gold.PLP.part.nonpolar>
-20.4721

> <Gold.PLP.part.repulsive>
0.3746

> <Gold.PLP.ligand.clash>
0.0000

> <Gold.PLP.ligand.torsion>
1.1936

> <Gold.PLP.Chemscore.Hbond>
5.9980

> <Gold.PLP.Chemscore.CHOScore>
0.9924

> <Gold.PLP.Chemscore.Metal>
0.0000

> <Gold.Chemscore.Hbonds>
donor molecule, donor type, donor heavy atom, donor atom, acceptor molecule, acceptor atom, score
      L1  H    18    41       P1  7948  1.00
      L1  H    20    42       P1  7948  0.99
      L1  H    22    43       P1 10175  1.00
      P1  H  6934  6947       L1     5  0.73
      P1  H  7954  7966       L1    20  0.80
      P1  H  7989  7998       L1    11  0.40
      P1  H  7997  8009       L1    24  0.94
      L1  C    12    38       P1  7957  0.98

> <Gold.PLP.Chemscore.Internal.Correction>
0.0368

> <Gold.Rescore>
     Score         DG    S(hbond)    S(metal)    S(lipo)     H(rot)  DE(clash)    DE(int)     intcor
     14.76     -16.52       4.84        0.00      44.72       4.05       0.00       1.76       ----

> <Gold.Chemscore.Fitness>
14.7558

> <Gold.Chemscore.DG>
-16.5174

> <Gold.Chemscore.ZeroCoef>
-5.4800

> <Gold.Chemscore.Hbond>
4.8417

> <Gold.Chemscore.Metal>
0.0000

> <Gold.Chemscore.Lipo>
44.7218

> <Gold.Chemscore.Internal_Hbond>
0.0000

> <Gold.Chemscore.DEClash>
0.0029

> <Gold.Chemscore.DEInternal>
1.7586

> <Gold.Chemscore.Rot>
4.0493

> <Gold.Chemscore.Internal.Correction>
   9.000000E+99

> <Gold.Chemscore.Hbonds>
donor molecule, donor type, donor heavy atom, donor atom, acceptor molecule, acceptor atom, score
      L1  H    18    41       P1  7948  0.98
      L1  H    20    42       P1  7948  0.92
      L1  H    22    43       P1 10175  0.50
      P1  H  6934  6947       L1     5  0.70
      P1  H  7954  7966       L1    20  0.12
      P1  H  7989  7998       L1    11  0.01
      P1  H  7997  8009       L1    24  0.90

> <Gold.Chemscore.Hbond.Weighted>
-16.1711

> <Gold.Chemscore.Metal.Weighted>
-0.0000

> <Gold.Chemscore.Lipo.Weighted>
-5.2325

> <Gold.Chemscore.Internal_Hbond.Weighted>
0.0000

> <Gold.Chemscore.DEClash.Weighted>
0.0029

> <Gold.Chemscore.DEInternal.Weighted>
1.7586

> <Gold.Chemscore.Rot.Weighted>
10.3662

> <Gold.Chemscore.Internal.Correction.Weighted>
   9.000000E+99

> <Gold.Protein.RotatedTorsions>
[ 6907 6896 6895 6894 ] final  -92.50 input  -60.11 | X-H torsion
[ 7974 7965 7964 7962 ] final  129.97 input  175.53 | X-H torsion
[ 8008 7997 7996 7995 ] final  172.81 input   59.86 | X-H torsion
[ 10167 10162 10161 10158 ] final  -84.13 input  -65.29 | X-H torsion
[ 10718 10713 10712 10709 ] final -121.59 input   66.30 | X-H torsion
[ 10763 10752 10751 10750 ] final  -21.92 input  -60.55 | X-H torsion
[ 11005 11000 10999 10996 ] final   88.84 input  -57.11 | X-H torsion

> <Gold.Protein.ActiveResidues>
 VAL166  LYS551  ARG553  GLY616  TRP617  ASP618  TYR619  PRO620  LYS621  CYS622 
 ASP623  PHE694  ASN695  SER759  ASP760  ASP761  ALA762  ILE779  LEU786  VAL792 
 PHE793  MET794  SER795  GLU796  ALA797  LYS798  CYS799  TRP800  GLU811  SER814 

> <Gold.Protein.RotatedAtoms>
  150.6907  134.2113  159.4359 H   0  0  0  0  0  0  0  0  0  0  0  0  # atno 6907 bound_to 6896
  152.0074  134.9893  160.0576 H   0  0  0  0  0  0  0  0  0  0  0  0  # atno 6908 bound_to 6896
  152.1521  133.4493  159.4855 H   0  0  0  0  0  0  0  0  0  0  0  0  # atno 6909 bound_to 6896
  145.0229  139.4115  143.5188 H   0  0  0  0  0  0  0  0  0  0  0  0  # atno 7974 bound_to 7965
  156.1137  140.1476  156.9302 H   0  0  0  0  0  0  0  0  0  0  0  0  # atno 8008 bound_to 7997
  154.4785  140.0887  156.7364 H   0  0  0  0  0  0  0  0  0  0  0  0  # atno 8009 bound_to 7997
  155.4551  140.3436  155.4308 H   0  0  0  0  0  0  0  0  0  0  0  0  # atno 8010 bound_to 7997
  140.4162  143.2603  151.8952 H   0  0  0  0  0  0  0  0  0  0  0  0  # atno 10167 bound_to 10162
  156.1350  130.6423  150.9681 H   0  0  0  0  0  0  0  0  0  0  0  0  # atno 10718 bound_to 10713
  153.6437  135.6984  153.5233 H   0  0  0  0  0  0  0  0  0  0  0  0  # atno 10763 bound_to 10752
  153.2762  135.4199  155.1034 H   0  0  0  0  0  0  0  0  0  0  0  0  # atno 10764 bound_to 10752
  154.8493  135.3590  154.5981 H   0  0  0  0  0  0  0  0  0  0  0  0  # atno 10765 bound_to 10752
  139.8888  134.8513  156.3057 H   0  0  0  0  0  0  0  0  0  0  0  0  # atno 11005 bound_to 11000
  146.3488  139.9737  142.8703 LP  0  0  0  0  0  0  0  0  0  0  0  0  # atno 17320 bound_to 7965
  145.1872  140.9795  143.4232 LP  0  0  0  0  0  0  0  0  0  0  0  0  # atno 17321 bound_to 7965
  139.4782  144.5486  151.8421 LP  0  0  0  0  0  0  0  0  0  0  0  0  # atno 17342 bound_to 10162
  140.4584  144.1756  150.5904 LP  0  0  0  0  0  0  0  0  0  0  0  0  # atno 17343 bound_to 10162
  157.6523  131.0895  150.8023 LP  0  0  0  0  0  0  0  0  0  0  0  0  # atno 17370 bound_to 10713
  156.8104  130.4950  149.5356 LP  0  0  0  0  0  0  0  0  0  0  0  0  # atno 17371 bound_to 10713
  140.9884  133.7224  156.0776 LP  0  0  0  0  0  0  0  0  0  0  0  0  # atno 17394 bound_to 11000
  140.7658  134.3888  157.5517 LP  0  0  0  0  0  0  0  0  0  0  0  0  # atno 17395 bound_to 11000

$$$$
