AV-unprocessed.smi:2458|AV-procd|sdf|9708|dock1
  -GOLD-   2272013343D 1   1.00000     0.00000
 Structure written by MMmdl.
 47 48  0  0  0  0  0  0  0  0  1 V2000
  150.3893  143.6120  158.2485 C   0  0  0  0  0  0  0  0  0  0  0  0
  151.5202  144.0046  159.2192 C   0  0  0  0  0  0  0  0  0  0  0  0
  152.5698  144.8279  158.4476 C   0  0  0  0  0  0  0  0  0  0  0  0
  152.1378  142.7766  159.9517 C   0  0  1  0  0  0  0  0  0  0  0  0
  152.9521  141.8684  158.9970 C   0  0  0  0  0  0  0  0  0  0  0  0
  153.5772  140.6636  159.7189 C   0  0  0  0  0  0  0  0  0  0  0  0
  154.4771  141.1116  160.8846 C   0  0  2  0  0  0  0  0  0  0  0  0
  155.0914  139.9025  161.6035 C   0  0  0  0  0  0  0  0  0  0  0  0
  154.8218  138.7577  161.2385 O   0  0  0  0  0  0  0  0  0  0  0  0
  155.9159  140.1696  162.6262 N   0  0  0  0  0  0  0  0  0  0  0  0
  156.5941  139.1570  163.4250 C   0  0  0  0  0  0  0  0  0  0  0  0
  155.6453  138.5597  164.4795 C   0  0  2  0  0  0  0  0  0  0  0  0
  156.0843  138.9625  165.7620 O   0  0  0  0  0  0  0  0  0  0  0  0
  155.5779  137.0449  164.3677 C   0  0  0  0  0  0  0  0  0  0  0  0
  154.3743  136.3872  164.0325 C   0  0  0  0  0  0  0  0  0  0  0  0
  154.3659  134.9815  163.9515 C   0  0  0  0  0  0  0  0  0  0  0  0
  155.5646  134.2880  164.2111 C   0  0  0  0  0  0  0  0  0  0  0  0
  156.7218  134.9038  164.5346 N   0  0  0  0  0  0  0  0  0  0  0  0
  156.7212  136.2523  164.6099 C   0  0  0  0  0  0  0  0  0  0  0  0
  153.6629  141.9829  161.8583 C   0  0  0  0  0  0  0  0  0  0  0  0
  153.0356  143.1910  161.1440 C   0  0  0  0  0  0  0  0  0  0  0  0
  151.3154  142.1807  160.3506 H   0  0  0  0  0  0  0  0  0  0  0  0
  155.2875  141.7193  160.4777 H   0  0  0  0  0  0  0  0  0  0  0  0
  150.7274  142.8696  157.5249 H   0  0  0  0  0  0  0  0  0  0  0  0
  150.0319  144.4774  157.6896 H   0  0  0  0  0  0  0  0  0  0  0  0
  149.5237  143.2064  158.7708 H   0  0  0  0  0  0  0  0  0  0  0  0
  151.0841  144.6634  159.9715 H   0  0  0  0  0  0  0  0  0  0  0  0
  153.1198  144.2062  157.7403 H   0  0  0  0  0  0  0  0  0  0  0  0
  153.2898  145.3013  159.1138 H   0  0  0  0  0  0  0  0  0  0  0  0
  152.1001  145.6332  157.8821 H   0  0  0  0  0  0  0  0  0  0  0  0
  152.3202  141.4829  158.1979 H   0  0  0  0  0  0  0  0  0  0  0  0
  153.7388  142.4514  158.5160 H   0  0  0  0  0  0  0  0  0  0  0  0
  152.7816  140.0120  160.0839 H   0  0  0  0  0  0  0  0  0  0  0  0
  154.1548  140.0739  159.0057 H   0  0  0  0  0  0  0  0  0  0  0  0
  156.0925  141.1355  162.8618 H   0  0  0  0  0  0  0  0  0  0  0  0
  156.9201  138.3707  162.7420 H   0  0  0  0  0  0  0  0  0  0  0  0
  157.4927  139.5645  163.8917 H   0  0  0  0  0  0  0  0  0  0  0  0
  154.6396  138.9576  164.3341 H   0  0  0  0  0  0  0  0  0  0  0  0
  156.2167  138.1905  166.2907 H   0  0  0  0  0  0  0  0  0  0  0  0
  153.4713  136.9487  163.8429 H   0  0  0  0  0  0  0  0  0  0  0  0
  153.4621  134.4474  163.6983 H   0  0  0  0  0  0  0  0  0  0  0  0
  155.5937  133.2097  164.1589 H   0  0  0  0  0  0  0  0  0  0  0  0
  157.6632  136.7101  164.8735 H   0  0  0  0  0  0  0  0  0  0  0  0
  152.8712  141.3929  162.3230 H   0  0  0  0  0  0  0  0  0  0  0  0
  154.3017  142.3337  162.6702 H   0  0  0  0  0  0  0  0  0  0  0  0
  153.8254  143.8583  160.7964 H   0  0  0  0  0  0  0  0  0  0  0  0
  152.4619  143.7494  161.8825 H   0  0  0  0  0  0  0  0  0  0  0  0
  1  2  1  0  0  0  0
  1 24  1  0  0  0  0
  1 25  1  0  0  0  0
  1 26  1  0  0  0  0
  2  3  1  0  0  0  0
  2  4  1  0  0  0  0
  2 27  1  0  0  0  0
  3 28  1  0  0  0  0
  3 29  1  0  0  0  0
  3 30  1  0  0  0  0
  4 22  1  0  0  0  0
  4 21  1  0  0  0  0
  4  5  1  0  0  0  0
  5  6  1  0  0  0  0
  5 31  1  0  0  0  0
  5 32  1  0  0  0  0
  6  7  1  0  0  0  0
  6 33  1  0  0  0  0
  6 34  1  0  0  0  0
  7 23  1  0  0  0  0
  7  8  1  0  0  0  0
  7 20  1  0  0  0  0
  8  9  2  0  0  0  0
  8 10  1  0  0  0  0
 10 11  1  0  0  0  0
 10 35  1  0  0  0  0
 11 12  1  0  0  0  0
 11 36  1  0  0  0  0
 11 37  1  0  0  0  0
 12 13  1  0  0  0  0
 12 14  1  0  0  0  0
 12 38  1  0  0  0  0
 13 39  1  0  0  0  0
 14 19  1  0  0  0  0
 14 15  2  0  0  0  0
 15 16  1  0  0  0  0
 15 40  1  0  0  0  0
 16 17  2  0  0  0  0
 16 41  1  0  0  0  0
 17 18  1  0  0  0  0
 17 42  1  0  0  0  0
 18 19  2  0  0  0  0
 19 43  1  0  0  0  0
 20 21  1  0  0  0  0
 20 44  1  0  0  0  0
 20 45  1  0  0  0  0
 21 46  1  0  0  0  0
 21 47  1  0  0  0  0
M  END
> <s_m_source_file>
AV-unprocessed.smi

> <i_m_source_file_index>
2458

> <i_lp_mmshare_version>
43012

> <i_f3d_flags>
0

> <s_epik_input>
W0NIM11bQ0hdKFtDSDNdKVtDQEhdMVtDSDJdW0NIMl1bQ0BASF0oW0NIMl1bQ0gyXTEpQyg9TylbTkhdW0NIMl1bQ0BIXShbT0hdKWMyW2NIXVtjSF1bY0hdbltjSF0y

> <s_epik_cmdline>
J2VwaWtfcHl0aG9uJywgJy1waCcsICc3LjAnLCAnLXRuJywgJzgnLCAnLW1hJywgJzIwMCcsICctbWV0YWxfYmluZGluZycsICctaW1hZScsICc8aW5maWxlLm1hZT4nLCAnLW9tYWUnLCAnPG91dGZpbGUubWFlPic=

> <r_epik_Ionization_Penalty>
0.00169206

> <r_epik_Ionization_Penalty_Charging>
0

> <r_epik_Ionization_Penalty_Neutral>
0.00169206

> <r_epik_State_Penalty>
0.0011427

> <r_epik_Charging_Adjusted_Penalty>
0.0011427

> <i_epik_Tot_Q>
0

> <i_epik_Tot_abs_Q>
0

> <r_epik_Metal_State_Penalty>
-0

> <b_epik_Metal_Only>
0

> <s_lp_Force_Field>
OPLS_2005

> <r_lp_Energy>
18.0059

> <b_lp_Chiralities_Consistent>
1

> <s_lp_Variant>
AV-unprocessed.smi:2458-1

> <Gold.Version>
5.8.1

> <Gold.Id.Protein>
6NUR|6NUR_protein|mol2

> <Gold.PLP.Fitness>
43.4427

> <Gold.PLP.PLP>
-45.3682

> <Gold.PLP.part.hbond>
-0.5956

> <Gold.PLP.part.metal>
0.0000

> <Gold.PLP.part.buried>
-4.8440

> <Gold.PLP.part.nonpolar>
-39.7420

> <Gold.PLP.part.repulsive>
0.0764

> <Gold.PLP.ligand.clash>
0.0000

> <Gold.PLP.ligand.torsion>
0.9863

> <Gold.PLP.Chemscore.Hbond>
0.0000

> <Gold.PLP.Chemscore.CHOScore>
0.0000

> <Gold.PLP.Chemscore.Metal>
0.0000

> <Gold.PLP.Chemscore.Internal.Correction>
0.0471

> <Gold.Rescore>
     Score         DG    S(hbond)    S(metal)    S(lipo)     H(rot)  DE(clash)    DE(int)     intcor
     16.22     -17.29       0.00        0.00     145.98       2.06       0.14       0.93       ----

> <Gold.Chemscore.Fitness>
16.2224

> <Gold.Chemscore.DG>
-17.2894

> <Gold.Chemscore.ZeroCoef>
-5.4800

> <Gold.Chemscore.Hbond>
0.0000

> <Gold.Chemscore.Metal>
0.0000

> <Gold.Chemscore.Lipo>
145.9822

> <Gold.Chemscore.Internal_Hbond>
0.0000

> <Gold.Chemscore.DEClash>
0.1388

> <Gold.Chemscore.DEInternal>
0.9282

> <Gold.Chemscore.Rot>
2.0588

> <Gold.Chemscore.Internal.Correction>
   9.000000E+99

> <Gold.Chemscore.Hbond.Weighted>
-0.0000

> <Gold.Chemscore.Metal.Weighted>
-0.0000

> <Gold.Chemscore.Lipo.Weighted>
-17.0799

> <Gold.Chemscore.Internal_Hbond.Weighted>
0.0000

> <Gold.Chemscore.DEClash.Weighted>
0.1388

> <Gold.Chemscore.DEInternal.Weighted>
0.9282

> <Gold.Chemscore.Rot.Weighted>
5.2705

> <Gold.Chemscore.Internal.Correction.Weighted>
   9.000000E+99

> <Gold.Protein.RotatedTorsions>
[ 6907 6896 6895 6894 ] final  -51.72 input  -60.11 | X-H torsion
[ 7974 7965 7964 7962 ] final  150.87 input  175.53 | X-H torsion
[ 8008 7997 7996 7995 ] final -111.75 input   59.86 | X-H torsion
[ 10167 10162 10161 10158 ] final   18.13 input  -65.29 | X-H torsion
[ 10718 10713 10712 10709 ] final  -62.02 input   66.30 | X-H torsion
[ 10763 10752 10751 10750 ] final   86.16 input  -60.55 | X-H torsion
[ 11005 11000 10999 10996 ] final   25.29 input  -57.11 | X-H torsion

> <Gold.Protein.ActiveResidues>
 VAL166  LYS551  ARG553  GLY616  TRP617  ASP618  TYR619  PRO620  LYS621  CYS622 
 ASP623  PHE694  ASN695  SER759  ASP760  ASP761  ALA762  ILE779  LEU786  VAL792 
 PHE793  MET794  SER795  GLU796  ALA797  LYS798  CYS799  TRP800  GLU811  SER814 

> <Gold.Protein.RotatedAtoms>
  150.8585  134.7930  159.7064 H   0  0  0  0  0  0  0  0  0  0  0  0  # atno 6907 bound_to 6896
  152.4629  134.5139  159.9772 H   0  0  0  0  0  0  0  0  0  0  0  0  # atno 6908 bound_to 6896
  151.5247  133.3422  159.2943 H   0  0  0  0  0  0  0  0  0  0  0  0  # atno 6909 bound_to 6896
  144.8333  139.6465  143.6049 H   0  0  0  0  0  0  0  0  0  0  0  0  # atno 7974 bound_to 7965
  154.9946  140.0395  157.2334 H   0  0  0  0  0  0  0  0  0  0  0  0  # atno 8008 bound_to 7997
  154.7597  140.2782  155.6201 H   0  0  0  0  0  0  0  0  0  0  0  0  # atno 8009 bound_to 7997
  156.2901  140.2631  156.2373 H   0  0  0  0  0  0  0  0  0  0  0  0  # atno 8010 bound_to 7997
  140.5675  143.9223  150.6688 H   0  0  0  0  0  0  0  0  0  0  0  0  # atno 10167 bound_to 10162
  156.0883  130.4204  150.1076 H   0  0  0  0  0  0  0  0  0  0  0  0  # atno 10718 bound_to 10713
  153.1544  135.4590  154.9683 H   0  0  0  0  0  0  0  0  0  0  0  0  # atno 10763 bound_to 10752
  154.7850  135.3201  154.7909 H   0  0  0  0  0  0  0  0  0  0  0  0  # atno 10764 bound_to 10752
  153.8409  135.6930  153.4857 H   0  0  0  0  0  0  0  0  0  0  0  0  # atno 10765 bound_to 10752
  140.3495  134.2245  155.7681 H   0  0  0  0  0  0  0  0  0  0  0  0  # atno 11005 bound_to 11000
  146.2634  139.6462  142.9346 LP  0  0  0  0  0  0  0  0  0  0  0  0  # atno 17320 bound_to 7965
  145.4849  141.0438  143.2625 LP  0  0  0  0  0  0  0  0  0  0  0  0  # atno 17321 bound_to 7965
  140.2689  143.3470  152.1255 LP  0  0  0  0  0  0  0  0  0  0  0  0  # atno 17342 bound_to 10162
  139.5100  144.6877  151.5842 LP  0  0  0  0  0  0  0  0  0  0  0  0  # atno 17343 bound_to 10162
  156.9092  130.9646  151.3565 LP  0  0  0  0  0  0  0  0  0  0  0  0  # atno 17370 bound_to 10713
  157.6024  130.8522  149.8823 LP  0  0  0  0  0  0  0  0  0  0  0  0  # atno 17371 bound_to 10713
  141.2016  133.7958  157.0432 LP  0  0  0  0  0  0  0  0  0  0  0  0  # atno 17394 bound_to 11000
  140.0715  134.9699  157.1475 LP  0  0  0  0  0  0  0  0  0  0  0  0  # atno 17395 bound_to 11000

$$$$
