AV-unprocessed.smi:980|AV-procd|sdf|4311|dock8
  -GOLD-   22720 2213D 1   1.00000     0.00000
 Structure written by MMmdl.
 44 45  0  0  0  0  0  0  0  0  1 V2000
  143.8821  143.6454  157.9043 C   0  0  0  0  0  0  0  0  0  0  0  0
  145.1966  142.8453  157.7815 C   0  0  0  0  0  0  0  0  0  0  0  0
  146.2460  143.5120  158.6928 C   0  0  0  0  0  0  0  0  0  0  0  0
  144.9239  141.4064  158.2622 C   0  0  0  0  0  0  0  0  0  0  0  0
  145.6932  142.8251  156.3494 C   0  0  0  0  0  0  0  0  0  0  0  0
  145.1050  143.3853  155.2379 C   0  0  0  0  0  0  0  0  0  0  0  0
  146.0358  143.1186  153.7896 S   0  0  0  0  0  0  0  0  0  0  0  0
  147.2073  142.2254  154.7466 C   0  0  0  0  0  0  0  0  0  0  0  0
  148.4555  141.6392  154.1779 C   0  0  0  0  0  0  0  0  0  0  0  0
  149.3559  141.0256  155.2573 C   0  0  0  0  0  0  0  0  0  0  0  0
  149.9272  142.0644  156.1027 N   0  0  0  0  0  0  0  0  0  0  0  0
  150.7869  141.8352  157.1057 C   0  0  0  0  0  0  0  0  0  0  0  0
  151.1599  140.7065  157.4269 O   0  0  0  0  0  0  0  0  0  0  0  0
  151.3079  143.0668  157.8584 C   0  0  2  0  0  0  0  0  0  0  0  0
  152.4354  142.6795  158.8426 C   0  0  0  0  0  0  0  0  0  0  0  0
  152.7953  143.8192  159.7792 C   0  0  0  0  0  0  0  0  0  0  0  0
  152.0140  144.8967  159.9664 C   0  0  0  0  0  0  0  0  0  0  0  0
  150.6810  145.0946  159.2665 C   0  0  0  0  0  0  0  0  0  0  0  0
  150.1734  143.8010  158.6012 C   0  0  0  0  0  0  0  0  0  0  0  0
  146.8954  142.1733  156.0432 N   0  0  0  0  0  0  0  0  0  0  0  0
  143.5203  143.6588  158.9330 H   0  0  0  0  0  0  0  0  0  0  0  0
  143.0912  143.2135  157.2898 H   0  0  0  0  0  0  0  0  0  0  0  0
  144.0144  144.6830  157.5953 H   0  0  0  0  0  0  0  0  0  0  0  0
  146.4578  144.5324  158.3717 H   0  0  0  0  0  0  0  0  0  0  0  0
  147.1891  142.9645  158.6889 H   0  0  0  0  0  0  0  0  0  0  0  0
  145.9029  143.5570  159.7269 H   0  0  0  0  0  0  0  0  0  0  0  0
  144.5457  141.3939  159.2848 H   0  0  0  0  0  0  0  0  0  0  0  0
  145.8289  140.7982  158.2444 H   0  0  0  0  0  0  0  0  0  0  0  0
  144.1837  140.9122  157.6317 H   0  0  0  0  0  0  0  0  0  0  0  0
  144.1823  143.9431  155.1783 H   0  0  0  0  0  0  0  0  0  0  0  0
  148.1814  140.8829  153.4410 H   0  0  0  0  0  0  0  0  0  0  0  0
  148.9924  142.4213  153.6398 H   0  0  0  0  0  0  0  0  0  0  0  0
  148.7839  140.3297  155.8734 H   0  0  0  0  0  0  0  0  0  0  0  0
  150.1618  140.4571  154.7901 H   0  0  0  0  0  0  0  0  0  0  0  0
  149.6664  143.0191  155.9030 H   0  0  0  0  0  0  0  0  0  0  0  0
  151.7236  143.7616  157.1260 H   0  0  0  0  0  0  0  0  0  0  0  0
  152.1527  141.8206  159.4531 H   0  0  0  0  0  0  0  0  0  0  0  0
  153.3279  142.3923  158.2852 H   0  0  0  0  0  0  0  0  0  0  0  0
  153.7256  143.7294  160.3209 H   0  0  0  0  0  0  0  0  0  0  0  0
  152.3331  145.6806  160.6376 H   0  0  0  0  0  0  0  0  0  0  0  0
  149.9462  145.4548  159.9867 H   0  0  0  0  0  0  0  0  0  0  0  0
  150.8053  145.8790  158.5196 H   0  0  0  0  0  0  0  0  0  0  0  0
  149.3534  144.0362  157.9215 H   0  0  0  0  0  0  0  0  0  0  0  0
  149.7575  143.1464  159.3691 H   0  0  0  0  0  0  0  0  0  0  0  0
  1  2  1  0  0  0  0
  1 21  1  0  0  0  0
  1 22  1  0  0  0  0
  1 23  1  0  0  0  0
  2  3  1  0  0  0  0
  2  4  1  0  0  0  0
  2  5  1  0  0  0  0
  3 24  1  0  0  0  0
  3 25  1  0  0  0  0
  3 26  1  0  0  0  0
  4 27  1  0  0  0  0
  4 28  1  0  0  0  0
  4 29  1  0  0  0  0
  5 20  1  0  0  0  0
  5  6  2  0  0  0  0
  6  7  1  0  0  0  0
  6 30  1  0  0  0  0
  7  8  1  0  0  0  0
  8  9  1  0  0  0  0
  8 20  2  0  0  0  0
  9 10  1  0  0  0  0
  9 31  1  0  0  0  0
  9 32  1  0  0  0  0
 10 11  1  0  0  0  0
 10 33  1  0  0  0  0
 10 34  1  0  0  0  0
 11 12  1  0  0  0  0
 11 35  1  0  0  0  0
 12 13  2  0  0  0  0
 12 14  1  0  0  0  0
 14 19  1  0  0  0  0
 14 15  1  0  0  0  0
 14 36  1  0  0  0  0
 15 16  1  0  0  0  0
 15 37  1  0  0  0  0
 15 38  1  0  0  0  0
 16 17  2  0  0  0  0
 16 39  1  0  0  0  0
 17 18  1  0  0  0  0
 17 40  1  0  0  0  0
 18 19  1  0  0  0  0
 18 41  1  0  0  0  0
 18 42  1  0  0  0  0
 19 43  1  0  0  0  0
 19 44  1  0  0  0  0
M  END
> <s_m_source_file>
AV-unprocessed.smi

> <i_m_source_file_index>
980

> <i_lp_mmshare_version>
43012

> <i_f3d_flags>
0

> <s_epik_input>
W0NIM11DKFtDSDNdKShbQ0gzXSljMVtjSF1zYyhuMSlbQ0gyXVtDSDJdW05IXUMoPU8pW0NAQEhdMltDSDJdW0NIXT1bQ0hdW0NIMl1bQ0gyXTI=

> <s_epik_cmdline>
J2VwaWtfcHl0aG9uJywgJy1waCcsICc3LjAnLCAnLXRuJywgJzgnLCAnLW1hJywgJzIwMCcsICctbWV0YWxfYmluZGluZycsICctaW1hZScsICc8aW5maWxlLm1hZT4nLCAnLW9tYWUnLCAnPG91dGZpbGUubWFlPic=

> <r_epik_Ionization_Penalty>
0.000809238

> <r_epik_Ionization_Penalty_Charging>
0

> <r_epik_Ionization_Penalty_Neutral>
0.000809238

> <r_epik_State_Penalty>
0.000520038

> <r_epik_Charging_Adjusted_Penalty>
0.000520038

> <i_epik_Tot_Q>
0

> <i_epik_Tot_abs_Q>
0

> <r_epik_Metal_State_Penalty>
-0

> <b_epik_Metal_Only>
0

> <s_lp_Force_Field>
OPLS_2005

> <r_lp_Energy>
0.0985756

> <b_lp_Chiralities_Consistent>
1

> <s_lp_Variant>
AV-unprocessed.smi:980-1

> <Gold.Version>
5.8.1

> <Gold.Id.Protein>
6NUR|6NUR_protein|mol2

> <Gold.PLP.Fitness>
42.4652

> <Gold.PLP.PLP>
-39.6783

> <Gold.PLP.part.hbond>
-1.0000

> <Gold.PLP.part.metal>
0.0000

> <Gold.PLP.part.buried>
-4.4802

> <Gold.PLP.part.nonpolar>
-34.8945

> <Gold.PLP.part.repulsive>
0.2436

> <Gold.PLP.ligand.clash>
0.0000

> <Gold.PLP.ligand.torsion>
0.1293

> <Gold.PLP.Chemscore.Hbond>
1.0000

> <Gold.PLP.Chemscore.CHOScore>
0.0000

> <Gold.PLP.Chemscore.Metal>
0.0000

> <Gold.Chemscore.Hbonds>
donor molecule, donor type, donor heavy atom, donor atom, acceptor molecule, acceptor atom, score
      L1  H    11    35       P1  8028  1.00

> <Gold.PLP.Chemscore.Internal.Correction>
0.0455

> <Gold.Rescore>
     Score         DG    S(hbond)    S(metal)    S(lipo)     H(rot)  DE(clash)    DE(int)     intcor
     17.19     -17.34       1.00        0.00     103.72       1.41       0.02       0.14       ----

> <Gold.Chemscore.Fitness>
17.1853

> <Gold.Chemscore.DG>
-17.3423

> <Gold.Chemscore.ZeroCoef>
-5.4800

> <Gold.Chemscore.Hbond>
0.9988

> <Gold.Chemscore.Metal>
0.0000

> <Gold.Chemscore.Lipo>
103.7174

> <Gold.Chemscore.Internal_Hbond>
0.0000

> <Gold.Chemscore.DEClash>
0.0195

> <Gold.Chemscore.DEInternal>
0.1375

> <Gold.Chemscore.Rot>
1.4097

> <Gold.Chemscore.Internal.Correction>
   9.000000E+99

> <Gold.Chemscore.Hbonds>
donor molecule, donor type, donor heavy atom, donor atom, acceptor molecule, acceptor atom, score
      L1  H    11    35       P1  8028  1.00

> <Gold.Chemscore.Hbond.Weighted>
-3.3361

> <Gold.Chemscore.Metal.Weighted>
-0.0000

> <Gold.Chemscore.Lipo.Weighted>
-12.1349

> <Gold.Chemscore.Internal_Hbond.Weighted>
0.0000

> <Gold.Chemscore.DEClash.Weighted>
0.0195

> <Gold.Chemscore.DEInternal.Weighted>
0.1375

> <Gold.Chemscore.Rot.Weighted>
3.6087

> <Gold.Chemscore.Internal.Correction.Weighted>
   9.000000E+99

> <Gold.Protein.RotatedTorsions>
[ 6907 6896 6895 6894 ] final  102.79 input  -60.11 | X-H torsion
[ 7974 7965 7964 7962 ] final   34.05 input  175.53 | X-H torsion
[ 8008 7997 7996 7995 ] final  -16.10 input   59.86 | X-H torsion
[ 10167 10162 10161 10158 ] final -145.50 input  -65.29 | X-H torsion
[ 10718 10713 10712 10709 ] final   71.28 input   66.30 | X-H torsion
[ 10763 10752 10751 10750 ] final   22.12 input  -60.55 | X-H torsion
[ 11005 11000 10999 10996 ] final  103.04 input  -57.11 | X-H torsion

> <Gold.Protein.ActiveResidues>
 VAL166  LYS551  ARG553  GLY616  TRP617  ASP618  TYR619  PRO620  LYS621  CYS622 
 ASP623  PHE694  ASN695  SER759  ASP760  ASP761  ALA762  ILE779  LEU786  VAL792 
 PHE793  MET794  SER795  GLU796  ALA797  LYS798  CYS799  TRP800  GLU811  SER814 

> <Gold.Protein.RotatedAtoms>
  152.5314  133.9922  159.7855 H   0  0  0  0  0  0  0  0  0  0  0  0  # atno 6907 bound_to 6896
  151.0156  133.5916  159.2684 H   0  0  0  0  0  0  0  0  0  0  0  0  # atno 6908 bound_to 6896
  151.2974  135.0766  159.9280 H   0  0  0  0  0  0  0  0  0  0  0  0  # atno 6909 bound_to 6896
  146.1379  139.6318  142.9183 H   0  0  0  0  0  0  0  0  0  0  0  0  # atno 7974 bound_to 7965
  154.5079  140.2178  155.9214 H   0  0  0  0  0  0  0  0  0  0  0  0  # atno 8008 bound_to 7997
  156.1516  140.3160  155.8624 H   0  0  0  0  0  0  0  0  0  0  0  0  # atno 8009 bound_to 7997
  155.3927  140.0479  157.3031 H   0  0  0  0  0  0  0  0  0  0  0  0  # atno 8010 bound_to 7997
  139.7800  143.8114  152.2637 H   0  0  0  0  0  0  0  0  0  0  0  0  # atno 10167 bound_to 10162
  157.6444  130.9520  150.0768 H   0  0  0  0  0  0  0  0  0  0  0  0  # atno 10718 bound_to 10713
  153.0940  135.6654  153.9798 H   0  0  0  0  0  0  0  0  0  0  0  0  # atno 10763 bound_to 10752
  153.9387  135.2996  155.3445 H   0  0  0  0  0  0  0  0  0  0  0  0  # atno 10764 bound_to 10752
  154.7357  135.5102  153.9112 H   0  0  0  0  0  0  0  0  0  0  0  0  # atno 10765 bound_to 10752
  139.8781  134.9248  156.5149 H   0  0  0  0  0  0  0  0  0  0  0  0  # atno 11005 bound_to 11000
  145.5114  141.0435  143.2486 LP  0  0  0  0  0  0  0  0  0  0  0  0  # atno 17320 bound_to 7965
  144.7760  139.6629  143.7175 LP  0  0  0  0  0  0  0  0  0  0  0  0  # atno 17321 bound_to 7965
  139.8174  144.7310  150.9617 LP  0  0  0  0  0  0  0  0  0  0  0  0  # atno 17342 bound_to 10162
  140.7818  143.4191  151.0869 LP  0  0  0  0  0  0  0  0  0  0  0  0  # atno 17343 bound_to 10162
  156.1756  130.3648  149.9105 LP  0  0  0  0  0  0  0  0  0  0  0  0  # atno 17370 bound_to 10713
  156.7070  130.8955  151.3605 LP  0  0  0  0  0  0  0  0  0  0  0  0  # atno 17371 bound_to 10713
  140.8493  133.8144  155.9152 LP  0  0  0  0  0  0  0  0  0  0  0  0  # atno 17394 bound_to 11000
  140.9160  134.2201  157.4956 LP  0  0  0  0  0  0  0  0  0  0  0  0  # atno 17395 bound_to 11000

$$$$
