AV-unprocessed.smi:203|AV-procd|sdf|1586|dock1
  -GOLD-   2262019483D 1   1.00000     0.00000
 Structure written by MMmdl.
 57 61  0  0  0  0  0  0  0  0  1 V2000
  150.0377  136.8508  159.8013 O   0  0  0  0  0  0  0  0  0  0  0  0
  150.3566  137.4758  158.7925 C   0  0  0  0  0  0  0  0  0  0  0  0
  149.5299  138.6098  158.2118 C   0  0  0  0  0  0  0  0  0  0  0  0
  150.4485  139.2120  157.1285 C   0  0  1  0  0  0  0  0  0  0  0  0
  150.9933  140.6376  157.4608 C   0  0  2  0  0  0  0  0  0  0  0  0
  151.8794  140.6605  158.7350 C   0  0  0  0  0  0  0  0  0  0  0  0
  152.4033  142.0700  159.0392 C   0  0  0  0  0  0  0  0  0  0  0  0
  151.2302  143.0492  159.1522 C   0  0  0  0  0  0  0  0  0  0  0  0
  150.3779  143.0093  157.8769 C   0  0  0  0  0  0  0  0  0  0  0  0
  149.9281  141.6498  157.5783 N   0  0  0  0  0  0  0  0  0  0  0  0
  149.0067  141.6651  156.5892 C   0  0  0  0  0  0  0  0  0  0  0  0
  149.3462  141.0721  155.4187 N   0  0  0  0  0  0  0  0  0  0  0  0
  148.4816  141.0650  154.3996 C   0  0  0  0  0  0  0  0  0  0  0  0
  147.2500  141.5779  154.3448 N   0  0  0  0  0  0  0  0  0  0  0  0
  146.9054  142.1686  155.5250 C   0  0  0  0  0  0  0  0  0  0  0  0
  147.7164  142.2582  156.6905 C   0  0  0  0  0  0  0  0  0  0  0  0
  147.0319  142.9320  157.6952 N   0  0  0  0  0  0  0  0  0  0  0  0
  145.8804  143.2235  157.1538 C   0  0  0  0  0  0  0  0  0  0  0  0
  145.7201  142.8019  155.8537 N   0  0  0  0  0  0  0  0  0  0  0  0
  144.5465  142.9900  155.0197 C   0  0  0  0  0  0  0  0  0  0  0  0
  144.4341  144.4324  154.4817 C   0  0  1  0  0  0  0  0  0  0  0  0
  144.7518  144.4760  153.1050 O   0  0  0  0  0  0  0  0  0  0  0  0
  143.0507  145.0824  154.6902 C   0  0  2  0  0  0  0  0  0  0  0  0
  142.9742  146.5562  154.2718 C   0  0  0  0  0  0  0  0  0  0  0  0
  141.9936  147.1798  155.2565 C   0  0  0  0  0  0  0  0  0  0  0  0
  141.6054  146.0269  156.1802 C   0  0  0  0  0  0  0  0  0  0  0  0
  142.6865  145.1173  156.0629 O   0  0  0  0  0  0  0  0  0  0  0  0
  151.5629  138.1628  156.9261 C   0  0  0  0  0  0  0  0  0  0  0  0
  151.4492  137.2672  158.0608 N   0  0  0  0  0  0  0  0  0  0  0  0
  148.6203  138.2010  157.7705 H   0  0  0  0  0  0  0  0  0  0  0  0
  149.2392  139.3261  158.9805 H   0  0  0  0  0  0  0  0  0  0  0  0
  149.8945  139.2553  156.1902 H   0  0  0  0  0  0  0  0  0  0  0  0
  151.6281  140.9432  156.6281 H   0  0  0  0  0  0  0  0  0  0  0  0
  151.3129  140.3065  159.5965 H   0  0  0  0  0  0  0  0  0  0  0  0
  152.7278  139.9853  158.6311 H   0  0  0  0  0  0  0  0  0  0  0  0
  152.9806  142.0659  159.9642 H   0  0  0  0  0  0  0  0  0  0  0  0
  153.0802  142.3918  158.2470 H   0  0  0  0  0  0  0  0  0  0  0  0
  150.6145  142.7905  160.0148 H   0  0  0  0  0  0  0  0  0  0  0  0
  151.5998  144.0604  159.3237 H   0  0  0  0  0  0  0  0  0  0  0  0
  149.5167  143.6691  157.9955 H   0  0  0  0  0  0  0  0  0  0  0  0
  150.9584  143.3925  157.0365 H   0  0  0  0  0  0  0  0  0  0  0  0
  148.8263  140.5801  153.4982 H   0  0  0  0  0  0  0  0  0  0  0  0
  145.1107  143.7591  157.6904 H   0  0  0  0  0  0  0  0  0  0  0  0
  144.5874  142.2744  154.1976 H   0  0  0  0  0  0  0  0  0  0  0  0
  143.6684  142.7307  155.6109 H   0  0  0  0  0  0  0  0  0  0  0  0
  145.1790  145.0544  154.9799 H   0  0  0  0  0  0  0  0  0  0  0  0
  144.1819  143.8750  152.6493 H   0  0  0  0  0  0  0  0  0  0  0  0
  142.2865  144.5296  154.1394 H   0  0  0  0  0  0  0  0  0  0  0  0
  143.9428  147.0484  154.3608 H   0  0  0  0  0  0  0  0  0  0  0  0
  142.6470  146.6620  153.2370 H   0  0  0  0  0  0  0  0  0  0  0  0
  142.4873  147.9711  155.8218 H   0  0  0  0  0  0  0  0  0  0  0  0
  141.1227  147.6131  154.7637 H   0  0  0  0  0  0  0  0  0  0  0  0
  141.4578  146.3452  157.2124 H   0  0  0  0  0  0  0  0  0  0  0  0
  140.6889  145.5456  155.8352 H   0  0  0  0  0  0  0  0  0  0  0  0
  151.3947  137.5907  156.0126 H   0  0  0  0  0  0  0  0  0  0  0  0
  152.5602  138.5981  156.8607 H   0  0  0  0  0  0  0  0  0  0  0  0
  152.1397  136.5596  158.2659 H   0  0  0  0  0  0  0  0  0  0  0  0
  1  2  2  0  0  0  0
  2 29  1  0  0  0  0
  2  3  1  0  0  0  0
  3  4  1  0  0  0  0
  3 30  1  0  0  0  0
  3 31  1  0  0  0  0
  4  5  1  0  0  0  0
  4 28  1  0  0  0  0
  4 32  1  0  0  0  0
  5 10  1  0  0  0  0
  5  6  1  0  0  0  0
  5 33  1  0  0  0  0
  6  7  1  0  0  0  0
  6 34  1  0  0  0  0
  6 35  1  0  0  0  0
  7  8  1  0  0  0  0
  7 36  1  0  0  0  0
  7 37  1  0  0  0  0
  8  9  1  0  0  0  0
  8 38  1  0  0  0  0
  8 39  1  0  0  0  0
  9 10  1  0  0  0  0
  9 40  1  0  0  0  0
  9 41  1  0  0  0  0
 10 11  1  0  0  0  0
 11 16  1  0  0  0  0
 11 12  2  0  0  0  0
 12 13  1  0  0  0  0
 13 14  2  0  0  0  0
 13 42  1  0  0  0  0
 14 15  1  0  0  0  0
 15 19  1  0  0  0  0
 15 16  2  0  0  0  0
 16 17  1  0  0  0  0
 17 18  2  0  0  0  0
 18 19  1  0  0  0  0
 18 43  1  0  0  0  0
 19 20  1  0  0  0  0
 20 21  1  0  0  0  0
 20 44  1  0  0  0  0
 20 45  1  0  0  0  0
 21 22  1  0  0  0  0
 21 23  1  0  0  0  0
 21 46  1  0  0  0  0
 22 47  1  0  0  0  0
 23 27  1  0  0  0  0
 23 24  1  0  0  0  0
 23 48  1  0  0  0  0
 24 25  1  0  0  0  0
 24 49  1  0  0  0  0
 24 50  1  0  0  0  0
 25 26  1  0  0  0  0
 25 51  1  0  0  0  0
 25 52  1  0  0  0  0
 26 27  1  0  0  0  0
 26 53  1  0  0  0  0
 26 54  1  0  0  0  0
 28 29  1  0  0  0  0
 28 55  1  0  0  0  0
 28 56  1  0  0  0  0
 29 57  1  0  0  0  0
M  END
> <s_m_source_file>
AV-unprocessed.smi

> <i_m_source_file_index>
203

> <i_lp_mmshare_version>
43012

> <i_f3d_flags>
0

> <s_epik_input>
Tz1DMVtDSDJdW0NASF0oW0NIMl1bTkhdMSlbQ0BASF0yW0NIMl1bQ0gyXVtDSDJdW0NIMl1OMmMobltjSF1uMyljKGMzNCluW2NIXW40W0NIMl1bQ0BIXShbT0hdKVtDQEBIXTVbQ0gyXVtDSDJdW0NIMl1PNQ==

> <s_epik_cmdline>
J2VwaWtfcHl0aG9uJywgJy1waCcsICc3LjAnLCAnLXRuJywgJzgnLCAnLW1hJywgJzIwMCcsICctbWV0YWxfYmluZGluZycsICctaW1hZScsICc8aW5maWxlLm1hZT4nLCAnLW9tYWUnLCAnPG91dGZpbGUubWFlPic=

> <r_lp_tautomer_probability>
1

> <r_epik_Ionization_Penalty>
0.00175146

> <r_epik_Ionization_Penalty_Charging>
0

> <r_epik_Ionization_Penalty_Neutral>
0.00175146

> <r_epik_State_Penalty>
0.00109045

> <r_epik_Charging_Adjusted_Penalty>
0.00109045

> <i_epik_Tot_Q>
0

> <i_epik_Tot_abs_Q>
0

> <r_epik_Metal_State_Penalty>
-0

> <b_epik_Metal_Only>
0

> <s_lp_Force_Field>
OPLS_2005

> <r_lp_Energy>
58.3664

> <b_lp_Chiralities_Consistent>
1

> <s_lp_Variant>
AV-unprocessed.smi:203-5

> <Gold.Version>
5.8.1

> <Gold.Id.Protein>
6NUR|6NUR_protein|mol2

> <Gold.PLP.Fitness>
43.2251

> <Gold.PLP.PLP>
-36.2070

> <Gold.PLP.part.hbond>
-2.2743

> <Gold.PLP.part.metal>
0.0000

> <Gold.PLP.part.buried>
-5.1319

> <Gold.PLP.part.nonpolar>
-29.1015

> <Gold.PLP.part.repulsive>
0.6037

> <Gold.PLP.ligand.clash>
0.0000

> <Gold.PLP.ligand.torsion>
1.2073

> <Gold.PLP.Chemscore.Hbond>
2.0000

> <Gold.PLP.Chemscore.CHOScore>
0.9996

> <Gold.PLP.Chemscore.Metal>
0.0000

> <Gold.Chemscore.Hbonds>
donor molecule, donor type, donor heavy atom, donor atom, acceptor molecule, acceptor atom, score
      L1  H    22    47       P1 10174  0.84
      P1  H  6896  6909       L1     1  0.91
      L1  C    13    42       P1  7957  1.00

> <Gold.PLP.Chemscore.Internal.Correction>
0.4339

> <Gold.Rescore>
     Score         DG    S(hbond)    S(metal)    S(lipo)     H(rot)  DE(clash)    DE(int)     intcor
     11.65     -14.45       1.90        0.00      81.75       2.72       0.13       2.66       ----

> <Gold.Chemscore.Fitness>
11.6521

> <Gold.Chemscore.DG>
-14.4484

> <Gold.Chemscore.ZeroCoef>
-5.4800

> <Gold.Chemscore.Hbond>
1.9041

> <Gold.Chemscore.Metal>
0.0000

> <Gold.Chemscore.Lipo>
81.7477

> <Gold.Chemscore.Internal_Hbond>
0.0000

> <Gold.Chemscore.DEClash>
0.1348

> <Gold.Chemscore.DEInternal>
2.6616

> <Gold.Chemscore.Rot>
2.7171

> <Gold.Chemscore.Internal.Correction>
   9.000000E+99

> <Gold.Chemscore.Hbonds>
donor molecule, donor type, donor heavy atom, donor atom, acceptor molecule, acceptor atom, score
      L1  H    22    47       P1 10174  0.29
      P1  H  6896  6909       L1     1  0.65

> <Gold.Chemscore.Hbond.Weighted>
-6.3596

> <Gold.Chemscore.Metal.Weighted>
-0.0000

> <Gold.Chemscore.Lipo.Weighted>
-9.5645

> <Gold.Chemscore.Internal_Hbond.Weighted>
0.0000

> <Gold.Chemscore.DEClash.Weighted>
0.1348

> <Gold.Chemscore.DEInternal.Weighted>
2.6616

> <Gold.Chemscore.Rot.Weighted>
6.9557

> <Gold.Chemscore.Internal.Correction.Weighted>
   9.000000E+99

> <Gold.Protein.RotatedTorsions>
[ 6907 6896 6895 6894 ] final   86.10 input  -60.11 | X-H torsion
[ 7974 7965 7964 7962 ] final -101.72 input  175.53 | X-H torsion
[ 8008 7997 7996 7995 ] final  141.09 input   59.86 | X-H torsion
[ 10167 10162 10161 10158 ] final  -30.92 input  -65.29 | X-H torsion
[ 10718 10713 10712 10709 ] final  -83.00 input   66.30 | X-H torsion
[ 10763 10752 10751 10750 ] final  102.87 input  -60.55 | X-H torsion
[ 11005 11000 10999 10996 ] final   -1.87 input  -57.11 | X-H torsion

> <Gold.Protein.ActiveResidues>
 VAL166  LYS551  ARG553  GLY616  TRP617  ASP618  TYR619  PRO620  LYS621  CYS622 
 ASP623  PHE694  ASN695  SER759  ASP760  ASP761  ALA762  ILE779  LEU786  VAL792 
 PHE793  MET794  SER795  GLU796  ALA797  LYS798  CYS799  TRP800  GLU811  SER814 

> <Gold.Protein.RotatedAtoms>
  152.5388  134.2484  159.8888 H   0  0  0  0  0  0  0  0  0  0  0  0  # atno 6907 bound_to 6896
  151.2449  133.4374  159.2616 H   0  0  0  0  0  0  0  0  0  0  0  0  # atno 6908 bound_to 6896
  151.0593  134.9740  159.8308 H   0  0  0  0  0  0  0  0  0  0  0  0  # atno 6909 bound_to 6896
  145.2779  140.9318  143.2948 H   0  0  0  0  0  0  0  0  0  0  0  0  # atno 7974 bound_to 7965
  156.2970  140.2324  156.4508 H   0  0  0  0  0  0  0  0  0  0  0  0  # atno 8008 bound_to 7997
  154.8103  140.0443  157.1359 H   0  0  0  0  0  0  0  0  0  0  0  0  # atno 8009 bound_to 7997
  154.9430  140.3032  155.5115 H   0  0  0  0  0  0  0  0  0  0  0  0  # atno 8010 bound_to 7997
  140.7243  143.3811  151.1600 H   0  0  0  0  0  0  0  0  0  0  0  0  # atno 10167 bound_to 10162
  156.0024  130.4652  150.4191 H   0  0  0  0  0  0  0  0  0  0  0  0  # atno 10718 bound_to 10713
  153.3453  135.3996  155.1604 H   0  0  0  0  0  0  0  0  0  0  0  0  # atno 10763 bound_to 10752
  154.8652  135.3643  154.5293 H   0  0  0  0  0  0  0  0  0  0  0  0  # atno 10764 bound_to 10752
  153.5740  135.7078  153.5552 H   0  0  0  0  0  0  0  0  0  0  0  0  # atno 10765 bound_to 10752
  140.6521  133.9395  155.8386 H   0  0  0  0  0  0  0  0  0  0  0  0  # atno 11005 bound_to 11000
  144.9278  139.4334  143.6510 LP  0  0  0  0  0  0  0  0  0  0  0  0  # atno 17320 bound_to 7965
  146.3225  139.8173  142.8934 LP  0  0  0  0  0  0  0  0  0  0  0  0  # atno 17321 bound_to 7965
  139.7400  143.8940  152.3047 LP  0  0  0  0  0  0  0  0  0  0  0  0  # atno 17342 bound_to 10162
  139.8758  144.7044  150.8935 LP  0  0  0  0  0  0  0  0  0  0  0  0  # atno 17343 bound_to 10162
  157.2248  131.0491  151.2526 LP  0  0  0  0  0  0  0  0  0  0  0  0  # atno 17370 bound_to 10713
  157.3766  130.7209  149.6601 LP  0  0  0  0  0  0  0  0  0  0  0  0  # atno 17371 bound_to 10713
  141.0528  134.0459  157.3761 LP  0  0  0  0  0  0  0  0  0  0  0  0  # atno 17394 bound_to 11000
  139.9042  135.0174  156.7409 LP  0  0  0  0  0  0  0  0  0  0  0  0  # atno 17395 bound_to 11000

$$$$
