AV-unprocessed.smi:59|AV-procd|sdf|592|dock2
  -GOLD-   2262016483D 1   1.00000     0.00000
 Structure written by MMmdl.
 29 30  0  0  0  0  0  0  0  0  2 V2000
  148.8174  142.2957  154.9877 C   0  0  0  0  0  0  0  0  0  0  0  0
  149.3449  140.9348  154.9840 N   0  0  0  0  0  0  0  0  0  0  0  0
  148.6790  139.8583  154.5486 C   0  0  0  0  0  0  0  0  0  0  0  0
  147.5100  139.8378  154.1632 O   0  0  0  0  0  0  0  0  0  0  0  0
  149.5736  138.6292  154.5347 C   0  0  1  0  0  0  0  0  0  0  0  0
  149.8760  138.2950  153.1908 O   0  0  0  0  0  0  0  0  0  0  0  0
  150.7797  139.0905  155.3875 C   0  0  1  0  0  0  0  0  0  0  0  0
  152.1390  138.4802  154.9849 C   0  0  0  0  0  0  0  0  0  0  0  0
  152.1995  137.2504  154.7618 O   0  0  0  0  0  0  0  0  0  0  0  0
  153.0987  139.2742  154.8686 O   0  5  0  0  0  0  0  0  0  0  0  0
  150.7188  140.6396  155.3826 C   0  0  2  0  0  0  0  0  0  0  0  0
  151.1226  141.2195  156.7208 C   0  0  0  0  0  0  0  0  0  0  0  0
  151.6222  140.5444  157.8729 C   0  0  0  0  0  0  0  0  0  0  0  0
  151.8900  141.3627  158.8772 N   0  0  0  0  0  0  0  0  0  0  0  0
  151.5801  142.5861  158.4020 N   0  0  0  0  0  0  0  0  0  0  0  0
  151.7606  143.7474  159.2461 C   0  0  0  0  0  0  0  0  0  0  0  0
  151.1194  142.5309  157.1048 C   0  0  0  0  0  0  0  0  0  0  0  0
  149.0630  137.7890  155.0065 H   0  0  0  0  0  0  0  0  0  0  0  0
  150.5814  138.7473  156.4048 H   0  0  0  0  0  0  0  0  0  0  0  0
  151.3466  141.0463  154.5878 H   0  0  0  0  0  0  0  0  0  0  0  0
  148.3593  142.5361  154.0276 H   0  0  0  0  0  0  0  0  0  0  0  0
  149.6064  143.0260  155.1705 H   0  0  0  0  0  0  0  0  0  0  0  0
  148.0623  142.4080  155.7662 H   0  0  0  0  0  0  0  0  0  0  0  0
  149.5893  139.0041  152.6362 H   0  0  0  0  0  0  0  0  0  0  0  0
  151.7973  139.4872  158.0065 H   0  0  0  0  0  0  0  0  0  0  0  0
  151.2440  144.6051  158.8141 H   0  0  0  0  0  0  0  0  0  0  0  0
  152.8229  143.9774  159.3304 H   0  0  0  0  0  0  0  0  0  0  0  0
  151.3546  143.5536  160.2394 H   0  0  0  0  0  0  0  0  0  0  0  0
  150.8312  143.4199  156.5632 H   0  0  0  0  0  0  0  0  0  0  0  0
  1  2  1  0  0  0  0
  1 21  1  0  0  0  0
  1 22  1  0  0  0  0
  1 23  1  0  0  0  0
  2 11  1  0  0  0  0
  2  3  1  0  0  0  0
  3  4  2  0  0  0  0
  3  5  1  0  0  0  0
  5 18  1  0  0  0  0
  5  6  1  0  0  0  0
  5  7  1  0  0  0  0
  6 24  1  0  0  0  0
  7 19  1  0  0  0  0
  7  8  1  0  0  0  0
  7 11  1  0  0  0  0
  8  9  2  0  0  0  0
  8 10  1  0  0  0  0
 11 20  1  0  0  0  0
 11 12  1  0  0  0  0
 12 17  2  0  0  0  0
 12 13  1  0  0  0  0
 13 14  2  0  0  0  0
 13 25  1  0  0  0  0
 14 15  1  0  0  0  0
 15 16  1  0  0  0  0
 15 17  1  0  0  0  0
 16 26  1  0  0  0  0
 16 27  1  0  0  0  0
 16 28  1  0  0  0  0
 17 29  1  0  0  0  0
M  CHG  1  10  -1
M  END
> <s_m_source_file>
AV-unprocessed.smi

> <i_m_source_file_index>
59

> <i_lp_mmshare_version>
43012

> <i_f3d_flags>
0

> <s_epik_input>
W0NIM11OMUMoPU8pW0NASF0oW09IXSlbQ0BIXShDKD1PKVtPSF0pW0NASF0xYzJbY0hdbm4oW0NIM10pW2NIXTI=

> <s_epik_cmdline>
J2VwaWtfcHl0aG9uJywgJy1waCcsICc3LjAnLCAnLXRuJywgJzgnLCAnLW1hJywgJzIwMCcsICctbWV0YWxfYmluZGluZycsICctaW1hZScsICc8aW5maWxlLm1hZT4nLCAnLW9tYWUnLCAnPG91dGZpbGUubWFlPic=

> <r_lp_tautomer_probability>
1

> <r_epik_Ionization_Penalty>
0.00173515

> <r_epik_Ionization_Penalty_Charging>
0.00120567

> <r_epik_Ionization_Penalty_Neutral>
0.000529476

> <r_epik_State_Penalty>
-0

> <r_epik_Charging_Adjusted_Penalty>
0.00120567

> <i_epik_Tot_Q>
-1

> <i_epik_Tot_abs_Q>
1

> <r_epik_Metal_State_Penalty>
-0

> <b_epik_Metal_Only>
0

> <s_lp_Force_Field>
OPLS_2005

> <r_lp_Energy>
6.90576

> <b_lp_Chiralities_Consistent>
1

> <s_lp_Variant>
AV-unprocessed.smi:59-8

> <Gold.Version>
5.8.1

> <Gold.Id.Protein>
6NUR|6NUR_protein|mol2

> <Gold.PLP.Fitness>
46.3531

> <Gold.PLP.PLP>
-30.2748

> <Gold.PLP.part.hbond>
-5.3927

> <Gold.PLP.part.metal>
0.0000

> <Gold.PLP.part.buried>
0.8830

> <Gold.PLP.part.nonpolar>
-27.4458

> <Gold.PLP.part.repulsive>
0.2438

> <Gold.PLP.ligand.clash>
0.0000

> <Gold.PLP.ligand.torsion>
0.2760

> <Gold.PLP.Chemscore.Hbond>
4.5360

> <Gold.PLP.Chemscore.CHOScore>
1.0000

> <Gold.PLP.Chemscore.Metal>
0.0000

> <Gold.Chemscore.Hbonds>
donor molecule, donor type, donor heavy atom, donor atom, acceptor molecule, acceptor atom, score
      L1  H     6    24       P1  7957  1.00
      P1  H  7997  8008       L1    10  2.00
      P1  H 10752 10763       L1     9  1.57
      L1  C    17    29       P1  8028  1.00

> <Gold.PLP.Chemscore.Internal.Correction>
0.0225

> <Gold.Rescore>
     Score         DG    S(hbond)    S(metal)    S(lipo)     H(rot)  DE(clash)    DE(int)     intcor
     12.82     -15.98       2.69        0.00      57.95       2.06       1.63       1.53       ----

> <Gold.Chemscore.Fitness>
12.8219

> <Gold.Chemscore.DG>
-15.9752

> <Gold.Chemscore.ZeroCoef>
-5.4800

> <Gold.Chemscore.Hbond>
2.6943

> <Gold.Chemscore.Metal>
0.0000

> <Gold.Chemscore.Lipo>
57.9479

> <Gold.Chemscore.Internal_Hbond>
0.0000

> <Gold.Chemscore.DEClash>
1.6282

> <Gold.Chemscore.DEInternal>
1.5251

> <Gold.Chemscore.Rot>
2.0639

> <Gold.Chemscore.Internal.Correction>
   9.000000E+99

> <Gold.Chemscore.Hbonds>
donor molecule, donor type, donor heavy atom, donor atom, acceptor molecule, acceptor atom, score
      L1  H     6    24       P1  7957  0.90
      P1  H  7997  8008       L1    10  1.00
      P1  H 10752 10763       L1     9  0.78

> <Gold.Chemscore.Hbond.Weighted>
-8.9989

> <Gold.Chemscore.Metal.Weighted>
-0.0000

> <Gold.Chemscore.Lipo.Weighted>
-6.7799

> <Gold.Chemscore.Internal_Hbond.Weighted>
0.0000

> <Gold.Chemscore.DEClash.Weighted>
1.6282

> <Gold.Chemscore.DEInternal.Weighted>
1.5251

> <Gold.Chemscore.Rot.Weighted>
5.2837

> <Gold.Chemscore.Internal.Correction.Weighted>
   9.000000E+99

> <Gold.Protein.RotatedTorsions>
[ 6907 6896 6895 6894 ] final  173.01 input  -60.11 | X-H torsion
[ 7974 7965 7964 7962 ] final  118.02 input  175.53 | X-H torsion
[ 8008 7997 7996 7995 ] final  -12.69 input   59.86 | X-H torsion
[ 10167 10162 10161 10158 ] final  -34.51 input  -65.29 | X-H torsion
[ 10718 10713 10712 10709 ] final -128.43 input   66.30 | X-H torsion
[ 10763 10752 10751 10750 ] final   42.73 input  -60.55 | X-H torsion
[ 11005 11000 10999 10996 ] final  -93.88 input  -57.11 | X-H torsion

> <Gold.Protein.ActiveResidues>
 VAL166  LYS551  ARG553  GLY616  TRP617  ASP618  TYR619  PRO620  LYS621  CYS622 
 ASP623  PHE694  ASN695  SER759  ASP760  ASP761  ALA762  ILE779  LEU786  VAL792 
 PHE793  MET794  SER795  GLU796  ALA797  LYS798  CYS799  TRP800  GLU811  SER814 

> <Gold.Protein.RotatedAtoms>
  151.7752  133.3344  159.3455 H   0  0  0  0  0  0  0  0  0  0  0  0  # atno 6907 bound_to 6896
  150.7447  134.5982  159.6032 H   0  0  0  0  0  0  0  0  0  0  0  0  # atno 6908 bound_to 6896
  152.3314  134.7256  160.0340 H   0  0  0  0  0  0  0  0  0  0  0  0  # atno 6909 bound_to 6896
  145.1602  139.3159  143.4521 H   0  0  0  0  0  0  0  0  0  0  0  0  # atno 7974 bound_to 7965
  154.5356  140.2269  155.8729 H   0  0  0  0  0  0  0  0  0  0  0  0  # atno 8008 bound_to 7997
  156.1808  140.3100  155.9107 H   0  0  0  0  0  0  0  0  0  0  0  0  # atno 8009 bound_to 7997
  155.3362  140.0448  157.3034 H   0  0  0  0  0  0  0  0  0  0  0  0  # atno 8010 bound_to 7997
  140.7184  143.3543  151.2092 H   0  0  0  0  0  0  0  0  0  0  0  0  # atno 10167 bound_to 10162
  156.1950  130.6820  151.0470 H   0  0  0  0  0  0  0  0  0  0  0  0  # atno 10718 bound_to 10713
  152.9876  135.6123  154.2997 H   0  0  0  0  0  0  0  0  0  0  0  0  # atno 10763 bound_to 10752
  154.2718  135.2779  155.2737 H   0  0  0  0  0  0  0  0  0  0  0  0  # atno 10764 bound_to 10752
  154.5116  135.5839  153.6666 H   0  0  0  0  0  0  0  0  0  0  0  0  # atno 10765 bound_to 10752
  141.1485  133.7917  157.0220 H   0  0  0  0  0  0  0  0  0  0  0  0  # atno 11005 bound_to 11000
  146.3483  140.1710  142.8589 LP  0  0  0  0  0  0  0  0  0  0  0  0  # atno 17320 bound_to 7965
  145.0338  140.8892  143.5093 LP  0  0  0  0  0  0  0  0  0  0  0  0  # atno 17321 bound_to 7965
  139.7081  143.9422  152.2935 LP  0  0  0  0  0  0  0  0  0  0  0  0  # atno 17342 bound_to 10162
  139.9138  144.6841  150.8534 LP  0  0  0  0  0  0  0  0  0  0  0  0  # atno 17343 bound_to 10162
  157.6952  131.0796  150.6990 LP  0  0  0  0  0  0  0  0  0  0  0  0  # atno 17370 bound_to 10713
  156.7047  130.4634  149.5563 LP  0  0  0  0  0  0  0  0  0  0  0  0  # atno 17371 bound_to 10713
  140.0809  134.9648  157.1623 LP  0  0  0  0  0  0  0  0  0  0  0  0  # atno 17394 bound_to 11000
  140.3578  134.2528  155.7190 LP  0  0  0  0  0  0  0  0  0  0  0  0  # atno 17395 bound_to 11000

$$$$
