AV-unprocessed.smi:11|AV-procd|sdf|56|dock9
  -GOLD-   2262015173D 1   1.00000     0.00000
 Structure written by MMmdl.
 33 35  0  0  0  0  0  0  0  0  1 V2000
  151.6182  144.9720  159.4564 C   0  0  0  0  0  0  0  0  0  0  0  0
  152.7283  143.9432  159.7321 C   0  0  0  0  0  0  0  0  0  0  0  0
  152.2640  142.6369  160.4235 C   0  0  2  0  0  0  0  0  0  0  0  0
  151.7146  142.9631  161.6854 O   0  0  0  0  0  0  0  0  0  0  0  0
  153.4282  141.6534  160.6065 C   0  0  0  0  0  0  0  0  0  0  0  0
  153.4418  140.8765  159.2917 C   0  0  0  0  0  0  0  0  0  0  0  0
  152.0441  140.8041  158.8917 N   0  0  0  0  0  0  0  0  0  0  0  0
  151.6756  140.3658  157.6034 C   0  0  0  0  0  0  0  0  0  0  0  0
  152.5563  139.5937  156.9157 N   0  0  0  0  0  0  0  0  0  0  0  0
  152.2499  139.1616  155.6894 C   0  0  0  0  0  0  0  0  0  0  0  0
  151.1387  139.3766  154.9819 N   0  0  0  0  0  0  0  0  0  0  0  0
  150.2481  140.1383  155.6770 C   0  0  0  0  0  0  0  0  0  0  0  0
  148.9985  140.5453  155.2586 N   0  0  0  0  0  0  0  0  0  0  0  0
  148.3826  141.2959  156.2443 C   0  0  0  0  0  0  0  0  0  0  0  0
  149.2240  141.3922  157.3232 C   0  0  0  0  0  0  0  0  0  0  0  0
  150.4269  140.6715  156.9867 C   0  0  0  0  0  0  0  0  0  0  0  0
  151.2628  141.8215  159.5819 C   0  0  0  0  0  0  0  0  0  0  0  0
  148.5695  140.3348  154.3690 H   0  0  0  0  0  0  0  0  0  0  0  0
  152.0352  145.8676  158.9957 H   0  0  0  0  0  0  0  0  0  0  0  0
  151.1207  145.2813  160.3755 H   0  0  0  0  0  0  0  0  0  0  0  0
  150.8596  144.5837  158.7780 H   0  0  0  0  0  0  0  0  0  0  0  0
  153.2196  143.7029  158.7885 H   0  0  0  0  0  0  0  0  0  0  0  0
  153.4903  144.4213  160.3492 H   0  0  0  0  0  0  0  0  0  0  0  0
  152.2745  143.6022  162.0992 H   0  0  0  0  0  0  0  0  0  0  0  0
  154.3808  142.1372  160.8249 H   0  0  0  0  0  0  0  0  0  0  0  0
  153.2149  140.9615  161.4232 H   0  0  0  0  0  0  0  0  0  0  0  0
  154.0176  141.4149  158.5377 H   0  0  0  0  0  0  0  0  0  0  0  0
  153.8762  139.8837  159.4127 H   0  0  0  0  0  0  0  0  0  0  0  0
  153.0033  138.5581  155.2051 H   0  0  0  0  0  0  0  0  0  0  0  0
  147.3913  141.6995  156.0985 H   0  0  0  0  0  0  0  0  0  0  0  0
  149.0243  141.9096  158.2493 H   0  0  0  0  0  0  0  0  0  0  0  0
  150.5418  141.3118  160.2222 H   0  0  0  0  0  0  0  0  0  0  0  0
  150.7069  142.4484  158.8860 H   0  0  0  0  0  0  0  0  0  0  0  0
  1  2  1  0  0  0  0
  1 19  1  0  0  0  0
  1 20  1  0  0  0  0
  1 21  1  0  0  0  0
  2  3  1  0  0  0  0
  2 22  1  0  0  0  0
  2 23  1  0  0  0  0
  3 17  1  0  0  0  0
  3  4  1  0  0  0  0
  3  5  1  0  0  0  0
  4 24  1  0  0  0  0
  5  6  1  0  0  0  0
  5 25  1  0  0  0  0
  5 26  1  0  0  0  0
  6  7  1  0  0  0  0
  6 27  1  0  0  0  0
  6 28  1  0  0  0  0
  7  8  1  0  0  0  0
  7 17  1  0  0  0  0
  8 16  1  0  0  0  0
  8  9  2  0  0  0  0
  9 10  1  0  0  0  0
 10 11  2  0  0  0  0
 10 29  1  0  0  0  0
 11 12  1  0  0  0  0
 12 16  2  0  0  0  0
 12 13  1  0  0  0  0
 13 18  1  0  0  0  0
 13 14  1  0  0  0  0
 14 15  2  0  0  0  0
 14 30  1  0  0  0  0
 15 16  1  0  0  0  0
 15 31  1  0  0  0  0
 17 32  1  0  0  0  0
 17 33  1  0  0  0  0
M  END
> <s_m_source_file>
AV-unprocessed.smi

> <i_m_source_file_index>
11

> <i_lp_mmshare_version>
43012

> <i_f3d_flags>
0

> <s_epik_input>
W0NIM11bQ0gyXVtDQEBdMShbT0hdKVtDSDJdW0NIMl1OKFtDSDJdMSljKG5bY0hdbjIpYyhjMjMpW2NIXVtjSF1bbkhdMw==

> <s_epik_cmdline>
J2VwaWtfcHl0aG9uJywgJy1waCcsICc3LjAnLCAnLXRuJywgJzgnLCAnLW1hJywgJzIwMCcsICctbWV0YWxfYmluZGluZycsICctaW1hZScsICc8aW5maWxlLm1hZT4nLCAnLW9tYWUnLCAnPG91dGZpbGUubWFlPic=

> <r_lp_tautomer_probability>
0.999998

> <r_epik_Ionization_Penalty>
0.0511253

> <r_epik_Ionization_Penalty_Charging>
0

> <r_epik_Ionization_Penalty_Neutral>
0.0511253

> <r_epik_State_Penalty>
0.0394181

> <r_epik_Charging_Adjusted_Penalty>
0.0394181

> <i_epik_Tot_Q>
0

> <i_epik_Tot_abs_Q>
0

> <r_epik_Metal_State_Penalty>
0.0367127

> <b_epik_Metal_Only>
0

> <s_lp_Force_Field>
OPLS_2005

> <r_lp_Energy>
27.4112

> <b_lp_Chiralities_Consistent>
1

> <s_lp_Variant>
AV-unprocessed.smi:11-2

> <Gold.Version>
5.8.1

> <Gold.Id.Protein>
6NUR|6NUR_protein|mol2

> <Gold.PLP.Fitness>
42.8316

> <Gold.PLP.PLP>
-35.0878

> <Gold.PLP.part.hbond>
-3.3233

> <Gold.PLP.part.metal>
0.0000

> <Gold.PLP.part.buried>
-4.3992

> <Gold.PLP.part.nonpolar>
-28.9831

> <Gold.PLP.part.repulsive>
0.1907

> <Gold.PLP.ligand.clash>
0.0000

> <Gold.PLP.ligand.torsion>
0.1381

> <Gold.PLP.Chemscore.Hbond>
2.5881

> <Gold.PLP.Chemscore.CHOScore>
0.0000

> <Gold.PLP.Chemscore.Metal>
0.0000

> <Gold.Chemscore.Hbonds>
donor molecule, donor type, donor heavy atom, donor atom, acceptor molecule, acceptor atom, score
      P1  H  6933  6945       L1     4  0.50
      P1  H  7989  7998       L1    11  0.58
      P1  H  7997  8008       L1     9  0.90

> <Gold.PLP.Chemscore.Internal.Correction>
0.2555

> <Gold.Rescore>
     Score         DG    S(hbond)    S(metal)    S(lipo)     H(rot)  DE(clash)    DE(int)     intcor
     14.48     -15.46       1.43        0.00      75.75       1.43       0.11       0.87       ----

> <Gold.Chemscore.Fitness>
14.4841

> <Gold.Chemscore.DG>
-15.4644

> <Gold.Chemscore.ZeroCoef>
-5.4800

> <Gold.Chemscore.Hbond>
1.4307

> <Gold.Chemscore.Metal>
0.0000

> <Gold.Chemscore.Lipo>
75.7458

> <Gold.Chemscore.Internal_Hbond>
0.0000

> <Gold.Chemscore.DEClash>
0.1061

> <Gold.Chemscore.DEInternal>
0.8742

> <Gold.Chemscore.Rot>
1.4283

> <Gold.Chemscore.Internal.Correction>
   9.000000E+99

> <Gold.Chemscore.Hbonds>
donor molecule, donor type, donor heavy atom, donor atom, acceptor molecule, acceptor atom, score
      P1  H  6933  6945       L1     4  0.45
      P1  H  7989  7998       L1    11  0.06
      P1  H  7997  8008       L1     9  0.18

> <Gold.Chemscore.Hbond.Weighted>
-4.7787

> <Gold.Chemscore.Metal.Weighted>
-0.0000

> <Gold.Chemscore.Lipo.Weighted>
-8.8623

> <Gold.Chemscore.Internal_Hbond.Weighted>
0.0000

> <Gold.Chemscore.DEClash.Weighted>
0.1061

> <Gold.Chemscore.DEInternal.Weighted>
0.8742

> <Gold.Chemscore.Rot.Weighted>
3.6566

> <Gold.Chemscore.Internal.Correction.Weighted>
   9.000000E+99

> <Gold.Protein.RotatedTorsions>
[ 6907 6896 6895 6894 ] final   85.78 input  -60.11 | X-H torsion
[ 7974 7965 7964 7962 ] final  169.50 input  175.53 | X-H torsion
[ 8008 7997 7996 7995 ] final  -56.29 input   59.86 | X-H torsion
[ 10167 10162 10161 10158 ] final  154.39 input  -65.29 | X-H torsion
[ 10718 10713 10712 10709 ] final -177.30 input   66.30 | X-H torsion
[ 10763 10752 10751 10750 ] final   15.56 input  -60.55 | X-H torsion
[ 11005 11000 10999 10996 ] final  106.45 input  -57.11 | X-H torsion

> <Gold.Protein.ActiveResidues>
 VAL166  LYS551  ARG553  GLY616  TRP617  ASP618  TYR619  PRO620  LYS621  CYS622 
 ASP623  PHE694  ASN695  SER759  ASP760  ASP761  ALA762  ILE779  LEU786  VAL792 
 PHE793  MET794  SER795  GLU796  ALA797  LYS798  CYS799  TRP800  GLU811  SER814 

> <Gold.Protein.RotatedAtoms>
  152.5381  134.2533  159.8906 H   0  0  0  0  0  0  0  0  0  0  0  0  # atno 6907 bound_to 6896
  151.2496  133.4350  159.2618 H   0  0  0  0  0  0  0  0  0  0  0  0  # atno 6908 bound_to 6896
  151.0552  134.9714  159.8288 H   0  0  0  0  0  0  0  0  0  0  0  0  # atno 6909 bound_to 6896
  144.7353  139.9064  143.6412 H   0  0  0  0  0  0  0  0  0  0  0  0  # atno 7974 bound_to 7965
  154.4225  140.1133  156.5613 H   0  0  0  0  0  0  0  0  0  0  0  0  # atno 8008 bound_to 7997
  155.6308  140.3495  155.4663 H   0  0  0  0  0  0  0  0  0  0  0  0  # atno 8009 bound_to 7997
  155.9949  140.1187  157.0592 H   0  0  0  0  0  0  0  0  0  0  0  0  # atno 8010 bound_to 7997
  139.4823  144.5191  151.7905 H   0  0  0  0  0  0  0  0  0  0  0  0  # atno 10167 bound_to 10162
  156.8275  130.9641  151.3108 H   0  0  0  0  0  0  0  0  0  0  0  0  # atno 10718 bound_to 10713
  153.1513  135.6779  153.8878 H   0  0  0  0  0  0  0  0  0  0  0  0  # atno 10763 bound_to 10752
  153.8303  135.3118  155.3419 H   0  0  0  0  0  0  0  0  0  0  0  0  # atno 10764 bound_to 10752
  154.7864  135.4859  154.0042 H   0  0  0  0  0  0  0  0  0  0  0  0  # atno 10765 bound_to 10752
  139.8814  134.9369  156.5669 H   0  0  0  0  0  0  0  0  0  0  0  0  # atno 11005 bound_to 11000
  146.1034  139.4031  143.0333 LP  0  0  0  0  0  0  0  0  0  0  0  0  # atno 17320 bound_to 7965
  145.7547  140.9959  143.1232 LP  0  0  0  0  0  0  0  0  0  0  0  0  # atno 17321 bound_to 7965
  140.4703  144.1597  150.5917 LP  0  0  0  0  0  0  0  0  0  0  0  0  # atno 17342 bound_to 10162
  140.4390  143.2535  151.9498 LP  0  0  0  0  0  0  0  0  0  0  0  0  # atno 17343 bound_to 10162
  157.6424  130.8817  149.9474 LP  0  0  0  0  0  0  0  0  0  0  0  0  # atno 17370 bound_to 10713
  156.0953  130.3660  150.0318 LP  0  0  0  0  0  0  0  0  0  0  0  0  # atno 17371 bound_to 10713
  140.8128  133.8416  155.8825 LP  0  0  0  0  0  0  0  0  0  0  0  0  # atno 17394 bound_to 11000
  140.9491  134.1802  157.4741 LP  0  0  0  0  0  0  0  0  0  0  0  0  # atno 17395 bound_to 11000

$$$$
