AV-unprocessed.smi:957|AV-procd|sdf|4265|dock3
  -GOLD-   22720 2173D 1   1.00000     0.00000
 Structure written by MMmdl.
 30 31  0  0  0  0  0  0  0  0  2 V2000
  151.5917  143.6422  158.0385 C   0  0  0  0  0  0  0  0  0  0  0  0
  150.8625  142.6170  157.1615 C   0  0  0  0  0  0  0  0  0  0  0  0
  151.5118  141.3180  157.1958 N   0  0  0  0  0  0  0  0  0  0  0  0
  152.4308  140.8804  158.0704 C   0  0  0  0  0  0  0  0  0  0  0  0
  152.8582  139.6358  157.8664 N   0  0  0  0  0  0  0  0  0  0  0  0
  152.1598  139.2075  156.7571 N   0  0  0  0  0  0  0  0  0  0  0  0
  151.3816  140.2364  156.3957 C   0  0  0  0  0  0  0  0  0  0  0  0
  150.4445  140.1821  155.2209 C   0  0  2  0  0  0  0  0  0  0  0  0
  149.0581  140.7608  155.5629 C   0  0  0  0  0  0  0  0  0  0  0  0
  148.1236  140.6745  154.3465 C   0  0  0  0  0  0  0  0  0  0  0  0
  148.0466  139.2338  153.8151 C   0  0  0  0  0  0  0  0  0  0  0  0
  149.3968  138.7217  153.4949 N   0  3  0  0  0  0  0  0  0  0  0  0
  150.3170  138.7533  154.6532 C   0  0  0  0  0  0  0  0  0  0  0  0
  151.0980  144.6129  157.9902 H   0  0  0  0  0  0  0  0  0  0  0  0
  152.6224  143.7777  157.7093 H   0  0  0  0  0  0  0  0  0  0  0  0
  151.6129  143.3331  159.0835 H   0  0  0  0  0  0  0  0  0  0  0  0
  149.8238  142.5062  157.4734 H   0  0  0  0  0  0  0  0  0  0  0  0
  150.8385  142.9656  156.1284 H   0  0  0  0  0  0  0  0  0  0  0  0
  152.7988  141.4900  158.8827 H   0  0  0  0  0  0  0  0  0  0  0  0
  150.8571  140.8007  154.4248 H   0  0  0  0  0  0  0  0  0  0  0  0
  148.6184  140.2113  156.3965 H   0  0  0  0  0  0  0  0  0  0  0  0
  149.1502  141.7978  155.8876 H   0  0  0  0  0  0  0  0  0  0  0  0
  147.1274  141.0271  154.6158 H   0  0  0  0  0  0  0  0  0  0  0  0
  148.4839  141.3379  153.5591 H   0  0  0  0  0  0  0  0  0  0  0  0
  147.5808  138.5806  154.5544 H   0  0  0  0  0  0  0  0  0  0  0  0
  147.4280  139.1932  152.9183 H   0  0  0  0  0  0  0  0  0  0  0  0
  149.3169  137.7697  153.1667 H   0  0  0  0  0  0  0  0  0  0  0  0
  151.2925  138.3820  154.3373 H   0  0  0  0  0  0  0  0  0  0  0  0
  149.9467  138.0668  155.4159 H   0  0  0  0  0  0  0  0  0  0  0  0
  149.7887  139.2889  152.7569 H   0  0  0  0  0  0  0  0  0  0  0  0
  1  2  1  0  0  0  0
  1 14  1  0  0  0  0
  1 15  1  0  0  0  0
  1 16  1  0  0  0  0
  2  3  1  0  0  0  0
  2 17  1  0  0  0  0
  2 18  1  0  0  0  0
  3  7  1  0  0  0  0
  3  4  1  0  0  0  0
  4  5  2  0  0  0  0
  4 19  1  0  0  0  0
  5  6  1  0  0  0  0
  6  7  2  0  0  0  0
  7  8  1  0  0  0  0
  8 13  1  0  0  0  0
  8  9  1  0  0  0  0
  8 20  1  0  0  0  0
  9 10  1  0  0  0  0
  9 21  1  0  0  0  0
  9 22  1  0  0  0  0
 10 11  1  0  0  0  0
 10 23  1  0  0  0  0
 10 24  1  0  0  0  0
 11 12  1  0  0  0  0
 11 25  1  0  0  0  0
 11 26  1  0  0  0  0
 12 13  1  0  0  0  0
 12 27  1  0  0  0  0
 12 30  1  0  0  0  0
 13 28  1  0  0  0  0
 13 29  1  0  0  0  0
M  CHG  1  12   1
M  END
> <s_m_source_file>
AV-unprocessed.smi

> <i_m_source_file_index>
957

> <i_lp_mmshare_version>
43012

> <i_f3d_flags>
0

> <s_epik_input>
W0NIM11bQ0gyXW4xW2NIXW5uYzFbQ0BASF0yW0NIMl1bQ0gyXVtDSDJdW05IXVtDSDJdMg==

> <s_epik_cmdline>
J2VwaWtfcHl0aG9uJywgJy1waCcsICc3LjAnLCAnLXRuJywgJzgnLCAnLW1hJywgJzIwMCcsICctbWV0YWxfYmluZGluZycsICctaW1hZScsICc8aW5maWxlLm1hZT4nLCAnLW9tYWUnLCAnPG91dGZpbGUubWFlPic=

> <r_lp_tautomer_probability>
1

> <r_epik_Ionization_Penalty>
0.000442722

> <r_epik_Ionization_Penalty_Charging>
0.000426856

> <r_epik_Ionization_Penalty_Neutral>
1.58656e-05

> <r_epik_State_Penalty>
-0

> <r_epik_Charging_Adjusted_Penalty>
0.000426856

> <i_epik_Tot_Q>
1

> <i_epik_Tot_abs_Q>
1

> <r_epik_Metal_State_Penalty>
-0

> <b_epik_Metal_Only>
0

> <s_lp_Force_Field>
OPLS_2005

> <r_lp_Energy>
16.0383

> <b_lp_Chiralities_Consistent>
1

> <s_lp_Variant>
AV-unprocessed.smi:957-1

> <Gold.Version>
5.8.1

> <Gold.Id.Protein>
6NUR|6NUR_protein|mol2

> <Gold.PLP.Fitness>
35.3454

> <Gold.PLP.PLP>
-24.4649

> <Gold.PLP.part.hbond>
-3.0000

> <Gold.PLP.part.metal>
0.0000

> <Gold.PLP.part.buried>
-1.5755

> <Gold.PLP.part.nonpolar>
-19.1556

> <Gold.PLP.part.repulsive>
0.0844

> <Gold.PLP.ligand.clash>
0.0000

> <Gold.PLP.ligand.torsion>
0.4747

> <Gold.PLP.Chemscore.Hbond>
3.9344

> <Gold.PLP.Chemscore.CHOScore>
0.0000

> <Gold.PLP.Chemscore.Metal>
0.0000

> <Gold.Chemscore.Hbonds>
donor molecule, donor type, donor heavy atom, donor atom, acceptor molecule, acceptor atom, score
      L1  H    12    27       P1  7948  2.00
      L1  H    12    30       P1  7957  0.98
      P1  H  7997  8010       L1     5  0.94

> <Gold.PLP.Chemscore.Internal.Correction>
0.0267

> <Gold.Rescore>
     Score         DG    S(hbond)    S(metal)    S(lipo)     H(rot)  DE(clash)    DE(int)     intcor
     14.73     -15.00       1.97        0.00      52.81       1.26       0.10       0.18       ----

> <Gold.Chemscore.Fitness>
14.7288

> <Gold.Chemscore.DG>
-15.0046

> <Gold.Chemscore.ZeroCoef>
-5.4800

> <Gold.Chemscore.Hbond>
1.9655

> <Gold.Chemscore.Metal>
0.0000

> <Gold.Chemscore.Lipo>
52.8096

> <Gold.Chemscore.Internal_Hbond>
0.0000

> <Gold.Chemscore.DEClash>
0.0965

> <Gold.Chemscore.DEInternal>
0.1793

> <Gold.Chemscore.Rot>
1.2573

> <Gold.Chemscore.Internal.Correction>
   9.000000E+99

> <Gold.Chemscore.Hbonds>
donor molecule, donor type, donor heavy atom, donor atom, acceptor molecule, acceptor atom, score
      L1  H    12    27       P1  7948  0.91
      L1  H    12    30       P1  7957  0.91
      P1  H  7997  8010       L1     5  0.08

> <Gold.Chemscore.Hbond.Weighted>
-6.5646

> <Gold.Chemscore.Metal.Weighted>
-0.0000

> <Gold.Chemscore.Lipo.Weighted>
-6.1787

> <Gold.Chemscore.Internal_Hbond.Weighted>
0.0000

> <Gold.Chemscore.DEClash.Weighted>
0.0965

> <Gold.Chemscore.DEInternal.Weighted>
0.1793

> <Gold.Chemscore.Rot.Weighted>
3.2188

> <Gold.Chemscore.Internal.Correction.Weighted>
   9.000000E+99

> <Gold.Protein.RotatedTorsions>
[ 6907 6896 6895 6894 ] final  -96.95 input  -60.11 | X-H torsion
[ 7974 7965 7964 7962 ] final   86.70 input  175.53 | X-H torsion
[ 8008 7997 7996 7995 ] final   25.79 input   59.86 | X-H torsion
[ 10167 10162 10161 10158 ] final   84.66 input  -65.29 | X-H torsion
[ 10718 10713 10712 10709 ] final  173.64 input   66.30 | X-H torsion
[ 10763 10752 10751 10750 ] final -139.21 input  -60.55 | X-H torsion
[ 11005 11000 10999 10996 ] final  -26.63 input  -57.11 | X-H torsion

> <Gold.Protein.ActiveResidues>
 VAL166  LYS551  ARG553  GLY616  TRP617  ASP618  TYR619  PRO620  LYS621  CYS622 
 ASP623  PHE694  ASN695  SER759  ASP760  ASP761  ALA762  ILE779  LEU786  VAL792 
 PHE793  MET794  SER795  GLU796  ALA797  LYS798  CYS799  TRP800  GLU811  SER814 

> <Gold.Protein.RotatedAtoms>
  150.7002  134.1423  159.4109 H   0  0  0  0  0  0  0  0  0  0  0  0  # atno 6907 bound_to 6896
  151.9408  135.0212  160.0545 H   0  0  0  0  0  0  0  0  0  0  0  0  # atno 6908 bound_to 6896
  152.2095  133.4866  159.5139 H   0  0  0  0  0  0  0  0  0  0  0  0  # atno 6909 bound_to 6896
  145.5688  139.2311  143.2418 H   0  0  0  0  0  0  0  0  0  0  0  0  # atno 7974 bound_to 7965
  155.0172  140.3143  155.4807 H   0  0  0  0  0  0  0  0  0  0  0  0  # atno 8008 bound_to 7997
  156.2898  140.2204  156.5231 H   0  0  0  0  0  0  0  0  0  0  0  0  # atno 8009 bound_to 7997
  154.7483  140.0468  157.0859 H   0  0  0  0  0  0  0  0  0  0  0  0  # atno 8010 bound_to 7997
  139.9057  144.6302  150.8589 H   0  0  0  0  0  0  0  0  0  0  0  0  # atno 10167 bound_to 10162
  156.9614  131.0062  151.2926 H   0  0  0  0  0  0  0  0  0  0  0  0  # atno 10718 bound_to 10713
  154.8615  135.3589  154.5510 H   0  0  0  0  0  0  0  0  0  0  0  0  # atno 10763 bound_to 10752
  153.6128  135.7009  153.5345 H   0  0  0  0  0  0  0  0  0  0  0  0  # atno 10764 bound_to 10752
  153.3195  135.4155  155.1365 H   0  0  0  0  0  0  0  0  0  0  0  0  # atno 10765 bound_to 10752
  140.9046  133.7501  156.0589 H   0  0  0  0  0  0  0  0  0  0  0  0  # atno 11005 bound_to 11000
  146.1799  140.6514  142.9194 LP  0  0  0  0  0  0  0  0  0  0  0  0  # atno 17320 bound_to 7965
  144.7447  140.5037  143.6844 LP  0  0  0  0  0  0  0  0  0  0  0  0  # atno 17321 bound_to 7965
  140.7697  143.3403  151.2222 LP  0  0  0  0  0  0  0  0  0  0  0  0  # atno 17342 bound_to 10162
  139.6986  143.9571  152.2894 LP  0  0  0  0  0  0  0  0  0  0  0  0  # atno 17343 bound_to 10162
  157.5655  130.8275  149.8322 LP  0  0  0  0  0  0  0  0  0  0  0  0  # atno 17370 bound_to 10713
  156.0321  130.3762  150.1660 LP  0  0  0  0  0  0  0  0  0  0  0  0  # atno 17371 bound_to 10713
  140.8187  134.3315  157.5389 LP  0  0  0  0  0  0  0  0  0  0  0  0  # atno 17394 bound_to 11000
  139.8747  134.9296  156.3482 LP  0  0  0  0  0  0  0  0  0  0  0  0  # atno 17395 bound_to 11000

$$$$
