AV-unprocessed.smi:72|AV-procd|sdf|747|dock3
  -GOLD-   2262017 83D 1   1.00000     0.00000
 Structure written by MMmdl.
 29 30  0  0  0  0  0  0  0  0  1 V2000
  148.9378  130.3413  154.7896 N   0  0  0  0  0  0  0  0  0  0  0  0
  148.1315  130.9121  153.8271 C   0  0  0  0  0  0  0  0  0  0  0  0
  148.2839  132.2906  153.6231 N   0  0  0  0  0  0  0  0  0  0  0  0
  147.5337  132.8288  152.7144 C   0  0  0  0  0  0  0  0  0  0  0  0
  146.5966  132.0325  151.9422 N   0  0  0  0  0  0  0  0  0  0  0  0
  145.7043  132.6551  150.8924 C   0  0  2  0  0  0  0  0  0  0  0  0
  145.8052  134.0459  150.9703 O   0  0  0  0  0  0  0  0  0  0  0  0
  144.5185  134.6241  150.7911 C   0  0  2  0  0  0  0  0  0  0  0  0
  144.4623  136.0537  151.3582 C   0  0  0  0  0  0  0  0  0  0  0  0
  145.4003  136.8765  150.6978 O   0  0  0  0  0  0  0  0  0  0  0  0
  143.5833  133.6078  151.4611 C   0  0  2  0  0  0  0  0  0  0  0  0
  143.5353  133.8004  152.8633 O   0  0  0  0  0  0  0  0  0  0  0  0
  144.2334  132.2695  151.1311 C   0  0  1  0  0  0  0  0  0  0  0  0
  143.6541  131.7247  149.9628 O   0  0  0  0  0  0  0  0  0  0  0  0
  146.4729  130.6443  152.2214 C   0  0  0  0  0  0  0  0  0  0  0  0
  145.6511  129.9601  151.6114 O   0  0  0  0  0  0  0  0  0  0  0  0
  147.3105  130.1120  153.2091 N   0  0  0  0  0  0  0  0  0  0  0  0
  146.0942  132.3360  149.9243 H   0  0  0  0  0  0  0  0  0  0  0  0
  144.2932  134.6358  149.7225 H   0  0  0  0  0  0  0  0  0  0  0  0
  142.5642  133.6841  151.0794 H   0  0  0  0  0  0  0  0  0  0  0  0
  144.1344  131.5450  151.9413 H   0  0  0  0  0  0  0  0  0  0  0  0
  148.9145  129.3595  155.0235 H   0  0  0  0  0  0  0  0  0  0  0  0
  149.6104  130.8629  155.3325 H   0  0  0  0  0  0  0  0  0  0  0  0
  147.5543  133.8934  152.4783 H   0  0  0  0  0  0  0  0  0  0  0  0
  143.4760  136.4865  151.1876 H   0  0  0  0  0  0  0  0  0  0  0  0
  144.6419  136.0630  152.4339 H   0  0  0  0  0  0  0  0  0  0  0  0
  144.9675  137.6734  150.4320 H   0  0  0  0  0  0  0  0  0  0  0  0
  143.2401  132.9986  153.2667 H   0  0  0  0  0  0  0  0  0  0  0  0
  143.7382  132.3565  149.2647 H   0  0  0  0  0  0  0  0  0  0  0  0
  1  2  1  0  0  0  0
  1 22  1  0  0  0  0
  1 23  1  0  0  0  0
  2 17  2  0  0  0  0
  2  3  1  0  0  0  0
  3  4  2  0  0  0  0
  4  5  1  0  0  0  0
  4 24  1  0  0  0  0
  5  6  1  0  0  0  0
  5 15  1  0  0  0  0
  6 18  1  0  0  0  0
  6 13  1  0  0  0  0
  6  7  1  0  0  0  0
  7  8  1  0  0  0  0
  8 19  1  0  0  0  0
  8  9  1  0  0  0  0
  8 11  1  0  0  0  0
  9 10  1  0  0  0  0
  9 25  1  0  0  0  0
  9 26  1  0  0  0  0
 10 27  1  0  0  0  0
 11 20  1  0  0  0  0
 11 12  1  0  0  0  0
 11 13  1  0  0  0  0
 12 28  1  0  0  0  0
 13 21  1  0  0  0  0
 13 14  1  0  0  0  0
 14 29  1  0  0  0  0
 15 16  2  0  0  0  0
 15 17  1  0  0  0  0
M  END
> <s_m_source_file>
AV-unprocessed.smi

> <i_m_source_file_index>
72

> <i_lp_mmshare_version>
43012

> <i_f3d_flags>
0

> <s_epik_input>
W05IMl1jMW5bY0hdbihjKD1PKW4xKVtDQEBIXTJPW0NASF0oW0NIMl1bT0hdKVtDQEBIXShbT0hdKVtDQEhdMltPSF0=

> <s_epik_cmdline>
J2VwaWtfcHl0aG9uJywgJy1waCcsICc3LjAnLCAnLXRuJywgJzgnLCAnLW1hJywgJzIwMCcsICctbWV0YWxfYmluZGluZycsICctaW1hZScsICc8aW5maWxlLm1hZT4nLCAnLW9tYWUnLCAnPG91dGZpbGUubWFlPic=

> <r_lp_tautomer_probability>
4.77166e-05

> <r_epik_Ionization_Penalty>
1.3546

> <r_epik_Ionization_Penalty_Charging>
1.46833e-10

> <r_epik_Ionization_Penalty_Neutral>
1.3546

> <r_epik_State_Penalty>
3.51908

> <r_epik_Charging_Adjusted_Penalty>
3.51908

> <i_epik_Tot_Q>
0

> <i_epik_Tot_abs_Q>
0

> <r_epik_Metal_State_Penalty>
3.44088

> <b_epik_Metal_Only>
1

> <s_epik_Chemistry_Notes>
This compound contains an acetal/aminal-like group ( X-CH(R)-Y where X, Y are N, S, or O) that may be acid/base labile, releasing an aldehyde.

> <s_lp_Force_Field>
OPLS_2005

> <r_lp_Energy>
27.1219

> <b_lp_Chiralities_Consistent>
1

> <s_lp_Variant>
AV-unprocessed.smi:72-85

> <Gold.Version>
5.8.1

> <Gold.Id.Protein>
6NUR|6NUR_protein|mol2

> <Gold.PLP.Fitness>
35.3304

> <Gold.PLP.PLP>
-26.0898

> <Gold.PLP.part.hbond>
-3.2678

> <Gold.PLP.part.metal>
0.0000

> <Gold.PLP.part.buried>
-4.0786

> <Gold.PLP.part.nonpolar>
-18.8447

> <Gold.PLP.part.repulsive>
0.5214

> <Gold.PLP.ligand.clash>
0.0000

> <Gold.PLP.ligand.torsion>
0.1765

> <Gold.PLP.Chemscore.Hbond>
2.7118

> <Gold.PLP.Chemscore.CHOScore>
0.4821

> <Gold.PLP.Chemscore.Metal>
0.0000

> <Gold.Chemscore.Hbonds>
donor molecule, donor type, donor heavy atom, donor atom, acceptor molecule, acceptor atom, score
      L1  H    10    27       P1 10171  1.00
      L1  H    12    28       P1 10957  1.00
      P1  H 10785 10796       L1    14  0.70
      L1  C     4    24       P1  7948  0.46

> <Gold.PLP.Chemscore.Internal.Correction>
0.0120

> <Gold.Rescore>
     Score         DG    S(hbond)    S(metal)    S(lipo)     H(rot)  DE(clash)    DE(int)     intcor
      2.36      -3.97       1.81        0.00      24.17       4.06       0.01       1.59       ----

> <Gold.Chemscore.Fitness>
2.3614

> <Gold.Chemscore.DG>
-3.9665

> <Gold.Chemscore.ZeroCoef>
-5.4800

> <Gold.Chemscore.Hbond>
1.8122

> <Gold.Chemscore.Metal>
0.0000

> <Gold.Chemscore.Lipo>
24.1659

> <Gold.Chemscore.Internal_Hbond>
0.0000

> <Gold.Chemscore.DEClash>
0.0126

> <Gold.Chemscore.DEInternal>
1.5925

> <Gold.Chemscore.Rot>
4.0600

> <Gold.Chemscore.Internal.Correction>
   9.000000E+99

> <Gold.Chemscore.Hbonds>
donor molecule, donor type, donor heavy atom, donor atom, acceptor molecule, acceptor atom, score
      L1  H    10    27       P1 10171  0.94
      L1  H    12    28       P1 10957  0.69
      P1  H 10785 10796       L1    14  0.10

> <Gold.Chemscore.Hbond.Weighted>
-6.0527

> <Gold.Chemscore.Metal.Weighted>
-0.0000

> <Gold.Chemscore.Lipo.Weighted>
-2.8274

> <Gold.Chemscore.Internal_Hbond.Weighted>
0.0000

> <Gold.Chemscore.DEClash.Weighted>
0.0126

> <Gold.Chemscore.DEInternal.Weighted>
1.5925

> <Gold.Chemscore.Rot.Weighted>
10.3936

> <Gold.Chemscore.Internal.Correction.Weighted>
   9.000000E+99

> <Gold.Protein.RotatedTorsions>
[ 6907 6896 6895 6894 ] final  112.75 input  -60.11 | X-H torsion
[ 7974 7965 7964 7962 ] final -135.74 input  175.53 | X-H torsion
[ 8008 7997 7996 7995 ] final   25.86 input   59.86 | X-H torsion
[ 10167 10162 10161 10158 ] final -169.42 input  -65.29 | X-H torsion
[ 10718 10713 10712 10709 ] final -136.09 input   66.30 | X-H torsion
[ 10763 10752 10751 10750 ] final   78.68 input  -60.55 | X-H torsion
[ 11005 11000 10999 10996 ] final -125.29 input  -57.11 | X-H torsion

> <Gold.Protein.ActiveResidues>
 VAL166  LYS551  ARG553  GLY616  TRP617  ASP618  TYR619  PRO620  LYS621  CYS622 
 ASP623  PHE694  ASN695  SER759  ASP760  ASP761  ALA762  ILE779  LEU786  VAL792 
 PHE793  MET794  SER795  GLU796  ALA797  LYS798  CYS799  TRP800  GLU811  SER814 

> <Gold.Protein.RotatedAtoms>
  152.4899  133.8472  159.7182 H   0  0  0  0  0  0  0  0  0  0  0  0  # atno 6907 bound_to 6896
  150.9019  133.7098  159.2883 H   0  0  0  0  0  0  0  0  0  0  0  0  # atno 6908 bound_to 6896
  151.4537  135.1036  159.9757 H   0  0  0  0  0  0  0  0  0  0  0  0  # atno 6909 bound_to 6896
  144.8988  140.6742  143.5098 H   0  0  0  0  0  0  0  0  0  0  0  0  # atno 7974 bound_to 7965
  155.0182  140.3144  155.4803 H   0  0  0  0  0  0  0  0  0  0  0  0  # atno 8008 bound_to 7997
  156.2897  140.2202  156.5241 H   0  0  0  0  0  0  0  0  0  0  0  0  # atno 8009 bound_to 7997
  154.7475  140.0469  157.0852 H   0  0  0  0  0  0  0  0  0  0  0  0  # atno 8010 bound_to 7997
  139.5924  144.1185  152.1649 H   0  0  0  0  0  0  0  0  0  0  0  0  # atno 10167 bound_to 10162
  156.2733  130.7278  151.1252 H   0  0  0  0  0  0  0  0  0  0  0  0  # atno 10718 bound_to 10713
  153.0893  135.4868  154.8659 H   0  0  0  0  0  0  0  0  0  0  0  0  # atno 10763 bound_to 10752
  154.7250  135.3047  154.8988 H   0  0  0  0  0  0  0  0  0  0  0  0  # atno 10764 bound_to 10752
  153.9641  135.6809  153.4799 H   0  0  0  0  0  0  0  0  0  0  0  0  # atno 10765 bound_to 10752
  140.9774  134.0721  157.3803 H   0  0  0  0  0  0  0  0  0  0  0  0  # atno 11005 bound_to 11000
  145.3653  139.1671  143.4361 LP  0  0  0  0  0  0  0  0  0  0  0  0  # atno 17320 bound_to 7965
  146.3096  140.3720  142.8675 LP  0  0  0  0  0  0  0  0  0  0  0  0  # atno 17321 bound_to 7965
  140.0763  144.5738  150.7155 LP  0  0  0  0  0  0  0  0  0  0  0  0  # atno 17342 bound_to 10162
  140.7184  143.2565  151.4360 LP  0  0  0  0  0  0  0  0  0  0  0  0  # atno 17343 bound_to 10162
  157.7291  131.0627  150.5790 LP  0  0  0  0  0  0  0  0  0  0  0  0  # atno 17370 bound_to 10713
  156.5888  130.4324  149.5945 LP  0  0  0  0  0  0  0  0  0  0  0  0  # atno 17371 bound_to 10713
  139.8936  135.0131  156.6907 LP  0  0  0  0  0  0  0  0  0  0  0  0  # atno 17394 bound_to 11000
  140.7238  133.9117  155.8165 LP  0  0  0  0  0  0  0  0  0  0  0  0  # atno 17395 bound_to 11000

$$$$
