AV-unprocessed.smi:1973|AV-procd|sdf|7978|dock9
  -GOLD-   2272010153D 1   1.00000     0.00000
 Structure written by MMmdl.
 48 50  0  0  0  0  0  0  0  0  2 V2000
  150.2936  142.7062  158.5597 C   0  0  0  0  0  0  0  0  0  0  0  0
  151.5786  142.2282  158.2044 O   0  0  0  0  0  0  0  0  0  0  0  0
  151.5273  140.9971  157.5027 C   0  0  0  0  0  0  0  0  0  0  0  0
  150.7504  141.1768  156.1883 C   0  0  0  0  0  0  0  0  0  0  0  0
  150.5399  139.8975  155.5009 N   0  0  0  0  0  0  0  0  0  0  0  0
  149.2151  139.4941  155.4601 N   0  0  0  0  0  0  0  0  0  0  0  0
  148.8926  138.3756  154.8948 C   0  0  0  0  0  0  0  0  0  0  0  0
  147.4804  137.9062  154.8330 C   0  0  0  0  0  0  0  0  0  0  0  0
  146.6359  138.2687  155.6534 O   0  0  0  0  0  0  0  0  0  0  0  0
  147.1977  137.0635  153.8247 N   0  0  0  0  0  0  0  0  0  0  0  0
  145.8869  136.4782  153.5770 C   0  0  0  0  0  0  0  0  0  0  0  0
  145.7261  136.0976  152.0963 C   0  0  2  0  0  0  0  0  0  0  0  0
  144.2771  135.8880  151.6614 C   0  0  0  0  0  0  0  0  0  0  0  0
  144.3829  135.0119  150.4071 C   0  0  0  0  0  0  0  0  0  0  0  0
  145.7194  134.3731  150.4418 N   0  3  2  0  0  0  0  0  0  0  0  0
  145.7018  132.9143  150.2031 C   0  0  0  0  0  0  0  0  0  0  0  0
  144.6512  132.4772  149.2104 C   0  0  0  0  0  0  0  0  0  0  0  0
  144.4426  132.2381  150.6901 C   0  0  0  0  0  0  0  0  0  0  0  0
  146.3708  134.7655  151.7083 C   0  0  0  0  0  0  0  0  0  0  0  0
  149.9060  137.5273  154.2915 C   0  0  0  0  0  0  0  0  0  0  0  0
  151.1939  137.9325  154.3412 C   0  0  0  0  0  0  0  0  0  0  0  0
  151.5872  139.1897  154.9789 C   0  0  0  0  0  0  0  0  0  0  0  0
  152.7545  139.5739  155.0409 O   0  0  0  0  0  0  0  0  0  0  0  0
  150.3904  143.6494  159.0973 H   0  0  0  0  0  0  0  0  0  0  0  0
  149.7761  141.9998  159.2101 H   0  0  0  0  0  0  0  0  0  0  0  0
  149.6799  142.8832  157.6756 H   0  0  0  0  0  0  0  0  0  0  0  0
  152.5348  140.6289  157.3022 H   0  0  0  0  0  0  0  0  0  0  0  0
  151.0271  140.2503  158.1207 H   0  0  0  0  0  0  0  0  0  0  0  0
  149.7789  141.6221  156.4094 H   0  0  0  0  0  0  0  0  0  0  0  0
  151.2562  141.9010  155.5476 H   0  0  0  0  0  0  0  0  0  0  0  0
  147.9428  136.8204  153.1878 H   0  0  0  0  0  0  0  0  0  0  0  0
  145.7507  135.5979  154.2078 H   0  0  0  0  0  0  0  0  0  0  0  0
  145.1184  137.1978  153.8630 H   0  0  0  0  0  0  0  0  0  0  0  0
  146.1575  136.8854  151.4757 H   0  0  0  0  0  0  0  0  0  0  0  0
  143.7291  135.3484  152.4353 H   0  0  0  0  0  0  0  0  0  0  0  0
  143.7520  136.8256  151.4767 H   0  0  0  0  0  0  0  0  0  0  0  0
  143.5732  134.2813  150.3712 H   0  0  0  0  0  0  0  0  0  0  0  0
  144.3178  135.6199  149.5044 H   0  0  0  0  0  0  0  0  0  0  0  0
  146.6608  132.4016  150.2549 H   0  0  0  0  0  0  0  0  0  0  0  0
  144.0419  133.2429  148.7338 H   0  0  0  0  0  0  0  0  0  0  0  0
  144.8735  131.6093  148.5929 H   0  0  0  0  0  0  0  0  0  0  0  0
  144.5282  131.2132  151.0453 H   0  0  0  0  0  0  0  0  0  0  0  0
  143.6942  132.8448  151.1973 H   0  0  0  0  0  0  0  0  0  0  0  0
  147.4527  134.8388  151.5921 H   0  0  0  0  0  0  0  0  0  0  0  0
  146.1651  134.0158  152.4748 H   0  0  0  0  0  0  0  0  0  0  0  0
  149.6449  136.5940  153.8140 H   0  0  0  0  0  0  0  0  0  0  0  0
  151.9580  137.3112  153.8973 H   0  0  0  0  0  0  0  0  0  0  0  0
  146.2546  134.7969  149.6975 H   0  0  0  0  0  0  0  0  0  0  0  0
  1  2  1  0  0  0  0
  1 24  1  0  0  0  0
  1 25  1  0  0  0  0
  1 26  1  0  0  0  0
  2  3  1  0  0  0  0
  3  4  1  0  0  0  0
  3 27  1  0  0  0  0
  3 28  1  0  0  0  0
  4  5  1  0  0  0  0
  4 29  1  0  0  0  0
  4 30  1  0  0  0  0
  5 22  1  0  0  0  0
  5  6  1  0  0  0  0
  6  7  2  0  0  0  0
  7  8  1  0  0  0  0
  7 20  1  0  0  0  0
  8  9  2  0  0  0  0
  8 10  1  0  0  0  0
 10 11  1  0  0  0  0
 10 31  1  0  0  0  0
 11 12  1  0  0  0  0
 11 32  1  0  0  0  0
 11 33  1  0  0  0  0
 12 19  1  0  0  0  0
 12 13  1  0  0  0  0
 12 34  1  0  0  0  0
 13 14  1  0  0  0  0
 13 35  1  0  0  0  0
 13 36  1  0  0  0  0
 14 15  1  0  0  0  0
 14 37  1  0  0  0  0
 14 38  1  0  0  0  0
 15 16  1  0  0  0  0
 15 19  1  0  0  0  0
 15 48  1  0  0  0  0
 16 18  1  0  0  0  0
 16 17  1  0  0  0  0
 16 39  1  0  0  0  0
 17 18  1  0  0  0  0
 17 40  1  0  0  0  0
 17 41  1  0  0  0  0
 18 42  1  0  0  0  0
 18 43  1  0  0  0  0
 19 44  1  0  0  0  0
 19 45  1  0  0  0  0
 20 21  2  0  0  0  0
 20 46  1  0  0  0  0
 21 22  1  0  0  0  0
 21 47  1  0  0  0  0
 22 23  2  0  0  0  0
M  CHG  1  15   1
M  END
> <s_m_source_file>
AV-unprocessed.smi

> <i_m_source_file_index>
1973

> <i_lp_mmshare_version>
43012

> <i_f3d_flags>
0

> <s_epik_input>
W0NIM11PW0NIMl1bQ0gyXW4xbmMoW2NIXVtjSF1jMT1PKUMoPU8pW05IXVtDSDJdW0NAQEhdMltDSDJdW0NIMl1OKFtDSDJdMilbQ0hdM1tDSDJdW0NIMl0z

> <s_epik_cmdline>
J2VwaWtfcHl0aG9uJywgJy1waCcsICc3LjAnLCAnLXRuJywgJzgnLCAnLW1hJywgJzIwMCcsICctbWV0YWxfYmluZGluZycsICctaW1hZScsICc8aW5maWxlLm1hZT4nLCAnLW9tYWUnLCAnPG91dGZpbGUubWFlPic=

> <r_lp_tautomer_probability>
1

> <r_epik_Ionization_Penalty>
0.000225706

> <r_epik_Ionization_Penalty_Charging>
0.000223776

> <r_epik_Ionization_Penalty_Neutral>
1.93004e-06

> <r_epik_State_Penalty>
-0

> <r_epik_Charging_Adjusted_Penalty>
0.000223776

> <i_epik_Tot_Q>
1

> <i_epik_Tot_abs_Q>
1

> <r_epik_Metal_State_Penalty>
-0

> <b_epik_Metal_Only>
0

> <s_lp_Force_Field>
OPLS_2005

> <r_lp_Energy>
60.0274

> <b_lp_Chiralities_Consistent>
1

> <s_lp_Variant>
AV-unprocessed.smi:1973-3

> <Gold.Version>
5.8.1

> <Gold.Id.Protein>
6NUR|6NUR_protein|mol2

> <Gold.PLP.Fitness>
44.8687

> <Gold.PLP.PLP>
-38.1237

> <Gold.PLP.part.hbond>
-4.0000

> <Gold.PLP.part.metal>
0.0000

> <Gold.PLP.part.buried>
-0.0332

> <Gold.PLP.part.nonpolar>
-33.8371

> <Gold.PLP.part.repulsive>
0.1906

> <Gold.PLP.ligand.clash>
0.0000

> <Gold.PLP.ligand.torsion>
1.3110

> <Gold.PLP.Chemscore.Hbond>
2.6721

> <Gold.PLP.Chemscore.CHOScore>
0.0000

> <Gold.PLP.Chemscore.Metal>
0.0000

> <Gold.Chemscore.Hbonds>
donor molecule, donor type, donor heavy atom, donor atom, acceptor molecule, acceptor atom, score
      L1  H    10    31       P1  7948  1.00
      L1  H    15    48       P1  7921  0.68
      P1  H  7997  8010       L1    23  1.00

> <Gold.PLP.Chemscore.Internal.Correction>
1.3507

> <Gold.Rescore>
     Score         DG    S(hbond)    S(metal)    S(lipo)     H(rot)  DE(clash)    DE(int)     intcor
     16.10     -19.14       2.33        0.00      93.42       1.97       1.60       1.45       ----

> <Gold.Chemscore.Fitness>
16.0966

> <Gold.Chemscore.DG>
-19.1425

> <Gold.Chemscore.ZeroCoef>
-5.4800

> <Gold.Chemscore.Hbond>
2.3287

> <Gold.Chemscore.Metal>
0.0000

> <Gold.Chemscore.Lipo>
93.4241

> <Gold.Chemscore.Internal_Hbond>
0.0000

> <Gold.Chemscore.DEClash>
1.5951

> <Gold.Chemscore.DEInternal>
1.4508

> <Gold.Chemscore.Rot>
1.9711

> <Gold.Chemscore.Internal.Correction>
   9.000000E+99

> <Gold.Chemscore.Hbonds>
donor molecule, donor type, donor heavy atom, donor atom, acceptor molecule, acceptor atom, score
      L1  H    10    31       P1  7948  1.00
      L1  H    15    48       P1  7921  0.26
      P1  H  7997  8010       L1    23  0.97

> <Gold.Chemscore.Hbond.Weighted>
-7.7779

> <Gold.Chemscore.Metal.Weighted>
-0.0000

> <Gold.Chemscore.Lipo.Weighted>
-10.9306

> <Gold.Chemscore.Internal_Hbond.Weighted>
0.0000

> <Gold.Chemscore.DEClash.Weighted>
1.5951

> <Gold.Chemscore.DEInternal.Weighted>
1.4508

> <Gold.Chemscore.Rot.Weighted>
5.0460

> <Gold.Chemscore.Internal.Correction.Weighted>
   9.000000E+99

> <Gold.Protein.RotatedTorsions>
[ 6907 6896 6895 6894 ] final -127.11 input  -60.11 | X-H torsion
[ 7974 7965 7964 7962 ] final  116.22 input  175.53 | X-H torsion
[ 8008 7997 7996 7995 ] final  104.30 input   59.86 | X-H torsion
[ 10167 10162 10161 10158 ] final  159.09 input  -65.29 | X-H torsion
[ 10718 10713 10712 10709 ] final -174.60 input   66.30 | X-H torsion
[ 10763 10752 10751 10750 ] final   17.41 input  -60.55 | X-H torsion
[ 11005 11000 10999 10996 ] final   -1.88 input  -57.11 | X-H torsion

> <Gold.Protein.ActiveResidues>
 VAL166  LYS551  ARG553  GLY616  TRP617  ASP618  TYR619  PRO620  LYS621  CYS622 
 ASP623  PHE694  ASN695  SER759  ASP760  ASP761  ALA762  ILE779  LEU786  VAL792 
 PHE793  MET794  SER795  GLU796  ALA797  LYS798  CYS799  TRP800  GLU811  SER814 

> <Gold.Protein.RotatedAtoms>
  150.9039  133.7083  159.2871 H   0  0  0  0  0  0  0  0  0  0  0  0  # atno 6907 bound_to 6896
  151.4592  135.1035  159.9729 H   0  0  0  0  0  0  0  0  0  0  0  0  # atno 6908 bound_to 6896
  152.4892  133.8406  159.7206 H   0  0  0  0  0  0  0  0  0  0  0  0  # atno 6909 bound_to 6896
  145.1823  139.3043  143.4411 H   0  0  0  0  0  0  0  0  0  0  0  0  # atno 7974 bound_to 7965
  156.1560  140.3150  155.8727 H   0  0  0  0  0  0  0  0  0  0  0  0  # atno 8008 bound_to 7997
  155.3877  140.0491  157.3059 H   0  0  0  0  0  0  0  0  0  0  0  0  # atno 8009 bound_to 7997
  154.5102  140.2161  155.9183 H   0  0  0  0  0  0  0  0  0  0  0  0  # atno 8010 bound_to 7997
  139.4830  144.4763  151.8507 H   0  0  0  0  0  0  0  0  0  0  0  0  # atno 10167 bound_to 10162
  156.7875  130.9506  151.3120 H   0  0  0  0  0  0  0  0  0  0  0  0  # atno 10718 bound_to 10713
  153.1341  135.6746  153.9131 H   0  0  0  0  0  0  0  0  0  0  0  0  # atno 10763 bound_to 10752
  153.8608  135.3081  155.3439 H   0  0  0  0  0  0  0  0  0  0  0  0  # atno 10764 bound_to 10752
  154.7733  135.4928  153.9774 H   0  0  0  0  0  0  0  0  0  0  0  0  # atno 10765 bound_to 10752
  140.6522  133.9394  155.8387 H   0  0  0  0  0  0  0  0  0  0  0  0  # atno 11005 bound_to 11000
  146.3451  140.2007  142.8589 LP  0  0  0  0  0  0  0  0  0  0  0  0  # atno 17320 bound_to 7965
  145.0123  140.8725  143.5216 LP  0  0  0  0  0  0  0  0  0  0  0  0  # atno 17321 bound_to 7965
  140.4235  144.2211  150.5887 LP  0  0  0  0  0  0  0  0  0  0  0  0  # atno 17342 bound_to 10162
  140.4850  143.2366  151.8901 LP  0  0  0  0  0  0  0  0  0  0  0  0  # atno 17343 bound_to 10162
  157.6617  130.8971  149.9843 LP  0  0  0  0  0  0  0  0  0  0  0  0  # atno 17370 bound_to 10713
  156.1180  130.3647  149.9936 LP  0  0  0  0  0  0  0  0  0  0  0  0  # atno 17371 bound_to 10713
  141.0528  134.0460  157.3761 LP  0  0  0  0  0  0  0  0  0  0  0  0  # atno 17394 bound_to 11000
  139.9042  135.0174  156.7409 LP  0  0  0  0  0  0  0  0  0  0  0  0  # atno 17395 bound_to 11000

$$$$
