AV-unprocessed.smi:653|AV-procd|sdf|3205|dock1
  -GOLD-   22720 0143D 1   1.00000     0.00000
 Structure written by MMmdl.
 44 45  0  0  0  0  0  0  0  0  1 V2000
  151.2731  145.7177  161.0838 C   0  0  0  0  0  0  0  0  0  0  0  0
  151.8367  144.3526  160.7481 C   0  0  0  0  0  0  0  0  0  0  0  0
  152.1319  143.4252  161.7693 C   0  0  0  0  0  0  0  0  0  0  0  0
  152.6488  142.1675  161.4042 C   0  0  0  0  0  0  0  0  0  0  0  0
  152.8496  141.8853  160.0369 C   0  0  0  0  0  0  0  0  0  0  0  0
  153.4012  140.5438  159.5910 C   0  0  0  0  0  0  0  0  0  0  0  0
  152.3107  139.7250  158.8995 C   0  0  0  0  0  0  0  0  0  0  0  0
  151.9976  138.6202  159.3433 O   0  0  0  0  0  0  0  0  0  0  0  0
  151.7436  140.2782  157.8161 N   0  0  0  0  0  0  0  0  0  0  0  0
  150.6725  139.6845  157.0209 C   0  0  0  0  0  0  0  0  0  0  0  0
  150.9886  139.7018  155.5045 C   0  0  1  0  0  0  0  0  0  0  0  0
  152.1772  138.8275  155.1282 C   0  0  0  0  0  0  0  0  0  0  0  0
  151.5550  137.4388  154.9747 C   0  0  0  0  0  0  0  0  0  0  0  0
  150.1587  137.6539  154.7855 O   0  0  0  0  0  0  0  0  0  0  0  0
  149.9088  139.0455  154.6248 C   0  0  1  0  0  0  0  0  0  0  0  0
  148.4324  139.3955  154.9209 C   0  0  0  0  0  0  0  0  0  0  0  0
  147.4841  138.6043  154.0054 C   0  0  0  0  0  0  0  0  0  0  0  0
  148.1628  140.9027  154.7732 C   0  0  0  0  0  0  0  0  0  0  0  0
  152.5210  142.8830  159.0946 C   0  0  0  0  0  0  0  0  0  0  0  0
  152.0246  144.0915  159.4354 N   0  0  0  0  0  0  0  0  0  0  0  0
  151.5653  146.0215  162.0894 H   0  0  0  0  0  0  0  0  0  0  0  0
  150.1842  145.6971  161.0340 H   0  0  0  0  0  0  0  0  0  0  0  0
  151.6355  146.4725  160.3849 H   0  0  0  0  0  0  0  0  0  0  0  0
  151.9650  143.6685  162.8084 H   0  0  0  0  0  0  0  0  0  0  0  0
  152.8831  141.4331  162.1608 H   0  0  0  0  0  0  0  0  0  0  0  0
  154.2495  140.6967  158.9218 H   0  0  0  0  0  0  0  0  0  0  0  0
  153.7761  139.9911  160.4534 H   0  0  0  0  0  0  0  0  0  0  0  0
  152.0697  141.1893  157.5277 H   0  0  0  0  0  0  0  0  0  0  0  0
  150.4427  138.6725  157.3582 H   0  0  0  0  0  0  0  0  0  0  0  0
  149.7808  140.2759  157.2242 H   0  0  0  0  0  0  0  0  0  0  0  0
  151.1607  140.7325  155.1917 H   0  0  0  0  0  0  0  0  0  0  0  0
  152.5748  139.1538  154.1662 H   0  0  0  0  0  0  0  0  0  0  0  0
  153.0022  138.8477  155.8388 H   0  0  0  0  0  0  0  0  0  0  0  0
  151.9852  136.8968  154.1324 H   0  0  0  0  0  0  0  0  0  0  0  0
  151.7004  136.8405  155.8746 H   0  0  0  0  0  0  0  0  0  0  0  0
  150.1198  139.2899  153.5815 H   0  0  0  0  0  0  0  0  0  0  0  0
  148.2000  139.1060  155.9459 H   0  0  0  0  0  0  0  0  0  0  0  0
  147.6628  138.8350  152.9544 H   0  0  0  0  0  0  0  0  0  0  0  0
  146.4416  138.8372  154.2242 H   0  0  0  0  0  0  0  0  0  0  0  0
  147.6101  137.5293  154.1362 H   0  0  0  0  0  0  0  0  0  0  0  0
  148.3741  141.2435  153.7590 H   0  0  0  0  0  0  0  0  0  0  0  0
  148.7752  141.4929  155.4541 H   0  0  0  0  0  0  0  0  0  0  0  0
  147.1204  141.1370  154.9908 H   0  0  0  0  0  0  0  0  0  0  0  0
  152.6582  142.7062  158.0378 H   0  0  0  0  0  0  0  0  0  0  0  0
  1  2  1  0  0  0  0
  1 21  1  0  0  0  0
  1 22  1  0  0  0  0
  1 23  1  0  0  0  0
  2 20  1  0  0  0  0
  2  3  2  0  0  0  0
  3  4  1  0  0  0  0
  3 24  1  0  0  0  0
  4  5  2  0  0  0  0
  4 25  1  0  0  0  0
  5  6  1  0  0  0  0
  5 19  1  0  0  0  0
  6  7  1  0  0  0  0
  6 26  1  0  0  0  0
  6 27  1  0  0  0  0
  7  8  2  0  0  0  0
  7  9  1  0  0  0  0
  9 10  1  0  0  0  0
  9 28  1  0  0  0  0
 10 11  1  0  0  0  0
 10 29  1  0  0  0  0
 10 30  1  0  0  0  0
 11 15  1  0  0  0  0
 11 12  1  0  0  0  0
 11 31  1  0  0  0  0
 12 13  1  0  0  0  0
 12 32  1  0  0  0  0
 12 33  1  0  0  0  0
 13 14  1  0  0  0  0
 13 34  1  0  0  0  0
 13 35  1  0  0  0  0
 14 15  1  0  0  0  0
 15 16  1  0  0  0  0
 15 36  1  0  0  0  0
 16 17  1  0  0  0  0
 16 18  1  0  0  0  0
 16 37  1  0  0  0  0
 17 38  1  0  0  0  0
 17 39  1  0  0  0  0
 17 40  1  0  0  0  0
 18 41  1  0  0  0  0
 18 42  1  0  0  0  0
 18 43  1  0  0  0  0
 19 20  2  0  0  0  0
 19 44  1  0  0  0  0
M  END
> <s_m_source_file>
AV-unprocessed.smi

> <i_m_source_file_index>
653

> <i_lp_mmshare_version>
43012

> <i_f3d_flags>
0

> <s_epik_input>
W0NIM11jMVtjSF1bY0hdYyhbY0hdbjEpW0NIMl1DKD1PKVtOSF1bQ0gyXVtDQEBIXTJbQ0gyXVtDSDJdT1tDQEhdMltDSF0oW0NIM10pW0NIM10=

> <s_epik_cmdline>
J2VwaWtfcHl0aG9uJywgJy1waCcsICc3LjAnLCAnLXRuJywgJzgnLCAnLW1hJywgJzIwMCcsICctbWV0YWxfYmluZGluZycsICctaW1hZScsICc8aW5maWxlLm1hZT4nLCAnLW9tYWUnLCAnPG91dGZpbGUubWFlPic=

> <r_epik_Ionization_Penalty>
0.0166429

> <r_epik_Ionization_Penalty_Charging>
0

> <r_epik_Ionization_Penalty_Neutral>
0.0166429

> <r_epik_State_Penalty>
0.0131478

> <r_epik_Charging_Adjusted_Penalty>
0.0131478

> <i_epik_Tot_Q>
0

> <i_epik_Tot_abs_Q>
0

> <r_epik_Metal_State_Penalty>
0.012786

> <b_epik_Metal_Only>
0

> <s_lp_Force_Field>
OPLS_2005

> <r_lp_Energy>
21.9695

> <b_lp_Chiralities_Consistent>
1

> <s_lp_Variant>
AV-unprocessed.smi:653-2

> <Gold.Version>
5.8.1

> <Gold.Id.Protein>
6NUR|6NUR_protein|mol2

> <Gold.PLP.Fitness>
44.0738

> <Gold.PLP.PLP>
-44.3014

> <Gold.PLP.part.hbond>
0.0000

> <Gold.PLP.part.metal>
0.0000

> <Gold.PLP.part.buried>
-0.9849

> <Gold.PLP.part.nonpolar>
-42.4644

> <Gold.PLP.part.repulsive>
0.2723

> <Gold.PLP.ligand.clash>
0.0000

> <Gold.PLP.ligand.torsion>
0.1675

> <Gold.PLP.Chemscore.Hbond>
0.0000

> <Gold.PLP.Chemscore.CHOScore>
0.0000

> <Gold.PLP.Chemscore.Metal>
0.0000

> <Gold.PLP.Chemscore.Internal.Correction>
0.1074

> <Gold.Rescore>
     Score         DG    S(hbond)    S(metal)    S(lipo)     H(rot)  DE(clash)    DE(int)     intcor
     15.51     -16.99       0.00        0.00     130.83       1.48       0.21       1.26       ----

> <Gold.Chemscore.Fitness>
15.5098

> <Gold.Chemscore.DG>
-16.9854

> <Gold.Chemscore.ZeroCoef>
-5.4800

> <Gold.Chemscore.Hbond>
0.0000

> <Gold.Chemscore.Metal>
0.0000

> <Gold.Chemscore.Lipo>
130.8282

> <Gold.Chemscore.Internal_Hbond>
0.0000

> <Gold.Chemscore.DEClash>
0.2117

> <Gold.Chemscore.DEInternal>
1.2638

> <Gold.Chemscore.Rot>
1.4850

> <Gold.Chemscore.Internal.Correction>
   9.000000E+99

> <Gold.Chemscore.Hbond.Weighted>
-0.0000

> <Gold.Chemscore.Metal.Weighted>
-0.0000

> <Gold.Chemscore.Lipo.Weighted>
-15.3069

> <Gold.Chemscore.Internal_Hbond.Weighted>
0.0000

> <Gold.Chemscore.DEClash.Weighted>
0.2117

> <Gold.Chemscore.DEInternal.Weighted>
1.2638

> <Gold.Chemscore.Rot.Weighted>
3.8015

> <Gold.Chemscore.Internal.Correction.Weighted>
   9.000000E+99

> <Gold.Protein.RotatedTorsions>
[ 6907 6896 6895 6894 ] final  177.63 input  -60.11 | X-H torsion
[ 7974 7965 7964 7962 ] final  -70.39 input  175.53 | X-H torsion
[ 8008 7997 7996 7995 ] final  -57.26 input   59.86 | X-H torsion
[ 10167 10162 10161 10158 ] final  163.79 input  -65.29 | X-H torsion
[ 10718 10713 10712 10709 ] final   92.59 input   66.30 | X-H torsion
[ 10763 10752 10751 10750 ] final   14.79 input  -60.55 | X-H torsion
[ 11005 11000 10999 10996 ] final  139.23 input  -57.11 | X-H torsion

> <Gold.Protein.ActiveResidues>
 VAL166  LYS551  ARG553  GLY616  TRP617  ASP618  TYR619  PRO620  LYS621  CYS622 
 ASP623  PHE694  ASN695  SER759  ASP760  ASP761  ALA762  ILE779  LEU786  VAL792 
 PHE793  MET794  SER795  GLU796  ALA797  LYS798  CYS799  TRP800  GLU811  SER814 

> <Gold.Protein.RotatedAtoms>
  151.7009  133.3311  159.3266 H   0  0  0  0  0  0  0  0  0  0  0  0  # atno 6907 bound_to 6896
  150.7736  134.6616  159.6352 H   0  0  0  0  0  0  0  0  0  0  0  0  # atno 6908 bound_to 6896
  152.3770  134.6651  160.0208 H   0  0  0  0  0  0  0  0  0  0  0  0  # atno 6909 bound_to 6896
  145.6916  140.9151  143.0779 H   0  0  0  0  0  0  0  0  0  0  0  0  # atno 7974 bound_to 7965
  154.4261  140.1111  156.5770 H   0  0  0  0  0  0  0  0  0  0  0  0  # atno 8008 bound_to 7997
  155.6152  140.3494  155.4616 H   0  0  0  0  0  0  0  0  0  0  0  0  # atno 8009 bound_to 7997
  156.0067  140.1210  157.0483 H   0  0  0  0  0  0  0  0  0  0  0  0  # atno 8010 bound_to 7997
  139.4879  144.4302  151.9080 H   0  0  0  0  0  0  0  0  0  0  0  0  # atno 10167 bound_to 10162
  157.6958  131.0449  150.3905 H   0  0  0  0  0  0  0  0  0  0  0  0  # atno 10718 bound_to 10713
  153.1587  135.6792  153.8774 H   0  0  0  0  0  0  0  0  0  0  0  0  # atno 10763 bound_to 10752
  153.8176  135.3134  155.3408 H   0  0  0  0  0  0  0  0  0  0  0  0  # atno 10764 bound_to 10752
  154.7917  135.4831  154.0156 H   0  0  0  0  0  0  0  0  0  0  0  0  # atno 10765 bound_to 10752
  140.0240  134.9383  157.0531 H   0  0  0  0  0  0  0  0  0  0  0  0  # atno 11005 bound_to 11000
  144.6995  139.8829  143.7448 LP  0  0  0  0  0  0  0  0  0  0  0  0  # atno 17320 bound_to 7965
  146.0877  139.3866  143.0425 LP  0  0  0  0  0  0  0  0  0  0  0  0  # atno 17321 bound_to 7965
  140.3749  144.2809  150.5915 LP  0  0  0  0  0  0  0  0  0  0  0  0  # atno 17342 bound_to 10162
  140.5286  143.2248  151.8275 LP  0  0  0  0  0  0  0  0  0  0  0  0  # atno 17343 bound_to 10162
  156.4309  130.3972  149.6761 LP  0  0  0  0  0  0  0  0  0  0  0  0  # atno 17370 bound_to 10713
  156.3978  130.7659  151.2665 LP  0  0  0  0  0  0  0  0  0  0  0  0  # atno 17371 bound_to 10713
  140.4339  134.1752  155.7169 LP  0  0  0  0  0  0  0  0  0  0  0  0  # atno 17394 bound_to 11000
  141.1791  133.8451  157.1320 LP  0  0  0  0  0  0  0  0  0  0  0  0  # atno 17395 bound_to 11000

$$$$
