AV-unprocessed.smi:3158|AV-procd|sdf|12041|dock4
  -GOLD-   2272017463D 1   1.00000     0.00000
 Structure written by MMmdl.
 40 40  0  0  0  0  0  0  0  0  2 V2000
  142.9368  134.5954  152.7027 C   0  0  0  0  0  0  0  0  0  0  0  0
  143.8673  135.7804  152.4045 C   0  0  0  0  0  0  0  0  0  0  0  0
  143.7334  136.9406  153.4084 C   0  0  2  0  0  0  0  0  0  0  0  0
  142.3359  137.5777  153.3549 C   0  0  0  0  0  0  0  0  0  0  0  0
  144.7547  137.9527  153.1476 N   0  0  0  0  0  0  0  0  0  0  0  0
  146.0798  137.7675  153.2521 C   0  0  0  0  0  0  0  0  0  0  0  0
  146.5889  136.6991  153.5941 O   0  0  0  0  0  0  0  0  0  0  0  0
  146.9644  138.9748  152.9084 C   0  0  2  0  0  0  0  0  0  0  0  0
  146.6788  139.4425  151.4730 C   0  0  0  0  0  0  0  0  0  0  0  0
  148.4030  138.6590  153.0541 N   0  3  0  0  0  0  0  0  0  0  0  0
  148.9958  139.0062  154.3648 C   0  0  0  0  0  0  0  0  0  0  0  0
  149.4087  140.4847  154.4187 C   0  0  0  0  0  0  0  0  0  0  0  0
  150.2528  140.7670  155.5655 N   0  0  0  0  0  0  0  0  0  0  0  0
  151.4781  140.2201  155.8833 C   0  0  0  0  0  0  0  0  0  0  0  0
  151.8966  140.8082  157.0423 C   0  0  0  0  0  0  0  0  0  0  0  0
  150.8459  141.7131  157.3613 C   0  0  0  0  0  0  0  0  0  0  0  0
  149.8645  141.6884  156.4738 N   0  0  0  0  0  0  0  0  0  0  0  0
  143.0381  133.8235  151.9398 H   0  0  0  0  0  0  0  0  0  0  0  0
  141.8931  134.9104  152.7185 H   0  0  0  0  0  0  0  0  0  0  0  0
  143.1637  134.1371  153.6655 H   0  0  0  0  0  0  0  0  0  0  0  0
  144.8999  135.4295  152.3787 H   0  0  0  0  0  0  0  0  0  0  0  0
  143.6485  136.1488  151.4015 H   0  0  0  0  0  0  0  0  0  0  0  0
  143.8819  136.5314  154.4093 H   0  0  0  0  0  0  0  0  0  0  0  0
  141.5610  136.8397  153.5641 H   0  0  0  0  0  0  0  0  0  0  0  0
  142.1309  138.0048  152.3726 H   0  0  0  0  0  0  0  0  0  0  0  0
  142.2351  138.3740  154.0928 H   0  0  0  0  0  0  0  0  0  0  0  0
  144.4242  138.8606  152.8538 H   0  0  0  0  0  0  0  0  0  0  0  0
  146.7254  139.7952  153.5877 H   0  0  0  0  0  0  0  0  0  0  0  0
  145.6302  139.7146  151.3442 H   0  0  0  0  0  0  0  0  0  0  0  0
  146.9124  138.6651  150.7439 H   0  0  0  0  0  0  0  0  0  0  0  0
  147.2747  140.3206  151.2225 H   0  0  0  0  0  0  0  0  0  0  0  0
  148.5225  137.6674  152.8980 H   0  0  0  0  0  0  0  0  0  0  0  0
  148.2658  138.7956  155.1470 H   0  0  0  0  0  0  0  0  0  0  0  0
  149.8655  138.3797  154.5665 H   0  0  0  0  0  0  0  0  0  0  0  0
  149.9306  140.7762  153.5057 H   0  0  0  0  0  0  0  0  0  0  0  0
  148.5216  141.1155  154.4870 H   0  0  0  0  0  0  0  0  0  0  0  0
  151.9467  139.4692  155.2642 H   0  0  0  0  0  0  0  0  0  0  0  0
  152.8141  140.6212  157.5806 H   0  0  0  0  0  0  0  0  0  0  0  0
  150.7687  142.3837  158.2045 H   0  0  0  0  0  0  0  0  0  0  0  0
  148.9155  139.1588  152.3419 H   0  0  0  0  0  0  0  0  0  0  0  0
  1  2  1  0  0  0  0
  1 18  1  0  0  0  0
  1 19  1  0  0  0  0
  1 20  1  0  0  0  0
  2  3  1  0  0  0  0
  2 21  1  0  0  0  0
  2 22  1  0  0  0  0
  3  4  1  0  0  0  0
  3  5  1  0  0  0  0
  3 23  1  0  0  0  0
  4 24  1  0  0  0  0
  4 25  1  0  0  0  0
  4 26  1  0  0  0  0
  5  6  1  0  0  0  0
  5 27  1  0  0  0  0
  6  7  2  0  0  0  0
  6  8  1  0  0  0  0
  8  9  1  0  0  0  0
  8 10  1  0  0  0  0
  8 28  1  0  0  0  0
  9 29  1  0  0  0  0
  9 30  1  0  0  0  0
  9 31  1  0  0  0  0
 10 11  1  0  0  0  0
 10 32  1  0  0  0  0
 10 40  1  0  0  0  0
 11 12  1  0  0  0  0
 11 33  1  0  0  0  0
 11 34  1  0  0  0  0
 12 13  1  0  0  0  0
 12 35  1  0  0  0  0
 12 36  1  0  0  0  0
 13 17  1  0  0  0  0
 13 14  1  0  0  0  0
 14 15  2  0  0  0  0
 14 37  1  0  0  0  0
 15 16  1  0  0  0  0
 15 38  1  0  0  0  0
 16 17  2  0  0  0  0
 16 39  1  0  0  0  0
M  CHG  1  10   1
M  END
> <s_m_source_file>
AV-unprocessed.smi

> <i_m_source_file_index>
3158

> <i_lp_mmshare_version>
43012

> <i_f3d_flags>
0

> <s_epik_input>
W0NIM11bQ0gyXVtDQEhdKFtDSDNdKVtOSF1DKD1PKVtDQEhdKFtDSDNdKVtOSF1bQ0gyXVtDSDJdbjFbY0hdW2NIXVtjSF1uMQ==

> <s_epik_cmdline>
J2VwaWtfcHl0aG9uJywgJy1waCcsICc3LjAnLCAnLXRuJywgJzgnLCAnLW1hJywgJzIwMCcsICctbWV0YWxfYmluZGluZycsICctaW1hZScsICc8aW5maWxlLm1hZT4nLCAnLW9tYWUnLCAnPG91dGZpbGUubWFlPic=

> <r_lp_tautomer_probability>
1

> <r_epik_Ionization_Penalty>
0.20724

> <r_epik_Ionization_Penalty_Charging>
0.207237

> <r_epik_Ionization_Penalty_Neutral>
3.33806e-06

> <r_epik_State_Penalty>
0.197234

> <r_epik_Charging_Adjusted_Penalty>
0.404471

> <i_epik_Tot_Q>
1

> <i_epik_Tot_abs_Q>
1

> <r_epik_Metal_State_Penalty>
0.197524

> <b_epik_Metal_Only>
0

> <s_lp_Force_Field>
OPLS_2005

> <r_lp_Energy>
5.42496

> <b_lp_Chiralities_Consistent>
1

> <s_lp_Variant>
AV-unprocessed.smi:3158-1

> <Gold.Version>
5.8.1

> <Gold.Id.Protein>
6NUR|6NUR_protein|mol2

> <Gold.PLP.Fitness>
43.1292

> <Gold.PLP.PLP>
-32.3988

> <Gold.PLP.part.hbond>
-3.0000

> <Gold.PLP.part.metal>
0.0000

> <Gold.PLP.part.buried>
-1.5249

> <Gold.PLP.part.nonpolar>
-28.2610

> <Gold.PLP.part.repulsive>
1.0509

> <Gold.PLP.ligand.clash>
0.0000

> <Gold.PLP.ligand.torsion>
0.6944

> <Gold.PLP.Chemscore.Hbond>
4.0000

> <Gold.PLP.Chemscore.CHOScore>
0.0000

> <Gold.PLP.Chemscore.Metal>
0.0000

> <Gold.Chemscore.Hbonds>
donor molecule, donor type, donor heavy atom, donor atom, acceptor molecule, acceptor atom, score
      L1  H     5    27       P1 10175  1.00
      L1  H    10    32       P1  7948  2.00
      L1  H    10    40       P1  7957  1.00

> <Gold.PLP.Chemscore.Internal.Correction>
0.1191

> <Gold.Rescore>
     Score         DG    S(hbond)    S(metal)    S(lipo)     H(rot)  DE(clash)    DE(int)     intcor
     16.39     -17.70       2.99        0.00      67.58       2.21       0.64       0.66       ----

> <Gold.Chemscore.Fitness>
16.3898

> <Gold.Chemscore.DG>
-17.6970

> <Gold.Chemscore.ZeroCoef>
-5.4800

> <Gold.Chemscore.Hbond>
2.9868

> <Gold.Chemscore.Metal>
0.0000

> <Gold.Chemscore.Lipo>
67.5805

> <Gold.Chemscore.Internal_Hbond>
0.0000

> <Gold.Chemscore.DEClash>
0.6421

> <Gold.Chemscore.DEInternal>
0.6650

> <Gold.Chemscore.Rot>
2.2132

> <Gold.Chemscore.Internal.Correction>
   9.000000E+99

> <Gold.Chemscore.Hbonds>
donor molecule, donor type, donor heavy atom, donor atom, acceptor molecule, acceptor atom, score
      L1  H     5    27       P1 10175  1.00
      L1  H    10    32       P1  7948  0.95
      L1  H    10    40       P1  7957  0.99

> <Gold.Chemscore.Hbond.Weighted>
-9.9758

> <Gold.Chemscore.Metal.Weighted>
-0.0000

> <Gold.Chemscore.Lipo.Weighted>
-7.9069

> <Gold.Chemscore.Internal_Hbond.Weighted>
0.0000

> <Gold.Chemscore.DEClash.Weighted>
0.6421

> <Gold.Chemscore.DEInternal.Weighted>
0.6650

> <Gold.Chemscore.Rot.Weighted>
5.6658

> <Gold.Chemscore.Internal.Correction.Weighted>
   9.000000E+99

> <Gold.Protein.RotatedTorsions>
[ 6907 6896 6895 6894 ] final   -6.85 input  -60.11 | X-H torsion
[ 7974 7965 7964 7962 ] final   51.53 input  175.53 | X-H torsion
[ 8008 7997 7996 7995 ] final   77.47 input   59.86 | X-H torsion
[ 10167 10162 10161 10158 ] final  174.47 input  -65.29 | X-H torsion
[ 10718 10713 10712 10709 ] final -162.83 input   66.30 | X-H torsion
[ 10763 10752 10751 10750 ] final  -14.50 input  -60.55 | X-H torsion
[ 11005 11000 10999 10996 ] final  -77.83 input  -57.11 | X-H torsion

> <Gold.Protein.ActiveResidues>
 VAL166  LYS551  ARG553  GLY616  TRP617  ASP618  TYR619  PRO620  LYS621  CYS622 
 ASP623  PHE694  ASN695  SER759  ASP760  ASP761  ALA762  ILE779  LEU786  VAL792 
 PHE793  MET794  SER795  GLU796  ALA797  LYS798  CYS799  TRP800  GLU811  SER814 

> <Gold.Protein.RotatedAtoms>
  151.4589  135.1036  159.9718 H   0  0  0  0  0  0  0  0  0  0  0  0  # atno 6907 bound_to 6896
  152.4860  133.8370  159.7143 H   0  0  0  0  0  0  0  0  0  0  0  0  # atno 6908 bound_to 6896
  150.8970  133.7107  159.2916 H   0  0  0  0  0  0  0  0  0  0  0  0  # atno 6909 bound_to 6896
  145.9904  139.4333  143.0077 H   0  0  0  0  0  0  0  0  0  0  0  0  # atno 7974 bound_to 7965
  155.8421  140.3462  155.5638 H   0  0  0  0  0  0  0  0  0  0  0  0  # atno 8008 bound_to 7997
  155.8129  140.0901  157.1913 H   0  0  0  0  0  0  0  0  0  0  0  0  # atno 8009 bound_to 7997
  154.4005  140.1444  156.3396 H   0  0  0  0  0  0  0  0  0  0  0  0  # atno 8010 bound_to 7997
  139.5143  144.3142  152.0263 H   0  0  0  0  0  0  0  0  0  0  0  0  # atno 10167 bound_to 10162
  156.6160  130.8870  151.2947 H   0  0  0  0  0  0  0  0  0  0  0  0  # atno 10718 bound_to 10713
  153.5292  135.7015  153.5692 H   0  0  0  0  0  0  0  0  0  0  0  0  # atno 10763 bound_to 10752
  153.3707  135.3945  155.1786 H   0  0  0  0  0  0  0  0  0  0  0  0  # atno 10764 bound_to 10752
  154.8686  135.3811  154.4787 H   0  0  0  0  0  0  0  0  0  0  0  0  # atno 10765 bound_to 10752
  141.1662  133.7038  156.7880 H   0  0  0  0  0  0  0  0  0  0  0  0  # atno 11005 bound_to 11000
  145.7639  140.9924  143.1185 LP  0  0  0  0  0  0  0  0  0  0  0  0  # atno 17320 bound_to 7965
  144.6887  139.9364  143.7473 LP  0  0  0  0  0  0  0  0  0  0  0  0  # atno 17321 bound_to 7965
  140.2586  144.4092  150.6194 LP  0  0  0  0  0  0  0  0  0  0  0  0  # atno 17342 bound_to 10162
  140.6174  143.2173  151.6765 LP  0  0  0  0  0  0  0  0  0  0  0  0  # atno 17343 bound_to 10162
  157.7241  130.9598  150.1560 LP  0  0  0  0  0  0  0  0  0  0  0  0  # atno 17370 bound_to 10713
  156.2351  130.3685  149.8401 LP  0  0  0  0  0  0  0  0  0  0  0  0  # atno 17371 bound_to 10713
  140.2346  134.8660  157.3512 LP  0  0  0  0  0  0  0  0  0  0  0  0  # atno 17394 bound_to 11000
  140.1856  134.4435  155.7745 LP  0  0  0  0  0  0  0  0  0  0  0  0  # atno 17395 bound_to 11000

$$$$
