AV-unprocessed.smi:2061|AV-procd|sdf|8370|dock1
  -GOLD-   2272011 43D 1   1.00000     0.00000
 Structure written by MMmdl.
 46 47  0  0  0  0  0  0  0  0  2 V2000
  138.0847  137.1919  153.8138 C   0  0  0  0  0  0  0  0  0  0  0  0
  139.5445  137.3134  154.0870 C   0  0  0  0  0  0  0  0  0  0  0  0
  140.4868  138.2326  153.7197 C   0  0  0  0  0  0  0  0  0  0  0  0
  141.6706  137.7369  154.3276 C   0  0  0  0  0  0  0  0  0  0  0  0
  142.9044  138.4219  154.1861 N   0  0  0  0  0  0  0  0  0  0  0  0
  144.0896  138.0897  154.7254 C   0  0  0  0  0  0  0  0  0  0  0  0
  144.2988  137.1009  155.4288 O   0  0  0  0  0  0  0  0  0  0  0  0
  145.0400  138.9808  154.4085 N   0  0  0  0  0  0  0  0  0  0  0  0
  146.4271  138.9073  154.8579 C   0  0  0  0  0  0  0  0  0  0  0  0
  147.2012  140.2374  154.6578 C   0  0  2  0  0  0  0  0  0  0  0  0
  147.1114  140.6885  153.1798 C   0  0  0  0  0  0  0  0  0  0  0  0
  148.6057  140.0945  155.1627 N   0  3  1  0  0  0  0  0  0  0  0  0
  149.4598  139.1101  154.4449 C   0  0  0  0  0  0  0  0  0  0  0  0
  150.8438  138.9905  155.1106 C   0  0  1  0  0  0  0  0  0  0  0  0
  151.7760  138.0556  154.3314 C   0  0  0  0  0  0  0  0  0  0  0  0
  151.4636  140.2702  155.1728 O   0  0  0  0  0  0  0  0  0  0  0  0
  150.7097  141.2610  155.8670 C   0  0  2  0  0  0  0  0  0  0  0  0
  150.6737  141.0184  157.3864 C   0  0  0  0  0  0  0  0  0  0  0  0
  149.3140  141.4010  155.2317 C   0  0  0  0  0  0  0  0  0  0  0  0
  141.4696  136.6171  155.0051 N   0  0  0  0  0  0  0  0  0  0  0  0
  140.1059  136.3398  154.8541 O   0  0  0  0  0  0  0  0  0  0  0  0
  137.7556  137.9552  153.1086 H   0  0  0  0  0  0  0  0  0  0  0  0
  137.5095  137.3089  154.7322 H   0  0  0  0  0  0  0  0  0  0  0  0
  137.8504  136.2159  153.3888 H   0  0  0  0  0  0  0  0  0  0  0  0
  140.3474  139.1159  153.1145 H   0  0  0  0  0  0  0  0  0  0  0  0
  142.8778  139.2595  153.6235 H   0  0  0  0  0  0  0  0  0  0  0  0
  144.7871  139.7645  153.8243 H   0  0  0  0  0  0  0  0  0  0  0  0
  146.4285  138.5855  155.8987 H   0  0  0  0  0  0  0  0  0  0  0  0
  146.9171  138.1096  154.2986 H   0  0  0  0  0  0  0  0  0  0  0  0
  146.7216  141.0190  155.2491 H   0  0  0  0  0  0  0  0  0  0  0  0
  146.0776  140.7580  152.8423 H   0  0  0  0  0  0  0  0  0  0  0  0
  147.6239  139.9906  152.5168 H   0  0  0  0  0  0  0  0  0  0  0  0
  147.5369  141.6807  153.0291 H   0  0  0  0  0  0  0  0  0  0  0  0
  149.0071  138.1194  154.4603 H   0  0  0  0  0  0  0  0  0  0  0  0
  149.5623  139.4091  153.4004 H   0  0  0  0  0  0  0  0  0  0  0  0
  150.7311  138.5879  156.1175 H   0  0  0  0  0  0  0  0  0  0  0  0
  151.3563  137.0519  154.2580 H   0  0  0  0  0  0  0  0  0  0  0  0
  152.7456  137.9736  154.8231 H   0  0  0  0  0  0  0  0  0  0  0  0
  151.9468  138.4218  153.3185 H   0  0  0  0  0  0  0  0  0  0  0  0
  151.2386  142.2020  155.7123 H   0  0  0  0  0  0  0  0  0  0  0  0
  150.2093  141.8605  157.9001 H   0  0  0  0  0  0  0  0  0  0  0  0
  151.6818  140.9056  157.7857 H   0  0  0  0  0  0  0  0  0  0  0  0
  150.1062  140.1268  157.6517 H   0  0  0  0  0  0  0  0  0  0  0  0
  149.4180  141.7983  154.2206 H   0  0  0  0  0  0  0  0  0  0  0  0
  148.7410  142.1383  155.7915 H   0  0  0  0  0  0  0  0  0  0  0  0
  148.5288  139.7497  156.1089 H   0  0  0  0  0  0  0  0  0  0  0  0
  1  2  1  0  0  0  0
  1 22  1  0  0  0  0
  1 23  1  0  0  0  0
  1 24  1  0  0  0  0
  2 21  1  0  0  0  0
  2  3  2  0  0  0  0
  3  4  1  0  0  0  0
  3 25  1  0  0  0  0
  4  5  1  0  0  0  0
  4 20  2  0  0  0  0
  5  6  1  0  0  0  0
  5 26  1  0  0  0  0
  6  7  2  0  0  0  0
  6  8  1  0  0  0  0
  8  9  1  0  0  0  0
  8 27  1  0  0  0  0
  9 10  1  0  0  0  0
  9 28  1  0  0  0  0
  9 29  1  0  0  0  0
 10 11  1  0  0  0  0
 10 12  1  0  0  0  0
 10 30  1  0  0  0  0
 11 31  1  0  0  0  0
 11 32  1  0  0  0  0
 11 33  1  0  0  0  0
 12 19  1  0  0  0  0
 12 13  1  0  0  0  0
 12 46  1  0  0  0  0
 13 14  1  0  0  0  0
 13 34  1  0  0  0  0
 13 35  1  0  0  0  0
 14 15  1  0  0  0  0
 14 16  1  0  0  0  0
 14 36  1  0  0  0  0
 15 37  1  0  0  0  0
 15 38  1  0  0  0  0
 15 39  1  0  0  0  0
 16 17  1  0  0  0  0
 17 18  1  0  0  0  0
 17 19  1  0  0  0  0
 17 40  1  0  0  0  0
 18 41  1  0  0  0  0
 18 42  1  0  0  0  0
 18 43  1  0  0  0  0
 19 44  1  0  0  0  0
 19 45  1  0  0  0  0
 20 21  1  0  0  0  0
M  CHG  1  12   1
M  END
> <s_m_source_file>
AV-unprocessed.smi

> <i_m_source_file_index>
2061

> <i_lp_mmshare_version>
43012

> <i_f3d_flags>
0

> <s_epik_input>
W0NIM11jMVtjSF1jKG5vMSlbTkhdQyg9TylbTkhdW0NIMl1bQ0BIXShbQ0gzXSlOMltDSDJdW0NAQEhdKFtDSDNdKU9bQ0BASF0oW0NIM10pW0NIMl0y

> <s_epik_cmdline>
J2VwaWtfcHl0aG9uJywgJy1waCcsICc3LjAnLCAnLXRuJywgJzgnLCAnLW1hJywgJzIwMCcsICctbWV0YWxfYmluZGluZycsICctaW1hZScsICc8aW5maWxlLm1hZT4nLCAnLW9tYWUnLCAnPG91dGZpbGUubWFlPic=

> <r_epik_Ionization_Penalty>
0.707076

> <r_epik_Ionization_Penalty_Charging>
0.707039

> <r_epik_Ionization_Penalty_Neutral>
3.6548e-05

> <r_epik_State_Penalty>
0.730276

> <r_epik_Charging_Adjusted_Penalty>
1.43732

> <i_epik_Tot_Q>
1

> <i_epik_Tot_abs_Q>
1

> <r_epik_Metal_State_Penalty>
0.743132

> <b_epik_Metal_Only>
0

> <s_lp_Force_Field>
OPLS_2005

> <r_lp_Energy>
19.8294

> <b_lp_Chiralities_Consistent>
1

> <s_lp_Variant>
AV-unprocessed.smi:2061-11

> <Gold.Version>
5.8.1

> <Gold.Id.Protein>
6NUR|6NUR_protein|mol2

> <Gold.PLP.Fitness>
46.4753

> <Gold.PLP.PLP>
-34.8195

> <Gold.PLP.part.hbond>
-4.4678

> <Gold.PLP.part.metal>
0.0000

> <Gold.PLP.part.buried>
-6.4282

> <Gold.PLP.part.nonpolar>
-24.6582

> <Gold.PLP.part.repulsive>
0.1586

> <Gold.PLP.ligand.clash>
0.0000

> <Gold.PLP.ligand.torsion>
0.1472

> <Gold.PLP.Chemscore.Hbond>
3.9680

> <Gold.PLP.Chemscore.CHOScore>
0.0000

> <Gold.PLP.Chemscore.Metal>
0.0000

> <Gold.Chemscore.Hbonds>
donor molecule, donor type, donor heavy atom, donor atom, acceptor molecule, acceptor atom, score
      L1  H     5    26       P1 10175  1.00
      L1  H     8    27       P1 10175  0.98
      P1  H  7989  7998       L1    16  0.99
      P1  H 11000 11005       L1    21  1.00

> <Gold.PLP.Chemscore.Internal.Correction>
0.0461

> <Gold.Rescore>
     Score         DG    S(hbond)    S(metal)    S(lipo)     H(rot)  DE(clash)    DE(int)     intcor
     18.92     -20.36       2.95        0.00      77.70       1.58       0.05       1.40       ----

> <Gold.Chemscore.Fitness>
18.9211

> <Gold.Chemscore.DG>
-20.3642

> <Gold.Chemscore.ZeroCoef>
-5.4800

> <Gold.Chemscore.Hbond>
2.9480

> <Gold.Chemscore.Metal>
0.0000

> <Gold.Chemscore.Lipo>
77.7050

> <Gold.Chemscore.Internal_Hbond>
0.0000

> <Gold.Chemscore.DEClash>
0.0480

> <Gold.Chemscore.DEInternal>
1.3951

> <Gold.Chemscore.Rot>
1.5834

> <Gold.Chemscore.Internal.Correction>
   9.000000E+99

> <Gold.Chemscore.Hbonds>
donor molecule, donor type, donor heavy atom, donor atom, acceptor molecule, acceptor atom, score
      L1  H     5    26       P1 10175  0.97
      L1  H     8    27       P1 10175  0.92
      P1  H  7989  7998       L1    16  0.34
      P1  H 11000 11005       L1    21  0.24

> <Gold.Chemscore.Hbond.Weighted>
-9.8462

> <Gold.Chemscore.Metal.Weighted>
-0.0000

> <Gold.Chemscore.Lipo.Weighted>
-9.0915

> <Gold.Chemscore.Internal_Hbond.Weighted>
0.0000

> <Gold.Chemscore.DEClash.Weighted>
0.0480

> <Gold.Chemscore.DEInternal.Weighted>
1.3951

> <Gold.Chemscore.Rot.Weighted>
4.0535

> <Gold.Chemscore.Internal.Correction.Weighted>
   9.000000E+99

> <Gold.Protein.RotatedTorsions>
[ 6907 6896 6895 6894 ] final  174.25 input  -60.11 | X-H torsion
[ 7974 7965 7964 7962 ] final  -61.22 input  175.53 | X-H torsion
[ 8008 7997 7996 7995 ] final   98.56 input   59.86 | X-H torsion
[ 10167 10162 10161 10158 ] final  -90.14 input  -65.29 | X-H torsion
[ 10718 10713 10712 10709 ] final  127.23 input   66.30 | X-H torsion
[ 10763 10752 10751 10750 ] final   95.02 input  -60.55 | X-H torsion
[ 11005 11000 10999 10996 ] final   78.42 input  -57.11 | X-H torsion

> <Gold.Protein.ActiveResidues>
 VAL166  LYS551  ARG553  GLY616  TRP617  ASP618  TYR619  PRO620  LYS621  CYS622 
 ASP623  PHE694  ASN695  SER759  ASP760  ASP761  ALA762  ILE779  LEU786  VAL792 
 PHE793  MET794  SER795  GLU796  ALA797  LYS798  CYS799  TRP800  GLU811  SER814 

> <Gold.Protein.RotatedAtoms>
  151.7554  133.3330  159.3402 H   0  0  0  0  0  0  0  0  0  0  0  0  # atno 6907 bound_to 6896
  150.7519  134.6154  159.6117 H   0  0  0  0  0  0  0  0  0  0  0  0  # atno 6908 bound_to 6896
  152.3441  134.7097  160.0307 H   0  0  0  0  0  0  0  0  0  0  0  0  # atno 6909 bound_to 6896
  145.8061  140.8626  143.0206 H   0  0  0  0  0  0  0  0  0  0  0  0  # atno 7974 bound_to 7965
  156.1017  140.3242  155.7950 H   0  0  0  0  0  0  0  0  0  0  0  0  # atno 8008 bound_to 7997
  155.4826  140.0555  157.2982 H   0  0  0  0  0  0  0  0  0  0  0  0  # atno 8009 bound_to 7997
  154.4701  140.2007  156.0032 H   0  0  0  0  0  0  0  0  0  0  0  0  # atno 8010 bound_to 7997
  140.3578  143.2857  151.9650 H   0  0  0  0  0  0  0  0  0  0  0  0  # atno 10167 bound_to 10162
  157.5350  131.1098  150.8949 H   0  0  0  0  0  0  0  0  0  0  0  0  # atno 10718 bound_to 10713
  153.2483  135.4269  155.0771 H   0  0  0  0  0  0  0  0  0  0  0  0  # atno 10763 bound_to 10752
  154.8371  135.3419  154.6549 H   0  0  0  0  0  0  0  0  0  0  0  0  # atno 10764 bound_to 10752
  153.6971  135.7030  153.5130 H   0  0  0  0  0  0  0  0  0  0  0  0  # atno 10765 bound_to 10752
  139.9213  134.7762  156.1647 H   0  0  0  0  0  0  0  0  0  0  0  0  # atno 11005 bound_to 11000
  144.6763  140.0329  143.7482 LP  0  0  0  0  0  0  0  0  0  0  0  0  # atno 17320 bound_to 7965
  145.9826  139.2953  143.1032 LP  0  0  0  0  0  0  0  0  0  0  0  0  # atno 17321 bound_to 7965
  139.4818  144.6019  151.7590 LP  0  0  0  0  0  0  0  0  0  0  0  0  # atno 17342 bound_to 10162
  140.5156  144.0958  150.6007 LP  0  0  0  0  0  0  0  0  0  0  0  0  # atno 17343 bound_to 10162
  156.9519  130.5423  149.5283 LP  0  0  0  0  0  0  0  0  0  0  0  0  # atno 17370 bound_to 10713
  156.0452  130.5529  150.8864 LP  0  0  0  0  0  0  0  0  0  0  0  0  # atno 17371 bound_to 10713
  141.0736  133.6785  156.2191 LP  0  0  0  0  0  0  0  0  0  0  0  0  # atno 17394 bound_to 11000
  140.6465  134.5111  157.5574 LP  0  0  0  0  0  0  0  0  0  0  0  0  # atno 17395 bound_to 11000

$$$$
