AV-unprocessed.smi:1289|AV-procd|sdf|5388|dock2
  -GOLD-   22720 4543D 1   1.00000     0.00000
 Structure written by MMmdl.
 38 40  0  0  0  0  0  0  0  0  2 V2000
  155.0600  131.3338  163.6778 N   0  0  0  0  0  0  0  0  0  0  0  0
  155.0176  132.4836  163.5550 C   0  0  0  0  0  0  0  0  0  0  0  0
  154.9640  133.9277  163.4011 C   0  0  0  0  0  0  0  0  0  0  0  0
  154.7602  134.7522  164.5249 C   0  0  0  0  0  0  0  0  0  0  0  0
  154.7031  136.1509  164.3717 C   0  0  0  0  0  0  0  0  0  0  0  0
  154.8481  136.7458  163.1016 C   0  0  0  0  0  0  0  0  0  0  0  0
  154.7714  138.1208  163.0427 O   0  0  0  0  0  0  0  0  0  0  0  0
  154.7679  138.7407  161.7635 C   0  0  0  0  0  0  0  0  0  0  0  0
  154.6515  140.2614  161.9451 C   0  0  1  0  0  0  0  0  0  0  0  0
  155.9554  140.8072  161.9759 O   0  0  0  0  0  0  0  0  0  0  0  0
  153.8245  140.9211  160.8231 C   0  0  0  0  0  0  0  0  0  0  0  0
  153.1721  142.1676  161.2486 N   0  0  0  0  0  0  0  0  0  0  0  0
  152.9758  142.6598  162.5016 C   0  0  0  0  0  0  0  0  0  0  0  0
  152.3182  143.8462  162.3802 N   0  3  0  0  0  0  0  0  0  0  0  0
  152.0920  144.1178  161.0291 C   0  0  0  0  0  0  0  0  0  0  0  0
  151.4661  145.1950  160.4091 C   0  0  0  0  0  0  0  0  0  0  0  0
  151.4055  145.1666  159.0003 C   0  0  0  0  0  0  0  0  0  0  0  0
  151.9551  144.0979  158.2628 C   0  0  0  0  0  0  0  0  0  0  0  0
  152.5864  143.0107  158.9020 C   0  0  0  0  0  0  0  0  0  0  0  0
  152.6403  143.0443  160.2953 C   0  0  0  0  0  0  0  0  0  0  0  0
  155.0593  135.9094  161.9761 C   0  0  0  0  0  0  0  0  0  0  0  0
  155.1146  134.5099  162.1270 C   0  0  0  0  0  0  0  0  0  0  0  0
  154.6449  134.3187  165.5080 H   0  0  0  0  0  0  0  0  0  0  0  0
  154.5441  136.7742  165.2394 H   0  0  0  0  0  0  0  0  0  0  0  0
  155.6980  138.4988  161.2461 H   0  0  0  0  0  0  0  0  0  0  0  0
  153.9379  138.3770  161.1553 H   0  0  0  0  0  0  0  0  0  0  0  0
  154.1879  140.4721  162.9096 H   0  0  0  0  0  0  0  0  0  0  0  0
  156.1897  140.9737  162.8765 H   0  0  0  0  0  0  0  0  0  0  0  0
  154.4360  141.1166  159.9420 H   0  0  0  0  0  0  0  0  0  0  0  0
  153.0341  140.2439  160.4980 H   0  0  0  0  0  0  0  0  0  0  0  0
  153.2847  142.1928  163.4257 H   0  0  0  0  0  0  0  0  0  0  0  0
  151.0462  146.0161  160.9713 H   0  0  0  0  0  0  0  0  0  0  0  0
  150.9299  145.9819  158.4746 H   0  0  0  0  0  0  0  0  0  0  0  0
  151.8927  144.1125  157.1844 H   0  0  0  0  0  0  0  0  0  0  0  0
  153.0093  142.2007  158.3264 H   0  0  0  0  0  0  0  0  0  0  0  0
  155.1806  136.3160  160.9838 H   0  0  0  0  0  0  0  0  0  0  0  0
  155.2723  133.8876  161.2577 H   0  0  0  0  0  0  0  0  0  0  0  0
  152.0455  144.4257  163.1637 H   0  0  0  0  0  0  0  0  0  0  0  0
  1  2  3  0  0  0  0
  2  3  1  0  0  0  0
  3 22  1  0  0  0  0
  3  4  2  0  0  0  0
  4  5  1  0  0  0  0
  4 23  1  0  0  0  0
  5  6  2  0  0  0  0
  5 24  1  0  0  0  0
  6  7  1  0  0  0  0
  6 21  1  0  0  0  0
  7  8  1  0  0  0  0
  8  9  1  0  0  0  0
  8 25  1  0  0  0  0
  8 26  1  0  0  0  0
  9 10  1  0  0  0  0
  9 11  1  0  0  0  0
  9 27  1  0  0  0  0
 10 28  1  0  0  0  0
 11 12  1  0  0  0  0
 11 29  1  0  0  0  0
 11 30  1  0  0  0  0
 12 20  1  0  0  0  0
 12 13  1  0  0  0  0
 13 14  2  0  0  0  0
 13 31  1  0  0  0  0
 14 15  1  0  0  0  0
 14 38  1  0  0  0  0
 15 20  2  0  0  0  0
 15 16  1  0  0  0  0
 16 17  2  0  0  0  0
 16 32  1  0  0  0  0
 17 18  1  0  0  0  0
 17 33  1  0  0  0  0
 18 19  2  0  0  0  0
 18 34  1  0  0  0  0
 19 20  1  0  0  0  0
 19 35  1  0  0  0  0
 21 22  2  0  0  0  0
 21 36  1  0  0  0  0
 22 37  1  0  0  0  0
M  CHG  1  14   1
M  END
> <s_m_source_file>
AV-unprocessed.smi

> <i_m_source_file_index>
1289

> <i_lp_mmshare_version>
43012

> <i_f3d_flags>
0

> <s_epik_input>
TiNDYzFbY0hdW2NIXWMoW2NIXVtjSF0xKU9bQ0gyXVtDQEhdKFtPSF0pW0NIMl1uKFtjSF1uMiljKGMyMylbY0hdW2NIXVtjSF1bY0hdMw==

> <s_epik_cmdline>
J2VwaWtfcHl0aG9uJywgJy1waCcsICc3LjAnLCAnLXRuJywgJzgnLCAnLW1hJywgJzIwMCcsICctbWV0YWxfYmluZGluZycsICctaW1hZScsICc8aW5maWxlLm1hZT4nLCAnLW9tYWUnLCAnPG91dGZpbGUubWFlPic=

> <r_epik_Ionization_Penalty>
1.39523

> <r_epik_Ionization_Penalty_Charging>
1.39523

> <r_epik_Ionization_Penalty_Neutral>
2.3993e-06

> <r_epik_State_Penalty>
1.47691

> <r_epik_Charging_Adjusted_Penalty>
2.87215

> <i_epik_Tot_Q>
1

> <i_epik_Tot_abs_Q>
1

> <r_epik_Metal_State_Penalty>
5.51858

> <b_epik_Metal_Only>
0

> <s_lp_Force_Field>
OPLS_2005

> <r_lp_Energy>
20.386

> <b_lp_Chiralities_Consistent>
1

> <s_lp_Variant>
AV-unprocessed.smi:1289-4

> <Gold.Version>
5.8.1

> <Gold.Id.Protein>
6NUR|6NUR_protein|mol2

> <Gold.PLP.Fitness>
58.2905

> <Gold.PLP.PLP>
-60.2081

> <Gold.PLP.part.hbond>
-2.0899

> <Gold.PLP.part.metal>
0.0000

> <Gold.PLP.part.buried>
-6.9091

> <Gold.PLP.part.nonpolar>
-52.2412

> <Gold.PLP.part.repulsive>
0.0852

> <Gold.PLP.ligand.clash>
0.0000

> <Gold.PLP.ligand.torsion>
0.9783

> <Gold.PLP.Chemscore.Hbond>
0.0000

> <Gold.PLP.Chemscore.CHOScore>
0.0000

> <Gold.PLP.Chemscore.Metal>
0.0000

> <Gold.PLP.Chemscore.Internal.Correction>
0.0390

> <Gold.Rescore>
     Score         DG    S(hbond)    S(metal)    S(lipo)     H(rot)  DE(clash)    DE(int)     intcor
     13.45     -15.95       0.00        0.00     145.89       2.58       1.52       0.97       ----

> <Gold.Chemscore.Fitness>
13.4519

> <Gold.Chemscore.DG>
-15.9453

> <Gold.Chemscore.ZeroCoef>
-5.4800

> <Gold.Chemscore.Hbond>
0.0000

> <Gold.Chemscore.Metal>
0.0000

> <Gold.Chemscore.Lipo>
145.8944

> <Gold.Chemscore.Internal_Hbond>
0.0000

> <Gold.Chemscore.DEClash>
1.5248

> <Gold.Chemscore.DEInternal>
0.9685

> <Gold.Chemscore.Rot>
2.5798

> <Gold.Chemscore.Internal.Correction>
   9.000000E+99

> <Gold.Chemscore.Hbond.Weighted>
-0.0000

> <Gold.Chemscore.Metal.Weighted>
-0.0000

> <Gold.Chemscore.Lipo.Weighted>
-17.0696

> <Gold.Chemscore.Internal_Hbond.Weighted>
0.0000

> <Gold.Chemscore.DEClash.Weighted>
1.5248

> <Gold.Chemscore.DEInternal.Weighted>
0.9685

> <Gold.Chemscore.Rot.Weighted>
6.6043

> <Gold.Chemscore.Internal.Correction.Weighted>
   9.000000E+99

> <Gold.Protein.RotatedTorsions>
[ 6907 6896 6895 6894 ] final -152.96 input  -60.11 | X-H torsion
[ 7974 7965 7964 7962 ] final  172.59 input  175.53 | X-H torsion
[ 8008 7997 7996 7995 ] final    2.62 input   59.86 | X-H torsion
[ 10167 10162 10161 10158 ] final   48.88 input  -65.29 | X-H torsion
[ 10718 10713 10712 10709 ] final  127.52 input   66.30 | X-H torsion
[ 10763 10752 10751 10750 ] final -106.06 input  -60.55 | X-H torsion
[ 11005 11000 10999 10996 ] final   51.66 input  -57.11 | X-H torsion

> <Gold.Protein.ActiveResidues>
 VAL166  LYS551  ARG553  GLY616  TRP617  ASP618  TYR619  PRO620  LYS621  CYS622 
 ASP623  PHE694  ASN695  SER759  ASP760  ASP761  ALA762  ILE779  LEU786  VAL792 
 PHE793  MET794  SER795  GLU796  ALA797  LYS798  CYS799  TRP800  GLU811  SER814 

> <Gold.Protein.RotatedAtoms>
  151.2356  133.4427  159.2605 H   0  0  0  0  0  0  0  0  0  0  0  0  # atno 6907 bound_to 6896
  151.0754  134.9825  159.8339 H   0  0  0  0  0  0  0  0  0  0  0  0  # atno 6908 bound_to 6896
  152.5417  134.2298  159.8873 H   0  0  0  0  0  0  0  0  0  0  0  0  # atno 6909 bound_to 6896
  144.7264  139.9521  143.6432 H   0  0  0  0  0  0  0  0  0  0  0  0  # atno 7974 bound_to 7965
  154.6938  140.2659  155.6786 H   0  0  0  0  0  0  0  0  0  0  0  0  # atno 8008 bound_to 7997
  156.2741  140.2786  156.1449 H   0  0  0  0  0  0  0  0  0  0  0  0  # atno 8009 bound_to 7997
  155.0859  140.0373  157.2644 H   0  0  0  0  0  0  0  0  0  0  0  0  # atno 8010 bound_to 7997
  140.2887  144.3071  150.6246 H   0  0  0  0  0  0  0  0  0  0  0  0  # atno 10167 bound_to 10162
  157.5325  131.1098  150.8986 H   0  0  0  0  0  0  0  0  0  0  0  0  # atno 10718 bound_to 10713
  154.7987  135.4726  154.0224 H   0  0  0  0  0  0  0  0  0  0  0  0  # atno 10763 bound_to 10752
  153.1746  135.6830  153.8568 H   0  0  0  0  0  0  0  0  0  0  0  0  # atno 10764 bound_to 10752
  153.8139  135.3213  155.3381 H   0  0  0  0  0  0  0  0  0  0  0  0  # atno 10765 bound_to 10752
  140.0914  134.5204  155.8848 H   0  0  0  0  0  0  0  0  0  0  0  0  # atno 11005 bound_to 11000
  146.0703  139.3692  143.0527 LP  0  0  0  0  0  0  0  0  0  0  0  0  # atno 17320 bound_to 7965
  145.7977  140.9785  143.1015 LP  0  0  0  0  0  0  0  0  0  0  0  0  # atno 17321 bound_to 7965
  140.5751  143.2177  151.7530 LP  0  0  0  0  0  0  0  0  0  0  0  0  # atno 17342 bound_to 10162
  139.4943  144.4162  152.0028 LP  0  0  0  0  0  0  0  0  0  0  0  0  # atno 17343 bound_to 10162
  156.9563  130.5438  149.5284 LP  0  0  0  0  0  0  0  0  0  0  0  0  # atno 17370 bound_to 10713
  156.0434  130.5513  150.8823 LP  0  0  0  0  0  0  0  0  0  0  0  0  # atno 17371 bound_to 10713
  141.2079  133.6668  156.6335 LP  0  0  0  0  0  0  0  0  0  0  0  0  # atno 17394 bound_to 11000
  140.3347  134.7899  157.4353 LP  0  0  0  0  0  0  0  0  0  0  0  0  # atno 17395 bound_to 11000

$$$$
