AV-unprocessed.smi:1591|AV-procd|sdf|6400|dock10
  -GOLD-   22720 7 33D 1   1.00000     0.00000
 Structure written by MMmdl.
 51 54  0  0  0  0  0  0  0  0  2 V2000
  148.9783  131.9651  157.9930 C   0  0  0  0  0  0  0  0  0  0  0  0
  147.9054  132.6814  158.8287 C   0  0  0  0  0  0  0  0  0  0  0  0
  148.2494  134.1535  159.1735 C   0  0  1  0  0  0  0  0  0  0  0  0
  148.0377  134.9822  157.9836 N   0  0  0  0  0  0  0  0  0  0  0  0
  148.7732  134.9674  156.8608 C   0  0  0  0  0  0  0  0  0  0  0  0
  149.7747  134.2686  156.7085 O   0  0  0  0  0  0  0  0  0  0  0  0
  148.2980  135.8922  155.7368 C   0  0  0  0  0  0  0  0  0  0  0  0
  149.3500  136.8463  155.3552 N   0  0  0  0  0  0  0  0  0  0  0  0
  150.0869  136.5594  154.1922 C   0  0  0  0  0  0  0  0  0  0  0  0
  151.0862  137.3558  153.7682 C   0  0  0  0  0  0  0  0  0  0  0  0
  151.3997  138.5444  154.5507 C   0  0  0  0  0  0  0  0  0  0  0  0
  152.3092  139.2832  154.1787 O   0  0  0  0  0  0  0  0  0  0  0  0
  150.6576  138.7799  155.6721 N   0  5  0  0  0  0  0  0  0  0  0  0
  149.6438  137.9603  156.0918 C   0  0  0  0  0  0  0  0  0  0  0  0
  148.9886  138.1926  157.1077 O   0  0  0  0  0  0  0  0  0  0  0  0
  147.4866  134.7513  160.4028 C   0  0  0  0  0  0  0  0  0  0  0  0
  147.7924  133.9003  161.6727 C   0  0  0  0  0  0  0  0  0  0  0  0
  147.0442  134.4498  162.9045 C   0  0  1  0  0  0  0  0  0  0  0  0
  147.4869  135.9037  163.1666 C   0  0  0  0  0  0  0  0  0  0  0  0
  147.1524  136.7653  161.9319 C   0  0  2  0  0  0  0  0  0  0  0  0
  145.6321  136.7264  161.6727 C   0  0  0  0  0  0  0  0  0  0  0  0
  145.1984  135.2684  161.4160 C   0  0  2  0  0  0  0  0  0  0  0  0
  145.5253  134.4037  162.6488 C   0  0  0  0  0  0  0  0  0  0  0  0
  145.9459  134.7200  160.1816 C   0  0  0  0  0  0  0  0  0  0  0  0
  147.9051  136.2214  160.6978 C   0  0  0  0  0  0  0  0  0  0  0  0
  148.7239  130.9137  157.8582 H   0  0  0  0  0  0  0  0  0  0  0  0
  149.9523  132.0110  158.4809 H   0  0  0  0  0  0  0  0  0  0  0  0
  149.0791  132.4040  157.0001 H   0  0  0  0  0  0  0  0  0  0  0  0
  146.9569  132.6277  158.2948 H   0  0  0  0  0  0  0  0  0  0  0  0
  147.7758  132.1038  159.7421 H   0  0  0  0  0  0  0  0  0  0  0  0
  149.3102  134.1656  159.4307 H   0  0  0  0  0  0  0  0  0  0  0  0
  147.2387  135.5987  158.0051 H   0  0  0  0  0  0  0  0  0  0  0  0
  147.9913  135.2980  154.8742 H   0  0  0  0  0  0  0  0  0  0  0  0
  147.3938  136.4120  156.0578 H   0  0  0  0  0  0  0  0  0  0  0  0
  149.7961  135.6566  153.6754 H   0  0  0  0  0  0  0  0  0  0  0  0
  151.6437  137.1189  152.8739 H   0  0  0  0  0  0  0  0  0  0  0  0
  147.5112  132.8597  161.5045 H   0  0  0  0  0  0  0  0  0  0  0  0
  148.8609  133.8913  161.8900 H   0  0  0  0  0  0  0  0  0  0  0  0
  147.2819  133.8373  163.7748 H   0  0  0  0  0  0  0  0  0  0  0  0
  146.9853  136.2983  164.0510 H   0  0  0  0  0  0  0  0  0  0  0  0
  148.5567  135.9417  163.3758 H   0  0  0  0  0  0  0  0  0  0  0  0
  147.4606  137.7948  162.1166 H   0  0  0  0  0  0  0  0  0  0  0  0
  145.0926  137.1364  162.5274 H   0  0  0  0  0  0  0  0  0  0  0  0
  145.3777  137.3537  160.8176 H   0  0  0  0  0  0  0  0  0  0  0  0
  144.1243  135.2390  161.2302 H   0  0  0  0  0  0  0  0  0  0  0  0
  145.1989  133.3758  162.4875 H   0  0  0  0  0  0  0  0  0  0  0  0
  144.9824  134.7674  163.5222 H   0  0  0  0  0  0  0  0  0  0  0  0
  145.6616  135.3237  159.3206 H   0  0  0  0  0  0  0  0  0  0  0  0
  145.6146  133.7029  159.9673 H   0  0  0  0  0  0  0  0  0  0  0  0
  148.9793  136.2916  160.8717 H   0  0  0  0  0  0  0  0  0  0  0  0
  147.6931  136.8608  159.8407 H   0  0  0  0  0  0  0  0  0  0  0  0
  1  2  1  0  0  0  0
  1 26  1  0  0  0  0
  1 27  1  0  0  0  0
  1 28  1  0  0  0  0
  2  3  1  0  0  0  0
  2 29  1  0  0  0  0
  2 30  1  0  0  0  0
  3  4  1  0  0  0  0
  3 16  1  0  0  0  0
  3 31  1  0  0  0  0
  4  5  1  0  0  0  0
  4 32  1  0  0  0  0
  5  6  2  0  0  0  0
  5  7  1  0  0  0  0
  7  8  1  0  0  0  0
  7 33  1  0  0  0  0
  7 34  1  0  0  0  0
  8 14  1  0  0  0  0
  8  9  1  0  0  0  0
  9 10  2  0  0  0  0
  9 35  1  0  0  0  0
 10 11  1  0  0  0  0
 10 36  1  0  0  0  0
 11 12  2  0  0  0  0
 11 13  1  0  0  0  0
 13 14  1  0  0  0  0
 14 15  2  0  0  0  0
 16 24  1  0  0  0  0
 16 25  1  0  0  0  0
 16 17  1  0  0  0  0
 17 18  1  0  0  0  0
 17 37  1  0  0  0  0
 17 38  1  0  0  0  0
 18 23  1  0  0  0  0
 18 19  1  0  0  0  0
 18 39  1  0  0  0  0
 19 20  1  0  0  0  0
 19 40  1  0  0  0  0
 19 41  1  0  0  0  0
 20 21  1  0  0  0  0
 20 25  1  0  0  0  0
 20 42  1  0  0  0  0
 21 22  1  0  0  0  0
 21 43  1  0  0  0  0
 21 44  1  0  0  0  0
 22 23  1  0  0  0  0
 22 24  1  0  0  0  0
 22 45  1  0  0  0  0
 23 46  1  0  0  0  0
 23 47  1  0  0  0  0
 24 48  1  0  0  0  0
 24 49  1  0  0  0  0
 25 50  1  0  0  0  0
 25 51  1  0  0  0  0
M  CHG  1  13  -1
M  END
> <s_m_source_file>
AV-unprocessed.smi

> <i_m_source_file_index>
1591

> <i_lp_mmshare_version>
43012

> <i_f3d_flags>
0

> <s_epik_input>
W0NIMl0xW0NASF0oW0NIMl0yKVtDSDJdW0NASF0oW0NIMl0zKVtDSDJdW0NAQEhdMVtDSDJdQzIzW0NASF0oW0NIMl1bQ0gzXSlbTkhdQyg9TylbQ0gyXW40W2NIXVtjSF1jKD1PKVtuSF1jND1P

> <s_epik_cmdline>
J2VwaWtfcHl0aG9uJywgJy1waCcsICc3LjAnLCAnLXRuJywgJzgnLCAnLW1hJywgJzIwMCcsICctbWV0YWxfYmluZGluZycsICctaW1hZScsICc8aW5maWxlLm1hZT4nLCAnLW9tYWUnLCAnPG91dGZpbGUubWFlPic=

> <r_lp_tautomer_probability>
0.999537

> <r_epik_Ionization_Penalty>
3.13902

> <r_epik_Ionization_Penalty_Charging>
2.97334e-08

> <r_epik_Ionization_Penalty_Neutral>
3.13902

> <r_epik_State_Penalty>
3.13814

> <r_epik_Charging_Adjusted_Penalty>
3.13814

> <i_epik_Tot_Q>
-1

> <i_epik_Tot_abs_Q>
1

> <r_epik_Metal_State_Penalty>
0.465244

> <b_epik_Metal_Only>
1

> <s_lp_Force_Field>
OPLS_2005

> <r_lp_Energy>
49.2124

> <b_lp_Chiralities_Consistent>
1

> <s_lp_Variant>
AV-unprocessed.smi:1591-4

> <Gold.Version>
5.8.1

> <Gold.Id.Protein>
6NUR|6NUR_protein|mol2

> <Gold.PLP.Fitness>
41.3175

> <Gold.PLP.PLP>
-35.7987

> <Gold.PLP.part.hbond>
-2.0000

> <Gold.PLP.part.metal>
0.0000

> <Gold.PLP.part.buried>
-2.8814

> <Gold.PLP.part.nonpolar>
-31.5137

> <Gold.PLP.part.repulsive>
0.0716

> <Gold.PLP.ligand.clash>
0.0000

> <Gold.PLP.ligand.torsion>
0.5916

> <Gold.PLP.Chemscore.Hbond>
1.2447

> <Gold.PLP.Chemscore.CHOScore>
0.9481

> <Gold.PLP.Chemscore.Metal>
0.0000

> <Gold.Chemscore.Hbonds>
donor molecule, donor type, donor heavy atom, donor atom, acceptor molecule, acceptor atom, score
      P1  H  7989  7998       L1    12  0.64
      L1  C     9    35       P1  7948  0.39

> <Gold.PLP.Chemscore.Internal.Correction>
0.1236

> <Gold.Rescore>
     Score         DG    S(hbond)    S(metal)    S(lipo)     H(rot)  DE(clash)    DE(int)     intcor
     13.37     -15.30       1.01        0.00      98.71       1.99       0.01       1.92       ----

> <Gold.Chemscore.Fitness>
13.3691

> <Gold.Chemscore.DG>
-15.3048

> <Gold.Chemscore.ZeroCoef>
-5.4800

> <Gold.Chemscore.Hbond>
1.0060

> <Gold.Chemscore.Metal>
0.0000

> <Gold.Chemscore.Lipo>
98.7056

> <Gold.Chemscore.Internal_Hbond>
0.0000

> <Gold.Chemscore.DEClash>
0.0120

> <Gold.Chemscore.DEInternal>
1.9237

> <Gold.Chemscore.Rot>
1.9858

> <Gold.Chemscore.Internal.Correction>
   9.000000E+99

> <Gold.Chemscore.Hbonds>
donor molecule, donor type, donor heavy atom, donor atom, acceptor molecule, acceptor atom, score
      P1  H  7989  7998       L1    12  0.53

> <Gold.Chemscore.Hbond.Weighted>
-3.3599

> <Gold.Chemscore.Metal.Weighted>
-0.0000

> <Gold.Chemscore.Lipo.Weighted>
-11.5486

> <Gold.Chemscore.Internal_Hbond.Weighted>
0.0000

> <Gold.Chemscore.DEClash.Weighted>
0.0120

> <Gold.Chemscore.DEInternal.Weighted>
1.9237

> <Gold.Chemscore.Rot.Weighted>
5.0836

> <Gold.Chemscore.Internal.Correction.Weighted>
   9.000000E+99

> <Gold.Protein.RotatedTorsions>
[ 6907 6896 6895 6894 ] final  146.66 input  -60.11 | X-H torsion
[ 7974 7965 7964 7962 ] final    2.78 input  175.53 | X-H torsion
[ 8008 7997 7996 7995 ] final   97.85 input   59.86 | X-H torsion
[ 10167 10162 10161 10158 ] final   19.40 input  -65.29 | X-H torsion
[ 10718 10713 10712 10709 ] final   26.93 input   66.30 | X-H torsion
[ 10763 10752 10751 10750 ] final -125.20 input  -60.55 | X-H torsion
[ 11005 11000 10999 10996 ] final  -81.33 input  -57.11 | X-H torsion

> <Gold.Protein.ActiveResidues>
 VAL166  LYS551  ARG553  GLY616  TRP617  ASP618  TYR619  PRO620  LYS621  CYS622 
 ASP623  PHE694  ASN695  SER759  ASP760  ASP761  ALA762  ILE779  LEU786  VAL792 
 PHE793  MET794  SER795  GLU796  ALA797  LYS798  CYS799  TRP800  GLU811  SER814 

> <Gold.Protein.RotatedAtoms>
  152.1650  133.4606  159.4879 H   0  0  0  0  0  0  0  0  0  0  0  0  # atno 6907 bound_to 6896
  150.6912  134.2024  159.4336 H   0  0  0  0  0  0  0  0  0  0  0  0  # atno 6908 bound_to 6896
  151.9928  134.9970  160.0613 H   0  0  0  0  0  0  0  0  0  0  0  0  # atno 6909 bound_to 6896
  146.2444  140.0785  142.8358 H   0  0  0  0  0  0  0  0  0  0  0  0  # atno 7974 bound_to 7965
  156.0943  140.3252  155.7857 H   0  0  0  0  0  0  0  0  0  0  0  0  # atno 8008 bound_to 7997
  155.4943  140.0564  157.2966 H   0  0  0  0  0  0  0  0  0  0  0  0  # atno 8009 bound_to 7997
  154.4657  140.1988  156.0141 H   0  0  0  0  0  0  0  0  0  0  0  0  # atno 8010 bound_to 7997
  140.5582  143.9386  150.6624 H   0  0  0  0  0  0  0  0  0  0  0  0  # atno 10167 bound_to 10162
  157.2134  130.6945  149.6238 H   0  0  0  0  0  0  0  0  0  0  0  0  # atno 10718 bound_to 10713
  154.8733  135.4037  154.3230 H   0  0  0  0  0  0  0  0  0  0  0  0  # atno 10763 bound_to 10752
  153.4055  135.7019  153.6401 H   0  0  0  0  0  0  0  0  0  0  0  0  # atno 10764 bound_to 10752
  153.5126  135.3704  155.2564 H   0  0  0  0  0  0  0  0  0  0  0  0  # atno 10765 bound_to 10752
  141.1666  133.7191  156.8406 H   0  0  0  0  0  0  0  0  0  0  0  0  # atno 11005 bound_to 11000
  145.0754  140.9184  143.4857 LP  0  0  0  0  0  0  0  0  0  0  0  0  # atno 17320 bound_to 7965
  145.0927  139.2879  143.5727 LP  0  0  0  0  0  0  0  0  0  0  0  0  # atno 17321 bound_to 7965
  140.2830  143.3376  152.1133 LP  0  0  0  0  0  0  0  0  0  0  0  0  # atno 17342 bound_to 10162
  139.5057  144.6801  151.6031 LP  0  0  0  0  0  0  0  0  0  0  0  0  # atno 17343 bound_to 10162
  155.9688  130.4543  150.5846 LP  0  0  0  0  0  0  0  0  0  0  0  0  # atno 17370 bound_to 10713
  157.3649  131.0756  151.1606 LP  0  0  0  0  0  0  0  0  0  0  0  0  # atno 17371 bound_to 10713
  140.1986  134.8914  157.3143 LP  0  0  0  0  0  0  0  0  0  0  0  0  # atno 17394 bound_to 11000
  140.2212  134.4021  155.7565 LP  0  0  0  0  0  0  0  0  0  0  0  0  # atno 17395 bound_to 11000

$$$$
