AV-unprocessed.smi:2549|AV-procd|sdf|10009|dock5
  -GOLD-   2272014 53D 1   1.00000     0.00000
 Structure written by MMmdl.
 18 19  0  0  0  0  0  0  0  0  2 V2000
  153.0058  142.3123  161.7307 C   0  0  0  0  0  0  0  0  0  0  0  0
  153.4235  142.3148  160.4304 C   0  0  0  0  0  0  0  0  0  0  0  0
  152.3542  142.8636  159.7529 N   0  0  0  0  0  0  0  0  0  0  0  0
  152.2378  143.1084  158.3435 C   0  0  0  0  0  0  0  0  0  0  0  0
  151.9336  144.5064  157.8057 C   0  0  0  0  0  0  0  0  0  0  0  0
  151.1861  143.8640  156.7313 N   0  3  0  0  0  0  0  0  0  0  0  0
  150.9910  142.6854  157.5672 C   0  0  0  0  0  0  0  0  0  0  0  0
  151.3405  143.1782  160.5946 N   0  0  0  0  0  0  0  0  0  0  0  0
  151.7211  142.8507  161.7890 N   0  0  0  0  0  0  0  0  0  0  0  0
  153.5161  141.9720  162.6201 H   0  0  0  0  0  0  0  0  0  0  0  0
  154.3389  141.9911  159.9571 H   0  0  0  0  0  0  0  0  0  0  0  0
  153.1379  142.7040  157.8741 H   0  0  0  0  0  0  0  0  0  0  0  0
  151.2872  145.1018  158.4534 H   0  0  0  0  0  0  0  0  0  0  0  0
  152.8042  145.0684  157.4662 H   0  0  0  0  0  0  0  0  0  0  0  0
  150.3297  144.3396  156.4847 H   0  0  0  0  0  0  0  0  0  0  0  0
  151.0818  141.7407  157.0304 H   0  0  0  0  0  0  0  0  0  0  0  0
  150.0662  142.7428  158.1444 H   0  0  0  0  0  0  0  0  0  0  0  0
  151.7786  143.6610  155.9389 H   0  0  0  0  0  0  0  0  0  0  0  0
  1  9  1  0  0  0  0
  1  2  2  0  0  0  0
  1 10  1  0  0  0  0
  2  3  1  0  0  0  0
  2 11  1  0  0  0  0
  3  4  1  0  0  0  0
  3  8  1  0  0  0  0
  4  7  1  0  0  0  0
  4  5  1  0  0  0  0
  4 12  1  0  0  0  0
  5  6  1  0  0  0  0
  5 13  1  0  0  0  0
  5 14  1  0  0  0  0
  6  7  1  0  0  0  0
  6 15  1  0  0  0  0
  6 18  1  0  0  0  0
  7 16  1  0  0  0  0
  7 17  1  0  0  0  0
  8  9  2  0  0  0  0
M  CHG  1   6   1
M  END
> <s_m_source_file>
AV-unprocessed.smi

> <i_m_source_file_index>
2549

> <i_lp_mmshare_version>
43012

> <i_f3d_flags>
0

> <s_epik_input>
bjFuW2NIXVtjSF1uMVtDSF0yW0NIMl1bTkhdW0NIMl0y

> <s_epik_cmdline>
J2VwaWtfcHl0aG9uJywgJy1waCcsICc3LjAnLCAnLXRuJywgJzgnLCAnLW1hJywgJzIwMCcsICctbWV0YWxfYmluZGluZycsICctaW1hZScsICc8aW5maWxlLm1hZT4nLCAnLW9tYWUnLCAnPG91dGZpbGUubWFlPic=

> <r_lp_tautomer_probability>
1

> <r_epik_Ionization_Penalty>
0.215038

> <r_epik_Ionization_Penalty_Charging>
0.215038

> <r_epik_Ionization_Penalty_Neutral>
7.76117e-08

> <r_epik_State_Penalty>
0.20523

> <r_epik_Charging_Adjusted_Penalty>
0.420268

> <i_epik_Tot_Q>
1

> <i_epik_Tot_abs_Q>
1

> <r_epik_Metal_State_Penalty>
0.205232

> <b_epik_Metal_Only>
0

> <s_lp_Force_Field>
OPLS_2005

> <r_lp_Energy>
15.3709

> <b_lp_Chiralities_Consistent>
1

> <s_lp_Variant>
AV-unprocessed.smi:2549-1

> <Gold.Version>
5.8.1

> <Gold.Id.Protein>
6NUR|6NUR_protein|mol2

> <Gold.PLP.Fitness>
33.5640

> <Gold.PLP.PLP>
-25.8891

> <Gold.PLP.part.hbond>
-3.0000

> <Gold.PLP.part.metal>
0.0000

> <Gold.PLP.part.buried>
-4.2962

> <Gold.PLP.part.nonpolar>
-20.0719

> <Gold.PLP.part.repulsive>
0.4540

> <Gold.PLP.ligand.clash>
0.0000

> <Gold.PLP.ligand.torsion>
0.1471

> <Gold.PLP.Chemscore.Hbond>
2.5760

> <Gold.PLP.Chemscore.CHOScore>
0.0000

> <Gold.PLP.Chemscore.Metal>
0.0000

> <Gold.Chemscore.Hbonds>
donor molecule, donor type, donor heavy atom, donor atom, acceptor molecule, acceptor atom, score
      L1  H     6    15       P1  8028  2.00
      P1  H  6933  6945       L1     9  0.53

> <Gold.PLP.Chemscore.Internal.Correction>
0.2411

> <Gold.Rescore>
     Score         DG    S(hbond)    S(metal)    S(lipo)     H(rot)  DE(clash)    DE(int)     intcor
     14.06     -14.32       1.42        0.00      56.87       1.00       0.13       0.13       ----

> <Gold.Chemscore.Fitness>
14.0626

> <Gold.Chemscore.DG>
-14.3211

> <Gold.Chemscore.ZeroCoef>
-5.4800

> <Gold.Chemscore.Hbond>
1.4214

> <Gold.Chemscore.Metal>
0.0000

> <Gold.Chemscore.Lipo>
56.8680

> <Gold.Chemscore.Internal_Hbond>
0.0000

> <Gold.Chemscore.DEClash>
0.1292

> <Gold.Chemscore.DEInternal>
0.1293

> <Gold.Chemscore.Rot>
1.0000

> <Gold.Chemscore.Internal.Correction>
   9.000000E+99

> <Gold.Chemscore.Hbonds>
donor molecule, donor type, donor heavy atom, donor atom, acceptor molecule, acceptor atom, score
      L1  H     6    15       P1  8028  0.99
      P1  H  6933  6945       L1     9  0.06

> <Gold.Chemscore.Hbond.Weighted>
-4.7475

> <Gold.Chemscore.Metal.Weighted>
-0.0000

> <Gold.Chemscore.Lipo.Weighted>
-6.6536

> <Gold.Chemscore.Internal_Hbond.Weighted>
0.0000

> <Gold.Chemscore.DEClash.Weighted>
0.1292

> <Gold.Chemscore.DEInternal.Weighted>
0.1293

> <Gold.Chemscore.Rot.Weighted>
2.5600

> <Gold.Chemscore.Internal.Correction.Weighted>
   9.000000E+99

> <Gold.Protein.RotatedTorsions>
[ 6907 6896 6895 6894 ] final   18.89 input  -60.11 | X-H torsion
[ 7974 7965 7964 7962 ] final   40.68 input  175.53 | X-H torsion
[ 8008 7997 7996 7995 ] final  166.90 input   59.86 | X-H torsion
[ 10167 10162 10161 10158 ] final   95.87 input  -65.29 | X-H torsion
[ 10718 10713 10712 10709 ] final   95.32 input   66.30 | X-H torsion
[ 10763 10752 10751 10750 ] final  122.92 input  -60.55 | X-H torsion
[ 11005 11000 10999 10996 ] final   63.64 input  -57.11 | X-H torsion

> <Gold.Protein.ActiveResidues>
 VAL166  LYS551  ARG553  GLY616  TRP617  ASP618  TYR619  PRO620  LYS621  CYS622 
 ASP623  PHE694  ASN695  SER759  ASP760  ASP761  ALA762  ILE779  LEU786  VAL792 
 PHE793  MET794  SER795  GLU796  ALA797  LYS798  CYS799  TRP800  GLU811  SER814 

> <Gold.Protein.RotatedAtoms>
  151.8724  135.0484  160.0480 H   0  0  0  0  0  0  0  0  0  0  0  0  # atno 6907 bound_to 6896
  152.2578  133.5266  159.5372 H   0  0  0  0  0  0  0  0  0  0  0  0  # atno 6908 bound_to 6896
  150.7106  134.0788  159.3933 H   0  0  0  0  0  0  0  0  0  0  0  0  # atno 6909 bound_to 6896
  146.0885  139.5505  142.9491 H   0  0  0  0  0  0  0  0  0  0  0  0  # atno 7974 bound_to 7965
  156.1679  140.1631  156.8499 H   0  0  0  0  0  0  0  0  0  0  0  0  # atno 8008 bound_to 7997
  154.5226  140.0774  156.8235 H   0  0  0  0  0  0  0  0  0  0  0  0  # atno 8009 bound_to 7997
  155.3573  140.3393  155.4242 H   0  0  0  0  0  0  0  0  0  0  0  0  # atno 8010 bound_to 7997
  139.7947  144.6838  150.9844 H   0  0  0  0  0  0  0  0  0  0  0  0  # atno 10167 bound_to 10162
  157.6940  131.0541  150.4320 H   0  0  0  0  0  0  0  0  0  0  0  0  # atno 10718 bound_to 10713
  153.6373  135.3385  155.3060 H   0  0  0  0  0  0  0  0  0  0  0  0  # atno 10763 bound_to 10752
  154.8567  135.4310  154.2042 H   0  0  0  0  0  0  0  0  0  0  0  0  # atno 10764 bound_to 10752
  153.2952  135.7020  153.7329 H   0  0  0  0  0  0  0  0  0  0  0  0  # atno 10765 bound_to 10752
  140.0011  134.6440  155.9929 H   0  0  0  0  0  0  0  0  0  0  0  0  # atno 11005 bound_to 11000
  145.6084  141.0344  143.1980 LP  0  0  0  0  0  0  0  0  0  0  0  0  # atno 17320 bound_to 7965
  144.7343  139.7632  143.7335 LP  0  0  0  0  0  0  0  0  0  0  0  0  # atno 17321 bound_to 7965
  140.7820  143.4343  151.0647 LP  0  0  0  0  0  0  0  0  0  0  0  0  # atno 17342 bound_to 10162
  139.8018  143.8073  152.3163 LP  0  0  0  0  0  0  0  0  0  0  0  0  # atno 17343 bound_to 10162
  156.4686  130.4047  149.6532 LP  0  0  0  0  0  0  0  0  0  0  0  0  # atno 17370 bound_to 10713
  156.3621  130.7486  151.2460 LP  0  0  0  0  0  0  0  0  0  0  0  0  # atno 17371 bound_to 10713
  141.1643  133.6537  156.4424 LP  0  0  0  0  0  0  0  0  0  0  0  0  # atno 17394 bound_to 11000
  140.4725  134.6739  157.5136 LP  0  0  0  0  0  0  0  0  0  0  0  0  # atno 17395 bound_to 11000

$$$$
