AV-unprocessed.smi:37|AV-procd|sdf|305|dock3
  -GOLD-   2262016113D 1   1.00000     0.00000
 Structure written by MMmdl.
 44 45  0  0  0  0  0  0  0  0  1 V2000
  147.0099  142.3730  154.0461 C   0  0  0  0  0  0  0  0  0  0  0  0
  147.8197  141.7139  155.1708 C   0  0  0  0  0  0  0  0  0  0  0  0
  149.1105  141.0757  154.6612 C   0  0  0  0  0  0  0  0  0  0  0  0
  149.4545  141.1769  153.4837 O   0  0  0  0  0  0  0  0  0  0  0  0
  149.7745  140.4118  155.6198 O   0  0  0  0  0  0  0  0  0  0  0  0
  151.0219  139.8066  155.3227 C   0  0  0  0  0  0  0  0  0  0  0  0
  151.4965  139.0078  156.5425 C   0  0  2  0  0  0  0  0  0  0  0  0
  150.8649  137.7283  156.5985 O   0  0  0  0  0  0  0  0  0  0  0  0
  150.5497  137.3920  157.9210 C   0  0  2  0  0  0  0  0  0  0  0  0
  149.0442  137.3566  158.0933 N   0  0  0  0  0  0  0  0  0  0  0  0
  148.2301  138.4365  157.7712 C   0  0  0  0  0  0  0  0  0  0  0  0
  146.8855  138.4192  157.9300 C   0  0  0  0  0  0  0  0  0  0  0  0
  146.1643  139.5031  157.5968 F   0  0  0  0  0  0  0  0  0  0  0  0
  146.2122  137.2378  158.4609 C   0  0  0  0  0  0  0  0  0  0  0  0
  145.0011  137.1278  158.6408 O   0  0  0  0  0  0  0  0  0  0  0  0
  147.0684  136.1781  158.7730 N   0  0  0  0  0  0  0  0  0  0  0  0
  148.4551  136.1832  158.6156 C   0  0  0  0  0  0  0  0  0  0  0  0
  149.1144  135.1942  158.9333 O   0  0  0  0  0  0  0  0  0  0  0  0
  151.1554  138.4742  158.8206 C   0  0  1  0  0  0  0  0  0  0  0  0
  153.0068  137.9341  159.3355 Br  0  0  0  0  0  0  0  0  0  0  0  0
  151.1771  139.6688  157.8824 C   0  0  1  0  0  0  0  0  0  0  0  0
  152.1558  140.6352  158.2389 O   0  0  0  0  0  0  0  0  0  0  0  0
  151.8516  141.6203  159.1005 C   0  0  0  0  0  0  0  0  0  0  0  0
  150.7311  142.0933  159.2913 O   0  0  0  0  0  0  0  0  0  0  0  0
  153.0709  142.1241  159.8684 C   0  0  0  0  0  0  0  0  0  0  0  0
  152.8745  142.0289  161.3877 C   0  0  0  0  0  0  0  0  0  0  0  0
  146.6477  135.3394  159.1465 H   0  0  0  0  0  0  0  0  0  0  0  0
  146.0754  142.7785  154.4340 H   0  0  0  0  0  0  0  0  0  0  0  0
  146.7594  141.6553  153.2642 H   0  0  0  0  0  0  0  0  0  0  0  0
  147.5584  143.1955  153.5858 H   0  0  0  0  0  0  0  0  0  0  0  0
  148.0688  142.4504  155.9345 H   0  0  0  0  0  0  0  0  0  0  0  0
  147.2172  140.9468  155.6581 H   0  0  0  0  0  0  0  0  0  0  0  0
  150.9289  139.1602  154.4495 H   0  0  0  0  0  0  0  0  0  0  0  0
  151.7488  140.5834  155.0820 H   0  0  0  0  0  0  0  0  0  0  0  0
  152.5694  138.8228  156.4670 H   0  0  0  0  0  0  0  0  0  0  0  0
  150.8939  136.3796  158.1410 H   0  0  0  0  0  0  0  0  0  0  0  0
  148.6635  139.3417  157.3768 H   0  0  0  0  0  0  0  0  0  0  0  0
  150.5811  138.6388  159.7328 H   0  0  0  0  0  0  0  0  0  0  0  0
  150.1808  140.1114  157.8264 H   0  0  0  0  0  0  0  0  0  0  0  0
  153.9422  141.5407  159.5697 H   0  0  0  0  0  0  0  0  0  0  0  0
  153.2669  143.1572  159.5803 H   0  0  0  0  0  0  0  0  0  0  0  0
  153.7726  142.3540  161.9127 H   0  0  0  0  0  0  0  0  0  0  0  0
  152.6637  141.0045  161.6966 H   0  0  0  0  0  0  0  0  0  0  0  0
  152.0504  142.6587  161.7244 H   0  0  0  0  0  0  0  0  0  0  0  0
  1  2  1  0  0  0  0
  1 28  1  0  0  0  0
  1 29  1  0  0  0  0
  1 30  1  0  0  0  0
  2  3  1  0  0  0  0
  2 31  1  0  0  0  0
  2 32  1  0  0  0  0
  3  4  2  0  0  0  0
  3  5  1  0  0  0  0
  5  6  1  0  0  0  0
  6  7  1  0  0  0  0
  6 33  1  0  0  0  0
  6 34  1  0  0  0  0
  7 21  1  0  0  0  0
  7  8  1  0  0  0  0
  7 35  1  0  0  0  0
  8  9  1  0  0  0  0
  9 10  1  0  0  0  0
  9 19  1  0  0  0  0
  9 36  1  0  0  0  0
 10 17  1  0  0  0  0
 10 11  1  0  0  0  0
 11 12  2  0  0  0  0
 11 37  1  0  0  0  0
 12 13  1  0  0  0  0
 12 14  1  0  0  0  0
 14 15  2  0  0  0  0
 14 16  1  0  0  0  0
 16 27  1  0  0  0  0
 16 17  1  0  0  0  0
 17 18  2  0  0  0  0
 19 20  1  0  0  0  0
 19 21  1  0  0  0  0
 19 38  1  0  0  0  0
 21 22  1  0  0  0  0
 21 39  1  0  0  0  0
 22 23  1  0  0  0  0
 23 24  2  0  0  0  0
 23 25  1  0  0  0  0
 25 26  1  0  0  0  0
 25 40  1  0  0  0  0
 25 41  1  0  0  0  0
 26 42  1  0  0  0  0
 26 43  1  0  0  0  0
 26 44  1  0  0  0  0
M  END
> <s_m_source_file>
AV-unprocessed.smi

> <i_m_source_file_index>
37

> <i_lp_mmshare_version>
43012

> <i_f3d_flags>
0

> <s_epik_input>
W0NIM11bQ0gyXUMoPU8pT1tDSDJdW0NAQEhdMU9bQ0BASF0objJbY0hdYyhGKWMoPU8pW25IXWMyPU8pW0NAQEhdKEJyKVtDQEhdMU9DKD1PKVtDSDJdW0NIM10=

> <s_epik_cmdline>
J2VwaWtfcHl0aG9uJywgJy1waCcsICc3LjAnLCAnLXRuJywgJzgnLCAnLW1hJywgJzIwMCcsICctbWV0YWxfYmluZGluZycsICctaW1hZScsICc8aW5maWxlLm1hZT4nLCAnLW9tYWUnLCAnPG91dGZpbGUubWFlPic=

> <r_lp_tautomer_probability>
0.999537

> <r_epik_Ionization_Penalty>
0.104106

> <r_epik_Ionization_Penalty_Charging>
0.104106

> <r_epik_Ionization_Penalty_Neutral>
3.94675e-16

> <r_epik_State_Penalty>
0.0940182

> <r_epik_Charging_Adjusted_Penalty>
0.198124

> <i_epik_Tot_Q>
0

> <i_epik_Tot_abs_Q>
0

> <r_epik_Metal_State_Penalty>
3.05314

> <b_epik_Metal_Only>
0

> <s_epik_Chemistry_Notes>
This compound has an ester and may undergo hydrolysis at high or low pH. This compound contains an acetal/aminal-like group ( X-CH(R)-Y where X, Y are N, S, or O) that may be acid/base labile, releasing an aldehyde.

> <s_lp_Force_Field>
OPLS_2005

> <r_lp_Energy>
22.9743

> <b_lp_Chiralities_Consistent>
1

> <s_lp_Variant>
AV-unprocessed.smi:37-3

> <Gold.Version>
5.8.1

> <Gold.Id.Protein>
6NUR|6NUR_protein|mol2

> <Gold.PLP.Fitness>
39.0249

> <Gold.PLP.PLP>
-34.2614

> <Gold.PLP.part.hbond>
-3.9431

> <Gold.PLP.part.metal>
0.0000

> <Gold.PLP.part.buried>
-5.5349

> <Gold.PLP.part.nonpolar>
-28.1679

> <Gold.PLP.part.repulsive>
3.8330

> <Gold.PLP.ligand.clash>
0.0000

> <Gold.PLP.ligand.torsion>
0.9711

> <Gold.PLP.Chemscore.Hbond>
2.1674

> <Gold.PLP.Chemscore.CHOScore>
0.0000

> <Gold.PLP.Chemscore.Metal>
0.0000

> <Gold.Chemscore.Hbonds>
donor molecule, donor type, donor heavy atom, donor atom, acceptor molecule, acceptor atom, score
      P1  H  6896  6909       L1    18  1.00
      P1  H  7989  7998       L1     4  0.13
      P1  H  8011  8017       L1     4  1.00

> <Gold.PLP.Chemscore.Internal.Correction>
0.2034

> <Gold.Rescore>
     Score         DG    S(hbond)    S(metal)    S(lipo)     H(rot)  DE(clash)    DE(int)     intcor
      9.44     -11.64       2.24        0.00      61.65       3.33       1.30       0.90       ----

> <Gold.Chemscore.Fitness>
9.4385

> <Gold.Chemscore.DG>
-11.6404

> <Gold.Chemscore.ZeroCoef>
-5.4800

> <Gold.Chemscore.Hbond>
2.2375

> <Gold.Chemscore.Metal>
0.0000

> <Gold.Chemscore.Lipo>
61.6481

> <Gold.Chemscore.Internal_Hbond>
0.0000

> <Gold.Chemscore.DEClash>
1.3037

> <Gold.Chemscore.DEInternal>
0.8982

> <Gold.Chemscore.Rot>
3.3303

> <Gold.Chemscore.Internal.Correction>
   9.000000E+99

> <Gold.Chemscore.Hbonds>
donor molecule, donor type, donor heavy atom, donor atom, acceptor molecule, acceptor atom, score
      P1  H  6896  6909       L1    18  1.00
      P1  H  7989  7998       L1     4  0.08
      P1  H  8011  8017       L1     4  0.95

> <Gold.Chemscore.Hbond.Weighted>
-7.4732

> <Gold.Chemscore.Metal.Weighted>
-0.0000

> <Gold.Chemscore.Lipo.Weighted>
-7.2128

> <Gold.Chemscore.Internal_Hbond.Weighted>
0.0000

> <Gold.Chemscore.DEClash.Weighted>
1.3037

> <Gold.Chemscore.DEInternal.Weighted>
0.8982

> <Gold.Chemscore.Rot.Weighted>
8.5256

> <Gold.Chemscore.Internal.Correction.Weighted>
   9.000000E+99

> <Gold.Protein.RotatedTorsions>
[ 6907 6896 6895 6894 ] final   56.59 input  -60.11 | X-H torsion
[ 7974 7965 7964 7962 ] final   99.93 input  175.53 | X-H torsion
[ 8008 7997 7996 7995 ] final -159.26 input   59.86 | X-H torsion
[ 10167 10162 10161 10158 ] final  -97.70 input  -65.29 | X-H torsion
[ 10718 10713 10712 10709 ] final  145.47 input   66.30 | X-H torsion
[ 10763 10752 10751 10750 ] final   50.75 input  -60.55 | X-H torsion
[ 11005 11000 10999 10996 ] final   -7.35 input  -57.11 | X-H torsion

> <Gold.Protein.ActiveResidues>
 VAL166  LYS551  ARG553  GLY616  TRP617  ASP618  TYR619  PRO620  LYS621  CYS622 
 ASP623  PHE694  ASN695  SER759  ASP760  ASP761  ALA762  ILE779  LEU786  VAL792 
 PHE793  MET794  SER795  GLU796  ALA797  LYS798  CYS799  TRP800  GLU811  SER814 

> <Gold.Protein.RotatedAtoms>
  152.3650  134.6817  160.0194 H   0  0  0  0  0  0  0  0  0  0  0  0  # atno 6907 bound_to 6896
  151.7128  133.3307  159.3303 H   0  0  0  0  0  0  0  0  0  0  0  0  # atno 6908 bound_to 6896
  150.7632  134.6452  159.6303 H   0  0  0  0  0  0  0  0  0  0  0  0  # atno 6909 bound_to 6896
  145.3923  139.2361  143.3345 H   0  0  0  0  0  0  0  0  0  0  0  0  # atno 7974 bound_to 7965
  155.7599  140.0838  157.2160 H   0  0  0  0  0  0  0  0  0  0  0  0  # atno 8008 bound_to 7997
  154.4004  140.1545  156.2877 H   0  0  0  0  0  0  0  0  0  0  0  0  # atno 8009 bound_to 7997
  155.8850  140.3418  155.5917 H   0  0  0  0  0  0  0  0  0  0  0  0  # atno 8010 bound_to 7997
  140.2807  143.3284  152.0444 H   0  0  0  0  0  0  0  0  0  0  0  0  # atno 10167 bound_to 10162
  157.3448  131.0941  151.1051 H   0  0  0  0  0  0  0  0  0  0  0  0  # atno 10718 bound_to 10713
  152.9784  135.5869  154.4303 H   0  0  0  0  0  0  0  0  0  0  0  0  # atno 10763 bound_to 10752
  154.3916  135.2768  155.2153 H   0  0  0  0  0  0  0  0  0  0  0  0  # atno 10764 bound_to 10752
  154.4022  135.6101  153.5958 H   0  0  0  0  0  0  0  0  0  0  0  0  # atno 10765 bound_to 10752
  140.7118  133.8902  155.8756 H   0  0  0  0  0  0  0  0  0  0  0  0  # atno 11005 bound_to 11000
  146.2791  140.4608  142.8783 LP  0  0  0  0  0  0  0  0  0  0  0  0  # atno 17320 bound_to 7965
  144.8431  140.6888  143.6216 LP  0  0  0  0  0  0  0  0  0  0  0  0  # atno 17321 bound_to 7965
  139.4963  144.6593  151.6500 LP  0  0  0  0  0  0  0  0  0  0  0  0  # atno 17342 bound_to 10162
  140.5814  143.9939  150.6270 LP  0  0  0  0  0  0  0  0  0  0  0  0  # atno 17343 bound_to 10162
  157.2249  130.6498  149.5826 LP  0  0  0  0  0  0  0  0  0  0  0  0  # atno 17370 bound_to 10713
  155.9713  130.4617  150.6120 LP  0  0  0  0  0  0  0  0  0  0  0  0  # atno 17371 bound_to 10713
  141.0078  134.1062  157.4253 LP  0  0  0  0  0  0  0  0  0  0  0  0  # atno 17394 bound_to 11000
  139.8870  135.0086  156.6532 LP  0  0  0  0  0  0  0  0  0  0  0  0  # atno 17395 bound_to 11000

$$$$
