AV-unprocessed.smi:2477|AV-procd|sdf|9760|dock7
  -GOLD-   2272013403D 1   1.00000     0.00000
 Structure written by MMmdl.
 51 53  0  0  0  0  0  0  0  0  1 V2000
  151.0791  140.4090  155.8378 C   0  0  0  0  0  0  0  0  0  0  0  0
  149.8005  140.3860  155.1226 N   0  0  0  0  0  0  0  0  0  0  0  0
  149.0224  141.5559  155.1441 C   0  0  0  0  0  0  0  0  0  0  0  0
  147.8397  141.6252  154.5177 C   0  0  0  0  0  0  0  0  0  0  0  0
  147.3693  140.4596  153.8085 C   0  0  0  0  0  0  0  0  0  0  0  0
  148.1086  139.3223  153.7673 C   0  0  0  0  0  0  0  0  0  0  0  0
  147.7222  138.1420  153.1082 N   0  0  0  0  0  0  0  0  0  0  0  0
  146.4936  137.6153  152.9527 C   0  0  0  0  0  0  0  0  0  0  0  0
  145.4400  138.1129  153.3490 O   0  0  0  0  0  0  0  0  0  0  0  0
  146.5518  136.4563  152.2819 N   0  0  0  0  0  0  0  0  0  0  0  0
  145.4048  135.6166  151.9435 C   0  0  1  0  0  0  0  0  0  0  0  0
  145.2550  135.5231  150.4128 C   0  0  0  0  0  0  0  0  0  0  0  0
  144.0662  134.6325  150.0186 C   0  0  0  0  0  0  0  0  0  0  0  0
  144.1806  133.2364  150.6497 C   0  0  0  0  0  0  0  0  0  0  0  0
  144.3337  133.3264  152.1768 C   0  0  0  0  0  0  0  0  0  0  0  0
  145.5299  134.2137  152.5823 C   0  0  1  0  0  0  0  0  0  0  0  0
  146.7667  133.6434  152.1626 O   0  0  0  0  0  0  0  0  0  0  0  0
  147.1485  132.4467  152.8278 C   0  0  0  0  0  0  0  0  0  0  0  0
  148.6646  132.2695  152.7749 C   0  0  0  0  0  0  0  0  0  0  0  0
  148.8885  130.7639  152.9546 C   0  0  0  0  0  0  0  0  0  0  0  0
  147.5810  130.0810  152.5208 C   0  0  0  0  0  0  0  0  0  0  0  0
  146.6286  131.2062  152.1008 C   0  0  0  0  0  0  0  0  0  0  0  0
  149.4050  139.2525  154.4698 C   0  0  0  0  0  0  0  0  0  0  0  0
  150.1045  138.2365  154.4751 O   0  0  0  0  0  0  0  0  0  0  0  0
  151.2930  141.3793  156.2872 H   0  0  0  0  0  0  0  0  0  0  0  0
  151.9022  140.1781  155.1602 H   0  0  0  0  0  0  0  0  0  0  0  0
  151.0817  139.6703  156.6405 H   0  0  0  0  0  0  0  0  0  0  0  0
  149.4429  142.3845  155.6954 H   0  0  0  0  0  0  0  0  0  0  0  0
  147.2525  142.5313  154.5421 H   0  0  0  0  0  0  0  0  0  0  0  0
  146.4055  140.5306  153.3315 H   0  0  0  0  0  0  0  0  0  0  0  0
  148.4802  137.6449  152.6632 H   0  0  0  0  0  0  0  0  0  0  0  0
  147.4585  136.1189  151.9939 H   0  0  0  0  0  0  0  0  0  0  0  0
  144.5047  136.0958  152.3339 H   0  0  0  0  0  0  0  0  0  0  0  0
  145.1209  136.5193  149.9895 H   0  0  0  0  0  0  0  0  0  0  0  0
  146.1690  135.1219  149.9727 H   0  0  0  0  0  0  0  0  0  0  0  0
  143.1361  135.1033  150.3396 H   0  0  0  0  0  0  0  0  0  0  0  0
  144.0103  134.5462  148.9330 H   0  0  0  0  0  0  0  0  0  0  0  0
  143.3001  132.6438  150.4002 H   0  0  0  0  0  0  0  0  0  0  0  0
  145.0366  132.7106  150.2250 H   0  0  0  0  0  0  0  0  0  0  0  0
  143.4210  133.7465  152.6006 H   0  0  0  0  0  0  0  0  0  0  0  0
  144.4267  132.3289  152.6050 H   0  0  0  0  0  0  0  0  0  0  0  0
  145.5395  134.3263  153.6678 H   0  0  0  0  0  0  0  0  0  0  0  0
  146.8288  132.4247  153.8717 H   0  0  0  0  0  0  0  0  0  0  0  0
  149.0358  132.5749  151.7954 H   0  0  0  0  0  0  0  0  0  0  0  0
  149.1836  132.8671  153.5250 H   0  0  0  0  0  0  0  0  0  0  0  0
  149.7436  130.4173  152.3733 H   0  0  0  0  0  0  0  0  0  0  0  0
  149.0927  130.5371  154.0019 H   0  0  0  0  0  0  0  0  0  0  0  0
  147.7402  129.3707  151.7090 H   0  0  0  0  0  0  0  0  0  0  0  0
  147.1591  129.5274  153.3605 H   0  0  0  0  0  0  0  0  0  0  0  0
  145.5875  130.9818  152.3321 H   0  0  0  0  0  0  0  0  0  0  0  0
  146.7007  131.3576  151.0228 H   0  0  0  0  0  0  0  0  0  0  0  0
  1  2  1  0  0  0  0
  1 25  1  0  0  0  0
  1 26  1  0  0  0  0
  1 27  1  0  0  0  0
  2 23  1  0  0  0  0
  2  3  1  0  0  0  0
  3  4  2  0  0  0  0
  3 28  1  0  0  0  0
  4  5  1  0  0  0  0
  4 29  1  0  0  0  0
  5  6  2  0  0  0  0
  5 30  1  0  0  0  0
  6  7  1  0  0  0  0
  6 23  1  0  0  0  0
  7  8  1  0  0  0  0
  7 31  1  0  0  0  0
  8  9  2  0  0  0  0
  8 10  1  0  0  0  0
 10 11  1  0  0  0  0
 10 32  1  0  0  0  0
 11 16  1  0  0  0  0
 11 12  1  0  0  0  0
 11 33  1  0  0  0  0
 12 13  1  0  0  0  0
 12 34  1  0  0  0  0
 12 35  1  0  0  0  0
 13 14  1  0  0  0  0
 13 36  1  0  0  0  0
 13 37  1  0  0  0  0
 14 15  1  0  0  0  0
 14 38  1  0  0  0  0
 14 39  1  0  0  0  0
 15 16  1  0  0  0  0
 15 40  1  0  0  0  0
 15 41  1  0  0  0  0
 16 17  1  0  0  0  0
 16 42  1  0  0  0  0
 17 18  1  0  0  0  0
 18 22  1  0  0  0  0
 18 19  1  0  0  0  0
 18 43  1  0  0  0  0
 19 20  1  0  0  0  0
 19 44  1  0  0  0  0
 19 45  1  0  0  0  0
 20 21  1  0  0  0  0
 20 46  1  0  0  0  0
 20 47  1  0  0  0  0
 21 22  1  0  0  0  0
 21 48  1  0  0  0  0
 21 49  1  0  0  0  0
 22 50  1  0  0  0  0
 22 51  1  0  0  0  0
 23 24  2  0  0  0  0
M  END
> <s_m_source_file>
AV-unprocessed.smi

> <i_m_source_file_index>
2477

> <i_lp_mmshare_version>
43012

> <i_f3d_flags>
0

> <s_epik_input>
W0NIM11uMVtjSF1bY0hdW2NIXWMoYzE9TylbTkhdQyg9TylbTkhdW0NAQEhdMltDSDJdW0NIMl1bQ0gyXVtDSDJdW0NASF0yT1tDSF0zW0NIMl1bQ0gyXVtDSDJdW0NIMl0z

> <s_epik_cmdline>
J2VwaWtfcHl0aG9uJywgJy1waCcsICc3LjAnLCAnLXRuJywgJzgnLCAnLW1hJywgJzIwMCcsICctbWV0YWxfYmluZGluZycsICctaW1hZScsICc8aW5maWxlLm1hZT4nLCAnLW9tYWUnLCAnPG91dGZpbGUubWFlPic=

> <r_lp_tautomer_probability>
1

> <r_epik_Ionization_Penalty>
2.40753e-05

> <r_epik_Ionization_Penalty_Charging>
4.84018e-06

> <r_epik_Ionization_Penalty_Neutral>
1.92352e-05

> <r_epik_State_Penalty>
-0

> <r_epik_Charging_Adjusted_Penalty>
4.84018e-06

> <i_epik_Tot_Q>
0

> <i_epik_Tot_abs_Q>
0

> <r_epik_Metal_State_Penalty>
-0

> <b_epik_Metal_Only>
0

> <s_lp_Force_Field>
OPLS_2005

> <r_lp_Energy>
43.088

> <b_lp_Chiralities_Consistent>
1

> <s_lp_Variant>
AV-unprocessed.smi:2477-2

> <Gold.Version>
5.8.1

> <Gold.Id.Protein>
6NUR|6NUR_protein|mol2

> <Gold.PLP.Fitness>
45.2992

> <Gold.PLP.PLP>
-37.6136

> <Gold.PLP.part.hbond>
-2.1794

> <Gold.PLP.part.metal>
0.0000

> <Gold.PLP.part.buried>
3.3309

> <Gold.PLP.part.nonpolar>
-41.1914

> <Gold.PLP.part.repulsive>
2.2438

> <Gold.PLP.ligand.clash>
0.0000

> <Gold.PLP.ligand.torsion>
0.6238

> <Gold.PLP.Chemscore.Hbond>
1.9673

> <Gold.PLP.Chemscore.CHOScore>
1.0000

> <Gold.PLP.Chemscore.Metal>
0.0000

> <Gold.Chemscore.Hbonds>
donor molecule, donor type, donor heavy atom, donor atom, acceptor molecule, acceptor atom, score
      L1  H     7    31       P1  7948  0.94
      L1  H    10    32       P1  7948  0.88
      L1  C     3    28       P1  8028  1.00

> <Gold.PLP.Chemscore.Internal.Correction>
0.0315

> <Gold.Rescore>
     Score         DG    S(hbond)    S(metal)    S(lipo)     H(rot)  DE(clash)    DE(int)     intcor
     17.95     -18.92       1.93        0.00      89.39       1.36       0.27       0.71       ----

> <Gold.Chemscore.Fitness>
17.9491

> <Gold.Chemscore.DG>
-18.9232

> <Gold.Chemscore.ZeroCoef>
-5.4800

> <Gold.Chemscore.Hbond>
1.9333

> <Gold.Chemscore.Metal>
0.0000

> <Gold.Chemscore.Lipo>
89.3875

> <Gold.Chemscore.Internal_Hbond>
0.0000

> <Gold.Chemscore.DEClash>
0.2678

> <Gold.Chemscore.DEInternal>
0.7063

> <Gold.Chemscore.Rot>
1.3564

> <Gold.Chemscore.Internal.Correction>
   9.000000E+99

> <Gold.Chemscore.Hbonds>
donor molecule, donor type, donor heavy atom, donor atom, acceptor molecule, acceptor atom, score
      L1  H     7    31       P1  7948  0.91
      L1  H    10    32       P1  7948  0.84

> <Gold.Chemscore.Hbond.Weighted>
-6.4573

> <Gold.Chemscore.Metal.Weighted>
-0.0000

> <Gold.Chemscore.Lipo.Weighted>
-10.4583

> <Gold.Chemscore.Internal_Hbond.Weighted>
0.0000

> <Gold.Chemscore.DEClash.Weighted>
0.2678

> <Gold.Chemscore.DEInternal.Weighted>
0.7063

> <Gold.Chemscore.Rot.Weighted>
3.4724

> <Gold.Chemscore.Internal.Correction.Weighted>
   9.000000E+99

> <Gold.Protein.RotatedTorsions>
[ 6907 6896 6895 6894 ] final   41.45 input  -60.11 | X-H torsion
[ 7974 7965 7964 7962 ] final   98.95 input  175.53 | X-H torsion
[ 8008 7997 7996 7995 ] final  168.68 input   59.86 | X-H torsion
[ 10167 10162 10161 10158 ] final  -31.14 input  -65.29 | X-H torsion
[ 10718 10713 10712 10709 ] final  148.45 input   66.30 | X-H torsion
[ 10763 10752 10751 10750 ] final   43.03 input  -60.55 | X-H torsion
[ 11005 11000 10999 10996 ] final   26.24 input  -57.11 | X-H torsion

> <Gold.Protein.ActiveResidues>
 VAL166  LYS551  ARG553  GLY616  TRP617  ASP618  TYR619  PRO620  LYS621  CYS622 
 ASP623  PHE694  ASN695  SER759  ASP760  ASP761  ALA762  ILE779  LEU786  VAL792 
 PHE793  MET794  SER795  GLU796  ALA797  LYS798  CYS799  TRP800  GLU811  SER814 

> <Gold.Protein.RotatedAtoms>
  152.1954  134.8635  160.0513 H   0  0  0  0  0  0  0  0  0  0  0  0  # atno 6907 bound_to 6896
  151.9508  133.3660  159.4007 H   0  0  0  0  0  0  0  0  0  0  0  0  # atno 6908 bound_to 6896
  150.6943  134.4266  159.5273 H   0  0  0  0  0  0  0  0  0  0  0  0  # atno 6909 bound_to 6896
  145.4053  139.2341  143.3277 H   0  0  0  0  0  0  0  0  0  0  0  0  # atno 7974 bound_to 7965
  156.1525  140.1584  156.8746 H   0  0  0  0  0  0  0  0  0  0  0  0  # atno 8008 bound_to 7997
  154.5085  140.0807  156.7978 H   0  0  0  0  0  0  0  0  0  0  0  0  # atno 8009 bound_to 7997
  155.3867  140.3408  155.4251 H   0  0  0  0  0  0  0  0  0  0  0  0  # atno 8010 bound_to 7997
  140.7240  143.3794  151.1629 H   0  0  0  0  0  0  0  0  0  0  0  0  # atno 10167 bound_to 10162
  157.3085  131.0883  151.1335 H   0  0  0  0  0  0  0  0  0  0  0  0  # atno 10718 bound_to 10713
  152.9869  135.6114  154.3046 H   0  0  0  0  0  0  0  0  0  0  0  0  # atno 10763 bound_to 10752
  154.2764  135.2778  155.2718 H   0  0  0  0  0  0  0  0  0  0  0  0  # atno 10764 bound_to 10752
  154.5076  135.5849  153.6636 H   0  0  0  0  0  0  0  0  0  0  0  0  # atno 10765 bound_to 10752
  140.3391  134.2353  155.7692 H   0  0  0  0  0  0  0  0  0  0  0  0  # atno 11005 bound_to 11000
  146.2732  140.4757  142.8806 LP  0  0  0  0  0  0  0  0  0  0  0  0  # atno 17320 bound_to 7965
  144.8346  140.6761  143.6269 LP  0  0  0  0  0  0  0  0  0  0  0  0  # atno 17321 bound_to 7965
  139.7380  143.8968  152.3041 LP  0  0  0  0  0  0  0  0  0  0  0  0  # atno 17342 bound_to 10162
  139.8780  144.7033  150.8911 LP  0  0  0  0  0  0  0  0  0  0  0  0  # atno 17343 bound_to 10162
  157.2666  130.6684  149.6000 LP  0  0  0  0  0  0  0  0  0  0  0  0  # atno 17370 bound_to 10713
  155.9676  130.4492  150.5649 LP  0  0  0  0  0  0  0  0  0  0  0  0  # atno 17371 bound_to 10713
  141.2043  133.7889  157.0293 LP  0  0  0  0  0  0  0  0  0  0  0  0  # atno 17394 bound_to 11000
  140.0796  134.9656  157.1602 LP  0  0  0  0  0  0  0  0  0  0  0  0  # atno 17395 bound_to 11000

$$$$
