AV-unprocessed.smi:1010|AV-procd|sdf|4417|dock10
  -GOLD-   22720 2363D 1   1.00000     0.00000
 Structure written by MMmdl.
 54 56  0  0  0  0  0  0  0  0  1 V2000
  147.3787  138.5306  155.6104 C   0  0  0  0  0  0  0  0  0  0  0  0
  148.5422  138.8044  154.7657 N   0  0  0  0  0  0  0  0  0  0  0  0
  148.4204  140.1858  154.2963 C   0  0  0  0  0  0  0  0  0  0  0  0
  149.8778  138.4425  155.3207 C   0  0  0  0  0  0  0  0  0  0  0  0
  149.7979  136.9721  155.8403 C   0  0  0  0  0  0  0  0  0  0  0  0
  149.3118  136.0494  154.8196 N   0  0  0  0  0  0  0  0  0  0  0  0
  149.1806  134.7286  154.9874 C   0  0  0  0  0  0  0  0  0  0  0  0
  149.4419  134.1479  156.0409 O   0  0  0  0  0  0  0  0  0  0  0  0
  148.7526  134.1407  153.8583 N   0  0  0  0  0  0  0  0  0  0  0  0
  148.5393  132.7561  153.6064 C   0  0  0  0  0  0  0  0  0  0  0  0
  149.3484  131.7578  154.2029 C   0  0  0  0  0  0  0  0  0  0  0  0
  149.1087  130.4056  153.9042 C   0  0  0  0  0  0  0  0  0  0  0  0
  148.0626  130.0964  153.0197 C   0  0  0  0  0  0  0  0  0  0  0  0
  147.2703  131.0321  152.4600 N   0  0  0  0  0  0  0  0  0  0  0  0
  147.4790  132.3405  152.7496 C   0  0  0  0  0  0  0  0  0  0  0  0
  146.6042  133.2733  152.1458 N   0  0  0  0  0  0  0  0  0  0  0  0
  146.6867  133.5494  150.7155 C   0  0  0  0  0  0  0  0  0  0  0  0
  145.3926  134.2847  150.3797 C   0  0  0  0  0  0  0  0  0  0  0  0
  144.3848  133.6098  151.3052 C   0  0  0  0  0  0  0  0  0  0  0  0
  145.2040  133.2828  152.5584 C   0  0  0  0  0  0  0  0  0  0  0  0
  150.9958  138.5715  154.2488 C   0  0  0  0  0  0  0  0  0  0  0  0
  152.4087  138.4281  154.8481 C   0  0  0  0  0  0  0  0  0  0  0  0
  152.6053  139.3690  155.8958 O   0  0  0  0  0  0  0  0  0  0  0  0
  151.7067  139.1864  156.9825 C   0  0  0  0  0  0  0  0  0  0  0  0
  150.2612  139.3940  156.4953 C   0  0  0  0  0  0  0  0  0  0  0  0
  147.2486  137.4646  155.7902 H   0  0  0  0  0  0  0  0  0  0  0  0
  146.4630  138.8581  155.1166 H   0  0  0  0  0  0  0  0  0  0  0  0
  147.4361  139.0458  156.5688 H   0  0  0  0  0  0  0  0  0  0  0  0
  149.1812  140.4485  153.5645 H   0  0  0  0  0  0  0  0  0  0  0  0
  148.4730  140.8970  155.1208 H   0  0  0  0  0  0  0  0  0  0  0  0
  147.4605  140.3319  153.7997 H   0  0  0  0  0  0  0  0  0  0  0  0
  150.7630  136.6256  156.2093 H   0  0  0  0  0  0  0  0  0  0  0  0
  149.1354  136.8924  156.7007 H   0  0  0  0  0  0  0  0  0  0  0  0
  149.0842  136.4464  153.9197 H   0  0  0  0  0  0  0  0  0  0  0  0
  148.6737  134.7414  153.0509 H   0  0  0  0  0  0  0  0  0  0  0  0
  150.1433  132.0058  154.8895 H   0  0  0  0  0  0  0  0  0  0  0  0
  149.7142  129.6256  154.3414 H   0  0  0  0  0  0  0  0  0  0  0  0
  147.8500  129.0699  152.7604 H   0  0  0  0  0  0  0  0  0  0  0  0
  147.5665  134.1474  150.4767 H   0  0  0  0  0  0  0  0  0  0  0  0
  146.7350  132.6215  150.1442 H   0  0  0  0  0  0  0  0  0  0  0  0
  145.4853  135.3410  150.6363 H   0  0  0  0  0  0  0  0  0  0  0  0
  145.1228  134.2120  149.3259 H   0  0  0  0  0  0  0  0  0  0  0  0
  143.5169  134.2343  151.5182 H   0  0  0  0  0  0  0  0  0  0  0  0
  144.0296  132.6857  150.8469 H   0  0  0  0  0  0  0  0  0  0  0  0
  144.8980  132.3327  152.9984 H   0  0  0  0  0  0  0  0  0  0  0  0
  145.0632  134.0640  153.3055 H   0  0  0  0  0  0  0  0  0  0  0  0
  150.8718  137.8254  153.4637 H   0  0  0  0  0  0  0  0  0  0  0  0
  150.9428  139.5427  153.7577 H   0  0  0  0  0  0  0  0  0  0  0  0
  152.5875  137.4166  155.2139 H   0  0  0  0  0  0  0  0  0  0  0  0
  153.1557  138.6120  154.0759 H   0  0  0  0  0  0  0  0  0  0  0  0
  151.8523  138.2085  157.4413 H   0  0  0  0  0  0  0  0  0  0  0  0
  151.9439  139.9223  157.7509 H   0  0  0  0  0  0  0  0  0  0  0  0
  150.2186  140.4366  156.1856 H   0  0  0  0  0  0  0  0  0  0  0  0
  149.5646  139.2947  157.3283 H   0  0  0  0  0  0  0  0  0  0  0  0
  1  2  1  0  0  0  0
  1 26  1  0  0  0  0
  1 27  1  0  0  0  0
  1 28  1  0  0  0  0
  2  3  1  0  0  0  0
  2  4  1  0  0  0  0
  3 29  1  0  0  0  0
  3 30  1  0  0  0  0
  3 31  1  0  0  0  0
  4 25  1  0  0  0  0
  4  5  1  0  0  0  0
  4 21  1  0  0  0  0
  5  6  1  0  0  0  0
  5 32  1  0  0  0  0
  5 33  1  0  0  0  0
  6  7  1  0  0  0  0
  6 34  1  0  0  0  0
  7  8  2  0  0  0  0
  7  9  1  0  0  0  0
  9 10  1  0  0  0  0
  9 35  1  0  0  0  0
 10 15  1  0  0  0  0
 10 11  2  0  0  0  0
 11 12  1  0  0  0  0
 11 36  1  0  0  0  0
 12 13  2  0  0  0  0
 12 37  1  0  0  0  0
 13 14  1  0  0  0  0
 13 38  1  0  0  0  0
 14 15  2  0  0  0  0
 15 16  1  0  0  0  0
 16 20  1  0  0  0  0
 16 17  1  0  0  0  0
 17 18  1  0  0  0  0
 17 39  1  0  0  0  0
 17 40  1  0  0  0  0
 18 19  1  0  0  0  0
 18 41  1  0  0  0  0
 18 42  1  0  0  0  0
 19 20  1  0  0  0  0
 19 43  1  0  0  0  0
 19 44  1  0  0  0  0
 20 45  1  0  0  0  0
 20 46  1  0  0  0  0
 21 22  1  0  0  0  0
 21 47  1  0  0  0  0
 21 48  1  0  0  0  0
 22 23  1  0  0  0  0
 22 49  1  0  0  0  0
 22 50  1  0  0  0  0
 23 24  1  0  0  0  0
 24 25  1  0  0  0  0
 24 51  1  0  0  0  0
 24 52  1  0  0  0  0
 25 53  1  0  0  0  0
 25 54  1  0  0  0  0
M  END
> <s_m_source_file>
AV-unprocessed.smi

> <i_m_source_file_index>
1010

> <i_lp_mmshare_version>
43012

> <i_f3d_flags>
0

> <s_epik_input>
W0NIMl0xW0NIMl1PW0NIMl1bQ0gyXUMxKE4oW0NIM10pW0NIM10pW0NIMl1bTkhdQyg9TylbTkhdYzJbY0hdW2NIXVtjSF1uYzJOM1tDSDJdW0NIMl1bQ0gyXVtDSDJdMw==

> <s_epik_cmdline>
J2VwaWtfcHl0aG9uJywgJy1waCcsICc3LjAnLCAnLXRuJywgJzgnLCAnLW1hJywgJzIwMCcsICctbWV0YWxfYmluZGluZycsICctaW1hZScsICc8aW5maWxlLm1hZT4nLCAnLW9tYWUnLCAnPG91dGZpbGUubWFlPic=

> <r_lp_tautomer_probability>
1

> <r_epik_Ionization_Penalty>
2.38232

> <r_epik_Ionization_Penalty_Charging>
0

> <r_epik_Ionization_Penalty_Neutral>
2.38232

> <r_epik_State_Penalty>
2.49988

> <r_epik_Charging_Adjusted_Penalty>
2.49988

> <i_epik_Tot_Q>
0

> <i_epik_Tot_abs_Q>
0

> <r_epik_Metal_State_Penalty>
2.47138

> <b_epik_Metal_Only>
0

> <s_lp_Force_Field>
OPLS_2005

> <r_lp_Energy>
56.3274

> <b_lp_Chiralities_Consistent>
1

> <s_lp_Variant>
AV-unprocessed.smi:1010-3

> <Gold.Version>
5.8.1

> <Gold.Id.Protein>
6NUR|6NUR_protein|mol2

> <Gold.PLP.Fitness>
45.3177

> <Gold.PLP.PLP>
-37.0902

> <Gold.PLP.part.hbond>
-3.0000

> <Gold.PLP.part.metal>
0.0000

> <Gold.PLP.part.buried>
-4.6032

> <Gold.PLP.part.nonpolar>
-29.2473

> <Gold.PLP.part.repulsive>
1.0720

> <Gold.PLP.ligand.clash>
0.0000

> <Gold.PLP.ligand.torsion>
0.5285

> <Gold.PLP.Chemscore.Hbond>
2.9600

> <Gold.PLP.Chemscore.CHOScore>
0.0000

> <Gold.PLP.Chemscore.Metal>
0.0000

> <Gold.Chemscore.Hbonds>
donor molecule, donor type, donor heavy atom, donor atom, acceptor molecule, acceptor atom, score
      L1  H     6    34       P1  7948  0.92
      L1  H     9    35       P1  7948  1.00
      P1  H  7997  8008       L1    23  0.56

> <Gold.PLP.Chemscore.Internal.Correction>
0.4045

> <Gold.Rescore>
     Score         DG    S(hbond)    S(metal)    S(lipo)     H(rot)  DE(clash)    DE(int)     intcor
     16.97     -18.61       2.11        0.00      85.50       1.54       0.10       1.54       ----

> <Gold.Chemscore.Fitness>
16.9726

> <Gold.Chemscore.DG>
-18.6116

> <Gold.Chemscore.ZeroCoef>
-5.4800

> <Gold.Chemscore.Hbond>
2.1139

> <Gold.Chemscore.Metal>
0.0000

> <Gold.Chemscore.Lipo>
85.5031

> <Gold.Chemscore.Internal_Hbond>
0.0000

> <Gold.Chemscore.DEClash>
0.1018

> <Gold.Chemscore.DEInternal>
1.5372

> <Gold.Chemscore.Rot>
1.5362

> <Gold.Chemscore.Internal.Correction>
   9.000000E+99

> <Gold.Chemscore.Hbonds>
donor molecule, donor type, donor heavy atom, donor atom, acceptor molecule, acceptor atom, score
      L1  H     6    34       P1  7948  0.82
      L1  H     9    35       P1  7948  0.30
      P1  H  7997  8008       L1    23  0.40

> <Gold.Chemscore.Hbond.Weighted>
-7.0603

> <Gold.Chemscore.Metal.Weighted>
-0.0000

> <Gold.Chemscore.Lipo.Weighted>
-10.0039

> <Gold.Chemscore.Internal_Hbond.Weighted>
0.0000

> <Gold.Chemscore.DEClash.Weighted>
0.1018

> <Gold.Chemscore.DEInternal.Weighted>
1.5372

> <Gold.Chemscore.Rot.Weighted>
3.9326

> <Gold.Chemscore.Internal.Correction.Weighted>
   9.000000E+99

> <Gold.Protein.RotatedTorsions>
[ 6907 6896 6895 6894 ] final -152.67 input  -60.11 | X-H torsion
[ 7974 7965 7964 7962 ] final   76.21 input  175.53 | X-H torsion
[ 8008 7997 7996 7995 ] final   -4.64 input   59.86 | X-H torsion
[ 10167 10162 10161 10158 ] final   67.98 input  -65.29 | X-H torsion
[ 10718 10713 10712 10709 ] final  164.46 input   66.30 | X-H torsion
[ 10763 10752 10751 10750 ] final -154.66 input  -60.55 | X-H torsion
[ 11005 11000 10999 10996 ] final  -48.30 input  -57.11 | X-H torsion

> <Gold.Protein.ActiveResidues>
 VAL166  LYS551  ARG553  GLY616  TRP617  ASP618  TYR619  PRO620  LYS621  CYS622 
 ASP623  PHE694  ASN695  SER759  ASP760  ASP761  ALA762  ILE779  LEU786  VAL792 
 PHE793  MET794  SER795  GLU796  ALA797  LYS798  CYS799  TRP800  GLU811  SER814 

> <Gold.Protein.RotatedAtoms>
  151.2313  133.4449  159.2603 H   0  0  0  0  0  0  0  0  0  0  0  0  # atno 6907 bound_to 6896
  151.0792  134.9847  159.8357 H   0  0  0  0  0  0  0  0  0  0  0  0  # atno 6908 bound_to 6896
  152.5422  134.2253  159.8856 H   0  0  0  0  0  0  0  0  0  0  0  0  # atno 6909 bound_to 6896
  145.7057  139.2597  143.1679 H   0  0  0  0  0  0  0  0  0  0  0  0  # atno 7974 bound_to 7965
  154.6122  140.2479  155.7655 H   0  0  0  0  0  0  0  0  0  0  0  0  # atno 8008 bound_to 7997
  156.2377  140.2944  156.0308 H   0  0  0  0  0  0  0  0  0  0  0  0  # atno 8009 bound_to 7997
  155.2034  140.0395  157.2911 H   0  0  0  0  0  0  0  0  0  0  0  0  # atno 8010 bound_to 7997
  140.0836  144.5049  150.7145 H   0  0  0  0  0  0  0  0  0  0  0  0  # atno 10167 bound_to 10162
  157.0940  131.0425  151.2525 H   0  0  0  0  0  0  0  0  0  0  0  0  # atno 10718 bound_to 10713
  154.7843  135.3185  154.7921 H   0  0  0  0  0  0  0  0  0  0  0  0  # atno 10763 bound_to 10752
  153.8624  135.6852  153.4786 H   0  0  0  0  0  0  0  0  0  0  0  0  # atno 10764 bound_to 10752
  153.1489  135.4707  154.9546 H   0  0  0  0  0  0  0  0  0  0  0  0  # atno 10765 bound_to 10752
  141.0692  133.6684  156.3421 H   0  0  0  0  0  0  0  0  0  0  0  0  # atno 11005 bound_to 11000
  146.0758  140.7819  142.9666 LP  0  0  0  0  0  0  0  0  0  0  0  0  # atno 17320 bound_to 7965
  144.6956  140.3412  143.7199 LP  0  0  0  0  0  0  0  0  0  0  0  0  # atno 17321 bound_to 7965
  140.7065  143.2472  151.4711 LP  0  0  0  0  0  0  0  0  0  0  0  0  # atno 17342 bound_to 10162
  139.5765  144.1807  152.1910 LP  0  0  0  0  0  0  0  0  0  0  0  0  # atno 17343 bound_to 10162
  157.4697  130.7701  149.7312 LP  0  0  0  0  0  0  0  0  0  0  0  0  # atno 17370 bound_to 10713
  155.9890  130.3954  150.3091 LP  0  0  0  0  0  0  0  0  0  0  0  0  # atno 17371 bound_to 10713
  140.5708  134.5842  157.5457 LP  0  0  0  0  0  0  0  0  0  0  0  0  # atno 17394 bound_to 11000
  139.9507  134.7622  156.0456 LP  0  0  0  0  0  0  0  0  0  0  0  0  # atno 17395 bound_to 11000

$$$$
