AV-unprocessed.smi:3105|AV-procd|sdf|11821|dock5
  -GOLD-   2272017193D 1   1.00000     0.00000
 Structure written by MMmdl.
 34 34  0  0  0  0  0  0  0  0  2 V2000
  150.9620  138.3619  154.1412 C   0  0  0  0  0  0  0  0  0  0  0  0
  149.5989  139.0502  154.3665 C   0  0  2  0  0  0  0  0  0  0  0  0
  148.6904  138.7579  153.2341 N   0  3  0  0  0  0  0  0  0  0  0  0
  147.2581  138.6262  153.5847 C   0  0  0  0  0  0  0  0  0  0  0  0
  146.3917  138.2860  152.3555 C   0  0  0  0  0  0  0  0  0  0  0  0
  145.5305  137.0250  152.5112 C   0  0  0  0  0  0  0  0  0  0  0  0
  144.2076  137.1943  152.4519 N   0  0  0  0  0  0  0  0  0  0  0  0
  146.0386  135.9178  152.6807 O   0  0  0  0  0  0  0  0  0  0  0  0
  149.7236  140.5866  154.5522 C   0  0  1  0  0  0  0  0  0  0  0  0
  148.3601  141.3024  154.4872 C   0  0  0  0  0  0  0  0  0  0  0  0
  150.4157  140.9412  155.7855 N   0  0  0  0  0  0  0  0  0  0  0  0
  150.0036  141.8088  156.7762 C   0  0  0  0  0  0  0  0  0  0  0  0
  150.9757  141.8261  157.7348 C   0  0  0  0  0  0  0  0  0  0  0  0
  151.9571  140.9241  157.2379 C   0  0  0  0  0  0  0  0  0  0  0  0
  151.6205  140.3969  156.0720 N   0  0  0  0  0  0  0  0  0  0  0  0
  151.6314  138.4999  154.9903 H   0  0  0  0  0  0  0  0  0  0  0  0
  151.4618  138.7599  153.2574 H   0  0  0  0  0  0  0  0  0  0  0  0
  150.8573  137.2863  154.0039 H   0  0  0  0  0  0  0  0  0  0  0  0
  149.1542  138.6382  155.2740 H   0  0  0  0  0  0  0  0  0  0  0  0
  148.7678  139.5186  152.5742 H   0  0  0  0  0  0  0  0  0  0  0  0
  147.1220  137.8649  154.3532 H   0  0  0  0  0  0  0  0  0  0  0  0
  146.9166  139.5679  154.0160 H   0  0  0  0  0  0  0  0  0  0  0  0
  145.7244  139.1247  152.1529 H   0  0  0  0  0  0  0  0  0  0  0  0
  147.0236  138.1755  151.4732 H   0  0  0  0  0  0  0  0  0  0  0  0
  143.5886  136.4013  152.5417 H   0  0  0  0  0  0  0  0  0  0  0  0
  143.8272  138.1194  152.3106 H   0  0  0  0  0  0  0  0  0  0  0  0
  150.3342  140.9727  153.7342 H   0  0  0  0  0  0  0  0  0  0  0  0
  147.8748  141.1560  153.5224 H   0  0  0  0  0  0  0  0  0  0  0  0
  148.4767  142.3774  154.6294 H   0  0  0  0  0  0  0  0  0  0  0  0
  147.6792  140.9396  155.2581 H   0  0  0  0  0  0  0  0  0  0  0  0
  149.0638  142.3381  156.7176 H   0  0  0  0  0  0  0  0  0  0  0  0
  150.9844  142.3962  158.6520 H   0  0  0  0  0  0  0  0  0  0  0  0
  152.8977  140.6393  157.6861 H   0  0  0  0  0  0  0  0  0  0  0  0
  148.9992  137.9091  152.7815 H   0  0  0  0  0  0  0  0  0  0  0  0
  1  2  1  0  0  0  0
  1 16  1  0  0  0  0
  1 17  1  0  0  0  0
  1 18  1  0  0  0  0
  2  3  1  0  0  0  0
  2  9  1  0  0  0  0
  2 19  1  0  0  0  0
  3  4  1  0  0  0  0
  3 20  1  0  0  0  0
  3 34  1  0  0  0  0
  4  5  1  0  0  0  0
  4 21  1  0  0  0  0
  4 22  1  0  0  0  0
  5  6  1  0  0  0  0
  5 23  1  0  0  0  0
  5 24  1  0  0  0  0
  6  7  1  0  0  0  0
  6  8  2  0  0  0  0
  7 25  1  0  0  0  0
  7 26  1  0  0  0  0
  9 10  1  0  0  0  0
  9 11  1  0  0  0  0
  9 27  1  0  0  0  0
 10 28  1  0  0  0  0
 10 29  1  0  0  0  0
 10 30  1  0  0  0  0
 11 15  1  0  0  0  0
 11 12  1  0  0  0  0
 12 13  2  0  0  0  0
 12 31  1  0  0  0  0
 13 14  1  0  0  0  0
 13 32  1  0  0  0  0
 14 15  2  0  0  0  0
 14 33  1  0  0  0  0
M  CHG  1   3   1
M  END
> <s_m_source_file>
AV-unprocessed.smi

> <i_m_source_file_index>
3105

> <i_lp_mmshare_version>
43012

> <i_f3d_flags>
0

> <s_epik_input>
W05IMl1DKD1PKVtDSDJdW0NIMl1bTkhdW0NAQEhdKFtDSDNdKVtDQEhdKFtDSDNdKW4xW2NIXVtjSF1bY0hdbjE=

> <s_epik_cmdline>
J2VwaWtfcHl0aG9uJywgJy1waCcsICc3LjAnLCAnLXRuJywgJzgnLCAnLW1hJywgJzIwMCcsICctbWV0YWxfYmluZGluZycsICctaW1hZScsICc8aW5maWxlLm1hZT4nLCAnLW9tYWUnLCAnPG91dGZpbGUubWFlPic=

> <r_lp_tautomer_probability>
1

> <r_epik_Ionization_Penalty>
0.00475669

> <r_epik_Ionization_Penalty_Charging>
0.00474654

> <r_epik_Ionization_Penalty_Neutral>
1.01546e-05

> <r_epik_State_Penalty>
-0

> <r_epik_Charging_Adjusted_Penalty>
0.00474654

> <i_epik_Tot_Q>
1

> <i_epik_Tot_abs_Q>
1

> <r_epik_Metal_State_Penalty>
-0

> <b_epik_Metal_Only>
0

> <s_lp_Force_Field>
OPLS_2005

> <r_lp_Energy>
6.92169

> <b_lp_Chiralities_Consistent>
1

> <s_lp_Variant>
AV-unprocessed.smi:3105-3

> <Gold.Version>
5.8.1

> <Gold.Id.Protein>
6NUR|6NUR_protein|mol2

> <Gold.PLP.Fitness>
44.5377

> <Gold.PLP.PLP>
-31.3651

> <Gold.PLP.part.hbond>
-3.9679

> <Gold.PLP.part.metal>
0.0000

> <Gold.PLP.part.buried>
-3.1186

> <Gold.PLP.part.nonpolar>
-25.9908

> <Gold.PLP.part.repulsive>
0.2651

> <Gold.PLP.ligand.clash>
0.0000

> <Gold.PLP.ligand.torsion>
0.9792

> <Gold.PLP.Chemscore.Hbond>
4.0000

> <Gold.PLP.Chemscore.CHOScore>
1.0000

> <Gold.PLP.Chemscore.Metal>
0.0000

> <Gold.Chemscore.Hbonds>
donor molecule, donor type, donor heavy atom, donor atom, acceptor molecule, acceptor atom, score
      L1  H     3    20       P1  7957  0.86
      L1  H     3    34       P1  7948  2.00
      L1  H     7    26       P1 10175  0.26
      L1  C    12    31       P1  8028  0.68

> <Gold.PLP.Chemscore.Internal.Correction>
0.1310

> <Gold.Rescore>
     Score         DG    S(hbond)    S(metal)    S(lipo)     H(rot)  DE(clash)    DE(int)     intcor
     11.95     -15.20       2.98        0.00      60.36       2.85       0.15       3.10       ----

> <Gold.Chemscore.Fitness>
11.9502

> <Gold.Chemscore.DG>
-15.2046

> <Gold.Chemscore.ZeroCoef>
-5.4800

> <Gold.Chemscore.Hbond>
2.9797

> <Gold.Chemscore.Metal>
0.0000

> <Gold.Chemscore.Lipo>
60.3559

> <Gold.Chemscore.Internal_Hbond>
0.0000

> <Gold.Chemscore.DEClash>
0.1504

> <Gold.Chemscore.DEInternal>
3.1041

> <Gold.Chemscore.Rot>
2.8473

> <Gold.Chemscore.Internal.Correction>
   9.000000E+99

> <Gold.Chemscore.Hbonds>
donor molecule, donor type, donor heavy atom, donor atom, acceptor molecule, acceptor atom, score
      L1  H     3    20       P1  7957  0.85
      L1  H     3    34       P1  7948  0.99
      L1  H     7    26       P1 10175  0.27

> <Gold.Chemscore.Hbond.Weighted>
-9.9522

> <Gold.Chemscore.Metal.Weighted>
-0.0000

> <Gold.Chemscore.Lipo.Weighted>
-7.0616

> <Gold.Chemscore.Internal_Hbond.Weighted>
0.0000

> <Gold.Chemscore.DEClash.Weighted>
0.1504

> <Gold.Chemscore.DEInternal.Weighted>
3.1041

> <Gold.Chemscore.Rot.Weighted>
7.2892

> <Gold.Chemscore.Internal.Correction.Weighted>
   9.000000E+99

> <Gold.Protein.RotatedTorsions>
[ 6907 6896 6895 6894 ] final  107.98 input  -60.11 | X-H torsion
[ 7974 7965 7964 7962 ] final  -79.61 input  175.53 | X-H torsion
[ 8008 7997 7996 7995 ] final  -83.44 input   59.86 | X-H torsion
[ 10167 10162 10161 10158 ] final  -40.01 input  -65.29 | X-H torsion
[ 10718 10713 10712 10709 ] final  143.61 input   66.30 | X-H torsion
[ 10763 10752 10751 10750 ] final  163.10 input  -60.55 | X-H torsion
[ 11005 11000 10999 10996 ] final  117.86 input  -57.11 | X-H torsion

> <Gold.Protein.ActiveResidues>
 VAL166  LYS551  ARG553  GLY616  TRP617  ASP618  TYR619  PRO620  LYS621  CYS622 
 ASP623  PHE694  ASN695  SER759  ASP760  ASP761  ALA762  ILE779  LEU786  VAL792 
 PHE793  MET794  SER795  GLU796  ALA797  LYS798  CYS799  TRP800  GLU811  SER814 

> <Gold.Protein.RotatedAtoms>
  152.5132  133.9155  159.7508 H   0  0  0  0  0  0  0  0  0  0  0  0  # atno 6907 bound_to 6896
  150.9539  133.6510  159.2773 H   0  0  0  0  0  0  0  0  0  0  0  0  # atno 6908 bound_to 6896
  151.3779  135.0940  159.9539 H   0  0  0  0  0  0  0  0  0  0  0  0  # atno 6909 bound_to 6896
  145.5709  140.9466  143.1396 H   0  0  0  0  0  0  0  0  0  0  0  0  # atno 7974 bound_to 7965
  154.6191  140.0619  156.9592 H   0  0  0  0  0  0  0  0  0  0  0  0  # atno 8008 bound_to 7997
  155.1847  140.3302  155.4350 H   0  0  0  0  0  0  0  0  0  0  0  0  # atno 8009 bound_to 7997
  156.2421  140.1891  156.6941 H   0  0  0  0  0  0  0  0  0  0  0  0  # atno 8010 bound_to 7997
  140.7047  143.3179  151.2864 H   0  0  0  0  0  0  0  0  0  0  0  0  # atno 10167 bound_to 10162
  157.3669  131.0973  151.0864 H   0  0  0  0  0  0  0  0  0  0  0  0  # atno 10718 bound_to 10713
  154.2885  135.2761  155.2665 H   0  0  0  0  0  0  0  0  0  0  0  0  # atno 10763 bound_to 10752
  154.5155  135.5771  153.6642 H   0  0  0  0  0  0  0  0  0  0  0  0  # atno 10764 bound_to 10752
  152.9918  135.6191  154.3048 H   0  0  0  0  0  0  0  0  0  0  0  0  # atno 10765 bound_to 10752
  139.9089  134.9614  156.7415 H   0  0  0  0  0  0  0  0  0  0  0  0  # atno 11005 bound_to 11000
  144.7438  139.7375  143.7300 LP  0  0  0  0  0  0  0  0  0  0  0  0  # atno 17320 bound_to 7965
  146.1785  139.4966  142.9882 LP  0  0  0  0  0  0  0  0  0  0  0  0  # atno 17321 bound_to 7965
  139.6624  144.0166  152.2701 LP  0  0  0  0  0  0  0  0  0  0  0  0  # atno 17342 bound_to 10162
  139.9738  144.6476  150.7964 LP  0  0  0  0  0  0  0  0  0  0  0  0  # atno 17343 bound_to 10162
  157.1983  130.6383  149.5729 LP  0  0  0  0  0  0  0  0  0  0  0  0  # atno 17370 bound_to 10713
  155.9748  130.4699  150.6412 LP  0  0  0  0  0  0  0  0  0  0  0  0  # atno 17371 bound_to 10713
  140.6845  133.9445  155.7930 LP  0  0  0  0  0  0  0  0  0  0  0  0  # atno 17394 bound_to 11000
  141.0486  134.0518  157.3812 LP  0  0  0  0  0  0  0  0  0  0  0  0  # atno 17395 bound_to 11000

$$$$
