AV-unprocessed.smi:169|AV-procd|sdf|1403|dock3
  -GOLD-   2262019153D 1   1.00000     0.00000
 Structure written by MMmdl.
 56 60  0  0  0  0  0  0  0  0  2 V2000
  143.8153  137.2104  152.8490 C   0  0  0  0  0  0  0  0  0  0  0  0
  143.9563  137.7344  154.2862 C   0  0  0  0  0  0  0  0  0  0  0  0
  144.8615  138.9126  154.3985 N   0  3  1  0  0  0  0  0  0  0  0  0
  144.7678  139.6440  155.7165 C   0  0  0  0  0  0  0  0  0  0  0  0
  145.2799  138.8841  157.0016 C   0  0  0  0  0  0  0  0  0  0  0  0
  146.8376  138.7538  157.1743 C   0  0  1  0  0  0  0  0  0  0  0  0
  147.3921  137.2855  157.1799 C   0  0  0  0  0  0  0  0  0  0  0  0
  147.7774  136.9780  155.6920 C   0  0  0  0  0  0  0  0  0  0  0  0
  147.2516  138.2537  155.0296 C   0  0  3  0  0  0  0  0  0  0  0  0
  146.2605  138.6166  153.8998 C   0  0  0  0  0  0  0  0  0  0  0  0
  147.4680  139.3175  155.9934 N   0  0  0  0  0  0  0  0  0  0  0  0
  148.7173  139.8582  156.0527 C   0  0  0  0  0  0  0  0  0  0  0  0
  149.7141  139.3190  155.3018 N   0  0  0  0  0  0  0  0  0  0  0  0
  150.9469  139.8320  155.3353 C   0  0  0  0  0  0  0  0  0  0  0  0
  151.3996  140.8664  156.0441 N   0  0  0  0  0  0  0  0  0  0  0  0
  150.4120  141.4084  156.8118 C   0  0  0  0  0  0  0  0  0  0  0  0
  149.0587  140.9687  156.8809 C   0  0  0  0  0  0  0  0  0  0  0  0
  148.3590  141.7581  157.7869 N   0  0  0  0  0  0  0  0  0  0  0  0
  149.2422  142.6149  158.2202 C   0  0  0  0  0  0  0  0  0  0  0  0
  150.4990  142.4880  157.6744 N   0  0  0  0  0  0  0  0  0  0  0  0
  151.6702  143.3016  157.9698 C   0  0  0  0  0  0  0  0  0  0  0  0
  152.2639  143.0975  159.3848 C   0  0  0  0  0  0  0  0  0  0  0  0
  151.7595  144.2363  160.2812 C   0  0  0  0  0  0  0  0  0  0  0  0
  150.3838  144.0897  160.5696 O   0  0  0  0  0  0  0  0  0  0  0  0
  152.1592  141.6863  159.9911 C   0  0  0  0  0  0  0  0  0  0  0  0
  153.5308  141.3854  159.6578 O   0  0  0  0  0  0  0  0  0  0  0  0
  153.7693  142.7955  159.4638 C   0  0  0  0  0  0  0  0  0  0  0  0
  143.2749  136.2636  152.8408 H   0  0  0  0  0  0  0  0  0  0  0  0
  144.7902  137.0360  152.3924 H   0  0  0  0  0  0  0  0  0  0  0  0
  143.2584  137.8987  152.2137 H   0  0  0  0  0  0  0  0  0  0  0  0
  142.9758  137.9567  154.7072 H   0  0  0  0  0  0  0  0  0  0  0  0
  144.3656  136.9201  154.8854 H   0  0  0  0  0  0  0  0  0  0  0  0
  145.2778  140.6033  155.6180 H   0  0  0  0  0  0  0  0  0  0  0  0
  143.7286  139.9244  155.8799 H   0  0  0  0  0  0  0  0  0  0  0  0
  144.9107  139.4325  157.8689 H   0  0  0  0  0  0  0  0  0  0  0  0
  144.8012  137.9080  157.0766 H   0  0  0  0  0  0  0  0  0  0  0  0
  147.1218  139.2662  158.0935 H   0  0  0  0  0  0  0  0  0  0  0  0
  148.2812  137.2181  157.8081 H   0  0  0  0  0  0  0  0  0  0  0  0
  146.6637  136.5763  157.5742 H   0  0  0  0  0  0  0  0  0  0  0  0
  148.8615  136.9192  155.5857 H   0  0  0  0  0  0  0  0  0  0  0  0
  147.3579  136.0413  155.3123 H   0  0  0  0  0  0  0  0  0  0  0  0
  146.3666  137.6893  155.2946 H   0  0  0  0  0  0  0  0  0  0  0  0
  146.2592  137.8495  153.1240 H   0  0  0  0  0  0  0  0  0  0  0  0
  146.6158  139.5233  153.4102 H   0  0  0  0  0  0  0  0  0  0  0  0
  151.6736  139.3447  154.7022 H   0  0  0  0  0  0  0  0  0  0  0  0
  148.9966  143.3675  158.9547 H   0  0  0  0  0  0  0  0  0  0  0  0
  152.4192  143.0824  157.2078 H   0  0  0  0  0  0  0  0  0  0  0  0
  151.3935  144.3458  157.8189 H   0  0  0  0  0  0  0  0  0  0  0  0
  152.3160  144.2760  161.2181 H   0  0  0  0  0  0  0  0  0  0  0  0
  151.8989  145.2038  159.7979 H   0  0  0  0  0  0  0  0  0  0  0  0
  149.9500  143.7506  159.8013 H   0  0  0  0  0  0  0  0  0  0  0  0
  152.0008  141.6801  161.0709 H   0  0  0  0  0  0  0  0  0  0  0  0
  151.4472  141.0227  159.5030 H   0  0  0  0  0  0  0  0  0  0  0  0
  154.3235  143.0144  158.5519 H   0  0  0  0  0  0  0  0  0  0  0  0
  154.2635  143.2424  160.3284 H   0  0  0  0  0  0  0  0  0  0  0  0
  144.4944  139.5606  153.7162 H   0  0  0  0  0  0  0  0  0  0  0  0
  1  2  1  0  0  0  0
  1 28  1  0  0  0  0
  1 29  1  0  0  0  0
  1 30  1  0  0  0  0
  2  3  1  0  0  0  0
  2 31  1  0  0  0  0
  2 32  1  0  0  0  0
  3 10  1  0  0  0  0
  3  4  1  0  0  0  0
  3 56  1  0  0  0  0
  4  5  1  0  0  0  0
  4 33  1  0  0  0  0
  4 34  1  0  0  0  0
  5  6  1  0  0  0  0
  5 35  1  0  0  0  0
  5 36  1  0  0  0  0
  6 11  1  0  0  0  0
  6  7  1  0  0  0  0
  6 37  1  0  0  0  0
  7  8  1  0  0  0  0
  7 38  1  0  0  0  0
  7 39  1  0  0  0  0
  8  9  1  0  0  0  0
  8 40  1  0  0  0  0
  8 41  1  0  0  0  0
  9 10  1  0  0  0  0
  9 11  1  0  0  0  0
  9 42  1  0  0  0  0
 10 43  1  0  0  0  0
 10 44  1  0  0  0  0
 11 12  1  0  0  0  0
 12 17  1  0  0  0  0
 12 13  2  0  0  0  0
 13 14  1  0  0  0  0
 14 15  2  0  0  0  0
 14 45  1  0  0  0  0
 15 16  1  0  0  0  0
 16 20  1  0  0  0  0
 16 17  2  0  0  0  0
 17 18  1  0  0  0  0
 18 19  2  0  0  0  0
 19 20  1  0  0  0  0
 19 46  1  0  0  0  0
 20 21  1  0  0  0  0
 21 22  1  0  0  0  0
 21 47  1  0  0  0  0
 21 48  1  0  0  0  0
 22 27  1  0  0  0  0
 22 23  1  0  0  0  0
 22 25  1  0  0  0  0
 23 24  1  0  0  0  0
 23 49  1  0  0  0  0
 23 50  1  0  0  0  0
 24 51  1  0  0  0  0
 25 26  1  0  0  0  0
 25 52  1  0  0  0  0
 25 53  1  0  0  0  0
 26 27  1  0  0  0  0
 27 54  1  0  0  0  0
 27 55  1  0  0  0  0
M  CHG  1   3   1
M  END
> <s_m_source_file>
AV-unprocessed.smi

> <i_m_source_file_index>
169

> <i_lp_mmshare_version>
43012

> <i_f3d_flags>
0

> <s_epik_input>
W0NASF0xMltDSDJdW0NIMl1OKFtDSDJdW0NIM10pW0NIMl1bQ0BIXShbQ0gyXVtDSDJdMSlOMmMobltjSF1uMyljKGMzNCluW2NIXW40W0NIMl1DNShbQ0gyXVtPSF0pW0NIMl1PW0NIMl01

> <s_epik_cmdline>
J2VwaWtfcHl0aG9uJywgJy1waCcsICc3LjAnLCAnLXRuJywgJzgnLCAnLW1hJywgJzIwMCcsICctbWV0YWxfYmluZGluZycsICctaW1hZScsICc8aW5maWxlLm1hZT4nLCAnLW9tYWUnLCAnPG91dGZpbGUubWFlPic=

> <r_lp_tautomer_probability>
1

> <r_epik_Ionization_Penalty>
0.00274162

> <r_epik_Ionization_Penalty_Charging>
0.00243722

> <r_epik_Ionization_Penalty_Neutral>
0.000304399

> <r_epik_State_Penalty>
-0

> <r_epik_Charging_Adjusted_Penalty>
0.00243722

> <i_epik_Tot_Q>
1

> <i_epik_Tot_abs_Q>
1

> <r_epik_Metal_State_Penalty>
-0

> <b_epik_Metal_Only>
0

> <s_lp_Force_Field>
OPLS_2005

> <r_lp_Energy>
131.702

> <b_lp_Chiralities_Consistent>
1

> <s_lp_Variant>
AV-unprocessed.smi:169-6

> <Gold.Version>
5.8.1

> <Gold.Id.Protein>
6NUR|6NUR_protein|mol2

> <Gold.PLP.Fitness>
36.4201

> <Gold.PLP.PLP>
-32.1849

> <Gold.PLP.part.hbond>
-2.1391

> <Gold.PLP.part.metal>
0.0000

> <Gold.PLP.part.buried>
-4.6856

> <Gold.PLP.part.nonpolar>
-25.7366

> <Gold.PLP.part.repulsive>
0.1850

> <Gold.PLP.ligand.clash>
0.0101

> <Gold.PLP.ligand.torsion>
1.1248

> <Gold.PLP.Chemscore.Hbond>
2.0000

> <Gold.PLP.Chemscore.CHOScore>
0.0000

> <Gold.PLP.Chemscore.Metal>
0.0000

> <Gold.Chemscore.Hbonds>
donor molecule, donor type, donor heavy atom, donor atom, acceptor molecule, acceptor atom, score
      L1  H     3    56       P1 10175  2.00

> <Gold.PLP.Chemscore.Internal.Correction>
0.4949

> <Gold.Rescore>
     Score         DG    S(hbond)    S(metal)    S(lipo)     H(rot)  DE(clash)    DE(int)     intcor
      8.53     -10.68       1.00        0.00      73.28       2.62       0.03       2.12       ----

> <Gold.Chemscore.Fitness>
8.5302

> <Gold.Chemscore.DG>
-10.6818

> <Gold.Chemscore.ZeroCoef>
-5.4800

> <Gold.Chemscore.Hbond>
0.9994

> <Gold.Chemscore.Metal>
0.0000

> <Gold.Chemscore.Lipo>
73.2808

> <Gold.Chemscore.Internal_Hbond>
0.0000

> <Gold.Chemscore.DEClash>
0.0308

> <Gold.Chemscore.DEInternal>
2.1208

> <Gold.Chemscore.Rot>
2.6212

> <Gold.Chemscore.Internal.Correction>
   9.000000E+99

> <Gold.Chemscore.Hbonds>
donor molecule, donor type, donor heavy atom, donor atom, acceptor molecule, acceptor atom, score
      L1  H     3    56       P1 10175  1.00

> <Gold.Chemscore.Hbond.Weighted>
-3.3381

> <Gold.Chemscore.Metal.Weighted>
-0.0000

> <Gold.Chemscore.Lipo.Weighted>
-8.5739

> <Gold.Chemscore.Internal_Hbond.Weighted>
0.0000

> <Gold.Chemscore.DEClash.Weighted>
0.0308

> <Gold.Chemscore.DEInternal.Weighted>
2.1208

> <Gold.Chemscore.Rot.Weighted>
6.7102

> <Gold.Chemscore.Internal.Correction.Weighted>
   9.000000E+99

> <Gold.Protein.RotatedTorsions>
[ 6907 6896 6895 6894 ] final   17.61 input  -60.11 | X-H torsion
[ 7974 7965 7964 7962 ] final  -22.42 input  175.53 | X-H torsion
[ 8008 7997 7996 7995 ] final   37.50 input   59.86 | X-H torsion
[ 10167 10162 10161 10158 ] final  -68.68 input  -65.29 | X-H torsion
[ 10718 10713 10712 10709 ] final -177.84 input   66.30 | X-H torsion
[ 10763 10752 10751 10750 ] final   30.26 input  -60.55 | X-H torsion
[ 11005 11000 10999 10996 ] final   66.37 input  -57.11 | X-H torsion

> <Gold.Protein.ActiveResidues>
 VAL166  LYS551  ARG553  GLY616  TRP617  ASP618  TYR619  PRO620  LYS621  CYS622 
 ASP623  PHE694  ASN695  SER759  ASP760  ASP761  ALA762  ILE779  LEU786  VAL792 
 PHE793  MET794  SER795  GLU796  ALA797  LYS798  CYS799  TRP800  GLU811  SER814 

> <Gold.Protein.RotatedAtoms>
  151.8524  135.0553  160.0460 H   0  0  0  0  0  0  0  0  0  0  0  0  # atno 6907 bound_to 6896
  152.2726  133.5392  159.5457 H   0  0  0  0  0  0  0  0  0  0  0  0  # atno 6908 bound_to 6896
  150.7158  134.0592  159.3867 H   0  0  0  0  0  0  0  0  0  0  0  0  # atno 6909 bound_to 6896
  146.1677  140.4476  142.8545 H   0  0  0  0  0  0  0  0  0  0  0  0  # atno 7974 bound_to 7965
  155.2048  140.3318  155.4337 H   0  0  0  0  0  0  0  0  0  0  0  0  # atno 8008 bound_to 7997
  156.2393  140.1887  156.7082 H   0  0  0  0  0  0  0  0  0  0  0  0  # atno 8009 bound_to 7997
  154.6117  140.0608  156.9488 H   0  0  0  0  0  0  0  0  0  0  0  0  # atno 8010 bound_to 7997
  140.5489  143.2312  151.6949 H   0  0  0  0  0  0  0  0  0  0  0  0  # atno 10167 bound_to 10162
  156.8355  130.9668  151.3103 H   0  0  0  0  0  0  0  0  0  0  0  0  # atno 10718 bound_to 10713
  153.0382  135.6468  154.1017 H   0  0  0  0  0  0  0  0  0  0  0  0  # atno 10763 bound_to 10752
  154.0728  135.2879  155.3306 H   0  0  0  0  0  0  0  0  0  0  0  0  # atno 10764 bound_to 10752
  154.6583  135.5401  153.8050 H   0  0  0  0  0  0  0  0  0  0  0  0  # atno 10765 bound_to 10752
  139.9836  134.6704  156.0217 H   0  0  0  0  0  0  0  0  0  0  0  0  # atno 11005 bound_to 11000
  144.8116  140.6395  143.6411 LP  0  0  0  0  0  0  0  0  0  0  0  0  # atno 17320 bound_to 7965
  145.4425  139.1534  143.3963 LP  0  0  0  0  0  0  0  0  0  0  0  0  # atno 17321 bound_to 7965
  139.5019  144.3850  152.0337 LP  0  0  0  0  0  0  0  0  0  0  0  0  # atno 17342 bound_to 10162
  140.2966  144.3694  150.6072 LP  0  0  0  0  0  0  0  0  0  0  0  0  # atno 17343 bound_to 10162
  157.6384  130.8785  149.9402 LP  0  0  0  0  0  0  0  0  0  0  0  0  # atno 17370 bound_to 10713
  156.0910  130.3663  150.0395 LP  0  0  0  0  0  0  0  0  0  0  0  0  # atno 17371 bound_to 10713
  141.1504  133.6549  156.3996 LP  0  0  0  0  0  0  0  0  0  0  0  0  # atno 17394 bound_to 11000
  140.5047  134.6452  157.5262 LP  0  0  0  0  0  0  0  0  0  0  0  0  # atno 17395 bound_to 11000

$$$$
