AV-unprocessed.smi:160|AV-procd|sdf|1362|dock6
  -GOLD-   2262019 73D 1   1.00000     0.00000
 Structure written by MMmdl.
 28 29  0  0  0  0  0  0  0  0  2 V2000
  152.2456  137.0748  153.8007 N   0  5  0  0  0  0  0  0  0  0  0  0
  152.4937  138.2353  154.4464 C   0  0  0  0  0  0  0  0  0  0  0  0
  153.5993  138.6597  154.7810 O   0  0  0  0  0  0  0  0  0  0  0  0
  151.2633  139.0508  154.7661 C   0  0  0  0  0  0  0  0  0  0  0  0
  151.3780  140.3332  155.2287 N   0  0  0  0  0  0  0  0  0  0  0  0
  150.0917  140.6260  155.3639 C   0  0  0  0  0  0  0  0  0  0  0  0
  149.2654  139.6308  155.0306 N   0  0  0  0  0  0  0  0  0  0  0  0
  147.7698  139.5803  155.0413 C   0  0  1  0  0  0  0  0  0  0  0  0
  147.3093  140.8138  155.5052 O   0  0  0  0  0  0  0  0  0  0  0  0
  146.2865  141.3175  154.6491 C   0  0  1  0  0  0  0  0  0  0  0  0
  146.2169  142.8533  154.7186 C   0  0  0  0  0  0  0  0  0  0  0  0
  145.2717  143.3408  153.7900 O   0  0  0  0  0  0  0  0  0  0  0  0
  146.6277  140.7306  153.2719 C   0  0  1  0  0  0  0  0  0  0  0  0
  147.5864  141.5286  152.5994 O   0  0  0  0  0  0  0  0  0  0  0  0
  147.1617  139.3523  153.6423 C   0  0  1  0  0  0  0  0  0  0  0  0
  148.0298  138.8001  152.6661 O   0  0  0  0  0  0  0  0  0  0  0  0
  150.0200  138.5813  154.6227 N   0  0  0  0  0  0  0  0  0  0  0  0
  147.5297  138.7832  155.7458 H   0  0  0  0  0  0  0  0  0  0  0  0
  145.3364  140.8848  154.9685 H   0  0  0  0  0  0  0  0  0  0  0  0
  145.7462  140.6578  152.6343 H   0  0  0  0  0  0  0  0  0  0  0  0
  146.3172  138.6742  153.7723 H   0  0  0  0  0  0  0  0  0  0  0  0
  151.5624  137.0794  153.0340 H   0  0  0  0  0  0  0  0  0  0  0  0
  149.7445  141.5853  155.7183 H   0  0  0  0  0  0  0  0  0  0  0  0
  145.9697  143.1934  155.7250 H   0  0  0  0  0  0  0  0  0  0  0  0
  147.1826  143.2865  154.4560 H   0  0  0  0  0  0  0  0  0  0  0  0
  144.8231  144.0758  154.1790 H   0  0  0  0  0  0  0  0  0  0  0  0
  147.9645  141.0156  151.9011 H   0  0  0  0  0  0  0  0  0  0  0  0
  148.5447  139.4976  152.2908 H   0  0  0  0  0  0  0  0  0  0  0  0
  1  2  1  0  0  0  0
  1 22  1  0  0  0  0
  2  3  2  0  0  0  0
  2  4  1  0  0  0  0
  4 17  2  0  0  0  0
  4  5  1  0  0  0  0
  5  6  2  0  0  0  0
  6  7  1  0  0  0  0
  6 23  1  0  0  0  0
  7  8  1  0  0  0  0
  7 17  1  0  0  0  0
  8 18  1  0  0  0  0
  8 15  1  0  0  0  0
  8  9  1  0  0  0  0
  9 10  1  0  0  0  0
 10 19  1  0  0  0  0
 10 11  1  0  0  0  0
 10 13  1  0  0  0  0
 11 12  1  0  0  0  0
 11 24  1  0  0  0  0
 11 25  1  0  0  0  0
 12 26  1  0  0  0  0
 13 20  1  0  0  0  0
 13 14  1  0  0  0  0
 13 15  1  0  0  0  0
 14 27  1  0  0  0  0
 15 21  1  0  0  0  0
 15 16  1  0  0  0  0
 16 28  1  0  0  0  0
M  CHG  1   1  -1
M  END
> <s_m_source_file>
AV-unprocessed.smi

> <i_m_source_file_index>
160

> <i_lp_mmshare_version>
43012

> <i_f3d_flags>
0

> <s_epik_input>
W05IMl1DKD1PKWMxbltjSF1uKG4xKVtDQEBIXTJPW0NASF0oW0NIMl1bT0hdKVtDQEBIXShbT0hdKVtDQEhdMltPSF0=

> <s_epik_cmdline>
J2VwaWtfcHl0aG9uJywgJy1waCcsICc3LjAnLCAnLXRuJywgJzgnLCAnLW1hJywgJzIwMCcsICctbWV0YWxfYmluZGluZycsICctaW1hZScsICc8aW5maWxlLm1hZT4nLCAnLW9tYWUnLCAnPG91dGZpbGUubWFlPic=

> <r_lp_tautomer_probability>
1

> <r_epik_Ionization_Penalty>
6.6993

> <r_epik_Ionization_Penalty_Charging>
6.6993

> <r_epik_Ionization_Penalty_Neutral>
6.01698e-06

> <r_epik_State_Penalty>
6.69929

> <r_epik_Charging_Adjusted_Penalty>
13.3986

> <i_epik_Tot_Q>
-1

> <i_epik_Tot_abs_Q>
1

> <r_epik_Metal_State_Penalty>
2.62798

> <b_epik_Metal_Only>
1

> <s_epik_Chemistry_Notes>
This compound contains an acetal/aminal-like group ( X-CH(R)-Y where X, Y are N, S, or O) that may be acid/base labile, releasing an aldehyde.

> <s_lp_Force_Field>
OPLS_2005

> <r_lp_Energy>
51.4857

> <b_lp_Chiralities_Consistent>
1

> <s_lp_Variant>
AV-unprocessed.smi:160-20

> <Gold.Version>
5.8.1

> <Gold.Id.Protein>
6NUR|6NUR_protein|mol2

> <Gold.PLP.Fitness>
41.6200

> <Gold.PLP.PLP>
-23.4223

> <Gold.PLP.part.hbond>
-8.1242

> <Gold.PLP.part.metal>
0.0000

> <Gold.PLP.part.buried>
-0.4983

> <Gold.PLP.part.nonpolar>
-17.7353

> <Gold.PLP.part.repulsive>
0.2431

> <Gold.PLP.ligand.clash>
0.0000

> <Gold.PLP.ligand.torsion>
0.0580

> <Gold.PLP.Chemscore.Hbond>
6.1031

> <Gold.PLP.Chemscore.CHOScore>
0.0000

> <Gold.PLP.Chemscore.Metal>
0.0000

> <Gold.Chemscore.Hbonds>
donor molecule, donor type, donor heavy atom, donor atom, acceptor molecule, acceptor atom, score
      L1  H     1    22       P1  7949  0.74
      L1  H    14    27       P1  7957  0.98
      L1  H    16    28       P1  7957  0.99
      P1  H  7989  7998       L1     5  0.44
      P1  H  7997  8010       L1     3  0.86
      P1  H 10752 10765       L1     1  2.00

> <Gold.PLP.Chemscore.Internal.Correction>
0.0045

> <Gold.Rescore>
     Score         DG    S(hbond)    S(metal)    S(lipo)     H(rot)  DE(clash)    DE(int)     intcor
      8.32     -12.31       4.34        0.00      22.96       4.04       2.51       1.48       ----

> <Gold.Chemscore.Fitness>
8.3169

> <Gold.Chemscore.DG>
-12.3060

> <Gold.Chemscore.ZeroCoef>
-5.4800

> <Gold.Chemscore.Hbond>
4.3362

> <Gold.Chemscore.Metal>
0.0000

> <Gold.Chemscore.Lipo>
22.9580

> <Gold.Chemscore.Internal_Hbond>
0.0000

> <Gold.Chemscore.DEClash>
2.5069

> <Gold.Chemscore.DEInternal>
1.4822

> <Gold.Chemscore.Rot>
4.0403

> <Gold.Chemscore.Internal.Correction>
   9.000000E+99

> <Gold.Chemscore.Hbonds>
donor molecule, donor type, donor heavy atom, donor atom, acceptor molecule, acceptor atom, score
      L1  H     1    22       P1  7949  0.69
      L1  H    14    27       P1  7957  0.88
      L1  H    16    28       P1  7957  0.93
      P1  H  7997  8010       L1     3  0.81
      P1  H 10752 10765       L1     1  0.84

> <Gold.Chemscore.Hbond.Weighted>
-14.4830

> <Gold.Chemscore.Metal.Weighted>
-0.0000

> <Gold.Chemscore.Lipo.Weighted>
-2.6861

> <Gold.Chemscore.Internal_Hbond.Weighted>
0.0000

> <Gold.Chemscore.DEClash.Weighted>
2.5069

> <Gold.Chemscore.DEInternal.Weighted>
1.4822

> <Gold.Chemscore.Rot.Weighted>
10.3431

> <Gold.Chemscore.Internal.Correction.Weighted>
   9.000000E+99

> <Gold.Protein.RotatedTorsions>
[ 6907 6896 6895 6894 ] final   70.91 input  -60.11 | X-H torsion
[ 7974 7965 7964 7962 ] final -125.51 input  175.53 | X-H torsion
[ 8008 7997 7996 7995 ] final  104.33 input   59.86 | X-H torsion
[ 10167 10162 10161 10158 ] final   29.86 input  -65.29 | X-H torsion
[ 10718 10713 10712 10709 ] final  -18.31 input   66.30 | X-H torsion
[ 10763 10752 10751 10750 ] final  140.42 input  -60.55 | X-H torsion
[ 11005 11000 10999 10996 ] final  -84.39 input  -57.11 | X-H torsion

> <Gold.Protein.ActiveResidues>
 VAL166  LYS551  ARG553  GLY616  TRP617  ASP618  TYR619  PRO620  LYS621  CYS622 
 ASP623  PHE694  ASN695  SER759  ASP760  ASP761  ALA762  ILE779  LEU786  VAL792 
 PHE793  MET794  SER795  GLU796  ALA797  LYS798  CYS799  TRP800  GLU811  SER814 

> <Gold.Protein.RotatedAtoms>
  152.4778  134.4799  159.9661 H   0  0  0  0  0  0  0  0  0  0  0  0  # atno 6907 bound_to 6896
  151.4811  133.3540  159.2846 H   0  0  0  0  0  0  0  0  0  0  0  0  # atno 6908 bound_to 6896
  150.8829  134.8248  159.7299 H   0  0  0  0  0  0  0  0  0  0  0  0  # atno 6909 bound_to 6896
  144.9968  140.7784  143.4520 H   0  0  0  0  0  0  0  0  0  0  0  0  # atno 7974 bound_to 7965
  156.1563  140.3149  155.8731 H   0  0  0  0  0  0  0  0  0  0  0  0  # atno 8008 bound_to 7997
  155.3872  140.0491  157.3059 H   0  0  0  0  0  0  0  0  0  0  0  0  # atno 8009 bound_to 7997
  154.5104  140.2162  155.9178 H   0  0  0  0  0  0  0  0  0  0  0  0  # atno 8010 bound_to 7997
  140.4728  144.0736  150.6242 H   0  0  0  0  0  0  0  0  0  0  0  0  # atno 10167 bound_to 10162
  156.5613  130.4726  149.6405 H   0  0  0  0  0  0  0  0  0  0  0  0  # atno 10718 bound_to 10713
  153.9224  135.2999  155.3447 H   0  0  0  0  0  0  0  0  0  0  0  0  # atno 10763 bound_to 10752
  154.7568  135.4953  153.9393 H   0  0  0  0  0  0  0  0  0  0  0  0  # atno 10764 bound_to 10752
  153.1134  135.6765  153.9563 H   0  0  0  0  0  0  0  0  0  0  0  0  # atno 10765 bound_to 10752
  141.1651  133.7343  156.8861 H   0  0  0  0  0  0  0  0  0  0  0  0  # atno 11005 bound_to 11000
  145.2208  139.2160  143.5094 LP  0  0  0  0  0  0  0  0  0  0  0  0  # atno 17320 bound_to 7965
  146.3443  140.2065  142.8589 LP  0  0  0  0  0  0  0  0  0  0  0  0  # atno 17321 bound_to 7965
  140.3955  143.2730  152.0009 LP  0  0  0  0  0  0  0  0  0  0  0  0  # atno 17342 bound_to 10162
  139.4821  144.6041  151.7552 LP  0  0  0  0  0  0  0  0  0  0  0  0  # atno 17343 bound_to 10162
  156.2796  130.7063  151.1884 LP  0  0  0  0  0  0  0  0  0  0  0  0  # atno 17370 bound_to 10713
  157.7368  131.0559  150.5394 LP  0  0  0  0  0  0  0  0  0  0  0  0  # atno 17371 bound_to 10713
  140.1681  134.9119  157.2799 LP  0  0  0  0  0  0  0  0  0  0  0  0  # atno 17394 bound_to 11000
  140.2533  134.3657  155.7434 LP  0  0  0  0  0  0  0  0  0  0  0  0  # atno 17395 bound_to 11000

$$$$
