AV-unprocessed.smi:2424|AV-procd|sdf|9570|dock4
  -GOLD-   2272013203D 1   1.00000     0.00000
 Structure written by MMmdl.
 49 50  0  0  0  0  0  0  0  0  2 V2000
  142.9521  135.3338  154.2379 C   0  0  0  0  0  0  0  0  0  0  0  0
  143.6802  134.3614  153.2926 C   0  0  0  0  0  0  0  0  0  0  0  0
  145.1519  134.7219  152.9353 C   0  0  0  0  0  0  0  0  0  0  0  0
  145.1627  136.1445  152.3275 C   0  0  0  0  0  0  0  0  0  0  0  0
  145.4572  136.2236  150.8223 C   0  0  0  0  0  0  0  0  0  0  0  0
  146.2271  134.3691  154.0103 C   0  0  2  0  0  0  0  0  0  0  0  0
  147.4403  135.1870  153.9060 N   0  0  0  0  0  0  0  0  0  0  0  0
  148.1022  135.7285  154.9369 C   0  0  0  0  0  0  0  0  0  0  0  0
  147.7720  135.5699  156.1116 O   0  0  0  0  0  0  0  0  0  0  0  0
  149.1357  136.4703  154.5001 N   0  0  0  0  0  0  0  0  0  0  0  0
  150.0817  137.1849  155.2470 C   0  0  0  0  0  0  0  0  0  0  0  0
  149.9951  137.5610  156.5804 C   0  0  0  0  0  0  0  0  0  0  0  0
  150.9029  138.2348  157.3211 N   0  5  0  0  0  0  0  0  0  0  0  0
  152.0700  138.6161  156.7277 C   0  0  0  0  0  0  0  0  0  0  0  0
  152.9378  139.2354  157.3421 O   0  0  0  0  0  0  0  0  0  0  0  0
  152.2915  138.2725  155.3093 C   0  0  0  0  0  0  0  0  0  0  0  0
  153.5912  138.6968  154.6474 C   0  0  0  0  0  0  0  0  0  0  0  0
  151.3349  137.5928  154.6306 C   0  0  0  0  0  0  0  0  0  0  0  0
  146.4023  132.9941  153.3384 C   0  0  2  0  0  0  0  0  0  0  0  0
  147.7606  132.2975  153.3491 C   0  0  0  0  0  0  0  0  0  0  0  0
  145.8849  133.6696  152.0587 C   0  0  1  0  0  0  0  0  0  0  0  0
  145.0104  132.8905  151.2550 O   0  0  0  0  0  0  0  0  0  0  0  0
  145.6798  131.9017  150.4931 C   0  0  0  0  0  0  0  0  0  0  0  0
  141.8859  135.1089  154.2663 H   0  0  0  0  0  0  0  0  0  0  0  0
  143.0603  136.3744  153.9385 H   0  0  0  0  0  0  0  0  0  0  0  0
  143.3192  135.2431  155.2600 H   0  0  0  0  0  0  0  0  0  0  0  0
  143.6244  133.3802  153.7631 H   0  0  0  0  0  0  0  0  0  0  0  0
  143.0862  134.2579  152.3837 H   0  0  0  0  0  0  0  0  0  0  0  0
  144.1997  136.6267  152.4976 H   0  0  0  0  0  0  0  0  0  0  0  0
  145.8756  136.7752  152.8596 H   0  0  0  0  0  0  0  0  0  0  0  0
  145.2733  137.2315  150.4504 H   0  0  0  0  0  0  0  0  0  0  0  0
  144.8267  135.5422  150.2515 H   0  0  0  0  0  0  0  0  0  0  0  0
  146.4988  135.9906  150.6056 H   0  0  0  0  0  0  0  0  0  0  0  0
  145.8473  134.2812  155.0272 H   0  0  0  0  0  0  0  0  0  0  0  0
  147.7818  135.3758  152.9752 H   0  0  0  0  0  0  0  0  0  0  0  0
  149.2453  136.5424  153.4994 H   0  0  0  0  0  0  0  0  0  0  0  0
  149.0952  137.2666  157.1559 H   0  0  0  0  0  0  0  0  0  0  0  0
  153.6307  138.3742  153.6067 H   0  0  0  0  0  0  0  0  0  0  0  0
  154.4442  138.2614  155.1684 H   0  0  0  0  0  0  0  0  0  0  0  0
  153.6914  139.7825  154.6677 H   0  0  0  0  0  0  0  0  0  0  0  0
  151.5038  137.3465  153.5927 H   0  0  0  0  0  0  0  0  0  0  0  0
  145.6355  132.3232  153.7302 H   0  0  0  0  0  0  0  0  0  0  0  0
  148.5050  132.8532  152.7784 H   0  0  0  0  0  0  0  0  0  0  0  0
  147.6979  131.2980  152.9198 H   0  0  0  0  0  0  0  0  0  0  0  0
  148.1374  132.1911  154.3665 H   0  0  0  0  0  0  0  0  0  0  0  0
  146.6913  134.1151  151.4713 H   0  0  0  0  0  0  0  0  0  0  0  0
  144.9589  131.3769  149.8661 H   0  0  0  0  0  0  0  0  0  0  0  0
  146.1619  131.1643  151.1341 H   0  0  0  0  0  0  0  0  0  0  0  0
  146.4319  132.3464  149.8401 H   0  0  0  0  0  0  0  0  0  0  0  0
  1  2  1  0  0  0  0
  1 24  1  0  0  0  0
  1 25  1  0  0  0  0
  1 26  1  0  0  0  0
  2  3  1  0  0  0  0
  2 27  1  0  0  0  0
  2 28  1  0  0  0  0
  3 21  1  0  0  0  0
  3  4  1  0  0  0  0
  3  6  1  0  0  0  0
  4  5  1  0  0  0  0
  4 29  1  0  0  0  0
  4 30  1  0  0  0  0
  5 31  1  0  0  0  0
  5 32  1  0  0  0  0
  5 33  1  0  0  0  0
  6  7  1  0  0  0  0
  6 19  1  0  0  0  0
  6 34  1  0  0  0  0
  7  8  1  0  0  0  0
  7 35  1  0  0  0  0
  8  9  2  0  0  0  0
  8 10  1  0  0  0  0
 10 11  1  0  0  0  0
 10 36  1  0  0  0  0
 11 18  1  0  0  0  0
 11 12  2  0  0  0  0
 12 13  1  0  0  0  0
 12 37  1  0  0  0  0
 13 14  1  0  0  0  0
 14 15  2  0  0  0  0
 14 16  1  0  0  0  0
 16 17  1  0  0  0  0
 16 18  2  0  0  0  0
 17 38  1  0  0  0  0
 17 39  1  0  0  0  0
 17 40  1  0  0  0  0
 18 41  1  0  0  0  0
 19 20  1  0  0  0  0
 19 21  1  0  0  0  0
 19 42  1  0  0  0  0
 20 43  1  0  0  0  0
 20 44  1  0  0  0  0
 20 45  1  0  0  0  0
 21 22  1  0  0  0  0
 21 46  1  0  0  0  0
 22 23  1  0  0  0  0
 23 47  1  0  0  0  0
 23 48  1  0  0  0  0
 23 49  1  0  0  0  0
M  CHG  1  13  -1
M  END
> <s_m_source_file>
AV-unprocessed.smi

> <i_m_source_file_index>
2424

> <i_lp_mmshare_version>
43012

> <i_f3d_flags>
0

> <s_epik_input>
W0NIM11PW0NAQEhdMVtDQEhdKFtDSDNdKVtDQEBIXShDMShbQ0gyXVtDSDNdKVtDSDJdW0NIM10pW05IXUMoPU8pW05IXWMyW2NIXVtuSF1jKD1PKWMoW0NIM10pW2NIXTI=

> <s_epik_cmdline>
J2VwaWtfcHl0aG9uJywgJy1waCcsICc3LjAnLCAnLXRuJywgJzgnLCAnLW1hJywgJzIwMCcsICctbWV0YWxfYmluZGluZycsICctaW1hZScsICc8aW5maWxlLm1hZT4nLCAnLW9tYWUnLCAnPG91dGZpbGUubWFlPic=

> <r_lp_tautomer_probability>
1

> <r_epik_Ionization_Penalty>
7.6122

> <r_epik_Ionization_Penalty_Charging>
1.53843

> <r_epik_Ionization_Penalty_Neutral>
6.07377

> <r_epik_State_Penalty>
6.07371

> <r_epik_Charging_Adjusted_Penalty>
7.61214

> <i_epik_Tot_Q>
-1

> <i_epik_Tot_abs_Q>
1

> <r_epik_Metal_State_Penalty>
2.02136

> <b_epik_Metal_Only>
1

> <s_lp_Force_Field>
OPLS_2005

> <r_lp_Energy>
41.3797

> <b_lp_Chiralities_Consistent>
1

> <s_lp_Variant>
AV-unprocessed.smi:2424-12

> <Gold.Version>
5.8.1

> <Gold.Id.Protein>
6NUR|6NUR_protein|mol2

> <Gold.PLP.Fitness>
36.4675

> <Gold.PLP.PLP>
-29.6705

> <Gold.PLP.part.hbond>
-2.8766

> <Gold.PLP.part.metal>
0.0000

> <Gold.PLP.part.buried>
-0.3904

> <Gold.PLP.part.nonpolar>
-27.0496

> <Gold.PLP.part.repulsive>
0.1538

> <Gold.PLP.ligand.clash>
0.0000

> <Gold.PLP.ligand.torsion>
1.3651

> <Gold.PLP.Chemscore.Hbond>
2.9760

> <Gold.PLP.Chemscore.CHOScore>
0.0000

> <Gold.PLP.Chemscore.Metal>
0.0000

> <Gold.Chemscore.Hbonds>
donor molecule, donor type, donor heavy atom, donor atom, acceptor molecule, acceptor atom, score
      L1  H     7    35       P1  7948  1.00
      L1  H    10    36       P1  7948  1.00
      P1  H  7997  8009       L1    15  1.00

> <Gold.PLP.Chemscore.Internal.Correction>
0.5991

> <Gold.Rescore>
     Score         DG    S(hbond)    S(metal)    S(lipo)     H(rot)  DE(clash)    DE(int)     intcor
     17.87     -20.44       2.90        0.00      78.40       1.52       0.21       2.36       ----

> <Gold.Chemscore.Fitness>
17.8714

> <Gold.Chemscore.DG>
-20.4387

> <Gold.Chemscore.ZeroCoef>
-5.4800

> <Gold.Chemscore.Hbond>
2.8976

> <Gold.Chemscore.Metal>
0.0000

> <Gold.Chemscore.Lipo>
78.4023

> <Gold.Chemscore.Internal_Hbond>
0.0000

> <Gold.Chemscore.DEClash>
0.2106

> <Gold.Chemscore.DEInternal>
2.3566

> <Gold.Chemscore.Rot>
1.5204

> <Gold.Chemscore.Internal.Correction>
   9.000000E+99

> <Gold.Chemscore.Hbonds>
donor molecule, donor type, donor heavy atom, donor atom, acceptor molecule, acceptor atom, score
      L1  H     7    35       P1  7948  0.95
      L1  H    10    36       P1  7948  0.94
      P1  H  7997  8009       L1    15  1.00

> <Gold.Chemscore.Hbond.Weighted>
-9.6779

> <Gold.Chemscore.Metal.Weighted>
-0.0000

> <Gold.Chemscore.Lipo.Weighted>
-9.1731

> <Gold.Chemscore.Internal_Hbond.Weighted>
0.0000

> <Gold.Chemscore.DEClash.Weighted>
0.2106

> <Gold.Chemscore.DEInternal.Weighted>
2.3566

> <Gold.Chemscore.Rot.Weighted>
3.8922

> <Gold.Chemscore.Internal.Correction.Weighted>
   9.000000E+99

> <Gold.Protein.RotatedTorsions>
[ 6907 6896 6895 6894 ] final  108.84 input  -60.11 | X-H torsion
[ 7974 7965 7964 7962 ] final  128.39 input  175.53 | X-H torsion
[ 8008 7997 7996 7995 ] final -177.88 input   59.86 | X-H torsion
[ 10167 10162 10161 10158 ] final  151.31 input  -65.29 | X-H torsion
[ 10718 10713 10712 10709 ] final   79.01 input   66.30 | X-H torsion
[ 10763 10752 10751 10750 ] final  125.47 input  -60.55 | X-H torsion
[ 11005 11000 10999 10996 ] final   55.91 input  -57.11 | X-H torsion

> <Gold.Protein.ActiveResidues>
 VAL166  LYS551  ARG553  GLY616  TRP617  ASP618  TYR619  PRO620  LYS621  CYS622 
 ASP623  PHE694  ASN695  SER759  ASP760  ASP761  ALA762  ILE779  LEU786  VAL792 
 PHE793  MET794  SER795  GLU796  ALA797  LYS798  CYS799  TRP800  GLU811  SER814 

> <Gold.Protein.RotatedAtoms>
  152.5094  133.9031  159.7450 H   0  0  0  0  0  0  0  0  0  0  0  0  # atno 6907 bound_to 6896
  150.9442  133.6614  159.2791 H   0  0  0  0  0  0  0  0  0  0  0  0  # atno 6908 bound_to 6896
  151.3915  135.0961  159.9580 H   0  0  0  0  0  0  0  0  0  0  0  0  # atno 6909 bound_to 6896
  145.0401  139.3971  143.5106 H   0  0  0  0  0  0  0  0  0  0  0  0  # atno 7974 bound_to 7965
  156.0123  140.1243  157.0442 H   0  0  0  0  0  0  0  0  0  0  0  0  # atno 8008 bound_to 7997
  154.4280  140.1085  156.5916 H   0  0  0  0  0  0  0  0  0  0  0  0  # atno 8009 bound_to 7997
  155.6063  140.3471  155.4611 H   0  0  0  0  0  0  0  0  0  0  0  0  # atno 8010 bound_to 7997
  139.4842  144.5451  151.7497 H   0  0  0  0  0  0  0  0  0  0  0  0  # atno 10167 bound_to 10162
  157.6763  130.9894  150.1869 H   0  0  0  0  0  0  0  0  0  0  0  0  # atno 10718 bound_to 10713
  153.6778  135.3319  155.3170 H   0  0  0  0  0  0  0  0  0  0  0  0  # atno 10763 bound_to 10752
  154.8474  135.4401  154.1638 H   0  0  0  0  0  0  0  0  0  0  0  0  # atno 10764 bound_to 10752
  153.2646  135.6994  153.7619 H   0  0  0  0  0  0  0  0  0  0  0  0  # atno 10765 bound_to 10752
  140.0570  134.5656  155.9196 H   0  0  0  0  0  0  0  0  0  0  0  0  # atno 11005 bound_to 11000
  146.3508  139.9997  142.8677 LP  0  0  0  0  0  0  0  0  0  0  0  0  # atno 17320 bound_to 7965
  145.1659  140.9696  143.4350 LP  0  0  0  0  0  0  0  0  0  0  0  0  # atno 17321 bound_to 7965
  140.4997  144.1188  150.5968 LP  0  0  0  0  0  0  0  0  0  0  0  0  # atno 17342 bound_to 10162
  140.4077  143.2672  151.9871 LP  0  0  0  0  0  0  0  0  0  0  0  0  # atno 17343 bound_to 10162
  156.2589  130.3708  149.8151 LP  0  0  0  0  0  0  0  0  0  0  0  0  # atno 17370 bound_to 10713
  156.5902  130.8503  151.3406 LP  0  0  0  0  0  0  0  0  0  0  0  0  # atno 17371 bound_to 10713
  141.1956  133.6588  156.5652 LP  0  0  0  0  0  0  0  0  0  0  0  0  # atno 17394 bound_to 11000
  140.3829  134.7508  157.4672 LP  0  0  0  0  0  0  0  0  0  0  0  0  # atno 17395 bound_to 11000

$$$$
