AV-unprocessed.smi:500|AV-procd|sdf|2739|dock2
  -GOLD-   2262023193D 1   1.00000     0.00000
 Structure written by MMmdl.
 44 46  0  0  0  0  0  0  0  0  2 V2000
  148.1548  141.6881  154.1885 C   0  0  0  0  0  0  0  0  0  0  0  0
  147.0688  141.0191  155.0418 C   0  0  0  0  0  0  0  0  0  0  0  0
  147.2112  141.3795  156.4060 O   0  0  0  0  0  0  0  0  0  0  0  0
  148.1001  140.5528  157.1390 C   0  0  0  0  0  0  0  0  0  0  0  0
  149.5471  140.8949  156.7575 C   0  0  0  0  0  0  0  0  0  0  0  0
  150.4892  140.5481  157.8263 N   0  0  0  0  0  0  0  0  0  0  0  0
  150.7100  139.3682  158.4877 C   0  0  0  0  0  0  0  0  0  0  0  0
  149.9638  138.0721  158.2099 C   0  0  1  0  0  0  0  0  0  0  0  0
  150.9320  136.9693  157.7598 C   0  0  0  0  0  0  0  0  0  0  0  0
  149.2095  137.5901  159.3718 N   0  5  0  0  0  0  0  0  0  0  0  0
  148.8073  136.2999  159.5464 C   0  0  0  0  0  0  0  0  0  0  0  0
  148.9833  135.3123  158.8264 O   0  0  0  0  0  0  0  0  0  0  0  0
  148.0866  136.1113  160.8258 C   0  0  0  0  0  0  0  0  0  0  0  0
  147.7168  134.9830  161.5131 C   0  0  0  0  0  0  0  0  0  0  0  0
  147.0718  135.4192  162.7032 C   0  0  0  0  0  0  0  0  0  0  0  0
  147.1006  136.7832  162.6661 C   0  0  0  0  0  0  0  0  0  0  0  0
  147.7197  137.2192  161.5359 O   0  0  0  0  0  0  0  0  0  0  0  0
  151.6838  139.4128  159.4051 N   0  0  0  0  0  0  0  0  0  0  0  0
  152.1073  140.7233  159.3614 C   0  0  0  0  0  0  0  0  0  0  0  0
  153.1053  141.3909  160.1067 C   0  0  0  0  0  0  0  0  0  0  0  0
  153.3695  142.7576  159.8821 C   0  0  0  0  0  0  0  0  0  0  0  0
  152.6412  143.4735  158.9102 C   0  0  0  0  0  0  0  0  0  0  0  0
  151.6438  142.8250  158.1571 C   0  0  0  0  0  0  0  0  0  0  0  0
  151.3830  141.4599  158.3859 C   0  0  0  0  0  0  0  0  0  0  0  0
  148.0034  141.4713  153.1311 H   0  0  0  0  0  0  0  0  0  0  0  0
  149.1531  141.3431  154.4562 H   0  0  0  0  0  0  0  0  0  0  0  0
  148.1322  142.7711  154.3127 H   0  0  0  0  0  0  0  0  0  0  0  0
  146.0927  141.3713  154.7081 H   0  0  0  0  0  0  0  0  0  0  0  0
  147.0711  139.9355  154.9147 H   0  0  0  0  0  0  0  0  0  0  0  0
  147.9434  140.7096  158.2067 H   0  0  0  0  0  0  0  0  0  0  0  0
  147.9110  139.4979  156.9381 H   0  0  0  0  0  0  0  0  0  0  0  0
  149.8257  140.4175  155.8188 H   0  0  0  0  0  0  0  0  0  0  0  0
  149.6281  141.9660  156.5709 H   0  0  0  0  0  0  0  0  0  0  0  0
  149.2891  138.2529  157.3730 H   0  0  0  0  0  0  0  0  0  0  0  0
  151.4788  137.2734  156.8671 H   0  0  0  0  0  0  0  0  0  0  0  0
  150.3992  136.0484  157.5207 H   0  0  0  0  0  0  0  0  0  0  0  0
  151.6643  136.7396  158.5349 H   0  0  0  0  0  0  0  0  0  0  0  0
  147.8910  133.9653  161.1958 H   0  0  0  0  0  0  0  0  0  0  0  0
  146.6450  134.8120  163.4875 H   0  0  0  0  0  0  0  0  0  0  0  0
  146.7486  137.5606  163.3280 H   0  0  0  0  0  0  0  0  0  0  0  0
  153.6674  140.8489  160.8529 H   0  0  0  0  0  0  0  0  0  0  0  0
  154.1342  143.2581  160.4577 H   0  0  0  0  0  0  0  0  0  0  0  0
  152.8491  144.5201  158.7432 H   0  0  0  0  0  0  0  0  0  0  0  0
  151.0846  143.3713  157.4122 H   0  0  0  0  0  0  0  0  0  0  0  0
  1  2  1  0  0  0  0
  1 25  1  0  0  0  0
  1 26  1  0  0  0  0
  1 27  1  0  0  0  0
  2  3  1  0  0  0  0
  2 28  1  0  0  0  0
  2 29  1  0  0  0  0
  3  4  1  0  0  0  0
  4  5  1  0  0  0  0
  4 30  1  0  0  0  0
  4 31  1  0  0  0  0
  5  6  1  0  0  0  0
  5 32  1  0  0  0  0
  5 33  1  0  0  0  0
  6 24  1  0  0  0  0
  6  7  1  0  0  0  0
  7  8  1  0  0  0  0
  7 18  2  0  0  0  0
  8  9  1  0  0  0  0
  8 10  1  0  0  0  0
  8 34  1  0  0  0  0
  9 35  1  0  0  0  0
  9 36  1  0  0  0  0
  9 37  1  0  0  0  0
 10 11  1  0  0  0  0
 11 12  2  0  0  0  0
 11 13  1  0  0  0  0
 13 17  1  0  0  0  0
 13 14  2  0  0  0  0
 14 15  1  0  0  0  0
 14 38  1  0  0  0  0
 15 16  2  0  0  0  0
 15 39  1  0  0  0  0
 16 17  1  0  0  0  0
 16 40  1  0  0  0  0
 18 19  1  0  0  0  0
 19 24  2  0  0  0  0
 19 20  1  0  0  0  0
 20 21  2  0  0  0  0
 20 41  1  0  0  0  0
 21 22  1  0  0  0  0
 21 42  1  0  0  0  0
 22 23  2  0  0  0  0
 22 43  1  0  0  0  0
 23 24  1  0  0  0  0
 23 44  1  0  0  0  0
M  CHG  1  10  -1
M  END
> <s_m_source_file>
AV-unprocessed.smi

> <i_m_source_file_index>
500

> <i_lp_mmshare_version>
43012

> <i_f3d_flags>
0

> <s_epik_input>
W0NIM11bQ0gyXU9bQ0gyXVtDSDJdbihjKGMxMilbY0hdW2NIXVtjSF1bY0hdMiljKG4xKVtDQEhdKFtDSDNdKVtOSF1DKD1PKWMzW2NIXVtjSF1bY0hdbzM=

> <s_epik_cmdline>
J2VwaWtfcHl0aG9uJywgJy1waCcsICc3LjAnLCAnLXRuJywgJzgnLCAnLW1hJywgJzIwMCcsICctbWV0YWxfYmluZGluZycsICctaW1hZScsICc8aW5maWxlLm1hZT4nLCAnLW9tYWUnLCAnPG91dGZpbGUubWFlPic=

> <r_epik_Ionization_Penalty>
7.31223

> <r_epik_Ionization_Penalty_Charging>
6.43826

> <r_epik_Ionization_Penalty_Neutral>
0.873973

> <r_epik_State_Penalty>
6.5378

> <r_epik_Charging_Adjusted_Penalty>
12.9761

> <i_epik_Tot_Q>
-1

> <i_epik_Tot_abs_Q>
1

> <r_epik_Metal_State_Penalty>
2.55818

> <b_epik_Metal_Only>
1

> <s_lp_Force_Field>
OPLS_2005

> <r_lp_Energy>
16.2081

> <b_lp_Chiralities_Consistent>
1

> <s_lp_Variant>
AV-unprocessed.smi:500-6

> <Gold.Version>
5.8.1

> <Gold.Id.Protein>
6NUR|6NUR_protein|mol2

> <Gold.PLP.Fitness>
53.9854

> <Gold.PLP.PLP>
-47.0458

> <Gold.PLP.part.hbond>
-3.9153

> <Gold.PLP.part.metal>
0.0000

> <Gold.PLP.part.buried>
-5.8252

> <Gold.PLP.part.nonpolar>
-38.2860

> <Gold.PLP.part.repulsive>
0.0794

> <Gold.PLP.ligand.clash>
0.0000

> <Gold.PLP.ligand.torsion>
0.7610

> <Gold.PLP.Chemscore.Hbond>
2.7520

> <Gold.PLP.Chemscore.CHOScore>
0.0000

> <Gold.PLP.Chemscore.Metal>
0.0000

> <Gold.Chemscore.Hbonds>
donor molecule, donor type, donor heavy atom, donor atom, acceptor molecule, acceptor atom, score
      P1  H  6896  6909       L1    12  1.00
      P1  H  6931  6943       L1    17  1.00
      P1  H  6934  6947       L1    17  0.75

> <Gold.PLP.Chemscore.Internal.Correction>
0.2057

> <Gold.Rescore>
     Score         DG    S(hbond)    S(metal)    S(lipo)     H(rot)  DE(clash)    DE(int)     intcor
     19.45     -21.89       2.21        0.00     117.45       1.84       0.07       2.37       ----

> <Gold.Chemscore.Fitness>
19.4512

> <Gold.Chemscore.DG>
-21.8920

> <Gold.Chemscore.ZeroCoef>
-5.4800

> <Gold.Chemscore.Hbond>
2.2085

> <Gold.Chemscore.Metal>
0.0000

> <Gold.Chemscore.Lipo>
117.4488

> <Gold.Chemscore.Internal_Hbond>
0.0000

> <Gold.Chemscore.DEClash>
0.0736

> <Gold.Chemscore.DEInternal>
2.3672

> <Gold.Chemscore.Rot>
1.8382

> <Gold.Chemscore.Internal.Correction>
   9.000000E+99

> <Gold.Chemscore.Hbonds>
donor molecule, donor type, donor heavy atom, donor atom, acceptor molecule, acceptor atom, score
      P1  H  6896  6909       L1    12  0.58
      P1  H  6931  6943       L1    17  0.65
      P1  H  6934  6947       L1    17  0.66

> <Gold.Chemscore.Hbond.Weighted>
-7.3764

> <Gold.Chemscore.Metal.Weighted>
-0.0000

> <Gold.Chemscore.Lipo.Weighted>
-13.7415

> <Gold.Chemscore.Internal_Hbond.Weighted>
0.0000

> <Gold.Chemscore.DEClash.Weighted>
0.0736

> <Gold.Chemscore.DEInternal.Weighted>
2.3672

> <Gold.Chemscore.Rot.Weighted>
4.7059

> <Gold.Chemscore.Internal.Correction.Weighted>
   9.000000E+99

> <Gold.Protein.RotatedTorsions>
[ 6907 6896 6895 6894 ] final   36.69 input  -60.11 | X-H torsion
[ 7974 7965 7964 7962 ] final -157.61 input  175.53 | X-H torsion
[ 8008 7997 7996 7995 ] final  134.34 input   59.86 | X-H torsion
[ 10167 10162 10161 10158 ] final   86.33 input  -65.29 | X-H torsion
[ 10718 10713 10712 10709 ] final  -43.81 input   66.30 | X-H torsion
[ 10763 10752 10751 10750 ] final   30.23 input  -60.55 | X-H torsion
[ 11005 11000 10999 10996 ] final   55.00 input  -57.11 | X-H torsion

> <Gold.Protein.ActiveResidues>
 VAL166  LYS551  ARG553  GLY616  TRP617  ASP618  TYR619  PRO620  LYS621  CYS622 
 ASP623  PHE694  ASN695  SER759  ASP760  ASP761  ALA762  ILE779  LEU786  VAL792 
 PHE793  MET794  SER795  GLU796  ALA797  LYS798  CYS799  TRP800  GLU811  SER814 

> <Gold.Protein.RotatedAtoms>
  152.1332  134.9119  160.0557 H   0  0  0  0  0  0  0  0  0  0  0  0  # atno 6907 bound_to 6896
  152.0215  133.3896  159.4268 H   0  0  0  0  0  0  0  0  0  0  0  0  # atno 6908 bound_to 6896
  150.6858  134.3542  159.4966 H   0  0  0  0  0  0  0  0  0  0  0  0  # atno 6909 bound_to 6896
  144.7541  140.3945  143.6026 H   0  0  0  0  0  0  0  0  0  0  0  0  # atno 7974 bound_to 7965
  156.2998  140.2498  156.3400 H   0  0  0  0  0  0  0  0  0  0  0  0  # atno 8008 bound_to 7997
  154.9064  140.0404  157.1941 H   0  0  0  0  0  0  0  0  0  0  0  0  # atno 8009 bound_to 7997
  154.8449  140.2897  155.5639 H   0  0  0  0  0  0  0  0  0  0  0  0  # atno 8010 bound_to 7997
  139.8886  144.6398  150.8763 H   0  0  0  0  0  0  0  0  0  0  0  0  # atno 10167 bound_to 10162
  156.2451  130.4183  149.8714 H   0  0  0  0  0  0  0  0  0  0  0  0  # atno 10718 bound_to 10713
  153.0383  135.6469  154.1013 H   0  0  0  0  0  0  0  0  0  0  0  0  # atno 10763 bound_to 10752
  154.0724  135.2879  155.3307 H   0  0  0  0  0  0  0  0  0  0  0  0  # atno 10764 bound_to 10752
  154.6585  135.5400  153.8053 H   0  0  0  0  0  0  0  0  0  0  0  0  # atno 10765 bound_to 10752
  140.0641  134.5561  155.9118 H   0  0  0  0  0  0  0  0  0  0  0  0  # atno 11005 bound_to 11000
  145.6841  139.1624  143.2684 LP  0  0  0  0  0  0  0  0  0  0  0  0  # atno 17320 bound_to 7965
  146.1529  140.6899  142.9313 LP  0  0  0  0  0  0  0  0  0  0  0  0  # atno 17321 bound_to 7965
  140.7731  143.3528  151.1981 LP  0  0  0  0  0  0  0  0  0  0  0  0  # atno 17342 bound_to 10162
  139.7130  143.9346  152.2955 LP  0  0  0  0  0  0  0  0  0  0  0  0  # atno 17343 bound_to 10162
  156.6282  130.8655  151.3490 LP  0  0  0  0  0  0  0  0  0  0  0  0  # atno 17370 bound_to 10713
  157.7192  130.9536  150.1371 LP  0  0  0  0  0  0  0  0  0  0  0  0  # atno 17371 bound_to 10713
  141.1985  133.6602  156.5798 LP  0  0  0  0  0  0  0  0  0  0  0  0  # atno 17394 bound_to 11000
  140.3725  134.7593  157.4608 LP  0  0  0  0  0  0  0  0  0  0  0  0  # atno 17395 bound_to 11000

$$$$
