AV-unprocessed.smi:227|AV-procd|sdf|1734|dock1
  -GOLD-   2262020233D 1   1.00000     0.00000
 Structure written by MMmdl.
 54 58  0  0  0  0  0  0  0  0  1 V2000
  147.9090  139.3225  157.9059 O   0  0  0  0  0  0  0  0  0  0  0  0
  148.1631  139.2758  156.5170 C   0  0  0  0  0  0  0  0  0  0  0  0
  149.2088  138.1862  156.1646 C   0  0  1  0  0  0  0  0  0  0  0  0
  148.7193  136.7757  156.6091 C   0  0  0  0  0  0  0  0  0  0  0  0
  147.7713  136.1556  155.6941 N   0  0  0  0  0  0  0  0  0  0  0  0
  146.5578  136.6677  155.2970 C   0  0  0  0  0  0  0  0  0  0  0  0
  145.8868  135.9234  154.4626 N   0  0  0  0  0  0  0  0  0  0  0  0
  146.6864  134.8016  154.2749 C   0  0  0  0  0  0  0  0  0  0  0  0
  146.5750  133.6069  153.5014 C   0  0  0  0  0  0  0  0  0  0  0  0
  145.5286  133.3030  152.6829 N   0  0  0  0  0  0  0  0  0  0  0  0
  144.4157  134.2238  152.4987 C   0  0  1  0  0  0  0  0  0  0  0  0
  145.0032  135.3458  151.6204 C   0  0  0  0  0  0  0  0  0  0  0  0
  145.9792  134.5521  150.7384 C   0  0  0  0  0  0  0  0  0  0  0  0
  145.7556  133.1117  151.2556 C   0  0  2  0  0  0  0  0  0  0  0  0
  144.3902  132.5459  150.8033 C   0  0  2  0  0  0  0  0  0  0  0  0
  144.0857  132.5448  149.2931 C   0  0  0  0  0  0  0  0  0  0  0  0
  142.7833  132.0556  149.0539 O   0  0  0  0  0  0  0  0  0  0  0  0
  143.4300  133.3966  151.6530 C   0  0  0  0  0  0  0  0  0  0  0  0
  147.5823  132.7009  153.6139 N   0  0  0  0  0  0  0  0  0  0  0  0
  148.6332  132.9440  154.4003 C   0  0  0  0  0  0  0  0  0  0  0  0
  148.8763  134.0142  155.1562 N   0  0  0  0  0  0  0  0  0  0  0  0
  147.8684  134.9270  155.0624 C   0  0  0  0  0  0  0  0  0  0  0  0
  149.6113  138.2346  154.6564 C   0  0  2  0  0  0  0  0  0  0  0  0
  150.9668  137.6021  154.3520 C   0  0  0  0  0  0  0  0  0  0  0  0
  151.9664  138.7327  154.5974 C   0  0  0  0  0  0  0  0  0  0  0  0
  151.2198  139.9406  154.5103 O   0  0  0  0  0  0  0  0  0  0  0  0
  149.8944  139.6380  154.1008 C   0  0  0  0  0  0  0  0  0  0  0  0
  147.1366  138.8088  158.0873 H   0  0  0  0  0  0  0  0  0  0  0  0
  147.2278  139.1146  155.9817 H   0  0  0  0  0  0  0  0  0  0  0  0
  148.5112  140.2699  156.2463 H   0  0  0  0  0  0  0  0  0  0  0  0
  150.1026  138.4075  156.7494 H   0  0  0  0  0  0  0  0  0  0  0  0
  149.5566  136.0944  156.7490 H   0  0  0  0  0  0  0  0  0  0  0  0
  148.2480  136.8293  157.5907 H   0  0  0  0  0  0  0  0  0  0  0  0
  146.1861  137.6214  155.6428 H   0  0  0  0  0  0  0  0  0  0  0  0
  143.9458  134.5883  153.4099 H   0  0  0  0  0  0  0  0  0  0  0  0
  144.2416  135.8726  151.0446 H   0  0  0  0  0  0  0  0  0  0  0  0
  145.5387  136.0795  152.2243 H   0  0  0  0  0  0  0  0  0  0  0  0
  145.7967  134.6740  149.6721 H   0  0  0  0  0  0  0  0  0  0  0  0
  147.0039  134.8743  150.9279 H   0  0  0  0  0  0  0  0  0  0  0  0
  146.5771  132.4376  151.0114 H   0  0  0  0  0  0  0  0  0  0  0  0
  144.3263  131.5146  151.1558 H   0  0  0  0  0  0  0  0  0  0  0  0
  144.1464  133.5614  148.9038 H   0  0  0  0  0  0  0  0  0  0  0  0
  144.8071  131.9553  148.7288 H   0  0  0  0  0  0  0  0  0  0  0  0
  142.1659  132.7527  149.2145 H   0  0  0  0  0  0  0  0  0  0  0  0
  142.8112  132.7577  152.2844 H   0  0  0  0  0  0  0  0  0  0  0  0
  142.7653  134.0246  151.0586 H   0  0  0  0  0  0  0  0  0  0  0  0
  149.3871  132.1711  154.4268 H   0  0  0  0  0  0  0  0  0  0  0  0
  148.8267  137.7610  154.0653 H   0  0  0  0  0  0  0  0  0  0  0  0
  151.2062  136.7089  154.9249 H   0  0  0  0  0  0  0  0  0  0  0  0
  150.9980  137.3176  153.2991 H   0  0  0  0  0  0  0  0  0  0  0  0
  152.4032  138.6609  155.5939 H   0  0  0  0  0  0  0  0  0  0  0  0
  152.7778  138.7188  153.8692 H   0  0  0  0  0  0  0  0  0  0  0  0
  149.8744  139.6121  153.0099 H   0  0  0  0  0  0  0  0  0  0  0  0
  149.1949  140.4130  154.4042 H   0  0  0  0  0  0  0  0  0  0  0  0
  1  2  1  0  0  0  0
  1 28  1  0  0  0  0
  2  3  1  0  0  0  0
  2 29  1  0  0  0  0
  2 30  1  0  0  0  0
  3  4  1  0  0  0  0
  3 23  1  0  0  0  0
  3 31  1  0  0  0  0
  4  5  1  0  0  0  0
  4 32  1  0  0  0  0
  4 33  1  0  0  0  0
  5 22  1  0  0  0  0
  5  6  1  0  0  0  0
  6  7  2  0  0  0  0
  6 34  1  0  0  0  0
  7  8  1  0  0  0  0
  8 22  2  0  0  0  0
  8  9  1  0  0  0  0
  9 10  1  0  0  0  0
  9 19  2  0  0  0  0
 10 14  1  0  0  0  0
 10 11  1  0  0  0  0
 11 18  1  0  0  0  0
 11 12  1  0  0  0  0
 11 35  1  0  0  0  0
 12 13  1  0  0  0  0
 12 36  1  0  0  0  0
 12 37  1  0  0  0  0
 13 14  1  0  0  0  0
 13 38  1  0  0  0  0
 13 39  1  0  0  0  0
 14 15  1  0  0  0  0
 14 40  1  0  0  0  0
 15 16  1  0  0  0  0
 15 18  1  0  0  0  0
 15 41  1  0  0  0  0
 16 17  1  0  0  0  0
 16 42  1  0  0  0  0
 16 43  1  0  0  0  0
 17 44  1  0  0  0  0
 18 45  1  0  0  0  0
 18 46  1  0  0  0  0
 19 20  1  0  0  0  0
 20 21  2  0  0  0  0
 20 47  1  0  0  0  0
 21 22  1  0  0  0  0
 23 27  1  0  0  0  0
 23 24  1  0  0  0  0
 23 48  1  0  0  0  0
 24 25  1  0  0  0  0
 24 49  1  0  0  0  0
 24 50  1  0  0  0  0
 25 26  1  0  0  0  0
 25 51  1  0  0  0  0
 25 52  1  0  0  0  0
 26 27  1  0  0  0  0
 27 53  1  0  0  0  0
 27 54  1  0  0  0  0
M  END
> <s_m_source_file>
AV-unprocessed.smi

> <i_m_source_file_index>
227

> <i_lp_mmshare_version>
43012

> <i_f3d_flags>
0

> <s_epik_input>
W0NIMl0xT1tDSDJdW0NIMl1bQ0BIXTFbQ0BIXShbQ0gyXVtPSF0pW0NIMl1uKFtjSF1uMiljKGMyMyluW2NIXW5jM04oW0NASF00NSlbQ0BASF0oW0NIMl1bQ0gyXTQpW0NASF0oW0NIMl01KVtDSDJdW09IXQ==

> <s_epik_cmdline>
J2VwaWtfcHl0aG9uJywgJy1waCcsICc3LjAnLCAnLXRuJywgJzgnLCAnLW1hJywgJzIwMCcsICctbWV0YWxfYmluZGluZycsICctaW1hZScsICc8aW5maWxlLm1hZT4nLCAnLW9tYWUnLCAnPG91dGZpbGUubWFlPic=

> <r_lp_tautomer_probability>
1

> <r_epik_Ionization_Penalty>
0.0055791

> <r_epik_Ionization_Penalty_Charging>
0

> <r_epik_Ionization_Penalty_Neutral>
0.0055791

> <r_epik_State_Penalty>
0.00401299

> <r_epik_Charging_Adjusted_Penalty>
0.00401299

> <i_epik_Tot_Q>
0

> <i_epik_Tot_abs_Q>
0

> <r_epik_Metal_State_Penalty>
-0

> <b_epik_Metal_Only>
0

> <s_lp_Force_Field>
OPLS_2005

> <r_lp_Energy>
91.5897

> <b_lp_Chiralities_Consistent>
1

> <s_lp_Variant>
AV-unprocessed.smi:227-8

> <Gold.Version>
5.8.1

> <Gold.Id.Protein>
6NUR|6NUR_protein|mol2

> <Gold.PLP.Fitness>
48.2680

> <Gold.PLP.PLP>
-39.8169

> <Gold.PLP.part.hbond>
-4.8715

> <Gold.PLP.part.metal>
0.0000

> <Gold.PLP.part.buried>
-7.0612

> <Gold.PLP.part.nonpolar>
-28.1328

> <Gold.PLP.part.repulsive>
0.3823

> <Gold.PLP.ligand.clash>
0.0000

> <Gold.PLP.ligand.torsion>
0.4262

> <Gold.PLP.Chemscore.Hbond>
2.9913

> <Gold.PLP.Chemscore.CHOScore>
0.0000

> <Gold.PLP.Chemscore.Metal>
0.0000

> <Gold.Chemscore.Hbonds>
donor molecule, donor type, donor heavy atom, donor atom, acceptor molecule, acceptor atom, score
      L1  H    17    44       P1 10186  0.96
      P1  H  7989  7998       L1    26  0.75
      P1  H 10785 10796       L1    17  1.00

> <Gold.PLP.Chemscore.Internal.Correction>
0.3298

> <Gold.Rescore>
     Score         DG    S(hbond)    S(metal)    S(lipo)     H(rot)  DE(clash)    DE(int)     intcor
      9.93     -13.30       2.34        0.00      79.10       3.61       0.17       3.20       ----

> <Gold.Chemscore.Fitness>
9.9309

> <Gold.Chemscore.DG>
-13.3001

> <Gold.Chemscore.ZeroCoef>
-5.4800

> <Gold.Chemscore.Hbond>
2.3351

> <Gold.Chemscore.Metal>
0.0000

> <Gold.Chemscore.Lipo>
79.1038

> <Gold.Chemscore.Internal_Hbond>
0.0000

> <Gold.Chemscore.DEClash>
0.1656

> <Gold.Chemscore.DEInternal>
3.2036

> <Gold.Chemscore.Rot>
3.6071

> <Gold.Chemscore.Internal.Correction>
   9.000000E+99

> <Gold.Chemscore.Hbonds>
donor molecule, donor type, donor heavy atom, donor atom, acceptor molecule, acceptor atom, score
      L1  H    17    44       P1 10186  0.91
      P1  H  7989  7998       L1    26  0.24
      P1  H 10785 10796       L1    17  0.25

> <Gold.Chemscore.Hbond.Weighted>
-7.7992

> <Gold.Chemscore.Metal.Weighted>
-0.0000

> <Gold.Chemscore.Lipo.Weighted>
-9.2551

> <Gold.Chemscore.Internal_Hbond.Weighted>
0.0000

> <Gold.Chemscore.DEClash.Weighted>
0.1656

> <Gold.Chemscore.DEInternal.Weighted>
3.2036

> <Gold.Chemscore.Rot.Weighted>
9.2342

> <Gold.Chemscore.Internal.Correction.Weighted>
   9.000000E+99

> <Gold.Protein.RotatedTorsions>
[ 6907 6896 6895 6894 ] final   -2.69 input  -60.11 | X-H torsion
[ 7974 7965 7964 7962 ] final  110.25 input  175.53 | X-H torsion
[ 8008 7997 7996 7995 ] final  -10.70 input   59.86 | X-H torsion
[ 10167 10162 10161 10158 ] final   81.08 input  -65.29 | X-H torsion
[ 10718 10713 10712 10709 ] final   42.73 input   66.30 | X-H torsion
[ 10763 10752 10751 10750 ] final  138.41 input  -60.55 | X-H torsion
[ 11005 11000 10999 10996 ] final   43.36 input  -57.11 | X-H torsion

> <Gold.Protein.ActiveResidues>
 VAL166  LYS551  ARG553  GLY616  TRP617  ASP618  TYR619  PRO620  LYS621  CYS622 
 ASP623  PHE694  ASN695  SER759  ASP760  ASP761  ALA762  ILE779  LEU786  VAL792 
 PHE793  MET794  SER795  GLU796  ALA797  LYS798  CYS799  TRP800  GLU811  SER814 

> <Gold.Protein.RotatedAtoms>
  151.5258  135.1068  159.9889 H   0  0  0  0  0  0  0  0  0  0  0  0  # atno 6907 bound_to 6896
  152.4600  133.7799  159.6855 H   0  0  0  0  0  0  0  0  0  0  0  0  # atno 6908 bound_to 6896
  150.8559  133.7652  159.3034 H   0  0  0  0  0  0  0  0  0  0  0  0  # atno 6909 bound_to 6896
  145.2574  139.2716  143.4035 H   0  0  0  0  0  0  0  0  0  0  0  0  # atno 7974 bound_to 7965
  154.5530  140.2322  155.8454 H   0  0  0  0  0  0  0  0  0  0  0  0  # atno 8008 bound_to 7997
  156.1964  140.3064  155.9396 H   0  0  0  0  0  0  0  0  0  0  0  0  # atno 8009 bound_to 7997
  155.3033  140.0432  157.3021 H   0  0  0  0  0  0  0  0  0  0  0  0  # atno 8010 bound_to 7997
  139.9430  144.6077  150.8234 H   0  0  0  0  0  0  0  0  0  0  0  0  # atno 10167 bound_to 10162
  157.4080  130.7898  149.7406 H   0  0  0  0  0  0  0  0  0  0  0  0  # atno 10718 bound_to 10713
  153.8892  135.3035  155.3447 H   0  0  0  0  0  0  0  0  0  0  0  0  # atno 10763 bound_to 10752
  154.7724  135.4879  153.9679 H   0  0  0  0  0  0  0  0  0  0  0  0  # atno 10764 bound_to 10752
  153.1307  135.6803  153.9281 H   0  0  0  0  0  0  0  0  0  0  0  0  # atno 10765 bound_to 10752
  140.1652  134.4291  155.8292 H   0  0  0  0  0  0  0  0  0  0  0  0  # atno 11005 bound_to 11000
  146.3285  140.2981  142.8619 LP  0  0  0  0  0  0  0  0  0  0  0  0  # atno 17320 bound_to 7965
  144.9449  140.8117  143.5607 LP  0  0  0  0  0  0  0  0  0  0  0  0  # atno 17321 bound_to 7965
  140.7605  143.3154  151.2746 LP  0  0  0  0  0  0  0  0  0  0  0  0  # atno 17342 bound_to 10162
  139.6690  144.0054  152.2741 LP  0  0  0  0  0  0  0  0  0  0  0  0  # atno 17343 bound_to 10162
  155.9842  130.3993  150.3323 LP  0  0  0  0  0  0  0  0  0  0  0  0  # atno 17370 bound_to 10713
  157.1458  131.0308  151.2907 LP  0  0  0  0  0  0  0  0  0  0  0  0  # atno 17371 bound_to 10713
  141.2213  133.6931  156.7665 LP  0  0  0  0  0  0  0  0  0  0  0  0  # atno 17394 bound_to 11000
  140.2443  134.8590  157.3604 LP  0  0  0  0  0  0  0  0  0  0  0  0  # atno 17395 bound_to 11000

$$$$
