AV-unprocessed.smi:1748|AV-procd|sdf|7040|dock3
  -GOLD-   22720 8263D 1   1.00000     0.00000
 Structure written by MMmdl.
 39 40  0  0  0  0  0  0  0  0  3 V2000
  145.6803  135.9375  153.3089 C   0  0  0  0  0  0  0  0  0  0  0  0
  146.6087  137.0863  153.2391 N   0  3  1  0  0  0  0  0  0  0  0  0
  146.0158  138.2486  152.5314 C   0  0  0  0  0  0  0  0  0  0  0  0
  147.0469  139.3770  152.3641 C   0  0  0  0  0  0  0  0  0  0  0  0
  147.6340  139.7943  153.7197 C   0  0  0  0  0  0  0  0  0  0  0  0
  148.2138  138.5694  154.4460 C   0  0  1  0  0  0  0  0  0  0  0  0
  148.7132  138.9599  155.7611 N   0  0  0  0  0  0  0  0  0  0  0  0
  149.7629  139.7653  155.9798 C   0  0  0  0  0  0  0  0  0  0  0  0
  150.4288  140.2615  155.0712 O   0  0  0  0  0  0  0  0  0  0  0  0
  149.9830  139.9224  157.2976 N   0  0  0  0  0  0  0  0  0  0  0  0
  150.9531  140.7025  157.9496 C   0  0  0  0  0  0  0  0  0  0  0  0
  150.8596  142.0462  158.1518 C   0  0  0  0  0  0  0  0  0  0  0  0
  151.8907  142.8010  158.8537 C   0  0  0  0  0  0  0  0  0  0  0  0
  151.8374  144.2971  159.1033 C   0  0  0  0  0  0  0  0  0  0  0  0
  152.6414  144.9348  158.2531 F   0  0  0  0  0  0  0  0  0  0  0  0
  150.5984  144.7510  158.9174 F   0  0  0  0  0  0  0  0  0  0  0  0
  152.2144  144.5984  160.3459 F   0  0  0  0  0  0  0  0  0  0  0  0
  152.9299  141.9993  159.2818 C   0  0  0  0  0  0  0  0  0  0  0  0
  153.0941  140.6667  159.1314 N   0  5  0  0  0  0  0  0  0  0  0  0
  152.1267  139.9706  158.4699 C   0  0  0  0  0  0  0  0  0  0  0  0
  152.2114  138.7540  158.2978 O   0  0  0  0  0  0  0  0  0  0  0  0
  147.1467  137.4609  154.5706 C   0  0  0  0  0  0  0  0  0  0  0  0
  144.7943  136.1852  153.8951 H   0  0  0  0  0  0  0  0  0  0  0  0
  146.1663  135.0767  153.7690 H   0  0  0  0  0  0  0  0  0  0  0  0
  145.3580  135.6416  152.3099 H   0  0  0  0  0  0  0  0  0  0  0  0
  145.6571  137.9357  151.5500 H   0  0  0  0  0  0  0  0  0  0  0  0
  145.1484  138.6108  153.0860 H   0  0  0  0  0  0  0  0  0  0  0  0
  147.8492  139.0444  151.7038 H   0  0  0  0  0  0  0  0  0  0  0  0
  146.5837  140.2364  151.8786 H   0  0  0  0  0  0  0  0  0  0  0  0
  148.4067  140.5501  153.5734 H   0  0  0  0  0  0  0  0  0  0  0  0
  146.8551  140.2567  154.3280 H   0  0  0  0  0  0  0  0  0  0  0  0
  149.0496  138.1902  153.8540 H   0  0  0  0  0  0  0  0  0  0  0  0
  148.2228  138.5938  156.5641 H   0  0  0  0  0  0  0  0  0  0  0  0
  149.4004  139.3824  157.9207 H   0  0  0  0  0  0  0  0  0  0  0  0
  149.9959  142.5943  157.8129 H   0  0  0  0  0  0  0  0  0  0  0  0
  153.7519  142.5081  159.8297 H   0  0  0  0  0  0  0  0  0  0  0  0
  146.3287  137.7893  155.2147 H   0  0  0  0  0  0  0  0  0  0  0  0
  147.5828  136.5775  155.0390 H   0  0  0  0  0  0  0  0  0  0  0  0
  147.3980  136.7830  152.6866 H   0  0  0  0  0  0  0  0  0  0  0  0
  1  2  1  0  0  0  0
  1 23  1  0  0  0  0
  1 24  1  0  0  0  0
  1 25  1  0  0  0  0
  2 22  1  0  0  0  0
  2  3  1  0  0  0  0
  2 39  1  0  0  0  0
  3  4  1  0  0  0  0
  3 26  1  0  0  0  0
  3 27  1  0  0  0  0
  4  5  1  0  0  0  0
  4 28  1  0  0  0  0
  4 29  1  0  0  0  0
  5  6  1  0  0  0  0
  5 30  1  0  0  0  0
  5 31  1  0  0  0  0
  6  7  1  0  0  0  0
  6 22  1  0  0  0  0
  6 32  1  0  0  0  0
  7  8  1  0  0  0  0
  7 33  1  0  0  0  0
  8  9  2  0  0  0  0
  8 10  1  0  0  0  0
 10 11  1  0  0  0  0
 10 34  1  0  0  0  0
 11 20  1  0  0  0  0
 11 12  2  0  0  0  0
 12 13  1  0  0  0  0
 12 35  1  0  0  0  0
 13 14  1  0  0  0  0
 13 18  2  0  0  0  0
 14 15  1  0  0  0  0
 14 16  1  0  0  0  0
 14 17  1  0  0  0  0
 18 19  1  0  0  0  0
 18 36  1  0  0  0  0
 19 20  1  0  0  0  0
 20 21  2  0  0  0  0
 22 37  1  0  0  0  0
 22 38  1  0  0  0  0
M  CHG  1   2   1
M  CHG  1  19  -1
M  END
> <s_m_source_file>
AV-unprocessed.smi

> <i_m_source_file_index>
1748

> <i_lp_mmshare_version>
43012

> <i_f3d_flags>
0

> <s_epik_input>
W0NIM11OMVtDSDJdW0NIMl1bQ0gyXVtDQEhdKFtDSDJdMSlbTkhdQyg9TylbTkhdYzJbY0hdYyhDKEYpKEYpRilbY0hdW25IXWMyPU8=

> <s_epik_cmdline>
J2VwaWtfcHl0aG9uJywgJy1waCcsICc3LjAnLCAnLXRuJywgJzgnLCAnLW1hJywgJzIwMCcsICctbWV0YWxfYmluZGluZycsICctaW1hZScsICc8aW5maWxlLm1hZT4nLCAnLW9tYWUnLCAnPG91dGZpbGUubWFlPic=

> <r_lp_tautomer_probability>
1

> <r_epik_Ionization_Penalty>
3.00907

> <r_epik_Ionization_Penalty_Charging>
0.148702

> <r_epik_Ionization_Penalty_Neutral>
2.86036

> <r_epik_State_Penalty>
2.85557

> <r_epik_Charging_Adjusted_Penalty>
3.00428

> <i_epik_Tot_Q>
0

> <i_epik_Tot_abs_Q>
2

> <r_epik_Metal_State_Penalty>
0.443779

> <b_epik_Metal_Only>
1

> <s_lp_Force_Field>
OPLS_2005

> <r_lp_Energy>
26.5134

> <b_lp_Chiralities_Consistent>
1

> <s_lp_Variant>
AV-unprocessed.smi:1748-5

> <Gold.Version>
5.8.1

> <Gold.Id.Protein>
6NUR|6NUR_protein|mol2

> <Gold.PLP.Fitness>
43.5085

> <Gold.PLP.PLP>
-37.4116

> <Gold.PLP.part.hbond>
-2.0000

> <Gold.PLP.part.metal>
0.0000

> <Gold.PLP.part.buried>
-1.6701

> <Gold.PLP.part.nonpolar>
-34.1428

> <Gold.PLP.part.repulsive>
0.1245

> <Gold.PLP.ligand.clash>
0.0000

> <Gold.PLP.ligand.torsion>
1.4586

> <Gold.PLP.Chemscore.Hbond>
3.0000

> <Gold.PLP.Chemscore.CHOScore>
0.0000

> <Gold.PLP.Chemscore.Metal>
0.0000

> <Gold.Chemscore.Hbonds>
donor molecule, donor type, donor heavy atom, donor atom, acceptor molecule, acceptor atom, score
      L1  H     2    39       P1  7948  2.00
      P1  H  7989  7998       L1     9  0.89

> <Gold.PLP.Chemscore.Internal.Correction>
0.0140

> <Gold.Rescore>
     Score         DG    S(hbond)    S(metal)    S(lipo)     H(rot)  DE(clash)    DE(int)     intcor
     15.27     -18.35       1.93        0.00      76.91       1.00       1.44       1.64       ----

> <Gold.Chemscore.Fitness>
15.2657

> <Gold.Chemscore.DG>
-18.3520

> <Gold.Chemscore.ZeroCoef>
-5.4800

> <Gold.Chemscore.Hbond>
1.9262

> <Gold.Chemscore.Metal>
0.0000

> <Gold.Chemscore.Lipo>
76.9107

> <Gold.Chemscore.Internal_Hbond>
0.0000

> <Gold.Chemscore.DEClash>
1.4415

> <Gold.Chemscore.DEInternal>
1.6449

> <Gold.Chemscore.Rot>
1.0000

> <Gold.Chemscore.Internal.Correction>
   9.000000E+99

> <Gold.Chemscore.Hbonds>
donor molecule, donor type, donor heavy atom, donor atom, acceptor molecule, acceptor atom, score
      L1  H     2    39       P1  7948  1.00
      P1  H  7989  7998       L1     9  0.86

> <Gold.Chemscore.Hbond.Weighted>
-6.4335

> <Gold.Chemscore.Metal.Weighted>
-0.0000

> <Gold.Chemscore.Lipo.Weighted>
-8.9986

> <Gold.Chemscore.Internal_Hbond.Weighted>
0.0000

> <Gold.Chemscore.DEClash.Weighted>
1.4415

> <Gold.Chemscore.DEInternal.Weighted>
1.6449

> <Gold.Chemscore.Rot.Weighted>
2.5600

> <Gold.Chemscore.Internal.Correction.Weighted>
   9.000000E+99

> <Gold.Protein.RotatedTorsions>
[ 6907 6896 6895 6894 ] final -124.71 input  -60.11 | X-H torsion
[ 7974 7965 7964 7962 ] final -172.32 input  175.53 | X-H torsion
[ 8008 7997 7996 7995 ] final  -26.31 input   59.86 | X-H torsion
[ 10167 10162 10161 10158 ] final   49.60 input  -65.29 | X-H torsion
[ 10718 10713 10712 10709 ] final  -67.43 input   66.30 | X-H torsion
[ 10763 10752 10751 10750 ] final -155.89 input  -60.55 | X-H torsion
[ 11005 11000 10999 10996 ] final   82.77 input  -57.11 | X-H torsion

> <Gold.Protein.ActiveResidues>
 VAL166  LYS551  ARG553  GLY616  TRP617  ASP618  TYR619  PRO620  LYS621  CYS622 
 ASP623  PHE694  ASN695  SER759  ASP760  ASP761  ALA762  ILE779  LEU786  VAL792 
 PHE793  MET794  SER795  GLU796  ALA797  LYS798  CYS799  TRP800  GLU811  SER814 

> <Gold.Protein.RotatedAtoms>
  150.8794  133.7392  159.2936 H   0  0  0  0  0  0  0  0  0  0  0  0  # atno 6907 bound_to 6896
  151.4978  135.1059  159.9830 H   0  0  0  0  0  0  0  0  0  0  0  0  # atno 6908 bound_to 6896
  152.4750  133.8071  159.7039 H   0  0  0  0  0  0  0  0  0  0  0  0  # atno 6909 bound_to 6896
  144.7147  140.1789  143.6360 H   0  0  0  0  0  0  0  0  0  0  0  0  # atno 7974 bound_to 7965
  154.4431  140.1903  156.0756 H   0  0  0  0  0  0  0  0  0  0  0  0  # atno 8008 bound_to 7997
  156.0478  140.3312  155.7290 H   0  0  0  0  0  0  0  0  0  0  0  0  # atno 8009 bound_to 7997
  155.5603  140.0603  157.2821 H   0  0  0  0  0  0  0  0  0  0  0  0  # atno 8010 bound_to 7997
  140.2812  144.3154  150.6264 H   0  0  0  0  0  0  0  0  0  0  0  0  # atno 10167 bound_to 10162
  156.0558  130.4278  150.1853 H   0  0  0  0  0  0  0  0  0  0  0  0  # atno 10718 bound_to 10713
  154.7754  135.3158  154.8103 H   0  0  0  0  0  0  0  0  0  0  0  0  # atno 10763 bound_to 10752
  153.8828  135.6833  153.4770 H   0  0  0  0  0  0  0  0  0  0  0  0  # atno 10764 bound_to 10752
  153.1376  135.4753  154.9382 H   0  0  0  0  0  0  0  0  0  0  0  0  # atno 10765 bound_to 10752
  139.9052  134.8096  156.2219 H   0  0  0  0  0  0  0  0  0  0  0  0  # atno 11005 bound_to 11000
  145.8874  139.2357  143.1569 LP  0  0  0  0  0  0  0  0  0  0  0  0  # atno 17320 bound_to 7965
  145.9936  140.8581  143.0054 LP  0  0  0  0  0  0  0  0  0  0  0  0  # atno 17321 bound_to 7965
  140.5810  143.2173  151.7428 LP  0  0  0  0  0  0  0  0  0  0  0  0  # atno 17342 bound_to 10162
  139.4962  144.4080  152.0111 LP  0  0  0  0  0  0  0  0  0  0  0  0  # atno 17343 bound_to 10162
  156.9930  130.9899  151.3410 LP  0  0  0  0  0  0  0  0  0  0  0  0  # atno 17370 bound_to 10713
  157.5526  130.8192  149.8164 LP  0  0  0  0  0  0  0  0  0  0  0  0  # atno 17371 bound_to 10713
  141.0400  133.6943  156.1581 LP  0  0  0  0  0  0  0  0  0  0  0  0  # atno 17394 bound_to 11000
  140.6969  134.4605  157.5587 LP  0  0  0  0  0  0  0  0  0  0  0  0  # atno 17395 bound_to 11000

$$$$
