AV-unprocessed.smi:1504|AV-procd|sdf|6071|dock3
  -GOLD-   22720 6193D 1   1.00000     0.00000
 Structure written by MMmdl.
 39 40  0  0  0  0  0  0  0  0  1 V2000
  146.1546  138.6097  153.7747 O   0  0  0  0  0  0  0  0  0  0  0  0
  147.0740  138.7933  152.9769 C   0  0  0  0  0  0  0  0  0  0  0  0
  147.0708  138.3479  151.7132 N   0  0  0  0  0  0  0  0  0  0  0  0
  145.9958  137.5716  151.1020 C   0  0  0  0  0  0  0  0  0  0  0  0
  145.4102  136.5009  152.0445 C   0  0  0  0  0  0  0  0  0  0  0  0
  145.3755  135.1083  151.4384 C   0  0  0  0  0  0  0  0  0  0  0  0
  144.1509  134.4302  151.2574 C   0  0  0  0  0  0  0  0  0  0  0  0
  144.1744  133.1423  150.6886 C   0  0  0  0  0  0  0  0  0  0  0  0
  145.4151  132.5842  150.3253 C   0  0  0  0  0  0  0  0  0  0  0  0
  146.5819  133.3423  150.5482 C   0  0  0  0  0  0  0  0  0  0  0  0
  146.5705  134.5785  151.0919 N   0  0  0  0  0  0  0  0  0  0  0  0
  148.2015  139.4573  153.2678 N   0  0  0  0  0  0  0  0  0  0  0  0
  148.5132  140.0711  154.5552 C   0  0  0  0  0  0  0  0  0  0  0  0
  149.7331  139.4195  155.2375 C   0  0  2  0  0  0  0  0  0  0  0  0
  150.4101  140.3085  156.3031 C   0  0  0  0  0  0  0  0  0  0  0  0
  151.7552  139.6833  156.6835 C   0  0  0  0  0  0  0  0  0  0  0  0
  152.3927  138.9210  155.1469 S   0  0  0  0  0  0  0  0  0  0  0  0
  153.3647  139.8275  154.5171 O   0  0  0  0  0  0  0  0  0  0  0  0
  152.7308  137.5148  155.4135 O   0  0  0  0  0  0  0  0  0  0  0  0
  150.8119  139.0093  154.2214 C   0  0  0  0  0  0  0  0  0  0  0  0
  147.8708  138.5526  151.1323 H   0  0  0  0  0  0  0  0  0  0  0  0
  145.2100  138.2716  150.8168 H   0  0  0  0  0  0  0  0  0  0  0  0
  146.3465  137.1113  150.1771 H   0  0  0  0  0  0  0  0  0  0  0  0
  145.9912  136.4699  152.9670 H   0  0  0  0  0  0  0  0  0  0  0  0
  144.3991  136.7837  152.3405 H   0  0  0  0  0  0  0  0  0  0  0  0
  143.2146  134.8864  151.5441 H   0  0  0  0  0  0  0  0  0  0  0  0
  143.2576  132.5928  150.5342 H   0  0  0  0  0  0  0  0  0  0  0  0
  145.4716  131.5985  149.8877 H   0  0  0  0  0  0  0  0  0  0  0  0
  147.5502  132.9447  150.2823 H   0  0  0  0  0  0  0  0  0  0  0  0
  148.8958  139.5528  152.5410 H   0  0  0  0  0  0  0  0  0  0  0  0
  148.7229  141.1249  154.3697 H   0  0  0  0  0  0  0  0  0  0  0  0
  147.6451  140.0477  155.2164 H   0  0  0  0  0  0  0  0  0  0  0  0
  149.4015  138.5090  155.7394 H   0  0  0  0  0  0  0  0  0  0  0  0
  150.5884  141.2990  155.8822 H   0  0  0  0  0  0  0  0  0  0  0  0
  149.7812  140.4442  157.1831 H   0  0  0  0  0  0  0  0  0  0  0  0
  152.4705  140.4077  157.0732 H   0  0  0  0  0  0  0  0  0  0  0  0
  151.6189  138.8923  157.4213 H   0  0  0  0  0  0  0  0  0  0  0  0
  150.6028  138.0514  153.7450 H   0  0  0  0  0  0  0  0  0  0  0  0
  150.9272  139.7642  153.4430 H   0  0  0  0  0  0  0  0  0  0  0  0
  1  2  2  0  0  0  0
  2  3  1  0  0  0  0
  2 12  1  0  0  0  0
  3  4  1  0  0  0  0
  3 21  1  0  0  0  0
  4  5  1  0  0  0  0
  4 22  1  0  0  0  0
  4 23  1  0  0  0  0
  5  6  1  0  0  0  0
  5 24  1  0  0  0  0
  5 25  1  0  0  0  0
  6 11  1  0  0  0  0
  6  7  2  0  0  0  0
  7  8  1  0  0  0  0
  7 26  1  0  0  0  0
  8  9  2  0  0  0  0
  8 27  1  0  0  0  0
  9 10  1  0  0  0  0
  9 28  1  0  0  0  0
 10 11  2  0  0  0  0
 10 29  1  0  0  0  0
 12 13  1  0  0  0  0
 12 30  1  0  0  0  0
 13 14  1  0  0  0  0
 13 31  1  0  0  0  0
 13 32  1  0  0  0  0
 14 20  1  0  0  0  0
 14 15  1  0  0  0  0
 14 33  1  0  0  0  0
 15 16  1  0  0  0  0
 15 34  1  0  0  0  0
 15 35  1  0  0  0  0
 16 17  1  0  0  0  0
 16 36  1  0  0  0  0
 16 37  1  0  0  0  0
 17 18  2  0  0  0  0
 17 19  2  0  0  0  0
 17 20  1  0  0  0  0
 20 38  1  0  0  0  0
 20 39  1  0  0  0  0
M  END
> <s_m_source_file>
AV-unprocessed.smi

> <i_m_source_file_index>
1504

> <i_lp_mmshare_version>
43012

> <i_f3d_flags>
0

> <s_epik_input>
Tz1TMSg9TylbQ0gyXVtDSDJdW0NASF0oW0NIMl0xKVtDSDJdW05IXUMoPU8pW05IXVtDSDJdW0NIMl1jMltjSF1bY0hdW2NIXVtjSF1uMg==

> <s_epik_cmdline>
J2VwaWtfcHl0aG9uJywgJy1waCcsICc3LjAnLCAnLXRuJywgJzgnLCAnLW1hJywgJzIwMCcsICctbWV0YWxfYmluZGluZycsICctaW1hZScsICc8aW5maWxlLm1hZT4nLCAnLW9tYWUnLCAnPG91dGZpbGUubWFlPic=

> <r_epik_Ionization_Penalty>
0.0431785

> <r_epik_Ionization_Penalty_Charging>
0

> <r_epik_Ionization_Penalty_Neutral>
0.0431785

> <r_epik_State_Penalty>
0.0364691

> <r_epik_Charging_Adjusted_Penalty>
0.0364691

> <i_epik_Tot_Q>
0

> <i_epik_Tot_abs_Q>
0

> <r_epik_Metal_State_Penalty>
0.0339827

> <b_epik_Metal_Only>
0

> <s_lp_Force_Field>
OPLS_2005

> <r_lp_Energy>
2.61241

> <b_lp_Chiralities_Consistent>
1

> <s_lp_Variant>
AV-unprocessed.smi:1504-1

> <Gold.Version>
5.8.1

> <Gold.Id.Protein>
6NUR|6NUR_protein|mol2

> <Gold.PLP.Fitness>
46.9843

> <Gold.PLP.PLP>
-36.5381

> <Gold.PLP.part.hbond>
-5.9223

> <Gold.PLP.part.metal>
0.0000

> <Gold.PLP.part.buried>
-0.7848

> <Gold.PLP.part.nonpolar>
-31.0219

> <Gold.PLP.part.repulsive>
2.0727

> <Gold.PLP.ligand.clash>
0.0000

> <Gold.PLP.ligand.torsion>
0.7284

> <Gold.PLP.Chemscore.Hbond>
2.9612

> <Gold.PLP.Chemscore.CHOScore>
1.0000

> <Gold.PLP.Chemscore.Metal>
0.0000

> <Gold.Chemscore.Hbonds>
donor molecule, donor type, donor heavy atom, donor atom, acceptor molecule, acceptor atom, score
      L1  H     3    21       P1  7957  0.35
      L1  H    12    30       P1  7957  1.00
      P1  H  7989  7998       L1    18  0.04
      P1  H  7997  8010       L1    18  1.00
      P1  H 10752 10765       L1    19  0.48
      L1  C    10    29       P1 10747  1.00

> <Gold.PLP.Chemscore.Internal.Correction>
0.0194

> <Gold.Rescore>
     Score         DG    S(hbond)    S(metal)    S(lipo)     H(rot)  DE(clash)    DE(int)     intcor
     15.76     -19.69       2.83        0.00      82.55       1.91       1.87       2.06       ----

> <Gold.Chemscore.Fitness>
15.7622

> <Gold.Chemscore.DG>
-19.6939

> <Gold.Chemscore.ZeroCoef>
-5.4800

> <Gold.Chemscore.Hbond>
2.8282

> <Gold.Chemscore.Metal>
0.0000

> <Gold.Chemscore.Lipo>
82.5506

> <Gold.Chemscore.Internal_Hbond>
0.0000

> <Gold.Chemscore.DEClash>
1.8671

> <Gold.Chemscore.DEInternal>
2.0646

> <Gold.Chemscore.Rot>
1.9105

> <Gold.Chemscore.Internal.Correction>
   9.000000E+99

> <Gold.Chemscore.Hbonds>
donor molecule, donor type, donor heavy atom, donor atom, acceptor molecule, acceptor atom, score
      L1  H     3    21       P1  7957  0.07
      L1  H    12    30       P1  7957  0.99
      P1  H  7997  8010       L1    18  0.65
      P1  H 10752 10765       L1    19  0.47

> <Gold.Chemscore.Hbond.Weighted>
-9.4463

> <Gold.Chemscore.Metal.Weighted>
-0.0000

> <Gold.Chemscore.Lipo.Weighted>
-9.6584

> <Gold.Chemscore.Internal_Hbond.Weighted>
0.0000

> <Gold.Chemscore.DEClash.Weighted>
1.8671

> <Gold.Chemscore.DEInternal.Weighted>
2.0646

> <Gold.Chemscore.Rot.Weighted>
4.8908

> <Gold.Chemscore.Internal.Correction.Weighted>
   9.000000E+99

> <Gold.Protein.RotatedTorsions>
[ 6907 6896 6895 6894 ] final  149.17 input  -60.11 | X-H torsion
[ 7974 7965 7964 7962 ] final -177.55 input  175.53 | X-H torsion
[ 8008 7997 7996 7995 ] final  117.00 input   59.86 | X-H torsion
[ 10167 10162 10161 10158 ] final   20.25 input  -65.29 | X-H torsion
[ 10718 10713 10712 10709 ] final   -9.00 input   66.30 | X-H torsion
[ 10763 10752 10751 10750 ] final -165.51 input  -60.55 | X-H torsion
[ 11005 11000 10999 10996 ] final  165.20 input  -57.11 | X-H torsion

> <Gold.Protein.ActiveResidues>
 VAL166  LYS551  ARG553  GLY616  TRP617  ASP618  TYR619  PRO620  LYS621  CYS622 
 ASP623  PHE694  ASN695  SER759  ASP760  ASP761  ALA762  ILE779  LEU786  VAL792 
 PHE793  MET794  SER795  GLU796  ALA797  LYS798  CYS799  TRP800  GLU811  SER814 

> <Gold.Protein.RotatedAtoms>
  152.1316  133.4411  159.4723 H   0  0  0  0  0  0  0  0  0  0  0  0  # atno 6907 bound_to 6896
  150.6878  134.2413  159.4483 H   0  0  0  0  0  0  0  0  0  0  0  0  # atno 6908 bound_to 6896
  152.0297  134.9774  160.0623 H   0  0  0  0  0  0  0  0  0  0  0  0  # atno 6909 bound_to 6896
  144.7128  140.1003  143.6417 H   0  0  0  0  0  0  0  0  0  0  0  0  # atno 7974 bound_to 7965
  156.2470  140.2905  156.0610 H   0  0  0  0  0  0  0  0  0  0  0  0  # atno 8008 bound_to 7997
  155.1775  140.0403  157.2893 H   0  0  0  0  0  0  0  0  0  0  0  0  # atno 8009 bound_to 7997
  154.6282  140.2493  155.7472 H   0  0  0  0  0  0  0  0  0  0  0  0  # atno 8010 bound_to 7997
  140.5518  143.9495  150.6583 H   0  0  0  0  0  0  0  0  0  0  0  0  # atno 10167 bound_to 10162
  156.6944  130.5075  149.5934 H   0  0  0  0  0  0  0  0  0  0  0  0  # atno 10718 bound_to 10713
  154.6924  135.2973  154.9460 H   0  0  0  0  0  0  0  0  0  0  0  0  # atno 10763 bound_to 10752
  154.0418  135.6656  153.4795 H   0  0  0  0  0  0  0  0  0  0  0  0  # atno 10764 bound_to 10752
  153.0622  135.5109  154.8024 H   0  0  0  0  0  0  0  0  0  0  0  0  # atno 10765 bound_to 10752
  140.2537  134.7957  157.3526 H   0  0  0  0  0  0  0  0  0  0  0  0  # atno 11005 bound_to 11000
  145.9544  139.2756  143.1193 LP  0  0  0  0  0  0  0  0  0  0  0  0  # atno 17320 bound_to 7965
  145.9288  140.9063  143.0367 LP  0  0  0  0  0  0  0  0  0  0  0  0  # atno 17321 bound_to 7965
  140.2923  143.3316  152.1050 LP  0  0  0  0  0  0  0  0  0  0  0  0  # atno 17342 bound_to 10162
  139.5030  144.6747  151.6156 LP  0  0  0  0  0  0  0  0  0  0  0  0  # atno 17343 bound_to 10162
  156.1774  130.6476  151.0910 LP  0  0  0  0  0  0  0  0  0  0  0  0  # atno 17370 bound_to 10713
  157.6996  131.0781  150.6860 LP  0  0  0  0  0  0  0  0  0  0  0  0  # atno 17371 bound_to 10713
  140.1533  134.4822  155.7946 LP  0  0  0  0  0  0  0  0  0  0  0  0  # atno 17394 bound_to 11000
  141.2198  133.6871  156.7416 LP  0  0  0  0  0  0  0  0  0  0  0  0  # atno 17395 bound_to 11000

$$$$
