AV-unprocessed.smi:48|AV-procd|sdf|456|dock2
  -GOLD-   2262016323D 1   1.00000     0.00000
 Structure written by MMmdl.
 30 32  0  0  0  0  0  0  0  0  1 V2000
  145.5121  141.9462  154.3499 O   0  0  0  0  0  0  0  0  0  0  0  0
  146.8412  142.3425  154.0864 C   0  0  0  0  0  0  0  0  0  0  0  0
  147.8255  141.3543  154.7299 C   0  0  2  0  0  0  0  0  0  0  0  0
  149.1222  141.5456  154.1834 O   0  0  0  0  0  0  0  0  0  0  0  0
  149.8763  140.3873  154.3453 C   0  0  1  0  0  0  0  0  0  0  0  0
  150.6878  140.5225  155.6062 N   0  0  0  0  0  0  0  0  0  0  0  0
  151.8883  139.9464  155.8248 C   0  0  0  0  0  0  0  0  0  0  0  0
  152.4951  140.1932  156.9834 N   0  0  0  0  0  0  0  0  0  0  0  0
  151.5925  141.0494  157.5880 C   0  0  0  0  0  0  0  0  0  0  0  0
  151.6002  141.7130  158.8391 C   0  0  0  0  0  0  0  0  0  0  0  0
  152.9136  141.5162  159.9413 Cl  0  0  0  0  0  0  0  0  0  0  0  0
  150.5523  142.5096  159.1546 N   0  0  0  0  0  0  0  0  0  0  0  0
  149.5488  142.6452  158.2807 C   0  0  0  0  0  0  0  0  0  0  0  0
  149.4047  142.0843  157.0753 N   0  0  0  0  0  0  0  0  0  0  0  0
  150.4604  141.2788  156.7524 C   0  0  0  0  0  0  0  0  0  0  0  0
  148.8947  139.2027  154.3665 C   0  0  2  0  0  0  0  0  0  0  0  0
  149.0233  138.4131  153.2016 O   0  0  0  0  0  0  0  0  0  0  0  0
  147.5240  139.8862  154.3907 C   0  0  1  0  0  0  0  0  0  0  0  0
  146.6972  139.3133  155.3835 O   0  0  0  0  0  0  0  0  0  0  0  0
  147.8615  141.5001  155.8098 H   0  0  0  0  0  0  0  0  0  0  0  0
  150.6270  140.3133  153.5570 H   0  0  0  0  0  0  0  0  0  0  0  0
  149.0763  138.5632  155.2297 H   0  0  0  0  0  0  0  0  0  0  0  0
  147.0369  139.8171  153.4163 H   0  0  0  0  0  0  0  0  0  0  0  0
  145.2221  141.3830  153.6487 H   0  0  0  0  0  0  0  0  0  0  0  0
  146.9706  142.3472  153.0038 H   0  0  0  0  0  0  0  0  0  0  0  0
  147.0124  143.3603  154.4382 H   0  0  0  0  0  0  0  0  0  0  0  0
  152.3470  139.3053  155.0861 H   0  0  0  0  0  0  0  0  0  0  0  0
  148.7434  143.2937  158.5921 H   0  0  0  0  0  0  0  0  0  0  0  0
  149.1370  138.9881  152.4604 H   0  0  0  0  0  0  0  0  0  0  0  0
  145.8387  139.1752  155.0135 H   0  0  0  0  0  0  0  0  0  0  0  0
  1  2  1  0  0  0  0
  1 24  1  0  0  0  0
  2  3  1  0  0  0  0
  2 25  1  0  0  0  0
  2 26  1  0  0  0  0
  3 20  1  0  0  0  0
  3 18  1  0  0  0  0
  3  4  1  0  0  0  0
  4  5  1  0  0  0  0
  5 21  1  0  0  0  0
  5  6  1  0  0  0  0
  5 16  1  0  0  0  0
  6 15  1  0  0  0  0
  6  7  1  0  0  0  0
  7  8  2  0  0  0  0
  7 27  1  0  0  0  0
  8  9  1  0  0  0  0
  9 15  2  0  0  0  0
  9 10  1  0  0  0  0
 10 11  1  0  0  0  0
 10 12  2  0  0  0  0
 12 13  1  0  0  0  0
 13 14  2  0  0  0  0
 13 28  1  0  0  0  0
 14 15  1  0  0  0  0
 16 22  1  0  0  0  0
 16 17  1  0  0  0  0
 16 18  1  0  0  0  0
 17 29  1  0  0  0  0
 18 23  1  0  0  0  0
 18 19  1  0  0  0  0
 19 30  1  0  0  0  0
M  END
> <s_m_source_file>
AV-unprocessed.smi

> <i_m_source_file_index>
48

> <i_lp_mmshare_version>
43012

> <i_f3d_flags>
0

> <s_epik_input>
W09IXVtDSDJdW0NASF0xT1tDQEhdKFtDQEhdKFtPSF0pW0NAQEhdMVtPSF0pbihbY0hdbjIpYyhjMjMpbltjSF1uYzNDbA==

> <s_epik_cmdline>
J2VwaWtfcHl0aG9uJywgJy1waCcsICc3LjAnLCAnLXRuJywgJzgnLCAnLW1hJywgJzIwMCcsICctbWV0YWxfYmluZGluZycsICctaW1hZScsICc8aW5maWxlLm1hZT4nLCAnLW9tYWUnLCAnPG91dGZpbGUubWFlPic=

> <r_lp_tautomer_probability>
1

> <r_epik_Ionization_Penalty>
3.45505e-06

> <r_epik_Ionization_Penalty_Charging>
0

> <r_epik_Ionization_Penalty_Neutral>
3.45505e-06

> <r_epik_State_Penalty>
-0

> <r_epik_Charging_Adjusted_Penalty>
0

> <i_epik_Tot_Q>
0

> <i_epik_Tot_abs_Q>
0

> <r_epik_Metal_State_Penalty>
-0

> <b_epik_Metal_Only>
0

> <s_epik_Chemistry_Notes>
This compound contains an acetal/aminal-like group ( X-CH(R)-Y where X, Y are N, S, or O) that may be acid/base labile, releasing an aldehyde.

> <s_lp_Force_Field>
OPLS_2005

> <r_lp_Energy>
32.3387

> <b_lp_Chiralities_Consistent>
1

> <s_lp_Variant>
AV-unprocessed.smi:48-10

> <Gold.Version>
5.8.1

> <Gold.Id.Protein>
6NUR|6NUR_protein|mol2

> <Gold.PLP.Fitness>
41.7825

> <Gold.PLP.PLP>
-33.7165

> <Gold.PLP.part.hbond>
-6.3014

> <Gold.PLP.part.metal>
0.0000

> <Gold.PLP.part.buried>
-1.7257

> <Gold.PLP.part.nonpolar>
-25.8147

> <Gold.PLP.part.repulsive>
0.8662

> <Gold.PLP.ligand.clash>
0.0000

> <Gold.PLP.ligand.torsion>
0.8122

> <Gold.PLP.Chemscore.Hbond>
3.2221

> <Gold.PLP.Chemscore.CHOScore>
0.0000

> <Gold.PLP.Chemscore.Metal>
0.0000

> <Gold.Chemscore.Hbonds>
donor molecule, donor type, donor heavy atom, donor atom, acceptor molecule, acceptor atom, score
      L1  H     1    24       P1 10175  0.78
      L1  H    17    29       P1  7957  1.00
      P1  H  7997  8010       L1     8  1.00
      P1  H  8011  8017       L1     4  0.44

> <Gold.PLP.Chemscore.Internal.Correction>
0.0240

> <Gold.Rescore>
     Score         DG    S(hbond)    S(metal)    S(lipo)     H(rot)  DE(clash)    DE(int)     intcor
      6.39     -10.70       2.87        0.00      45.84       3.80       1.19       3.13       ----

> <Gold.Chemscore.Fitness>
6.3873

> <Gold.Chemscore.DG>
-10.7023

> <Gold.Chemscore.ZeroCoef>
-5.4800

> <Gold.Chemscore.Hbond>
2.8718

> <Gold.Chemscore.Metal>
0.0000

> <Gold.Chemscore.Lipo>
45.8370

> <Gold.Chemscore.Internal_Hbond>
0.0000

> <Gold.Chemscore.DEClash>
1.1853

> <Gold.Chemscore.DEInternal>
3.1297

> <Gold.Chemscore.Rot>
3.8017

> <Gold.Chemscore.Internal.Correction>
   9.000000E+99

> <Gold.Chemscore.Hbonds>
donor molecule, donor type, donor heavy atom, donor atom, acceptor molecule, acceptor atom, score
      L1  H     1    24       P1 10175  0.19
      L1  H    17    29       P1  7957  0.98
      P1  H  7997  8010       L1     8  0.28
      P1  H  8011  8017       L1     4  0.24

> <Gold.Chemscore.Hbond.Weighted>
-9.5918

> <Gold.Chemscore.Metal.Weighted>
-0.0000

> <Gold.Chemscore.Lipo.Weighted>
-5.3629

> <Gold.Chemscore.Internal_Hbond.Weighted>
0.0000

> <Gold.Chemscore.DEClash.Weighted>
1.1853

> <Gold.Chemscore.DEInternal.Weighted>
3.1297

> <Gold.Chemscore.Rot.Weighted>
9.7324

> <Gold.Chemscore.Internal.Correction.Weighted>
   9.000000E+99

> <Gold.Protein.RotatedTorsions>
[ 6907 6896 6895 6894 ] final  105.32 input  -60.11 | X-H torsion
[ 7974 7965 7964 7962 ] final  -34.43 input  175.53 | X-H torsion
[ 8008 7997 7996 7995 ] final   72.87 input   59.86 | X-H torsion
[ 10167 10162 10161 10158 ] final -100.30 input  -65.29 | X-H torsion
[ 10718 10713 10712 10709 ] final -131.94 input   66.30 | X-H torsion
[ 10763 10752 10751 10750 ] final  -78.61 input  -60.55 | X-H torsion
[ 11005 11000 10999 10996 ] final  172.37 input  -57.11 | X-H torsion

> <Gold.Protein.ActiveResidues>
 VAL166  LYS551  ARG553  GLY616  TRP617  ASP618  TYR619  PRO620  LYS621  CYS622 
 ASP623  PHE694  ASN695  SER759  ASP760  ASP761  ALA762  ILE779  LEU786  VAL792 
 PHE793  MET794  SER795  GLU796  ALA797  LYS798  CYS799  TRP800  GLU811  SER814 

> <Gold.Protein.RotatedAtoms>
  152.5234  133.9545  159.7687 H   0  0  0  0  0  0  0  0  0  0  0  0  # atno 6907 bound_to 6896
  150.9848  133.6200  159.2724 H   0  0  0  0  0  0  0  0  0  0  0  0  # atno 6908 bound_to 6896
  151.3364  135.0859  159.9409 H   0  0  0  0  0  0  0  0  0  0  0  0  # atno 6909 bound_to 6896
  146.0830  140.6038  142.8900 H   0  0  0  0  0  0  0  0  0  0  0  0  # atno 7974 bound_to 7965
  155.7753  140.3483  155.5268 H   0  0  0  0  0  0  0  0  0  0  0  0  # atno 8008 bound_to 7997
  155.8781  140.0997  157.1525 H   0  0  0  0  0  0  0  0  0  0  0  0  # atno 8009 bound_to 7997
  154.4022  140.1327  156.4150 H   0  0  0  0  0  0  0  0  0  0  0  0  # atno 8010 bound_to 7997
  140.2534  143.3457  152.0693 H   0  0  0  0  0  0  0  0  0  0  0  0  # atno 10167 bound_to 10162
  156.2295  130.7028  151.0842 H   0  0  0  0  0  0  0  0  0  0  0  0  # atno 10718 bound_to 10713
  154.5281  135.5724  153.6736 H   0  0  0  0  0  0  0  0  0  0  0  0  # atno 10763 bound_to 10752
  152.9932  135.6198  154.2666 H   0  0  0  0  0  0  0  0  0  0  0  0  # atno 10764 bound_to 10752
  154.2590  135.2856  155.2765 H   0  0  0  0  0  0  0  0  0  0  0  0  # atno 10765 bound_to 10752
  140.3290  134.7373  157.4120 H   0  0  0  0  0  0  0  0  0  0  0  0  # atno 11005 bound_to 11000
  144.7306  140.4659  143.6941 LP  0  0  0  0  0  0  0  0  0  0  0  0  # atno 17320 bound_to 7965
  145.6183  139.1521  143.3037 LP  0  0  0  0  0  0  0  0  0  0  0  0  # atno 17321 bound_to 7965
  139.5039  144.6765  151.6116 LP  0  0  0  0  0  0  0  0  0  0  0  0  # atno 17342 bound_to 10162
  140.6023  143.9588  150.6394 LP  0  0  0  0  0  0  0  0  0  0  0  0  # atno 17343 bound_to 10162
  157.7126  131.0726  150.6445 LP  0  0  0  0  0  0  0  0  0  0  0  0  # atno 17370 bound_to 10713
  156.6512  130.4485  149.5719 LP  0  0  0  0  0  0  0  0  0  0  0  0  # atno 17371 bound_to 10713
  140.0877  134.5644  155.8476 LP  0  0  0  0  0  0  0  0  0  0  0  0  # atno 17394 bound_to 11000
  141.2068  133.6658  156.6265 LP  0  0  0  0  0  0  0  0  0  0  0  0  # atno 17395 bound_to 11000

$$$$
