AV-unprocessed.smi:772|AV-procd|sdf|3685|dock3
  -GOLD-   22720 1103D 1   1.00000     0.00000
 Structure written by MMmdl.
 46 47  0  0  0  0  0  0  0  0  1 V2000
  144.5893  131.7046  150.8521 C   0  0  0  0  0  0  0  0  0  0  0  0
  144.8809  133.1170  151.3135 C   0  0  0  0  0  0  0  0  0  0  0  0
  143.8871  134.1168  151.2560 C   0  0  0  0  0  0  0  0  0  0  0  0
  144.2183  135.4165  151.6842 C   0  0  0  0  0  0  0  0  0  0  0  0
  145.5249  135.6663  152.1510 C   0  0  0  0  0  0  0  0  0  0  0  0
  145.9422  137.0611  152.5833 C   0  0  0  0  0  0  0  0  0  0  0  0
  146.5463  137.1096  154.0002 C   0  0  0  0  0  0  0  0  0  0  0  0
  147.8841  137.6976  154.0069 N   0  0  0  0  0  0  0  0  0  0  0  0
  148.2659  138.7779  154.7114 C   0  0  0  0  0  0  0  0  0  0  0  0
  147.5022  139.3663  155.4784 O   0  0  0  0  0  0  0  0  0  0  0  0
  149.5326  139.1971  154.4629 N   0  0  0  0  0  0  0  0  0  0  0  0
  150.5917  138.4060  153.8165 C   0  0  0  0  0  0  0  0  0  0  0  0
  151.4657  137.7611  154.9033 C   0  0  0  0  0  0  0  0  0  0  0  0
  152.2923  139.0300  155.9121 S   0  0  0  0  0  0  0  0  0  0  0  0
  150.8642  140.0926  156.3300 C   0  0  1  0  0  0  0  0  0  0  0  0
  151.2802  141.3504  157.1339 C   0  0  0  0  0  0  0  0  0  0  0  0
  152.1415  141.0441  158.3736 C   0  0  0  0  0  0  0  0  0  0  0  0
  150.0680  142.2202  157.5088 C   0  0  0  0  0  0  0  0  0  0  0  0
  150.0612  140.4319  155.0545 C   0  0  0  0  0  0  0  0  0  0  0  0
  146.4419  134.5938  152.1751 C   0  0  0  0  0  0  0  0  0  0  0  0
  146.1340  133.3451  151.7647 N   0  0  0  0  0  0  0  0  0  0  0  0
  143.5248  131.5620  150.6638 H   0  0  0  0  0  0  0  0  0  0  0  0
  144.8992  130.9833  151.6088 H   0  0  0  0  0  0  0  0  0  0  0  0
  145.1306  131.4911  149.9300 H   0  0  0  0  0  0  0  0  0  0  0  0
  142.8963  133.8983  150.8859 H   0  0  0  0  0  0  0  0  0  0  0  0
  143.4861  136.2094  151.6422 H   0  0  0  0  0  0  0  0  0  0  0  0
  146.6629  137.4498  151.8632 H   0  0  0  0  0  0  0  0  0  0  0  0
  145.0765  137.7227  152.5319 H   0  0  0  0  0  0  0  0  0  0  0  0
  145.8817  137.6565  154.6712 H   0  0  0  0  0  0  0  0  0  0  0  0
  146.6157  136.0990  154.4025 H   0  0  0  0  0  0  0  0  0  0  0  0
  148.5651  137.2769  153.3919 H   0  0  0  0  0  0  0  0  0  0  0  0
  150.2060  137.6379  153.1462 H   0  0  0  0  0  0  0  0  0  0  0  0
  151.2016  139.0500  153.1812 H   0  0  0  0  0  0  0  0  0  0  0  0
  150.8609  137.1275  155.5531 H   0  0  0  0  0  0  0  0  0  0  0  0
  152.2263  137.1238  154.4520 H   0  0  0  0  0  0  0  0  0  0  0  0
  150.2152  139.4971  156.9743 H   0  0  0  0  0  0  0  0  0  0  0  0
  151.8942  141.9598  156.4694 H   0  0  0  0  0  0  0  0  0  0  0  0
  151.5984  140.4490  159.1078 H   0  0  0  0  0  0  0  0  0  0  0  0
  152.4504  141.9661  158.8666 H   0  0  0  0  0  0  0  0  0  0  0  0
  153.0502  140.5037  158.1106 H   0  0  0  0  0  0  0  0  0  0  0  0
  149.4023  141.7076  158.2035 H   0  0  0  0  0  0  0  0  0  0  0  0
  149.4866  142.4876  156.6260 H   0  0  0  0  0  0  0  0  0  0  0  0
  150.3851  143.1489  157.9839 H   0  0  0  0  0  0  0  0  0  0  0  0
  150.6908  140.9437  154.3259 H   0  0  0  0  0  0  0  0  0  0  0  0
  149.2609  141.1366  155.2863 H   0  0  0  0  0  0  0  0  0  0  0  0
  147.4556  134.7443  152.5164 H   0  0  0  0  0  0  0  0  0  0  0  0
  1  2  1  0  0  0  0
  1 22  1  0  0  0  0
  1 23  1  0  0  0  0
  1 24  1  0  0  0  0
  2 21  1  0  0  0  0
  2  3  2  0  0  0  0
  3  4  1  0  0  0  0
  3 25  1  0  0  0  0
  4  5  2  0  0  0  0
  4 26  1  0  0  0  0
  5  6  1  0  0  0  0
  5 20  1  0  0  0  0
  6  7  1  0  0  0  0
  6 27  1  0  0  0  0
  6 28  1  0  0  0  0
  7  8  1  0  0  0  0
  7 29  1  0  0  0  0
  7 30  1  0  0  0  0
  8  9  1  0  0  0  0
  8 31  1  0  0  0  0
  9 10  2  0  0  0  0
  9 11  1  0  0  0  0
 11 19  1  0  0  0  0
 11 12  1  0  0  0  0
 12 13  1  0  0  0  0
 12 32  1  0  0  0  0
 12 33  1  0  0  0  0
 13 14  1  0  0  0  0
 13 34  1  0  0  0  0
 13 35  1  0  0  0  0
 14 15  1  0  0  0  0
 15 16  1  0  0  0  0
 15 19  1  0  0  0  0
 15 36  1  0  0  0  0
 16 17  1  0  0  0  0
 16 18  1  0  0  0  0
 16 37  1  0  0  0  0
 17 38  1  0  0  0  0
 17 39  1  0  0  0  0
 17 40  1  0  0  0  0
 18 41  1  0  0  0  0
 18 42  1  0  0  0  0
 18 43  1  0  0  0  0
 19 44  1  0  0  0  0
 19 45  1  0  0  0  0
 20 21  2  0  0  0  0
 20 46  1  0  0  0  0
M  END
> <s_m_source_file>
AV-unprocessed.smi

> <i_m_source_file_index>
772

> <i_lp_mmshare_version>
43012

> <i_f3d_flags>
0

> <s_epik_input>
W0NIM11jMVtjSF1bY0hdYyhbY0hdbjEpW0NIMl1bQ0gyXVtOSF1DKD1PKU4yW0NIMl1bQ0gyXVNbQ0BIXShbQ0gyXTIpW0NIXShbQ0gzXSlbQ0gzXQ==

> <s_epik_cmdline>
J2VwaWtfcHl0aG9uJywgJy1waCcsICc3LjAnLCAnLXRuJywgJzgnLCAnLW1hJywgJzIwMCcsICctbWV0YWxfYmluZGluZycsICctaW1hZScsICc8aW5maWxlLm1hZT4nLCAnLW9tYWUnLCAnPG91dGZpbGUubWFlPic=

> <r_epik_Ionization_Penalty>
0.0566916

> <r_epik_Ionization_Penalty_Charging>
0

> <r_epik_Ionization_Penalty_Neutral>
0.0566916

> <r_epik_State_Penalty>
0.0488669

> <r_epik_Charging_Adjusted_Penalty>
0.0488669

> <i_epik_Tot_Q>
0

> <i_epik_Tot_abs_Q>
0

> <r_epik_Metal_State_Penalty>
0.0445784

> <b_epik_Metal_Only>
0

> <s_lp_Force_Field>
OPLS_2005

> <r_lp_Energy>
25.3974

> <b_lp_Chiralities_Consistent>
1

> <s_lp_Variant>
AV-unprocessed.smi:772-1

> <Gold.Version>
5.8.1

> <Gold.Id.Protein>
6NUR|6NUR_protein|mol2

> <Gold.PLP.Fitness>
39.2005

> <Gold.PLP.PLP>
-34.0910

> <Gold.PLP.part.hbond>
-1.0000

> <Gold.PLP.part.metal>
0.0000

> <Gold.PLP.part.buried>
-1.1056

> <Gold.PLP.part.nonpolar>
-31.3882

> <Gold.PLP.part.repulsive>
0.1443

> <Gold.PLP.ligand.clash>
0.0000

> <Gold.PLP.ligand.torsion>
0.4949

> <Gold.PLP.Chemscore.Hbond>
1.0000

> <Gold.PLP.Chemscore.CHOScore>
1.0000

> <Gold.PLP.Chemscore.Metal>
0.0000

> <Gold.Chemscore.Hbonds>
donor molecule, donor type, donor heavy atom, donor atom, acceptor molecule, acceptor atom, score
      L1  H     8    31       P1  7948  1.00
      L1  C    20    46       P1  7948  0.99

> <Gold.PLP.Chemscore.Internal.Correction>
0.0993

> <Gold.Rescore>
     Score         DG    S(hbond)    S(metal)    S(lipo)     H(rot)  DE(clash)    DE(int)     intcor
     15.59     -16.68       0.97        0.00      96.94       1.32       0.51       0.58       ----

> <Gold.Chemscore.Fitness>
15.5918

> <Gold.Chemscore.DG>
-16.6808

> <Gold.Chemscore.ZeroCoef>
-5.4800

> <Gold.Chemscore.Hbond>
0.9721

> <Gold.Chemscore.Metal>
0.0000

> <Gold.Chemscore.Lipo>
96.9361

> <Gold.Chemscore.Internal_Hbond>
0.0000

> <Gold.Chemscore.DEClash>
0.5126

> <Gold.Chemscore.DEInternal>
0.5764

> <Gold.Chemscore.Rot>
1.3233

> <Gold.Chemscore.Internal.Correction>
   9.000000E+99

> <Gold.Chemscore.Hbonds>
donor molecule, donor type, donor heavy atom, donor atom, acceptor molecule, acceptor atom, score
      L1  H     8    31       P1  7948  0.94

> <Gold.Chemscore.Hbond.Weighted>
-3.2469

> <Gold.Chemscore.Metal.Weighted>
-0.0000

> <Gold.Chemscore.Lipo.Weighted>
-11.3415

> <Gold.Chemscore.Internal_Hbond.Weighted>
0.0000

> <Gold.Chemscore.DEClash.Weighted>
0.5126

> <Gold.Chemscore.DEInternal.Weighted>
0.5764

> <Gold.Chemscore.Rot.Weighted>
3.3876

> <Gold.Chemscore.Internal.Correction.Weighted>
   9.000000E+99

> <Gold.Protein.RotatedTorsions>
[ 6907 6896 6895 6894 ] final  -55.43 input  -60.11 | X-H torsion
[ 7974 7965 7964 7962 ] final -161.35 input  175.53 | X-H torsion
[ 8008 7997 7996 7995 ] final  -97.87 input   59.86 | X-H torsion
[ 10167 10162 10161 10158 ] final   63.94 input  -65.29 | X-H torsion
[ 10718 10713 10712 10709 ] final  -78.43 input   66.30 | X-H torsion
[ 10763 10752 10751 10750 ] final   57.09 input  -60.55 | X-H torsion
[ 11005 11000 10999 10996 ] final -158.87 input  -57.11 | X-H torsion

> <Gold.Protein.ActiveResidues>
 VAL166  LYS551  ARG553  GLY616  TRP617  ASP618  TYR619  PRO620  LYS621  CYS622 
 ASP623  PHE694  ASN695  SER759  ASP760  ASP761  ALA762  ILE779  LEU786  VAL792 
 PHE793  MET794  SER795  GLU796  ALA797  LYS798  CYS799  TRP800  GLU811  SER814 

> <Gold.Protein.RotatedAtoms>
  150.8252  134.7479  159.6806 H   0  0  0  0  0  0  0  0  0  0  0  0  # atno 6907 bound_to 6896
  152.4363  134.5676  159.9922 H   0  0  0  0  0  0  0  0  0  0  0  0  # atno 6908 bound_to 6896
  151.5850  133.3335  159.3052 H   0  0  0  0  0  0  0  0  0  0  0  0  # atno 6909 bound_to 6896
  144.7394  140.3410  143.6134 H   0  0  0  0  0  0  0  0  0  0  0  0  # atno 7974 bound_to 7965
  154.7935  140.0459  157.1219 H   0  0  0  0  0  0  0  0  0  0  0  0  # atno 8008 bound_to 7997
  154.9562  140.3071  155.5032 H   0  0  0  0  0  0  0  0  0  0  0  0  # atno 8009 bound_to 7997
  156.2953  140.2279  156.4644 H   0  0  0  0  0  0  0  0  0  0  0  0  # atno 8010 bound_to 7997
  140.1275  144.4674  150.6884 H   0  0  0  0  0  0  0  0  0  0  0  0  # atno 10167 bound_to 10162
  156.0118  130.4518  150.3495 H   0  0  0  0  0  0  0  0  0  0  0  0  # atno 10718 bound_to 10713
  152.9843  135.5654  154.5334 H   0  0  0  0  0  0  0  0  0  0  0  0  # atno 10763 bound_to 10752
  154.4802  135.2788  155.1578 H   0  0  0  0  0  0  0  0  0  0  0  0  # atno 10764 bound_to 10752
  154.3090  135.6292  153.5510 H   0  0  0  0  0  0  0  0  0  0  0  0  # atno 10765 bound_to 10752
  140.6488  134.4473  157.5235 H   0  0  0  0  0  0  0  0  0  0  0  0  # atno 11005 bound_to 11000
  145.7374  139.1754  143.2395 LP  0  0  0  0  0  0  0  0  0  0  0  0  # atno 17320 bound_to 7965
  146.1160  140.7369  142.9480 LP  0  0  0  0  0  0  0  0  0  0  0  0  # atno 17321 bound_to 7965
  140.6836  143.2339  151.5319 LP  0  0  0  0  0  0  0  0  0  0  0  0  # atno 17342 bound_to 10162
  139.5536  144.2331  152.1574 LP  0  0  0  0  0  0  0  0  0  0  0  0  # atno 17343 bound_to 10162
  157.1588  131.0339  151.2851 LP  0  0  0  0  0  0  0  0  0  0  0  0  # atno 17370 bound_to 10713
  157.4329  130.7501  149.7005 LP  0  0  0  0  0  0  0  0  0  0  0  0  # atno 17371 bound_to 10713
  139.9053  134.8463  156.1730 LP  0  0  0  0  0  0  0  0  0  0  0  0  # atno 17394 bound_to 11000
  141.0552  133.6869  156.1847 LP  0  0  0  0  0  0  0  0  0  0  0  0  # atno 17395 bound_to 11000

$$$$
