AV-unprocessed.smi:2126|AV-procd|sdf|8677|dock8
  -GOLD-   2272011433D 1   1.00000     0.00000
 Structure written by MMmdl.
 41 43  0  0  0  0  0  0  0  0  2 V2000
  155.5685  138.6462  165.7201 C   0  0  0  0  0  0  0  0  0  0  0  0
  154.9112  137.6508  164.9498 O   0  0  0  0  0  0  0  0  0  0  0  0
  154.7738  137.8648  163.5953 C   0  0  0  0  0  0  0  0  0  0  0  0
  155.3947  138.9234  162.8879 C   0  0  0  0  0  0  0  0  0  0  0  0
  155.1972  139.0649  161.5009 C   0  0  0  0  0  0  0  0  0  0  0  0
  154.3835  138.1624  160.7881 C   0  0  0  0  0  0  0  0  0  0  0  0
  154.2470  138.3763  159.4333 O   0  0  0  0  0  0  0  0  0  0  0  0
  153.0344  137.9780  158.8072 C   0  0  0  0  0  0  0  0  0  0  0  0
  152.3386  139.2203  158.2312 C   0  0  2  0  0  0  0  0  0  0  0  0
  152.9945  139.5857  157.0331 O   0  0  0  0  0  0  0  0  0  0  0  0
  152.3382  140.4056  159.2175 C   0  0  0  0  0  0  0  0  0  0  0  0
  151.6927  141.6051  158.6652 N   0  0  0  0  0  0  0  0  0  0  0  0
  150.9778  141.7531  157.5170 C   0  0  0  0  0  0  0  0  0  0  0  0
  150.5847  143.0547  157.4409 N   0  3  0  0  0  0  0  0  0  0  0  0
  151.0551  143.7498  158.5569 C   0  0  0  0  0  0  0  0  0  0  0  0
  150.9139  145.0845  158.9241 C   0  0  0  0  0  0  0  0  0  0  0  0
  151.5227  145.4762  160.1345 C   0  0  0  0  0  0  0  0  0  0  0  0
  152.2404  144.5566  160.9266 C   0  0  0  0  0  0  0  0  0  0  0  0
  152.3786  143.2061  160.5437 C   0  0  0  0  0  0  0  0  0  0  0  0
  151.7700  142.8251  159.3479 C   0  0  0  0  0  0  0  0  0  0  0  0
  153.7622  137.1044  161.4957 C   0  0  0  0  0  0  0  0  0  0  0  0
  153.9589  136.9632  162.8828 C   0  0  0  0  0  0  0  0  0  0  0  0
  155.5955  138.3328  166.7635 H   0  0  0  0  0  0  0  0  0  0  0  0
  155.0393  139.5991  165.6759 H   0  0  0  0  0  0  0  0  0  0  0  0
  156.5988  138.7889  165.3916 H   0  0  0  0  0  0  0  0  0  0  0  0
  156.0282  139.6413  163.3862 H   0  0  0  0  0  0  0  0  0  0  0  0
  155.6781  139.8782  160.9774 H   0  0  0  0  0  0  0  0  0  0  0  0
  153.2269  137.2543  158.0133 H   0  0  0  0  0  0  0  0  0  0  0  0
  152.3858  137.5054  159.5470 H   0  0  0  0  0  0  0  0  0  0  0  0
  151.3104  138.9626  157.9736 H   0  0  0  0  0  0  0  0  0  0  0  0
  152.9564  138.8546  156.4352 H   0  0  0  0  0  0  0  0  0  0  0  0
  151.7885  140.1373  160.1205 H   0  0  0  0  0  0  0  0  0  0  0  0
  153.3491  140.6542  159.5413 H   0  0  0  0  0  0  0  0  0  0  0  0
  150.7610  140.9774  156.7966 H   0  0  0  0  0  0  0  0  0  0  0  0
  150.3674  145.7917  158.3175 H   0  0  0  0  0  0  0  0  0  0  0  0
  151.4391  146.5028  160.4610 H   0  0  0  0  0  0  0  0  0  0  0  0
  152.6962  144.8940  161.8463 H   0  0  0  0  0  0  0  0  0  0  0  0
  152.9367  142.5125  161.1549 H   0  0  0  0  0  0  0  0  0  0  0  0
  153.1282  136.3863  160.9987 H   0  0  0  0  0  0  0  0  0  0  0  0
  153.4771  136.1509  163.4069 H   0  0  0  0  0  0  0  0  0  0  0  0
  150.0352  143.4371  156.6820 H   0  0  0  0  0  0  0  0  0  0  0  0
  1  2  1  0  0  0  0
  1 23  1  0  0  0  0
  1 24  1  0  0  0  0
  1 25  1  0  0  0  0
  2  3  1  0  0  0  0
  3 22  1  0  0  0  0
  3  4  2  0  0  0  0
  4  5  1  0  0  0  0
  4 26  1  0  0  0  0
  5  6  2  0  0  0  0
  5 27  1  0  0  0  0
  6  7  1  0  0  0  0
  6 21  1  0  0  0  0
  7  8  1  0  0  0  0
  8  9  1  0  0  0  0
  8 28  1  0  0  0  0
  8 29  1  0  0  0  0
  9 10  1  0  0  0  0
  9 11  1  0  0  0  0
  9 30  1  0  0  0  0
 10 31  1  0  0  0  0
 11 12  1  0  0  0  0
 11 32  1  0  0  0  0
 11 33  1  0  0  0  0
 12 20  1  0  0  0  0
 12 13  1  0  0  0  0
 13 14  2  0  0  0  0
 13 34  1  0  0  0  0
 14 15  1  0  0  0  0
 14 41  1  0  0  0  0
 15 20  2  0  0  0  0
 15 16  1  0  0  0  0
 16 17  2  0  0  0  0
 16 35  1  0  0  0  0
 17 18  1  0  0  0  0
 17 36  1  0  0  0  0
 18 19  2  0  0  0  0
 18 37  1  0  0  0  0
 19 20  1  0  0  0  0
 19 38  1  0  0  0  0
 21 22  2  0  0  0  0
 21 39  1  0  0  0  0
 22 40  1  0  0  0  0
M  CHG  1  14   1
M  END
> <s_m_source_file>
AV-unprocessed.smi

> <i_m_source_file_index>
2126

> <i_lp_mmshare_version>
43012

> <i_f3d_flags>
0

> <s_epik_input>
W0NIM11PYzFbY0hdW2NIXWMoW2NIXVtjSF0xKU9bQ0gyXVtDQEhdKFtPSF0pW0NIMl1uKFtjSF1uMiljKGMyMylbY0hdW2NIXVtjSF1bY0hdMw==

> <s_epik_cmdline>
J2VwaWtfcHl0aG9uJywgJy1waCcsICc3LjAnLCAnLXRuJywgJzgnLCAnLW1hJywgJzIwMCcsICctbWV0YWxfYmluZGluZycsICctaW1hZScsICc8aW5maWxlLm1hZT4nLCAnLW9tYWUnLCAnPG91dGZpbGUubWFlPic=

> <r_lp_tautomer_probability>
1

> <r_epik_Ionization_Penalty>
1.37822

> <r_epik_Ionization_Penalty_Charging>
1.37822

> <r_epik_Ionization_Penalty_Neutral>
2.3993e-06

> <r_epik_State_Penalty>
1.45852

> <r_epik_Charging_Adjusted_Penalty>
2.83674

> <i_epik_Tot_Q>
1

> <i_epik_Tot_abs_Q>
1

> <r_epik_Metal_State_Penalty>
5.4985

> <b_epik_Metal_Only>
0

> <s_lp_Force_Field>
OPLS_2005

> <r_lp_Energy>
23.2038

> <b_lp_Chiralities_Consistent>
1

> <s_lp_Variant>
AV-unprocessed.smi:2126-3

> <Gold.Version>
5.8.1

> <Gold.Id.Protein>
6NUR|6NUR_protein|mol2

> <Gold.PLP.Fitness>
53.1376

> <Gold.PLP.PLP>
-46.1298

> <Gold.PLP.part.hbond>
-2.0000

> <Gold.PLP.part.metal>
0.0000

> <Gold.PLP.part.buried>
-7.0758

> <Gold.PLP.part.nonpolar>
-37.0586

> <Gold.PLP.part.repulsive>
0.0901

> <Gold.PLP.ligand.clash>
0.0067

> <Gold.PLP.ligand.torsion>
1.0272

> <Gold.PLP.Chemscore.Hbond>
3.0000

> <Gold.PLP.Chemscore.CHOScore>
0.0000

> <Gold.PLP.Chemscore.Metal>
0.0000

> <Gold.Chemscore.Hbonds>
donor molecule, donor type, donor heavy atom, donor atom, acceptor molecule, acceptor atom, score
      L1  H    14    41       P1  8028  2.00
      P1  H  7997  8009       L1    10  1.00

> <Gold.PLP.Chemscore.Internal.Correction>
0.0688

> <Gold.Rescore>
     Score         DG    S(hbond)    S(metal)    S(lipo)     H(rot)  DE(clash)    DE(int)     intcor
     19.09     -19.90       1.83        0.00     128.02       2.60       0.01       0.80       ----

> <Gold.Chemscore.Fitness>
19.0897

> <Gold.Chemscore.DG>
-19.9010

> <Gold.Chemscore.ZeroCoef>
-5.4800

> <Gold.Chemscore.Hbond>
1.8293

> <Gold.Chemscore.Metal>
0.0000

> <Gold.Chemscore.Lipo>
128.0195

> <Gold.Chemscore.Internal_Hbond>
0.0000

> <Gold.Chemscore.DEClash>
0.0149

> <Gold.Chemscore.DEInternal>
0.7965

> <Gold.Chemscore.Rot>
2.6043

> <Gold.Chemscore.Internal.Correction>
   9.000000E+99

> <Gold.Chemscore.Hbonds>
donor molecule, donor type, donor heavy atom, donor atom, acceptor molecule, acceptor atom, score
      L1  H    14    41       P1  8028  0.96
      P1  H  7997  8009       L1    10  0.33

> <Gold.Chemscore.Hbond.Weighted>
-6.1098

> <Gold.Chemscore.Metal.Weighted>
-0.0000

> <Gold.Chemscore.Lipo.Weighted>
-14.9783

> <Gold.Chemscore.Internal_Hbond.Weighted>
0.0000

> <Gold.Chemscore.DEClash.Weighted>
0.0149

> <Gold.Chemscore.DEInternal.Weighted>
0.7965

> <Gold.Chemscore.Rot.Weighted>
6.6670

> <Gold.Chemscore.Internal.Correction.Weighted>
   9.000000E+99

> <Gold.Protein.RotatedTorsions>
[ 6907 6896 6895 6894 ] final -108.70 input  -60.11 | X-H torsion
[ 7974 7965 7964 7962 ] final  110.51 input  175.53 | X-H torsion
[ 8008 7997 7996 7995 ] final  164.65 input   59.86 | X-H torsion
[ 10167 10162 10161 10158 ] final  -38.37 input  -65.29 | X-H torsion
[ 10718 10713 10712 10709 ] final  -26.05 input   66.30 | X-H torsion
[ 10763 10752 10751 10750 ] final   -7.04 input  -60.55 | X-H torsion
[ 11005 11000 10999 10996 ] final   89.78 input  -57.11 | X-H torsion

> <Gold.Protein.ActiveResidues>
 VAL166  LYS551  ARG553  GLY616  TRP617  ASP618  TYR619  PRO620  LYS621  CYS622 
 ASP623  PHE694  ASN695  SER759  ASP760  ASP761  ALA762  ILE779  LEU786  VAL792 
 PHE793  MET794  SER795  GLU796  ALA797  LYS798  CYS799  TRP800  GLU811  SER814 

> <Gold.Protein.RotatedAtoms>
  150.7517  133.9639  159.3523 H   0  0  0  0  0  0  0  0  0  0  0  0  # atno 6907 bound_to 6896
  151.7567  135.0818  160.0348 H   0  0  0  0  0  0  0  0  0  0  0  0  # atno 6908 bound_to 6896
  152.3430  133.6052  159.5926 H   0  0  0  0  0  0  0  0  0  0  0  0  # atno 6909 bound_to 6896
  145.2541  139.2728  143.4052 H   0  0  0  0  0  0  0  0  0  0  0  0  # atno 7974 bound_to 7965
  156.1863  140.1691  156.8179 H   0  0  0  0  0  0  0  0  0  0  0  0  # atno 8008 bound_to 7997
  154.5418  140.0735  156.8554 H   0  0  0  0  0  0  0  0  0  0  0  0  # atno 8009 bound_to 7997
  155.3200  140.3373  155.4244 H   0  0  0  0  0  0  0  0  0  0  0  0  # atno 8010 bound_to 7997
  140.7094  143.3282  151.2631 H   0  0  0  0  0  0  0  0  0  0  0  0  # atno 10167 bound_to 10162
  156.4563  130.4494  149.6957 H   0  0  0  0  0  0  0  0  0  0  0  0  # atno 10718 bound_to 10713
  153.4208  135.7010  153.6295 H   0  0  0  0  0  0  0  0  0  0  0  0  # atno 10763 bound_to 10752
  153.4751  135.3706  155.2412 H   0  0  0  0  0  0  0  0  0  0  0  0  # atno 10764 bound_to 10752
  154.8722  135.4052  154.3576 H   0  0  0  0  0  0  0  0  0  0  0  0  # atno 10765 bound_to 10752
  139.8868  134.8573  156.3191 H   0  0  0  0  0  0  0  0  0  0  0  0  # atno 11005 bound_to 11000
  146.3294  140.2939  142.8617 LP  0  0  0  0  0  0  0  0  0  0  0  0  # atno 17320 bound_to 7965
  144.9477  140.8145  143.5591 LP  0  0  0  0  0  0  0  0  0  0  0  0  # atno 17321 bound_to 7965
  139.6756  143.9943  152.2779 LP  0  0  0  0  0  0  0  0  0  0  0  0  # atno 17342 bound_to 10162
  139.9556  144.6591  150.8129 LP  0  0  0  0  0  0  0  0  0  0  0  0  # atno 17343 bound_to 10162
  156.3763  130.7556  151.2544 LP  0  0  0  0  0  0  0  0  0  0  0  0  # atno 17370 bound_to 10713
  157.7500  131.0308  150.4156 LP  0  0  0  0  0  0  0  0  0  0  0  0  # atno 17371 bound_to 10713
  140.9799  133.7274  156.0656 LP  0  0  0  0  0  0  0  0  0  0  0  0  # atno 17394 bound_to 11000
  140.7763  134.3776  157.5497 LP  0  0  0  0  0  0  0  0  0  0  0  0  # atno 17395 bound_to 11000

$$$$
