AV-unprocessed.smi:497|AV-procd|sdf|2727|dock5
  -GOLD-   2262023173D 1   1.00000     0.00000
 Structure written by MMmdl.
 39 41  0  0  0  0  0  0  0  0  3 V2000
  152.5832  138.5217  154.8334 C   0  0  0  0  0  0  0  0  0  0  0  0
  152.8483  139.1325  156.0835 O   0  0  0  0  0  0  0  0  0  0  0  0
  152.0523  138.5964  157.1276 C   0  0  0  0  0  0  0  0  0  0  0  0
  152.0088  139.5644  158.3218 C   0  0  0  0  0  0  0  0  0  0  0  0
  151.4190  140.8753  157.9728 N   0  0  0  0  0  0  0  0  0  0  0  0
  150.4822  141.2333  157.0337 C   0  0  0  0  0  0  0  0  0  0  0  0
  149.7501  140.3619  156.0534 C   0  0  0  0  0  0  0  0  0  0  0  0
  148.4259  140.8994  155.7605 N   0  5  0  0  0  0  0  0  0  0  0  0
  148.0968  141.5418  154.6049 C   0  0  0  0  0  0  0  0  0  0  0  0
  148.6935  141.5764  153.5235 O   0  0  0  0  0  0  0  0  0  0  0  0
  146.8374  142.3125  154.7308 C   0  0  0  0  0  0  0  0  0  0  0  0
  146.2004  143.1126  153.8198 C   0  0  0  0  0  0  0  0  0  0  0  0
  145.0402  143.6262  154.4627 C   0  0  0  0  0  0  0  0  0  0  0  0
  145.0477  143.1040  155.7236 C   0  0  0  0  0  0  0  0  0  0  0  0
  146.1325  142.3037  155.9044 O   0  0  0  0  0  0  0  0  0  0  0  0
  150.3170  142.5826  157.1301 N   0  3  0  0  0  0  0  0  0  0  0  0
  151.1406  143.0972  158.1300 C   0  0  0  0  0  0  0  0  0  0  0  0
  151.3134  144.4011  158.5840 C   0  0  0  0  0  0  0  0  0  0  0  0
  152.2432  144.5900  159.6271 C   0  0  0  0  0  0  0  0  0  0  0  0
  152.9587  143.5068  160.1764 C   0  0  0  0  0  0  0  0  0  0  0  0
  152.7739  142.1898  159.7070 C   0  0  0  0  0  0  0  0  0  0  0  0
  151.8511  142.0092  158.6758 C   0  0  0  0  0  0  0  0  0  0  0  0
  153.2163  138.9678  154.0668 H   0  0  0  0  0  0  0  0  0  0  0  0
  151.5436  138.6662  154.5366 H   0  0  0  0  0  0  0  0  0  0  0  0
  152.7935  137.4520  154.8646 H   0  0  0  0  0  0  0  0  0  0  0  0
  151.0430  138.4129  156.7601 H   0  0  0  0  0  0  0  0  0  0  0  0
  152.4574  137.6350  157.4458 H   0  0  0  0  0  0  0  0  0  0  0  0
  151.4213  139.1288  159.1301 H   0  0  0  0  0  0  0  0  0  0  0  0
  153.0060  139.7190  158.7328 H   0  0  0  0  0  0  0  0  0  0  0  0
  150.3788  140.2641  155.1674 H   0  0  0  0  0  0  0  0  0  0  0  0
  149.6832  139.3574  156.4727 H   0  0  0  0  0  0  0  0  0  0  0  0
  146.5335  143.3077  152.8111 H   0  0  0  0  0  0  0  0  0  0  0  0
  144.2962  144.2940  154.0547 H   0  0  0  0  0  0  0  0  0  0  0  0
  144.3932  143.1931  156.5779 H   0  0  0  0  0  0  0  0  0  0  0  0
  150.7671  145.2315  158.1615 H   0  0  0  0  0  0  0  0  0  0  0  0
  152.4121  145.5852  160.0119 H   0  0  0  0  0  0  0  0  0  0  0  0
  153.6655  143.6890  160.9727 H   0  0  0  0  0  0  0  0  0  0  0  0
  153.3340  141.3694  160.1303 H   0  0  0  0  0  0  0  0  0  0  0  0
  149.6850  143.1077  156.5401 H   0  0  0  0  0  0  0  0  0  0  0  0
  1  2  1  0  0  0  0
  1 23  1  0  0  0  0
  1 24  1  0  0  0  0
  1 25  1  0  0  0  0
  2  3  1  0  0  0  0
  3  4  1  0  0  0  0
  3 26  1  0  0  0  0
  3 27  1  0  0  0  0
  4  5  1  0  0  0  0
  4 28  1  0  0  0  0
  4 29  1  0  0  0  0
  5 22  1  0  0  0  0
  5  6  1  0  0  0  0
  6  7  1  0  0  0  0
  6 16  2  0  0  0  0
  7  8  1  0  0  0  0
  7 30  1  0  0  0  0
  7 31  1  0  0  0  0
  8  9  1  0  0  0  0
  9 10  2  0  0  0  0
  9 11  1  0  0  0  0
 11 15  1  0  0  0  0
 11 12  2  0  0  0  0
 12 13  1  0  0  0  0
 12 32  1  0  0  0  0
 13 14  2  0  0  0  0
 13 33  1  0  0  0  0
 14 15  1  0  0  0  0
 14 34  1  0  0  0  0
 16 17  1  0  0  0  0
 16 39  1  0  0  0  0
 17 22  2  0  0  0  0
 17 18  1  0  0  0  0
 18 19  2  0  0  0  0
 18 35  1  0  0  0  0
 19 20  1  0  0  0  0
 19 36  1  0  0  0  0
 20 21  2  0  0  0  0
 20 37  1  0  0  0  0
 21 22  1  0  0  0  0
 21 38  1  0  0  0  0
M  CHG  1   8  -1
M  CHG  1  16   1
M  END
> <s_m_source_file>
AV-unprocessed.smi

> <i_m_source_file_index>
497

> <i_lp_mmshare_version>
43012

> <i_f3d_flags>
0

> <s_epik_input>
W2NIXTFbY0hdW2NIXVtjSF1jKGMxMiluKFtDSDJdW0NIMl1PW0NIM10pYyhuMilbQ0gyXVtOSF1DKD1PKWMzW2NIXVtjSF1bY0hdbzM=

> <s_epik_cmdline>
J2VwaWtfcHl0aG9uJywgJy1waCcsICc3LjAnLCAnLXRuJywgJzgnLCAnLW1hJywgJzIwMCcsICctbWV0YWxfYmluZGluZycsICctaW1hZScsICc8aW5maWxlLm1hZT4nLCAnLW9tYWUnLCAnPG91dGZpbGUubWFlPic=

> <r_epik_Ionization_Penalty>
6.0511

> <r_epik_Ionization_Penalty_Charging>
6.0511

> <r_epik_Ionization_Penalty_Neutral>
2.61117e-12

> <r_epik_State_Penalty>
7.24158

> <r_epik_Charging_Adjusted_Penalty>
13.2927

> <i_epik_Tot_Q>
0

> <i_epik_Tot_abs_Q>
2

> <r_epik_Metal_State_Penalty>
3.25464

> <b_epik_Metal_Only>
1

> <s_lp_Force_Field>
OPLS_2005

> <r_lp_Energy>
9.23096

> <b_lp_Chiralities_Consistent>
1

> <s_lp_Variant>
AV-unprocessed.smi:497-4

> <Gold.Version>
5.8.1

> <Gold.Id.Protein>
6NUR|6NUR_protein|mol2

> <Gold.PLP.Fitness>
56.9918

> <Gold.PLP.PLP>
-47.6347

> <Gold.PLP.part.hbond>
-3.0581

> <Gold.PLP.part.metal>
0.0000

> <Gold.PLP.part.buried>
-7.3316

> <Gold.PLP.part.nonpolar>
-39.7388

> <Gold.PLP.part.repulsive>
1.8003

> <Gold.PLP.ligand.clash>
0.0000

> <Gold.PLP.ligand.torsion>
0.9920

> <Gold.PLP.Chemscore.Hbond>
3.7360

> <Gold.PLP.Chemscore.CHOScore>
0.0000

> <Gold.PLP.Chemscore.Metal>
0.0000

> <Gold.Chemscore.Hbonds>
donor molecule, donor type, donor heavy atom, donor atom, acceptor molecule, acceptor atom, score
      L1  H    16    39       P1  8028  2.00
      P1  H  7997  8010       L1     2  1.00
      P1  H  8011  8017       L1    10  0.72

> <Gold.PLP.Chemscore.Internal.Correction>
0.1331

> <Gold.Rescore>
     Score         DG    S(hbond)    S(metal)    S(lipo)     H(rot)  DE(clash)    DE(int)     intcor
     20.47     -22.63       2.62        0.00     113.03       1.89       0.38       1.78       ----

> <Gold.Chemscore.Fitness>
20.4663

> <Gold.Chemscore.DG>
-22.6302

> <Gold.Chemscore.ZeroCoef>
-5.4800

> <Gold.Chemscore.Hbond>
2.6234

> <Gold.Chemscore.Metal>
0.0000

> <Gold.Chemscore.Lipo>
113.0274

> <Gold.Chemscore.Internal_Hbond>
0.0000

> <Gold.Chemscore.DEClash>
0.3847

> <Gold.Chemscore.DEInternal>
1.7792

> <Gold.Chemscore.Rot>
1.8892

> <Gold.Chemscore.Internal.Correction>
   9.000000E+99

> <Gold.Chemscore.Hbonds>
donor molecule, donor type, donor heavy atom, donor atom, acceptor molecule, acceptor atom, score
      L1  H    16    39       P1  8028  0.95
      P1  H  7997  8010       L1     2  0.97
      P1  H  8011  8017       L1    10  0.72

> <Gold.Chemscore.Hbond.Weighted>
-8.7623

> <Gold.Chemscore.Metal.Weighted>
-0.0000

> <Gold.Chemscore.Lipo.Weighted>
-13.2242

> <Gold.Chemscore.Internal_Hbond.Weighted>
0.0000

> <Gold.Chemscore.DEClash.Weighted>
0.3847

> <Gold.Chemscore.DEInternal.Weighted>
1.7792

> <Gold.Chemscore.Rot.Weighted>
4.8363

> <Gold.Chemscore.Internal.Correction.Weighted>
   9.000000E+99

> <Gold.Protein.RotatedTorsions>
[ 6907 6896 6895 6894 ] final   69.01 input  -60.11 | X-H torsion
[ 7974 7965 7964 7962 ] final   37.41 input  175.53 | X-H torsion
[ 8008 7997 7996 7995 ] final   78.60 input   59.86 | X-H torsion
[ 10167 10162 10161 10158 ] final   56.39 input  -65.29 | X-H torsion
[ 10718 10713 10712 10709 ] final   72.82 input   66.30 | X-H torsion
[ 10763 10752 10751 10750 ] final -112.55 input  -60.55 | X-H torsion
[ 11005 11000 10999 10996 ] final  120.61 input  -57.11 | X-H torsion

> <Gold.Protein.ActiveResidues>
 VAL166  LYS551  ARG553  GLY616  TRP617  ASP618  TYR619  PRO620  LYS621  CYS622 
 ASP623  PHE694  ASN695  SER759  ASP760  ASP761  ALA762  ILE779  LEU786  VAL792 
 PHE793  MET794  SER795  GLU796  ALA797  LYS798  CYS799  TRP800  GLU811  SER814 

> <Gold.Protein.RotatedAtoms>
  152.4658  134.5079  159.9744 H   0  0  0  0  0  0  0  0  0  0  0  0  # atno 6907 bound_to 6896
  151.5117  133.3478  159.2894 H   0  0  0  0  0  0  0  0  0  0  0  0  # atno 6908 bound_to 6896
  150.8642  134.8029  159.7167 H   0  0  0  0  0  0  0  0  0  0  0  0  # atno 6909 bound_to 6896
  146.1140  139.5898  142.9334 H   0  0  0  0  0  0  0  0  0  0  0  0  # atno 7974 bound_to 7965
  155.8580  140.3455  155.5737 H   0  0  0  0  0  0  0  0  0  0  0  0  # atno 8008 bound_to 7997
  155.7964  140.0879  157.2000 H   0  0  0  0  0  0  0  0  0  0  0  0  # atno 8009 bound_to 7997
  154.4010  140.1473  156.3210 H   0  0  0  0  0  0  0  0  0  0  0  0  # atno 8010 bound_to 7997
  140.2092  144.3907  150.6496 H   0  0  0  0  0  0  0  0  0  0  0  0  # atno 10167 bound_to 10162
  157.6519  130.9597  150.0982 H   0  0  0  0  0  0  0  0  0  0  0  0  # atno 10718 bound_to 10713
  154.8355  135.4486  154.1212 H   0  0  0  0  0  0  0  0  0  0  0  0  # atno 10763 bound_to 10752
  153.2447  135.6920  153.7750 H   0  0  0  0  0  0  0  0  0  0  0  0  # atno 10764 bound_to 10752
  153.7085  135.3360  155.3217 H   0  0  0  0  0  0  0  0  0  0  0  0  # atno 10765 bound_to 10752
  139.9192  134.9635  156.7833 H   0  0  0  0  0  0  0  0  0  0  0  0  # atno 11005 bound_to 11000
  145.5606  141.0405  143.2228 LP  0  0  0  0  0  0  0  0  0  0  0  0  # atno 17320 bound_to 7965
  144.7536  139.7131  143.7263 LP  0  0  0  0  0  0  0  0  0  0  0  0  # atno 17321 bound_to 7965
  140.6336  143.2191  151.6444 LP  0  0  0  0  0  0  0  0  0  0  0  0  # atno 17342 bound_to 10162
  139.5186  144.3278  152.0854 LP  0  0  0  0  0  0  0  0  0  0  0  0  # atno 17343 bound_to 10162
  156.1912  130.3655  149.8908 LP  0  0  0  0  0  0  0  0  0  0  0  0  # atno 17370 bound_to 10713
  156.6836  130.8868  151.3579 LP  0  0  0  0  0  0  0  0  0  0  0  0  # atno 17371 bound_to 10713
  140.6527  133.9717  155.7763 LP  0  0  0  0  0  0  0  0  0  0  0  0  # atno 17394 bound_to 11000
  141.0697  134.0224  157.3543 LP  0  0  0  0  0  0  0  0  0  0  0  0  # atno 17395 bound_to 11000

$$$$
