AV-unprocessed.smi:1433|AV-procd|sdf|5841|dock9
  -GOLD-   22720 5503D 1   1.00000     0.00000
 Structure written by MMmdl.
 45 46  0  0  0  0  0  0  0  0  2 V2000
  152.1938  138.1891  154.7923 C   0  0  0  0  0  0  0  0  0  0  0  0
  150.9632  139.0352  155.1368 C   0  0  2  0  0  0  0  0  0  0  0  0
  149.8024  138.7884  154.1555 C   0  0  0  0  0  0  0  0  0  0  0  0
  148.6533  139.6848  154.4533 N   0  3  2  0  0  0  0  0  0  0  0  0
  147.4217  139.4816  153.6222 C   0  0  2  0  0  0  0  0  0  0  0  0
  146.4716  140.6869  153.7967 C   0  0  0  0  0  0  0  0  0  0  0  0
  146.6694  138.1520  153.9131 C   0  0  0  0  0  0  0  0  0  0  0  0
  146.5255  137.3017  152.7350 N   0  0  0  0  0  0  0  0  0  0  0  0
  145.3563  136.9168  152.1991 C   0  0  0  0  0  0  0  0  0  0  0  0
  144.2610  137.2265  152.6675 O   0  0  0  0  0  0  0  0  0  0  0  0
  145.4340  136.0555  150.9383 C   0  0  0  0  0  0  0  0  0  0  0  0
  145.7344  134.6752  151.2715 N   0  0  0  0  0  0  0  0  0  0  0  0
  145.7246  133.5724  150.4428 C   0  0  0  0  0  0  0  0  0  0  0  0
  146.0833  132.4930  151.1982 C   0  0  0  0  0  0  0  0  0  0  0  0
  146.2970  133.0427  152.4932 C   0  0  0  0  0  0  0  0  0  0  0  0
  146.0878  134.3490  152.5346 N   0  0  0  0  0  0  0  0  0  0  0  0
  149.1137  141.0994  154.4404 C   0  0  0  0  0  0  0  0  0  0  0  0
  150.3016  141.3240  155.3949 C   0  0  1  0  0  0  0  0  0  0  0  0
  149.9095  141.3077  156.8832 C   0  0  0  0  0  0  0  0  0  0  0  0
  151.3490  140.4045  155.0952 O   0  0  0  0  0  0  0  0  0  0  0  0
  151.9595  137.1246  154.8210 H   0  0  0  0  0  0  0  0  0  0  0  0
  153.0018  138.3697  155.5018 H   0  0  0  0  0  0  0  0  0  0  0  0
  152.5680  138.4228  153.7951 H   0  0  0  0  0  0  0  0  0  0  0  0
  150.6491  138.7726  156.1472 H   0  0  0  0  0  0  0  0  0  0  0  0
  150.1307  138.9433  153.1261 H   0  0  0  0  0  0  0  0  0  0  0  0
  149.5129  137.7428  154.2557 H   0  0  0  0  0  0  0  0  0  0  0  0
  147.7387  139.4462  152.5788 H   0  0  0  0  0  0  0  0  0  0  0  0
  145.5975  140.6096  153.1502 H   0  0  0  0  0  0  0  0  0  0  0  0
  146.9490  141.6335  153.5490 H   0  0  0  0  0  0  0  0  0  0  0  0
  146.1148  140.7586  154.8247 H   0  0  0  0  0  0  0  0  0  0  0  0
  147.1814  137.5631  154.6757 H   0  0  0  0  0  0  0  0  0  0  0  0
  145.6695  138.3619  154.2946 H   0  0  0  0  0  0  0  0  0  0  0  0
  147.3757  137.0046  152.2775 H   0  0  0  0  0  0  0  0  0  0  0  0
  144.4948  136.1007  150.3844 H   0  0  0  0  0  0  0  0  0  0  0  0
  146.2142  136.4361  150.2777 H   0  0  0  0  0  0  0  0  0  0  0  0
  145.4678  133.6481  149.3962 H   0  0  0  0  0  0  0  0  0  0  0  0
  146.1798  131.4671  150.8750 H   0  0  0  0  0  0  0  0  0  0  0  0
  146.5969  132.5349  153.3980 H   0  0  0  0  0  0  0  0  0  0  0  0
  149.4155  141.3617  153.4249 H   0  0  0  0  0  0  0  0  0  0  0  0
  148.3074  141.7811  154.7070 H   0  0  0  0  0  0  0  0  0  0  0  0
  150.7070  142.3153  155.1891 H   0  0  0  0  0  0  0  0  0  0  0  0
  149.2073  142.1115  157.1059 H   0  0  0  0  0  0  0  0  0  0  0  0
  150.7848  141.4522  157.5168 H   0  0  0  0  0  0  0  0  0  0  0  0
  149.4331  140.3731  157.1777 H   0  0  0  0  0  0  0  0  0  0  0  0
  148.3845  139.4720  155.4034 H   0  0  0  0  0  0  0  0  0  0  0  0
  1  2  1  0  0  0  0
  1 21  1  0  0  0  0
  1 22  1  0  0  0  0
  1 23  1  0  0  0  0
  2 20  1  0  0  0  0
  2  3  1  0  0  0  0
  2 24  1  0  0  0  0
  3  4  1  0  0  0  0
  3 25  1  0  0  0  0
  3 26  1  0  0  0  0
  4  5  1  0  0  0  0
  4 17  1  0  0  0  0
  4 45  1  0  0  0  0
  5  6  1  0  0  0  0
  5  7  1  0  0  0  0
  5 27  1  0  0  0  0
  6 28  1  0  0  0  0
  6 29  1  0  0  0  0
  6 30  1  0  0  0  0
  7  8  1  0  0  0  0
  7 31  1  0  0  0  0
  7 32  1  0  0  0  0
  8  9  1  0  0  0  0
  8 33  1  0  0  0  0
  9 10  2  0  0  0  0
  9 11  1  0  0  0  0
 11 12  1  0  0  0  0
 11 34  1  0  0  0  0
 11 35  1  0  0  0  0
 12 16  1  0  0  0  0
 12 13  1  0  0  0  0
 13 14  2  0  0  0  0
 13 36  1  0  0  0  0
 14 15  1  0  0  0  0
 14 37  1  0  0  0  0
 15 16  2  0  0  0  0
 15 38  1  0  0  0  0
 17 18  1  0  0  0  0
 17 39  1  0  0  0  0
 17 40  1  0  0  0  0
 18 19  1  0  0  0  0
 18 20  1  0  0  0  0
 18 41  1  0  0  0  0
 19 42  1  0  0  0  0
 19 43  1  0  0  0  0
 19 44  1  0  0  0  0
M  CHG  1   4   1
M  END
> <s_m_source_file>
AV-unprocessed.smi

> <i_m_source_file_index>
1433

> <i_lp_mmshare_version>
43012

> <i_f3d_flags>
0

> <s_epik_input>
W0NIM11bQ0BASF0xW0NIMl1OKFtDSDJdW0NASF0oTzEpW0NIM10pW0NASF0oW0NIM10pW0NIMl1bTkhdQyg9TylbQ0gyXW4yW2NIXVtjSF1bY0hdbjI=

> <s_epik_cmdline>
J2VwaWtfcHl0aG9uJywgJy1waCcsICc3LjAnLCAnLXRuJywgJzgnLCAnLW1hJywgJzIwMCcsICctbWV0YWxfYmluZGluZycsICctaW1hZScsICc8aW5maWxlLm1hZT4nLCAnLW9tYWUnLCAnPG91dGZpbGUubWFlPic=

> <r_lp_tautomer_probability>
1

> <r_epik_Ionization_Penalty>
0.748405

> <r_epik_Ionization_Penalty_Charging>
0.748396

> <r_epik_Ionization_Penalty_Neutral>
8.54426e-06

> <r_epik_State_Penalty>
0.775162

> <r_epik_Charging_Adjusted_Penalty>
1.52356

> <i_epik_Tot_Q>
1

> <i_epik_Tot_abs_Q>
1

> <r_epik_Metal_State_Penalty>
0.775167

> <b_epik_Metal_Only>
0

> <s_lp_Force_Field>
OPLS_2005

> <r_lp_Energy>
22.7015

> <b_lp_Chiralities_Consistent>
1

> <s_lp_Variant>
AV-unprocessed.smi:1433-7

> <Gold.Version>
5.8.1

> <Gold.Id.Protein>
6NUR|6NUR_protein|mol2

> <Gold.PLP.Fitness>
40.0807

> <Gold.PLP.PLP>
-33.8228

> <Gold.PLP.part.hbond>
-2.0000

> <Gold.PLP.part.metal>
0.0000

> <Gold.PLP.part.buried>
-2.3693

> <Gold.PLP.part.nonpolar>
-30.2059

> <Gold.PLP.part.repulsive>
0.4175

> <Gold.PLP.ligand.clash>
0.0000

> <Gold.PLP.ligand.torsion>
1.3220

> <Gold.PLP.Chemscore.Hbond>
1.9440

> <Gold.PLP.Chemscore.CHOScore>
1.0000

> <Gold.PLP.Chemscore.Metal>
0.0000

> <Gold.Chemscore.Hbonds>
donor molecule, donor type, donor heavy atom, donor atom, acceptor molecule, acceptor atom, score
      L1  H     8    33       P1  7948  1.00
      P1  H  7989  7998       L1    20  0.88
      L1  C    13    36       P1  7921  1.00

> <Gold.PLP.Chemscore.Internal.Correction>
0.0699

> <Gold.Rescore>
     Score         DG    S(hbond)    S(metal)    S(lipo)     H(rot)  DE(clash)    DE(int)     intcor
     12.80     -14.89       1.30        0.00      84.20       1.87       0.70       1.39       ----

> <Gold.Chemscore.Fitness>
12.7959

> <Gold.Chemscore.DG>
-14.8873

> <Gold.Chemscore.ZeroCoef>
-5.4800

> <Gold.Chemscore.Hbond>
1.2969

> <Gold.Chemscore.Metal>
0.0000

> <Gold.Chemscore.Lipo>
84.2042

> <Gold.Chemscore.Internal_Hbond>
0.0000

> <Gold.Chemscore.DEClash>
0.7014

> <Gold.Chemscore.DEInternal>
1.3900

> <Gold.Chemscore.Rot>
1.8657

> <Gold.Chemscore.Internal.Correction>
   9.000000E+99

> <Gold.Chemscore.Hbonds>
donor molecule, donor type, donor heavy atom, donor atom, acceptor molecule, acceptor atom, score
      L1  H     8    33       P1  7948  1.00
      P1  H  7989  7998       L1    20  0.13

> <Gold.Chemscore.Hbond.Weighted>
-4.3315

> <Gold.Chemscore.Metal.Weighted>
-0.0000

> <Gold.Chemscore.Lipo.Weighted>
-9.8519

> <Gold.Chemscore.Internal_Hbond.Weighted>
0.0000

> <Gold.Chemscore.DEClash.Weighted>
0.7014

> <Gold.Chemscore.DEInternal.Weighted>
1.3900

> <Gold.Chemscore.Rot.Weighted>
4.7761

> <Gold.Chemscore.Internal.Correction.Weighted>
   9.000000E+99

> <Gold.Protein.RotatedTorsions>
[ 6907 6896 6895 6894 ] final   -6.22 input  -60.11 | X-H torsion
[ 7974 7965 7964 7962 ] final  105.51 input  175.53 | X-H torsion
[ 8008 7997 7996 7995 ] final  -26.74 input   59.86 | X-H torsion
[ 10167 10162 10161 10158 ] final  151.72 input  -65.29 | X-H torsion
[ 10718 10713 10712 10709 ] final   49.56 input   66.30 | X-H torsion
[ 10763 10752 10751 10750 ] final   -1.83 input  -60.55 | X-H torsion
[ 11005 11000 10999 10996 ] final  -51.83 input  -57.11 | X-H torsion

> <Gold.Protein.ActiveResidues>
 VAL166  LYS551  ARG553  GLY616  TRP617  ASP618  TYR619  PRO620  LYS621  CYS622 
 ASP623  PHE694  ASN695  SER759  ASP760  ASP761  ALA762  ILE779  LEU786  VAL792 
 PHE793  MET794  SER795  GLU796  ALA797  LYS798  CYS799  TRP800  GLU811  SER814 

> <Gold.Protein.RotatedAtoms>
  151.4691  135.1044  159.9746 H   0  0  0  0  0  0  0  0  0  0  0  0  # atno 6907 bound_to 6896
  152.4823  133.8282  159.7100 H   0  0  0  0  0  0  0  0  0  0  0  0  # atno 6908 bound_to 6896
  150.8905  133.7189  159.2933 H   0  0  0  0  0  0  0  0  0  0  0  0  # atno 6909 bound_to 6896
  145.3187  139.2519  143.3724 H   0  0  0  0  0  0  0  0  0  0  0  0  # atno 7974 bound_to 7965
  154.4410  140.1891  156.0822 H   0  0  0  0  0  0  0  0  0  0  0  0  # atno 8008 bound_to 7997
  156.0430  140.3317  155.7238 H   0  0  0  0  0  0  0  0  0  0  0  0  # atno 8009 bound_to 7997
  155.5672  140.0609  157.2806 H   0  0  0  0  0  0  0  0  0  0  0  0  # atno 8010 bound_to 7997
  139.4838  144.5417  151.7553 H   0  0  0  0  0  0  0  0  0  0  0  0  # atno 10167 bound_to 10162
  157.4799  130.8308  149.8081 H   0  0  0  0  0  0  0  0  0  0  0  0  # atno 10718 bound_to 10713
  153.3500  135.6985  153.6796 H   0  0  0  0  0  0  0  0  0  0  0  0  # atno 10763 bound_to 10752
  153.5527  135.3550  155.2766 H   0  0  0  0  0  0  0  0  0  0  0  0  # atno 10764 bound_to 10752
  154.8651  135.4230  154.2733 H   0  0  0  0  0  0  0  0  0  0  0  0  # atno 10765 bound_to 10752
  141.0892  133.6636  156.3934 H   0  0  0  0  0  0  0  0  0  0  0  0  # atno 11005 bound_to 11000
  146.3090  140.3739  142.8677 LP  0  0  0  0  0  0  0  0  0  0  0  0  # atno 17320 bound_to 7965
  144.8957  140.7580  143.5899 LP  0  0  0  0  0  0  0  0  0  0  0  0  # atno 17321 bound_to 7965
  140.4957  144.1243  150.5960 LP  0  0  0  0  0  0  0  0  0  0  0  0  # atno 17342 bound_to 10162
  140.4119  143.2652  151.9822 LP  0  0  0  0  0  0  0  0  0  0  0  0  # atno 17343 bound_to 10162
  156.0116  130.3831  150.2246 LP  0  0  0  0  0  0  0  0  0  0  0  0  # atno 17370 bound_to 10713
  157.0432  131.0041  151.3277 LP  0  0  0  0  0  0  0  0  0  0  0  0  # atno 17371 bound_to 10713
  140.5292  134.6229  157.5344 LP  0  0  0  0  0  0  0  0  0  0  0  0  # atno 17394 bound_to 11000
  139.9715  134.7286  156.0033 LP  0  0  0  0  0  0  0  0  0  0  0  0  # atno 17395 bound_to 11000

$$$$
