AV-unprocessed.smi:72|AV-procd|sdf|734|dock3
  -GOLD-   2262017 63D 1   1.00000     0.00000
 Structure written by MMmdl.
 28 29  0  0  0  0  0  0  0  0  2 V2000
  154.2324  138.2152  154.0446 N   0  0  0  0  0  0  0  0  0  0  0  0
  153.0258  138.4957  154.2810 C   0  0  0  0  0  0  0  0  0  0  0  0
  151.9806  137.5665  153.9093 N   0  0  0  0  0  0  0  0  0  0  0  0
  150.7530  137.9054  154.1594 C   0  0  0  0  0  0  0  0  0  0  0  0
  150.4203  139.1803  154.7801 N   0  0  0  0  0  0  0  0  0  0  0  0
  148.9837  139.5624  155.0748 C   0  0  1  0  0  0  0  0  0  0  0  0
  148.9045  140.1115  156.3522 O   0  0  0  0  0  0  0  0  0  0  0  0
  147.7847  140.9811  156.3916 C   0  0  1  0  0  0  0  0  0  0  0  0
  147.9082  141.9457  157.5812 C   0  0  0  0  0  0  0  0  0  0  0  0
  149.1257  142.6564  157.5079 O   0  0  0  0  0  0  0  0  0  0  0  0
  147.8542  141.6796  155.0277 C   0  0  2  0  0  0  0  0  0  0  0  0
  146.5613  142.0845  154.6228 O   0  0  0  0  0  0  0  0  0  0  0  0
  148.4032  140.6039  154.0915 C   0  0  1  0  0  0  0  0  0  0  0  0
  149.3540  141.1605  153.2015 O   0  0  0  0  0  0  0  0  0  0  0  0
  151.4670  140.0602  155.1612 C   0  0  0  0  0  0  0  0  0  0  0  0
  151.1646  141.1113  155.7267 O   0  0  0  0  0  0  0  0  0  0  0  0
  152.7534  139.6976  154.8975 N   0  5  0  0  0  0  0  0  0  0  0  0
  148.4125  138.6326  155.0879 H   0  0  0  0  0  0  0  0  0  0  0  0
  146.8732  140.3829  156.4590 H   0  0  0  0  0  0  0  0  0  0  0  0
  148.5276  142.5377  155.0759 H   0  0  0  0  0  0  0  0  0  0  0  0
  147.6149  140.1146  153.5175 H   0  0  0  0  0  0  0  0  0  0  0  0
  154.3442  137.3195  153.5925 H   0  0  0  0  0  0  0  0  0  0  0  0
  149.9030  137.2621  153.9290 H   0  0  0  0  0  0  0  0  0  0  0  0
  147.0647  142.6357  157.6218 H   0  0  0  0  0  0  0  0  0  0  0  0
  147.9144  141.3866  158.5173 H   0  0  0  0  0  0  0  0  0  0  0  0
  149.8254  142.0392  157.3584 H   0  0  0  0  0  0  0  0  0  0  0  0
  146.5031  143.0242  154.7047 H   0  0  0  0  0  0  0  0  0  0  0  0
  149.5907  140.4999  152.5674 H   0  0  0  0  0  0  0  0  0  0  0  0
  1  2  2  0  0  0  0
  1 22  1  0  0  0  0
  2 17  1  0  0  0  0
  2  3  1  0  0  0  0
  3  4  2  0  0  0  0
  4  5  1  0  0  0  0
  4 23  1  0  0  0  0
  5  6  1  0  0  0  0
  5 15  1  0  0  0  0
  6 18  1  0  0  0  0
  6 13  1  0  0  0  0
  6  7  1  0  0  0  0
  7  8  1  0  0  0  0
  8 19  1  0  0  0  0
  8  9  1  0  0  0  0
  8 11  1  0  0  0  0
  9 10  1  0  0  0  0
  9 24  1  0  0  0  0
  9 25  1  0  0  0  0
 10 26  1  0  0  0  0
 11 20  1  0  0  0  0
 11 12  1  0  0  0  0
 11 13  1  0  0  0  0
 12 27  1  0  0  0  0
 13 21  1  0  0  0  0
 13 14  1  0  0  0  0
 14 28  1  0  0  0  0
 15 16  2  0  0  0  0
 15 17  1  0  0  0  0
M  CHG  1  17  -1
M  END
> <s_m_source_file>
AV-unprocessed.smi

> <i_m_source_file_index>
72

> <i_lp_mmshare_version>
43012

> <i_f3d_flags>
0

> <s_epik_input>
W05IMl1jMW5bY0hdbihjKD1PKW4xKVtDQEBIXTJPW0NASF0oW0NIMl1bT0hdKVtDQEBIXShbT0hdKVtDQEhdMltPSF0=

> <s_epik_cmdline>
J2VwaWtfcHl0aG9uJywgJy1waCcsICc3LjAnLCAnLXRuJywgJzgnLCAnLW1hJywgJzIwMCcsICctbWV0YWxfYmluZGluZycsICctaW1hZScsICc8aW5maWxlLm1hZT4nLCAnLW9tYWUnLCAnPG91dGZpbGUubWFlPic=

> <r_lp_tautomer_probability>
7.17554e-07

> <r_epik_Ionization_Penalty>
12.8705

> <r_epik_Ionization_Penalty_Charging>
5.64144

> <r_epik_Ionization_Penalty_Neutral>
7.22905

> <r_epik_State_Penalty>
3.30104

> <r_epik_Charging_Adjusted_Penalty>
8.94249

> <i_epik_Tot_Q>
-1

> <i_epik_Tot_abs_Q>
1

> <r_epik_Metal_State_Penalty>
0.529074

> <b_epik_Metal_Only>
1

> <s_epik_Chemistry_Notes>
This compound contains an acetal/aminal-like group ( X-CH(R)-Y where X, Y are N, S, or O) that may be acid/base labile, releasing an aldehyde.

> <s_lp_Force_Field>
OPLS_2005

> <r_lp_Energy>
37.9918

> <b_lp_Chiralities_Consistent>
1

> <s_lp_Variant>
AV-unprocessed.smi:72-72

> <Gold.Version>
5.8.1

> <Gold.Id.Protein>
6NUR|6NUR_protein|mol2

> <Gold.PLP.Fitness>
45.0914

> <Gold.PLP.PLP>
-29.1241

> <Gold.PLP.part.hbond>
-8.1285

> <Gold.PLP.part.metal>
0.0000

> <Gold.PLP.part.buried>
-2.7098

> <Gold.PLP.part.nonpolar>
-18.7834

> <Gold.PLP.part.repulsive>
0.2221

> <Gold.PLP.ligand.clash>
0.0000

> <Gold.PLP.ligand.torsion>
0.4505

> <Gold.PLP.Chemscore.Hbond>
4.6620

> <Gold.PLP.Chemscore.CHOScore>
0.8996

> <Gold.PLP.Chemscore.Metal>
0.0000

> <Gold.Chemscore.Hbonds>
donor molecule, donor type, donor heavy atom, donor atom, acceptor molecule, acceptor atom, score
      L1  H    14    28       P1  7957  0.84
      P1  H  7997  8010       L1    17  1.98
      P1  H  8011  8017       L1    14  0.80
      P1  H 10752 10764       L1     3  0.68
      L1  C     4    23       P1  7948  1.00

> <Gold.PLP.Chemscore.Internal.Correction>
0.1833

> <Gold.Rescore>
     Score         DG    S(hbond)    S(metal)    S(lipo)     H(rot)  DE(clash)    DE(int)     intcor
      2.43      -5.56       2.47        0.00      18.48       4.04       0.33       2.80       ----

> <Gold.Chemscore.Fitness>
2.4291

> <Gold.Chemscore.DG>
-5.5567

> <Gold.Chemscore.ZeroCoef>
-5.4800

> <Gold.Chemscore.Hbond>
2.4724

> <Gold.Chemscore.Metal>
0.0000

> <Gold.Chemscore.Lipo>
18.4792

> <Gold.Chemscore.Internal_Hbond>
0.0000

> <Gold.Chemscore.DEClash>
0.3303

> <Gold.Chemscore.DEInternal>
2.7973

> <Gold.Chemscore.Rot>
4.0403

> <Gold.Chemscore.Internal.Correction>
   9.000000E+99

> <Gold.Chemscore.Hbonds>
donor molecule, donor type, donor heavy atom, donor atom, acceptor molecule, acceptor atom, score
      L1  H    14    28       P1  7957  0.78
      P1  H  7997  8010       L1    17  0.51
      P1  H  8011  8017       L1    14  0.11
      P1  H 10752 10764       L1     3  0.20

> <Gold.Chemscore.Hbond.Weighted>
-8.2577

> <Gold.Chemscore.Metal.Weighted>
-0.0000

> <Gold.Chemscore.Lipo.Weighted>
-2.1621

> <Gold.Chemscore.Internal_Hbond.Weighted>
0.0000

> <Gold.Chemscore.DEClash.Weighted>
0.3303

> <Gold.Chemscore.DEInternal.Weighted>
2.7973

> <Gold.Chemscore.Rot.Weighted>
10.3431

> <Gold.Chemscore.Internal.Correction.Weighted>
   9.000000E+99

> <Gold.Protein.RotatedTorsions>
[ 6907 6896 6895 6894 ] final    0.98 input  -60.11 | X-H torsion
[ 7974 7965 7964 7962 ] final   42.23 input  175.53 | X-H torsion
[ 8008 7997 7996 7995 ] final   98.18 input   59.86 | X-H torsion
[ 10167 10162 10161 10158 ] final  139.96 input  -65.29 | X-H torsion
[ 10718 10713 10712 10709 ] final  -18.09 input   66.30 | X-H torsion
[ 10763 10752 10751 10750 ] final  -83.29 input  -60.55 | X-H torsion
[ 11005 11000 10999 10996 ] final -146.97 input  -57.11 | X-H torsion

> <Gold.Protein.ActiveResidues>
 VAL166  LYS551  ARG553  GLY616  TRP617  ASP618  TYR619  PRO620  LYS621  CYS622 
 ASP623  PHE694  ASN695  SER759  ASP760  ASP761  ALA762  ILE779  LEU786  VAL792 
 PHE793  MET794  SER795  GLU796  ALA797  LYS798  CYS799  TRP800  GLU811  SER814 

> <Gold.Protein.RotatedAtoms>
  151.5851  135.1056  160.0026 H   0  0  0  0  0  0  0  0  0  0  0  0  # atno 6907 bound_to 6896
  152.4334  133.7314  159.6600 H   0  0  0  0  0  0  0  0  0  0  0  0  # atno 6908 bound_to 6896
  150.8229  133.8151  159.3154 H   0  0  0  0  0  0  0  0  0  0  0  0  # atno 6909 bound_to 6896
  146.0758  139.5324  142.9569 H   0  0  0  0  0  0  0  0  0  0  0  0  # atno 7974 bound_to 7965
  156.0978  140.3247  155.7901 H   0  0  0  0  0  0  0  0  0  0  0  0  # atno 8008 bound_to 7997
  155.4889  140.0560  157.2974 H   0  0  0  0  0  0  0  0  0  0  0  0  # atno 8009 bound_to 7997
  154.4677  140.1997  156.0090 H   0  0  0  0  0  0  0  0  0  0  0  0  # atno 8010 bound_to 7997
  139.5063  144.6263  151.5928 H   0  0  0  0  0  0  0  0  0  0  0  0  # atno 10167 bound_to 10162
  156.5644  130.4733  149.6392 H   0  0  0  0  0  0  0  0  0  0  0  0  # atno 10718 bound_to 10713
  154.5860  135.5561  153.7231 H   0  0  0  0  0  0  0  0  0  0  0  0  # atno 10763 bound_to 10752
  153.0099  135.6331  154.1916 H   0  0  0  0  0  0  0  0  0  0  0  0  # atno 10764 bound_to 10752
  154.1857  135.2885  155.3018 H   0  0  0  0  0  0  0  0  0  0  0  0  # atno 10765 bound_to 10752
  140.7765  134.3129  157.5059 H   0  0  0  0  0  0  0  0  0  0  0  0  # atno 11005 bound_to 11000
  145.6309  141.0304  143.1864 LP  0  0  0  0  0  0  0  0  0  0  0  0  # atno 17320 bound_to 7965
  144.7260  139.7873  143.7364 LP  0  0  0  0  0  0  0  0  0  0  0  0  # atno 17321 bound_to 7965
  140.5981  143.9659  150.6368 LP  0  0  0  0  0  0  0  0  0  0  0  0  # atno 17342 bound_to 10162
  140.2862  143.3356  152.1105 LP  0  0  0  0  0  0  0  0  0  0  0  0  # atno 17343 bound_to 10162
  156.2770  130.7049  151.1863 LP  0  0  0  0  0  0  0  0  0  0  0  0  # atno 17370 bound_to 10713
  157.7362  131.0565  150.5429 LP  0  0  0  0  0  0  0  0  0  0  0  0  # atno 17371 bound_to 10713
  139.8748  134.9292  156.3471 LP  0  0  0  0  0  0  0  0  0  0  0  0  # atno 17394 bound_to 11000
  140.9524  133.7442  156.0289 LP  0  0  0  0  0  0  0  0  0  0  0  0  # atno 17395 bound_to 11000

$$$$
