AV-unprocessed.smi:2385|AV-procd|sdf|9466|dock7
  -GOLD-   2272013 93D 1   1.00000     0.00000
 Structure written by MMmdl.
 50 52  0  0  0  0  0  0  0  0  2 V2000
  153.9773  141.6954  160.9905 C   0  0  0  0  0  0  0  0  0  0  0  0
  152.9289  141.8890  159.9150 C   0  0  0  0  0  0  0  0  0  0  0  0
  152.5672  143.1747  159.4695 C   0  0  0  0  0  0  0  0  0  0  0  0
  151.5864  143.2942  158.4660 C   0  0  0  0  0  0  0  0  0  0  0  0
  150.9907  142.1287  157.9331 C   0  0  0  0  0  0  0  0  0  0  0  0
  150.0155  142.3581  156.9259 N   0  0  0  0  0  0  0  0  0  0  0  0
  149.5013  141.4753  156.0515 C   0  0  0  0  0  0  0  0  0  0  0  0
  149.7871  140.2791  155.9934 O   0  0  0  0  0  0  0  0  0  0  0  0
  148.6194  142.0627  155.2289 N   0  0  0  0  0  0  0  0  0  0  0  0
  147.8682  141.3852  154.1719 C   0  0  2  0  0  0  0  0  0  0  0  0
  146.9781  142.3613  153.3780 C   0  0  0  0  0  0  0  0  0  0  0  0
  145.7913  142.8698  154.2148 C   0  0  0  0  0  0  0  0  0  0  0  0
  144.9785  141.7430  154.7436 N   0  3  2  0  0  0  0  0  0  0  0  0
  143.7497  142.2137  155.4371 C   0  0  0  0  0  0  0  0  0  0  0  0
  143.9192  143.6007  156.0920 C   0  0  1  0  0  0  0  0  0  0  0  0
  143.7058  144.8019  155.1740 C   0  0  0  0  0  0  0  0  0  0  0  0
  143.0095  145.8454  156.0545 C   0  0  0  0  0  0  0  0  0  0  0  0
  142.9610  145.2737  157.3534 O   0  0  0  0  0  0  0  0  0  0  0  0
  142.8967  143.8683  157.1948 C   0  0  0  0  0  0  0  0  0  0  0  0
  145.8049  140.8192  155.5659 C   0  0  0  0  0  0  0  0  0  0  0  0
  146.9970  140.2647  154.7639 C   0  0  0  0  0  0  0  0  0  0  0  0
  151.3465  140.8943  158.3685 N   0  0  0  0  0  0  0  0  0  0  0  0
  152.2863  140.7806  159.3304 C   0  0  0  0  0  0  0  0  0  0  0  0
  154.3914  142.6495  161.3176 H   0  0  0  0  0  0  0  0  0  0  0  0
  154.7948  141.0799  160.6142 H   0  0  0  0  0  0  0  0  0  0  0  0
  153.5416  141.1970  161.8570 H   0  0  0  0  0  0  0  0  0  0  0  0
  153.0312  144.0570  159.8860 H   0  0  0  0  0  0  0  0  0  0  0  0
  151.2976  144.2738  158.1131 H   0  0  0  0  0  0  0  0  0  0  0  0
  149.6744  143.3057  156.8628 H   0  0  0  0  0  0  0  0  0  0  0  0
  148.4414  143.0484  155.3550 H   0  0  0  0  0  0  0  0  0  0  0  0
  148.5887  140.9300  153.4897 H   0  0  0  0  0  0  0  0  0  0  0  0
  147.5627  143.2041  153.0075 H   0  0  0  0  0  0  0  0  0  0  0  0
  146.5950  141.8530  152.4921 H   0  0  0  0  0  0  0  0  0  0  0  0
  146.1452  143.4867  155.0424 H   0  0  0  0  0  0  0  0  0  0  0  0
  145.1705  143.5099  153.5868 H   0  0  0  0  0  0  0  0  0  0  0  0
  142.8894  142.1867  154.7665 H   0  0  0  0  0  0  0  0  0  0  0  0
  143.5176  141.5121  156.2398 H   0  0  0  0  0  0  0  0  0  0  0  0
  144.9102  143.6739  156.5435 H   0  0  0  0  0  0  0  0  0  0  0  0
  144.6529  145.1757  154.7841 H   0  0  0  0  0  0  0  0  0  0  0  0
  143.0676  144.5535  154.3250 H   0  0  0  0  0  0  0  0  0  0  0  0
  143.5395  146.7980  156.0716 H   0  0  0  0  0  0  0  0  0  0  0  0
  141.9934  146.0281  155.7025 H   0  0  0  0  0  0  0  0  0  0  0  0
  141.8906  143.5799  156.8851 H   0  0  0  0  0  0  0  0  0  0  0  0
  143.1335  143.3501  158.1244 H   0  0  0  0  0  0  0  0  0  0  0  0
  146.1582  141.3403  156.4569 H   0  0  0  0  0  0  0  0  0  0  0  0
  145.2056  139.9807  155.9134 H   0  0  0  0  0  0  0  0  0  0  0  0
  146.6190  139.6401  153.9531 H   0  0  0  0  0  0  0  0  0  0  0  0
  147.6001  139.6091  155.3935 H   0  0  0  0  0  0  0  0  0  0  0  0
  152.5322  139.7757  159.6410 H   0  0  0  0  0  0  0  0  0  0  0  0
  144.6675  141.2235  153.9351 H   0  0  0  0  0  0  0  0  0  0  0  0
  1  2  1  0  0  0  0
  1 24  1  0  0  0  0
  1 25  1  0  0  0  0
  1 26  1  0  0  0  0
  2 23  1  0  0  0  0
  2  3  2  0  0  0  0
  3  4  1  0  0  0  0
  3 27  1  0  0  0  0
  4  5  2  0  0  0  0
  4 28  1  0  0  0  0
  5  6  1  0  0  0  0
  5 22  1  0  0  0  0
  6  7  1  0  0  0  0
  6 29  1  0  0  0  0
  7  8  2  0  0  0  0
  7  9  1  0  0  0  0
  9 10  1  0  0  0  0
  9 30  1  0  0  0  0
 10 21  1  0  0  0  0
 10 11  1  0  0  0  0
 10 31  1  0  0  0  0
 11 12  1  0  0  0  0
 11 32  1  0  0  0  0
 11 33  1  0  0  0  0
 12 13  1  0  0  0  0
 12 34  1  0  0  0  0
 12 35  1  0  0  0  0
 13 14  1  0  0  0  0
 13 20  1  0  0  0  0
 13 50  1  0  0  0  0
 14 15  1  0  0  0  0
 14 36  1  0  0  0  0
 14 37  1  0  0  0  0
 15 19  1  0  0  0  0
 15 16  1  0  0  0  0
 15 38  1  0  0  0  0
 16 17  1  0  0  0  0
 16 39  1  0  0  0  0
 16 40  1  0  0  0  0
 17 18  1  0  0  0  0
 17 41  1  0  0  0  0
 17 42  1  0  0  0  0
 18 19  1  0  0  0  0
 19 43  1  0  0  0  0
 19 44  1  0  0  0  0
 20 21  1  0  0  0  0
 20 45  1  0  0  0  0
 20 46  1  0  0  0  0
 21 47  1  0  0  0  0
 21 48  1  0  0  0  0
 22 23  2  0  0  0  0
 23 49  1  0  0  0  0
M  CHG  1  13   1
M  END
> <s_m_source_file>
AV-unprocessed.smi

> <i_m_source_file_index>
2385

> <i_lp_mmshare_version>
43012

> <i_f3d_flags>
0

> <s_epik_input>
W0NIM11jMVtjSF1bY0hdYyhuW2NIXTEpW05IXUMoPU8pW05IXVtDSF0yW0NIMl1bQ0gyXU4oW0NIMl1bQ0gyXTIpW0NIMl1bQ0BASF0zW0NIMl1bQ0gyXU9bQ0gyXTM=

> <s_epik_cmdline>
J2VwaWtfcHl0aG9uJywgJy1waCcsICc3LjAnLCAnLXRuJywgJzgnLCAnLW1hJywgJzIwMCcsICctbWV0YWxfYmluZGluZycsICctaW1hZScsICc8aW5maWxlLm1hZT4nLCAnLW9tYWUnLCAnPG91dGZpbGUubWFlPic=

> <r_epik_Ionization_Penalty>
0.00752367

> <r_epik_Ionization_Penalty_Charging>
0.00747775

> <r_epik_Ionization_Penalty_Neutral>
4.59207e-05

> <r_epik_State_Penalty>
0.00558817

> <r_epik_Charging_Adjusted_Penalty>
0.0130659

> <i_epik_Tot_Q>
1

> <i_epik_Tot_abs_Q>
1

> <r_epik_Metal_State_Penalty>
-0

> <b_epik_Metal_Only>
0

> <s_lp_Force_Field>
OPLS_2005

> <r_lp_Energy>
36.5339

> <b_lp_Chiralities_Consistent>
1

> <s_lp_Variant>
AV-unprocessed.smi:2385-4

> <Gold.Version>
5.8.1

> <Gold.Id.Protein>
6NUR|6NUR_protein|mol2

> <Gold.PLP.Fitness>
51.1172

> <Gold.PLP.PLP>
-40.5530

> <Gold.PLP.part.hbond>
-3.0000

> <Gold.PLP.part.metal>
0.0000

> <Gold.PLP.part.buried>
-8.1568

> <Gold.PLP.part.nonpolar>
-30.5552

> <Gold.PLP.part.repulsive>
0.2424

> <Gold.PLP.ligand.clash>
0.0000

> <Gold.PLP.ligand.torsion>
0.7286

> <Gold.PLP.Chemscore.Hbond>
4.0000

> <Gold.PLP.Chemscore.CHOScore>
0.0000

> <Gold.PLP.Chemscore.Metal>
0.0000

> <Gold.Chemscore.Hbonds>
donor molecule, donor type, donor heavy atom, donor atom, acceptor molecule, acceptor atom, score
      L1  H     6    29       P1  8028  0.93
      L1  H     9    30       P1  8028  1.00
      L1  H    13    50       P1 10175  2.00

> <Gold.PLP.Chemscore.Internal.Correction>
0.0213

> <Gold.Rescore>
     Score         DG    S(hbond)    S(metal)    S(lipo)     H(rot)  DE(clash)    DE(int)     intcor
     19.40     -22.78       2.75        0.00     100.00       1.41       1.30       2.08       ----

> <Gold.Chemscore.Fitness>
19.4029

> <Gold.Chemscore.DG>
-22.7806

> <Gold.Chemscore.ZeroCoef>
-5.4800

> <Gold.Chemscore.Hbond>
2.7541

> <Gold.Chemscore.Metal>
0.0000

> <Gold.Chemscore.Lipo>
100.0017

> <Gold.Chemscore.Internal_Hbond>
0.0000

> <Gold.Chemscore.DEClash>
1.3015

> <Gold.Chemscore.DEInternal>
2.0761

> <Gold.Chemscore.Rot>
1.4056

> <Gold.Chemscore.Internal.Correction>
   9.000000E+99

> <Gold.Chemscore.Hbonds>
donor molecule, donor type, donor heavy atom, donor atom, acceptor molecule, acceptor atom, score
      L1  H     6    29       P1  8028  0.86
      L1  H     9    30       P1  8028  0.98
      L1  H    13    50       P1 10175  0.55

> <Gold.Chemscore.Hbond.Weighted>
-9.1986

> <Gold.Chemscore.Metal.Weighted>
-0.0000

> <Gold.Chemscore.Lipo.Weighted>
-11.7002

> <Gold.Chemscore.Internal_Hbond.Weighted>
0.0000

> <Gold.Chemscore.DEClash.Weighted>
1.3015

> <Gold.Chemscore.DEInternal.Weighted>
2.0761

> <Gold.Chemscore.Rot.Weighted>
3.5982

> <Gold.Chemscore.Internal.Correction.Weighted>
   9.000000E+99

> <Gold.Protein.RotatedTorsions>
[ 6907 6896 6895 6894 ] final   20.62 input  -60.11 | X-H torsion
[ 7974 7965 7964 7962 ] final -178.86 input  175.53 | X-H torsion
[ 8008 7997 7996 7995 ] final  164.05 input   59.86 | X-H torsion
[ 10167 10162 10161 10158 ] final -144.34 input  -65.29 | X-H torsion
[ 10718 10713 10712 10709 ] final  165.75 input   66.30 | X-H torsion
[ 10763 10752 10751 10750 ] final   66.61 input  -60.55 | X-H torsion
[ 11005 11000 10999 10996 ] final  174.13 input  -57.11 | X-H torsion

> <Gold.Protein.ActiveResidues>
 VAL166  LYS551  ARG553  GLY616  TRP617  ASP618  TYR619  PRO620  LYS621  CYS622 
 ASP623  PHE694  ASN695  SER759  ASP760  ASP761  ALA762  ILE779  LEU786  VAL792 
 PHE793  MET794  SER795  GLU796  ALA797  LYS798  CYS799  TRP800  GLU811  SER814 

> <Gold.Protein.RotatedAtoms>
  151.8992  135.0385  160.0504 H   0  0  0  0  0  0  0  0  0  0  0  0  # atno 6907 bound_to 6896
  152.2372  133.5101  159.5258 H   0  0  0  0  0  0  0  0  0  0  0  0  # atno 6908 bound_to 6896
  150.7043  134.1053  159.4023 H   0  0  0  0  0  0  0  0  0  0  0  0  # atno 6909 bound_to 6896
  144.7133  140.0804  143.6426 H   0  0  0  0  0  0  0  0  0  0  0  0  # atno 7974 bound_to 7965
  156.1910  140.1707  156.8092 H   0  0  0  0  0  0  0  0  0  0  0  0  # atno 8008 bound_to 7997
  154.5471  140.0725  156.8639 H   0  0  0  0  0  0  0  0  0  0  0  0  # atno 8009 bound_to 7997
  155.3100  140.3367  155.4246 H   0  0  0  0  0  0  0  0  0  0  0  0  # atno 8010 bound_to 7997
  139.7908  143.7969  152.2649 H   0  0  0  0  0  0  0  0  0  0  0  0  # atno 10167 bound_to 10162
  157.0757  131.0378  151.2594 H   0  0  0  0  0  0  0  0  0  0  0  0  # atno 10718 bound_to 10713
  153.0148  135.5314  154.6851 H   0  0  0  0  0  0  0  0  0  0  0  0  # atno 10763 bound_to 10752
  154.6000  135.2867  155.0547 H   0  0  0  0  0  0  0  0  0  0  0  0  # atno 10764 bound_to 10752
  154.1608  135.6548  153.5038 H   0  0  0  0  0  0  0  0  0  0  0  0  # atno 10765 bound_to 10752
  140.3480  134.7219  157.4248 H   0  0  0  0  0  0  0  0  0  0  0  0  # atno 11005 bound_to 11000
  145.9707  139.2867  143.1100 LP  0  0  0  0  0  0  0  0  0  0  0  0  # atno 17320 bound_to 7965
  145.9120  140.9174  143.0449 LP  0  0  0  0  0  0  0  0  0  0  0  0  # atno 17321 bound_to 7965
  139.8060  144.7355  150.9761 LP  0  0  0  0  0  0  0  0  0  0  0  0  # atno 17342 bound_to 10162
  140.7820  143.4298  151.0712 LP  0  0  0  0  0  0  0  0  0  0  0  0  # atno 17343 bound_to 10162
  157.4841  130.7783  149.7443 LP  0  0  0  0  0  0  0  0  0  0  0  0  # atno 17370 bound_to 10713
  155.9937  130.3922  150.2887 LP  0  0  0  0  0  0  0  0  0  0  0  0  # atno 17371 bound_to 10713
  140.0726  134.5841  155.8625 LP  0  0  0  0  0  0  0  0  0  0  0  0  # atno 17394 bound_to 11000
  141.2020  133.6622  156.5982 LP  0  0  0  0  0  0  0  0  0  0  0  0  # atno 17395 bound_to 11000

$$$$
