AV-unprocessed.smi:83|AV-procd|sdf|801|dock6
  -GOLD-   2262017183D 1   1.00000     0.00000
 Structure written by MMmdl.
 56 59  0  0  0  0  0  0  0  0  1 V2000
  152.1632  142.9602  160.7083 C   0  0  0  0  0  0  0  0  0  0  0  0
  151.6948  143.1452  159.2640 C   0  0  0  0  0  0  0  0  0  0  0  0
  151.7867  144.2572  158.7438 O   0  0  0  0  0  0  0  0  0  0  0  0
  151.1935  142.0775  158.6111 N   0  0  0  0  0  0  0  0  0  0  0  0
  151.0599  140.7285  159.1583 C   0  0  0  0  0  0  0  0  0  0  0  0
  150.6292  139.8503  157.9819 C   0  0  0  0  0  0  0  0  0  0  0  0
  149.9266  140.8165  157.0342 C   0  0  2  0  0  0  0  0  0  0  0  0
  149.8576  140.3219  155.5760 C   0  0  0  0  0  0  0  0  0  0  0  0
  148.5037  140.3839  155.0218 N   0  0  0  0  0  0  0  0  0  0  0  0
  148.1268  141.5624  154.2521 C   0  0  0  0  0  0  0  0  0  0  0  0
  147.7962  139.2299  154.8751 C   0  0  0  0  0  0  0  0  0  0  0  0
  147.7699  138.3620  155.9212 N   0  0  0  0  0  0  0  0  0  0  0  0
  147.0979  137.2111  155.8379 C   0  0  0  0  0  0  0  0  0  0  0  0
  146.3920  136.7309  154.8144 N   0  0  0  0  0  0  0  0  0  0  0  0
  146.4138  137.5890  153.7559 C   0  0  0  0  0  0  0  0  0  0  0  0
  147.0797  138.8486  153.6992 C   0  0  0  0  0  0  0  0  0  0  0  0
  146.8760  139.4214  152.4470 N   0  0  0  0  0  0  0  0  0  0  0  0
  146.1326  138.5599  151.8095 C   0  0  0  0  0  0  0  0  0  0  0  0
  145.8069  137.4307  152.5227 N   0  0  0  0  0  0  0  0  0  0  0  0
  144.9987  136.3175  152.0569 C   0  0  0  0  0  0  0  0  0  0  0  0
  145.6688  135.5504  150.9011 C   0  0  2  0  0  0  0  0  0  0  0  0
  145.3959  136.1770  149.6619 O   0  0  0  0  0  0  0  0  0  0  0  0
  145.2693  134.0611  150.8626 C   0  0  2  0  0  0  0  0  0  0  0  0
  146.1013  133.1522  149.9544 C   0  0  0  0  0  0  0  0  0  0  0  0
  145.1431  132.0023  149.7372 C   0  0  0  0  0  0  0  0  0  0  0  0
  143.8024  132.7264  149.6349 C   0  0  0  0  0  0  0  0  0  0  0  0
  143.9113  133.8767  150.4701 O   0  0  0  0  0  0  0  0  0  0  0  0
  150.6998  142.1245  157.2378 C   0  0  0  0  0  0  0  0  0  0  0  0
  151.3556  142.5753  161.3313 H   0  0  0  0  0  0  0  0  0  0  0  0
  152.4895  143.9107  161.1318 H   0  0  0  0  0  0  0  0  0  0  0  0
  153.0028  142.2665  160.7546 H   0  0  0  0  0  0  0  0  0  0  0  0
  151.9904  140.3665  159.5977 H   0  0  0  0  0  0  0  0  0  0  0  0
  150.2923  140.7312  159.9336 H   0  0  0  0  0  0  0  0  0  0  0  0
  151.5131  139.4312  157.4988 H   0  0  0  0  0  0  0  0  0  0  0  0
  149.9915  139.0206  158.2880 H   0  0  0  0  0  0  0  0  0  0  0  0
  148.9127  140.9607  157.4114 H   0  0  0  0  0  0  0  0  0  0  0  0
  150.5717  140.8673  154.9590 H   0  0  0  0  0  0  0  0  0  0  0  0
  150.1837  139.2820  155.5395 H   0  0  0  0  0  0  0  0  0  0  0  0
  147.0464  141.7095  154.2659 H   0  0  0  0  0  0  0  0  0  0  0  0
  148.4577  141.4706  153.2174 H   0  0  0  0  0  0  0  0  0  0  0  0
  148.5863  142.4569  154.6735 H   0  0  0  0  0  0  0  0  0  0  0  0
  147.1322  136.5851  156.7174 H   0  0  0  0  0  0  0  0  0  0  0  0
  145.8001  138.7247  150.7948 H   0  0  0  0  0  0  0  0  0  0  0  0
  144.8258  135.6486  152.9010 H   0  0  0  0  0  0  0  0  0  0  0  0
  144.0208  136.6946  151.7544 H   0  0  0  0  0  0  0  0  0  0  0  0
  146.7499  135.5981  151.0379 H   0  0  0  0  0  0  0  0  0  0  0  0
  145.0561  137.0422  149.8316 H   0  0  0  0  0  0  0  0  0  0  0  0
  145.3389  133.6655  151.8775 H   0  0  0  0  0  0  0  0  0  0  0  0
  146.3210  133.6287  148.9982 H   0  0  0  0  0  0  0  0  0  0  0  0
  147.0441  132.8456  150.4082 H   0  0  0  0  0  0  0  0  0  0  0  0
  145.3764  131.4091  148.8527 H   0  0  0  0  0  0  0  0  0  0  0  0
  145.1483  131.3409  150.6049 H   0  0  0  0  0  0  0  0  0  0  0  0
  143.6284  133.0592  148.6108 H   0  0  0  0  0  0  0  0  0  0  0  0
  142.9644  132.0954  149.9324 H   0  0  0  0  0  0  0  0  0  0  0  0
  150.0625  142.9925  157.0596 H   0  0  0  0  0  0  0  0  0  0  0  0
  151.5539  142.1866  156.5620 H   0  0  0  0  0  0  0  0  0  0  0  0
  1  2  1  0  0  0  0
  1 29  1  0  0  0  0
  1 30  1  0  0  0  0
  1 31  1  0  0  0  0
  2  3  2  0  0  0  0
  2  4  1  0  0  0  0
  4 28  1  0  0  0  0
  4  5  1  0  0  0  0
  5  6  1  0  0  0  0
  5 32  1  0  0  0  0
  5 33  1  0  0  0  0
  6  7  1  0  0  0  0
  6 34  1  0  0  0  0
  6 35  1  0  0  0  0
  7  8  1  0  0  0  0
  7 28  1  0  0  0  0
  7 36  1  0  0  0  0
  8  9  1  0  0  0  0
  8 37  1  0  0  0  0
  8 38  1  0  0  0  0
  9 10  1  0  0  0  0
  9 11  1  0  0  0  0
 10 39  1  0  0  0  0
 10 40  1  0  0  0  0
 10 41  1  0  0  0  0
 11 16  1  0  0  0  0
 11 12  2  0  0  0  0
 12 13  1  0  0  0  0
 13 14  2  0  0  0  0
 13 42  1  0  0  0  0
 14 15  1  0  0  0  0
 15 19  1  0  0  0  0
 15 16  2  0  0  0  0
 16 17  1  0  0  0  0
 17 18  2  0  0  0  0
 18 19  1  0  0  0  0
 18 43  1  0  0  0  0
 19 20  1  0  0  0  0
 20 21  1  0  0  0  0
 20 44  1  0  0  0  0
 20 45  1  0  0  0  0
 21 22  1  0  0  0  0
 21 23  1  0  0  0  0
 21 46  1  0  0  0  0
 22 47  1  0  0  0  0
 23 27  1  0  0  0  0
 23 24  1  0  0  0  0
 23 48  1  0  0  0  0
 24 25  1  0  0  0  0
 24 49  1  0  0  0  0
 24 50  1  0  0  0  0
 25 26  1  0  0  0  0
 25 51  1  0  0  0  0
 25 52  1  0  0  0  0
 26 27  1  0  0  0  0
 26 53  1  0  0  0  0
 26 54  1  0  0  0  0
 28 55  1  0  0  0  0
 28 56  1  0  0  0  0
M  END
> <s_m_source_file>
AV-unprocessed.smi

> <i_m_source_file_index>
83

> <i_lp_mmshare_version>
43012

> <i_f3d_flags>
0

> <s_epik_input>
W0NIM11DKD1PKU4xW0NIMl1bQ0gyXVtDQEhdKFtDSDJdMSlbQ0gyXU4oW0NIM10pYyhuW2NIXW4yKWMoYzIzKW5bY0hdbjNbQ0gyXVtDQEhdKFtPSF0pW0NAQEhdNFtDSDJdW0NIMl1bQ0gyXU80

> <s_epik_cmdline>
J2VwaWtfcHl0aG9uJywgJy1waCcsICc3LjAnLCAnLXRuJywgJzgnLCAnLW1hJywgJzIwMCcsICctbWV0YWxfYmluZGluZycsICctaW1hZScsICc8aW5maWxlLm1hZT4nLCAnLW9tYWUnLCAnPG91dGZpbGUubWFlPic=

> <r_lp_tautomer_probability>
1

> <r_epik_Ionization_Penalty>
0.00109752

> <r_epik_Ionization_Penalty_Charging>
0

> <r_epik_Ionization_Penalty_Neutral>
0.00109752

> <r_epik_State_Penalty>
0.000634803

> <r_epik_Charging_Adjusted_Penalty>
0.000634803

> <i_epik_Tot_Q>
0

> <i_epik_Tot_abs_Q>
0

> <r_epik_Metal_State_Penalty>
-0

> <b_epik_Metal_Only>
0

> <s_lp_Force_Field>
OPLS_2005

> <r_lp_Energy>
56.4298

> <b_lp_Chiralities_Consistent>
1

> <s_lp_Variant>
AV-unprocessed.smi:83-2

> <Gold.Version>
5.8.1

> <Gold.Id.Protein>
6NUR|6NUR_protein|mol2

> <Gold.PLP.Fitness>
52.4482

> <Gold.PLP.PLP>
-49.9917

> <Gold.PLP.part.hbond>
-2.0000

> <Gold.PLP.part.metal>
0.0000

> <Gold.PLP.part.buried>
-5.2531

> <Gold.PLP.part.nonpolar>
-44.1309

> <Gold.PLP.part.repulsive>
1.4765

> <Gold.PLP.ligand.clash>
0.0000

> <Gold.PLP.ligand.torsion>
1.9719

> <Gold.PLP.Chemscore.Hbond>
1.0000

> <Gold.PLP.Chemscore.CHOScore>
1.0000

> <Gold.PLP.Chemscore.Metal>
0.0000

> <Gold.Chemscore.Hbonds>
donor molecule, donor type, donor heavy atom, donor atom, acceptor molecule, acceptor atom, score
      L1  H    22    47       P1 10171  1.00
      L1  C    18    43       P1 10171  1.00

> <Gold.PLP.Chemscore.Internal.Correction>
0.4003

> <Gold.Rescore>
     Score         DG    S(hbond)    S(metal)    S(lipo)     H(rot)  DE(clash)    DE(int)     intcor
     10.22     -13.28       0.82        0.00     100.40       2.62       0.13       2.92       ----

> <Gold.Chemscore.Fitness>
10.2249

> <Gold.Chemscore.DG>
-13.2792

> <Gold.Chemscore.ZeroCoef>
-5.4800

> <Gold.Chemscore.Hbond>
0.8226

> <Gold.Chemscore.Metal>
0.0000

> <Gold.Chemscore.Lipo>
100.3988

> <Gold.Chemscore.Internal_Hbond>
0.0000

> <Gold.Chemscore.DEClash>
0.1299

> <Gold.Chemscore.DEInternal>
2.9244

> <Gold.Chemscore.Rot>
2.6152

> <Gold.Chemscore.Internal.Correction>
   9.000000E+99

> <Gold.Chemscore.Hbonds>
donor molecule, donor type, donor heavy atom, donor atom, acceptor molecule, acceptor atom, score
      L1  H    22    47       P1 10171  0.99

> <Gold.Chemscore.Hbond.Weighted>
-2.7475

> <Gold.Chemscore.Metal.Weighted>
-0.0000

> <Gold.Chemscore.Lipo.Weighted>
-11.7467

> <Gold.Chemscore.Internal_Hbond.Weighted>
0.0000

> <Gold.Chemscore.DEClash.Weighted>
0.1299

> <Gold.Chemscore.DEInternal.Weighted>
2.9244

> <Gold.Chemscore.Rot.Weighted>
6.6949

> <Gold.Chemscore.Internal.Correction.Weighted>
   9.000000E+99

> <Gold.Protein.RotatedTorsions>
[ 6907 6896 6895 6894 ] final   95.51 input  -60.11 | X-H torsion
[ 7974 7965 7964 7962 ] final  151.63 input  175.53 | X-H torsion
[ 8008 7997 7996 7995 ] final  106.05 input   59.86 | X-H torsion
[ 10167 10162 10161 10158 ] final  -92.61 input  -65.29 | X-H torsion
[ 10718 10713 10712 10709 ] final  140.01 input   66.30 | X-H torsion
[ 10763 10752 10751 10750 ] final   53.06 input  -60.55 | X-H torsion
[ 11005 11000 10999 10996 ] final  -42.75 input  -57.11 | X-H torsion

> <Gold.Protein.ActiveResidues>
 VAL166  LYS551  ARG553  GLY616  TRP617  ASP618  TYR619  PRO620  LYS621  CYS622 
 ASP623  PHE694  ASN695  SER759  ASP760  ASP761  ALA762  ILE779  LEU786  VAL792 
 PHE793  MET794  SER795  GLU796  ALA797  LYS798  CYS799  TRP800  GLU811  SER814 

> <Gold.Protein.RotatedAtoms>
  152.5443  134.1029  159.8325 H   0  0  0  0  0  0  0  0  0  0  0  0  # atno 6907 bound_to 6896
  151.1105  133.5169  159.2613 H   0  0  0  0  0  0  0  0  0  0  0  0  # atno 6908 bound_to 6896
  151.1890  135.0403  159.8879 H   0  0  0  0  0  0  0  0  0  0  0  0  # atno 6909 bound_to 6896
  144.8279  139.6563  143.6072 H   0  0  0  0  0  0  0  0  0  0  0  0  # atno 7974 bound_to 7965
  156.1711  140.3119  155.8975 H   0  0  0  0  0  0  0  0  0  0  0  0  # atno 8008 bound_to 7997
  155.3585  140.0475  157.3063 H   0  0  0  0  0  0  0  0  0  0  0  0  # atno 8009 bound_to 7997
  154.5242  140.2208  155.8931 H   0  0  0  0  0  0  0  0  0  0  0  0  # atno 8010 bound_to 7997
  140.3331  143.2984  151.9920 H   0  0  0  0  0  0  0  0  0  0  0  0  # atno 10167 bound_to 10162
  157.4080  131.1024  151.0484 H   0  0  0  0  0  0  0  0  0  0  0  0  # atno 10718 bound_to 10713
  152.9792  135.5791  154.4679 H   0  0  0  0  0  0  0  0  0  0  0  0  # atno 10763 bound_to 10752
  154.4246  135.2772  155.1955 H   0  0  0  0  0  0  0  0  0  0  0  0  # atno 10764 bound_to 10752
  154.3689  135.6172  153.5783 H   0  0  0  0  0  0  0  0  0  0  0  0  # atno 10765 bound_to 10752
  141.0337  133.6809  156.2637 H   0  0  0  0  0  0  0  0  0  0  0  0  # atno 11005 bound_to 11000
  146.2583  139.6352  142.9379 LP  0  0  0  0  0  0  0  0  0  0  0  0  # atno 17320 bound_to 7965
  145.4960  141.0438  143.2566 LP  0  0  0  0  0  0  0  0  0  0  0  0  # atno 17321 bound_to 7965
  139.4853  144.6219  151.7239 LP  0  0  0  0  0  0  0  0  0  0  0  0  # atno 17342 bound_to 10162
  140.5379  144.0626  150.6077 LP  0  0  0  0  0  0  0  0  0  0  0  0  # atno 17343 bound_to 10162
  157.1459  130.6163  149.5568 LP  0  0  0  0  0  0  0  0  0  0  0  0  # atno 17370 bound_to 10713
  155.9842  130.4866  150.6971 LP  0  0  0  0  0  0  0  0  0  0  0  0  # atno 17371 bound_to 10713
  140.6361  134.5214  157.5565 LP  0  0  0  0  0  0  0  0  0  0  0  0  # atno 17394 bound_to 11000
  139.9225  134.8120  156.1167 LP  0  0  0  0  0  0  0  0  0  0  0  0  # atno 17395 bound_to 11000

$$$$
