AV-unprocessed.smi:444|AV-procd|sdf|2588|dock8
  -GOLD-   2262022583D 1   1.00000     0.00000
 Structure written by MMmdl.
 45 46  0  0  0  0  0  0  0  0  1 V2000
  151.8387  145.5647  159.8564 C   0  0  0  0  0  0  0  0  0  0  0  0
  152.0672  144.0748  159.7054 C   0  0  0  0  0  0  0  0  0  0  0  0
  152.6945  143.3440  160.7326 C   0  0  0  0  0  0  0  0  0  0  0  0
  152.9043  141.9613  160.5836 C   0  0  0  0  0  0  0  0  0  0  0  0
  152.4891  141.3012  159.4084 C   0  0  0  0  0  0  0  0  0  0  0  0
  152.7229  139.8090  159.2645 C   0  0  0  0  0  0  0  0  0  0  0  0
  151.8572  142.0227  158.3690 C   0  0  0  0  0  0  0  0  0  0  0  0
  151.4737  141.3156  157.2479 O   0  0  0  0  0  0  0  0  0  0  0  0
  150.7896  142.0040  156.2094 C   0  0  0  0  0  0  0  0  0  0  0  0
  149.9638  140.9871  155.4032 C   0  0  1  0  0  0  0  0  0  0  0  0
  150.8719  140.0392  154.8764 O   0  0  0  0  0  0  0  0  0  0  0  0
  148.9439  140.2412  156.2922 C   0  0  0  0  0  0  0  0  0  0  0  0
  147.6215  140.8791  156.2631 N   0  0  0  0  0  0  0  0  0  0  0  0
  147.4194  141.7026  155.1723 N   0  0  0  0  0  0  0  0  0  0  0  0
  146.2976  142.3187  154.9922 C   0  0  0  0  0  0  0  0  0  0  0  0
  146.1923  143.1882  153.7684 C   0  0  0  0  0  0  0  0  0  0  0  0
  145.2159  142.1475  155.9566 C   0  0  0  0  0  0  0  0  0  0  0  0
  143.9167  142.8962  155.6917 C   0  0  0  0  0  0  0  0  0  0  0  0
  145.4286  141.3410  157.0265 C   0  0  0  0  0  0  0  0  0  0  0  0
  144.4312  141.1173  158.0229 C   0  0  0  0  0  0  0  0  0  0  0  0
  143.6334  140.9484  158.8446 N   0  0  0  0  0  0  0  0  0  0  0  0
  146.6976  140.6404  157.2373 C   0  0  0  0  0  0  0  0  0  0  0  0
  146.9201  139.9018  158.1978 O   0  0  0  0  0  0  0  0  0  0  0  0
  151.6527  143.4171  158.5297 C   0  0  0  0  0  0  0  0  0  0  0  0
  151.9932  145.8874  160.8865 H   0  0  0  0  0  0  0  0  0  0  0  0
  150.8195  145.8251  159.5701 H   0  0  0  0  0  0  0  0  0  0  0  0
  152.5274  146.1176  159.2172 H   0  0  0  0  0  0  0  0  0  0  0  0
  153.0169  143.8393  161.6369 H   0  0  0  0  0  0  0  0  0  0  0  0
  153.3859  141.4090  161.3772 H   0  0  0  0  0  0  0  0  0  0  0  0
  151.7720  139.2867  159.1556 H   0  0  0  0  0  0  0  0  0  0  0  0
  153.2374  139.3983  160.1337 H   0  0  0  0  0  0  0  0  0  0  0  0
  153.3306  139.6044  158.3828 H   0  0  0  0  0  0  0  0  0  0  0  0
  150.1515  142.7989  156.6004 H   0  0  0  0  0  0  0  0  0  0  0  0
  151.5367  142.4640  155.5607 H   0  0  0  0  0  0  0  0  0  0  0  0
  149.4482  141.5005  154.5904 H   0  0  0  0  0  0  0  0  0  0  0  0
  150.4547  139.1913  154.8713 H   0  0  0  0  0  0  0  0  0  0  0  0
  148.8987  139.1817  156.0329 H   0  0  0  0  0  0  0  0  0  0  0  0
  149.2897  140.2565  157.3274 H   0  0  0  0  0  0  0  0  0  0  0  0
  145.9613  144.2174  154.0433 H   0  0  0  0  0  0  0  0  0  0  0  0
  145.4041  142.8293  153.1061 H   0  0  0  0  0  0  0  0  0  0  0  0
  147.1217  143.2016  153.1969 H   0  0  0  0  0  0  0  0  0  0  0  0
  143.1527  142.6740  156.4363 H   0  0  0  0  0  0  0  0  0  0  0  0
  143.5087  142.6256  154.7173 H   0  0  0  0  0  0  0  0  0  0  0  0
  144.0869  143.9732  155.7069 H   0  0  0  0  0  0  0  0  0  0  0  0
  151.1774  144.0068  157.7607 H   0  0  0  0  0  0  0  0  0  0  0  0
  1  2  1  0  0  0  0
  1 25  1  0  0  0  0
  1 26  1  0  0  0  0
  1 27  1  0  0  0  0
  2 24  1  0  0  0  0
  2  3  2  0  0  0  0
  3  4  1  0  0  0  0
  3 28  1  0  0  0  0
  4  5  2  0  0  0  0
  4 29  1  0  0  0  0
  5  6  1  0  0  0  0
  5  7  1  0  0  0  0
  6 30  1  0  0  0  0
  6 31  1  0  0  0  0
  6 32  1  0  0  0  0
  7  8  1  0  0  0  0
  7 24  2  0  0  0  0
  8  9  1  0  0  0  0
  9 10  1  0  0  0  0
  9 33  1  0  0  0  0
  9 34  1  0  0  0  0
 10 11  1  0  0  0  0
 10 12  1  0  0  0  0
 10 35  1  0  0  0  0
 11 36  1  0  0  0  0
 12 13  1  0  0  0  0
 12 37  1  0  0  0  0
 12 38  1  0  0  0  0
 13 22  1  0  0  0  0
 13 14  1  0  0  0  0
 14 15  2  0  0  0  0
 15 16  1  0  0  0  0
 15 17  1  0  0  0  0
 16 39  1  0  0  0  0
 16 40  1  0  0  0  0
 16 41  1  0  0  0  0
 17 18  1  0  0  0  0
 17 19  2  0  0  0  0
 18 42  1  0  0  0  0
 18 43  1  0  0  0  0
 18 44  1  0  0  0  0
 19 20  1  0  0  0  0
 19 22  1  0  0  0  0
 20 21  3  0  0  0  0
 22 23  2  0  0  0  0
 24 45  1  0  0  0  0
M  END
> <s_m_source_file>
AV-unprocessed.smi

> <i_m_source_file_index>
444

> <i_lp_mmshare_version>
43012

> <i_f3d_flags>
0

> <s_epik_input>
W0NIM11jMVtjSF1bY0hdYyhbQ0gzXSljKFtjSF0xKU9bQ0gyXVtDQEhdKFtPSF0pW0NIMl1uMm5jKFtDSDNdKWMoW0NIM10pYyhDI04pYzI9Tw==

> <s_epik_cmdline>
J2VwaWtfcHl0aG9uJywgJy1waCcsICc3LjAnLCAnLXRuJywgJzgnLCAnLW1hJywgJzIwMCcsICctbWV0YWxfYmluZGluZycsICctaW1hZScsICc8aW5maWxlLm1hZT4nLCAnLW9tYWUnLCAnPG91dGZpbGUubWFlPic=

> <r_lp_tautomer_probability>
1

> <r_epik_Ionization_Penalty>
1.17331e-07

> <r_epik_Ionization_Penalty_Charging>
1.57223e-10

> <r_epik_Ionization_Penalty_Neutral>
1.17174e-07

> <r_epik_State_Penalty>
-0

> <r_epik_Charging_Adjusted_Penalty>
1.57223e-10

> <i_epik_Tot_Q>
0

> <i_epik_Tot_abs_Q>
0

> <r_epik_Metal_State_Penalty>
-0

> <b_epik_Metal_Only>
0

> <s_lp_Force_Field>
OPLS_2005

> <r_lp_Energy>
32.4142

> <b_lp_Chiralities_Consistent>
1

> <s_lp_Variant>
AV-unprocessed.smi:444-2

> <Gold.Version>
5.8.1

> <Gold.Id.Protein>
6NUR|6NUR_protein|mol2

> <Gold.PLP.Fitness>
45.6153

> <Gold.PLP.PLP>
-44.2613

> <Gold.PLP.part.hbond>
-2.0000

> <Gold.PLP.part.metal>
0.0000

> <Gold.PLP.part.buried>
-7.5661

> <Gold.PLP.part.nonpolar>
-34.9346

> <Gold.PLP.part.repulsive>
0.1340

> <Gold.PLP.ligand.clash>
0.0000

> <Gold.PLP.ligand.torsion>
0.8484

> <Gold.PLP.Chemscore.Hbond>
1.0000

> <Gold.PLP.Chemscore.CHOScore>
0.0000

> <Gold.PLP.Chemscore.Metal>
0.0000

> <Gold.Chemscore.Hbonds>
donor molecule, donor type, donor heavy atom, donor atom, acceptor molecule, acceptor atom, score
      P1  H  7989  7998       L1    11  1.00

> <Gold.PLP.Chemscore.Internal.Correction>
0.0507

> <Gold.Rescore>
     Score         DG    S(hbond)    S(metal)    S(lipo)     H(rot)  DE(clash)    DE(int)     intcor
     15.34     -16.59       0.91        0.00     119.18       2.29       0.35       0.89       ----

> <Gold.Chemscore.Fitness>
15.3431

> <Gold.Chemscore.DG>
-16.5886

> <Gold.Chemscore.ZeroCoef>
-5.4800

> <Gold.Chemscore.Hbond>
0.9067

> <Gold.Chemscore.Metal>
0.0000

> <Gold.Chemscore.Lipo>
119.1788

> <Gold.Chemscore.Internal_Hbond>
0.0000

> <Gold.Chemscore.DEClash>
0.3547

> <Gold.Chemscore.DEInternal>
0.8908

> <Gold.Chemscore.Rot>
2.2905

> <Gold.Chemscore.Internal.Correction>
   9.000000E+99

> <Gold.Chemscore.Hbonds>
donor molecule, donor type, donor heavy atom, donor atom, acceptor molecule, acceptor atom, score
      P1  H  7989  7998       L1    11  0.45

> <Gold.Chemscore.Hbond.Weighted>
-3.0283

> <Gold.Chemscore.Metal.Weighted>
-0.0000

> <Gold.Chemscore.Lipo.Weighted>
-13.9439

> <Gold.Chemscore.Internal_Hbond.Weighted>
0.0000

> <Gold.Chemscore.DEClash.Weighted>
0.3547

> <Gold.Chemscore.DEInternal.Weighted>
0.8908

> <Gold.Chemscore.Rot.Weighted>
5.8636

> <Gold.Chemscore.Internal.Correction.Weighted>
   9.000000E+99

> <Gold.Protein.RotatedTorsions>
[ 6907 6896 6895 6894 ] final -156.33 input  -60.11 | X-H torsion
[ 7974 7965 7964 7962 ] final  -93.46 input  175.53 | X-H torsion
[ 8008 7997 7996 7995 ] final  -37.04 input   59.86 | X-H torsion
[ 10167 10162 10161 10158 ] final   67.10 input  -65.29 | X-H torsion
[ 10718 10713 10712 10709 ] final -132.21 input   66.30 | X-H torsion
[ 10763 10752 10751 10750 ] final  -56.06 input  -60.55 | X-H torsion
[ 11005 11000 10999 10996 ] final  117.84 input  -57.11 | X-H torsion

> <Gold.Protein.ActiveResidues>
 VAL166  LYS551  ARG553  GLY616  TRP617  ASP618  TYR619  PRO620  LYS621  CYS622 
 ASP623  PHE694  ASN695  SER759  ASP760  ASP761  ALA762  ILE779  LEU786  VAL792 
 PHE793  MET794  SER795  GLU796  ALA797  LYS798  CYS799  TRP800  GLU811  SER814 

> <Gold.Protein.RotatedAtoms>
  151.2860  133.4187  159.2629 H   0  0  0  0  0  0  0  0  0  0  0  0  # atno 6907 bound_to 6896
  151.0319  134.9546  159.8126 H   0  0  0  0  0  0  0  0  0  0  0  0  # atno 6908 bound_to 6896
  152.5347  134.2820  159.9063 H   0  0  0  0  0  0  0  0  0  0  0  0  # atno 6909 bound_to 6896
  145.3863  140.9523  143.2365 H   0  0  0  0  0  0  0  0  0  0  0  0  # atno 7974 bound_to 7965
  154.4061  140.1615  156.2472 H   0  0  0  0  0  0  0  0  0  0  0  0  # atno 8008 bound_to 7997
  155.9150  140.3425  155.6106 H   0  0  0  0  0  0  0  0  0  0  0  0  # atno 8009 bound_to 7997
  155.7290  140.0778  157.2288 H   0  0  0  0  0  0  0  0  0  0  0  0  # atno 8010 bound_to 7997
  140.0932  144.4969  150.7085 H   0  0  0  0  0  0  0  0  0  0  0  0  # atno 10167 bound_to 10162
  156.2323  130.7045  151.0871 H   0  0  0  0  0  0  0  0  0  0  0  0  # atno 10718 bound_to 10713
  154.2006  135.6411  153.5086 H   0  0  0  0  0  0  0  0  0  0  0  0  # atno 10763 bound_to 10752
  153.0013  135.5450  154.6319 H   0  0  0  0  0  0  0  0  0  0  0  0  # atno 10764 bound_to 10752
  154.5731  135.2918  155.0780 H   0  0  0  0  0  0  0  0  0  0  0  0  # atno 10765 bound_to 10752
  139.9088  134.9614  156.7412 H   0  0  0  0  0  0  0  0  0  0  0  0  # atno 11005 bound_to 11000
  144.8472  139.5379  143.6873 LP  0  0  0  0  0  0  0  0  0  0  0  0  # atno 17320 bound_to 7965
  146.2819  139.6899  142.9223 LP  0  0  0  0  0  0  0  0  0  0  0  0  # atno 17321 bound_to 7965
  140.7017  143.2439  151.4844 LP  0  0  0  0  0  0  0  0  0  0  0  0  # atno 17342 bound_to 10162
  139.5713  144.1922  152.1840 LP  0  0  0  0  0  0  0  0  0  0  0  0  # atno 17343 bound_to 10162
  157.7138  131.0720  150.6402 LP  0  0  0  0  0  0  0  0  0  0  0  0  # atno 17370 bound_to 10713
  156.6470  130.4474  149.5732 LP  0  0  0  0  0  0  0  0  0  0  0  0  # atno 17371 bound_to 10713
  140.6848  133.9442  155.7931 LP  0  0  0  0  0  0  0  0  0  0  0  0  # atno 17394 bound_to 11000
  141.0484  134.0520  157.3814 LP  0  0  0  0  0  0  0  0  0  0  0  0  # atno 17395 bound_to 11000

$$$$
