AV-unprocessed.smi:1707|AV-procd|sdf|6888|dock1
  -GOLD-   22720 8 93D 1   1.00000     0.00000
 Structure written by MMmdl.
 40 41  0  0  0  0  0  0  0  0  2 V2000
  152.6080  136.8450  160.1923 O   0  0  0  0  0  0  0  0  0  0  0  0
  153.4071  137.3506  160.9804 C   0  0  0  0  0  0  0  0  0  0  0  0
  153.6661  138.6656  161.0178 N   0  0  0  0  0  0  0  0  0  0  0  0
  153.0513  139.6643  160.1512 C   0  0  0  0  0  0  0  0  0  0  0  0
  153.9590  140.8944  159.9761 C   0  0  0  0  0  0  0  0  0  0  0  0
  153.1792  142.1967  159.9063 C   0  0  0  0  0  0  0  0  0  0  0  0
  152.6212  142.6341  158.7607 C   0  0  0  0  0  0  0  0  0  0  0  0
  151.8417  143.9311  158.6318 C   0  0  0  0  0  0  0  0  0  0  0  0
  152.0414  144.8576  159.8428 C   0  0  0  0  0  0  0  0  0  0  0  0
  151.9784  144.0711  161.1581 C   0  0  0  0  0  0  0  0  0  0  0  0
  153.0616  142.9790  161.2100 C   0  0  0  0  0  0  0  0  0  0  0  0
  154.1426  136.6935  161.8957 N   0  0  0  0  0  0  0  0  0  0  0  0
  154.1741  135.3233  162.2086 C   0  0  0  0  0  0  0  0  0  0  0  0
  153.8786  134.7920  163.4276 C   0  0  0  0  0  0  0  0  0  0  0  0
  153.9432  133.3600  163.6916 C   0  0  0  0  0  0  0  0  0  0  0  0
  153.5276  132.7265  165.0075 C   0  0  0  0  0  0  0  0  0  0  0  0
  152.5273  131.8631  164.8302 F   0  0  0  0  0  0  0  0  0  0  0  0
  154.5564  132.0671  165.5381 F   0  0  0  0  0  0  0  0  0  0  0  0
  153.1333  133.6533  165.8807 F   0  0  0  0  0  0  0  0  0  0  0  0
  154.3199  132.6379  162.5760 C   0  0  0  0  0  0  0  0  0  0  0  0
  154.6533  133.0852  161.3458 N   0  5  0  0  0  0  0  0  0  0  0  0
  154.5912  134.4263  161.1106 C   0  0  0  0  0  0  0  0  0  0  0  0
  154.8756  134.9002  160.0100 O   0  0  0  0  0  0  0  0  0  0  0  0
  154.3368  138.9989  161.6947 H   0  0  0  0  0  0  0  0  0  0  0  0
  152.8097  139.2147  159.1868 H   0  0  0  0  0  0  0  0  0  0  0  0
  152.1042  139.9640  160.6005 H   0  0  0  0  0  0  0  0  0  0  0  0
  154.6697  140.9410  160.8027 H   0  0  0  0  0  0  0  0  0  0  0  0
  154.5539  140.8016  159.0667 H   0  0  0  0  0  0  0  0  0  0  0  0
  152.7074  142.0429  157.8607 H   0  0  0  0  0  0  0  0  0  0  0  0
  152.1439  144.4442  157.7187 H   0  0  0  0  0  0  0  0  0  0  0  0
  150.7868  143.6791  158.5197 H   0  0  0  0  0  0  0  0  0  0  0  0
  153.0115  145.3508  159.7680 H   0  0  0  0  0  0  0  0  0  0  0  0
  151.2911  145.6487  159.8355 H   0  0  0  0  0  0  0  0  0  0  0  0
  152.0885  144.7443  162.0087 H   0  0  0  0  0  0  0  0  0  0  0  0
  150.9937  143.6118  161.2539 H   0  0  0  0  0  0  0  0  0  0  0  0
  152.8469  142.2930  162.0300 H   0  0  0  0  0  0  0  0  0  0  0  0
  154.0294  143.4335  161.4239 H   0  0  0  0  0  0  0  0  0  0  0  0
  154.7942  137.2512  162.4282 H   0  0  0  0  0  0  0  0  0  0  0  0
  153.6003  135.4213  164.2559 H   0  0  0  0  0  0  0  0  0  0  0  0
  154.3541  131.5332  162.6877 H   0  0  0  0  0  0  0  0  0  0  0  0
  1  2  2  0  0  0  0
  2  3  1  0  0  0  0
  2 12  1  0  0  0  0
  3  4  1  0  0  0  0
  3 24  1  0  0  0  0
  4  5  1  0  0  0  0
  4 25  1  0  0  0  0
  4 26  1  0  0  0  0
  5  6  1  0  0  0  0
  5 27  1  0  0  0  0
  5 28  1  0  0  0  0
  6 11  1  0  0  0  0
  6  7  2  0  0  0  0
  7  8  1  0  0  0  0
  7 29  1  0  0  0  0
  8  9  1  0  0  0  0
  8 30  1  0  0  0  0
  8 31  1  0  0  0  0
  9 10  1  0  0  0  0
  9 32  1  0  0  0  0
  9 33  1  0  0  0  0
 10 11  1  0  0  0  0
 10 34  1  0  0  0  0
 10 35  1  0  0  0  0
 11 36  1  0  0  0  0
 11 37  1  0  0  0  0
 12 13  1  0  0  0  0
 12 38  1  0  0  0  0
 13 22  1  0  0  0  0
 13 14  2  0  0  0  0
 14 15  1  0  0  0  0
 14 39  1  0  0  0  0
 15 16  1  0  0  0  0
 15 20  2  0  0  0  0
 16 17  1  0  0  0  0
 16 18  1  0  0  0  0
 16 19  1  0  0  0  0
 20 21  1  0  0  0  0
 20 40  1  0  0  0  0
 21 22  1  0  0  0  0
 22 23  2  0  0  0  0
M  CHG  1  21  -1
M  END
> <s_m_source_file>
AV-unprocessed.smi

> <i_m_source_file_index>
1707

> <i_lp_mmshare_version>
43012

> <i_f3d_flags>
0

> <s_epik_input>
Tz1jMVtuSF1bY0hdYyhDKEYpKEYpRilbY0hdYzFbTkhdQyg9TylbTkhdW0NIMl1bQ0gyXUMyPVtDSF1bQ0gyXVtDSDJdW0NIMl1bQ0gyXTI=

> <s_epik_cmdline>
J2VwaWtfcHl0aG9uJywgJy1waCcsICc3LjAnLCAnLXRuJywgJzgnLCAnLW1hJywgJzIwMCcsICctbWV0YWxfYmluZGluZycsICctaW1hZScsICc8aW5maWxlLm1hZT4nLCAnLW9tYWUnLCAnPG91dGZpbGUubWFlPic=

> <r_lp_tautomer_probability>
1

> <r_epik_Ionization_Penalty>
3.1649

> <r_epik_Ionization_Penalty_Charging>
0.171543

> <r_epik_Ionization_Penalty_Neutral>
2.99336

> <r_epik_State_Penalty>
2.98952

> <r_epik_Charging_Adjusted_Penalty>
3.16106

> <i_epik_Tot_Q>
-1

> <i_epik_Tot_abs_Q>
1

> <r_epik_Metal_State_Penalty>
0.452963

> <b_epik_Metal_Only>
1

> <s_lp_Force_Field>
OPLS_2005

> <r_lp_Energy>
21.1574

> <b_lp_Chiralities_Consistent>
1

> <s_lp_Variant>
AV-unprocessed.smi:1707-2

> <Gold.Version>
5.8.1

> <Gold.Id.Protein>
6NUR|6NUR_protein|mol2

> <Gold.PLP.Fitness>
48.5187

> <Gold.PLP.PLP>
-48.1821

> <Gold.PLP.part.hbond>
-0.9550

> <Gold.PLP.part.metal>
0.0000

> <Gold.PLP.part.buried>
-5.2837

> <Gold.PLP.part.nonpolar>
-42.5927

> <Gold.PLP.part.repulsive>
0.0524

> <Gold.PLP.ligand.clash>
0.0000

> <Gold.PLP.ligand.torsion>
1.3618

> <Gold.PLP.Chemscore.Hbond>
0.9913

> <Gold.PLP.Chemscore.CHOScore>
0.0000

> <Gold.PLP.Chemscore.Metal>
0.0000

> <Gold.Chemscore.Hbonds>
donor molecule, donor type, donor heavy atom, donor atom, acceptor molecule, acceptor atom, score
      P1  H  6896  6909       L1     1  1.00

> <Gold.PLP.Chemscore.Internal.Correction>
0.0864

> <Gold.Rescore>
     Score         DG    S(hbond)    S(metal)    S(lipo)     H(rot)  DE(clash)    DE(int)     intcor
     16.77     -18.59       0.99        0.00     117.66       1.55       0.00       1.81       ----

> <Gold.Chemscore.Fitness>
16.7727

> <Gold.Chemscore.DG>
-18.5852

> <Gold.Chemscore.ZeroCoef>
-5.4800

> <Gold.Chemscore.Hbond>
0.9918

> <Gold.Chemscore.Metal>
0.0000

> <Gold.Chemscore.Lipo>
117.6640

> <Gold.Chemscore.Internal_Hbond>
0.0000

> <Gold.Chemscore.DEClash>
0.0028

> <Gold.Chemscore.DEInternal>
1.8097

> <Gold.Chemscore.Rot>
1.5523

> <Gold.Chemscore.Internal.Correction>
   9.000000E+99

> <Gold.Chemscore.Hbonds>
donor molecule, donor type, donor heavy atom, donor atom, acceptor molecule, acceptor atom, score
      P1  H  6896  6909       L1     1  1.00

> <Gold.Chemscore.Hbond.Weighted>
-3.3125

> <Gold.Chemscore.Metal.Weighted>
-0.0000

> <Gold.Chemscore.Lipo.Weighted>
-13.7667

> <Gold.Chemscore.Internal_Hbond.Weighted>
0.0000

> <Gold.Chemscore.DEClash.Weighted>
0.0028

> <Gold.Chemscore.DEInternal.Weighted>
1.8097

> <Gold.Chemscore.Rot.Weighted>
3.9740

> <Gold.Chemscore.Internal.Correction.Weighted>
   9.000000E+99

> <Gold.Protein.RotatedTorsions>
[ 6907 6896 6895 6894 ] final  150.20 input  -60.11 | X-H torsion
[ 7974 7965 7964 7962 ] final  106.10 input  175.53 | X-H torsion
[ 8008 7997 7996 7995 ] final  -22.88 input   59.86 | X-H torsion
[ 10167 10162 10161 10158 ] final  -91.07 input  -65.29 | X-H torsion
[ 10718 10713 10712 10709 ] final -161.62 input   66.30 | X-H torsion
[ 10763 10752 10751 10750 ] final -155.82 input  -60.55 | X-H torsion
[ 11005 11000 10999 10996 ] final -116.20 input  -57.11 | X-H torsion

> <Gold.Protein.ActiveResidues>
 VAL166  LYS551  ARG553  GLY616  TRP617  ASP618  TYR619  PRO620  LYS621  CYS622 
 ASP623  PHE694  ASN695  SER759  ASP760  ASP761  ALA762  ILE779  LEU786  VAL792 
 PHE793  MET794  SER795  GLU796  ALA797  LYS798  CYS799  TRP800  GLU811  SER814 

> <Gold.Protein.RotatedAtoms>
  152.1176  133.4335  159.4660 H   0  0  0  0  0  0  0  0  0  0  0  0  # atno 6907 bound_to 6896
  150.6870  134.2573  159.4544 H   0  0  0  0  0  0  0  0  0  0  0  0  # atno 6908 bound_to 6896
  152.0447  134.9690  160.0625 H   0  0  0  0  0  0  0  0  0  0  0  0  # atno 6909 bound_to 6896
  145.3111  139.2540  143.3762 H   0  0  0  0  0  0  0  0  0  0  0  0  # atno 7974 bound_to 7965
  154.4618  140.1996  156.0225 H   0  0  0  0  0  0  0  0  0  0  0  0  # atno 8008 bound_to 7997
  156.0853  140.3266  155.7717 H   0  0  0  0  0  0  0  0  0  0  0  0  # atno 8009 bound_to 7997
  155.5045  140.0556  157.2924 H   0  0  0  0  0  0  0  0  0  0  0  0  # atno 8010 bound_to 7997
  140.3486  143.2903  151.9752 H   0  0  0  0  0  0  0  0  0  0  0  0  # atno 10167 bound_to 10162
  156.5989  130.8802  151.2909 H   0  0  0  0  0  0  0  0  0  0  0  0  # atno 10718 bound_to 10713
  154.7759  135.3159  154.8093 H   0  0  0  0  0  0  0  0  0  0  0  0  # atno 10763 bound_to 10752
  153.8817  135.6834  153.4771 H   0  0  0  0  0  0  0  0  0  0  0  0  # atno 10764 bound_to 10752
  153.1382  135.4750  154.9391 H   0  0  0  0  0  0  0  0  0  0  0  0  # atno 10765 bound_to 10752
  141.0438  133.9795  157.2952 H   0  0  0  0  0  0  0  0  0  0  0  0  # atno 11005 bound_to 11000
  146.3117  140.3647  142.8668 LP  0  0  0  0  0  0  0  0  0  0  0  0  # atno 17320 bound_to 7965
  144.9015  140.7648  143.5864 LP  0  0  0  0  0  0  0  0  0  0  0  0  # atno 17321 bound_to 7965
  139.4829  144.6095  151.7459 LP  0  0  0  0  0  0  0  0  0  0  0  0  # atno 17342 bound_to 10162
  140.5241  144.0834  150.6032 LP  0  0  0  0  0  0  0  0  0  0  0  0  # atno 17343 bound_to 10162
  157.7285  130.9657  150.1744 LP  0  0  0  0  0  0  0  0  0  0  0  0  # atno 17370 bound_to 10713
  156.2486  130.3698  149.8257 LP  0  0  0  0  0  0  0  0  0  0  0  0  # atno 17371 bound_to 10713
  139.9296  135.0200  156.8353 LP  0  0  0  0  0  0  0  0  0  0  0  0  # atno 17394 bound_to 11000
  140.6185  134.0016  155.7608 LP  0  0  0  0  0  0  0  0  0  0  0  0  # atno 17395 bound_to 11000

$$$$
