AV-unprocessed.smi:3149|AV-procd|sdf|12003|dock8
  -GOLD-   2272017413D 1   1.00000     0.00000
 Structure written by MMmdl.
 37 38  0  0  0  0  0  0  0  0  1 V2000
  150.8686  139.2492  154.6494 C   0  0  0  0  0  0  0  0  0  0  0  0
  150.7462  140.3974  155.6702 C   0  0  2  0  0  0  0  0  0  0  0  0
  151.7545  140.1957  156.7088 N   0  0  0  0  0  0  0  0  0  0  0  0
  151.7722  141.2886  157.6905 C   0  0  0  0  0  0  0  0  0  0  0  0
  152.8907  141.1258  158.7275 C   0  0  0  0  0  0  0  0  0  0  0  0
  153.5515  140.0880  158.7920 O   0  0  0  0  0  0  0  0  0  0  0  0
  153.0583  142.1607  159.6505 N   0  0  0  0  0  0  0  0  0  0  0  0
  151.9212  142.8945  160.1853 C   0  0  0  0  0  0  0  0  0  0  0  0
  152.7739  143.0809  161.4447 C   0  0  0  0  0  0  0  0  0  0  0  0
  153.6424  141.9151  160.9602 C   0  0  0  0  0  0  0  0  0  0  0  0
  149.3488  140.4637  156.3436 C   0  0  2  0  0  0  0  0  0  0  0  0
  148.9709  139.1702  157.0877 C   0  0  0  0  0  0  0  0  0  0  0  0
  148.3072  140.7793  155.3708 N   0  0  0  0  0  0  0  0  0  0  0  0
  148.1935  141.8878  154.5550 C   0  0  0  0  0  0  0  0  0  0  0  0
  147.0530  141.7391  153.8195 C   0  0  0  0  0  0  0  0  0  0  0  0
  146.5303  140.4902  154.2565 C   0  0  0  0  0  0  0  0  0  0  0  0
  147.2831  139.9183  155.1818 N   0  0  0  0  0  0  0  0  0  0  0  0
  150.1889  139.3874  153.8092 H   0  0  0  0  0  0  0  0  0  0  0  0
  150.6400  138.2863  155.1075 H   0  0  0  0  0  0  0  0  0  0  0  0
  151.8717  139.1836  154.2285 H   0  0  0  0  0  0  0  0  0  0  0  0
  150.9231  141.3463  155.1608 H   0  0  0  0  0  0  0  0  0  0  0  0
  151.5752  139.3120  157.1655 H   0  0  0  0  0  0  0  0  0  0  0  0
  151.8978  142.2440  157.1802 H   0  0  0  0  0  0  0  0  0  0  0  0
  150.8171  141.3189  158.2166 H   0  0  0  0  0  0  0  0  0  0  0  0
  151.6932  143.8164  159.6493 H   0  0  0  0  0  0  0  0  0  0  0  0
  151.0391  142.2734  160.3543 H   0  0  0  0  0  0  0  0  0  0  0  0
  153.3048  144.0344  161.4702 H   0  0  0  0  0  0  0  0  0  0  0  0
  152.2439  142.8871  162.3777 H   0  0  0  0  0  0  0  0  0  0  0  0
  153.3569  140.9552  161.3955 H   0  0  0  0  0  0  0  0  0  0  0  0
  154.7165  142.0971  161.0078 H   0  0  0  0  0  0  0  0  0  0  0  0
  149.3665  141.2676  157.0827 H   0  0  0  0  0  0  0  0  0  0  0  0
  149.6341  138.9822  157.9313 H   0  0  0  0  0  0  0  0  0  0  0  0
  149.0129  138.3032  156.4278 H   0  0  0  0  0  0  0  0  0  0  0  0
  147.9585  139.2330  157.4881 H   0  0  0  0  0  0  0  0  0  0  0  0
  148.9246  142.6827  154.5677 H   0  0  0  0  0  0  0  0  0  0  0  0
  146.6532  142.4185  153.0814 H   0  0  0  0  0  0  0  0  0  0  0  0
  145.6330  139.9852  153.9305 H   0  0  0  0  0  0  0  0  0  0  0  0
  1  2  1  0  0  0  0
  1 18  1  0  0  0  0
  1 19  1  0  0  0  0
  1 20  1  0  0  0  0
  2  3  1  0  0  0  0
  2 11  1  0  0  0  0
  2 21  1  0  0  0  0
  3  4  1  0  0  0  0
  3 22  1  0  0  0  0
  4  5  1  0  0  0  0
  4 23  1  0  0  0  0
  4 24  1  0  0  0  0
  5  6  2  0  0  0  0
  5  7  1  0  0  0  0
  7 10  1  0  0  0  0
  7  8  1  0  0  0  0
  8  9  1  0  0  0  0
  8 25  1  0  0  0  0
  8 26  1  0  0  0  0
  9 10  1  0  0  0  0
  9 27  1  0  0  0  0
  9 28  1  0  0  0  0
 10 29  1  0  0  0  0
 10 30  1  0  0  0  0
 11 12  1  0  0  0  0
 11 13  1  0  0  0  0
 11 31  1  0  0  0  0
 12 32  1  0  0  0  0
 12 33  1  0  0  0  0
 12 34  1  0  0  0  0
 13 17  1  0  0  0  0
 13 14  1  0  0  0  0
 14 15  2  0  0  0  0
 14 35  1  0  0  0  0
 15 16  1  0  0  0  0
 15 36  1  0  0  0  0
 16 17  2  0  0  0  0
 16 37  1  0  0  0  0
M  END
> <s_m_source_file>
AV-unprocessed.smi

> <i_m_source_file_index>
3149

> <i_lp_mmshare_version>
43012

> <i_f3d_flags>
0

> <s_epik_input>
bjFbY0hdW2NIXVtjSF1uMVtDQEBIXShbQ0gzXSlbQ0BIXShbQ0gzXSlbTkhdW0NIMl1DKD1PKU4yW0NIMl1bQ0gyXVtDSDJdMg==

> <s_epik_cmdline>
J2VwaWtfcHl0aG9uJywgJy1waCcsICc3LjAnLCAnLXRuJywgJzgnLCAnLW1hJywgJzIwMCcsICctbWV0YWxfYmluZGluZycsICctaW1hZScsICc8aW5maWxlLm1hZT4nLCAnLW9tYWUnLCAnPG91dGZpbGUubWFlPic=

> <r_lp_tautomer_probability>
1

> <r_epik_Ionization_Penalty>
0.918674

> <r_epik_Ionization_Penalty_Charging>
0

> <r_epik_Ionization_Penalty_Neutral>
0.918674

> <r_epik_State_Penalty>
0.958258

> <r_epik_Charging_Adjusted_Penalty>
0.958258

> <i_epik_Tot_Q>
0

> <i_epik_Tot_abs_Q>
0

> <r_epik_Metal_State_Penalty>
0.956881

> <b_epik_Metal_Only>
0

> <s_lp_Force_Field>
OPLS_2005

> <r_lp_Energy>
24.7968

> <b_lp_Chiralities_Consistent>
1

> <s_lp_Variant>
AV-unprocessed.smi:3149-5

> <Gold.Version>
5.8.1

> <Gold.Id.Protein>
6NUR|6NUR_protein|mol2

> <Gold.PLP.Fitness>
42.1318

> <Gold.PLP.PLP>
-33.3517

> <Gold.PLP.part.hbond>
-1.0000

> <Gold.PLP.part.metal>
0.0000

> <Gold.PLP.part.buried>
-3.8426

> <Gold.PLP.part.nonpolar>
-28.6586

> <Gold.PLP.part.repulsive>
0.0344

> <Gold.PLP.ligand.clash>
0.0000

> <Gold.PLP.ligand.torsion>
0.5082

> <Gold.PLP.Chemscore.Hbond>
0.9833

> <Gold.PLP.Chemscore.CHOScore>
1.9856

> <Gold.PLP.Chemscore.Metal>
0.0000

> <Gold.Chemscore.Hbonds>
donor molecule, donor type, donor heavy atom, donor atom, acceptor molecule, acceptor atom, score
      P1  H  7997  8009       L1     6  0.99
      L1  C    14    35       P1  8028  1.00
      L1  C    16    37       P1 10175  1.00

> <Gold.PLP.Chemscore.Internal.Correction>
0.8897

> <Gold.Rescore>
     Score         DG    S(hbond)    S(metal)    S(lipo)     H(rot)  DE(clash)    DE(int)     intcor
     12.21     -12.78       0.84        0.00      77.64       1.79       0.08       0.49       ----

> <Gold.Chemscore.Fitness>
12.2146

> <Gold.Chemscore.DG>
-12.7823

> <Gold.Chemscore.ZeroCoef>
-5.4800

> <Gold.Chemscore.Hbond>
0.8365

> <Gold.Chemscore.Metal>
0.0000

> <Gold.Chemscore.Lipo>
77.6427

> <Gold.Chemscore.Internal_Hbond>
0.0000

> <Gold.Chemscore.DEClash>
0.0823

> <Gold.Chemscore.DEInternal>
0.4854

> <Gold.Chemscore.Rot>
1.7874

> <Gold.Chemscore.Internal.Correction>
   9.000000E+99

> <Gold.Chemscore.Hbonds>
donor molecule, donor type, donor heavy atom, donor atom, acceptor molecule, acceptor atom, score
      P1  H  7997  8009       L1     6  0.58

> <Gold.Chemscore.Hbond.Weighted>
-2.7939

> <Gold.Chemscore.Metal.Weighted>
-0.0000

> <Gold.Chemscore.Lipo.Weighted>
-9.0842

> <Gold.Chemscore.Internal_Hbond.Weighted>
0.0000

> <Gold.Chemscore.DEClash.Weighted>
0.0823

> <Gold.Chemscore.DEInternal.Weighted>
0.4854

> <Gold.Chemscore.Rot.Weighted>
4.5758

> <Gold.Chemscore.Internal.Correction.Weighted>
   9.000000E+99

> <Gold.Protein.RotatedTorsions>
[ 6907 6896 6895 6894 ] final   40.66 input  -60.11 | X-H torsion
[ 7974 7965 7964 7962 ] final  -42.42 input  175.53 | X-H torsion
[ 8008 7997 7996 7995 ] final  138.11 input   59.86 | X-H torsion
[ 10167 10162 10161 10158 ] final  -11.01 input  -65.29 | X-H torsion
[ 10718 10713 10712 10709 ] final   82.35 input   66.30 | X-H torsion
[ 10763 10752 10751 10750 ] final  177.87 input  -60.55 | X-H torsion
[ 11005 11000 10999 10996 ] final  -80.74 input  -57.11 | X-H torsion

> <Gold.Protein.ActiveResidues>
 VAL166  LYS551  ARG553  GLY616  TRP617  ASP618  TYR619  PRO620  LYS621  CYS622 
 ASP623  PHE694  ASN695  SER759  ASP760  ASP761  ALA762  ILE779  LEU786  VAL792 
 PHE793  MET794  SER795  GLU796  ALA797  LYS798  CYS799  TRP800  GLU811  SER814 

> <Gold.Protein.RotatedAtoms>
  152.1853  134.8719  160.0522 H   0  0  0  0  0  0  0  0  0  0  0  0  # atno 6907 bound_to 6896
  151.9628  133.3695  159.4050 H   0  0  0  0  0  0  0  0  0  0  0  0  # atno 6908 bound_to 6896
  150.6925  134.4146  159.5221 H   0  0  0  0  0  0  0  0  0  0  0  0  # atno 6909 bound_to 6896
  146.0117  140.6956  142.9221 H   0  0  0  0  0  0  0  0  0  0  0  0  # atno 7974 bound_to 7965
  156.2999  140.2402  156.4020 H   0  0  0  0  0  0  0  0  0  0  0  0  # atno 8008 bound_to 7997
  154.8519  140.0423  157.1629 H   0  0  0  0  0  0  0  0  0  0  0  0  # atno 8009 bound_to 7997
  154.8990  140.2974  155.5332 H   0  0  0  0  0  0  0  0  0  0  0  0  # atno 8010 bound_to 7997
  140.7128  143.5685  150.9118 H   0  0  0  0  0  0  0  0  0  0  0  0  # atno 10167 bound_to 10162
  157.6855  131.0044  150.2362 H   0  0  0  0  0  0  0  0  0  0  0  0  # atno 10718 bound_to 10713
  154.5002  135.2783  155.1427 H   0  0  0  0  0  0  0  0  0  0  0  0  # atno 10763 bound_to 10752
  154.3063  135.6238  153.5450 H   0  0  0  0  0  0  0  0  0  0  0  0  # atno 10764 bound_to 10752
  152.9901  135.5709  154.5443 H   0  0  0  0  0  0  0  0  0  0  0  0  # atno 10765 bound_to 10752
  141.1667  133.7164  156.8318 H   0  0  0  0  0  0  0  0  0  0  0  0  # atno 11005 bound_to 11000
  144.6955  140.3411  143.7199 LP  0  0  0  0  0  0  0  0  0  0  0  0  # atno 17320 bound_to 7965
  145.7331  139.1742  143.2419 LP  0  0  0  0  0  0  0  0  0  0  0  0  # atno 17321 bound_to 7965
  139.9411  143.6381  152.3053 LP  0  0  0  0  0  0  0  0  0  0  0  0  # atno 17342 bound_to 10162
  139.6866  144.7651  151.1513 LP  0  0  0  0  0  0  0  0  0  0  0  0  # atno 17343 bound_to 10162
  156.2985  130.3755  149.7773 LP  0  0  0  0  0  0  0  0  0  0  0  0  # atno 17370 bound_to 10713
  156.5410  130.8300  151.3269 LP  0  0  0  0  0  0  0  0  0  0  0  0  # atno 17371 bound_to 10713
  140.2045  134.8872  157.3206 LP  0  0  0  0  0  0  0  0  0  0  0  0  # atno 17394 bound_to 11000
  140.2152  134.4090  155.7593 LP  0  0  0  0  0  0  0  0  0  0  0  0  # atno 17395 bound_to 11000

$$$$
