AV-unprocessed.smi:1570|AV-procd|sdf|6317|dock4
  -GOLD-   22720 6523D 1   1.00000     0.00000
 Structure written by MMmdl.
 51 53  0  0  0  0  0  0  0  0  1 V2000
  154.3573  140.1917  161.4488 C   0  0  0  0  0  0  0  0  0  0  0  0
  154.5561  141.2277  160.3355 C   0  0  0  0  0  0  0  0  0  0  0  0
  153.3623  141.3425  159.5016 N   0  0  0  0  0  0  0  0  0  0  0  0
  152.8225  140.3723  158.7269 C   0  0  0  0  0  0  0  0  0  0  0  0
  153.2437  139.2215  158.6094 O   0  0  0  0  0  0  0  0  0  0  0  0
  151.7408  140.8895  158.0983 N   0  0  0  0  0  0  0  0  0  0  0  0
  150.8640  140.1916  157.1605 C   0  0  0  0  0  0  0  0  0  0  0  0
  150.8641  140.8570  155.7674 C   0  0  1  0  0  0  0  0  0  0  0  0
  151.9322  140.3638  154.9841 O   0  0  0  0  0  0  0  0  0  0  0  0
  149.5385  140.6740  154.9931 C   0  0  0  0  0  0  0  0  0  0  0  0
  148.3607  141.3561  155.5374 N   0  0  0  0  0  0  0  0  0  0  0  0
  147.5587  140.5029  156.4115 C   0  0  0  0  0  0  0  0  0  0  0  0
  146.3129  141.2226  156.9658 C   0  0  1  0  0  0  0  0  0  0  0  0
  146.6445  142.2497  158.0619 C   0  0  0  0  0  0  0  0  0  0  0  0
  145.5607  141.8067  155.9011 O   0  0  0  0  0  0  0  0  0  0  0  0
  146.3050  142.6478  155.0215 C   0  0  2  0  0  0  0  0  0  0  0  0
  145.3672  143.1238  153.9073 C   0  0  0  0  0  0  0  0  0  0  0  0
  147.5111  141.8673  154.4699 C   0  0  0  0  0  0  0  0  0  0  0  0
  151.5859  142.2304  158.4781 C   0  0  0  0  0  0  0  0  0  0  0  0
  150.6296  143.1931  158.1101 C   0  0  0  0  0  0  0  0  0  0  0  0
  150.7576  144.4820  158.6783 C   0  0  0  0  0  0  0  0  0  0  0  0
  151.8123  144.7773  159.5809 C   0  0  0  0  0  0  0  0  0  0  0  0
  152.7600  143.7889  159.9363 C   0  0  0  0  0  0  0  0  0  0  0  0
  152.6082  142.5160  159.3590 C   0  0  0  0  0  0  0  0  0  0  0  0
  155.2523  140.1084  162.0653 H   0  0  0  0  0  0  0  0  0  0  0  0
  154.1454  139.2051  161.0359 H   0  0  0  0  0  0  0  0  0  0  0  0
  153.5286  140.4676  162.1015 H   0  0  0  0  0  0  0  0  0  0  0  0
  154.7995  142.1976  160.7718 H   0  0  0  0  0  0  0  0  0  0  0  0
  155.4102  140.9525  159.7167 H   0  0  0  0  0  0  0  0  0  0  0  0
  151.1304  139.1362  157.0957 H   0  0  0  0  0  0  0  0  0  0  0  0
  149.8531  140.2131  157.5714 H   0  0  0  0  0  0  0  0  0  0  0  0
  151.0286  141.9298  155.8762 H   0  0  0  0  0  0  0  0  0  0  0  0
  152.6625  140.1829  155.5558 H   0  0  0  0  0  0  0  0  0  0  0  0
  149.7176  141.0715  153.9929 H   0  0  0  0  0  0  0  0  0  0  0  0
  149.3290  139.6132  154.8464 H   0  0  0  0  0  0  0  0  0  0  0  0
  147.2398  139.6177  155.8588 H   0  0  0  0  0  0  0  0  0  0  0  0
  148.1539  140.1445  157.2499 H   0  0  0  0  0  0  0  0  0  0  0  0
  145.6669  140.4711  157.4206 H   0  0  0  0  0  0  0  0  0  0  0  0
  147.1203  141.7652  158.9148 H   0  0  0  0  0  0  0  0  0  0  0  0
  145.7394  142.7389  158.4222 H   0  0  0  0  0  0  0  0  0  0  0  0
  147.3251  143.0234  157.7073 H   0  0  0  0  0  0  0  0  0  0  0  0
  146.6573  143.5226  155.5692 H   0  0  0  0  0  0  0  0  0  0  0  0
  145.8894  143.7783  153.2091 H   0  0  0  0  0  0  0  0  0  0  0  0
  144.5256  143.6814  154.3184 H   0  0  0  0  0  0  0  0  0  0  0  0
  144.9655  142.2825  153.3419 H   0  0  0  0  0  0  0  0  0  0  0  0
  148.0914  142.5227  153.8190 H   0  0  0  0  0  0  0  0  0  0  0  0
  147.1616  141.0413  153.8483 H   0  0  0  0  0  0  0  0  0  0  0  0
  149.8280  142.9637  157.4238 H   0  0  0  0  0  0  0  0  0  0  0  0
  150.0441  145.2509  158.4214 H   0  0  0  0  0  0  0  0  0  0  0  0
  151.8926  145.7685  160.0024 H   0  0  0  0  0  0  0  0  0  0  0  0
  153.5648  144.0080  160.6221 H   0  0  0  0  0  0  0  0  0  0  0  0
  1  2  1  0  0  0  0
  1 25  1  0  0  0  0
  1 26  1  0  0  0  0
  1 27  1  0  0  0  0
  2  3  1  0  0  0  0
  2 28  1  0  0  0  0
  2 29  1  0  0  0  0
  3 24  1  0  0  0  0
  3  4  1  0  0  0  0
  4  5  2  0  0  0  0
  4  6  1  0  0  0  0
  6  7  1  0  0  0  0
  6 19  1  0  0  0  0
  7  8  1  0  0  0  0
  7 30  1  0  0  0  0
  7 31  1  0  0  0  0
  8  9  1  0  0  0  0
  8 10  1  0  0  0  0
  8 32  1  0  0  0  0
  9 33  1  0  0  0  0
 10 11  1  0  0  0  0
 10 34  1  0  0  0  0
 10 35  1  0  0  0  0
 11 18  1  0  0  0  0
 11 12  1  0  0  0  0
 12 13  1  0  0  0  0
 12 36  1  0  0  0  0
 12 37  1  0  0  0  0
 13 14  1  0  0  0  0
 13 15  1  0  0  0  0
 13 38  1  0  0  0  0
 14 39  1  0  0  0  0
 14 40  1  0  0  0  0
 14 41  1  0  0  0  0
 15 16  1  0  0  0  0
 16 17  1  0  0  0  0
 16 18  1  0  0  0  0
 16 42  1  0  0  0  0
 17 43  1  0  0  0  0
 17 44  1  0  0  0  0
 17 45  1  0  0  0  0
 18 46  1  0  0  0  0
 18 47  1  0  0  0  0
 19 24  2  0  0  0  0
 19 20  1  0  0  0  0
 20 21  2  0  0  0  0
 20 48  1  0  0  0  0
 21 22  1  0  0  0  0
 21 49  1  0  0  0  0
 22 23  2  0  0  0  0
 22 50  1  0  0  0  0
 23 24  1  0  0  0  0
 23 51  1  0  0  0  0
M  END
> <s_m_source_file>
AV-unprocessed.smi

> <i_m_source_file_index>
1570

> <i_lp_mmshare_version>
43012

> <i_f3d_flags>
0

> <s_epik_input>
W2NIXTFbY0hdW2NIXVtjSF1jKGMxMiluKFtDSDJdW0NIM10pYyg9TyluMltDSDJdW0NASF0oW09IXSlbQ0gyXU4zW0NIMl1bQ0BASF0oW0NIM10pT1tDQEBIXShbQ0gzXSlbQ0gyXTM=

> <s_epik_cmdline>
J2VwaWtfcHl0aG9uJywgJy1waCcsICc3LjAnLCAnLXRuJywgJzgnLCAnLW1hJywgJzIwMCcsICctbWV0YWxfYmluZGluZycsICctaW1hZScsICc8aW5maWxlLm1hZT4nLCAnLW9tYWUnLCAnPG91dGZpbGUubWFlPic=

> <r_epik_Ionization_Penalty>
0.214359

> <r_epik_Ionization_Penalty_Charging>
2.30976e-09

> <r_epik_Ionization_Penalty_Neutral>
0.214359

> <r_epik_State_Penalty>
0.204533

> <r_epik_Charging_Adjusted_Penalty>
0.204533

> <i_epik_Tot_Q>
0

> <i_epik_Tot_abs_Q>
0

> <r_epik_Metal_State_Penalty>
0.204533

> <b_epik_Metal_Only>
0

> <s_lp_Force_Field>
OPLS_2005

> <r_lp_Energy>
65.1855

> <b_lp_Chiralities_Consistent>
1

> <s_lp_Variant>
AV-unprocessed.smi:1570-6

> <Gold.Version>
5.8.1

> <Gold.Id.Protein>
6NUR|6NUR_protein|mol2

> <Gold.PLP.Fitness>
51.6542

> <Gold.PLP.PLP>
-50.5529

> <Gold.PLP.part.hbond>
-1.0000

> <Gold.PLP.part.metal>
0.0000

> <Gold.PLP.part.buried>
-6.4778

> <Gold.PLP.part.nonpolar>
-44.4126

> <Gold.PLP.part.repulsive>
0.2284

> <Gold.PLP.ligand.clash>
0.0000

> <Gold.PLP.ligand.torsion>
0.8694

> <Gold.PLP.Chemscore.Hbond>
0.9280

> <Gold.PLP.Chemscore.CHOScore>
0.0000

> <Gold.PLP.Chemscore.Metal>
0.0000

> <Gold.Chemscore.Hbonds>
donor molecule, donor type, donor heavy atom, donor atom, acceptor molecule, acceptor atom, score
      P1  H  7989  7998       L1     9  0.75
      P1  H  7997  8010       L1     5  0.19

> <Gold.PLP.Chemscore.Internal.Correction>
0.0559

> <Gold.Rescore>
     Score         DG    S(hbond)    S(metal)    S(lipo)     H(rot)  DE(clash)    DE(int)     intcor
     16.63     -17.30       0.86        0.00     121.36       2.06       0.04       0.63       ----

> <Gold.Chemscore.Fitness>
16.6316

> <Gold.Chemscore.DG>
-17.2955

> <Gold.Chemscore.ZeroCoef>
-5.4800

> <Gold.Chemscore.Hbond>
0.8634

> <Gold.Chemscore.Metal>
0.0000

> <Gold.Chemscore.Lipo>
121.3552

> <Gold.Chemscore.Internal_Hbond>
0.0000

> <Gold.Chemscore.DEClash>
0.0379

> <Gold.Chemscore.DEInternal>
0.6259

> <Gold.Chemscore.Rot>
2.0574

> <Gold.Chemscore.Internal.Correction>
   9.000000E+99

> <Gold.Chemscore.Hbonds>
donor molecule, donor type, donor heavy atom, donor atom, acceptor molecule, acceptor atom, score
      P1  H  7989  7998       L1     9  0.41
      P1  H  7997  8010       L1     5  0.01

> <Gold.Chemscore.Hbond.Weighted>
-2.8838

> <Gold.Chemscore.Metal.Weighted>
-0.0000

> <Gold.Chemscore.Lipo.Weighted>
-14.1986

> <Gold.Chemscore.Internal_Hbond.Weighted>
0.0000

> <Gold.Chemscore.DEClash.Weighted>
0.0379

> <Gold.Chemscore.DEInternal.Weighted>
0.6259

> <Gold.Chemscore.Rot.Weighted>
5.2669

> <Gold.Chemscore.Internal.Correction.Weighted>
   9.000000E+99

> <Gold.Protein.RotatedTorsions>
[ 6907 6896 6895 6894 ] final  143.61 input  -60.11 | X-H torsion
[ 7974 7965 7964 7962 ] final  117.33 input  175.53 | X-H torsion
[ 8008 7997 7996 7995 ] final   19.65 input   59.86 | X-H torsion
[ 10167 10162 10161 10158 ] final   47.48 input  -65.29 | X-H torsion
[ 10718 10713 10712 10709 ] final  -78.77 input   66.30 | X-H torsion
[ 10763 10752 10751 10750 ] final -126.30 input  -60.55 | X-H torsion
[ 11005 11000 10999 10996 ] final  -78.61 input  -57.11 | X-H torsion

> <Gold.Protein.ActiveResidues>
 VAL166  LYS551  ARG553  GLY616  TRP617  ASP618  TYR619  PRO620  LYS621  CYS622 
 ASP623  PHE694  ASN695  SER759  ASP760  ASP761  ALA762  ILE779  LEU786  VAL792 
 PHE793  MET794  SER795  GLU796  ALA797  LYS798  CYS799  TRP800  GLU811  SER814 

> <Gold.Protein.RotatedAtoms>
  152.2042  133.4863  159.5074 H   0  0  0  0  0  0  0  0  0  0  0  0  # atno 6907 bound_to 6896
  150.6976  134.1551  159.4164 H   0  0  0  0  0  0  0  0  0  0  0  0  # atno 6908 bound_to 6896
  151.9470  135.0187  160.0590 H   0  0  0  0  0  0  0  0  0  0  0  0  # atno 6909 bound_to 6896
  145.1687  139.3114  143.4479 H   0  0  0  0  0  0  0  0  0  0  0  0  # atno 7974 bound_to 7965
  154.9240  140.3031  155.5202 H   0  0  0  0  0  0  0  0  0  0  0  0  # atno 8008 bound_to 7997
  156.3008  140.2366  156.4229 H   0  0  0  0  0  0  0  0  0  0  0  0  # atno 8009 bound_to 7997
  154.8303  140.0419  157.1461 H   0  0  0  0  0  0  0  0  0  0  0  0  # atno 8010 bound_to 7997
  140.3031  144.2910  150.6215 H   0  0  0  0  0  0  0  0  0  0  0  0  # atno 10167 bound_to 10162
  156.0109  130.4527  150.3547 H   0  0  0  0  0  0  0  0  0  0  0  0  # atno 10718 bound_to 10713
  154.8744  135.4000  154.3409 H   0  0  0  0  0  0  0  0  0  0  0  0  # atno 10763 bound_to 10752
  153.4208  135.7023  153.6300 H   0  0  0  0  0  0  0  0  0  0  0  0  # atno 10764 bound_to 10752
  153.4963  135.3737  155.2487 H   0  0  0  0  0  0  0  0  0  0  0  0  # atno 10765 bound_to 10752
  141.1665  133.7070  156.7998 H   0  0  0  0  0  0  0  0  0  0  0  0  # atno 11005 bound_to 11000
  146.3472  140.1824  142.8589 LP  0  0  0  0  0  0  0  0  0  0  0  0  # atno 17320 bound_to 7965
  145.0256  140.8829  143.5140 LP  0  0  0  0  0  0  0  0  0  0  0  0  # atno 17321 bound_to 7965
  140.5633  143.2189  151.7727 LP  0  0  0  0  0  0  0  0  0  0  0  0  # atno 17342 bound_to 10162
  139.4910  144.4318  151.9863 LP  0  0  0  0  0  0  0  0  0  0  0  0  # atno 17343 bound_to 10162
  157.1638  131.0352  151.2828 LP  0  0  0  0  0  0  0  0  0  0  0  0  # atno 17370 bound_to 10713
  157.4288  130.7479  149.6973 LP  0  0  0  0  0  0  0  0  0  0  0  0  # atno 17371 bound_to 10713
  140.2265  134.8718  157.3431 LP  0  0  0  0  0  0  0  0  0  0  0  0  # atno 17394 bound_to 11000
  140.1935  134.4343  155.7702 LP  0  0  0  0  0  0  0  0  0  0  0  0  # atno 17395 bound_to 11000

$$$$
