AV-unprocessed.smi:2855|AV-procd|sdf|10979|dock9
  -GOLD-   2272015433D 1   1.00000     0.00000
 Structure written by MMmdl.
 47 48  0  0  0  0  0  0  0  0  1 V2000
  152.3811  144.5162  158.0052 C   0  0  0  0  0  0  0  0  0  0  0  0
  151.5215  143.9071  159.1273 C   0  0  2  0  0  0  0  0  0  0  0  0
  152.2040  143.9815  160.5054 C   0  0  0  0  0  0  0  0  0  0  0  0
  153.3627  142.9797  160.6422 C   0  0  0  0  0  0  0  0  0  0  0  0
  152.9108  141.5276  160.3578 C   0  0  2  0  0  0  0  0  0  0  0  0
  154.0398  140.4746  160.5756 C   0  0  0  0  0  0  0  0  0  0  0  0
  154.3368  140.2304  162.0652 C   0  0  0  0  0  0  0  0  0  0  0  0
  155.3377  140.7732  159.8028 C   0  0  0  0  0  0  0  0  0  0  0  0
  152.2372  141.4444  158.9608 C   0  0  1  0  0  0  0  0  0  0  0  0
  151.7211  140.0989  158.7209 N   0  0  0  0  0  0  0  0  0  0  0  0
  152.0916  139.2855  157.7206 C   0  0  0  0  0  0  0  0  0  0  0  0
  152.8823  139.6148  156.8356 O   0  0  0  0  0  0  0  0  0  0  0  0
  151.4553  137.8891  157.7169 C   0  0  0  0  0  0  0  0  0  0  0  0
  150.3419  137.7775  156.7638 N   0  0  0  0  0  0  0  0  0  0  0  0
  149.1137  138.3587  157.0461 C   0  0  0  0  0  0  0  0  0  0  0  0
  148.0506  138.2983  156.2095 C   0  0  0  0  0  0  0  0  0  0  0  0
  148.1534  137.5980  154.9336 C   0  0  0  0  0  0  0  0  0  0  0  0
  147.2475  137.4870  154.1105 O   0  0  0  0  0  0  0  0  0  0  0  0
  149.4051  137.0293  154.6847 N   0  0  0  0  0  0  0  0  0  0  0  0
  150.5052  137.0883  155.5417 C   0  0  0  0  0  0  0  0  0  0  0  0
  151.5672  136.5538  155.2232 O   0  0  0  0  0  0  0  0  0  0  0  0
  151.0845  142.4614  158.8240 C   0  0  0  0  0  0  0  0  0  0  0  0
  149.5247  136.5368  153.8114 H   0  0  0  0  0  0  0  0  0  0  0  0
  153.3202  143.9810  157.8679 H   0  0  0  0  0  0  0  0  0  0  0  0
  152.6250  145.5563  158.2223 H   0  0  0  0  0  0  0  0  0  0  0  0
  151.8504  144.4975  157.0531 H   0  0  0  0  0  0  0  0  0  0  0  0
  150.6169  144.5140  159.1806 H   0  0  0  0  0  0  0  0  0  0  0  0
  152.5624  144.9941  160.6937 H   0  0  0  0  0  0  0  0  0  0  0  0
  151.4656  143.7746  161.2812 H   0  0  0  0  0  0  0  0  0  0  0  0
  154.1678  143.2647  159.9656 H   0  0  0  0  0  0  0  0  0  0  0  0
  153.7691  143.0626  161.6495 H   0  0  0  0  0  0  0  0  0  0  0  0
  152.1335  141.2963  161.0884 H   0  0  0  0  0  0  0  0  0  0  0  0
  153.6738  139.5183  160.2015 H   0  0  0  0  0  0  0  0  0  0  0  0
  154.8154  141.0910  162.5319 H   0  0  0  0  0  0  0  0  0  0  0  0
  155.0070  139.3798  162.1925 H   0  0  0  0  0  0  0  0  0  0  0  0
  153.4243  140.0108  162.6197 H   0  0  0  0  0  0  0  0  0  0  0  0
  155.8013  141.7028  160.1320 H   0  0  0  0  0  0  0  0  0  0  0  0
  155.1632  140.8444  158.7296 H   0  0  0  0  0  0  0  0  0  0  0  0
  156.0669  139.9765  159.9524 H   0  0  0  0  0  0  0  0  0  0  0  0
  152.9875  141.6821  158.2063 H   0  0  0  0  0  0  0  0  0  0  0  0
  151.0573  139.7439  159.3936 H   0  0  0  0  0  0  0  0  0  0  0  0
  152.2096  137.1314  157.4935 H   0  0  0  0  0  0  0  0  0  0  0  0
  151.1168  137.6706  158.7306 H   0  0  0  0  0  0  0  0  0  0  0  0
  148.9921  138.8920  157.9782 H   0  0  0  0  0  0  0  0  0  0  0  0
  147.1193  138.7717  156.4853 H   0  0  0  0  0  0  0  0  0  0  0  0
  150.2829  142.1862  159.5112 H   0  0  0  0  0  0  0  0  0  0  0  0
  150.6531  142.4082  157.8236 H   0  0  0  0  0  0  0  0  0  0  0  0
  1  2  1  0  0  0  0
  1 24  1  0  0  0  0
  1 25  1  0  0  0  0
  1 26  1  0  0  0  0
  2 22  1  0  0  0  0
  2  3  1  0  0  0  0
  2 27  1  0  0  0  0
  3  4  1  0  0  0  0
  3 28  1  0  0  0  0
  3 29  1  0  0  0  0
  4  5  1  0  0  0  0
  4 30  1  0  0  0  0
  4 31  1  0  0  0  0
  5  6  1  0  0  0  0
  5  9  1  0  0  0  0
  5 32  1  0  0  0  0
  6  7  1  0  0  0  0
  6  8  1  0  0  0  0
  6 33  1  0  0  0  0
  7 34  1  0  0  0  0
  7 35  1  0  0  0  0
  7 36  1  0  0  0  0
  8 37  1  0  0  0  0
  8 38  1  0  0  0  0
  8 39  1  0  0  0  0
  9 10  1  0  0  0  0
  9 22  1  0  0  0  0
  9 40  1  0  0  0  0
 10 11  1  0  0  0  0
 10 41  1  0  0  0  0
 11 12  2  0  0  0  0
 11 13  1  0  0  0  0
 13 14  1  0  0  0  0
 13 42  1  0  0  0  0
 13 43  1  0  0  0  0
 14 20  1  0  0  0  0
 14 15  1  0  0  0  0
 15 16  2  0  0  0  0
 15 44  1  0  0  0  0
 16 17  1  0  0  0  0
 16 45  1  0  0  0  0
 17 18  2  0  0  0  0
 17 19  1  0  0  0  0
 19 23  1  0  0  0  0
 19 20  1  0  0  0  0
 20 21  2  0  0  0  0
 22 46  1  0  0  0  0
 22 47  1  0  0  0  0
M  END
> <s_m_source_file>
AV-unprocessed.smi

> <i_m_source_file_index>
2855

> <i_lp_mmshare_version>
43012

> <i_f3d_flags>
0

> <s_epik_input>
W0NIM11bQ0BASF0xW0NIMl1bQ0gyXVtDQEBIXShbQ0hdKFtDSDNdKVtDSDNdKVtDQEhdKFtDSDJdMSlbTkhdQyg9TylbQ0gyXW4yW2NIXVtjSF1jKD1PKVtuSF1jMj1P

> <s_epik_cmdline>
J2VwaWtfcHl0aG9uJywgJy1waCcsICc3LjAnLCAnLXRuJywgJzgnLCAnLW1hJywgJzIwMCcsICctbWV0YWxfYmluZGluZycsICctaW1hZScsICc8aW5maWxlLm1hZT4nLCAnLW9tYWUnLCAnPG91dGZpbGUubWFlPic=

> <r_lp_tautomer_probability>
0.999537

> <r_epik_Ionization_Penalty>
0.00306256

> <r_epik_Ionization_Penalty_Charging>
0.00306254

> <r_epik_Ionization_Penalty_Neutral>
2.0223e-08

> <r_epik_State_Penalty>
0.0021533

> <r_epik_Charging_Adjusted_Penalty>
0.00521583

> <i_epik_Tot_Q>
0

> <i_epik_Tot_abs_Q>
0

> <r_epik_Metal_State_Penalty>
0.362116

> <b_epik_Metal_Only>
0

> <s_lp_Force_Field>
OPLS_2005

> <r_lp_Energy>
15.7359

> <b_lp_Chiralities_Consistent>
1

> <s_lp_Variant>
AV-unprocessed.smi:2855-3

> <Gold.Version>
5.8.1

> <Gold.Id.Protein>
6NUR|6NUR_protein|mol2

> <Gold.PLP.Fitness>
43.0378

> <Gold.PLP.PLP>
-35.2913

> <Gold.PLP.part.hbond>
-3.0000

> <Gold.PLP.part.metal>
0.0000

> <Gold.PLP.part.buried>
-5.4423

> <Gold.PLP.part.nonpolar>
-27.8781

> <Gold.PLP.part.repulsive>
0.6352

> <Gold.PLP.ligand.clash>
0.0000

> <Gold.PLP.ligand.torsion>
0.6584

> <Gold.PLP.Chemscore.Hbond>
3.0000

> <Gold.PLP.Chemscore.CHOScore>
0.0000

> <Gold.PLP.Chemscore.Metal>
0.0000

> <Gold.Chemscore.Hbonds>
donor molecule, donor type, donor heavy atom, donor atom, acceptor molecule, acceptor atom, score
      L1  H    19    23       P1  7948  1.00
      P1  H  7997  8008       L1    12  1.00
      P1  H 10752 10765       L1    21  1.00

> <Gold.PLP.Chemscore.Internal.Correction>
0.0634

> <Gold.Rescore>
     Score         DG    S(hbond)    S(metal)    S(lipo)     H(rot)  DE(clash)    DE(int)     intcor
     22.09     -22.78       2.88        0.00     106.29       1.85       0.11       0.58       ----

> <Gold.Chemscore.Fitness>
22.0948

> <Gold.Chemscore.DG>
-22.7827

> <Gold.Chemscore.ZeroCoef>
-5.4800

> <Gold.Chemscore.Hbond>
2.8780

> <Gold.Chemscore.Metal>
0.0000

> <Gold.Chemscore.Lipo>
106.2930

> <Gold.Chemscore.Internal_Hbond>
0.0000

> <Gold.Chemscore.DEClash>
0.1091

> <Gold.Chemscore.DEInternal>
0.5789

> <Gold.Chemscore.Rot>
1.8539

> <Gold.Chemscore.Internal.Correction>
   9.000000E+99

> <Gold.Chemscore.Hbonds>
donor molecule, donor type, donor heavy atom, donor atom, acceptor molecule, acceptor atom, score
      L1  H    19    23       P1  7948  0.70
      P1  H  7997  8008       L1    12  0.97
      P1  H 10752 10765       L1    21  0.98

> <Gold.Chemscore.Hbond.Weighted>
-9.6124

> <Gold.Chemscore.Metal.Weighted>
-0.0000

> <Gold.Chemscore.Lipo.Weighted>
-12.4363

> <Gold.Chemscore.Internal_Hbond.Weighted>
0.0000

> <Gold.Chemscore.DEClash.Weighted>
0.1091

> <Gold.Chemscore.DEInternal.Weighted>
0.5789

> <Gold.Chemscore.Rot.Weighted>
4.7460

> <Gold.Chemscore.Internal.Correction.Weighted>
   9.000000E+99

> <Gold.Protein.RotatedTorsions>
[ 6907 6896 6895 6894 ] final -145.95 input  -60.11 | X-H torsion
[ 7974 7965 7964 7962 ] final  -45.92 input  175.53 | X-H torsion
[ 8008 7997 7996 7995 ] final  -57.74 input   59.86 | X-H torsion
[ 10167 10162 10161 10158 ] final -137.10 input  -65.29 | X-H torsion
[ 10718 10713 10712 10709 ] final  -74.21 input   66.30 | X-H torsion
[ 10763 10752 10751 10750 ] final -158.99 input  -60.55 | X-H torsion
[ 11005 11000 10999 10996 ] final   -3.27 input  -57.11 | X-H torsion

> <Gold.Protein.ActiveResidues>
 VAL166  LYS551  ARG553  GLY616  TRP617  ASP618  TYR619  PRO620  LYS621  CYS622 
 ASP623  PHE694  ASN695  SER759  ASP760  ASP761  ALA762  ILE779  LEU786  VAL792 
 PHE793  MET794  SER795  GLU796  ALA797  LYS798  CYS799  TRP800  GLU811  SER814 

> <Gold.Protein.RotatedAtoms>
  151.1348  133.5011  159.2598 H   0  0  0  0  0  0  0  0  0  0  0  0  # atno 6907 bound_to 6896
  151.1718  135.0321  159.8765 H   0  0  0  0  0  0  0  0  0  0  0  0  # atno 6908 bound_to 6896
  152.5461  134.1211  159.8452 H   0  0  0  0  0  0  0  0  0  0  0  0  # atno 6909 bound_to 6896
  145.9772  140.7322  142.9381 H   0  0  0  0  0  0  0  0  0  0  0  0  # atno 7974 bound_to 7965
  154.4280  140.1100  156.5846 H   0  0  0  0  0  0  0  0  0  0  0  0  # atno 8008 bound_to 7997
  155.6076  140.3494  155.4593 H   0  0  0  0  0  0  0  0  0  0  0  0  # atno 8009 bound_to 7997
  156.0125  140.1222  157.0429 H   0  0  0  0  0  0  0  0  0  0  0  0  # atno 8010 bound_to 7997
  139.8611  143.7076  152.2650 H   0  0  0  0  0  0  0  0  0  0  0  0  # atno 10167 bound_to 10162
  156.0251  130.4412  150.2858 H   0  0  0  0  0  0  0  0  0  0  0  0  # atno 10718 bound_to 10713
  154.7512  135.3093  154.8554 H   0  0  0  0  0  0  0  0  0  0  0  0  # atno 10763 bound_to 10752
  153.9341  135.6782  153.4749 H   0  0  0  0  0  0  0  0  0  0  0  0  # atno 10764 bound_to 10752
  153.1108  135.4867  154.8959 H   0  0  0  0  0  0  0  0  0  0  0  0  # atno 10765 bound_to 10752
  140.6675  133.9266  155.8474 H   0  0  0  0  0  0  0  0  0  0  0  0  # atno 11005 bound_to 11000
  144.6852  140.2847  143.7287 LP  0  0  0  0  0  0  0  0  0  0  0  0  # atno 17320 bound_to 7965
  145.7822  139.1895  143.2151 LP  0  0  0  0  0  0  0  0  0  0  0  0  # atno 17321 bound_to 7965
  139.7373  144.7568  151.0708 LP  0  0  0  0  0  0  0  0  0  0  0  0  # atno 17342 bound_to 10162
  140.7775  143.5015  150.9765 LP  0  0  0  0  0  0  0  0  0  0  0  0  # atno 17343 bound_to 10162
  157.0961  131.0183  151.3103 LP  0  0  0  0  0  0  0  0  0  0  0  0  # atno 17370 bound_to 10713
  157.4816  130.7768  149.7419 LP  0  0  0  0  0  0  0  0  0  0  0  0  # atno 17371 bound_to 10713
  141.0418  134.0611  157.3893 LP  0  0  0  0  0  0  0  0  0  0  0  0  # atno 17394 bound_to 11000
  139.8992  135.0158  156.7186 LP  0  0  0  0  0  0  0  0  0  0  0  0  # atno 17395 bound_to 11000

$$$$
