AV-unprocessed.smi:3170|AV-procd|sdf|12109|dock9
  -GOLD-   2272017543D 1   1.00000     0.00000
 Structure written by MMmdl.
 35 36  0  0  0  0  0  0  0  0  1 V2000
  145.5336  137.8582  153.9224 O   0  0  0  0  0  0  0  0  0  0  0  0
  146.5531  137.3595  153.4454 C   0  0  0  0  0  0  0  0  0  0  0  0
  146.5606  136.2891  152.6397 N   0  0  0  0  0  0  0  0  0  0  0  0
  145.3730  135.5976  152.1468 C   0  0  0  0  0  0  0  0  0  0  0  0
  145.5834  134.9776  150.7506 C   0  0  0  0  0  0  0  0  0  0  0  0
  145.1067  133.6090  150.6759 N   0  0  0  0  0  0  0  0  0  0  0  0
  143.7895  133.1740  150.7286 C   0  0  0  0  0  0  0  0  0  0  0  0
  143.8255  131.8011  150.6305 C   0  0  0  0  0  0  0  0  0  0  0  0
  145.1462  131.3729  150.5165 N   0  0  0  0  0  0  0  0  0  0  0  0
  145.8470  132.4989  150.5470 C   0  0  0  0  0  0  0  0  0  0  0  0
  147.7878  137.8415  153.6395 N   0  0  0  0  0  0  0  0  0  0  0  0
  148.1018  139.0610  154.3759 C   0  0  0  0  0  0  0  0  0  0  0  0
  149.5992  139.4147  154.2851 C   0  0  2  0  0  0  0  0  0  0  0  0
  150.5417  138.3262  154.7611 C   0  0  0  0  0  0  0  0  0  0  0  0
  151.8268  139.1118  154.9994 C   0  0  0  0  0  0  0  0  0  0  0  0
  151.4136  140.4101  155.4168 O   0  0  0  0  0  0  0  0  0  0  0  0
  150.0191  140.5819  155.1778 C   0  0  0  0  0  0  0  0  0  0  0  0
  147.4514  135.9572  152.2996 H   0  0  0  0  0  0  0  0  0  0  0  0
  145.1143  134.8174  152.8631 H   0  0  0  0  0  0  0  0  0  0  0  0
  144.5301  136.2898  152.1266 H   0  0  0  0  0  0  0  0  0  0  0  0
  145.0550  135.5655  149.9996 H   0  0  0  0  0  0  0  0  0  0  0  0
  146.6377  134.9980  150.4714 H   0  0  0  0  0  0  0  0  0  0  0  0
  142.9596  133.8574  150.8319 H   0  0  0  0  0  0  0  0  0  0  0  0
  143.0093  131.0938  150.6346 H   0  0  0  0  0  0  0  0  0  0  0  0
  146.9254  132.5165  150.4838 H   0  0  0  0  0  0  0  0  0  0  0  0
  148.5616  137.3592  153.2062 H   0  0  0  0  0  0  0  0  0  0  0  0
  147.4940  139.8877  154.0044 H   0  0  0  0  0  0  0  0  0  0  0  0
  147.8133  138.9097  155.4164 H   0  0  0  0  0  0  0  0  0  0  0  0
  149.8543  139.6654  153.2540 H   0  0  0  0  0  0  0  0  0  0  0  0
  150.1860  137.8959  155.6986 H   0  0  0  0  0  0  0  0  0  0  0  0
  150.6676  137.5183  154.0394 H   0  0  0  0  0  0  0  0  0  0  0  0
  152.4740  138.6403  155.7391 H   0  0  0  0  0  0  0  0  0  0  0  0
  152.3894  139.2091  154.0699 H   0  0  0  0  0  0  0  0  0  0  0  0
  149.8105  141.5501  154.7218 H   0  0  0  0  0  0  0  0  0  0  0  0
  149.5013  140.5425  156.1372 H   0  0  0  0  0  0  0  0  0  0  0  0
  1  2  2  0  0  0  0
  2  3  1  0  0  0  0
  2 11  1  0  0  0  0
  3  4  1  0  0  0  0
  3 18  1  0  0  0  0
  4  5  1  0  0  0  0
  4 19  1  0  0  0  0
  4 20  1  0  0  0  0
  5  6  1  0  0  0  0
  5 21  1  0  0  0  0
  5 22  1  0  0  0  0
  6 10  1  0  0  0  0
  6  7  1  0  0  0  0
  7  8  2  0  0  0  0
  7 23  1  0  0  0  0
  8  9  1  0  0  0  0
  8 24  1  0  0  0  0
  9 10  2  0  0  0  0
 10 25  1  0  0  0  0
 11 12  1  0  0  0  0
 11 26  1  0  0  0  0
 12 13  1  0  0  0  0
 12 27  1  0  0  0  0
 12 28  1  0  0  0  0
 13 17  1  0  0  0  0
 13 14  1  0  0  0  0
 13 29  1  0  0  0  0
 14 15  1  0  0  0  0
 14 30  1  0  0  0  0
 14 31  1  0  0  0  0
 15 16  1  0  0  0  0
 15 32  1  0  0  0  0
 15 33  1  0  0  0  0
 16 17  1  0  0  0  0
 17 34  1  0  0  0  0
 17 35  1  0  0  0  0
M  END
> <s_m_source_file>
AV-unprocessed.smi

> <i_m_source_file_index>
3170

> <i_lp_mmshare_version>
43012

> <i_f3d_flags>
0

> <s_epik_input>
W0NIMl0xT1tDSDJdW0NIMl1bQ0BIXTFbQ0gyXVtOSF1DKD1PKVtOSF1bQ0gyXVtDSDJdbjJbY0hdW2NIXW5bY0hdMg==

> <s_epik_cmdline>
J2VwaWtfcHl0aG9uJywgJy1waCcsICc3LjAnLCAnLXRuJywgJzgnLCAnLW1hJywgJzIwMCcsICctbWV0YWxfYmluZGluZycsICctaW1hZScsICc8aW5maWxlLm1hZT4nLCAnLW9tYWUnLCAnPG91dGZpbGUubWFlPic=

> <r_lp_tautomer_probability>
1

> <r_epik_Ionization_Penalty>
0.621287

> <r_epik_Ionization_Penalty_Charging>
0.621234

> <r_epik_Ionization_Penalty_Neutral>
5.30999e-05

> <r_epik_State_Penalty>
0.637278

> <r_epik_Charging_Adjusted_Penalty>
1.25851

> <i_epik_Tot_Q>
0

> <i_epik_Tot_abs_Q>
0

> <r_epik_Metal_State_Penalty>
0.306756

> <b_epik_Metal_Only>
0

> <s_lp_Force_Field>
OPLS_2005

> <r_lp_Energy>
17.5777

> <b_lp_Chiralities_Consistent>
1

> <s_lp_Variant>
AV-unprocessed.smi:3170-3

> <Gold.Version>
5.8.1

> <Gold.Id.Protein>
6NUR|6NUR_protein|mol2

> <Gold.PLP.Fitness>
42.6319

> <Gold.PLP.PLP>
-29.9684

> <Gold.PLP.part.hbond>
-2.9089

> <Gold.PLP.part.metal>
0.0000

> <Gold.PLP.part.buried>
-1.9597

> <Gold.PLP.part.nonpolar>
-25.3210

> <Gold.PLP.part.repulsive>
0.2975

> <Gold.PLP.ligand.clash>
0.0000

> <Gold.PLP.ligand.torsion>
0.6255

> <Gold.PLP.Chemscore.Hbond>
1.9312

> <Gold.PLP.Chemscore.CHOScore>
2.7032

> <Gold.PLP.Chemscore.Metal>
0.0000

> <Gold.Chemscore.Hbonds>
donor molecule, donor type, donor heavy atom, donor atom, acceptor molecule, acceptor atom, score
      L1  H     3    18       P1  7948  1.00
      L1  H    11    26       P1  7948  0.85
      P1  H  7989  7998       L1    16  0.05
      L1  C     7    23       P1 10186  1.00
      L1  C     8    24       P1 10952  0.97
      L1  C    10    25       P1 10747  0.73

> <Gold.PLP.Chemscore.Internal.Correction>
0.0114

> <Gold.Rescore>
     Score         DG    S(hbond)    S(metal)    S(lipo)     H(rot)  DE(clash)    DE(int)     intcor
     12.39     -13.02       1.87        0.00      60.18       2.25       0.03       0.61       ----

> <Gold.Chemscore.Fitness>
12.3854

> <Gold.Chemscore.DG>
-13.0226

> <Gold.Chemscore.ZeroCoef>
-5.4800

> <Gold.Chemscore.Hbond>
1.8727

> <Gold.Chemscore.Metal>
0.0000

> <Gold.Chemscore.Lipo>
60.1782

> <Gold.Chemscore.Internal_Hbond>
0.0000

> <Gold.Chemscore.DEClash>
0.0271

> <Gold.Chemscore.DEInternal>
0.6100

> <Gold.Chemscore.Rot>
2.2474

> <Gold.Chemscore.Internal.Correction>
   9.000000E+99

> <Gold.Chemscore.Hbonds>
donor molecule, donor type, donor heavy atom, donor atom, acceptor molecule, acceptor atom, score
      L1  H     3    18       P1  7948  0.93
      L1  H    11    26       P1  7948  0.85

> <Gold.Chemscore.Hbond.Weighted>
-6.2550

> <Gold.Chemscore.Metal.Weighted>
-0.0000

> <Gold.Chemscore.Lipo.Weighted>
-7.0408

> <Gold.Chemscore.Internal_Hbond.Weighted>
0.0000

> <Gold.Chemscore.DEClash.Weighted>
0.0271

> <Gold.Chemscore.DEInternal.Weighted>
0.6100

> <Gold.Chemscore.Rot.Weighted>
5.7532

> <Gold.Chemscore.Internal.Correction.Weighted>
   9.000000E+99

> <Gold.Protein.RotatedTorsions>
[ 6907 6896 6895 6894 ] final   76.77 input  -60.11 | X-H torsion
[ 7974 7965 7964 7962 ] final   14.23 input  175.53 | X-H torsion
[ 8008 7997 7996 7995 ] final   94.03 input   59.86 | X-H torsion
[ 10167 10162 10161 10158 ] final   69.30 input  -65.29 | X-H torsion
[ 10718 10713 10712 10709 ] final   82.11 input   66.30 | X-H torsion
[ 10763 10752 10751 10750 ] final  172.45 input  -60.55 | X-H torsion
[ 11005 11000 10999 10996 ] final   -0.06 input  -57.11 | X-H torsion

> <Gold.Protein.ActiveResidues>
 VAL166  LYS551  ARG553  GLY616  TRP617  ASP618  TYR619  PRO620  LYS621  CYS622 
 ASP623  PHE694  ASN695  SER759  ASP760  ASP761  ALA762  ILE779  LEU786  VAL792 
 PHE793  MET794  SER795  GLU796  ALA797  LYS798  CYS799  TRP800  GLU811  SER814 

> <Gold.Protein.RotatedAtoms>
  152.5088  134.3918  159.9386 H   0  0  0  0  0  0  0  0  0  0  0  0  # atno 6907 bound_to 6896
  151.3878  133.3793  159.2725 H   0  0  0  0  0  0  0  0  0  0  0  0  # atno 6908 bound_to 6896
  150.9455  134.8881  159.7698 H   0  0  0  0  0  0  0  0  0  0  0  0  # atno 6909 bound_to 6896
  146.2310  139.9072  142.8530 H   0  0  0  0  0  0  0  0  0  0  0  0  # atno 7974 bound_to 7965
  156.0534  140.3305  155.7377 H   0  0  0  0  0  0  0  0  0  0  0  0  # atno 8008 bound_to 7997
  155.5566  140.0615  157.2856 H   0  0  0  0  0  0  0  0  0  0  0  0  # atno 8009 bound_to 7997
  154.4446  140.1885  156.0728 H   0  0  0  0  0  0  0  0  0  0  0  0  # atno 8010 bound_to 7997
  140.0693  144.5166  150.7238 H   0  0  0  0  0  0  0  0  0  0  0  0  # atno 10167 bound_to 10162
  157.6849  131.0033  150.2326 H   0  0  0  0  0  0  0  0  0  0  0  0  # atno 10718 bound_to 10713
  154.4262  135.2759  155.1943 H   0  0  0  0  0  0  0  0  0  0  0  0  # atno 10763 bound_to 10752
  154.3868  135.6075  153.5824 H   0  0  0  0  0  0  0  0  0  0  0  0  # atno 10764 bound_to 10752
  152.9834  135.5893  154.4566 H   0  0  0  0  0  0  0  0  0  0  0  0  # atno 10765 bound_to 10752
  140.6321  133.9566  155.8280 H   0  0  0  0  0  0  0  0  0  0  0  0  # atno 11005 bound_to 11000
  145.2265  140.9956  143.4015 LP  0  0  0  0  0  0  0  0  0  0  0  0  # atno 17320 bound_to 7965
  144.9566  139.4025  143.6376 LP  0  0  0  0  0  0  0  0  0  0  0  0  # atno 17321 bound_to 7965
  140.7133  143.2523  151.4512 LP  0  0  0  0  0  0  0  0  0  0  0  0  # atno 17342 bound_to 10162
  139.5846  144.1634  152.2012 LP  0  0  0  0  0  0  0  0  0  0  0  0  # atno 17343 bound_to 10162
  156.2956  130.3751  149.7799 LP  0  0  0  0  0  0  0  0  0  0  0  0  # atno 17370 bound_to 10713
  156.5445  130.8315  151.3280 LP  0  0  0  0  0  0  0  0  0  0  0  0  # atno 17371 bound_to 10713
  141.0668  134.0265  157.3583 LP  0  0  0  0  0  0  0  0  0  0  0  0  # atno 17394 bound_to 11000
  139.9112  135.0190  156.7699 LP  0  0  0  0  0  0  0  0  0  0  0  0  # atno 17395 bound_to 11000

$$$$
