AV-unprocessed.smi:3011|AV-procd|sdf|11458|dock6
  -GOLD-   2272016393D 1   1.00000     0.00000
 Structure written by MMmdl.
 46 48  0  0  0  0  0  0  0  0  1 V2000
  156.7807  137.9927  165.4702 C   0  0  0  0  0  0  0  0  0  0  0  0
  156.3229  138.9355  164.5123 O   0  0  0  0  0  0  0  0  0  0  0  0
  155.9174  140.1772  164.9560 C   0  0  0  0  0  0  0  0  0  0  0  0
  155.9822  140.5840  166.3129 C   0  0  0  0  0  0  0  0  0  0  0  0
  155.5622  141.8710  166.6941 C   0  0  0  0  0  0  0  0  0  0  0  0
  155.0753  142.7656  165.7265 C   0  0  0  0  0  0  0  0  0  0  0  0
  155.0064  142.3730  164.3776 C   0  0  0  0  0  0  0  0  0  0  0  0
  155.4243  141.0769  163.9822 C   0  0  0  0  0  0  0  0  0  0  0  0
  155.3753  140.6247  162.6798 O   0  0  0  0  0  0  0  0  0  0  0  0
  154.4133  141.1936  161.8026 C   0  0  0  0  0  0  0  0  0  0  0  0
  154.5966  140.6223  160.3897 C   0  0  0  0  0  0  0  0  0  0  0  0
  153.4422  140.8690  159.5353 N   0  0  0  0  0  0  0  0  0  0  0  0
  152.7096  139.9913  158.7982 C   0  0  0  0  0  0  0  0  0  0  0  0
  152.9913  138.5104  158.7561 C   0  0  1  0  0  0  0  0  0  0  0  0
  153.0785  137.8982  160.1616 C   0  0  0  0  0  0  0  0  0  0  0  0
  151.9338  137.8630  157.9878 N   0  0  0  0  0  0  0  0  0  0  0  0
  152.1508  137.0074  156.9816 C   0  0  0  0  0  0  0  0  0  0  0  0
  153.2741  136.6825  156.6058 O   0  0  0  0  0  0  0  0  0  0  0  0
  151.7265  140.5323  158.0734 N   0  0  0  0  0  0  0  0  0  0  0  0
  151.8047  141.8713  158.3946 C   0  0  0  0  0  0  0  0  0  0  0  0
  151.0233  142.9663  157.9616 C   0  0  0  0  0  0  0  0  0  0  0  0
  151.2928  144.2670  158.4357 C   0  0  0  0  0  0  0  0  0  0  0  0
  152.3455  144.4900  159.3464 C   0  0  0  0  0  0  0  0  0  0  0  0
  153.1375  143.4124  159.7878 C   0  0  0  0  0  0  0  0  0  0  0  0
  152.8645  142.1157  159.3113 C   0  0  0  0  0  0  0  0  0  0  0  0
  157.0469  137.0661  164.9622 H   0  0  0  0  0  0  0  0  0  0  0  0
  156.0049  137.7564  166.1996 H   0  0  0  0  0  0  0  0  0  0  0  0
  157.6704  138.3511  165.9893 H   0  0  0  0  0  0  0  0  0  0  0  0
  156.3539  139.9265  167.0838 H   0  0  0  0  0  0  0  0  0  0  0  0
  155.6159  142.1722  167.7299 H   0  0  0  0  0  0  0  0  0  0  0  0
  154.7529  143.7544  166.0183 H   0  0  0  0  0  0  0  0  0  0  0  0
  154.6238  143.0869  163.6648 H   0  0  0  0  0  0  0  0  0  0  0  0
  153.4013  140.9836  162.1514 H   0  0  0  0  0  0  0  0  0  0  0  0
  154.5407  142.2767  161.7712 H   0  0  0  0  0  0  0  0  0  0  0  0
  155.4652  141.0893  159.9247 H   0  0  0  0  0  0  0  0  0  0  0  0
  154.8210  139.5567  160.4188 H   0  0  0  0  0  0  0  0  0  0  0  0
  153.9446  138.3172  158.2669 H   0  0  0  0  0  0  0  0  0  0  0  0
  153.8532  138.3878  160.7522 H   0  0  0  0  0  0  0  0  0  0  0  0
  153.3189  136.8359  160.1127 H   0  0  0  0  0  0  0  0  0  0  0  0
  152.1377  138.0002  160.7036 H   0  0  0  0  0  0  0  0  0  0  0  0
  150.9803  138.0911  158.2288 H   0  0  0  0  0  0  0  0  0  0  0  0
  151.2096  136.6402  156.5439 H   0  0  0  0  0  0  0  0  0  0  0  0
  150.2149  142.8047  157.2641 H   0  0  0  0  0  0  0  0  0  0  0  0
  150.6891  145.0970  158.0990 H   0  0  0  0  0  0  0  0  0  0  0  0
  152.5453  145.4889  159.7054 H   0  0  0  0  0  0  0  0  0  0  0  0
  153.9441  143.5818  160.4853 H   0  0  0  0  0  0  0  0  0  0  0  0
  1  2  1  0  0  0  0
  1 26  1  0  0  0  0
  1 27  1  0  0  0  0
  1 28  1  0  0  0  0
  2  3  1  0  0  0  0
  3  8  1  0  0  0  0
  3  4  2  0  0  0  0
  4  5  1  0  0  0  0
  4 29  1  0  0  0  0
  5  6  2  0  0  0  0
  5 30  1  0  0  0  0
  6  7  1  0  0  0  0
  6 31  1  0  0  0  0
  7  8  2  0  0  0  0
  7 32  1  0  0  0  0
  8  9  1  0  0  0  0
  9 10  1  0  0  0  0
 10 11  1  0  0  0  0
 10 33  1  0  0  0  0
 10 34  1  0  0  0  0
 11 12  1  0  0  0  0
 11 35  1  0  0  0  0
 11 36  1  0  0  0  0
 12 25  1  0  0  0  0
 12 13  1  0  0  0  0
 13 14  1  0  0  0  0
 13 19  2  0  0  0  0
 14 15  1  0  0  0  0
 14 16  1  0  0  0  0
 14 37  1  0  0  0  0
 15 38  1  0  0  0  0
 15 39  1  0  0  0  0
 15 40  1  0  0  0  0
 16 17  1  0  0  0  0
 16 41  1  0  0  0  0
 17 18  2  0  0  0  0
 17 42  1  0  0  0  0
 19 20  1  0  0  0  0
 20 25  2  0  0  0  0
 20 21  1  0  0  0  0
 21 22  2  0  0  0  0
 21 43  1  0  0  0  0
 22 23  1  0  0  0  0
 22 44  1  0  0  0  0
 23 24  2  0  0  0  0
 23 45  1  0  0  0  0
 24 25  1  0  0  0  0
 24 46  1  0  0  0  0
M  END
> <s_m_source_file>
AV-unprocessed.smi

> <i_m_source_file_index>
3011

> <i_lp_mmshare_version>
43012

> <i_f3d_flags>
0

> <s_epik_input>
W0NIM11PYzFbY0hdW2NIXVtjSF1bY0hdYzFPW0NIMl1bQ0gyXW4oYyhuMilbQ0BIXShbQ0gzXSlbTkhdW0NIXT1PKWMoYzIzKVtjSF1bY0hdW2NIXVtjSF0z

> <s_epik_cmdline>
J2VwaWtfcHl0aG9uJywgJy1waCcsICc3LjAnLCAnLXRuJywgJzgnLCAnLW1hJywgJzIwMCcsICctbWV0YWxfYmluZGluZycsICctaW1hZScsICc8aW5maWxlLm1hZT4nLCAnLW9tYWUnLCAnPG91dGZpbGUubWFlPic=

> <r_lp_tautomer_probability>
1

> <r_epik_Ionization_Penalty>
0.0924205

> <r_epik_Ionization_Penalty_Charging>
0

> <r_epik_Ionization_Penalty_Neutral>
0.0924205

> <r_epik_State_Penalty>
0.0827154

> <r_epik_Charging_Adjusted_Penalty>
0.0827154

> <i_epik_Tot_Q>
0

> <i_epik_Tot_abs_Q>
0

> <r_epik_Metal_State_Penalty>
0.071464

> <b_epik_Metal_Only>
0

> <s_lp_Force_Field>
OPLS_2005

> <r_lp_Energy>
16.1318

> <b_lp_Chiralities_Consistent>
1

> <s_lp_Variant>
AV-unprocessed.smi:3011-2

> <Gold.Version>
5.8.1

> <Gold.Id.Protein>
6NUR|6NUR_protein|mol2

> <Gold.PLP.Fitness>
50.7990

> <Gold.PLP.PLP>
-49.1227

> <Gold.PLP.part.hbond>
-2.0000

> <Gold.PLP.part.metal>
0.0000

> <Gold.PLP.part.buried>
-3.0931

> <Gold.PLP.part.nonpolar>
-43.9602

> <Gold.PLP.part.repulsive>
0.0839

> <Gold.PLP.ligand.clash>
0.0000

> <Gold.PLP.ligand.torsion>
0.7169

> <Gold.PLP.Chemscore.Hbond>
1.0000

> <Gold.PLP.Chemscore.CHOScore>
0.0000

> <Gold.PLP.Chemscore.Metal>
0.0000

> <Gold.Chemscore.Hbonds>
donor molecule, donor type, donor heavy atom, donor atom, acceptor molecule, acceptor atom, score
      P1  H 10752 10765       L1    18  0.88

> <Gold.PLP.Chemscore.Internal.Correction>
0.1100

> <Gold.Rescore>
     Score         DG    S(hbond)    S(metal)    S(lipo)     H(rot)  DE(clash)    DE(int)     intcor
     17.79     -18.62       0.97        0.00     141.29       2.59       0.16       0.67       ----

> <Gold.Chemscore.Fitness>
17.7926

> <Gold.Chemscore.DG>
-18.6230

> <Gold.Chemscore.ZeroCoef>
-5.4800

> <Gold.Chemscore.Hbond>
0.9717

> <Gold.Chemscore.Metal>
0.0000

> <Gold.Chemscore.Lipo>
141.2942

> <Gold.Chemscore.Internal_Hbond>
0.0000

> <Gold.Chemscore.DEClash>
0.1605

> <Gold.Chemscore.DEInternal>
0.6699

> <Gold.Chemscore.Rot>
2.5914

> <Gold.Chemscore.Internal.Correction>
   9.000000E+99

> <Gold.Chemscore.Hbonds>
donor molecule, donor type, donor heavy atom, donor atom, acceptor molecule, acceptor atom, score
      P1  H 10752 10765       L1    18  0.83

> <Gold.Chemscore.Hbond.Weighted>
-3.2456

> <Gold.Chemscore.Metal.Weighted>
-0.0000

> <Gold.Chemscore.Lipo.Weighted>
-16.5314

> <Gold.Chemscore.Internal_Hbond.Weighted>
0.0000

> <Gold.Chemscore.DEClash.Weighted>
0.1605

> <Gold.Chemscore.DEInternal.Weighted>
0.6699

> <Gold.Chemscore.Rot.Weighted>
6.6340

> <Gold.Chemscore.Internal.Correction.Weighted>
   9.000000E+99

> <Gold.Protein.RotatedTorsions>
[ 6907 6896 6895 6894 ] final -164.71 input  -60.11 | X-H torsion
[ 7974 7965 7964 7962 ] final  -73.38 input  175.53 | X-H torsion
[ 8008 7997 7996 7995 ] final  -60.30 input   59.86 | X-H torsion
[ 10167 10162 10161 10158 ] final   -3.72 input  -65.29 | X-H torsion
[ 10718 10713 10712 10709 ] final -150.66 input   66.30 | X-H torsion
[ 10763 10752 10751 10750 ] final -132.33 input  -60.55 | X-H torsion
[ 11005 11000 10999 10996 ] final -136.69 input  -57.11 | X-H torsion

> <Gold.Protein.ActiveResidues>
 VAL166  LYS551  ARG553  GLY616  TRP617  ASP618  TYR619  PRO620  LYS621  CYS622 
 ASP623  PHE694  ASN695  SER759  ASP760  ASP761  ALA762  ILE779  LEU786  VAL792 
 PHE793  MET794  SER795  GLU796  ALA797  LYS798  CYS799  TRP800  GLU811  SER814 

> <Gold.Protein.RotatedAtoms>
  151.4162  133.3712  159.2749 H   0  0  0  0  0  0  0  0  0  0  0  0  # atno 6907 bound_to 6896
  150.9327  134.8742  159.7572 H   0  0  0  0  0  0  0  0  0  0  0  0  # atno 6908 bound_to 6896
  152.5035  134.4108  159.9500 H   0  0  0  0  0  0  0  0  0  0  0  0  # atno 6909 bound_to 6896
  145.6529  140.9277  143.0975 H   0  0  0  0  0  0  0  0  0  0  0  0  # atno 7974 bound_to 7965
  154.4392  140.1042  156.6252 H   0  0  0  0  0  0  0  0  0  0  0  0  # atno 8008 bound_to 7997
  155.5664  140.3488  155.4485 H   0  0  0  0  0  0  0  0  0  0  0  0  # atno 8009 bound_to 7997
  156.0422  140.1284  157.0133 H   0  0  0  0  0  0  0  0  0  0  0  0  # atno 8010 bound_to 7997
  140.6901  143.6507  150.8352 H   0  0  0  0  0  0  0  0  0  0  0  0  # atno 10167 bound_to 10162
  156.4491  130.8159  151.2390 H   0  0  0  0  0  0  0  0  0  0  0  0  # atno 10718 bound_to 10713
  154.8744  135.3801  154.4392 H   0  0  0  0  0  0  0  0  0  0  0  0  # atno 10763 bound_to 10752
  153.5079  135.7030  153.5802 H   0  0  0  0  0  0  0  0  0  0  0  0  # atno 10764 bound_to 10752
  153.4104  135.3926  155.2013 H   0  0  0  0  0  0  0  0  0  0  0  0  # atno 10765 bound_to 10752
  140.8781  134.1966  157.4608 H   0  0  0  0  0  0  0  0  0  0  0  0  # atno 11005 bound_to 11000
  144.7116  139.8350  143.7412 LP  0  0  0  0  0  0  0  0  0  0  0  0  # atno 17320 bound_to 7965
  146.1189  139.4204  143.0241 LP  0  0  0  0  0  0  0  0  0  0  0  0  # atno 17321 bound_to 7965
  140.0219  143.5533  152.2797 LP  0  0  0  0  0  0  0  0  0  0  0  0  # atno 17342 bound_to 10162
  139.6295  144.7642  151.2567 LP  0  0  0  0  0  0  0  0  0  0  0  0  # atno 17343 bound_to 10162
  157.7503  131.0143  150.3461 LP  0  0  0  0  0  0  0  0  0  0  0  0  # atno 17370 bound_to 10713
  156.3835  130.3885  149.7083 LP  0  0  0  0  0  0  0  0  0  0  0  0  # atno 17371 bound_to 10713
  139.8717  134.9805  156.5078 LP  0  0  0  0  0  0  0  0  0  0  0  0  # atno 17394 bound_to 11000
  140.8494  133.8144  155.9153 LP  0  0  0  0  0  0  0  0  0  0  0  0  # atno 17395 bound_to 11000

$$$$
