AV-unprocessed.smi:2562|AV-procd|sdf|10050|dock5
  -GOLD-   2272014 93D 1   1.00000     0.00000
 Structure written by MMmdl.
 31 32  0  0  0  0  0  0  0  0  2 V2000
  149.7920  132.6548  154.5078 C   0  0  0  0  0  0  0  0  0  0  0  0
  149.8034  134.1869  154.5400 C   0  0  0  0  0  0  0  0  0  0  0  0
  148.4284  134.7772  154.8834 C   0  0  0  0  0  0  0  0  0  0  0  0
  147.3350  134.2200  154.0322 C   0  0  0  0  0  0  0  0  0  0  0  0
  146.3085  133.4945  154.4857 N   0  0  0  0  0  0  0  0  0  0  0  0
  145.5574  133.1787  153.3666 N   0  0  0  0  0  0  0  0  0  0  0  0
  146.2015  133.7349  152.3350 C   0  0  0  0  0  0  0  0  0  0  0  0
  145.7566  133.6683  150.9081 C   0  0  2  0  0  0  0  0  0  0  0  0
  144.3561  134.2760  150.6990 C   0  0  0  0  0  0  0  0  0  0  0  0
  143.9302  134.0910  149.2979 N   0  3  0  0  0  0  0  0  0  0  0  0
  143.9922  132.6714  148.8972 C   0  0  0  0  0  0  0  0  0  0  0  0
  145.3981  132.1062  149.1660 C   0  0  0  0  0  0  0  0  0  0  0  0
  145.7371  132.2922  150.5363 O   0  0  0  0  0  0  0  0  0  0  0  0
  147.3107  134.3929  152.7028 N   0  0  0  0  0  0  0  0  0  0  0  0
  147.9691  134.8937  152.1238 H   0  0  0  0  0  0  0  0  0  0  0  0
  150.7788  132.2640  154.2588 H   0  0  0  0  0  0  0  0  0  0  0  0
  149.0890  132.2828  153.7620 H   0  0  0  0  0  0  0  0  0  0  0  0
  149.5050  132.2422  155.4753 H   0  0  0  0  0  0  0  0  0  0  0  0
  150.5409  134.5263  155.2684 H   0  0  0  0  0  0  0  0  0  0  0  0
  150.1313  134.5635  153.5702 H   0  0  0  0  0  0  0  0  0  0  0  0
  148.1875  134.5784  155.9286 H   0  0  0  0  0  0  0  0  0  0  0  0
  148.4477  135.8621  154.7703 H   0  0  0  0  0  0  0  0  0  0  0  0
  146.4887  134.1952  150.2928 H   0  0  0  0  0  0  0  0  0  0  0  0
  143.6290  133.7972  151.3568 H   0  0  0  0  0  0  0  0  0  0  0  0
  144.3569  135.3394  150.9393 H   0  0  0  0  0  0  0  0  0  0  0  0
  142.9855  134.4308  149.1856 H   0  0  0  0  0  0  0  0  0  0  0  0
  143.2459  132.1073  149.4582 H   0  0  0  0  0  0  0  0  0  0  0  0
  143.7373  132.5813  147.8412 H   0  0  0  0  0  0  0  0  0  0  0  0
  145.4257  131.0410  148.9360 H   0  0  0  0  0  0  0  0  0  0  0  0
  146.1404  132.5890  148.5282 H   0  0  0  0  0  0  0  0  0  0  0  0
  144.5454  134.6231  148.6991 H   0  0  0  0  0  0  0  0  0  0  0  0
  1  2  1  0  0  0  0
  1 16  1  0  0  0  0
  1 17  1  0  0  0  0
  1 18  1  0  0  0  0
  2  3  1  0  0  0  0
  2 19  1  0  0  0  0
  2 20  1  0  0  0  0
  3 21  1  0  0  0  0
  3 22  1  0  0  0  0
  3  4  1  0  0  0  0
  4  5  2  0  0  0  0
  4 14  1  0  0  0  0
  5  6  1  0  0  0  0
  6  7  2  0  0  0  0
  7 14  1  0  0  0  0
  7  8  1  0  0  0  0
  8 13  1  0  0  0  0
  8  9  1  0  0  0  0
  8 23  1  0  0  0  0
  9 10  1  0  0  0  0
  9 24  1  0  0  0  0
  9 25  1  0  0  0  0
 10 11  1  0  0  0  0
 10 26  1  0  0  0  0
 10 31  1  0  0  0  0
 11 12  1  0  0  0  0
 11 27  1  0  0  0  0
 11 28  1  0  0  0  0
 12 13  1  0  0  0  0
 12 29  1  0  0  0  0
 12 30  1  0  0  0  0
 14 15  1  0  0  0  0
M  CHG  1  10   1
M  END
> <s_m_source_file>
AV-unprocessed.smi

> <i_m_source_file_index>
2562

> <i_lp_mmshare_version>
43012

> <i_f3d_flags>
0

> <s_epik_input>
W0NIM11bQ0gyXVtDSDJdYzFuW25IXWMobjEpW0NAQEhdMltDSDJdW05IXVtDSDJdW0NIMl1PMg==

> <s_epik_cmdline>
J2VwaWtfcHl0aG9uJywgJy1waCcsICc3LjAnLCAnLXRuJywgJzgnLCAnLW1hJywgJzIwMCcsICctbWV0YWxfYmluZGluZycsICctaW1hZScsICc8aW5maWxlLm1hZT4nLCAnLW9tYWUnLCAnPG91dGZpbGUubWFlPic=

> <r_lp_tautomer_probability>
0.0517155

> <r_epik_Ionization_Penalty>
0.274244

> <r_epik_Ionization_Penalty_Charging>
0.125708

> <r_epik_Ionization_Penalty_Neutral>
0.148536

> <r_epik_State_Penalty>
1.9659

> <r_epik_Charging_Adjusted_Penalty>
2.09161

> <i_epik_Tot_Q>
1

> <i_epik_Tot_abs_Q>
1

> <r_epik_Metal_State_Penalty>
2.08836

> <b_epik_Metal_Only>
0

> <s_lp_Force_Field>
OPLS_2005

> <r_lp_Energy>
13.0069

> <b_lp_Chiralities_Consistent>
1

> <s_lp_Variant>
AV-unprocessed.smi:2562-9

> <Gold.Version>
5.8.1

> <Gold.Id.Protein>
6NUR|6NUR_protein|mol2

> <Gold.PLP.Fitness>
36.7611

> <Gold.PLP.PLP>
-24.8231

> <Gold.PLP.part.hbond>
-3.0000

> <Gold.PLP.part.metal>
0.0000

> <Gold.PLP.part.buried>
-3.6545

> <Gold.PLP.part.nonpolar>
-18.0593

> <Gold.PLP.part.repulsive>
0.4254

> <Gold.PLP.ligand.clash>
0.0000

> <Gold.PLP.ligand.torsion>
0.0323

> <Gold.PLP.Chemscore.Hbond>
4.0000

> <Gold.PLP.Chemscore.CHOScore>
0.0000

> <Gold.PLP.Chemscore.Metal>
0.0000

> <Gold.Chemscore.Hbonds>
donor molecule, donor type, donor heavy atom, donor atom, acceptor molecule, acceptor atom, score
      L1  H    10    26       P1 10186  2.00
      L1  H    10    31       P1  7921  1.00
      L1  H    14    15       P1  7948  1.00

> <Gold.PLP.Chemscore.Internal.Correction>
0.0025

> <Gold.Rescore>
     Score         DG    S(hbond)    S(metal)    S(lipo)     H(rot)  DE(clash)    DE(int)     intcor
     17.40     -17.47       2.83        0.00      54.86       1.51       0.06       0.02       ----

> <Gold.Chemscore.Fitness>
17.3955

> <Gold.Chemscore.DG>
-17.4747

> <Gold.Chemscore.ZeroCoef>
-5.4800

> <Gold.Chemscore.Hbond>
2.8280

> <Gold.Chemscore.Metal>
0.0000

> <Gold.Chemscore.Lipo>
54.8592

> <Gold.Chemscore.Internal_Hbond>
0.0000

> <Gold.Chemscore.DEClash>
0.0604

> <Gold.Chemscore.DEInternal>
0.0188

> <Gold.Chemscore.Rot>
1.5115

> <Gold.Chemscore.Internal.Correction>
   9.000000E+99

> <Gold.Chemscore.Hbonds>
donor molecule, donor type, donor heavy atom, donor atom, acceptor molecule, acceptor atom, score
      L1  H    10    26       P1 10186  0.94
      L1  H    10    31       P1  7921  0.97
      L1  H    14    15       P1  7948  0.53

> <Gold.Chemscore.Hbond.Weighted>
-9.4457

> <Gold.Chemscore.Metal.Weighted>
-0.0000

> <Gold.Chemscore.Lipo.Weighted>
-6.4185

> <Gold.Chemscore.Internal_Hbond.Weighted>
0.0000

> <Gold.Chemscore.DEClash.Weighted>
0.0604

> <Gold.Chemscore.DEInternal.Weighted>
0.0188

> <Gold.Chemscore.Rot.Weighted>
3.8695

> <Gold.Chemscore.Internal.Correction.Weighted>
   9.000000E+99

> <Gold.Protein.RotatedTorsions>
[ 6907 6896 6895 6894 ] final   17.51 input  -60.11 | X-H torsion
[ 7974 7965 7964 7962 ] final   -7.07 input  175.53 | X-H torsion
[ 8008 7997 7996 7995 ] final  -79.93 input   59.86 | X-H torsion
[ 10167 10162 10161 10158 ] final   77.40 input  -65.29 | X-H torsion
[ 10718 10713 10712 10709 ] final -117.27 input   66.30 | X-H torsion
[ 10763 10752 10751 10750 ] final    8.75 input  -60.55 | X-H torsion
[ 11005 11000 10999 10996 ] final -176.50 input  -57.11 | X-H torsion

> <Gold.Protein.ActiveResidues>
 VAL166  LYS551  ARG553  GLY616  TRP617  ASP618  TYR619  PRO620  LYS621  CYS622 
 ASP623  PHE694  ASN695  SER759  ASP760  ASP761  ALA762  ILE779  LEU786  VAL792 
 PHE793  MET794  SER795  GLU796  ALA797  LYS798  CYS799  TRP800  GLU811  SER814 

> <Gold.Protein.RotatedAtoms>
  151.8507  135.0558  160.0458 H   0  0  0  0  0  0  0  0  0  0  0  0  # atno 6907 bound_to 6896
  152.2738  133.5402  159.5464 H   0  0  0  0  0  0  0  0  0  0  0  0  # atno 6908 bound_to 6896
  150.7162  134.0576  159.3862 H   0  0  0  0  0  0  0  0  0  0  0  0  # atno 6909 bound_to 6896
  146.2316  140.2265  142.8339 H   0  0  0  0  0  0  0  0  0  0  0  0  # atno 7974 bound_to 7965
  154.5833  140.0670  156.9136 H   0  0  0  0  0  0  0  0  0  0  0  0  # atno 8008 bound_to 7997
  155.2423  140.3345  155.4272 H   0  0  0  0  0  0  0  0  0  0  0  0  # atno 8009 bound_to 7997
  156.2205  140.1796  156.7473 H   0  0  0  0  0  0  0  0  0  0  0  0  # atno 8010 bound_to 7997
  139.9820  144.5820  150.7892 H   0  0  0  0  0  0  0  0  0  0  0  0  # atno 10167 bound_to 10162
  156.1022  130.6181  150.9143 H   0  0  0  0  0  0  0  0  0  0  0  0  # atno 10718 bound_to 10713
  153.2215  135.6882  153.7994 H   0  0  0  0  0  0  0  0  0  0  0  0  # atno 10763 bound_to 10752
  153.7191  135.3270  155.3264 H   0  0  0  0  0  0  0  0  0  0  0  0  # atno 10764 bound_to 10752
  154.8272  135.4609  154.1065 H   0  0  0  0  0  0  0  0  0  0  0  0  # atno 10765 bound_to 10752
  140.4514  134.6340  157.4803 H   0  0  0  0  0  0  0  0  0  0  0  0  # atno 11005 bound_to 11000
  144.9591  140.8257  143.5524 LP  0  0  0  0  0  0  0  0  0  0  0  0  # atno 17320 bound_to 7965
  145.2234  139.2148  143.5081 LP  0  0  0  0  0  0  0  0  0  0  0  0  # atno 17321 bound_to 7965
  140.7486  143.2924  151.3294 LP  0  0  0  0  0  0  0  0  0  0  0  0  # atno 17342 bound_to 10162
  139.6403  144.0552  152.2549 LP  0  0  0  0  0  0  0  0  0  0  0  0  # atno 17343 bound_to 10162
  157.6194  131.0931  150.8651 LP  0  0  0  0  0  0  0  0  0  0  0  0  # atno 17370 bound_to 10713
  156.8776  130.5168  149.5293 LP  0  0  0  0  0  0  0  0  0  0  0  0  # atno 17371 bound_to 10713
  140.0004  134.6845  155.9539 LP  0  0  0  0  0  0  0  0  0  0  0  0  # atno 17394 bound_to 11000
  141.1662  133.6537  156.4489 LP  0  0  0  0  0  0  0  0  0  0  0  0  # atno 17395 bound_to 11000

$$$$
