AV-unprocessed.smi:3231|AV-procd|sdf|12332|dock1
  -GOLD-   2272018183D 1   1.00000     0.00000
 Structure written by MMmdl.
 41 42  0  0  0  0  0  0  0  0  2 V2000
  147.6986  140.6000  152.8423 O   0  0  0  0  0  0  0  0  0  0  0  0
  147.1212  139.3393  153.1218 C   0  0  1  0  0  0  0  0  0  0  0  0
  146.8081  138.6648  151.7745 C   0  0  0  0  0  0  0  0  0  0  0  0
  146.5093  137.2299  151.9510 N   0  3  0  0  0  0  0  0  0  0  0  0
  145.8602  136.5993  150.7841 C   0  0  0  0  0  0  0  0  0  0  0  0
  144.8029  135.5690  151.2160 C   0  0  0  0  0  0  0  0  0  0  0  0
  145.0407  134.2526  150.6503 N   0  0  0  0  0  0  0  0  0  0  0  0
  144.1339  133.3947  150.0638 C   0  0  0  0  0  0  0  0  0  0  0  0
  144.8173  132.2722  149.6933 C   0  0  0  0  0  0  0  0  0  0  0  0
  146.1521  132.5360  150.1094 C   0  0  0  0  0  0  0  0  0  0  0  0
  146.2818  133.7210  150.6838 N   0  0  0  0  0  0  0  0  0  0  0  0
  148.1182  138.5134  153.9633 C   0  0  0  0  0  0  0  0  0  0  0  0
  149.4136  139.1515  154.1987 N   0  0  0  0  0  0  0  0  0  0  0  0
  150.4970  138.1862  154.3712 C   0  0  0  0  0  0  0  0  0  0  0  0
  151.8443  138.8770  154.6455 C   0  0  0  0  0  0  0  0  0  0  0  0
  151.7272  139.7159  155.7895 O   0  0  0  0  0  0  0  0  0  0  0  0
  150.7136  140.7047  155.6428 C   0  0  0  0  0  0  0  0  0  0  0  0
  149.3629  140.0197  155.3713 C   0  0  0  0  0  0  0  0  0  0  0  0
  148.4053  140.4763  152.2265 H   0  0  0  0  0  0  0  0  0  0  0  0
  146.1922  139.4793  153.6769 H   0  0  0  0  0  0  0  0  0  0  0  0
  145.9693  139.1609  151.2834 H   0  0  0  0  0  0  0  0  0  0  0  0
  147.6668  138.7529  151.1078 H   0  0  0  0  0  0  0  0  0  0  0  0
  147.3711  136.7417  152.1477 H   0  0  0  0  0  0  0  0  0  0  0  0
  145.4068  137.3690  150.1581 H   0  0  0  0  0  0  0  0  0  0  0  0
  146.6219  136.1072  150.1782 H   0  0  0  0  0  0  0  0  0  0  0  0
  144.7954  135.4756  152.3026 H   0  0  0  0  0  0  0  0  0  0  0  0
  143.8064  135.9029  150.9237 H   0  0  0  0  0  0  0  0  0  0  0  0
  143.0897  133.6507  149.9579 H   0  0  0  0  0  0  0  0  0  0  0  0
  144.4232  131.3938  149.2037 H   0  0  0  0  0  0  0  0  0  0  0  0
  147.0240  131.9058  150.0126 H   0  0  0  0  0  0  0  0  0  0  0  0
  147.6592  138.3433  154.9380 H   0  0  0  0  0  0  0  0  0  0  0  0
  148.2527  137.5191  153.5335 H   0  0  0  0  0  0  0  0  0  0  0  0
  150.2633  137.5103  155.1955 H   0  0  0  0  0  0  0  0  0  0  0  0
  150.5988  137.5700  153.4783 H   0  0  0  0  0  0  0  0  0  0  0  0
  152.6222  138.1348  154.8253 H   0  0  0  0  0  0  0  0  0  0  0  0
  152.1577  139.4677  153.7833 H   0  0  0  0  0  0  0  0  0  0  0  0
  150.6614  141.2989  156.5551 H   0  0  0  0  0  0  0  0  0  0  0  0
  150.9733  141.3851  154.8304 H   0  0  0  0  0  0  0  0  0  0  0  0
  148.5956  140.7827  155.2349 H   0  0  0  0  0  0  0  0  0  0  0  0
  149.0722  139.4396  156.2486 H   0  0  0  0  0  0  0  0  0  0  0  0
  145.8948  137.1347  152.7474 H   0  0  0  0  0  0  0  0  0  0  0  0
  1  2  1  0  0  0  0
  1 19  1  0  0  0  0
  2  3  1  0  0  0  0
  2 12  1  0  0  0  0
  2 20  1  0  0  0  0
  3  4  1  0  0  0  0
  3 21  1  0  0  0  0
  3 22  1  0  0  0  0
  4  5  1  0  0  0  0
  4 23  1  0  0  0  0
  4 41  1  0  0  0  0
  5  6  1  0  0  0  0
  5 24  1  0  0  0  0
  5 25  1  0  0  0  0
  6  7  1  0  0  0  0
  6 26  1  0  0  0  0
  6 27  1  0  0  0  0
  7 11  1  0  0  0  0
  7  8  1  0  0  0  0
  8  9  2  0  0  0  0
  8 28  1  0  0  0  0
  9 10  1  0  0  0  0
  9 29  1  0  0  0  0
 10 11  2  0  0  0  0
 10 30  1  0  0  0  0
 12 13  1  0  0  0  0
 12 31  1  0  0  0  0
 12 32  1  0  0  0  0
 13 18  1  0  0  0  0
 13 14  1  0  0  0  0
 14 15  1  0  0  0  0
 14 33  1  0  0  0  0
 14 34  1  0  0  0  0
 15 16  1  0  0  0  0
 15 35  1  0  0  0  0
 15 36  1  0  0  0  0
 16 17  1  0  0  0  0
 17 18  1  0  0  0  0
 17 37  1  0  0  0  0
 17 38  1  0  0  0  0
 18 39  1  0  0  0  0
 18 40  1  0  0  0  0
M  CHG  1   4   1
M  END
> <s_m_source_file>
AV-unprocessed.smi

> <i_m_source_file_index>
3231

> <i_lp_mmshare_version>
43012

> <i_f3d_flags>
0

> <s_epik_input>
W0NIMl0xW0NIMl1PW0NIMl1bQ0gyXU4xW0NIMl1bQ0BIXShbT0hdKVtDSDJdW05IXVtDSDJdW0NIMl1uMltjSF1bY0hdW2NIXW4y

> <s_epik_cmdline>
J2VwaWtfcHl0aG9uJywgJy1waCcsICc3LjAnLCAnLXRuJywgJzgnLCAnLW1hJywgJzIwMCcsICctbWV0YWxfYmluZGluZycsICctaW1hZScsICc8aW5maWxlLm1hZT4nLCAnLW9tYWUnLCAnPG91dGZpbGUubWFlPic=

> <r_lp_tautomer_probability>
1

> <r_epik_Ionization_Penalty>
0.1292

> <r_epik_Ionization_Penalty_Charging>
0.0387518

> <r_epik_Ionization_Penalty_Neutral>
0.0904484

> <r_epik_State_Penalty>
0.234133

> <r_epik_Charging_Adjusted_Penalty>
0.272885

> <i_epik_Tot_Q>
1

> <i_epik_Tot_abs_Q>
1

> <r_epik_Metal_State_Penalty>
0.234414

> <b_epik_Metal_Only>
0

> <s_lp_Force_Field>
OPLS_2005

> <r_lp_Energy>
29.6238

> <b_lp_Chiralities_Consistent>
1

> <s_lp_Variant>
AV-unprocessed.smi:3231-2

> <Gold.Version>
5.8.1

> <Gold.Id.Protein>
6NUR|6NUR_protein|mol2

> <Gold.PLP.Fitness>
48.1373

> <Gold.PLP.PLP>
-36.6413

> <Gold.PLP.part.hbond>
-2.0000

> <Gold.PLP.part.metal>
0.0000

> <Gold.PLP.part.buried>
-0.3009

> <Gold.PLP.part.nonpolar>
-33.2921

> <Gold.PLP.part.repulsive>
0.4486

> <Gold.PLP.ligand.clash>
0.0000

> <Gold.PLP.ligand.torsion>
2.0133

> <Gold.PLP.Chemscore.Hbond>
3.0000

> <Gold.PLP.Chemscore.CHOScore>
2.0000

> <Gold.PLP.Chemscore.Metal>
0.0000

> <Gold.Chemscore.Hbonds>
donor molecule, donor type, donor heavy atom, donor atom, acceptor molecule, acceptor atom, score
      L1  H     1    19       P1  7957  1.00
      L1  H     4    23       P1  7948  2.00
      L1  C     8    28       P1 10186  1.00
      L1  C    10    30       P1 10747  1.00

> <Gold.PLP.Chemscore.Internal.Correction>
0.5226

> <Gold.Rescore>
     Score         DG    S(hbond)    S(metal)    S(lipo)     H(rot)  DE(clash)    DE(int)     intcor
     13.24     -15.18       1.83        0.00      92.41       2.83       0.03       1.91       ----

> <Gold.Chemscore.Fitness>
13.2364

> <Gold.Chemscore.DG>
-15.1765

> <Gold.Chemscore.ZeroCoef>
-5.4800

> <Gold.Chemscore.Hbond>
1.8315

> <Gold.Chemscore.Metal>
0.0000

> <Gold.Chemscore.Lipo>
92.4065

> <Gold.Chemscore.Internal_Hbond>
0.0000

> <Gold.Chemscore.DEClash>
0.0315

> <Gold.Chemscore.DEInternal>
1.9086

> <Gold.Chemscore.Rot>
2.8251

> <Gold.Chemscore.Internal.Correction>
   9.000000E+99

> <Gold.Chemscore.Hbonds>
donor molecule, donor type, donor heavy atom, donor atom, acceptor molecule, acceptor atom, score
      L1  H     1    19       P1  7957  1.00
      L1  H     4    23       P1  7948  0.98

> <Gold.Chemscore.Hbond.Weighted>
-6.1171

> <Gold.Chemscore.Metal.Weighted>
-0.0000

> <Gold.Chemscore.Lipo.Weighted>
-10.8116

> <Gold.Chemscore.Internal_Hbond.Weighted>
0.0000

> <Gold.Chemscore.DEClash.Weighted>
0.0315

> <Gold.Chemscore.DEInternal.Weighted>
1.9086

> <Gold.Chemscore.Rot.Weighted>
7.2322

> <Gold.Chemscore.Internal.Correction.Weighted>
   9.000000E+99

> <Gold.Protein.RotatedTorsions>
[ 6907 6896 6895 6894 ] final -116.50 input  -60.11 | X-H torsion
[ 7974 7965 7964 7962 ] final -167.20 input  175.53 | X-H torsion
[ 8008 7997 7996 7995 ] final  -81.39 input   59.86 | X-H torsion
[ 10167 10162 10161 10158 ] final -164.20 input  -65.29 | X-H torsion
[ 10718 10713 10712 10709 ] final  145.51 input   66.30 | X-H torsion
[ 10763 10752 10751 10750 ] final  -23.23 input  -60.55 | X-H torsion
[ 11005 11000 10999 10996 ] final -129.83 input  -57.11 | X-H torsion

> <Gold.Protein.ActiveResidues>
 VAL166  LYS551  ARG553  GLY616  TRP617  ASP618  TYR619  PRO620  LYS621  CYS622 
 ASP623  PHE694  ASN695  SER759  ASP760  ASP761  ALA762  ILE779  LEU786  VAL792 
 PHE793  MET794  SER795  GLU796  ALA797  LYS798  CYS799  TRP800  GLU811  SER814 

> <Gold.Protein.RotatedAtoms>
  150.8061  133.8509  159.3204 H   0  0  0  0  0  0  0  0  0  0  0  0  # atno 6907 bound_to 6896
  151.6307  135.1021  160.0130 H   0  0  0  0  0  0  0  0  0  0  0  0  # atno 6908 bound_to 6896
  152.4151  133.6985  159.6467 H   0  0  0  0  0  0  0  0  0  0  0  0  # atno 6909 bound_to 6896
  144.7228  140.2554  143.6272 H   0  0  0  0  0  0  0  0  0  0  0  0  # atno 7974 bound_to 7965
  154.5978  140.0648  156.9327 H   0  0  0  0  0  0  0  0  0  0  0  0  # atno 8008 bound_to 7997
  155.2184  140.3328  155.4301 H   0  0  0  0  0  0  0  0  0  0  0  0  # atno 8009 bound_to 7997
  156.2299  140.1836  156.7254 H   0  0  0  0  0  0  0  0  0  0  0  0  # atno 8010 bound_to 7997
  139.6267  144.0518  152.1981 H   0  0  0  0  0  0  0  0  0  0  0  0  # atno 10167 bound_to 10162
  157.3444  131.0941  151.1054 H   0  0  0  0  0  0  0  0  0  0  0  0  # atno 10718 bound_to 10713
  153.6645  135.6975  153.5166 H   0  0  0  0  0  0  0  0  0  0  0  0  # atno 10763 bound_to 10752
  153.2605  135.4246  155.0889 H   0  0  0  0  0  0  0  0  0  0  0  0  # atno 10764 bound_to 10752
  154.8443  135.3554  154.6190 H   0  0  0  0  0  0  0  0  0  0  0  0  # atno 10765 bound_to 10752
  140.9398  134.1208  157.4161 H   0  0  0  0  0  0  0  0  0  0  0  0  # atno 11005 bound_to 11000
  145.8188  139.2034  143.1950 LP  0  0  0  0  0  0  0  0  0  0  0  0  # atno 17320 bound_to 7965
  146.0532  140.8047  142.9771 LP  0  0  0  0  0  0  0  0  0  0  0  0  # atno 17321 bound_to 7965
  140.0174  144.6179  150.7596 LP  0  0  0  0  0  0  0  0  0  0  0  0  # atno 17342 bound_to 10162
  140.7415  143.2819  151.3574 LP  0  0  0  0  0  0  0  0  0  0  0  0  # atno 17343 bound_to 10162
  157.2254  130.6500  149.5828 LP  0  0  0  0  0  0  0  0  0  0  0  0  # atno 17370 bound_to 10713
  155.9712  130.4616  150.6114 LP  0  0  0  0  0  0  0  0  0  0  0  0  # atno 17371 bound_to 10713
  139.8817  135.0033  156.6177 LP  0  0  0  0  0  0  0  0  0  0  0  0  # atno 17394 bound_to 11000
  140.7750  133.8707  155.8522 LP  0  0  0  0  0  0  0  0  0  0  0  0  # atno 17395 bound_to 11000

$$$$
