AV-unprocessed.smi:1813|AV-procd|sdf|7343|dock3
  -GOLD-   22720 9 03D 1   1.00000     0.00000
 Structure written by MMmdl.
 38 39  0  0  0  0  0  0  0  0  2 V2000
  146.6443  134.8736  153.3803 C   0  0  0  0  0  0  0  0  0  0  0  0
  146.9012  136.2228  152.9016 N   0  0  0  0  0  0  0  0  0  0  0  0
  145.9793  137.1952  152.8505 C   0  0  0  0  0  0  0  0  0  0  0  0
  144.8098  137.0386  153.2004 O   0  0  0  0  0  0  0  0  0  0  0  0
  146.4455  138.5540  152.3150 C   0  0  0  0  0  0  0  0  0  0  0  0
  147.0623  139.4410  153.3284 N   0  0  0  0  0  0  0  0  0  0  0  0
  147.1462  140.8384  152.8772 C   0  0  0  0  0  0  0  0  0  0  0  0
  147.7265  141.7319  153.9877 C   0  0  0  0  0  0  0  0  0  0  0  0
  149.1141  141.2448  154.4265 C   0  0  0  0  0  0  0  0  0  0  0  0
  149.5868  142.0424  155.5548 N   0  0  0  0  0  0  0  0  0  0  0  0
  150.6906  141.8085  156.2792 C   0  0  0  0  0  0  0  0  0  0  0  0
  151.4089  140.8417  156.0133 O   0  0  0  0  0  0  0  0  0  0  0  0
  150.8932  142.7098  157.2671 N   0  5  0  0  0  0  0  0  0  0  0  0
  151.7447  142.4307  158.2675 C   0  0  0  0  0  0  0  0  0  0  0  0
  152.3568  141.2479  158.3955 N   0  0  0  0  0  0  0  0  0  0  0  0
  153.1933  141.1732  159.5107 C   0  0  0  0  0  0  0  0  0  0  0  0
  153.2109  142.3228  160.2551 C   0  0  0  0  0  0  0  0  0  0  0  0
  152.1719  143.5411  159.5725 S   0  0  0  0  0  0  0  0  0  0  0  0
  149.0223  139.7572  154.8030 C   0  0  0  0  0  0  0  0  0  0  0  0
  148.3984  138.9358  153.6618 C   0  0  0  0  0  0  0  0  0  0  0  0
  147.5550  134.2780  153.3189 H   0  0  0  0  0  0  0  0  0  0  0  0
  145.8766  134.3869  152.7775 H   0  0  0  0  0  0  0  0  0  0  0  0
  146.3152  134.8870  154.4202 H   0  0  0  0  0  0  0  0  0  0  0  0
  147.8407  136.4384  152.6002 H   0  0  0  0  0  0  0  0  0  0  0  0
  147.1644  138.3563  151.5186 H   0  0  0  0  0  0  0  0  0  0  0  0
  145.5989  139.0616  151.8487 H   0  0  0  0  0  0  0  0  0  0  0  0
  147.7596  140.9070  151.9769 H   0  0  0  0  0  0  0  0  0  0  0  0
  146.1608  141.2242  152.6166 H   0  0  0  0  0  0  0  0  0  0  0  0
  147.7877  142.7626  153.6366 H   0  0  0  0  0  0  0  0  0  0  0  0
  147.0454  141.7362  154.8405 H   0  0  0  0  0  0  0  0  0  0  0  0
  149.8013  141.3625  153.5865 H   0  0  0  0  0  0  0  0  0  0  0  0
  149.0289  142.8437  155.8111 H   0  0  0  0  0  0  0  0  0  0  0  0
  153.7381  140.2602  159.6993 H   0  0  0  0  0  0  0  0  0  0  0  0
  153.7667  142.5267  161.1576 H   0  0  0  0  0  0  0  0  0  0  0  0
  150.0134  139.3660  155.0357 H   0  0  0  0  0  0  0  0  0  0  0  0
  148.4234  139.6372  155.7072 H   0  0  0  0  0  0  0  0  0  0  0  0
  148.3317  137.8934  153.9765 H   0  0  0  0  0  0  0  0  0  0  0  0
  149.0450  138.9605  152.7827 H   0  0  0  0  0  0  0  0  0  0  0  0
  1  2  1  0  0  0  0
  1 21  1  0  0  0  0
  1 22  1  0  0  0  0
  1 23  1  0  0  0  0
  2  3  1  0  0  0  0
  2 24  1  0  0  0  0
  3  4  2  0  0  0  0
  3  5  1  0  0  0  0
  5  6  1  0  0  0  0
  5 25  1  0  0  0  0
  5 26  1  0  0  0  0
  6 20  1  0  0  0  0
  6  7  1  0  0  0  0
  7  8  1  0  0  0  0
  7 27  1  0  0  0  0
  7 28  1  0  0  0  0
  8  9  1  0  0  0  0
  8 29  1  0  0  0  0
  8 30  1  0  0  0  0
  9 10  1  0  0  0  0
  9 19  1  0  0  0  0
  9 31  1  0  0  0  0
 10 11  1  0  0  0  0
 10 32  1  0  0  0  0
 11 12  2  0  0  0  0
 11 13  1  0  0  0  0
 13 14  1  0  0  0  0
 14 18  1  0  0  0  0
 14 15  2  0  0  0  0
 15 16  1  0  0  0  0
 16 17  2  0  0  0  0
 16 33  1  0  0  0  0
 17 18  1  0  0  0  0
 17 34  1  0  0  0  0
 19 20  1  0  0  0  0
 19 35  1  0  0  0  0
 19 36  1  0  0  0  0
 20 37  1  0  0  0  0
 20 38  1  0  0  0  0
M  CHG  1  13  -1
M  END
> <s_m_source_file>
AV-unprocessed.smi

> <i_m_source_file_index>
1813

> <i_lp_mmshare_version>
43012

> <i_f3d_flags>
0

> <s_epik_input>
W0NIM11bTkhdQyg9TylbQ0gyXU4xW0NIMl1bQ0gyXVtDSF0oW0NIMl1bQ0gyXTEpW05IXUMoPU8pW05IXWMybltjSF1bY0hdczI=

> <s_epik_cmdline>
J2VwaWtfcHl0aG9uJywgJy1waCcsICc3LjAnLCAnLXRuJywgJzgnLCAnLW1hJywgJzIwMCcsICctbWV0YWxfYmluZGluZycsICctaW1hZScsICc8aW5maWxlLm1hZT4nLCAnLW9tYWUnLCAnPG91dGZpbGUubWFlPic=

> <r_lp_tautomer_probability>
0.999

> <r_epik_Ionization_Penalty>
7.12803

> <r_epik_Ionization_Penalty_Charging>
5.8513

> <r_epik_Ionization_Penalty_Neutral>
1.27674

> <r_epik_State_Penalty>
5.99796

> <r_epik_Charging_Adjusted_Penalty>
11.8493

> <i_epik_Tot_Q>
-1

> <i_epik_Tot_abs_Q>
1

> <r_epik_Metal_State_Penalty>
1.97283

> <b_epik_Metal_Only>
1

> <s_lp_Force_Field>
OPLS_2005

> <r_lp_Energy>
7.89498

> <b_lp_Chiralities_Consistent>
1

> <s_lp_Variant>
AV-unprocessed.smi:1813-4

> <Gold.Version>
5.8.1

> <Gold.Id.Protein>
6NUR|6NUR_protein|mol2

> <Gold.PLP.Fitness>
40.3095

> <Gold.PLP.PLP>
-35.3628

> <Gold.PLP.part.hbond>
-1.8427

> <Gold.PLP.part.metal>
0.0000

> <Gold.PLP.part.buried>
-3.9551

> <Gold.PLP.part.nonpolar>
-30.2871

> <Gold.PLP.part.repulsive>
0.6645

> <Gold.PLP.ligand.clash>
0.0000

> <Gold.PLP.ligand.torsion>
0.5816

> <Gold.PLP.Chemscore.Hbond>
2.0000

> <Gold.PLP.Chemscore.CHOScore>
0.0000

> <Gold.PLP.Chemscore.Metal>
0.0000

> <Gold.Chemscore.Hbonds>
donor molecule, donor type, donor heavy atom, donor atom, acceptor molecule, acceptor atom, score
      L1  H     2    24       P1  7948  0.55
      L1  H    10    32       P1  8028  0.88

> <Gold.PLP.Chemscore.Internal.Correction>
0.1099

> <Gold.Rescore>
     Score         DG    S(hbond)    S(metal)    S(lipo)     H(rot)  DE(clash)    DE(int)     intcor
     13.16     -16.61       1.97        0.00      76.65       1.73       0.07       3.38       ----

> <Gold.Chemscore.Fitness>
13.1565

> <Gold.Chemscore.DG>
-16.6052

> <Gold.Chemscore.ZeroCoef>
-5.4800

> <Gold.Chemscore.Hbond>
1.9748

> <Gold.Chemscore.Metal>
0.0000

> <Gold.Chemscore.Lipo>
76.6533

> <Gold.Chemscore.Internal_Hbond>
0.0000

> <Gold.Chemscore.DEClash>
0.0732

> <Gold.Chemscore.DEInternal>
3.3755

> <Gold.Chemscore.Rot>
1.7341

> <Gold.Chemscore.Internal.Correction>
   9.000000E+99

> <Gold.Chemscore.Hbonds>
donor molecule, donor type, donor heavy atom, donor atom, acceptor molecule, acceptor atom, score
      L1  H     2    24       P1  7948  0.52
      L1  H    10    32       P1  8028  0.86

> <Gold.Chemscore.Hbond.Weighted>
-6.5960

> <Gold.Chemscore.Metal.Weighted>
-0.0000

> <Gold.Chemscore.Lipo.Weighted>
-8.9684

> <Gold.Chemscore.Internal_Hbond.Weighted>
0.0000

> <Gold.Chemscore.DEClash.Weighted>
0.0732

> <Gold.Chemscore.DEInternal.Weighted>
3.3755

> <Gold.Chemscore.Rot.Weighted>
4.4392

> <Gold.Chemscore.Internal.Correction.Weighted>
   9.000000E+99

> <Gold.Protein.RotatedTorsions>
[ 6907 6896 6895 6894 ] final  -50.92 input  -60.11 | X-H torsion
[ 7974 7965 7964 7962 ] final -115.64 input  175.53 | X-H torsion
[ 8008 7997 7996 7995 ] final    0.18 input   59.86 | X-H torsion
[ 10167 10162 10161 10158 ] final  144.25 input  -65.29 | X-H torsion
[ 10718 10713 10712 10709 ] final -162.07 input   66.30 | X-H torsion
[ 10763 10752 10751 10750 ] final -152.38 input  -60.55 | X-H torsion
[ 11005 11000 10999 10996 ] final  -44.21 input  -57.11 | X-H torsion

> <Gold.Protein.ActiveResidues>
 VAL166  LYS551  ARG553  GLY616  TRP617  ASP618  TYR619  PRO620  LYS621  CYS622 
 ASP623  PHE694  ASN695  SER759  ASP760  ASP761  ALA762  ILE779  LEU786  VAL792 
 PHE793  MET794  SER795  GLU796  ALA797  LYS798  CYS799  TRP800  GLU811  SER814 

> <Gold.Protein.RotatedAtoms>
  150.8660  134.8024  159.7118 H   0  0  0  0  0  0  0  0  0  0  0  0  # atno 6907 bound_to 6896
  152.4681  134.5022  159.9738 H   0  0  0  0  0  0  0  0  0  0  0  0  # atno 6908 bound_to 6896
  151.5118  133.3445  159.2922 H   0  0  0  0  0  0  0  0  0  0  0  0  # atno 6909 bound_to 6896
  145.1060  140.8582  143.3898 H   0  0  0  0  0  0  0  0  0  0  0  0  # atno 7974 bound_to 7965
  154.6651  140.2599  155.7066 H   0  0  0  0  0  0  0  0  0  0  0  0  # atno 8008 bound_to 7997
  156.2635  140.2840  156.1061 H   0  0  0  0  0  0  0  0  0  0  0  0  # atno 8009 bound_to 7997
  155.1250  140.0377  157.2750 H   0  0  0  0  0  0  0  0  0  0  0  0  # atno 8010 bound_to 7997
  139.4951  144.5984  151.6533 H   0  0  0  0  0  0  0  0  0  0  0  0  # atno 10167 bound_to 10162
  156.6052  130.8827  151.2923 H   0  0  0  0  0  0  0  0  0  0  0  0  # atno 10718 bound_to 10713
  154.7998  135.3237  154.7579 H   0  0  0  0  0  0  0  0  0  0  0  0  # atno 10763 bound_to 10752
  153.8249  135.6884  153.4826 H   0  0  0  0  0  0  0  0  0  0  0  0  # atno 10764 bound_to 10752
  153.1708  135.4624  154.9842 H   0  0  0  0  0  0  0  0  0  0  0  0  # atno 10765 bound_to 10752
  141.0435  133.6770  156.2841 H   0  0  0  0  0  0  0  0  0  0  0  0  # atno 11005 bound_to 11000
  145.0901  139.2896  143.5739 LP  0  0  0  0  0  0  0  0  0  0  0  0  # atno 17320 bound_to 7965
  146.3528  140.0435  142.8641 LP  0  0  0  0  0  0  0  0  0  0  0  0  # atno 17321 bound_to 7965
  140.5628  144.0240  150.6178 LP  0  0  0  0  0  0  0  0  0  0  0  0  # atno 17342 bound_to 10162
  140.3331  143.3065  152.0666 LP  0  0  0  0  0  0  0  0  0  0  0  0  # atno 17343 bound_to 10162
  157.7269  130.9635  150.1675 LP  0  0  0  0  0  0  0  0  0  0  0  0  # atno 17370 bound_to 10713
  156.2435  130.3693  149.8310 LP  0  0  0  0  0  0  0  0  0  0  0  0  # atno 17371 bound_to 10713
  140.6190  134.5381  157.5545 LP  0  0  0  0  0  0  0  0  0  0  0  0  # atno 17394 bound_to 11000
  139.9294  134.7993  156.0974 LP  0  0  0  0  0  0  0  0  0  0  0  0  # atno 17395 bound_to 11000

$$$$
