AV-unprocessed.smi:2931|AV-procd|sdf|11245|dock1
  -GOLD-   2272016143D 1   1.00000     0.00000
 Structure written by MMmdl.
 42 43  0  0  0  0  0  0  0  0  2 V2000
  145.8741  132.1358  149.5569 C   0  0  0  0  0  0  0  0  0  0  0  0
  146.5214  131.8058  150.8448 N   0  3  2  0  0  0  0  0  0  0  0  0
  145.6555  130.9734  151.7167 C   0  0  0  0  0  0  0  0  0  0  0  0
  146.4070  130.5404  152.9865 C   0  0  0  0  0  0  0  0  0  0  0  0
  146.9511  131.7573  153.7477 C   0  0  0  0  0  0  0  0  0  0  0  0
  147.8151  132.6234  152.8136 C   0  0  2  0  0  0  0  0  0  0  0  0
  148.2716  133.8278  153.5003 N   0  0  0  0  0  0  0  0  0  0  0  0
  148.7614  133.8613  154.7473 C   0  0  0  0  0  0  0  0  0  0  0  0
  148.8620  132.8719  155.4728 O   0  0  0  0  0  0  0  0  0  0  0  0
  149.1454  135.0972  155.0986 N   0  0  0  0  0  0  0  0  0  0  0  0
  149.7897  135.4552  156.3606 C   0  0  0  0  0  0  0  0  0  0  0  0
  151.2032  136.0318  156.1493 C   0  0  0  0  0  0  0  0  0  0  0  0
  151.2094  137.4752  155.6749 C   0  0  0  0  0  0  0  0  0  0  0  0
  150.2522  137.9288  154.7443 C   0  0  0  0  0  0  0  0  0  0  0  0
  150.2816  139.2828  154.3553 C   0  0  0  0  0  0  0  0  0  0  0  0
  151.1848  140.1701  154.8255 N   0  0  0  0  0  0  0  0  0  0  0  0
  152.1029  139.7268  155.7110 C   0  0  0  0  0  0  0  0  0  0  0  0
  152.1584  138.3950  156.1680 C   0  0  0  0  0  0  0  0  0  0  0  0
  147.0249  133.0113  151.5496 C   0  0  0  0  0  0  0  0  0  0  0  0
  144.9848  132.7485  149.7110 H   0  0  0  0  0  0  0  0  0  0  0  0
  145.5780  131.2278  149.0310 H   0  0  0  0  0  0  0  0  0  0  0  0
  146.5603  132.6845  148.9110 H   0  0  0  0  0  0  0  0  0  0  0  0
  144.7580  131.5340  151.9837 H   0  0  0  0  0  0  0  0  0  0  0  0
  145.3264  130.0892  151.1693 H   0  0  0  0  0  0  0  0  0  0  0  0
  145.7466  129.9617  153.6327 H   0  0  0  0  0  0  0  0  0  0  0  0
  147.2316  129.8793  152.7161 H   0  0  0  0  0  0  0  0  0  0  0  0
  146.1195  132.3449  154.1392 H   0  0  0  0  0  0  0  0  0  0  0  0
  147.5328  131.4265  154.6090 H   0  0  0  0  0  0  0  0  0  0  0  0
  148.6838  132.0413  152.4980 H   0  0  0  0  0  0  0  0  0  0  0  0
  148.2282  134.6944  152.9841 H   0  0  0  0  0  0  0  0  0  0  0  0
  149.0151  135.8431  154.4309 H   0  0  0  0  0  0  0  0  0  0  0  0
  149.1661  136.1946  156.8632 H   0  0  0  0  0  0  0  0  0  0  0  0
  149.8341  134.5940  157.0294 H   0  0  0  0  0  0  0  0  0  0  0  0
  151.7702  135.9588  157.0783 H   0  0  0  0  0  0  0  0  0  0  0  0
  151.7405  135.4244  155.4202 H   0  0  0  0  0  0  0  0  0  0  0  0
  149.5045  137.2590  154.3456 H   0  0  0  0  0  0  0  0  0  0  0  0
  149.5587  139.6640  153.6493 H   0  0  0  0  0  0  0  0  0  0  0  0
  152.8131  140.4570  156.0700 H   0  0  0  0  0  0  0  0  0  0  0  0
  152.9086  138.0926  156.8837 H   0  0  0  0  0  0  0  0  0  0  0  0
  147.6690  133.5793  150.8765 H   0  0  0  0  0  0  0  0  0  0  0  0
  146.1850  133.6590  151.8077 H   0  0  0  0  0  0  0  0  0  0  0  0
  147.3309  131.2437  150.6227 H   0  0  0  0  0  0  0  0  0  0  0  0
  1  2  1  0  0  0  0
  1 20  1  0  0  0  0
  1 21  1  0  0  0  0
  1 22  1  0  0  0  0
  2 19  1  0  0  0  0
  2  3  1  0  0  0  0
  2 42  1  0  0  0  0
  3  4  1  0  0  0  0
  3 23  1  0  0  0  0
  3 24  1  0  0  0  0
  4  5  1  0  0  0  0
  4 25  1  0  0  0  0
  4 26  1  0  0  0  0
  5  6  1  0  0  0  0
  5 27  1  0  0  0  0
  5 28  1  0  0  0  0
  6  7  1  0  0  0  0
  6 19  1  0  0  0  0
  6 29  1  0  0  0  0
  7  8  1  0  0  0  0
  7 30  1  0  0  0  0
  8  9  2  0  0  0  0
  8 10  1  0  0  0  0
 10 11  1  0  0  0  0
 10 31  1  0  0  0  0
 11 12  1  0  0  0  0
 11 32  1  0  0  0  0
 11 33  1  0  0  0  0
 12 13  1  0  0  0  0
 12 34  1  0  0  0  0
 12 35  1  0  0  0  0
 13 18  1  0  0  0  0
 13 14  2  0  0  0  0
 14 15  1  0  0  0  0
 14 36  1  0  0  0  0
 15 16  2  0  0  0  0
 15 37  1  0  0  0  0
 16 17  1  0  0  0  0
 17 18  2  0  0  0  0
 17 38  1  0  0  0  0
 18 39  1  0  0  0  0
 19 40  1  0  0  0  0
 19 41  1  0  0  0  0
M  CHG  1   2   1
M  END
> <s_m_source_file>
AV-unprocessed.smi

> <i_m_source_file_index>
2931

> <i_lp_mmshare_version>
43012

> <i_f3d_flags>
0

> <s_epik_input>
W0NIM11OMVtDSDJdW0NIMl1bQ0gyXVtDQEhdKFtDSDJdMSlbTkhdQyg9TylbTkhdW0NIMl1bQ0gyXWMyW2NIXVtjSF1uW2NIXVtjSF0y

> <s_epik_cmdline>
J2VwaWtfcHl0aG9uJywgJy1waCcsICc3LjAnLCAnLXRuJywgJzgnLCAnLW1hJywgJzIwMCcsICctbWV0YWxfYmluZGluZycsICctaW1hZScsICc8aW5maWxlLm1hZT4nLCAnLW9tYWUnLCAnPG91dGZpbGUubWFlPic=

> <r_epik_Ionization_Penalty>
0.0573876

> <r_epik_Ionization_Penalty_Charging>
0.00229982

> <r_epik_Ionization_Penalty_Neutral>
0.0550878

> <r_epik_State_Penalty>
0.0473925

> <r_epik_Charging_Adjusted_Penalty>
0.0496923

> <i_epik_Tot_Q>
1

> <i_epik_Tot_abs_Q>
1

> <r_epik_Metal_State_Penalty>
0.0433388

> <b_epik_Metal_Only>
0

> <s_lp_Force_Field>
OPLS_2005

> <r_lp_Energy>
13.2125

> <b_lp_Chiralities_Consistent>
1

> <s_lp_Variant>
AV-unprocessed.smi:2931-4

> <Gold.Version>
5.8.1

> <Gold.Id.Protein>
6NUR|6NUR_protein|mol2

> <Gold.PLP.Fitness>
43.6222

> <Gold.PLP.PLP>
-32.6889

> <Gold.PLP.part.hbond>
-2.9338

> <Gold.PLP.part.metal>
0.0000

> <Gold.PLP.part.buried>
-3.4026

> <Gold.PLP.part.nonpolar>
-26.5183

> <Gold.PLP.part.repulsive>
0.1397

> <Gold.PLP.ligand.clash>
0.0000

> <Gold.PLP.ligand.torsion>
0.5449

> <Gold.PLP.Chemscore.Hbond>
3.0000

> <Gold.PLP.Chemscore.CHOScore>
0.9996

> <Gold.PLP.Chemscore.Metal>
0.0000

> <Gold.Chemscore.Hbonds>
donor molecule, donor type, donor heavy atom, donor atom, acceptor molecule, acceptor atom, score
      L1  H     2    42       P1 10747  1.00
      L1  H     7    30       P1  7948  1.00
      P1  H  7989  7998       L1    16  1.00
      L1  C    15    37       P1  7957  1.00

> <Gold.PLP.Chemscore.Internal.Correction>
0.0242

> <Gold.Rescore>
     Score         DG    S(hbond)    S(metal)    S(lipo)     H(rot)  DE(clash)    DE(int)     intcor
     16.22     -18.98       2.21        0.00      86.42       1.56       0.02       2.73       ----

> <Gold.Chemscore.Fitness>
16.2210

> <Gold.Chemscore.DG>
-18.9779

> <Gold.Chemscore.ZeroCoef>
-5.4800

> <Gold.Chemscore.Hbond>
2.2090

> <Gold.Chemscore.Metal>
0.0000

> <Gold.Chemscore.Lipo>
86.4226

> <Gold.Chemscore.Internal_Hbond>
0.0000

> <Gold.Chemscore.DEClash>
0.0243

> <Gold.Chemscore.DEInternal>
2.7326

> <Gold.Chemscore.Rot>
1.5592

> <Gold.Chemscore.Internal.Correction>
   9.000000E+99

> <Gold.Chemscore.Hbonds>
donor molecule, donor type, donor heavy atom, donor atom, acceptor molecule, acceptor atom, score
      L1  H     2    42       P1 10747  0.99
      L1  H     7    30       P1  7948  0.62
      P1  H  7989  7998       L1    16  0.28

> <Gold.Chemscore.Hbond.Weighted>
-7.3780

> <Gold.Chemscore.Metal.Weighted>
-0.0000

> <Gold.Chemscore.Lipo.Weighted>
-10.1114

> <Gold.Chemscore.Internal_Hbond.Weighted>
0.0000

> <Gold.Chemscore.DEClash.Weighted>
0.0243

> <Gold.Chemscore.DEInternal.Weighted>
2.7326

> <Gold.Chemscore.Rot.Weighted>
3.9915

> <Gold.Chemscore.Internal.Correction.Weighted>
   9.000000E+99

> <Gold.Protein.RotatedTorsions>
[ 6907 6896 6895 6894 ] final   64.17 input  -60.11 | X-H torsion
[ 7974 7965 7964 7962 ] final  152.35 input  175.53 | X-H torsion
[ 8008 7997 7996 7995 ] final  -38.41 input   59.86 | X-H torsion
[ 10167 10162 10161 10158 ] final    1.06 input  -65.29 | X-H torsion
[ 10718 10713 10712 10709 ] final  129.10 input   66.30 | X-H torsion
[ 10763 10752 10751 10750 ] final   62.82 input  -60.55 | X-H torsion
[ 11005 11000 10999 10996 ] final   84.69 input  -57.11 | X-H torsion

> <Gold.Protein.ActiveResidues>
 VAL166  LYS551  ARG553  GLY616  TRP617  ASP618  TYR619  PRO620  LYS621  CYS622 
 ASP623  PHE694  ASN695  SER759  ASP760  ASP761  ALA762  ILE779  LEU786  VAL792 
 PHE793  MET794  SER795  GLU796  ALA797  LYS798  CYS799  TRP800  GLU811  SER814 

> <Gold.Protein.RotatedAtoms>
  152.4310  134.5777  159.9938 H   0  0  0  0  0  0  0  0  0  0  0  0  # atno 6907 bound_to 6896
  151.5900  133.3362  159.3034 H   0  0  0  0  0  0  0  0  0  0  0  0  # atno 6908 bound_to 6896
  150.8203  134.7443  159.6831 H   0  0  0  0  0  0  0  0  0  0  0  0  # atno 6909 bound_to 6896
  144.8229  139.6656  143.6093 H   0  0  0  0  0  0  0  0  0  0  0  0  # atno 7974 bound_to 7965
  154.4037  140.1578  156.2695 H   0  0  0  0  0  0  0  0  0  0  0  0  # atno 8008 bound_to 7997
  155.8966  140.3435  155.5973 H   0  0  0  0  0  0  0  0  0  0  0  0  # atno 8009 bound_to 7997
  155.7497  140.0803  157.2197 H   0  0  0  0  0  0  0  0  0  0  0  0  # atno 8010 bound_to 7997
  140.6700  143.7075  150.7903 H   0  0  0  0  0  0  0  0  0  0  0  0  # atno 10167 bound_to 10162
  157.5185  131.1098  150.9189 H   0  0  0  0  0  0  0  0  0  0  0  0  # atno 10718 bound_to 10713
  152.9996  135.5451  154.6253 H   0  0  0  0  0  0  0  0  0  0  0  0  # atno 10763 bound_to 10752
  154.5543  135.2829  155.0981 H   0  0  0  0  0  0  0  0  0  0  0  0  # atno 10764 bound_to 10752
  154.2209  135.6451  153.5197 H   0  0  0  0  0  0  0  0  0  0  0  0  # atno 10765 bound_to 10752
  139.8993  134.8234  156.2480 H   0  0  0  0  0  0  0  0  0  0  0  0  # atno 11005 bound_to 11000
  146.2534  139.6249  142.9411 LP  0  0  0  0  0  0  0  0  0  0  0  0  # atno 17320 bound_to 7965
  145.5065  141.0436  143.2511 LP  0  0  0  0  0  0  0  0  0  0  0  0  # atno 17321 bound_to 7965
  140.0758  143.5016  152.2556 LP  0  0  0  0  0  0  0  0  0  0  0  0  # atno 17342 bound_to 10162
  139.5964  144.7568  151.3275 LP  0  0  0  0  0  0  0  0  0  0  0  0  # atno 17343 bound_to 10162
  156.9806  130.5525  149.5296 LP  0  0  0  0  0  0  0  0  0  0  0  0  # atno 17370 bound_to 10713
  156.0337  130.5426  150.8599 LP  0  0  0  0  0  0  0  0  0  0  0  0  # atno 17371 bound_to 10713
  141.0242  133.7024  156.1319 LP  0  0  0  0  0  0  0  0  0  0  0  0  # atno 17394 bound_to 11000
  140.7190  134.4379  157.5576 LP  0  0  0  0  0  0  0  0  0  0  0  0  # atno 17395 bound_to 11000

$$$$
