AV-unprocessed.smi:2367|AV-procd|sdf|9424|dock3
  -GOLD-   2272013 63D 1   1.00000     0.00000
 Structure written by MMmdl.
 34 35  0  0  0  0  0  0  0  0  1 V2000
  148.5327  138.5772  154.8703 C   0  0  0  0  0  0  0  0  0  0  0  0
  147.9385  139.7110  155.4891 O   0  0  0  0  0  0  0  0  0  0  0  0
  148.0380  140.9408  154.7703 C   0  0  0  0  0  0  0  0  0  0  0  0
  149.4990  141.3273  154.4960 C   0  0  0  0  0  0  0  0  0  0  0  0
  150.0615  142.0702  155.6195 N   0  0  0  0  0  0  0  0  0  0  0  0
  150.7119  141.5338  156.6612 C   0  0  0  0  0  0  0  0  0  0  0  0
  150.8965  140.3253  156.8076 O   0  0  0  0  0  0  0  0  0  0  0  0
  151.1534  142.4824  157.5032 N   0  0  0  0  0  0  0  0  0  0  0  0
  151.8971  142.2770  158.6933 C   0  0  0  0  0  0  0  0  0  0  0  0
  152.5815  141.0547  158.8544 C   0  0  0  0  0  0  0  0  0  0  0  0
  153.3369  140.8524  160.0267 C   0  0  0  0  0  0  0  0  0  0  0  0
  153.4547  141.7776  161.0027 N   0  0  0  0  0  0  0  0  0  0  0  0
  152.8195  142.9572  160.8332 C   0  0  0  0  0  0  0  0  0  0  0  0
  152.0390  143.2631  159.7000 C   0  0  0  0  0  0  0  0  0  0  0  0
  151.4713  144.4878  159.5836 F   0  0  0  0  0  0  0  0  0  0  0  0
  147.0772  140.8682  153.5681 C   0  0  0  0  0  0  0  0  0  0  0  0
  146.5847  142.2719  153.9253 C   0  0  0  0  0  0  0  0  0  0  0  0
  147.0844  142.0073  155.3464 C   0  0  0  0  0  0  0  0  0  0  0  0
  148.4841  137.7308  155.5550 H   0  0  0  0  0  0  0  0  0  0  0  0
  149.5822  138.7459  154.6290 H   0  0  0  0  0  0  0  0  0  0  0  0
  148.0071  138.2882  153.9609 H   0  0  0  0  0  0  0  0  0  0  0  0
  150.1057  140.4310  154.3649 H   0  0  0  0  0  0  0  0  0  0  0  0
  149.5909  141.8738  153.5568 H   0  0  0  0  0  0  0  0  0  0  0  0
  149.9690  143.0747  155.5855 H   0  0  0  0  0  0  0  0  0  0  0  0
  151.0515  143.4404  157.2026 H   0  0  0  0  0  0  0  0  0  0  0  0
  152.5217  140.2805  158.1032 H   0  0  0  0  0  0  0  0  0  0  0  0
  153.8626  139.9220  160.1834 H   0  0  0  0  0  0  0  0  0  0  0  0
  152.9478  143.6860  161.6198 H   0  0  0  0  0  0  0  0  0  0  0  0
  147.5607  140.7961  152.5935 H   0  0  0  0  0  0  0  0  0  0  0  0
  146.2988  140.1116  153.6835 H   0  0  0  0  0  0  0  0  0  0  0  0
  147.1429  143.0602  153.4180 H   0  0  0  0  0  0  0  0  0  0  0  0
  145.5074  142.4151  153.8382 H   0  0  0  0  0  0  0  0  0  0  0  0
  146.3051  141.5917  155.9876 H   0  0  0  0  0  0  0  0  0  0  0  0
  147.5792  142.8572  155.8175 H   0  0  0  0  0  0  0  0  0  0  0  0
  1  2  1  0  0  0  0
  1 19  1  0  0  0  0
  1 20  1  0  0  0  0
  1 21  1  0  0  0  0
  2  3  1  0  0  0  0
  3 18  1  0  0  0  0
  3  4  1  0  0  0  0
  3 16  1  0  0  0  0
  4  5  1  0  0  0  0
  4 22  1  0  0  0  0
  4 23  1  0  0  0  0
  5  6  1  0  0  0  0
  5 24  1  0  0  0  0
  6  7  2  0  0  0  0
  6  8  1  0  0  0  0
  8  9  1  0  0  0  0
  8 25  1  0  0  0  0
  9 14  1  0  0  0  0
  9 10  2  0  0  0  0
 10 11  1  0  0  0  0
 10 26  1  0  0  0  0
 11 12  2  0  0  0  0
 11 27  1  0  0  0  0
 12 13  1  0  0  0  0
 13 14  2  0  0  0  0
 13 28  1  0  0  0  0
 14 15  1  0  0  0  0
 16 17  1  0  0  0  0
 16 29  1  0  0  0  0
 16 30  1  0  0  0  0
 17 18  1  0  0  0  0
 17 31  1  0  0  0  0
 17 32  1  0  0  0  0
 18 33  1  0  0  0  0
 18 34  1  0  0  0  0
M  END
> <s_m_source_file>
AV-unprocessed.smi

> <i_m_source_file_index>
2367

> <i_lp_mmshare_version>
43012

> <i_f3d_flags>
0

> <s_epik_input>
W0NIMl0xW0NIMl1bQ0gyXUMxKE9bQ0gzXSlbQ0gyXVtOSF1DKD1PKVtOSF1jMltjSF1bY0hdbltjSF1jMkY=

> <s_epik_cmdline>
J2VwaWtfcHl0aG9uJywgJy1waCcsICc3LjAnLCAnLXRuJywgJzgnLCAnLW1hJywgJzIwMCcsICctbWV0YWxfYmluZGluZycsICctaW1hZScsICc8aW5maWxlLm1hZT4nLCAnLW9tYWUnLCAnPG91dGZpbGUubWFlPic=

> <r_epik_Ionization_Penalty>
0.00342397

> <r_epik_Ionization_Penalty_Charging>
0

> <r_epik_Ionization_Penalty_Neutral>
0.00342397

> <r_epik_State_Penalty>
0.00239946

> <r_epik_Charging_Adjusted_Penalty>
0.00239946

> <i_epik_Tot_Q>
0

> <i_epik_Tot_abs_Q>
0

> <r_epik_Metal_State_Penalty>
-0

> <b_epik_Metal_Only>
0

> <s_lp_Force_Field>
OPLS_2005

> <r_lp_Energy>
23.3759

> <b_lp_Chiralities_Consistent>
1

> <s_lp_Variant>
AV-unprocessed.smi:2367-1

> <Gold.Version>
5.8.1

> <Gold.Id.Protein>
6NUR|6NUR_protein|mol2

> <Gold.PLP.Fitness>
37.7941

> <Gold.PLP.PLP>
-35.8992

> <Gold.PLP.part.hbond>
-1.0000

> <Gold.PLP.part.metal>
0.0000

> <Gold.PLP.part.buried>
-3.2448

> <Gold.PLP.part.nonpolar>
-30.9927

> <Gold.PLP.part.repulsive>
0.2168

> <Gold.PLP.ligand.clash>
0.0132

> <Gold.PLP.ligand.torsion>
0.7596

> <Gold.PLP.Chemscore.Hbond>
1.0000

> <Gold.PLP.Chemscore.CHOScore>
0.0000

> <Gold.PLP.Chemscore.Metal>
0.0000

> <Gold.Chemscore.Hbonds>
donor molecule, donor type, donor heavy atom, donor atom, acceptor molecule, acceptor atom, score
      L1  H     5    24       P1  8028  1.00

> <Gold.PLP.Chemscore.Internal.Correction>
0.4274

> <Gold.Rescore>
     Score         DG    S(hbond)    S(metal)    S(lipo)     H(rot)  DE(clash)    DE(int)     intcor
     15.68     -18.27       1.86        0.00      89.29       1.51       0.40       2.19       ----

> <Gold.Chemscore.Fitness>
15.6790

> <Gold.Chemscore.DG>
-18.2692

> <Gold.Chemscore.ZeroCoef>
-5.4800

> <Gold.Chemscore.Hbond>
1.8558

> <Gold.Chemscore.Metal>
0.0000

> <Gold.Chemscore.Lipo>
89.2933

> <Gold.Chemscore.Internal_Hbond>
0.0000

> <Gold.Chemscore.DEClash>
0.3959

> <Gold.Chemscore.DEInternal>
2.1943

> <Gold.Chemscore.Rot>
1.5064

> <Gold.Chemscore.Internal.Correction>
   9.000000E+99

> <Gold.Chemscore.Hbonds>
donor molecule, donor type, donor heavy atom, donor atom, acceptor molecule, acceptor atom, score
      L1  H     5    24       P1  8028  0.95

> <Gold.Chemscore.Hbond.Weighted>
-6.1983

> <Gold.Chemscore.Metal.Weighted>
-0.0000

> <Gold.Chemscore.Lipo.Weighted>
-10.4473

> <Gold.Chemscore.Internal_Hbond.Weighted>
0.0000

> <Gold.Chemscore.DEClash.Weighted>
0.3959

> <Gold.Chemscore.DEInternal.Weighted>
2.1943

> <Gold.Chemscore.Rot.Weighted>
3.8563

> <Gold.Chemscore.Internal.Correction.Weighted>
   9.000000E+99

> <Gold.Protein.RotatedTorsions>
[ 6907 6896 6895 6894 ] final -178.18 input  -60.11 | X-H torsion
[ 7974 7965 7964 7962 ] final -179.61 input  175.53 | X-H torsion
[ 8008 7997 7996 7995 ] final  129.75 input   59.86 | X-H torsion
[ 10167 10162 10161 10158 ] final  -77.07 input  -65.29 | X-H torsion
[ 10718 10713 10712 10709 ] final   23.31 input   66.30 | X-H torsion
[ 10763 10752 10751 10750 ] final   20.05 input  -60.55 | X-H torsion
[ 11005 11000 10999 10996 ] final  -43.99 input  -57.11 | X-H torsion

> <Gold.Protein.ActiveResidues>
 VAL166  LYS551  ARG553  GLY616  TRP617  ASP618  TYR619  PRO620  LYS621  CYS622 
 ASP623  PHE694  ASN695  SER759  ASP760  ASP761  ALA762  ILE779  LEU786  VAL792 
 PHE793  MET794  SER795  GLU796  ALA797  LYS798  CYS799  TRP800  GLU811  SER814 

> <Gold.Protein.RotatedAtoms>
  151.6330  133.3331  159.3112 H   0  0  0  0  0  0  0  0  0  0  0  0  # atno 6907 bound_to 6896
  150.8046  134.7167  159.6644 H   0  0  0  0  0  0  0  0  0  0  0  0  # atno 6908 bound_to 6896
  152.4141  134.6077  160.0068 H   0  0  0  0  0  0  0  0  0  0  0  0  # atno 6909 bound_to 6896
  144.7138  140.0692  143.6430 H   0  0  0  0  0  0  0  0  0  0  0  0  # atno 7974 bound_to 7965
  156.2942  140.2613  156.2649 H   0  0  0  0  0  0  0  0  0  0  0  0  # atno 8008 bound_to 7997
  154.9752  140.0390  157.2271 H   0  0  0  0  0  0  0  0  0  0  0  0  # atno 8009 bound_to 7997
  154.7822  140.2797  155.6059 H   0  0  0  0  0  0  0  0  0  0  0  0  # atno 8010 bound_to 7997
  140.4802  143.2404  151.8070 H   0  0  0  0  0  0  0  0  0  0  0  0  # atno 10167 bound_to 10162
  157.1643  130.6731  149.6055 H   0  0  0  0  0  0  0  0  0  0  0  0  # atno 10718 bound_to 10713
  153.1110  135.6696  153.9500 H   0  0  0  0  0  0  0  0  0  0  0  0  # atno 10763 bound_to 10752
  153.9043  135.3032  155.3450 H   0  0  0  0  0  0  0  0  0  0  0  0  # atno 10764 bound_to 10752
  154.7530  135.5025  153.9400 H   0  0  0  0  0  0  0  0  0  0  0  0  # atno 10765 bound_to 10752
  141.0421  133.6776  156.2810 H   0  0  0  0  0  0  0  0  0  0  0  0  # atno 11005 bound_to 11000
  145.9798  139.2933  143.1048 LP  0  0  0  0  0  0  0  0  0  0  0  0  # atno 17320 bound_to 7965
  145.9023  140.9235  143.0496 LP  0  0  0  0  0  0  0  0  0  0  0  0  # atno 17321 bound_to 7965
  139.4832  144.4782  151.9340 LP  0  0  0  0  0  0  0  0  0  0  0  0  # atno 17342 bound_to 10162
  140.3867  144.2667  150.5903 LP  0  0  0  0  0  0  0  0  0  0  0  0  # atno 17343 bound_to 10162
  155.9748  130.4701  150.6418 LP  0  0  0  0  0  0  0  0  0  0  0  0  # atno 17370 bound_to 10713
  157.4103  131.0822  151.1227 LP  0  0  0  0  0  0  0  0  0  0  0  0  # atno 17371 bound_to 10713
  140.6215  134.5356  157.5548 LP  0  0  0  0  0  0  0  0  0  0  0  0  # atno 17394 bound_to 11000
  139.9283  134.8012  156.1003 LP  0  0  0  0  0  0  0  0  0  0  0  0  # atno 17395 bound_to 11000

$$$$
