AV-unprocessed.smi:922|AV-procd|sdf|4176|dock5
  -GOLD-   22720 2 83D 1   1.00000     0.00000
 Structure written by MMmdl.
 33 34  0  0  0  0  0  0  0  0  1 V2000
  152.1311  142.1699  158.3272 C   0  0  0  0  0  0  0  0  0  0  0  0
  151.2902  141.2355  157.4517 C   0  0  1  0  0  0  0  0  0  0  0  0
  150.6025  141.9934  156.3008 C   0  0  0  0  0  0  0  0  0  0  0  0
  149.9075  141.0617  155.4221 N   0  0  0  0  0  0  0  0  0  0  0  0
  148.5648  141.1530  155.0519 C   0  0  0  0  0  0  0  0  0  0  0  0
  148.1588  140.7713  153.7030 C   0  0  0  0  0  0  0  0  0  0  0  0
  146.9404  140.8296  153.2879 N   0  0  0  0  0  0  0  0  0  0  0  0
  145.9777  141.2745  154.1573 N   0  0  0  0  0  0  0  0  0  0  0  0
  146.1671  141.6639  155.4391 C   0  0  0  0  0  0  0  0  0  0  0  0
  145.2281  142.0435  156.1364 O   0  0  0  0  0  0  0  0  0  0  0  0
  147.5667  141.5819  155.8835 C   0  0  0  0  0  0  0  0  0  0  0  0
  147.8680  142.0055  157.5358 Cl  0  0  0  0  0  0  0  0  0  0  0  0
  150.8315  140.0694  154.8842 C   0  0  0  0  0  0  0  0  0  0  0  0
  151.5424  139.2981  156.0200 C   0  0  0  0  0  0  0  0  0  0  0  0
  150.5761  138.3625  156.7777 C   0  0  0  0  0  0  0  0  0  0  0  0
  152.6977  138.4681  155.4396 C   0  0  0  0  0  0  0  0  0  0  0  0
  152.1566  140.2372  156.9106 O   0  0  0  0  0  0  0  0  0  0  0  0
  145.0465  141.2985  153.7670 H   0  0  0  0  0  0  0  0  0  0  0  0
  151.5125  142.9464  158.7780 H   0  0  0  0  0  0  0  0  0  0  0  0
  152.9128  142.6592  157.7454 H   0  0  0  0  0  0  0  0  0  0  0  0
  152.6123  141.6181  159.1348 H   0  0  0  0  0  0  0  0  0  0  0  0
  150.5443  140.7625  158.0892 H   0  0  0  0  0  0  0  0  0  0  0  0
  149.9168  142.7472  156.6871 H   0  0  0  0  0  0  0  0  0  0  0  0
  151.3465  142.5325  155.7129 H   0  0  0  0  0  0  0  0  0  0  0  0
  148.9611  140.4310  153.0481 H   0  0  0  0  0  0  0  0  0  0  0  0
  150.3086  139.3656  154.2356 H   0  0  0  0  0  0  0  0  0  0  0  0
  151.5631  140.5845  154.2603 H   0  0  0  0  0  0  0  0  0  0  0  0
  150.1968  137.5801  156.1199 H   0  0  0  0  0  0  0  0  0  0  0  0
  149.7081  138.8887  157.1735 H   0  0  0  0  0  0  0  0  0  0  0  0
  151.0770  137.8755  157.6147 H   0  0  0  0  0  0  0  0  0  0  0  0
  152.3351  137.7257  154.7277 H   0  0  0  0  0  0  0  0  0  0  0  0
  153.2370  137.9382  156.2256 H   0  0  0  0  0  0  0  0  0  0  0  0
  153.4169  139.1017  154.9196 H   0  0  0  0  0  0  0  0  0  0  0  0
  1  2  1  0  0  0  0
  1 19  1  0  0  0  0
  1 20  1  0  0  0  0
  1 21  1  0  0  0  0
  2 17  1  0  0  0  0
  2  3  1  0  0  0  0
  2 22  1  0  0  0  0
  3  4  1  0  0  0  0
  3 23  1  0  0  0  0
  3 24  1  0  0  0  0
  4  5  1  0  0  0  0
  4 13  1  0  0  0  0
  5 11  2  0  0  0  0
  5  6  1  0  0  0  0
  6  7  2  0  0  0  0
  6 25  1  0  0  0  0
  7  8  1  0  0  0  0
  8 18  1  0  0  0  0
  8  9  1  0  0  0  0
  9 10  2  0  0  0  0
  9 11  1  0  0  0  0
 11 12  1  0  0  0  0
 13 14  1  0  0  0  0
 13 26  1  0  0  0  0
 13 27  1  0  0  0  0
 14 15  1  0  0  0  0
 14 16  1  0  0  0  0
 14 17  1  0  0  0  0
 15 28  1  0  0  0  0
 15 29  1  0  0  0  0
 15 30  1  0  0  0  0
 16 31  1  0  0  0  0
 16 32  1  0  0  0  0
 16 33  1  0  0  0  0
M  END
> <s_m_source_file>
AV-unprocessed.smi

> <i_m_source_file_index>
922

> <i_lp_mmshare_version>
43012

> <i_f3d_flags>
0

> <s_epik_input>
W0NIM11bQ0BASF0oTzEpW0NIMl1OKFtDSDJdQzEoW0NIM10pW0NIM10pYzJbY0hdbltuSF1jKD1PKWMyQ2w=

> <s_epik_cmdline>
J2VwaWtfcHl0aG9uJywgJy1waCcsICc3LjAnLCAnLXRuJywgJzgnLCAnLW1hJywgJzIwMCcsICctbWV0YWxfYmluZGluZycsICctaW1hZScsICc8aW5maWxlLm1hZT4nLCAnLW9tYWUnLCAnPG91dGZpbGUubWFlPic=

> <r_lp_tautomer_probability>
0.986175

> <r_epik_Ionization_Penalty>
0.00909695

> <r_epik_Ionization_Penalty_Charging>
0.00909694

> <r_epik_Ionization_Penalty_Neutral>
4.87729e-09

> <r_epik_State_Penalty>
1.54226

> <r_epik_Charging_Adjusted_Penalty>
1.55136

> <i_epik_Tot_Q>
0

> <i_epik_Tot_abs_Q>
0

> <r_epik_Metal_State_Penalty>
3.93934

> <b_epik_Metal_Only>
0

> <s_lp_Force_Field>
OPLS_2005

> <r_lp_Energy>
35.5656

> <b_lp_Chiralities_Consistent>
1

> <s_lp_Variant>
AV-unprocessed.smi:922-4

> <Gold.Version>
5.8.1

> <Gold.Id.Protein>
6NUR|6NUR_protein|mol2

> <Gold.PLP.Fitness>
31.0221

> <Gold.PLP.PLP>
-25.0461

> <Gold.PLP.part.hbond>
-1.5786

> <Gold.PLP.part.metal>
0.0000

> <Gold.PLP.part.buried>
-0.1705

> <Gold.PLP.part.nonpolar>
-24.1962

> <Gold.PLP.part.repulsive>
0.2591

> <Gold.PLP.ligand.clash>
0.0000

> <Gold.PLP.ligand.torsion>
0.4672

> <Gold.PLP.Chemscore.Hbond>
0.9920

> <Gold.PLP.Chemscore.CHOScore>
1.0000

> <Gold.PLP.Chemscore.Metal>
0.0000

> <Gold.Chemscore.Hbonds>
donor molecule, donor type, donor heavy atom, donor atom, acceptor molecule, acceptor atom, score
      L1  H     8    18       P1 10175  0.97
      L1  C     6    25       P1  7957  1.00

> <Gold.PLP.Chemscore.Internal.Correction>
0.9344

> <Gold.Rescore>
     Score         DG    S(hbond)    S(metal)    S(lipo)     H(rot)  DE(clash)    DE(int)     intcor
     14.60     -16.15       0.99        0.00      62.96       0.00       0.06       1.49       ----

> <Gold.Chemscore.Fitness>
14.5951

> <Gold.Chemscore.DG>
-16.1485

> <Gold.Chemscore.ZeroCoef>
-5.4800

> <Gold.Chemscore.Hbond>
0.9886

> <Gold.Chemscore.Metal>
0.0000

> <Gold.Chemscore.Lipo>
62.9627

> <Gold.Chemscore.Internal_Hbond>
0.0000

> <Gold.Chemscore.DEClash>
0.0592

> <Gold.Chemscore.DEInternal>
1.4942

> <Gold.Chemscore.Rot>
0.0000

> <Gold.Chemscore.Internal.Correction>
   9.000000E+99

> <Gold.Chemscore.Hbonds>
donor molecule, donor type, donor heavy atom, donor atom, acceptor molecule, acceptor atom, score
      L1  H     8    18       P1 10175  0.35

> <Gold.Chemscore.Hbond.Weighted>
-3.3019

> <Gold.Chemscore.Metal.Weighted>
-0.0000

> <Gold.Chemscore.Lipo.Weighted>
-7.3666

> <Gold.Chemscore.Internal_Hbond.Weighted>
0.0000

> <Gold.Chemscore.DEClash.Weighted>
0.0592

> <Gold.Chemscore.DEInternal.Weighted>
1.4942

> <Gold.Chemscore.Rot.Weighted>
0.0000

> <Gold.Chemscore.Internal.Correction.Weighted>
   9.000000E+99

> <Gold.Protein.RotatedTorsions>
[ 6907 6896 6895 6894 ] final   15.51 input  -60.11 | X-H torsion
[ 7974 7965 7964 7962 ] final   -6.72 input  175.53 | X-H torsion
[ 8008 7997 7996 7995 ] final  -10.71 input   59.86 | X-H torsion
[ 10167 10162 10161 10158 ] final  131.85 input  -65.29 | X-H torsion
[ 10718 10713 10712 10709 ] final    6.10 input   66.30 | X-H torsion
[ 10763 10752 10751 10750 ] final   77.24 input  -60.55 | X-H torsion
[ 11005 11000 10999 10996 ] final  -96.89 input  -57.11 | X-H torsion

> <Gold.Protein.ActiveResidues>
 VAL166  LYS551  ARG553  GLY616  TRP617  ASP618  TYR619  PRO620  LYS621  CYS622 
 ASP623  PHE694  ASN695  SER759  ASP760  ASP761  ALA762  ILE779  LEU786  VAL792 
 PHE793  MET794  SER795  GLU796  ALA797  LYS798  CYS799  TRP800  GLU811  SER814 

> <Gold.Protein.RotatedAtoms>
  151.8193  135.0656  160.0422 H   0  0  0  0  0  0  0  0  0  0  0  0  # atno 6907 bound_to 6896
  152.2963  133.5606  159.5598 H   0  0  0  0  0  0  0  0  0  0  0  0  # atno 6908 bound_to 6896
  150.7252  134.0272  159.3763 H   0  0  0  0  0  0  0  0  0  0  0  0  # atno 6909 bound_to 6896
  146.2324  140.2212  142.8337 H   0  0  0  0  0  0  0  0  0  0  0  0  # atno 7974 bound_to 7965
  154.5530  140.2322  155.8454 H   0  0  0  0  0  0  0  0  0  0  0  0  # atno 8008 bound_to 7997
  156.1964  140.3064  155.9396 H   0  0  0  0  0  0  0  0  0  0  0  0  # atno 8009 bound_to 7997
  155.3034  140.0432  157.3021 H   0  0  0  0  0  0  0  0  0  0  0  0  # atno 8010 bound_to 7997
  139.5365  144.6688  151.4768 H   0  0  0  0  0  0  0  0  0  0  0  0  # atno 10167 bound_to 10162
  156.9172  130.5778  149.5647 H   0  0  0  0  0  0  0  0  0  0  0  0  # atno 10718 bound_to 10713
  153.0784  135.4921  154.8452 H   0  0  0  0  0  0  0  0  0  0  0  0  # atno 10763 bound_to 10752
  154.7118  135.3021  154.9187 H   0  0  0  0  0  0  0  0  0  0  0  0  # atno 10764 bound_to 10752
  153.9879  135.6782  153.4806 H   0  0  0  0  0  0  0  0  0  0  0  0  # atno 10765 bound_to 10752
  141.1397  133.8130  157.0632 H   0  0  0  0  0  0  0  0  0  0  0  0  # atno 11005 bound_to 11000
  144.9631  140.8294  143.5501 LP  0  0  0  0  0  0  0  0  0  0  0  0  # atno 17320 bound_to 7965
  145.2185  139.2170  143.5105 LP  0  0  0  0  0  0  0  0  0  0  0  0  # atno 17321 bound_to 7965
  140.6574  143.8570  150.6850 LP  0  0  0  0  0  0  0  0  0  0  0  0  # atno 17342 bound_to 10162
  140.1954  143.4003  152.1832 LP  0  0  0  0  0  0  0  0  0  0  0  0  # atno 17343 bound_to 10162
  156.0508  130.5577  150.8984 LP  0  0  0  0  0  0  0  0  0  0  0  0  # atno 17370 bound_to 10713
  157.5930  131.0944  150.9087 LP  0  0  0  0  0  0  0  0  0  0  0  0  # atno 17371 bound_to 10713
  140.0558  134.9781  157.1218 LP  0  0  0  0  0  0  0  0  0  0  0  0  # atno 17394 bound_to 11000
  140.3921  134.2173  155.7166 LP  0  0  0  0  0  0  0  0  0  0  0  0  # atno 17395 bound_to 11000

$$$$
