AV-unprocessed.smi:3113|AV-procd|sdf|11853|dock6
  -GOLD-   2272017233D 1   1.00000     0.00000
 Structure written by MMmdl.
 35 36  0  0  0  0  0  0  0  0  2 V2000
  151.5876  138.5320  154.8868 C   0  0  0  0  0  0  0  0  0  0  0  0
  152.0496  139.0976  156.1083 C   0  0  0  0  0  0  0  0  0  0  0  0
  151.2573  140.0578  156.5575 N   0  0  0  0  0  0  0  0  0  0  0  0
  150.2699  140.1385  155.6402 N   0  0  0  0  0  0  0  0  0  0  0  0
  149.2037  141.1046  155.8176 C   0  0  0  0  0  0  0  0  0  0  0  0
  149.1543  141.6354  157.2571 C   0  0  0  0  0  0  0  0  0  0  0  0
  149.7937  142.9614  157.3538 N   0  3  0  0  0  0  0  0  0  0  0  0
  151.2617  142.9341  157.2000 C   0  0  0  0  0  0  0  0  0  0  0  0
  151.9568  143.5270  158.4338 C   0  0  1  0  0  0  0  0  0  0  0  0
  151.3209  144.8616  158.8686 C   0  0  0  0  0  0  0  0  0  0  0  0
  151.9835  145.3810  160.1497 C   0  0  0  0  0  0  0  0  0  0  0  0
  151.9534  144.2920  161.2273 C   0  0  0  0  0  0  0  0  0  0  0  0
  152.5373  142.9797  160.6797 C   0  0  0  0  0  0  0  0  0  0  0  0
  151.8377  142.5889  159.5016 O   0  0  0  0  0  0  0  0  0  0  0  0
  150.4435  139.2279  154.6191 C   0  0  0  0  0  0  0  0  0  0  0  0
  152.0278  137.7397  154.2994 H   0  0  0  0  0  0  0  0  0  0  0  0
  152.9302  138.8397  156.6783 H   0  0  0  0  0  0  0  0  0  0  0  0
  149.3540  141.9232  155.1118 H   0  0  0  0  0  0  0  0  0  0  0  0
  148.2583  140.6288  155.5539 H   0  0  0  0  0  0  0  0  0  0  0  0
  148.1183  141.7103  157.5909 H   0  0  0  0  0  0  0  0  0  0  0  0
  149.6629  140.9445  157.9312 H   0  0  0  0  0  0  0  0  0  0  0  0
  149.4099  143.5566  156.6331 H   0  0  0  0  0  0  0  0  0  0  0  0
  151.5772  141.8992  157.0608 H   0  0  0  0  0  0  0  0  0  0  0  0
  151.5496  143.4825  156.3018 H   0  0  0  0  0  0  0  0  0  0  0  0
  153.0124  143.6876  158.2053 H   0  0  0  0  0  0  0  0  0  0  0  0
  151.4156  145.6034  158.0749 H   0  0  0  0  0  0  0  0  0  0  0  0
  150.2526  144.7229  159.0409 H   0  0  0  0  0  0  0  0  0  0  0  0
  153.0162  145.6629  159.9405 H   0  0  0  0  0  0  0  0  0  0  0  0
  151.4785  146.2803  160.5030 H   0  0  0  0  0  0  0  0  0  0  0  0
  152.5110  144.6156  162.1066 H   0  0  0  0  0  0  0  0  0  0  0  0
  150.9255  144.1254  161.5522 H   0  0  0  0  0  0  0  0  0  0  0  0
  153.6016  143.0863  160.4642 H   0  0  0  0  0  0  0  0  0  0  0  0
  152.4421  142.1889  161.4239 H   0  0  0  0  0  0  0  0  0  0  0  0
  149.7469  139.1499  153.7973 H   0  0  0  0  0  0  0  0  0  0  0  0
  149.5722  143.3608  158.2546 H   0  0  0  0  0  0  0  0  0  0  0  0
  1 15  2  0  0  0  0
  1  2  1  0  0  0  0
  1 16  1  0  0  0  0
  2  3  2  0  0  0  0
  2 17  1  0  0  0  0
  3  4  1  0  0  0  0
  4  5  1  0  0  0  0
  4 15  1  0  0  0  0
  5  6  1  0  0  0  0
  5 18  1  0  0  0  0
  5 19  1  0  0  0  0
  6  7  1  0  0  0  0
  6 20  1  0  0  0  0
  6 21  1  0  0  0  0
  7  8  1  0  0  0  0
  7 22  1  0  0  0  0
  7 35  1  0  0  0  0
  8  9  1  0  0  0  0
  8 23  1  0  0  0  0
  8 24  1  0  0  0  0
  9 14  1  0  0  0  0
  9 10  1  0  0  0  0
  9 25  1  0  0  0  0
 10 11  1  0  0  0  0
 10 26  1  0  0  0  0
 10 27  1  0  0  0  0
 11 12  1  0  0  0  0
 11 28  1  0  0  0  0
 11 29  1  0  0  0  0
 12 13  1  0  0  0  0
 12 30  1  0  0  0  0
 12 31  1  0  0  0  0
 13 14  1  0  0  0  0
 13 32  1  0  0  0  0
 13 33  1  0  0  0  0
 15 34  1  0  0  0  0
M  CHG  1   7   1
M  END
> <s_m_source_file>
AV-unprocessed.smi

> <i_m_source_file_index>
3113

> <i_lp_mmshare_version>
43012

> <i_f3d_flags>
0

> <s_epik_input>
W2NIXTFbY0hdW2NIXW5uMVtDSDJdW0NIMl1bTkhdW0NIMl1bQ0BASF0yW0NIMl1bQ0gyXVtDSDJdW0NIMl1PMg==

> <s_epik_cmdline>
J2VwaWtfcHl0aG9uJywgJy1waCcsICc3LjAnLCAnLXRuJywgJzgnLCAnLW1hJywgJzIwMCcsICctbWV0YWxfYmluZGluZycsICctaW1hZScsICc8aW5maWxlLm1hZT4nLCAnLW9tYWUnLCAnPG91dGZpbGUubWFlPic=

> <r_lp_tautomer_probability>
1

> <r_epik_Ionization_Penalty>
0.00849054

> <r_epik_Ionization_Penalty_Charging>
0.00848754

> <r_epik_Ionization_Penalty_Neutral>
3.00382e-06

> <r_epik_State_Penalty>
0.00639836

> <r_epik_Charging_Adjusted_Penalty>
0.0148859

> <i_epik_Tot_Q>
1

> <i_epik_Tot_abs_Q>
1

> <r_epik_Metal_State_Penalty>
0.00641155

> <b_epik_Metal_Only>
0

> <s_lp_Force_Field>
OPLS_2005

> <r_lp_Energy>
10.7636

> <b_lp_Chiralities_Consistent>
1

> <s_lp_Variant>
AV-unprocessed.smi:3113-2

> <Gold.Version>
5.8.1

> <Gold.Id.Protein>
6NUR|6NUR_protein|mol2

> <Gold.PLP.Fitness>
45.2230

> <Gold.PLP.PLP>
-38.1448

> <Gold.PLP.part.hbond>
-1.0000

> <Gold.PLP.part.metal>
0.0000

> <Gold.PLP.part.buried>
-4.7005

> <Gold.PLP.part.nonpolar>
-33.1944

> <Gold.PLP.part.repulsive>
0.0161

> <Gold.PLP.ligand.clash>
0.0000

> <Gold.PLP.ligand.torsion>
0.9853

> <Gold.PLP.Chemscore.Hbond>
2.0000

> <Gold.PLP.Chemscore.CHOScore>
0.9987

> <Gold.PLP.Chemscore.Metal>
0.0000

> <Gold.Chemscore.Hbonds>
donor molecule, donor type, donor heavy atom, donor atom, acceptor molecule, acceptor atom, score
      L1  H     7    22       P1  8028  2.00
      L1  C    15    34       P1  7957  0.37

> <Gold.PLP.Chemscore.Internal.Correction>
0.0528

> <Gold.Rescore>
     Score         DG    S(hbond)    S(metal)    S(lipo)     H(rot)  DE(clash)    DE(int)     intcor
     15.54     -16.69       1.00        0.00     104.48       1.70       0.26       0.89       ----

> <Gold.Chemscore.Fitness>
15.5386

> <Gold.Chemscore.DG>
-16.6895

> <Gold.Chemscore.ZeroCoef>
-5.4800

> <Gold.Chemscore.Hbond>
0.9979

> <Gold.Chemscore.Metal>
0.0000

> <Gold.Chemscore.Lipo>
104.4841

> <Gold.Chemscore.Internal_Hbond>
0.0000

> <Gold.Chemscore.DEClash>
0.2567

> <Gold.Chemscore.DEInternal>
0.8941

> <Gold.Chemscore.Rot>
1.6985

> <Gold.Chemscore.Internal.Correction>
   9.000000E+99

> <Gold.Chemscore.Hbonds>
donor molecule, donor type, donor heavy atom, donor atom, acceptor molecule, acceptor atom, score
      L1  H     7    22       P1  8028  0.98

> <Gold.Chemscore.Hbond.Weighted>
-3.3330

> <Gold.Chemscore.Metal.Weighted>
-0.0000

> <Gold.Chemscore.Lipo.Weighted>
-12.2246

> <Gold.Chemscore.Internal_Hbond.Weighted>
0.0000

> <Gold.Chemscore.DEClash.Weighted>
0.2567

> <Gold.Chemscore.DEInternal.Weighted>
0.8941

> <Gold.Chemscore.Rot.Weighted>
4.3482

> <Gold.Chemscore.Internal.Correction.Weighted>
   9.000000E+99

> <Gold.Protein.RotatedTorsions>
[ 6907 6896 6895 6894 ] final  153.31 input  -60.11 | X-H torsion
[ 7974 7965 7964 7962 ] final  -89.05 input  175.53 | X-H torsion
[ 8008 7997 7996 7995 ] final  -64.72 input   59.86 | X-H torsion
[ 10167 10162 10161 10158 ] final   52.51 input  -65.29 | X-H torsion
[ 10718 10713 10712 10709 ] final  127.76 input   66.30 | X-H torsion
[ 10763 10752 10751 10750 ] final  -66.49 input  -60.55 | X-H torsion
[ 11005 11000 10999 10996 ] final -175.32 input  -57.11 | X-H torsion

> <Gold.Protein.ActiveResidues>
 VAL166  LYS551  ARG553  GLY616  TRP617  ASP618  TYR619  PRO620  LYS621  CYS622 
 ASP623  PHE694  ASN695  SER759  ASP760  ASP761  ALA762  ILE779  LEU786  VAL792 
 PHE793  MET794  SER795  GLU796  ALA797  LYS798  CYS799  TRP800  GLU811  SER814 

> <Gold.Protein.RotatedAtoms>
  152.0745  133.4122  159.4473 H   0  0  0  0  0  0  0  0  0  0  0  0  # atno 6907 bound_to 6896
  150.6863  134.3054  159.4733 H   0  0  0  0  0  0  0  0  0  0  0  0  # atno 6908 bound_to 6896
  152.0889  134.9420  160.0623 H   0  0  0  0  0  0  0  0  0  0  0  0  # atno 6909 bound_to 6896
  145.4449  140.9560  143.2054 H   0  0  0  0  0  0  0  0  0  0  0  0  # atno 7974 bound_to 7965
  154.4628  140.0948  156.6940 H   0  0  0  0  0  0  0  0  0  0  0  0  # atno 8008 bound_to 7997
  155.4944  140.3471  155.4342 H   0  0  0  0  0  0  0  0  0  0  0  0  # atno 8009 bound_to 7997
  156.0902  140.1395  156.9590 H   0  0  0  0  0  0  0  0  0  0  0  0  # atno 8010 bound_to 7997
  140.2505  144.3484  150.6349 H   0  0  0  0  0  0  0  0  0  0  0  0  # atno 10167 bound_to 10162
  157.5304  131.1098  150.9017 H   0  0  0  0  0  0  0  0  0  0  0  0  # atno 10718 bound_to 10713
  154.3606  135.6117  153.5689 H   0  0  0  0  0  0  0  0  0  0  0  0  # atno 10763 bound_to 10752
  152.9794  135.5814  154.4637 H   0  0  0  0  0  0  0  0  0  0  0  0  # atno 10764 bound_to 10752
  154.4374  135.2849  155.1848 H   0  0  0  0  0  0  0  0  0  0  0  0  # atno 10765 bound_to 10752
  140.4646  134.6222  157.4857 H   0  0  0  0  0  0  0  0  0  0  0  0  # atno 11005 bound_to 11000
  144.8098  139.5984  143.7034 LP  0  0  0  0  0  0  0  0  0  0  0  0  # atno 17320 bound_to 7965
  146.2536  139.6253  142.9410 LP  0  0  0  0  0  0  0  0  0  0  0  0  # atno 17321 bound_to 7965
  140.6044  143.2167  151.7010 LP  0  0  0  0  0  0  0  0  0  0  0  0  # atno 17342 bound_to 10162
  139.5048  144.3742  152.0440 LP  0  0  0  0  0  0  0  0  0  0  0  0  # atno 17343 bound_to 10162
  156.9600  130.5451  149.5285 LP  0  0  0  0  0  0  0  0  0  0  0  0  # atno 17370 bound_to 10713
  156.0418  130.5500  150.8789 LP  0  0  0  0  0  0  0  0  0  0  0  0  # atno 17371 bound_to 10713
  139.9923  134.6965  155.9668 LP  0  0  0  0  0  0  0  0  0  0  0  0  # atno 17394 bound_to 11000
  141.1605  133.6539  156.4303 LP  0  0  0  0  0  0  0  0  0  0  0  0  # atno 17395 bound_to 11000

$$$$
