AV-unprocessed.smi:2477|AV-procd|sdf|9760|dock4
  -GOLD-   2272013403D 1   1.00000     0.00000
 Structure written by MMmdl.
 51 53  0  0  0  0  0  0  0  0  1 V2000
  153.6686  140.9983  160.0614 C   0  0  0  0  0  0  0  0  0  0  0  0
  153.0730  142.1215  159.3331 N   0  0  0  0  0  0  0  0  0  0  0  0
  153.5951  143.4034  159.5753 C   0  0  0  0  0  0  0  0  0  0  0  0
  153.1118  144.4882  158.9543 C   0  0  0  0  0  0  0  0  0  0  0  0
  152.0280  144.3165  158.0168 C   0  0  0  0  0  0  0  0  0  0  0  0
  151.5146  143.0866  157.7612 C   0  0  0  0  0  0  0  0  0  0  0  0
  150.4563  142.8321  156.8714 N   0  0  0  0  0  0  0  0  0  0  0  0
  150.3047  141.8241  155.9927 C   0  0  0  0  0  0  0  0  0  0  0  0
  151.0851  140.8866  155.8288 O   0  0  0  0  0  0  0  0  0  0  0  0
  149.1615  141.9567  155.3057 N   0  0  0  0  0  0  0  0  0  0  0  0
  148.6871  141.0428  154.2689 C   0  0  1  0  0  0  0  0  0  0  0  0
  148.6457  139.6030  154.8160 C   0  0  0  0  0  0  0  0  0  0  0  0
  148.1347  138.6143  153.7562 C   0  0  0  0  0  0  0  0  0  0  0  0
  146.7623  139.0390  153.2116 C   0  0  0  0  0  0  0  0  0  0  0  0
  146.7994  140.4766  152.6680 C   0  0  0  0  0  0  0  0  0  0  0  0
  147.3051  141.4781  153.7282 C   0  0  1  0  0  0  0  0  0  0  0  0
  146.4055  141.5681  154.8298 O   0  0  0  0  0  0  0  0  0  0  0  0
  145.2222  142.3203  154.5969 C   0  0  0  0  0  0  0  0  0  0  0  0
  145.5472  143.5974  153.8248 C   0  0  0  0  0  0  0  0  0  0  0  0
  144.3959  144.5550  154.1512 C   0  0  0  0  0  0  0  0  0  0  0  0
  143.8023  144.0731  155.4852 C   0  0  0  0  0  0  0  0  0  0  0  0
  144.6220  142.8466  155.9010 C   0  0  0  0  0  0  0  0  0  0  0  0
  152.0466  141.8994  158.4588 C   0  0  0  0  0  0  0  0  0  0  0  0
  151.6021  140.7639  158.2723 O   0  0  0  0  0  0  0  0  0  0  0  0
  154.4981  141.3029  160.7006 H   0  0  0  0  0  0  0  0  0  0  0  0
  154.0538  140.2510  159.3663 H   0  0  0  0  0  0  0  0  0  0  0  0
  152.9249  140.5184  160.6992 H   0  0  0  0  0  0  0  0  0  0  0  0
  154.4045  143.4490  160.2895 H   0  0  0  0  0  0  0  0  0  0  0  0
  153.5233  145.4675  159.1497 H   0  0  0  0  0  0  0  0  0  0  0  0
  151.6401  145.2052  157.5465 H   0  0  0  0  0  0  0  0  0  0  0  0
  149.6911  143.4880  156.9340 H   0  0  0  0  0  0  0  0  0  0  0  0
  148.5790  142.7574  155.5023 H   0  0  0  0  0  0  0  0  0  0  0  0
  149.4029  141.0614  153.4446 H   0  0  0  0  0  0  0  0  0  0  0  0
  149.6399  139.3010  155.1476 H   0  0  0  0  0  0  0  0  0  0  0  0
  148.0007  139.5565  155.6947 H   0  0  0  0  0  0  0  0  0  0  0  0
  148.8513  138.5570  152.9359 H   0  0  0  0  0  0  0  0  0  0  0  0
  148.0717  137.6124  154.1821 H   0  0  0  0  0  0  0  0  0  0  0  0
  146.4479  138.3535  152.4243 H   0  0  0  0  0  0  0  0  0  0  0  0
  146.0146  138.9644  154.0021 H   0  0  0  0  0  0  0  0  0  0  0  0
  147.4622  140.5116  151.8028 H   0  0  0  0  0  0  0  0  0  0  0  0
  145.8157  140.7648  152.2988 H   0  0  0  0  0  0  0  0  0  0  0  0
  147.4066  142.4632  153.2694 H   0  0  0  0  0  0  0  0  0  0  0  0
  144.4677  141.7578  154.0430 H   0  0  0  0  0  0  0  0  0  0  0  0
  146.4834  144.0203  154.1926 H   0  0  0  0  0  0  0  0  0  0  0  0
  145.6624  143.4231  152.7545 H   0  0  0  0  0  0  0  0  0  0  0  0
  144.7419  145.5878  154.2066 H   0  0  0  0  0  0  0  0  0  0  0  0
  143.6352  144.5074  153.3708 H   0  0  0  0  0  0  0  0  0  0  0  0
  143.8317  144.8494  156.2503 H   0  0  0  0  0  0  0  0  0  0  0  0
  142.7574  143.7946  155.3433 H   0  0  0  0  0  0  0  0  0  0  0  0
  144.0241  142.1017  156.4260 H   0  0  0  0  0  0  0  0  0  0  0  0
  145.4234  143.1577  156.5725 H   0  0  0  0  0  0  0  0  0  0  0  0
  1  2  1  0  0  0  0
  1 25  1  0  0  0  0
  1 26  1  0  0  0  0
  1 27  1  0  0  0  0
  2 23  1  0  0  0  0
  2  3  1  0  0  0  0
  3  4  2  0  0  0  0
  3 28  1  0  0  0  0
  4  5  1  0  0  0  0
  4 29  1  0  0  0  0
  5  6  2  0  0  0  0
  5 30  1  0  0  0  0
  6  7  1  0  0  0  0
  6 23  1  0  0  0  0
  7  8  1  0  0  0  0
  7 31  1  0  0  0  0
  8  9  2  0  0  0  0
  8 10  1  0  0  0  0
 10 11  1  0  0  0  0
 10 32  1  0  0  0  0
 11 16  1  0  0  0  0
 11 12  1  0  0  0  0
 11 33  1  0  0  0  0
 12 13  1  0  0  0  0
 12 34  1  0  0  0  0
 12 35  1  0  0  0  0
 13 14  1  0  0  0  0
 13 36  1  0  0  0  0
 13 37  1  0  0  0  0
 14 15  1  0  0  0  0
 14 38  1  0  0  0  0
 14 39  1  0  0  0  0
 15 16  1  0  0  0  0
 15 40  1  0  0  0  0
 15 41  1  0  0  0  0
 16 17  1  0  0  0  0
 16 42  1  0  0  0  0
 17 18  1  0  0  0  0
 18 22  1  0  0  0  0
 18 19  1  0  0  0  0
 18 43  1  0  0  0  0
 19 20  1  0  0  0  0
 19 44  1  0  0  0  0
 19 45  1  0  0  0  0
 20 21  1  0  0  0  0
 20 46  1  0  0  0  0
 20 47  1  0  0  0  0
 21 22  1  0  0  0  0
 21 48  1  0  0  0  0
 21 49  1  0  0  0  0
 22 50  1  0  0  0  0
 22 51  1  0  0  0  0
 23 24  2  0  0  0  0
M  END
> <s_m_source_file>
AV-unprocessed.smi

> <i_m_source_file_index>
2477

> <i_lp_mmshare_version>
43012

> <i_f3d_flags>
0

> <s_epik_input>
W0NIM11uMVtjSF1bY0hdW2NIXWMoYzE9TylbTkhdQyg9TylbTkhdW0NAQEhdMltDSDJdW0NIMl1bQ0gyXVtDSDJdW0NASF0yT1tDSF0zW0NIMl1bQ0gyXVtDSDJdW0NIMl0z

> <s_epik_cmdline>
J2VwaWtfcHl0aG9uJywgJy1waCcsICc3LjAnLCAnLXRuJywgJzgnLCAnLW1hJywgJzIwMCcsICctbWV0YWxfYmluZGluZycsICctaW1hZScsICc8aW5maWxlLm1hZT4nLCAnLW9tYWUnLCAnPG91dGZpbGUubWFlPic=

> <r_lp_tautomer_probability>
1

> <r_epik_Ionization_Penalty>
2.40753e-05

> <r_epik_Ionization_Penalty_Charging>
4.84018e-06

> <r_epik_Ionization_Penalty_Neutral>
1.92352e-05

> <r_epik_State_Penalty>
-0

> <r_epik_Charging_Adjusted_Penalty>
4.84018e-06

> <i_epik_Tot_Q>
0

> <i_epik_Tot_abs_Q>
0

> <r_epik_Metal_State_Penalty>
-0

> <b_epik_Metal_Only>
0

> <s_lp_Force_Field>
OPLS_2005

> <r_lp_Energy>
43.088

> <b_lp_Chiralities_Consistent>
1

> <s_lp_Variant>
AV-unprocessed.smi:2477-2

> <Gold.Version>
5.8.1

> <Gold.Id.Protein>
6NUR|6NUR_protein|mol2

> <Gold.PLP.Fitness>
51.1729

> <Gold.PLP.PLP>
-47.5663

> <Gold.PLP.part.hbond>
-2.0000

> <Gold.PLP.part.metal>
0.0000

> <Gold.PLP.part.buried>
-5.0306

> <Gold.PLP.part.nonpolar>
-41.1679

> <Gold.PLP.part.repulsive>
0.3552

> <Gold.PLP.ligand.clash>
0.0000

> <Gold.PLP.ligand.torsion>
0.6799

> <Gold.PLP.Chemscore.Hbond>
1.6320

> <Gold.PLP.Chemscore.CHOScore>
0.0000

> <Gold.PLP.Chemscore.Metal>
0.0000

> <Gold.Chemscore.Hbonds>
donor molecule, donor type, donor heavy atom, donor atom, acceptor molecule, acceptor atom, score
      L1  H     7    31       P1  8028  0.67
      L1  H    10    32       P1  8028  0.72
      P1  H  7989  7998       L1     9  0.09

> <Gold.PLP.Chemscore.Internal.Correction>
0.0705

> <Gold.Rescore>
     Score         DG    S(hbond)    S(metal)    S(lipo)     H(rot)  DE(clash)    DE(int)     intcor
     16.75     -21.57       1.45        0.00     125.92       1.36       0.40       4.42       ----

> <Gold.Chemscore.Fitness>
16.7490

> <Gold.Chemscore.DG>
-21.5735

> <Gold.Chemscore.ZeroCoef>
-5.4800

> <Gold.Chemscore.Hbond>
1.4469

> <Gold.Chemscore.Metal>
0.0000

> <Gold.Chemscore.Lipo>
125.9247

> <Gold.Chemscore.Internal_Hbond>
0.0000

> <Gold.Chemscore.DEClash>
0.4041

> <Gold.Chemscore.DEInternal>
4.4204

> <Gold.Chemscore.Rot>
1.3564

> <Gold.Chemscore.Internal.Correction>
   9.000000E+99

> <Gold.Chemscore.Hbonds>
donor molecule, donor type, donor heavy atom, donor atom, acceptor molecule, acceptor atom, score
      L1  H     7    31       P1  8028  0.66
      L1  H    10    32       P1  8028  0.70
      P1  H  7989  7998       L1     9  0.06

> <Gold.Chemscore.Hbond.Weighted>
-4.8327

> <Gold.Chemscore.Metal.Weighted>
-0.0000

> <Gold.Chemscore.Lipo.Weighted>
-14.7332

> <Gold.Chemscore.Internal_Hbond.Weighted>
0.0000

> <Gold.Chemscore.DEClash.Weighted>
0.4041

> <Gold.Chemscore.DEInternal.Weighted>
4.4204

> <Gold.Chemscore.Rot.Weighted>
3.4724

> <Gold.Chemscore.Internal.Correction.Weighted>
   9.000000E+99

> <Gold.Protein.RotatedTorsions>
[ 6907 6896 6895 6894 ] final  -59.58 input  -60.11 | X-H torsion
[ 7974 7965 7964 7962 ] final  107.87 input  175.53 | X-H torsion
[ 8008 7997 7996 7995 ] final -139.26 input   59.86 | X-H torsion
[ 10167 10162 10161 10158 ] final  -15.79 input  -65.29 | X-H torsion
[ 10718 10713 10712 10709 ] final   33.53 input   66.30 | X-H torsion
[ 10763 10752 10751 10750 ] final -131.67 input  -60.55 | X-H torsion
[ 11005 11000 10999 10996 ] final  -19.61 input  -57.11 | X-H torsion

> <Gold.Protein.ActiveResidues>
 VAL166  LYS551  ARG553  GLY616  TRP617  ASP618  TYR619  PRO620  LYS621  CYS622 
 ASP623  PHE694  ASN695  SER759  ASP760  ASP761  ALA762  ILE779  LEU786  VAL792 
 PHE793  MET794  SER795  GLU796  ALA797  LYS798  CYS799  TRP800  GLU811  SER814 

> <Gold.Protein.RotatedAtoms>
  150.7919  134.6949  159.6517 H   0  0  0  0  0  0  0  0  0  0  0  0  # atno 6907 bound_to 6896
  152.4026  134.6257  160.0072 H   0  0  0  0  0  0  0  0  0  0  0  0  # atno 6908 bound_to 6896
  151.6524  133.3283  159.3191 H   0  0  0  0  0  0  0  0  0  0  0  0  # atno 6909 bound_to 6896
  145.2881  139.2609  143.3880 H   0  0  0  0  0  0  0  0  0  0  0  0  # atno 7974 bound_to 7965
  155.4419  140.0532  157.3009 H   0  0  0  0  0  0  0  0  0  0  0  0  # atno 8008 bound_to 7997
  154.4814  140.2083  155.9711 H   0  0  0  0  0  0  0  0  0  0  0  0  # atno 8009 bound_to 7997
  156.1211  140.3188  155.8215 H   0  0  0  0  0  0  0  0  0  0  0  0  # atno 8010 bound_to 7997
  140.7224  143.5182  150.9666 H   0  0  0  0  0  0  0  0  0  0  0  0  # atno 10167 bound_to 10162
  157.2990  130.7341  149.6655 H   0  0  0  0  0  0  0  0  0  0  0  0  # atno 10718 bound_to 10713
  154.8749  135.3822  154.4284 H   0  0  0  0  0  0  0  0  0  0  0  0  # atno 10763 bound_to 10752
  153.4980  135.7030  153.5852 H   0  0  0  0  0  0  0  0  0  0  0  0  # atno 10764 bound_to 10752
  153.4196  135.3904  155.2069 H   0  0  0  0  0  0  0  0  0  0  0  0  # atno 10765 bound_to 10752
  140.8383  133.7945  155.9833 H   0  0  0  0  0  0  0  0  0  0  0  0  # atno 11005 bound_to 11000
  146.3194  140.3365  142.8644 LP  0  0  0  0  0  0  0  0  0  0  0  0  # atno 17320 bound_to 7965
  144.9196  140.7853  143.5756 LP  0  0  0  0  0  0  0  0  0  0  0  0  # atno 17321 bound_to 7965
  139.8898  143.6967  152.3146 LP  0  0  0  0  0  0  0  0  0  0  0  0  # atno 17342 bound_to 10162
  139.7279  144.7589  151.0850 LP  0  0  0  0  0  0  0  0  0  0  0  0  # atno 17343 bound_to 10162
  155.9670  130.4285  150.4793 LP  0  0  0  0  0  0  0  0  0  0  0  0  # atno 17370 bound_to 10713
  157.2771  131.0599  151.2222 LP  0  0  0  0  0  0  0  0  0  0  0  0  # atno 17371 bound_to 10713
  140.8923  134.2480  157.5087 LP  0  0  0  0  0  0  0  0  0  0  0  0  # atno 17394 bound_to 11000
  139.8703  134.9667  156.4572 LP  0  0  0  0  0  0  0  0  0  0  0  0  # atno 17395 bound_to 11000

$$$$
