AV-unprocessed.smi:1622|AV-procd|sdf|6498|dock5
  -GOLD-   22720 7163D 1   1.00000     0.00000
 Structure written by MMmdl.
 41 42  0  0  0  0  0  0  0  0  2 V2000
  147.0706  138.7842  152.8041 C   0  0  0  0  0  0  0  0  0  0  0  0
  145.9098  138.0143  152.1562 C   0  0  0  0  0  0  0  0  0  0  0  0
  145.6056  136.6383  152.8088 C   0  0  1  0  0  0  0  0  0  0  0  0
  144.0843  136.4264  153.0506 C   0  0  0  0  0  0  0  0  0  0  0  0
  143.3071  137.6615  152.9536 N   0  0  0  0  0  0  0  0  0  0  0  0
  141.9816  137.7655  153.1251 C   0  0  0  0  0  0  0  0  0  0  0  0
  141.2560  136.8107  153.3991 O   0  0  0  0  0  0  0  0  0  0  0  0
  141.5704  139.0336  152.9656 N   0  0  0  0  0  0  0  0  0  0  0  0
  140.2497  139.5393  153.0588 C   0  0  0  0  0  0  0  0  0  0  0  0
  140.0915  140.8249  153.3854 N   0  0  0  0  0  0  0  0  0  0  0  0
  138.7517  141.1858  153.4354 N   0  0  0  0  0  0  0  0  0  0  0  0
  137.9366  140.1634  153.1463 C   0  0  0  0  0  0  0  0  0  0  0  0
  136.4522  140.2961  153.1251 C   0  0  0  0  0  0  0  0  0  0  0  0
  138.7529  138.6479  152.7838 S   0  0  0  0  0  0  0  0  0  0  0  0
  146.1785  135.5101  152.0125 N   0  3  0  0  0  0  0  0  0  0  0  0
  146.2681  134.2017  152.6973 C   0  0  0  0  0  0  0  0  0  0  0  0
  146.4033  133.1776  151.5769 C   0  0  0  0  0  0  0  0  0  0  0  0
  145.4998  133.7389  150.4858 C   0  0  0  0  0  0  0  0  0  0  0  0
  145.5103  135.2574  150.7095 C   0  0  0  0  0  0  0  0  0  0  0  0
  147.3024  139.6805  152.2287 H   0  0  0  0  0  0  0  0  0  0  0  0
  147.9744  138.1756  152.8436 H   0  0  0  0  0  0  0  0  0  0  0  0
  146.8367  139.1083  153.8169 H   0  0  0  0  0  0  0  0  0  0  0  0
  145.0152  138.6371  152.1470 H   0  0  0  0  0  0  0  0  0  0  0  0
  146.1878  137.8798  151.1117 H   0  0  0  0  0  0  0  0  0  0  0  0
  146.1007  136.6294  153.7813 H   0  0  0  0  0  0  0  0  0  0  0  0
  143.6849  135.7461  152.2987 H   0  0  0  0  0  0  0  0  0  0  0  0
  143.8955  135.9207  153.9973 H   0  0  0  0  0  0  0  0  0  0  0  0
  143.8169  138.5004  152.7169 H   0  0  0  0  0  0  0  0  0  0  0  0
  142.2796  139.7173  152.7460 H   0  0  0  0  0  0  0  0  0  0  0  0
  136.1350  141.1500  153.7245 H   0  0  0  0  0  0  0  0  0  0  0  0
  135.9892  139.3959  153.5292 H   0  0  0  0  0  0  0  0  0  0  0  0
  136.1071  140.4385  152.1010 H   0  0  0  0  0  0  0  0  0  0  0  0
  147.1117  134.1562  153.3866 H   0  0  0  0  0  0  0  0  0  0  0  0
  145.3516  134.0157  153.2602 H   0  0  0  0  0  0  0  0  0  0  0  0
  147.4355  133.1479  151.2249 H   0  0  0  0  0  0  0  0  0  0  0  0
  146.1231  132.1700  151.8858 H   0  0  0  0  0  0  0  0  0  0  0  0
  145.8346  133.4602  149.4858 H   0  0  0  0  0  0  0  0  0  0  0  0
  144.4863  133.3559  150.6142 H   0  0  0  0  0  0  0  0  0  0  0  0
  144.4857  135.6318  150.7032 H   0  0  0  0  0  0  0  0  0  0  0  0
  146.0569  135.7715  149.9183 H   0  0  0  0  0  0  0  0  0  0  0  0
  147.1306  135.7644  151.7909 H   0  0  0  0  0  0  0  0  0  0  0  0
  1  2  1  0  0  0  0
  1 20  1  0  0  0  0
  1 21  1  0  0  0  0
  1 22  1  0  0  0  0
  2  3  1  0  0  0  0
  2 23  1  0  0  0  0
  2 24  1  0  0  0  0
  3  4  1  0  0  0  0
  3 15  1  0  0  0  0
  3 25  1  0  0  0  0
  4  5  1  0  0  0  0
  4 26  1  0  0  0  0
  4 27  1  0  0  0  0
  5  6  1  0  0  0  0
  5 28  1  0  0  0  0
  6  7  2  0  0  0  0
  6  8  1  0  0  0  0
  8  9  1  0  0  0  0
  8 29  1  0  0  0  0
  9 14  1  0  0  0  0
  9 10  2  0  0  0  0
 10 11  1  0  0  0  0
 11 12  2  0  0  0  0
 12 13  1  0  0  0  0
 12 14  1  0  0  0  0
 13 30  1  0  0  0  0
 13 31  1  0  0  0  0
 13 32  1  0  0  0  0
 15 19  1  0  0  0  0
 15 16  1  0  0  0  0
 15 41  1  0  0  0  0
 16 17  1  0  0  0  0
 16 33  1  0  0  0  0
 16 34  1  0  0  0  0
 17 18  1  0  0  0  0
 17 35  1  0  0  0  0
 17 36  1  0  0  0  0
 18 19  1  0  0  0  0
 18 37  1  0  0  0  0
 18 38  1  0  0  0  0
 19 39  1  0  0  0  0
 19 40  1  0  0  0  0
M  CHG  1  15   1
M  END
> <s_m_source_file>
AV-unprocessed.smi

> <i_m_source_file_index>
1622

> <i_lp_mmshare_version>
43012

> <i_f3d_flags>
0

> <s_epik_input>
W0NIMl0xW0NIMl1bQ0gyXVtDSDJdTjFbQ0BIXShbQ0gyXVtDSDNdKVtDSDJdW05IXUMoPU8pW05IXWMybm5jKHMyKVtDSDNd

> <s_epik_cmdline>
J2VwaWtfcHl0aG9uJywgJy1waCcsICc3LjAnLCAnLXRuJywgJzgnLCAnLW1hJywgJzIwMCcsICctbWV0YWxfYmluZGluZycsICctaW1hZScsICc8aW5maWxlLm1hZT4nLCAnLW9tYWUnLCAnPG91dGZpbGUubWFlPic=

> <r_lp_tautomer_probability>
1

> <r_epik_Ionization_Penalty>
0.00164835

> <r_epik_Ionization_Penalty_Charging>
0.00115997

> <r_epik_Ionization_Penalty_Neutral>
0.00048838

> <r_epik_State_Penalty>
-0

> <r_epik_Charging_Adjusted_Penalty>
0.00115997

> <i_epik_Tot_Q>
1

> <i_epik_Tot_abs_Q>
1

> <r_epik_Metal_State_Penalty>
0.216651

> <b_epik_Metal_Only>
0

> <s_lp_Force_Field>
OPLS_2005

> <r_lp_Energy>
37.4677

> <b_lp_Chiralities_Consistent>
1

> <s_lp_Variant>
AV-unprocessed.smi:1622-2

> <Gold.Version>
5.8.1

> <Gold.Id.Protein>
6NUR|6NUR_protein|mol2

> <Gold.PLP.Fitness>
37.4297

> <Gold.PLP.PLP>
-28.6421

> <Gold.PLP.part.hbond>
-3.8799

> <Gold.PLP.part.metal>
0.0000

> <Gold.PLP.part.buried>
-0.6221

> <Gold.PLP.part.nonpolar>
-25.4723

> <Gold.PLP.part.repulsive>
1.5718

> <Gold.PLP.ligand.clash>
0.1852

> <Gold.PLP.ligand.torsion>
1.4639

> <Gold.PLP.Chemscore.Hbond>
3.9120

> <Gold.PLP.Chemscore.CHOScore>
0.0000

> <Gold.PLP.Chemscore.Metal>
0.0000

> <Gold.Chemscore.Hbonds>
donor molecule, donor type, donor heavy atom, donor atom, acceptor molecule, acceptor atom, score
      L1  H     5    28       P1 10175  0.86
      L1  H     8    29       P1 10175  0.96
      L1  H    15    41       P1  7948  2.00

> <Gold.PLP.Chemscore.Internal.Correction>
0.1646

> <Gold.Rescore>
     Score         DG    S(hbond)    S(metal)    S(lipo)     H(rot)  DE(clash)    DE(int)     intcor
     16.20     -17.54       2.82        0.00      61.35       1.77       0.19       1.15       ----

> <Gold.Chemscore.Fitness>
16.1973

> <Gold.Chemscore.DG>
-17.5355

> <Gold.Chemscore.ZeroCoef>
-5.4800

> <Gold.Chemscore.Hbond>
2.8198

> <Gold.Chemscore.Metal>
0.0000

> <Gold.Chemscore.Lipo>
61.3542

> <Gold.Chemscore.Internal_Hbond>
0.0000

> <Gold.Chemscore.DEClash>
0.1906

> <Gold.Chemscore.DEInternal>
1.1477

> <Gold.Chemscore.Rot>
1.7738

> <Gold.Chemscore.Internal.Correction>
   9.000000E+99

> <Gold.Chemscore.Hbonds>
donor molecule, donor type, donor heavy atom, donor atom, acceptor molecule, acceptor atom, score
      L1  H     5    28       P1 10175  0.84
      L1  H     8    29       P1 10175  0.55
      L1  H    15    41       P1  7948  1.00

> <Gold.Chemscore.Hbond.Weighted>
-9.4181

> <Gold.Chemscore.Metal.Weighted>
-0.0000

> <Gold.Chemscore.Lipo.Weighted>
-7.1784

> <Gold.Chemscore.Internal_Hbond.Weighted>
0.0000

> <Gold.Chemscore.DEClash.Weighted>
0.1906

> <Gold.Chemscore.DEInternal.Weighted>
1.1477

> <Gold.Chemscore.Rot.Weighted>
4.5411

> <Gold.Chemscore.Internal.Correction.Weighted>
   9.000000E+99

> <Gold.Protein.RotatedTorsions>
[ 6907 6896 6895 6894 ] final  -48.69 input  -60.11 | X-H torsion
[ 7974 7965 7964 7962 ] final   90.19 input  175.53 | X-H torsion
[ 8008 7997 7996 7995 ] final   -2.63 input   59.86 | X-H torsion
[ 10167 10162 10161 10158 ] final -126.24 input  -65.29 | X-H torsion
[ 10718 10713 10712 10709 ] final   -7.78 input   66.30 | X-H torsion
[ 10763 10752 10751 10750 ] final -113.21 input  -60.55 | X-H torsion
[ 11005 11000 10999 10996 ] final  170.27 input  -57.11 | X-H torsion

> <Gold.Protein.ActiveResidues>
 VAL166  LYS551  ARG553  GLY616  TRP617  ASP618  TYR619  PRO620  LYS621  CYS622 
 ASP623  PHE694  ASN695  SER759  ASP760  ASP761  ALA762  ILE779  LEU786  VAL792 
 PHE793  MET794  SER795  GLU796  ALA797  LYS798  CYS799  TRP800  GLU811  SER814 

> <Gold.Protein.RotatedAtoms>
  150.8880  134.8280  159.7272 H   0  0  0  0  0  0  0  0  0  0  0  0  # atno 6907 bound_to 6896
  152.4819  134.4692  159.9640 H   0  0  0  0  0  0  0  0  0  0  0  0  # atno 6908 bound_to 6896
  151.4758  133.3519  159.2866 H   0  0  0  0  0  0  0  0  0  0  0  0  # atno 6909 bound_to 6896
  145.5223  139.2280  143.2665 H   0  0  0  0  0  0  0  0  0  0  0  0  # atno 7974 bound_to 7965
  154.6337  140.2529  155.7404 H   0  0  0  0  0  0  0  0  0  0  0  0  # atno 8008 bound_to 7997
  156.2493  140.2902  156.0620 H   0  0  0  0  0  0  0  0  0  0  0  0  # atno 8009 bound_to 7997
  155.1705  140.0386  157.2852 H   0  0  0  0  0  0  0  0  0  0  0  0  # atno 8010 bound_to 7997
  139.9736  143.5819  152.2404 H   0  0  0  0  0  0  0  0  0  0  0  0  # atno 10167 bound_to 10162
  156.7122  130.5125  149.5889 H   0  0  0  0  0  0  0  0  0  0  0  0  # atno 10718 bound_to 10713
  154.8386  135.4462  154.1314 H   0  0  0  0  0  0  0  0  0  0  0  0  # atno 10763 bound_to 10752
  153.2523  135.6928  153.7672 H   0  0  0  0  0  0  0  0  0  0  0  0  # atno 10764 bound_to 10752
  153.6979  135.3376  155.3193 H   0  0  0  0  0  0  0  0  0  0  0  0  # atno 10765 bound_to 10752
  140.3065  134.7552  157.3958 H   0  0  0  0  0  0  0  0  0  0  0  0  # atno 11005 bound_to 11000
  146.2098  140.6035  142.9065 LP  0  0  0  0  0  0  0  0  0  0  0  0  # atno 17320 bound_to 7965
  144.7669  140.5551  143.6696 LP  0  0  0  0  0  0  0  0  0  0  0  0  # atno 17321 bound_to 7965
  139.6463  144.7658  151.2238 LP  0  0  0  0  0  0  0  0  0  0  0  0  # atno 17342 bound_to 10162
  140.7513  143.6234  150.8491 LP  0  0  0  0  0  0  0  0  0  0  0  0  # atno 17343 bound_to 10162
  156.1653  130.6401  151.0770 LP  0  0  0  0  0  0  0  0  0  0  0  0  # atno 17370 bound_to 10713
  157.6932  131.0803  150.7048 LP  0  0  0  0  0  0  0  0  0  0  0  0  # atno 17371 bound_to 10713
  140.1062  134.5406  155.8307 LP  0  0  0  0  0  0  0  0  0  0  0  0  # atno 17394 bound_to 11000
  141.2117  133.6710  156.6603 LP  0  0  0  0  0  0  0  0  0  0  0  0  # atno 17395 bound_to 11000

$$$$
