AV-unprocessed.smi:1386|AV-procd|sdf|5639|dock6
  -GOLD-   22720 5253D 1   1.00000     0.00000
 Structure written by MMmdl.
 35 36  0  0  0  0  0  0  0  0  1 V2000
  152.0951  136.6626  157.2598 C   0  0  0  0  0  0  0  0  0  0  0  0
  152.7917  137.9769  156.8838 C   0  0  1  0  0  0  0  0  0  0  0  0
  152.6346  138.2922  155.3821 C   0  0  0  0  0  0  0  0  0  0  0  0
  151.2727  138.6494  155.0262 N   0  0  0  0  0  0  0  0  0  0  0  0
  150.6207  139.8469  155.2903 C   0  0  0  0  0  0  0  0  0  0  0  0
  149.3482  139.7221  154.7804 C   0  0  0  0  0  0  0  0  0  0  0  0
  149.1993  138.4685  154.1919 N   0  0  0  0  0  0  0  0  0  0  0  0
  150.3811  137.8935  154.3709 C   0  0  0  0  0  0  0  0  0  0  0  0
  152.2386  139.0634  157.6917 N   0  0  0  0  0  0  0  0  0  0  0  0
  152.8926  139.7517  158.6445 C   0  0  0  0  0  0  0  0  0  0  0  0
  154.0332  139.4571  159.0049 O   0  0  0  0  0  0  0  0  0  0  0  0
  152.1937  140.7867  159.1750 N   0  0  0  0  0  0  0  0  0  0  0  0
  150.9110  141.3058  158.6725 C   0  0  0  0  0  0  0  0  0  0  0  0
  151.1860  142.4737  157.7103 C   0  0  0  0  0  0  0  0  0  0  0  0
  152.0130  143.8478  158.5713 S   0  0  0  0  0  0  0  0  0  0  0  0
  153.3530  142.9327  159.3968 C   0  0  0  0  0  0  0  0  0  0  0  0
  152.8040  141.7048  160.1437 C   0  0  0  0  0  0  0  0  0  0  0  0
  152.5025  135.8267  156.6903 H   0  0  0  0  0  0  0  0  0  0  0  0
  151.0235  136.7089  157.0623 H   0  0  0  0  0  0  0  0  0  0  0  0
  152.2301  136.4359  158.3178 H   0  0  0  0  0  0  0  0  0  0  0  0
  153.8542  137.8500  157.0978 H   0  0  0  0  0  0  0  0  0  0  0  0
  153.2838  139.1225  155.1017 H   0  0  0  0  0  0  0  0  0  0  0  0
  152.9424  137.4365  154.7790 H   0  0  0  0  0  0  0  0  0  0  0  0
  151.0991  140.6615  155.8139 H   0  0  0  0  0  0  0  0  0  0  0  0
  148.5353  140.4331  154.7903 H   0  0  0  0  0  0  0  0  0  0  0  0
  150.5997  136.8936  154.0257 H   0  0  0  0  0  0  0  0  0  0  0  0
  151.2988  139.3570  157.4687 H   0  0  0  0  0  0  0  0  0  0  0  0
  150.3081  140.5455  158.1756 H   0  0  0  0  0  0  0  0  0  0  0  0
  150.2960  141.6483  159.5059 H   0  0  0  0  0  0  0  0  0  0  0  0
  151.8134  142.1454  156.8817 H   0  0  0  0  0  0  0  0  0  0  0  0
  150.2543  142.8408  157.2801 H   0  0  0  0  0  0  0  0  0  0  0  0
  154.0880  142.6280  158.6505 H   0  0  0  0  0  0  0  0  0  0  0  0
  153.8607  143.6041  160.0894 H   0  0  0  0  0  0  0  0  0  0  0  0
  152.0683  142.0132  160.8877 H   0  0  0  0  0  0  0  0  0  0  0  0
  153.6026  141.2236  160.7106 H   0  0  0  0  0  0  0  0  0  0  0  0
  1  2  1  0  0  0  0
  1 18  1  0  0  0  0
  1 19  1  0  0  0  0
  1 20  1  0  0  0  0
  2  3  1  0  0  0  0
  2  9  1  0  0  0  0
  2 21  1  0  0  0  0
  3  4  1  0  0  0  0
  3 22  1  0  0  0  0
  3 23  1  0  0  0  0
  4  8  1  0  0  0  0
  4  5  1  0  0  0  0
  5  6  2  0  0  0  0
  5 24  1  0  0  0  0
  6  7  1  0  0  0  0
  6 25  1  0  0  0  0
  7  8  2  0  0  0  0
  8 26  1  0  0  0  0
  9 10  1  0  0  0  0
  9 27  1  0  0  0  0
 10 11  2  0  0  0  0
 10 12  1  0  0  0  0
 12 17  1  0  0  0  0
 12 13  1  0  0  0  0
 13 14  1  0  0  0  0
 13 28  1  0  0  0  0
 13 29  1  0  0  0  0
 14 15  1  0  0  0  0
 14 30  1  0  0  0  0
 14 31  1  0  0  0  0
 15 16  1  0  0  0  0
 16 17  1  0  0  0  0
 16 32  1  0  0  0  0
 16 33  1  0  0  0  0
 17 34  1  0  0  0  0
 17 35  1  0  0  0  0
M  END
> <s_m_source_file>
AV-unprocessed.smi

> <i_m_source_file_index>
1386

> <i_lp_mmshare_version>
43012

> <i_f3d_flags>
0

> <s_epik_input>
W2NIXTFuW2NIXVtjSF1uMVtDSDJdW0NAQEhdKFtDSDNdKVtOSF1DKD1PKU4yW0NIMl1bQ0gyXVNbQ0gyXVtDSDJdMg==

> <s_epik_cmdline>
J2VwaWtfcHl0aG9uJywgJy1waCcsICc3LjAnLCAnLXRuJywgJzgnLCAnLW1hJywgJzIwMCcsICctbWV0YWxfYmluZGluZycsICctaW1hZScsICc8aW5maWxlLm1hZT4nLCAnLW9tYWUnLCAnPG91dGZpbGUubWFlPic=

> <r_lp_tautomer_probability>
1

> <r_epik_Ionization_Penalty>
0.622677

> <r_epik_Ionization_Penalty_Charging>
0.62263

> <r_epik_Ionization_Penalty_Neutral>
4.67019e-05

> <r_epik_State_Penalty>
0.63879

> <r_epik_Charging_Adjusted_Penalty>
1.26142

> <i_epik_Tot_Q>
0

> <i_epik_Tot_abs_Q>
0

> <r_epik_Metal_State_Penalty>
0.307117

> <b_epik_Metal_Only>
0

> <s_lp_Force_Field>
OPLS_2005

> <r_lp_Energy>
24.3831

> <b_lp_Chiralities_Consistent>
1

> <s_lp_Variant>
AV-unprocessed.smi:1386-4

> <Gold.Version>
5.8.1

> <Gold.Id.Protein>
6NUR|6NUR_protein|mol2

> <Gold.PLP.Fitness>
41.2667

> <Gold.PLP.PLP>
-35.5982

> <Gold.PLP.part.hbond>
-1.0000

> <Gold.PLP.part.metal>
0.0000

> <Gold.PLP.part.buried>
-2.1143

> <Gold.PLP.part.nonpolar>
-33.2796

> <Gold.PLP.part.repulsive>
0.7806

> <Gold.PLP.ligand.clash>
0.0122

> <Gold.PLP.ligand.torsion>
0.2821

> <Gold.PLP.Chemscore.Hbond>
1.0000

> <Gold.PLP.Chemscore.CHOScore>
1.0584

> <Gold.PLP.Chemscore.Metal>
0.0000

> <Gold.Chemscore.Hbonds>
donor molecule, donor type, donor heavy atom, donor atom, acceptor molecule, acceptor atom, score
      P1  H  7997  8008       L1    11  0.78
      L1  C     8    26       P1  7948  0.19
      L1  C     8    26       P1  7949  0.30

> <Gold.PLP.Chemscore.Internal.Correction>
0.0698

> <Gold.Rescore>
     Score         DG    S(hbond)    S(metal)    S(lipo)     H(rot)  DE(clash)    DE(int)     intcor
     12.60     -13.18       0.65        0.00      81.96       1.59       0.02       0.55       ----

> <Gold.Chemscore.Fitness>
12.5991

> <Gold.Chemscore.DG>
-13.1774

> <Gold.Chemscore.ZeroCoef>
-5.4800

> <Gold.Chemscore.Hbond>
0.6523

> <Gold.Chemscore.Metal>
0.0000

> <Gold.Chemscore.Lipo>
81.9598

> <Gold.Chemscore.Internal_Hbond>
0.0000

> <Gold.Chemscore.DEClash>
0.0237

> <Gold.Chemscore.DEInternal>
0.5546

> <Gold.Chemscore.Rot>
1.5901

> <Gold.Chemscore.Internal.Correction>
   9.000000E+99

> <Gold.Chemscore.Hbonds>
donor molecule, donor type, donor heavy atom, donor atom, acceptor molecule, acceptor atom, score
      P1  H  7997  8008       L1    11  0.29

> <Gold.Chemscore.Hbond.Weighted>
-2.1787

> <Gold.Chemscore.Metal.Weighted>
-0.0000

> <Gold.Chemscore.Lipo.Weighted>
-9.5893

> <Gold.Chemscore.Internal_Hbond.Weighted>
0.0000

> <Gold.Chemscore.DEClash.Weighted>
0.0237

> <Gold.Chemscore.DEInternal.Weighted>
0.5546

> <Gold.Chemscore.Rot.Weighted>
4.0706

> <Gold.Chemscore.Internal.Correction.Weighted>
   9.000000E+99

> <Gold.Protein.RotatedTorsions>
[ 6907 6896 6895 6894 ] final -144.90 input  -60.11 | X-H torsion
[ 7974 7965 7964 7962 ] final -143.72 input  175.53 | X-H torsion
[ 8008 7997 7996 7995 ] final -128.05 input   59.86 | X-H torsion
[ 10167 10162 10161 10158 ] final  -13.15 input  -65.29 | X-H torsion
[ 10718 10713 10712 10709 ] final  -55.03 input   66.30 | X-H torsion
[ 10763 10752 10751 10750 ] final  173.27 input  -60.55 | X-H torsion
[ 11005 11000 10999 10996 ] final -124.34 input  -57.11 | X-H torsion

> <Gold.Protein.ActiveResidues>
 VAL166  LYS551  ARG553  GLY616  TRP617  ASP618  TYR619  PRO620  LYS621  CYS622 
 ASP623  PHE694  ASN695  SER759  ASP760  ASP761  ALA762  ILE779  LEU786  VAL792 
 PHE793  MET794  SER795  GLU796  ALA797  LYS798  CYS799  TRP800  GLU811  SER814 

> <Gold.Protein.RotatedAtoms>
  151.1204  133.5108  159.2602 H   0  0  0  0  0  0  0  0  0  0  0  0  # atno 6907 bound_to 6896
  151.1867  135.0384  159.8825 H   0  0  0  0  0  0  0  0  0  0  0  0  # atno 6908 bound_to 6896
  152.5455  134.1050  159.8387 H   0  0  0  0  0  0  0  0  0  0  0  0  # atno 6909 bound_to 6896
  144.8349  140.5799  143.5491 H   0  0  0  0  0  0  0  0  0  0  0  0  # atno 7974 bound_to 7965
  155.2562  140.0434  157.2992 H   0  0  0  0  0  0  0  0  0  0  0  0  # atno 8008 bound_to 7997
  154.5738  140.2381  155.8121 H   0  0  0  0  0  0  0  0  0  0  0  0  # atno 8009 bound_to 7997
  156.2143  140.2989  155.9811 H   0  0  0  0  0  0  0  0  0  0  0  0  # atno 8010 bound_to 7997
  140.7176  143.5456  150.9359 H   0  0  0  0  0  0  0  0  0  0  0  0  # atno 10167 bound_to 10162
  156.1402  130.4155  150.0116 H   0  0  0  0  0  0  0  0  0  0  0  0  # atno 10718 bound_to 10713
  154.4378  135.2761  155.1868 H   0  0  0  0  0  0  0  0  0  0  0  0  # atno 10763 bound_to 10752
  154.3748  135.6101  153.5762 H   0  0  0  0  0  0  0  0  0  0  0  0  # atno 10764 bound_to 10752
  152.9839  135.5866  154.4700 H   0  0  0  0  0  0  0  0  0  0  0  0  # atno 10765 bound_to 10752
  140.9849  134.0621  157.3723 H   0  0  0  0  0  0  0  0  0  0  0  0  # atno 11005 bound_to 11000
  145.4817  139.1495  143.3758 LP  0  0  0  0  0  0  0  0  0  0  0  0  # atno 17320 bound_to 7965
  146.2648  140.4953  142.8838 LP  0  0  0  0  0  0  0  0  0  0  0  0  # atno 17321 bound_to 7965
  139.9180  143.6640  152.3102 LP  0  0  0  0  0  0  0  0  0  0  0  0  # atno 17342 bound_to 10162
  139.7047  144.7630  151.1213 LP  0  0  0  0  0  0  0  0  0  0  0  0  # atno 17343 bound_to 10162
  156.8003  130.9288  151.3646 LP  0  0  0  0  0  0  0  0  0  0  0  0  # atno 17370 bound_to 10713
  157.6569  130.8932  149.9747 LP  0  0  0  0  0  0  0  0  0  0  0  0  # atno 17371 bound_to 10713
  139.8966  135.0146  156.7059 LP  0  0  0  0  0  0  0  0  0  0  0  0  # atno 17394 bound_to 11000
  140.7130  133.9206  155.8097 LP  0  0  0  0  0  0  0  0  0  0  0  0  # atno 17395 bound_to 11000

$$$$
