AV-unprocessed.smi:290|AV-procd|sdf|2236|dock10
  -GOLD-   2262022103D 1   1.00000     0.00000
 Structure written by MMmdl.
 59 62  0  0  0  0  0  0  0  0  2 V2000
  149.8187  138.8905  157.2894 C   0  0  0  0  0  0  0  0  0  0  0  0
  150.0140  140.4019  157.4848 C   0  0  1  0  0  0  0  0  0  0  0  0
  151.1068  140.6737  158.3607 O   0  0  0  0  0  0  0  0  0  0  0  0
  151.9143  141.7229  157.8394 C   0  0  0  0  0  0  0  0  0  0  0  0
  151.0608  142.3990  156.7713 C   0  0  0  0  0  0  0  0  0  0  0  0
  150.2541  141.2375  156.2072 C   0  0  1  0  0  0  0  0  0  0  0  0
  151.0719  140.5221  155.2960 O   0  0  0  0  0  0  0  0  0  0  0  0
  148.9823  141.6401  155.4155 C   0  0  0  0  0  0  0  0  0  0  0  0
  148.1182  140.5333  155.0351 N   0  0  0  0  0  0  0  0  0  0  0  0
  148.0499  139.9238  153.8022 C   0  0  0  0  0  0  0  0  0  0  0  0
  147.1920  138.9447  153.7111 N   0  0  0  0  0  0  0  0  0  0  0  0
  146.6364  138.8628  154.9821 C   0  0  0  0  0  0  0  0  0  0  0  0
  145.6498  138.0339  155.5866 C   0  0  0  0  0  0  0  0  0  0  0  0
  144.9817  137.0430  154.9580 N   0  0  0  0  0  0  0  0  0  0  0  0
  143.5325  137.1983  154.8801 C   0  0  0  0  0  0  0  0  0  0  0  0
  143.1237  136.6928  153.4955 C   0  0  0  0  0  0  0  0  0  0  0  0
  144.3723  136.9746  152.6534 C   0  0  2  0  0  0  0  0  0  0  0  0
  144.4516  136.2581  151.3457 N   0  3  1  0  0  0  0  0  0  0  0  0
  145.8260  136.2428  150.7824 C   0  0  0  0  0  0  0  0  0  0  0  0
  143.8612  134.8924  151.4142 C   0  0  0  0  0  0  0  0  0  0  0  0
  144.3480  133.9604  150.2885 C   0  0  0  0  0  0  0  0  0  0  0  0
  143.8471  134.3919  149.0414 O   0  0  0  0  0  0  0  0  0  0  0  0
  145.5061  136.6486  153.6532 C   0  0  2  0  0  0  0  0  0  0  0  0
  145.9124  135.1634  153.6975 C   0  0  0  0  0  0  0  0  0  0  0  0
  145.3598  138.2377  156.8941 N   0  0  0  0  0  0  0  0  0  0  0  0
  145.9909  139.1987  157.5759 C   0  0  0  0  0  0  0  0  0  0  0  0
  146.9255  140.0501  157.1474 N   0  0  0  0  0  0  0  0  0  0  0  0
  147.2180  139.8458  155.8306 C   0  0  0  0  0  0  0  0  0  0  0  0
  144.3876  138.0446  152.4412 H   0  0  0  0  0  0  0  0  0  0  0  0
  146.3919  137.2368  153.4069 H   0  0  0  0  0  0  0  0  0  0  0  0
  148.9849  138.6872  156.6173 H   0  0  0  0  0  0  0  0  0  0  0  0
  149.6032  138.4038  158.2407 H   0  0  0  0  0  0  0  0  0  0  0  0
  150.7099  138.4184  156.8756 H   0  0  0  0  0  0  0  0  0  0  0  0
  149.1437  140.7909  158.0107 H   0  0  0  0  0  0  0  0  0  0  0  0
  152.2276  142.4121  158.6237 H   0  0  0  0  0  0  0  0  0  0  0  0
  152.8098  141.2876  157.3944 H   0  0  0  0  0  0  0  0  0  0  0  0
  150.4115  143.1251  157.2593 H   0  0  0  0  0  0  0  0  0  0  0  0
  151.6511  142.9288  156.0228 H   0  0  0  0  0  0  0  0  0  0  0  0
  151.1126  139.6195  155.5721 H   0  0  0  0  0  0  0  0  0  0  0  0
  148.3873  142.3423  156.0012 H   0  0  0  0  0  0  0  0  0  0  0  0
  149.2655  142.1717  154.5058 H   0  0  0  0  0  0  0  0  0  0  0  0
  148.6564  140.2362  152.9644 H   0  0  0  0  0  0  0  0  0  0  0  0
  143.0419  136.6288  155.6697 H   0  0  0  0  0  0  0  0  0  0  0  0
  143.2427  138.2432  155.0004 H   0  0  0  0  0  0  0  0  0  0  0  0
  142.9221  135.6214  153.5365 H   0  0  0  0  0  0  0  0  0  0  0  0
  142.2290  137.1941  153.1249 H   0  0  0  0  0  0  0  0  0  0  0  0
  146.5217  135.7570  151.4678 H   0  0  0  0  0  0  0  0  0  0  0  0
  146.1873  137.2520  150.5867 H   0  0  0  0  0  0  0  0  0  0  0  0
  145.8704  135.7173  149.8303 H   0  0  0  0  0  0  0  0  0  0  0  0
  144.0866  134.4533  152.3871 H   0  0  0  0  0  0  0  0  0  0  0  0
  142.7742  134.9440  151.3559 H   0  0  0  0  0  0  0  0  0  0  0  0
  145.4336  133.8880  150.2432 H   0  0  0  0  0  0  0  0  0  0  0  0
  143.9797  132.9500  150.4680 H   0  0  0  0  0  0  0  0  0  0  0  0
  144.5738  134.6665  148.5022 H   0  0  0  0  0  0  0  0  0  0  0  0
  146.3584  134.8392  152.7590 H   0  0  0  0  0  0  0  0  0  0  0  0
  145.0610  134.5153  153.9057 H   0  0  0  0  0  0  0  0  0  0  0  0
  146.6537  134.9911  154.4787 H   0  0  0  0  0  0  0  0  0  0  0  0
  145.7056  139.3017  158.6125 H   0  0  0  0  0  0  0  0  0  0  0  0
  143.8786  136.7848  150.7016 H   0  0  0  0  0  0  0  0  0  0  0  0
  1  2  1  0  0  0  0
  1 31  1  0  0  0  0
  1 32  1  0  0  0  0
  1 33  1  0  0  0  0
  2  6  1  0  0  0  0
  2  3  1  0  0  0  0
  2 34  1  0  0  0  0
  3  4  1  0  0  0  0
  4  5  1  0  0  0  0
  4 35  1  0  0  0  0
  4 36  1  0  0  0  0
  5  6  1  0  0  0  0
  5 37  1  0  0  0  0
  5 38  1  0  0  0  0
  6  7  1  0  0  0  0
  6  8  1  0  0  0  0
  7 39  1  0  0  0  0
  8  9  1  0  0  0  0
  8 40  1  0  0  0  0
  8 41  1  0  0  0  0
  9 28  1  0  0  0  0
  9 10  1  0  0  0  0
 10 11  2  0  0  0  0
 10 42  1  0  0  0  0
 11 12  1  0  0  0  0
 12 28  2  0  0  0  0
 12 13  1  0  0  0  0
 13 14  1  0  0  0  0
 13 25  2  0  0  0  0
 14 23  1  0  0  0  0
 14 15  1  0  0  0  0
 15 16  1  0  0  0  0
 15 43  1  0  0  0  0
 15 44  1  0  0  0  0
 16 17  1  0  0  0  0
 16 45  1  0  0  0  0
 16 46  1  0  0  0  0
 17 29  1  0  0  0  0
 17 18  1  0  0  0  0
 17 23  1  0  0  0  0
 18 19  1  0  0  0  0
 18 20  1  0  0  0  0
 18 59  1  0  0  0  0
 19 47  1  0  0  0  0
 19 48  1  0  0  0  0
 19 49  1  0  0  0  0
 20 21  1  0  0  0  0
 20 50  1  0  0  0  0
 20 51  1  0  0  0  0
 21 22  1  0  0  0  0
 21 52  1  0  0  0  0
 21 53  1  0  0  0  0
 22 54  1  0  0  0  0
 23 30  1  0  0  0  0
 23 24  1  0  0  0  0
 24 55  1  0  0  0  0
 24 56  1  0  0  0  0
 24 57  1  0  0  0  0
 25 26  1  0  0  0  0
 26 27  2  0  0  0  0
 26 58  1  0  0  0  0
 27 28  1  0  0  0  0
M  CHG  1  18   1
M  END
> <s_m_source_file>
AV-unprocessed.smi

> <i_m_source_file_index>
290

> <i_lp_mmshare_version>
43012

> <i_f3d_flags>
0

> <s_epik_input>
W0NIMl0xW0NIMl1PW0NAQEhdKFtDSDNdKVtDQEBdMShbT0hdKVtDSDJdbihbY0hdbjIpYyhjMjMpbltjSF1uYzNONFtDSDJdW0NIMl1bQ0BIXShbQ0BIXTRbQ0gzXSlOKFtDSDNdKVtDSDJdW0NIMl1bT0hd

> <s_epik_cmdline>
J2VwaWtfcHl0aG9uJywgJy1waCcsICc3LjAnLCAnLXRuJywgJzgnLCAnLW1hJywgJzIwMCcsICctbWV0YWxfYmluZGluZycsICctaW1hZScsICc8aW5maWxlLm1hZT4nLCAnLW9tYWUnLCAnPG91dGZpbGUubWFlPic=

> <r_lp_tautomer_probability>
1

> <r_epik_Ionization_Penalty>
0.0036983

> <r_epik_Ionization_Penalty_Charging>
0.0032725

> <r_epik_Ionization_Penalty_Neutral>
0.000425798

> <r_epik_State_Penalty>
-0

> <r_epik_Charging_Adjusted_Penalty>
0.0032725

> <i_epik_Tot_Q>
1

> <i_epik_Tot_abs_Q>
1

> <r_epik_Metal_State_Penalty>
-0

> <b_epik_Metal_Only>
0

> <s_lp_Force_Field>
OPLS_2005

> <r_lp_Energy>
67.6637

> <b_lp_Chiralities_Consistent>
1

> <s_lp_Variant>
AV-unprocessed.smi:290-22

> <Gold.Version>
5.8.1

> <Gold.Id.Protein>
6NUR|6NUR_protein|mol2

> <Gold.PLP.Fitness>
38.9442

> <Gold.PLP.PLP>
-29.5382

> <Gold.PLP.part.hbond>
-4.0000

> <Gold.PLP.part.metal>
0.0000

> <Gold.PLP.part.buried>
-3.5811

> <Gold.PLP.part.nonpolar>
-21.5809

> <Gold.PLP.part.repulsive>
0.2544

> <Gold.PLP.ligand.clash>
0.0000

> <Gold.PLP.ligand.torsion>
1.1237

> <Gold.PLP.Chemscore.Hbond>
2.7920

> <Gold.PLP.Chemscore.CHOScore>
1.0000

> <Gold.PLP.Chemscore.Metal>
0.0000

> <Gold.Chemscore.Hbonds>
donor molecule, donor type, donor heavy atom, donor atom, acceptor molecule, acceptor atom, score
      L1  H    18    59       P1 10171  0.80
      L1  H    22    54       P1  7921  1.00
      P1  H  7989  7998       L1     7  0.94
      L1  C    10    42       P1  7957  1.00

> <Gold.PLP.Chemscore.Internal.Correction>
0.2775

> <Gold.Rescore>
     Score         DG    S(hbond)    S(metal)    S(lipo)     H(rot)  DE(clash)    DE(int)     intcor
     10.11     -13.56       2.80        0.00      69.29       3.67       0.43       3.03       ----

> <Gold.Chemscore.Fitness>
10.1073

> <Gold.Chemscore.DG>
-13.5648

> <Gold.Chemscore.ZeroCoef>
-5.4800

> <Gold.Chemscore.Hbond>
2.8032

> <Gold.Chemscore.Metal>
0.0000

> <Gold.Chemscore.Lipo>
69.2859

> <Gold.Chemscore.Internal_Hbond>
0.0000

> <Gold.Chemscore.DEClash>
0.4286

> <Gold.Chemscore.DEInternal>
3.0289

> <Gold.Chemscore.Rot>
3.6658

> <Gold.Chemscore.Internal.Correction>
   9.000000E+99

> <Gold.Chemscore.Hbonds>
donor molecule, donor type, donor heavy atom, donor atom, acceptor molecule, acceptor atom, score
      L1  H    18    59       P1 10171  0.77
      L1  H    22    54       P1  7921  1.00
      P1  H  7989  7998       L1     7  0.84

> <Gold.Chemscore.Hbond.Weighted>
-9.3628

> <Gold.Chemscore.Metal.Weighted>
-0.0000

> <Gold.Chemscore.Lipo.Weighted>
-8.1064

> <Gold.Chemscore.Internal_Hbond.Weighted>
0.0000

> <Gold.Chemscore.DEClash.Weighted>
0.4286

> <Gold.Chemscore.DEInternal.Weighted>
3.0289

> <Gold.Chemscore.Rot.Weighted>
9.3844

> <Gold.Chemscore.Internal.Correction.Weighted>
   9.000000E+99

> <Gold.Protein.RotatedTorsions>
[ 6907 6896 6895 6894 ] final  -22.90 input  -60.11 | X-H torsion
[ 7974 7965 7964 7962 ] final   86.49 input  175.53 | X-H torsion
[ 8008 7997 7996 7995 ] final   56.02 input   59.86 | X-H torsion
[ 10167 10162 10161 10158 ] final  147.01 input  -65.29 | X-H torsion
[ 10718 10713 10712 10709 ] final  120.76 input   66.30 | X-H torsion
[ 10763 10752 10751 10750 ] final    4.25 input  -60.55 | X-H torsion
[ 11005 11000 10999 10996 ] final   99.25 input  -57.11 | X-H torsion

> <Gold.Protein.ActiveResidues>
 VAL166  LYS551  ARG553  GLY616  TRP617  ASP618  TYR619  PRO620  LYS621  CYS622 
 ASP623  PHE694  ASN695  SER759  ASP760  ASP761  ALA762  ILE779  LEU786  VAL792 
 PHE793  MET794  SER795  GLU796  ALA797  LYS798  CYS799  TRP800  GLU811  SER814 

> <Gold.Protein.RotatedAtoms>
  151.2118  135.0484  159.8913 H   0  0  0  0  0  0  0  0  0  0  0  0  # atno 6907 bound_to 6896
  152.5424  134.0737  159.8215 H   0  0  0  0  0  0  0  0  0  0  0  0  # atno 6908 bound_to 6896
  151.0891  133.5282  159.2648 H   0  0  0  0  0  0  0  0  0  0  0  0  # atno 6909 bound_to 6896
  145.5716  139.2314  143.2403 H   0  0  0  0  0  0  0  0  0  0  0  0  # atno 7974 bound_to 7965
  155.5106  140.3477  155.4388 H   0  0  0  0  0  0  0  0  0  0  0  0  # atno 8008 bound_to 7997
  156.0852  140.1396  156.9690 H   0  0  0  0  0  0  0  0  0  0  0  0  # atno 8009 bound_to 7997
  154.4602  140.0937  156.6849 H   0  0  0  0  0  0  0  0  0  0  0  0  # atno 8010 bound_to 7997
  139.4897  144.5787  151.6915 H   0  0  0  0  0  0  0  0  0  0  0  0  # atno 10167 bound_to 10162
  157.5867  131.1069  150.8080 H   0  0  0  0  0  0  0  0  0  0  0  0  # atno 10718 bound_to 10713
  153.2735  135.6934  153.7456 H   0  0  0  0  0  0  0  0  0  0  0  0  # atno 10763 bound_to 10752
  153.6471  135.3383  155.3089 H   0  0  0  0  0  0  0  0  0  0  0  0  # atno 10764 bound_to 10752
  154.8472  135.4445  154.1765 H   0  0  0  0  0  0  0  0  0  0  0  0  # atno 10765 bound_to 10752
  139.8771  134.9087  156.4577 H   0  0  0  0  0  0  0  0  0  0  0  0  # atno 11005 bound_to 11000
  146.1780  140.6542  142.9202 LP  0  0  0  0  0  0  0  0  0  0  0  0  # atno 17320 bound_to 7965
  144.7435  140.5006  143.6852 LP  0  0  0  0  0  0  0  0  0  0  0  0  # atno 17321 bound_to 7965
  140.5388  144.0612  150.6080 LP  0  0  0  0  0  0  0  0  0  0  0  0  # atno 17342 bound_to 10162
  140.3627  143.2899  152.0365 LP  0  0  0  0  0  0  0  0  0  0  0  0  # atno 17343 bound_to 10162
  156.8512  130.5081  149.5311 LP  0  0  0  0  0  0  0  0  0  0  0  0  # atno 17370 bound_to 10713
  156.0917  130.5901  150.9744 LP  0  0  0  0  0  0  0  0  0  0  0  0  # atno 17371 bound_to 10713
  140.8886  133.7864  155.9547 LP  0  0  0  0  0  0  0  0  0  0  0  0  # atno 17394 bound_to 11000
  140.8777  134.2649  157.5159 LP  0  0  0  0  0  0  0  0  0  0  0  0  # atno 17395 bound_to 11000

$$$$
