AV-unprocessed.smi:2069|AV-procd|sdf|8433|dock4
  -GOLD-   2272011133D 1   1.00000     0.00000
 Structure written by MMmdl.
 39 40  0  0  0  0  0  0  0  0  2 V2000
  136.1571  140.5438  152.9874 C   0  0  0  0  0  0  0  0  0  0  0  0
  137.6293  140.3649  153.1370 C   0  0  0  0  0  0  0  0  0  0  0  0
  138.3840  141.1662  153.8988 N   0  0  0  0  0  0  0  0  0  0  0  0
  139.7227  140.8009  153.8812 N   0  0  0  0  0  0  0  0  0  0  0  0
  139.9386  139.7304  153.1046 C   0  0  0  0  0  0  0  0  0  0  0  0
  141.2168  139.1433  152.9083 N   0  0  0  0  0  0  0  0  0  0  0  0
  141.5162  137.8457  152.7220 C   0  0  0  0  0  0  0  0  0  0  0  0
  140.7024  136.9219  152.7065 O   0  0  0  0  0  0  0  0  0  0  0  0
  142.8339  137.6715  152.5400 N   0  0  0  0  0  0  0  0  0  0  0  0
  143.4940  136.3865  152.3172 C   0  0  0  0  0  0  0  0  0  0  0  0
  142.9170  135.2405  153.1911 C   0  0  2  0  0  0  0  0  0  0  0  0
  142.9016  135.6407  154.6875 C   0  0  0  0  0  0  0  0  0  0  0  0
  143.6641  133.9661  152.9251 N   0  3  0  0  0  0  0  0  0  0  0  0
  143.6324  133.4803  151.5173 C   0  0  0  0  0  0  0  0  0  0  0  0
  144.3967  132.1532  151.3693 C   0  0  0  0  0  0  0  0  0  0  0  0
  145.7329  132.3106  151.8218 O   0  0  0  0  0  0  0  0  0  0  0  0
  145.7771  132.6646  153.1957 C   0  0  0  0  0  0  0  0  0  0  0  0
  145.0747  134.0169  153.3986 C   0  0  0  0  0  0  0  0  0  0  0  0
  138.5089  139.0759  152.3245 S   0  0  0  0  0  0  0  0  0  0  0  0
  135.8361  141.4850  153.4349 H   0  0  0  0  0  0  0  0  0  0  0  0
  135.6312  139.7254  153.4790 H   0  0  0  0  0  0  0  0  0  0  0  0
  135.8870  140.5504  151.9314 H   0  0  0  0  0  0  0  0  0  0  0  0
  141.9918  139.7896  152.8996 H   0  0  0  0  0  0  0  0  0  0  0  0
  143.4274  138.4879  152.5675 H   0  0  0  0  0  0  0  0  0  0  0  0
  143.3679  136.1736  151.2575 H   0  0  0  0  0  0  0  0  0  0  0  0
  144.5706  136.4689  152.4764 H   0  0  0  0  0  0  0  0  0  0  0  0
  141.8766  135.0794  152.9039 H   0  0  0  0  0  0  0  0  0  0  0  0
  142.3469  136.5631  154.8543 H   0  0  0  0  0  0  0  0  0  0  0  0
  143.9115  135.7923  155.0701 H   0  0  0  0  0  0  0  0  0  0  0  0
  142.4061  134.8954  155.3093 H   0  0  0  0  0  0  0  0  0  0  0  0
  142.6089  133.3003  151.1901 H   0  0  0  0  0  0  0  0  0  0  0  0
  144.0621  134.2363  150.8582 H   0  0  0  0  0  0  0  0  0  0  0  0
  143.9023  131.3554  151.9261 H   0  0  0  0  0  0  0  0  0  0  0  0
  144.4134  131.8454  150.3235 H   0  0  0  0  0  0  0  0  0  0  0  0
  145.3128  131.8864  153.8038 H   0  0  0  0  0  0  0  0  0  0  0  0
  146.8194  132.7327  153.5077 H   0  0  0  0  0  0  0  0  0  0  0  0
  145.6132  134.7955  152.8559 H   0  0  0  0  0  0  0  0  0  0  0  0
  145.1292  134.2742  154.4544 H   0  0  0  0  0  0  0  0  0  0  0  0
  143.1984  133.2527  153.4680 H   0  0  0  0  0  0  0  0  0  0  0  0
  1  2  1  0  0  0  0
  1 20  1  0  0  0  0
  1 21  1  0  0  0  0
  1 22  1  0  0  0  0
  2 19  1  0  0  0  0
  2  3  2  0  0  0  0
  3  4  1  0  0  0  0
  4  5  2  0  0  0  0
  5  6  1  0  0  0  0
  5 19  1  0  0  0  0
  6  7  1  0  0  0  0
  6 23  1  0  0  0  0
  7  8  2  0  0  0  0
  7  9  1  0  0  0  0
  9 10  1  0  0  0  0
  9 24  1  0  0  0  0
 10 11  1  0  0  0  0
 10 25  1  0  0  0  0
 10 26  1  0  0  0  0
 11 12  1  0  0  0  0
 11 13  1  0  0  0  0
 11 27  1  0  0  0  0
 12 28  1  0  0  0  0
 12 29  1  0  0  0  0
 12 30  1  0  0  0  0
 13 18  1  0  0  0  0
 13 14  1  0  0  0  0
 13 39  1  0  0  0  0
 14 15  1  0  0  0  0
 14 31  1  0  0  0  0
 14 32  1  0  0  0  0
 15 16  1  0  0  0  0
 15 33  1  0  0  0  0
 15 34  1  0  0  0  0
 16 17  1  0  0  0  0
 17 18  1  0  0  0  0
 17 35  1  0  0  0  0
 17 36  1  0  0  0  0
 18 37  1  0  0  0  0
 18 38  1  0  0  0  0
M  CHG  1  13   1
M  END
> <s_m_source_file>
AV-unprocessed.smi

> <i_m_source_file_index>
2069

> <i_lp_mmshare_version>
43012

> <i_f3d_flags>
0

> <s_epik_input>
W0NIM11jMW5uYyhzMSlbTkhdQyg9TylbTkhdW0NIMl1bQ0BIXShbQ0gzXSlOMltDSDJdW0NIMl1PW0NIMl1bQ0gyXTI=

> <s_epik_cmdline>
J2VwaWtfcHl0aG9uJywgJy1waCcsICc3LjAnLCAnLXRuJywgJzgnLCAnLW1hJywgJzIwMCcsICctbWV0YWxfYmluZGluZycsICctaW1hZScsICc8aW5maWxlLm1hZT4nLCAnLW9tYWUnLCAnPG91dGZpbGUubWFlPic=

> <r_lp_tautomer_probability>
1

> <r_epik_Ionization_Penalty>
0.70016

> <r_epik_Ionization_Penalty_Charging>
0.695697

> <r_epik_Ionization_Penalty_Neutral>
0.00446266

> <r_epik_State_Penalty>
0.717972

> <r_epik_Charging_Adjusted_Penalty>
1.41367

> <i_epik_Tot_Q>
1

> <i_epik_Tot_abs_Q>
1

> <r_epik_Metal_State_Penalty>
1.06969

> <b_epik_Metal_Only>
0

> <s_lp_Force_Field>
OPLS_2005

> <r_lp_Energy>
19.5762

> <b_lp_Chiralities_Consistent>
1

> <s_lp_Variant>
AV-unprocessed.smi:2069-3

> <Gold.Version>
5.8.1

> <Gold.Id.Protein>
6NUR|6NUR_protein|mol2

> <Gold.PLP.Fitness>
37.3699

> <Gold.PLP.PLP>
-26.3874

> <Gold.PLP.part.hbond>
-4.2768

> <Gold.PLP.part.metal>
0.0000

> <Gold.PLP.part.buried>
-3.3491

> <Gold.PLP.part.nonpolar>
-19.3571

> <Gold.PLP.part.repulsive>
0.5500

> <Gold.PLP.ligand.clash>
0.0000

> <Gold.PLP.ligand.torsion>
0.4062

> <Gold.PLP.Chemscore.Hbond>
3.9120

> <Gold.PLP.Chemscore.CHOScore>
0.0000

> <Gold.PLP.Chemscore.Metal>
0.0000

> <Gold.Chemscore.Hbonds>
donor molecule, donor type, donor heavy atom, donor atom, acceptor molecule, acceptor atom, score
      L1  H     6    23       P1 10175  1.00
      L1  H     9    24       P1 10175  0.98
      L1  H    13    39       P1 10957  1.89

> <Gold.PLP.Chemscore.Internal.Correction>
0.0589

> <Gold.Rescore>
     Score         DG    S(hbond)    S(metal)    S(lipo)     H(rot)  DE(clash)    DE(int)     intcor
     14.22     -15.95       2.66        0.00      49.63       1.65       0.00       1.73       ----

> <Gold.Chemscore.Fitness>
14.2224

> <Gold.Chemscore.DG>
-15.9518

> <Gold.Chemscore.ZeroCoef>
-5.4800

> <Gold.Chemscore.Hbond>
2.6596

> <Gold.Chemscore.Metal>
0.0000

> <Gold.Chemscore.Lipo>
49.6308

> <Gold.Chemscore.Internal_Hbond>
0.0000

> <Gold.Chemscore.DEClash>
0.0000

> <Gold.Chemscore.DEInternal>
1.7294

> <Gold.Chemscore.Rot>
1.6476

> <Gold.Chemscore.Internal.Correction>
   9.000000E+99

> <Gold.Chemscore.Hbonds>
donor molecule, donor type, donor heavy atom, donor atom, acceptor molecule, acceptor atom, score
      L1  H     6    23       P1 10175  0.39
      L1  H     9    24       P1 10175  0.92
      L1  H    13    39       P1 10957  0.87

> <Gold.Chemscore.Hbond.Weighted>
-8.8829

> <Gold.Chemscore.Metal.Weighted>
-0.0000

> <Gold.Chemscore.Lipo.Weighted>
-5.8068

> <Gold.Chemscore.Internal_Hbond.Weighted>
0.0000

> <Gold.Chemscore.DEClash.Weighted>
0.0000

> <Gold.Chemscore.DEInternal.Weighted>
1.7294

> <Gold.Chemscore.Rot.Weighted>
4.2179

> <Gold.Chemscore.Internal.Correction.Weighted>
   9.000000E+99

> <Gold.Protein.RotatedTorsions>
[ 6907 6896 6895 6894 ] final  142.54 input  -60.11 | X-H torsion
[ 7974 7965 7964 7962 ] final   14.48 input  175.53 | X-H torsion
[ 8008 7997 7996 7995 ] final -106.74 input   59.86 | X-H torsion
[ 10167 10162 10161 10158 ] final -150.46 input  -65.29 | X-H torsion
[ 10718 10713 10712 10709 ] final  174.66 input   66.30 | X-H torsion
[ 10763 10752 10751 10750 ] final  -53.71 input  -60.55 | X-H torsion
[ 11005 11000 10999 10996 ] final  -70.63 input  -57.11 | X-H torsion

> <Gold.Protein.ActiveResidues>
 VAL166  LYS551  ARG553  GLY616  TRP617  ASP618  TYR619  PRO620  LYS621  CYS622 
 ASP623  PHE694  ASN695  SER759  ASP760  ASP761  ALA762  ILE779  LEU786  VAL792 
 PHE793  MET794  SER795  GLU796  ALA797  LYS798  CYS799  TRP800  GLU811  SER814 

> <Gold.Protein.RotatedAtoms>
  152.2175  133.4958  159.5143 H   0  0  0  0  0  0  0  0  0  0  0  0  # atno 6907 bound_to 6896
  150.7004  134.1386  159.4105 H   0  0  0  0  0  0  0  0  0  0  0  0  # atno 6908 bound_to 6896
  151.9307  135.0258  160.0579 H   0  0  0  0  0  0  0  0  0  0  0  0  # atno 6909 bound_to 6896
  146.2304  139.9034  142.8535 H   0  0  0  0  0  0  0  0  0  0  0  0  # atno 7974 bound_to 7965
  154.9190  140.0408  157.1987 H   0  0  0  0  0  0  0  0  0  0  0  0  # atno 8008 bound_to 7997
  154.8273  140.2893  155.5725 H   0  0  0  0  0  0  0  0  0  0  0  0  # atno 8009 bound_to 7997
  156.2984  140.2507  156.3191 H   0  0  0  0  0  0  0  0  0  0  0  0  # atno 8010 bound_to 7997
  139.7352  143.8746  152.2546 H   0  0  0  0  0  0  0  0  0  0  0  0  # atno 10167 bound_to 10162
  156.9463  131.0017  151.2958 H   0  0  0  0  0  0  0  0  0  0  0  0  # atno 10718 bound_to 10713
  154.1631  135.6471  153.4991 H   0  0  0  0  0  0  0  0  0  0  0  0  # atno 10763 bound_to 10752
  153.0105  135.5365  154.6690 H   0  0  0  0  0  0  0  0  0  0  0  0  # atno 10764 bound_to 10752
  154.6009  135.2943  155.0508 H   0  0  0  0  0  0  0  0  0  0  0  0  # atno 10765 bound_to 10752
  141.1578  133.6795  156.6782 H   0  0  0  0  0  0  0  0  0  0  0  0  # atno 11005 bound_to 11000
  145.2300  140.9969  143.3996 LP  0  0  0  0  0  0  0  0  0  0  0  0  # atno 17320 bound_to 7965
  144.9538  139.4054  143.6389 LP  0  0  0  0  0  0  0  0  0  0  0  0  # atno 17321 bound_to 7965
  139.8681  144.7082  150.9020 LP  0  0  0  0  0  0  0  0  0  0  0  0  # atno 17342 bound_to 10162
  140.7777  143.3761  151.1561 LP  0  0  0  0  0  0  0  0  0  0  0  0  # atno 17343 bound_to 10162
  157.5751  130.8337  149.8445 LP  0  0  0  0  0  0  0  0  0  0  0  0  # atno 17370 bound_to 10713
  156.0382  130.3746  150.1504 LP  0  0  0  0  0  0  0  0  0  0  0  0  # atno 17371 bound_to 10713
  140.3122  134.8076  157.4186 LP  0  0  0  0  0  0  0  0  0  0  0  0  # atno 17394 bound_to 11000
  140.1168  134.5272  155.8217 LP  0  0  0  0  0  0  0  0  0  0  0  0  # atno 17395 bound_to 11000

$$$$
