AV-unprocessed.smi:1703|AV-procd|sdf|6853|dock10
  -GOLD-   22720 8 33D 1   1.00000     0.00000
 Structure written by MMmdl.
 48 50  0  0  0  0  0  0  0  0  1 V2000
  145.5520  138.9537  156.0766 C   0  0  0  0  0  0  0  0  0  0  0  0
  146.8333  138.3676  155.4594 C   0  0  2  0  0  0  0  0  0  0  0  0
  148.0920  139.2081  155.7550 C   0  0  0  0  0  0  0  0  0  0  0  0
  148.1428  140.4443  154.9757 N   0  0  0  0  0  0  0  0  0  0  0  0
  149.3538  141.2264  155.2308 C   0  0  0  0  0  0  0  0  0  0  0  0
  149.5927  141.6273  156.7007 C   0  0  2  0  0  0  0  0  0  0  0  0
  148.6642  142.6345  157.0534 O   0  0  0  0  0  0  0  0  0  0  0  0
  151.0238  142.1593  156.9121 C   0  0  0  0  0  0  0  0  0  0  0  0
  151.5833  141.7867  158.2061 N   0  0  0  0  0  0  0  0  0  0  0  0
  152.0354  140.5715  158.6115 C   0  0  0  0  0  0  0  0  0  0  0  0
  151.9977  139.3636  157.7176 C   0  0  0  0  0  0  0  0  0  0  0  0
  152.6821  139.5444  156.4945 O   0  0  0  0  0  0  0  0  0  0  0  0
  152.4924  140.5162  159.8646 N   0  0  0  0  0  0  0  0  0  0  0  0
  152.3288  141.8124  160.3098 C   0  0  0  0  0  0  0  0  0  0  0  0
  152.6297  142.3979  161.5605 C   0  0  0  0  0  0  0  0  0  0  0  0
  152.3677  143.7642  161.7904 C   0  0  0  0  0  0  0  0  0  0  0  0
  151.8012  144.5624  160.7757 C   0  0  0  0  0  0  0  0  0  0  0  0
  151.4946  143.9988  159.5221 C   0  0  0  0  0  0  0  0  0  0  0  0
  151.7603  142.6344  159.2965 C   0  0  0  0  0  0  0  0  0  0  0  0
  148.0266  140.1147  153.5609 C   0  0  0  0  0  0  0  0  0  0  0  0
  146.7355  139.3353  153.2541 C   0  0  1  0  0  0  0  0  0  0  0  0
  146.6509  138.9175  151.7822 C   0  0  0  0  0  0  0  0  0  0  0  0
  146.6962  138.1548  154.0536 O   0  0  0  0  0  0  0  0  0  0  0  0
  145.6328  139.0010  157.1628 H   0  0  0  0  0  0  0  0  0  0  0  0
  144.6868  138.3356  155.8364 H   0  0  0  0  0  0  0  0  0  0  0  0
  145.3504  139.9642  155.7220 H   0  0  0  0  0  0  0  0  0  0  0  0
  146.9771  137.3826  155.9044 H   0  0  0  0  0  0  0  0  0  0  0  0
  148.1235  139.4218  156.8221 H   0  0  0  0  0  0  0  0  0  0  0  0
  148.9754  138.6067  155.5354 H   0  0  0  0  0  0  0  0  0  0  0  0
  150.2179  140.6679  154.8676 H   0  0  0  0  0  0  0  0  0  0  0  0
  149.3241  142.1400  154.6349 H   0  0  0  0  0  0  0  0  0  0  0  0
  149.4399  140.7770  157.3623 H   0  0  0  0  0  0  0  0  0  0  0  0
  148.8320  143.3978  156.5224 H   0  0  0  0  0  0  0  0  0  0  0  0
  151.6876  141.8022  156.1249 H   0  0  0  0  0  0  0  0  0  0  0  0
  151.0319  143.2467  156.8296 H   0  0  0  0  0  0  0  0  0  0  0  0
  152.4426  138.5211  158.2473 H   0  0  0  0  0  0  0  0  0  0  0  0
  150.9693  139.0937  157.4824 H   0  0  0  0  0  0  0  0  0  0  0  0
  152.5969  138.7548  155.9827 H   0  0  0  0  0  0  0  0  0  0  0  0
  153.0621  141.7940  162.3444 H   0  0  0  0  0  0  0  0  0  0  0  0
  152.6015  144.2018  162.7500 H   0  0  0  0  0  0  0  0  0  0  0  0
  151.6018  145.6078  160.9606 H   0  0  0  0  0  0  0  0  0  0  0  0
  151.0588  144.6094  158.7457 H   0  0  0  0  0  0  0  0  0  0  0  0
  148.0394  141.0297  152.9675 H   0  0  0  0  0  0  0  0  0  0  0  0
  148.8916  139.5280  153.2466 H   0  0  0  0  0  0  0  0  0  0  0  0
  145.8703  139.9582  153.4841 H   0  0  0  0  0  0  0  0  0  0  0  0
  146.6637  139.7878  151.1255 H   0  0  0  0  0  0  0  0  0  0  0  0
  145.7302  138.3675  151.5863 H   0  0  0  0  0  0  0  0  0  0  0  0
  147.4878  138.2757  151.5050 H   0  0  0  0  0  0  0  0  0  0  0  0
  1  2  1  0  0  0  0
  1 24  1  0  0  0  0
  1 25  1  0  0  0  0
  1 26  1  0  0  0  0
  2 23  1  0  0  0  0
  2  3  1  0  0  0  0
  2 27  1  0  0  0  0
  3  4  1  0  0  0  0
  3 28  1  0  0  0  0
  3 29  1  0  0  0  0
  4  5  1  0  0  0  0
  4 20  1  0  0  0  0
  5  6  1  0  0  0  0
  5 30  1  0  0  0  0
  5 31  1  0  0  0  0
  6  7  1  0  0  0  0
  6  8  1  0  0  0  0
  6 32  1  0  0  0  0
  7 33  1  0  0  0  0
  8  9  1  0  0  0  0
  8 34  1  0  0  0  0
  8 35  1  0  0  0  0
  9 19  1  0  0  0  0
  9 10  1  0  0  0  0
 10 11  1  0  0  0  0
 10 13  2  0  0  0  0
 11 12  1  0  0  0  0
 11 36  1  0  0  0  0
 11 37  1  0  0  0  0
 12 38  1  0  0  0  0
 13 14  1  0  0  0  0
 14 19  2  0  0  0  0
 14 15  1  0  0  0  0
 15 16  2  0  0  0  0
 15 39  1  0  0  0  0
 16 17  1  0  0  0  0
 16 40  1  0  0  0  0
 17 18  2  0  0  0  0
 17 41  1  0  0  0  0
 18 19  1  0  0  0  0
 18 42  1  0  0  0  0
 20 21  1  0  0  0  0
 20 43  1  0  0  0  0
 20 44  1  0  0  0  0
 21 22  1  0  0  0  0
 21 23  1  0  0  0  0
 21 45  1  0  0  0  0
 22 46  1  0  0  0  0
 22 47  1  0  0  0  0
 22 48  1  0  0  0  0
M  END
> <s_m_source_file>
AV-unprocessed.smi

> <i_m_source_file_index>
1703

> <i_lp_mmshare_version>
43012

> <i_f3d_flags>
0

> <s_epik_input>
W0NIM11bQ0BASF0xW0NIMl1OKFtDSDJdW0NASF0oTzEpW0NIM10pW0NIMl1bQ0BIXShbT0hdKVtDSDJdbihjKG4yKVtDSDJdW09IXSljKGMyMylbY0hdW2NIXVtjSF1bY0hdMw==

> <s_epik_cmdline>
J2VwaWtfcHl0aG9uJywgJy1waCcsICc3LjAnLCAnLXRuJywgJzgnLCAnLW1hJywgJzIwMCcsICctbWV0YWxfYmluZGluZycsICctaW1hZScsICc8aW5maWxlLm1hZT4nLCAnLW9tYWUnLCAnPG91dGZpbGUubWFlPic=

> <r_epik_Ionization_Penalty>
0.307685

> <r_epik_Ionization_Penalty_Charging>
0

> <r_epik_Ionization_Penalty_Neutral>
0.307685

> <r_epik_State_Penalty>
0.277856

> <r_epik_Charging_Adjusted_Penalty>
0.277856

> <i_epik_Tot_Q>
0

> <i_epik_Tot_abs_Q>
0

> <r_epik_Metal_State_Penalty>
0.238959

> <b_epik_Metal_Only>
0

> <s_lp_Force_Field>
OPLS_2005

> <r_lp_Energy>
33.4043

> <b_lp_Chiralities_Consistent>
1

> <s_lp_Variant>
AV-unprocessed.smi:1703-1

> <Gold.Version>
5.8.1

> <Gold.Id.Protein>
6NUR|6NUR_protein|mol2

> <Gold.PLP.Fitness>
47.2660

> <Gold.PLP.PLP>
-42.6819

> <Gold.PLP.part.hbond>
-1.9993

> <Gold.PLP.part.metal>
0.0000

> <Gold.PLP.part.buried>
-2.9214

> <Gold.PLP.part.nonpolar>
-37.7771

> <Gold.PLP.part.repulsive>
0.2069

> <Gold.PLP.ligand.clash>
0.0000

> <Gold.PLP.ligand.torsion>
0.7427

> <Gold.PLP.Chemscore.Hbond>
2.0000

> <Gold.PLP.Chemscore.CHOScore>
0.0000

> <Gold.PLP.Chemscore.Metal>
0.0000

> <Gold.Chemscore.Hbonds>
donor molecule, donor type, donor heavy atom, donor atom, acceptor molecule, acceptor atom, score
      L1  H     7    33       P1  8028  1.00
      P1  H  7997  8010       L1    12  1.00

> <Gold.PLP.Chemscore.Internal.Correction>
0.0696

> <Gold.Rescore>
     Score         DG    S(hbond)    S(metal)    S(lipo)     H(rot)  DE(clash)    DE(int)     intcor
     16.86     -17.76       1.93        0.00     112.75       2.88       0.12       0.78       ----

> <Gold.Chemscore.Fitness>
16.8621

> <Gold.Chemscore.DG>
-17.7606

> <Gold.Chemscore.ZeroCoef>
-5.4800

> <Gold.Chemscore.Hbond>
1.9330

> <Gold.Chemscore.Metal>
0.0000

> <Gold.Chemscore.Lipo>
112.7487

> <Gold.Chemscore.Internal_Hbond>
0.0000

> <Gold.Chemscore.DEClash>
0.1225

> <Gold.Chemscore.DEInternal>
0.7760

> <Gold.Chemscore.Rot>
2.8778

> <Gold.Chemscore.Internal.Correction>
   9.000000E+99

> <Gold.Chemscore.Hbonds>
donor molecule, donor type, donor heavy atom, donor atom, acceptor molecule, acceptor atom, score
      L1  H     7    33       P1  8028  0.86
      P1  H  7997  8010       L1    12  0.49

> <Gold.Chemscore.Hbond.Weighted>
-6.4561

> <Gold.Chemscore.Metal.Weighted>
-0.0000

> <Gold.Chemscore.Lipo.Weighted>
-13.1916

> <Gold.Chemscore.Internal_Hbond.Weighted>
0.0000

> <Gold.Chemscore.DEClash.Weighted>
0.1225

> <Gold.Chemscore.DEInternal.Weighted>
0.7760

> <Gold.Chemscore.Rot.Weighted>
7.3671

> <Gold.Chemscore.Internal.Correction.Weighted>
   9.000000E+99

> <Gold.Protein.RotatedTorsions>
[ 6907 6896 6895 6894 ] final  -97.41 input  -60.11 | X-H torsion
[ 7974 7965 7964 7962 ] final -153.83 input  175.53 | X-H torsion
[ 8008 7997 7996 7995 ] final   89.39 input   59.86 | X-H torsion
[ 10167 10162 10161 10158 ] final  104.86 input  -65.29 | X-H torsion
[ 10718 10713 10712 10709 ] final -172.39 input   66.30 | X-H torsion
[ 10763 10752 10751 10750 ] final -140.77 input  -60.55 | X-H torsion
[ 11005 11000 10999 10996 ] final   89.28 input  -57.11 | X-H torsion

> <Gold.Protein.ActiveResidues>
 VAL166  LYS551  ARG553  GLY616  TRP617  ASP618  TYR619  PRO620  LYS621  CYS622 
 ASP623  PHE694  ASN695  SER759  ASP760  ASP761  ALA762  ILE779  LEU786  VAL792 
 PHE793  MET794  SER795  GLU796  ALA797  LYS798  CYS799  TRP800  GLU811  SER814 

> <Gold.Protein.RotatedAtoms>
  150.7016  134.1352  159.4084 H   0  0  0  0  0  0  0  0  0  0  0  0  # atno 6907 bound_to 6896
  151.9337  135.0242  160.0540 H   0  0  0  0  0  0  0  0  0  0  0  0  # atno 6908 bound_to 6896
  152.2153  133.4907  159.5169 H   0  0  0  0  0  0  0  0  0  0  0  0  # atno 6909 bound_to 6896
  144.7720  140.4472  143.5900 H   0  0  0  0  0  0  0  0  0  0  0  0  # atno 7974 bound_to 7965
  155.9993  140.3361  155.6830 H   0  0  0  0  0  0  0  0  0  0  0  0  # atno 8008 bound_to 7997
  155.6312  140.0685  157.2666 H   0  0  0  0  0  0  0  0  0  0  0  0  # atno 8009 bound_to 7997
  154.4244  140.1759  156.1462 H   0  0  0  0  0  0  0  0  0  0  0  0  # atno 8010 bound_to 7997
  139.7141  144.7072  151.0979 H   0  0  0  0  0  0  0  0  0  0  0  0  # atno 10167 bound_to 10162
  156.7548  130.9391  151.3116 H   0  0  0  0  0  0  0  0  0  0  0  0  # atno 10718 bound_to 10713
  154.8567  135.3543  154.5761 H   0  0  0  0  0  0  0  0  0  0  0  0  # atno 10763 bound_to 10752
  153.6373  135.7000  153.5259 H   0  0  0  0  0  0  0  0  0  0  0  0  # atno 10764 bound_to 10752
  153.3000  135.4209  155.1203 H   0  0  0  0  0  0  0  0  0  0  0  0  # atno 10765 bound_to 10752
  139.8878  134.8541  156.3119 H   0  0  0  0  0  0  0  0  0  0  0  0  # atno 11005 bound_to 11000
  145.6295  139.1534  143.2977 LP  0  0  0  0  0  0  0  0  0  0  0  0  # atno 17320 bound_to 7965
  146.1874  140.6400  142.9161 LP  0  0  0  0  0  0  0  0  0  0  0  0  # atno 17321 bound_to 7965
  140.7740  143.5253  150.9487 LP  0  0  0  0  0  0  0  0  0  0  0  0  # atno 17342 bound_to 10162
  139.8939  143.6919  152.3141 LP  0  0  0  0  0  0  0  0  0  0  0  0  # atno 17343 bound_to 10162
  157.6761  130.9095  150.0153 LP  0  0  0  0  0  0  0  0  0  0  0  0  # atno 17370 bound_to 10713
  156.1377  130.3642  149.9631 LP  0  0  0  0  0  0  0  0  0  0  0  0  # atno 17371 bound_to 10713
  140.9844  133.7247  156.0720 LP  0  0  0  0  0  0  0  0  0  0  0  0  # atno 17394 bound_to 11000
  140.7707  134.3836  157.5508 LP  0  0  0  0  0  0  0  0  0  0  0  0  # atno 17395 bound_to 11000

$$$$
