AV-unprocessed.smi:980|AV-procd|sdf|4312|dock5
  -GOLD-   22720 2223D 1   1.00000     0.00000
 Structure written by MMmdl.
 44 45  0  0  0  0  0  0  0  0  1 V2000
  156.6520  133.2984  165.2561 C   0  0  0  0  0  0  0  0  0  0  0  0
  155.1726  133.6682  165.0165 C   0  0  0  0  0  0  0  0  0  0  0  0
  154.5547  132.5897  164.1047 C   0  0  0  0  0  0  0  0  0  0  0  0
  154.4568  133.6738  166.3819 C   0  0  0  0  0  0  0  0  0  0  0  0
  155.0481  135.0309  164.3639 C   0  0  0  0  0  0  0  0  0  0  0  0
  154.5175  136.1834  164.8981 C   0  0  0  0  0  0  0  0  0  0  0  0
  154.5625  137.5157  163.7770 S   0  0  0  0  0  0  0  0  0  0  0  0
  155.3299  136.4588  162.6024 C   0  0  0  0  0  0  0  0  0  0  0  0
  155.6934  136.8959  161.2235 C   0  0  0  0  0  0  0  0  0  0  0  0
  156.2690  138.3211  161.1972 C   0  0  0  0  0  0  0  0  0  0  0  0
  155.2273  139.3310  161.3429 N   0  0  0  0  0  0  0  0  0  0  0  0
  154.8266  140.1738  160.3785 C   0  0  0  0  0  0  0  0  0  0  0  0
  155.3181  140.1902  159.2495 O   0  0  0  0  0  0  0  0  0  0  0  0
  153.6931  141.1418  160.7438 C   0  0  1  0  0  0  0  0  0  0  0  0
  154.0110  141.9134  162.0449 C   0  0  0  0  0  0  0  0  0  0  0  0
  153.0308  143.0472  162.2910 C   0  0  0  0  0  0  0  0  0  0  0  0
  152.2143  143.5377  161.3425 C   0  0  0  0  0  0  0  0  0  0  0  0
  152.1839  143.0189  159.9157 C   0  0  0  0  0  0  0  0  0  0  0  0
  153.3977  142.1264  159.5940 C   0  0  0  0  0  0  0  0  0  0  0  0
  155.5004  135.2130  163.0499 N   0  0  0  0  0  0  0  0  0  0  0  0
  156.7456  132.3176  165.7239 H   0  0  0  0  0  0  0  0  0  0  0  0
  157.1437  134.0171  165.9129 H   0  0  0  0  0  0  0  0  0  0  0  0
  157.2126  133.2646  164.3210 H   0  0  0  0  0  0  0  0  0  0  0  0
  155.0466  132.5647  163.1315 H   0  0  0  0  0  0  0  0  0  0  0  0
  153.4930  132.7693  163.9310 H   0  0  0  0  0  0  0  0  0  0  0  0
  154.6461  131.5964  164.5453 H   0  0  0  0  0  0  0  0  0  0  0  0
  154.5436  132.7081  166.8808 H   0  0  0  0  0  0  0  0  0  0  0  0
  153.3930  133.8896  166.2774 H   0  0  0  0  0  0  0  0  0  0  0  0
  154.8803  134.4268  167.0476 H   0  0  0  0  0  0  0  0  0  0  0  0
  154.0955  136.3332  165.8805 H   0  0  0  0  0  0  0  0  0  0  0  0
  156.4192  136.1905  160.8174 H   0  0  0  0  0  0  0  0  0  0  0  0
  154.8061  136.8290  160.5925 H   0  0  0  0  0  0  0  0  0  0  0  0
  157.0204  138.4445  161.9792 H   0  0  0  0  0  0  0  0  0  0  0  0
  156.7764  138.4978  160.2485 H   0  0  0  0  0  0  0  0  0  0  0  0
  154.7678  139.3855  162.2403 H   0  0  0  0  0  0  0  0  0  0  0  0
  152.7878  140.5554  160.9133 H   0  0  0  0  0  0  0  0  0  0  0  0
  153.9738  141.2319  162.8957 H   0  0  0  0  0  0  0  0  0  0  0  0
  155.0164  142.3364  162.0211 H   0  0  0  0  0  0  0  0  0  0  0  0
  153.0156  143.4717  163.2842 H   0  0  0  0  0  0  0  0  0  0  0  0
  151.5280  144.3358  161.5850 H   0  0  0  0  0  0  0  0  0  0  0  0
  151.2583  142.4589  159.7800 H   0  0  0  0  0  0  0  0  0  0  0  0
  152.1494  143.8625  159.2260 H   0  0  0  0  0  0  0  0  0  0  0  0
  154.2699  142.7604  159.4246 H   0  0  0  0  0  0  0  0  0  0  0  0
  153.2215  141.5911  158.6598 H   0  0  0  0  0  0  0  0  0  0  0  0
  1  2  1  0  0  0  0
  1 21  1  0  0  0  0
  1 22  1  0  0  0  0
  1 23  1  0  0  0  0
  2  3  1  0  0  0  0
  2  4  1  0  0  0  0
  2  5  1  0  0  0  0
  3 24  1  0  0  0  0
  3 25  1  0  0  0  0
  3 26  1  0  0  0  0
  4 27  1  0  0  0  0
  4 28  1  0  0  0  0
  4 29  1  0  0  0  0
  5 20  1  0  0  0  0
  5  6  2  0  0  0  0
  6  7  1  0  0  0  0
  6 30  1  0  0  0  0
  7  8  1  0  0  0  0
  8  9  1  0  0  0  0
  8 20  2  0  0  0  0
  9 10  1  0  0  0  0
  9 31  1  0  0  0  0
  9 32  1  0  0  0  0
 10 11  1  0  0  0  0
 10 33  1  0  0  0  0
 10 34  1  0  0  0  0
 11 12  1  0  0  0  0
 11 35  1  0  0  0  0
 12 13  2  0  0  0  0
 12 14  1  0  0  0  0
 14 19  1  0  0  0  0
 14 15  1  0  0  0  0
 14 36  1  0  0  0  0
 15 16  1  0  0  0  0
 15 37  1  0  0  0  0
 15 38  1  0  0  0  0
 16 17  2  0  0  0  0
 16 39  1  0  0  0  0
 17 18  1  0  0  0  0
 17 40  1  0  0  0  0
 18 19  1  0  0  0  0
 18 41  1  0  0  0  0
 18 42  1  0  0  0  0
 19 43  1  0  0  0  0
 19 44  1  0  0  0  0
M  END
> <s_m_source_file>
AV-unprocessed.smi

> <i_m_source_file_index>
980

> <i_lp_mmshare_version>
43012

> <i_f3d_flags>
0

> <s_epik_input>
W0NIM11DKFtDSDNdKShbQ0gzXSljMVtjSF1zYyhuMSlbQ0gyXVtDSDJdW05IXUMoPU8pW0NAQEhdMltDSDJdW0NIXT1bQ0hdW0NIMl1bQ0gyXTI=

> <s_epik_cmdline>
J2VwaWtfcHl0aG9uJywgJy1waCcsICc3LjAnLCAnLXRuJywgJzgnLCAnLW1hJywgJzIwMCcsICctbWV0YWxfYmluZGluZycsICctaW1hZScsICc8aW5maWxlLm1hZT4nLCAnLW9tYWUnLCAnPG91dGZpbGUubWFlPic=

> <r_epik_Ionization_Penalty>
0.000809238

> <r_epik_Ionization_Penalty_Charging>
0

> <r_epik_Ionization_Penalty_Neutral>
0.000809238

> <r_epik_State_Penalty>
0.000520038

> <r_epik_Charging_Adjusted_Penalty>
0.000520038

> <i_epik_Tot_Q>
0

> <i_epik_Tot_abs_Q>
0

> <r_epik_Metal_State_Penalty>
-0

> <b_epik_Metal_Only>
0

> <s_lp_Force_Field>
OPLS_2005

> <r_lp_Energy>
-0.741004

> <b_lp_Chiralities_Consistent>
1

> <s_lp_Variant>
AV-unprocessed.smi:980-2

> <Gold.Version>
5.8.1

> <Gold.Id.Protein>
6NUR|6NUR_protein|mol2

> <Gold.PLP.Fitness>
46.0795

> <Gold.PLP.PLP>
-44.7662

> <Gold.PLP.part.hbond>
-1.0000

> <Gold.PLP.part.metal>
0.0000

> <Gold.PLP.part.buried>
-2.2891

> <Gold.PLP.part.nonpolar>
-40.4655

> <Gold.PLP.part.repulsive>
0.0000

> <Gold.PLP.ligand.clash>
0.0000

> <Gold.PLP.ligand.torsion>
0.6442

> <Gold.PLP.Chemscore.Hbond>
0.8564

> <Gold.PLP.Chemscore.CHOScore>
0.0000

> <Gold.PLP.Chemscore.Metal>
0.0000

> <Gold.Chemscore.Hbonds>
donor molecule, donor type, donor heavy atom, donor atom, acceptor molecule, acceptor atom, score
      P1  H  7997  8009       L1    13  0.91

> <Gold.PLP.Chemscore.Internal.Correction>
0.0324

> <Gold.Rescore>
     Score         DG    S(hbond)    S(metal)    S(lipo)     H(rot)  DE(clash)    DE(int)     intcor
     19.95     -20.88       0.94        0.00     135.71       1.41       0.15       0.79       ----

> <Gold.Chemscore.Fitness>
19.9475

> <Gold.Chemscore.DG>
-20.8835

> <Gold.Chemscore.ZeroCoef>
-5.4800

> <Gold.Chemscore.Hbond>
0.9384

> <Gold.Chemscore.Metal>
0.0000

> <Gold.Chemscore.Lipo>
135.7091

> <Gold.Chemscore.Internal_Hbond>
0.0000

> <Gold.Chemscore.DEClash>
0.1489

> <Gold.Chemscore.DEInternal>
0.7871

> <Gold.Chemscore.Rot>
1.4097

> <Gold.Chemscore.Internal.Correction>
   9.000000E+99

> <Gold.Chemscore.Hbonds>
donor molecule, donor type, donor heavy atom, donor atom, acceptor molecule, acceptor atom, score
      P1  H  7997  8009       L1    13  0.88

> <Gold.Chemscore.Hbond.Weighted>
-3.1343

> <Gold.Chemscore.Metal.Weighted>
-0.0000

> <Gold.Chemscore.Lipo.Weighted>
-15.8780

> <Gold.Chemscore.Internal_Hbond.Weighted>
0.0000

> <Gold.Chemscore.DEClash.Weighted>
0.1489

> <Gold.Chemscore.DEInternal.Weighted>
0.7871

> <Gold.Chemscore.Rot.Weighted>
3.6087

> <Gold.Chemscore.Internal.Correction.Weighted>
   9.000000E+99

> <Gold.Protein.RotatedTorsions>
[ 6907 6896 6895 6894 ] final -100.32 input  -60.11 | X-H torsion
[ 7974 7965 7964 7962 ] final -112.18 input  175.53 | X-H torsion
[ 8008 7997 7996 7995 ] final   98.66 input   59.86 | X-H torsion
[ 10167 10162 10161 10158 ] final   85.43 input  -65.29 | X-H torsion
[ 10718 10713 10712 10709 ] final -176.05 input   66.30 | X-H torsion
[ 10763 10752 10751 10750 ] final  169.73 input  -60.55 | X-H torsion
[ 11005 11000 10999 10996 ] final    5.02 input  -57.11 | X-H torsion

> <Gold.Protein.ActiveResidues>
 VAL166  LYS551  ARG553  GLY616  TRP617  ASP618  TYR619  PRO620  LYS621  CYS622 
 ASP623  PHE694  ASN695  SER759  ASP760  ASP761  ALA762  ILE779  LEU786  VAL792 
 PHE793  MET794  SER795  GLU796  ALA797  LYS798  CYS799  TRP800  GLU811  SER814 

> <Gold.Protein.RotatedAtoms>
  150.7111  134.0905  159.3929 H   0  0  0  0  0  0  0  0  0  0  0  0  # atno 6907 bound_to 6896
  151.8891  135.0421  160.0505 H   0  0  0  0  0  0  0  0  0  0  0  0  # atno 6908 bound_to 6896
  152.2506  133.5176  159.5360 H   0  0  0  0  0  0  0  0  0  0  0  0  # atno 6909 bound_to 6896
  145.1471  140.8809  143.3668 H   0  0  0  0  0  0  0  0  0  0  0  0  # atno 7974 bound_to 7965
  156.1027  140.3240  155.7963 H   0  0  0  0  0  0  0  0  0  0  0  0  # atno 8008 bound_to 7997
  155.4809  140.0554  157.2984 H   0  0  0  0  0  0  0  0  0  0  0  0  # atno 8009 bound_to 7997
  154.4707  140.2010  156.0017 H   0  0  0  0  0  0  0  0  0  0  0  0  # atno 8010 bound_to 7997
  139.8978  144.6347  150.8669 H   0  0  0  0  0  0  0  0  0  0  0  0  # atno 10167 bound_to 10162
  156.8089  130.9579  151.3116 H   0  0  0  0  0  0  0  0  0  0  0  0  # atno 10718 bound_to 10713
  154.3873  135.2754  155.2176 H   0  0  0  0  0  0  0  0  0  0  0  0  # atno 10763 bound_to 10752
  154.4257  135.5989  153.6041 H   0  0  0  0  0  0  0  0  0  0  0  0  # atno 10764 bound_to 10752
  152.9833  135.5983  154.4123 H   0  0  0  0  0  0  0  0  0  0  0  0  # atno 10765 bound_to 10752
  140.5754  134.0063  155.8025 H   0  0  0  0  0  0  0  0  0  0  0  0  # atno 11005 bound_to 11000
  145.0471  139.3212  143.5947 LP  0  0  0  0  0  0  0  0  0  0  0  0  # atno 17320 bound_to 7965
  146.3499  139.9865  142.8690 LP  0  0  0  0  0  0  0  0  0  0  0  0  # atno 17321 bound_to 7965
  140.7713  143.3460  151.2111 LP  0  0  0  0  0  0  0  0  0  0  0  0  # atno 17342 bound_to 10162
  139.7052  143.9467  152.2923 LP  0  0  0  0  0  0  0  0  0  0  0  0  # atno 17343 bound_to 10162
  157.6516  130.8889  149.9644 LP  0  0  0  0  0  0  0  0  0  0  0  0  # atno 17370 bound_to 10713
  156.1056  130.3653  150.0139 LP  0  0  0  0  0  0  0  0  0  0  0  0  # atno 17371 bound_to 10713
  141.1030  133.9738  157.3046 LP  0  0  0  0  0  0  0  0  0  0  0  0  # atno 17394 bound_to 11000
  139.9342  135.0198  156.8502 LP  0  0  0  0  0  0  0  0  0  0  0  0  # atno 17395 bound_to 11000

$$$$
