AV-unprocessed.smi:240|AV-procd|sdf|1827|dock4
  -GOLD-   2262020423D 1   1.00000     0.00000
 Structure written by MMmdl.
 55 59  0  0  0  0  0  0  0  0  1 V2000
  145.6947  135.4568  150.1405 O   0  0  0  0  0  0  0  0  0  0  0  0
  145.1371  134.4578  150.9709 C   0  0  1  0  0  0  0  0  0  0  0  0
  145.8182  133.1045  150.6979 C   0  0  0  0  0  0  0  0  0  0  0  0
  146.6355  132.7829  151.9498 C   0  0  0  0  0  0  0  0  0  0  0  0
  145.8613  133.4546  153.0800 C   0  0  0  0  0  0  0  0  0  0  0  0
  145.3904  134.7804  152.4644 C   0  0  2  0  0  0  0  0  0  0  0  0
  144.2326  135.4938  153.2318 C   0  0  2  0  0  0  0  0  0  0  0  0
  142.8484  134.8272  153.0101 C   0  0  0  0  0  0  0  0  0  0  0  0
  141.8322  135.5311  153.7128 O   0  0  0  0  0  0  0  0  0  0  0  0
  141.7058  136.8685  153.2533 C   0  0  0  0  0  0  0  0  0  0  0  0
  143.0156  137.6099  153.5421 C   0  0  0  0  0  0  0  0  0  0  0  0
  144.1422  136.9279  152.9134 N   0  0  0  0  0  0  0  0  0  0  0  0
  145.2625  137.6737  153.0626 C   0  0  0  0  0  0  0  0  0  0  0  0
  145.8113  138.3134  151.9959 N   0  0  0  0  0  0  0  0  0  0  0  0
  146.9214  139.0411  152.1534 C   0  0  0  0  0  0  0  0  0  0  0  0
  147.6323  139.2505  153.2640 N   0  0  0  0  0  0  0  0  0  0  0  0
  147.0909  138.5957  154.3314 C   0  0  0  0  0  0  0  0  0  0  0  0
  145.9183  137.7911  154.3159 C   0  0  0  0  0  0  0  0  0  0  0  0
  145.6632  137.2914  155.5860 N   0  0  0  0  0  0  0  0  0  0  0  0
  146.6311  137.7767  156.3148 C   0  0  0  0  0  0  0  0  0  0  0  0
  147.5400  138.5623  155.6404 N   0  0  0  0  0  0  0  0  0  0  0  0
  148.7087  139.2241  156.2007 C   0  0  0  0  0  0  0  0  0  0  0  0
  149.9885  139.0524  155.3484 C   0  0  1  0  0  0  0  0  0  0  0  0
  149.8797  139.8502  154.1822 O   0  0  0  0  0  0  0  0  0  0  0  0
  151.2534  139.4596  156.0929 C   0  0  0  0  0  0  0  0  0  0  0  0
  152.3208  138.5912  155.4417 C   0  0  0  0  0  0  0  0  0  0  0  0
  151.6552  137.3528  155.2604 O   0  0  0  0  0  0  0  0  0  0  0  0
  150.2941  137.6018  154.9209 C   0  0  0  0  0  0  0  0  0  0  0  0
  145.7075  135.1361  149.2514 H   0  0  0  0  0  0  0  0  0  0  0  0
  144.0767  134.3832  150.7364 H   0  0  0  0  0  0  0  0  0  0  0  0
  145.0514  132.3401  150.5665 H   0  0  0  0  0  0  0  0  0  0  0  0
  146.4311  133.1009  149.7955 H   0  0  0  0  0  0  0  0  0  0  0  0
  146.7621  131.7110  152.1045 H   0  0  0  0  0  0  0  0  0  0  0  0
  147.6278  133.2285  151.8674 H   0  0  0  0  0  0  0  0  0  0  0  0
  145.0243  132.8145  153.3538 H   0  0  0  0  0  0  0  0  0  0  0  0
  146.4711  133.6027  153.9716 H   0  0  0  0  0  0  0  0  0  0  0  0
  146.2748  135.4173  152.5123 H   0  0  0  0  0  0  0  0  0  0  0  0
  144.4507  135.4157  154.2980 H   0  0  0  0  0  0  0  0  0  0  0  0
  142.5807  134.7780  151.9548 H   0  0  0  0  0  0  0  0  0  0  0  0
  142.8422  133.8050  153.3839 H   0  0  0  0  0  0  0  0  0  0  0  0
  141.4679  136.8879  152.1885 H   0  0  0  0  0  0  0  0  0  0  0  0
  140.8788  137.3482  153.7767 H   0  0  0  0  0  0  0  0  0  0  0  0
  142.9427  138.6348  153.1745 H   0  0  0  0  0  0  0  0  0  0  0  0
  143.1785  137.6659  154.6196 H   0  0  0  0  0  0  0  0  0  0  0  0
  147.2936  139.5242  151.2623 H   0  0  0  0  0  0  0  0  0  0  0  0
  146.7080  137.5715  157.3725 H   0  0  0  0  0  0  0  0  0  0  0  0
  148.4777  140.2832  156.3225 H   0  0  0  0  0  0  0  0  0  0  0  0
  148.8710  138.8305  157.2049 H   0  0  0  0  0  0  0  0  0  0  0  0
  149.1351  140.4239  154.2792 H   0  0  0  0  0  0  0  0  0  0  0  0
  151.4733  140.5265  156.0370 H   0  0  0  0  0  0  0  0  0  0  0  0
  151.1741  139.1922  157.1476 H   0  0  0  0  0  0  0  0  0  0  0  0
  152.6166  138.9944  154.4720 H   0  0  0  0  0  0  0  0  0  0  0  0
  153.2134  138.4826  156.0578 H   0  0  0  0  0  0  0  0  0  0  0  0
  149.6810  136.8768  155.4552 H   0  0  0  0  0  0  0  0  0  0  0  0
  150.1339  137.4412  153.8536 H   0  0  0  0  0  0  0  0  0  0  0  0
  1  2  1  0  0  0  0
  1 29  1  0  0  0  0
  2  6  1  0  0  0  0
  2  3  1  0  0  0  0
  2 30  1  0  0  0  0
  3  4  1  0  0  0  0
  3 31  1  0  0  0  0
  3 32  1  0  0  0  0
  4  5  1  0  0  0  0
  4 33  1  0  0  0  0
  4 34  1  0  0  0  0
  5  6  1  0  0  0  0
  5 35  1  0  0  0  0
  5 36  1  0  0  0  0
  6  7  1  0  0  0  0
  6 37  1  0  0  0  0
  7 12  1  0  0  0  0
  7  8  1  0  0  0  0
  7 38  1  0  0  0  0
  8  9  1  0  0  0  0
  8 39  1  0  0  0  0
  8 40  1  0  0  0  0
  9 10  1  0  0  0  0
 10 11  1  0  0  0  0
 10 41  1  0  0  0  0
 10 42  1  0  0  0  0
 11 12  1  0  0  0  0
 11 43  1  0  0  0  0
 11 44  1  0  0  0  0
 12 13  1  0  0  0  0
 13 18  1  0  0  0  0
 13 14  2  0  0  0  0
 14 15  1  0  0  0  0
 15 16  2  0  0  0  0
 15 45  1  0  0  0  0
 16 17  1  0  0  0  0
 17 21  1  0  0  0  0
 17 18  2  0  0  0  0
 18 19  1  0  0  0  0
 19 20  2  0  0  0  0
 20 21  1  0  0  0  0
 20 46  1  0  0  0  0
 21 22  1  0  0  0  0
 22 23  1  0  0  0  0
 22 47  1  0  0  0  0
 22 48  1  0  0  0  0
 23 28  1  0  0  0  0
 23 24  1  0  0  0  0
 23 25  1  0  0  0  0
 24 49  1  0  0  0  0
 25 26  1  0  0  0  0
 25 50  1  0  0  0  0
 25 51  1  0  0  0  0
 26 27  1  0  0  0  0
 26 52  1  0  0  0  0
 26 53  1  0  0  0  0
 27 28  1  0  0  0  0
 28 54  1  0  0  0  0
 28 55  1  0  0  0  0
M  END
> <s_m_source_file>
AV-unprocessed.smi

> <i_m_source_file_index>
240

> <i_lp_mmshare_version>
43012

> <i_f3d_flags>
0

> <s_epik_input>
W09IXVtDQEBIXTFbQ0gyXVtDSDJdW0NIMl1bQ0BIXTFbQ0BASF0yW0NIMl1PW0NIMl1bQ0gyXU4yYyhuW2NIXW4zKWMoYzM0KW5bY0hdbjRbQ0gyXVtDQEBdNShbT0hdKVtDSDJdW0NIMl1PW0NIMl01

> <s_epik_cmdline>
J2VwaWtfcHl0aG9uJywgJy1waCcsICc3LjAnLCAnLXRuJywgJzgnLCAnLW1hJywgJzIwMCcsICctbWV0YWxfYmluZGluZycsICctaW1hZScsICc8aW5maWxlLm1hZT4nLCAnLW9tYWUnLCAnPG91dGZpbGUubWFlPic=

> <r_lp_tautomer_probability>
1

> <r_epik_Ionization_Penalty>
0.000130618

> <r_epik_Ionization_Penalty_Charging>
0

> <r_epik_Ionization_Penalty_Neutral>
0.000130618

> <r_epik_State_Penalty>
-0

> <r_epik_Charging_Adjusted_Penalty>
0

> <i_epik_Tot_Q>
0

> <i_epik_Tot_abs_Q>
0

> <r_epik_Metal_State_Penalty>
-0

> <b_epik_Metal_Only>
0

> <s_lp_Force_Field>
OPLS_2005

> <r_lp_Energy>
61.8297

> <b_lp_Chiralities_Consistent>
1

> <s_lp_Variant>
AV-unprocessed.smi:240-4

> <Gold.Version>
5.8.1

> <Gold.Id.Protein>
6NUR|6NUR_protein|mol2

> <Gold.PLP.Fitness>
44.8206

> <Gold.PLP.PLP>
-35.5594

> <Gold.PLP.part.hbond>
-4.0000

> <Gold.PLP.part.metal>
0.0000

> <Gold.PLP.part.buried>
-6.7860

> <Gold.PLP.part.nonpolar>
-29.0266

> <Gold.PLP.part.repulsive>
4.3122

> <Gold.PLP.ligand.clash>
0.0000

> <Gold.PLP.ligand.torsion>
0.6672

> <Gold.PLP.Chemscore.Hbond>
2.8240

> <Gold.PLP.Chemscore.CHOScore>
0.6348

> <Gold.PLP.Chemscore.Metal>
0.0000

> <Gold.Chemscore.Hbonds>
donor molecule, donor type, donor heavy atom, donor atom, acceptor molecule, acceptor atom, score
      L1  H     1    29       P1  7921  1.00
      P1  H  7989  7998       L1    24  0.73
      P1  H 10752 10763       L1    27  0.26
      L1  C    15    45       P1  7957  0.79

> <Gold.PLP.Chemscore.Internal.Correction>
0.2193

> <Gold.Rescore>
     Score         DG    S(hbond)    S(metal)    S(lipo)     H(rot)  DE(clash)    DE(int)     intcor
     12.46     -15.24       2.70        0.00      72.07       3.00       2.08       0.70       ----

> <Gold.Chemscore.Fitness>
12.4634

> <Gold.Chemscore.DG>
-15.2438

> <Gold.Chemscore.ZeroCoef>
-5.4800

> <Gold.Chemscore.Hbond>
2.7012

> <Gold.Chemscore.Metal>
0.0000

> <Gold.Chemscore.Lipo>
72.0657

> <Gold.Chemscore.Internal_Hbond>
0.0000

> <Gold.Chemscore.DEClash>
2.0770

> <Gold.Chemscore.DEInternal>
0.7034

> <Gold.Chemscore.Rot>
3.0039

> <Gold.Chemscore.Internal.Correction>
   9.000000E+99

> <Gold.Chemscore.Hbonds>
donor molecule, donor type, donor heavy atom, donor atom, acceptor molecule, acceptor atom, score
      L1  H     1    29       P1  7921  0.99
      P1  H  7989  7998       L1    24  0.58
      P1  H 10752 10763       L1    27  0.25

> <Gold.Chemscore.Hbond.Weighted>
-9.0220

> <Gold.Chemscore.Metal.Weighted>
-0.0000

> <Gold.Chemscore.Lipo.Weighted>
-8.4317

> <Gold.Chemscore.Internal_Hbond.Weighted>
0.0000

> <Gold.Chemscore.DEClash.Weighted>
2.0770

> <Gold.Chemscore.DEInternal.Weighted>
0.7034

> <Gold.Chemscore.Rot.Weighted>
7.6899

> <Gold.Chemscore.Internal.Correction.Weighted>
   9.000000E+99

> <Gold.Protein.RotatedTorsions>
[ 6907 6896 6895 6894 ] final   94.45 input  -60.11 | X-H torsion
[ 7974 7965 7964 7962 ] final -175.64 input  175.53 | X-H torsion
[ 8008 7997 7996 7995 ] final   33.78 input   59.86 | X-H torsion
[ 10167 10162 10161 10158 ] final  137.03 input  -65.29 | X-H torsion
[ 10718 10713 10712 10709 ] final  -41.89 input   66.30 | X-H torsion
[ 10763 10752 10751 10750 ] final   45.25 input  -60.55 | X-H torsion
[ 11005 11000 10999 10996 ] final  130.14 input  -57.11 | X-H torsion

> <Gold.Protein.ActiveResidues>
 VAL166  LYS551  ARG553  GLY616  TRP617  ASP618  TYR619  PRO620  LYS621  CYS622 
 ASP623  PHE694  ASN695  SER759  ASP760  ASP761  ALA762  ILE779  LEU786  VAL792 
 PHE793  MET794  SER795  GLU796  ALA797  LYS798  CYS799  TRP800  GLU811  SER814 

> <Gold.Protein.RotatedAtoms>
  152.5449  134.1192  159.8391 H   0  0  0  0  0  0  0  0  0  0  0  0  # atno 6907 bound_to 6896
  151.1250  133.5070  159.2608 H   0  0  0  0  0  0  0  0  0  0  0  0  # atno 6908 bound_to 6896
  151.1737  135.0339  159.8817 H   0  0  0  0  0  0  0  0  0  0  0  0  # atno 6909 bound_to 6896
  144.7128  140.1290  143.6400 H   0  0  0  0  0  0  0  0  0  0  0  0  # atno 7974 bound_to 7965
  155.1442  140.3269  155.4445 H   0  0  0  0  0  0  0  0  0  0  0  0  # atno 8008 bound_to 7997
  156.2595  140.1988  156.6506 H   0  0  0  0  0  0  0  0  0  0  0  0  # atno 8009 bound_to 7997
  154.6520  140.0557  156.9953 H   0  0  0  0  0  0  0  0  0  0  0  0  # atno 8010 bound_to 7997
  139.5159  144.6432  151.5511 H   0  0  0  0  0  0  0  0  0  0  0  0  # atno 10167 bound_to 10162
  156.2654  130.4201  149.8496 H   0  0  0  0  0  0  0  0  0  0  0  0  # atno 10718 bound_to 10713
  152.9827  135.6045  154.3406 H   0  0  0  0  0  0  0  0  0  0  0  0  # atno 10763 bound_to 10752
  154.3103  135.2771  155.2571 H   0  0  0  0  0  0  0  0  0  0  0  0  # atno 10764 bound_to 10752
  154.4783  135.5924  153.6427 H   0  0  0  0  0  0  0  0  0  0  0  0  # atno 10765 bound_to 10752
  139.9655  134.9591  156.9251 H   0  0  0  0  0  0  0  0  0  0  0  0  # atno 11005 bound_to 11000
  145.9303  139.2602  143.1329 LP  0  0  0  0  0  0  0  0  0  0  0  0  # atno 17320 bound_to 7965
  145.9529  140.8894  143.0250 LP  0  0  0  0  0  0  0  0  0  0  0  0  # atno 17321 bound_to 7965
  140.6207  143.9263  150.6524 LP  0  0  0  0  0  0  0  0  0  0  0  0  # atno 17342 bound_to 10162
  140.2536  143.3575  152.1384 LP  0  0  0  0  0  0  0  0  0  0  0  0  # atno 17343 bound_to 10162
  156.5996  130.8541  151.3428 LP  0  0  0  0  0  0  0  0  0  0  0  0  # atno 17370 bound_to 10713
  157.7265  130.9631  150.1661 LP  0  0  0  0  0  0  0  0  0  0  0  0  # atno 17371 bound_to 10713
  140.5406  134.0724  155.7340 LP  0  0  0  0  0  0  0  0  0  0  0  0  # atno 17394 bound_to 11000
  141.1335  133.9262  157.2485 LP  0  0  0  0  0  0  0  0  0  0  0  0  # atno 17395 bound_to 11000

$$$$
