AV-unprocessed.smi:3123|AV-procd|sdf|11901|dock10
  -GOLD-   2272017283D 1   1.00000     0.00000
 Structure written by MMmdl.
 29 30  0  0  0  0  0  0  0  0  1 V2000
  147.4901  138.3999  151.2760 N   0  0  0  0  0  0  0  0  0  0  0  0
  146.6797  138.8236  152.3996 C   0  0  0  0  0  0  0  0  0  0  0  0
  147.4198  139.7785  153.3123 C   0  0  0  0  0  0  0  0  0  0  0  0
  146.9574  141.0965  153.4999 C   0  0  0  0  0  0  0  0  0  0  0  0
  147.6874  141.9463  154.3535 C   0  0  0  0  0  0  0  0  0  0  0  0
  148.8083  141.5622  155.0003 N   0  0  0  0  0  0  0  0  0  0  0  0
  149.2530  140.2953  154.8170 C   0  0  0  0  0  0  0  0  0  0  0  0
  150.4147  139.8918  155.4907 N   0  0  0  0  0  0  0  0  0  0  0  0
  151.4378  139.3436  154.6090 C   0  0  0  0  0  0  0  0  0  0  0  0
  152.6202  138.8149  155.4399 C   0  0  0  0  0  0  0  0  0  0  0  0
  153.1225  139.8548  156.2750 O   0  0  0  0  0  0  0  0  0  0  0  0
  152.1356  140.3344  157.1841 C   0  0  0  0  0  0  0  0  0  0  0  0
  150.9433  140.9042  156.3967 C   0  0  0  0  0  0  0  0  0  0  0  0
  148.5923  139.3712  153.9803 C   0  0  0  0  0  0  0  0  0  0  0  0
  148.1762  139.1099  151.0633 H   0  0  0  0  0  0  0  0  0  0  0  0
  148.0020  137.5660  151.5262 H   0  0  0  0  0  0  0  0  0  0  0  0
  145.7801  139.3119  152.0234 H   0  0  0  0  0  0  0  0  0  0  0  0
  146.3556  137.9460  152.9597 H   0  0  0  0  0  0  0  0  0  0  0  0
  146.0655  141.4495  153.0034 H   0  0  0  0  0  0  0  0  0  0  0  0
  147.3619  142.9623  154.5219 H   0  0  0  0  0  0  0  0  0  0  0  0
  151.0143  138.5394  154.0062 H   0  0  0  0  0  0  0  0  0  0  0  0
  151.7853  140.1156  153.9208 H   0  0  0  0  0  0  0  0  0  0  0  0
  152.3172  137.9611  156.0478 H   0  0  0  0  0  0  0  0  0  0  0  0
  153.4183  138.4709  154.7821 H   0  0  0  0  0  0  0  0  0  0  0  0
  151.8149  139.5296  157.8477 H   0  0  0  0  0  0  0  0  0  0  0  0
  152.5764  141.1089  157.8118 H   0  0  0  0  0  0  0  0  0  0  0  0
  151.2608  141.7800  155.8290 H   0  0  0  0  0  0  0  0  0  0  0  0
  150.1612  141.2300  157.0836 H   0  0  0  0  0  0  0  0  0  0  0  0
  148.9766  138.3692  153.8547 H   0  0  0  0  0  0  0  0  0  0  0  0
  1  2  1  0  0  0  0
  1 15  1  0  0  0  0
  1 16  1  0  0  0  0
  2  3  1  0  0  0  0
  2 17  1  0  0  0  0
  2 18  1  0  0  0  0
  3 14  1  0  0  0  0
  3  4  2  0  0  0  0
  4  5  1  0  0  0  0
  4 19  1  0  0  0  0
  5  6  2  0  0  0  0
  5 20  1  0  0  0  0
  6  7  1  0  0  0  0
  7  8  1  0  0  0  0
  7 14  2  0  0  0  0
  8 13  1  0  0  0  0
  8  9  1  0  0  0  0
  9 10  1  0  0  0  0
  9 21  1  0  0  0  0
  9 22  1  0  0  0  0
 10 11  1  0  0  0  0
 10 23  1  0  0  0  0
 10 24  1  0  0  0  0
 11 12  1  0  0  0  0
 12 13  1  0  0  0  0
 12 25  1  0  0  0  0
 12 26  1  0  0  0  0
 13 27  1  0  0  0  0
 13 28  1  0  0  0  0
 14 29  1  0  0  0  0
M  END
> <s_m_source_file>
AV-unprocessed.smi

> <i_m_source_file_index>
3123

> <i_lp_mmshare_version>
43012

> <i_f3d_flags>
0

> <s_epik_input>
W05IMl1bQ0gyXWMxW2NIXVtjSF1uYyhbY0hdMSlOMltDSDJdW0NIMl1PW0NIMl1bQ0gyXTI=

> <s_epik_cmdline>
J2VwaWtfcHl0aG9uJywgJy1waCcsICc3LjAnLCAnLXRuJywgJzgnLCAnLW1hJywgJzIwMCcsICctbWV0YWxfYmluZGluZycsICctaW1hZScsICc8aW5maWxlLm1hZT4nLCAnLW9tYWUnLCAnPG91dGZpbGUubWFlPic=

> <r_lp_tautomer_probability>
1

> <r_epik_Ionization_Penalty>
1.26929

> <r_epik_Ionization_Penalty_Charging>
0

> <r_epik_Ionization_Penalty_Neutral>
1.26929

> <r_epik_State_Penalty>
2.46732

> <r_epik_Charging_Adjusted_Penalty>
2.46732

> <i_epik_Tot_Q>
0

> <i_epik_Tot_abs_Q>
0

> <r_epik_Metal_State_Penalty>
2.44539

> <b_epik_Metal_Only>
0

> <s_lp_Force_Field>
OPLS_2005

> <r_lp_Energy>
17.6888

> <b_lp_Chiralities_Consistent>
1

> <s_lp_Variant>
AV-unprocessed.smi:3123-2

> <Gold.Version>
5.8.1

> <Gold.Id.Protein>
6NUR|6NUR_protein|mol2

> <Gold.PLP.Fitness>
40.7385

> <Gold.PLP.PLP>
-28.7765

> <Gold.PLP.part.hbond>
-4.0000

> <Gold.PLP.part.metal>
0.0000

> <Gold.PLP.part.buried>
-1.4051

> <Gold.PLP.part.nonpolar>
-23.5861

> <Gold.PLP.part.repulsive>
0.1579

> <Gold.PLP.ligand.clash>
0.0000

> <Gold.PLP.ligand.torsion>
0.0576

> <Gold.PLP.Chemscore.Hbond>
2.9913

> <Gold.PLP.Chemscore.CHOScore>
1.0000

> <Gold.PLP.Chemscore.Metal>
0.0000

> <Gold.Chemscore.Hbonds>
donor molecule, donor type, donor heavy atom, donor atom, acceptor molecule, acceptor atom, score
      L1  H     1    15       P1  7957  1.00
      L1  H     1    16       P1  7948  1.00
      P1  H  7997  8010       L1    11  0.31
      L1  C     5    20       P1  8028  0.84

> <Gold.PLP.Chemscore.Internal.Correction>
0.1035

> <Gold.Rescore>
     Score         DG    S(hbond)    S(metal)    S(lipo)     H(rot)  DE(clash)    DE(int)     intcor
     17.99     -18.07       2.76        0.00      57.09       1.29       0.00       0.07       ----

> <Gold.Chemscore.Fitness>
17.9909

> <Gold.Chemscore.DG>
-18.0653

> <Gold.Chemscore.ZeroCoef>
-5.4800

> <Gold.Chemscore.Hbond>
2.7551

> <Gold.Chemscore.Metal>
0.0000

> <Gold.Chemscore.Lipo>
57.0880

> <Gold.Chemscore.Internal_Hbond>
0.0000

> <Gold.Chemscore.DEClash>
0.0038

> <Gold.Chemscore.DEInternal>
0.0705

> <Gold.Chemscore.Rot>
1.2875

> <Gold.Chemscore.Internal.Correction>
   9.000000E+99

> <Gold.Chemscore.Hbonds>
donor molecule, donor type, donor heavy atom, donor atom, acceptor molecule, acceptor atom, score
      L1  H     1    15       P1  7957  0.30
      L1  H     1    16       P1  7948  0.99
      P1  H  7997  8010       L1    11  0.30

> <Gold.Chemscore.Hbond.Weighted>
-9.2020

> <Gold.Chemscore.Metal.Weighted>
-0.0000

> <Gold.Chemscore.Lipo.Weighted>
-6.6793

> <Gold.Chemscore.Internal_Hbond.Weighted>
0.0000

> <Gold.Chemscore.DEClash.Weighted>
0.0038

> <Gold.Chemscore.DEInternal.Weighted>
0.0705

> <Gold.Chemscore.Rot.Weighted>
3.2961

> <Gold.Chemscore.Internal.Correction.Weighted>
   9.000000E+99

> <Gold.Protein.RotatedTorsions>
[ 6907 6896 6895 6894 ] final  -99.49 input  -60.11 | X-H torsion
[ 7974 7965 7964 7962 ] final -158.41 input  175.53 | X-H torsion
[ 8008 7997 7996 7995 ] final   69.89 input   59.86 | X-H torsion
[ 10167 10162 10161 10158 ] final -132.59 input  -65.29 | X-H torsion
[ 10718 10713 10712 10709 ] final -135.39 input   66.30 | X-H torsion
[ 10763 10752 10751 10750 ] final  -27.10 input  -60.55 | X-H torsion
[ 11005 11000 10999 10996 ] final  -42.41 input  -57.11 | X-H torsion

> <Gold.Protein.ActiveResidues>
 VAL166  LYS551  ARG553  GLY616  TRP617  ASP618  TYR619  PRO620  LYS621  CYS622 
 ASP623  PHE694  ASN695  SER759  ASP760  ASP761  ALA762  ILE779  LEU786  VAL792 
 PHE793  MET794  SER795  GLU796  ALA797  LYS798  CYS799  TRP800  GLU811  SER814 

> <Gold.Protein.RotatedAtoms>
  150.7082  134.1032  159.3973 H   0  0  0  0  0  0  0  0  0  0  0  0  # atno 6907 bound_to 6896
  151.9018  135.0373  160.0516 H   0  0  0  0  0  0  0  0  0  0  0  0  # atno 6908 bound_to 6896
  152.2407  133.5098  159.5305 H   0  0  0  0  0  0  0  0  0  0  0  0  # atno 6909 bound_to 6896
  144.7507  140.3831  143.6050 H   0  0  0  0  0  0  0  0  0  0  0  0  # atno 7974 bound_to 7965
  155.7306  140.3492  155.5057 H   0  0  0  0  0  0  0  0  0  0  0  0  # atno 8008 bound_to 7997
  155.9186  140.1063  157.1246 H   0  0  0  0  0  0  0  0  0  0  0  0  # atno 8009 bound_to 7997
  154.4066  140.1254  156.4637 H   0  0  0  0  0  0  0  0  0  0  0  0  # atno 8010 bound_to 7997
  139.9070  143.6539  152.2583 H   0  0  0  0  0  0  0  0  0  0  0  0  # atno 10167 bound_to 10162
  156.2657  130.7236  151.1185 H   0  0  0  0  0  0  0  0  0  0  0  0  # atno 10718 bound_to 10713
  153.7266  135.6941  153.4999 H   0  0  0  0  0  0  0  0  0  0  0  0  # atno 10763 bound_to 10752
  153.2165  135.4384  155.0439 H   0  0  0  0  0  0  0  0  0  0  0  0  # atno 10764 bound_to 10752
  154.8267  135.3450  154.6798 H   0  0  0  0  0  0  0  0  0  0  0  0  # atno 10765 bound_to 10752
  141.0313  133.6819  156.2590 H   0  0  0  0  0  0  0  0  0  0  0  0  # atno 11005 bound_to 11000
  145.6956  139.1649  143.2622 LP  0  0  0  0  0  0  0  0  0  0  0  0  # atno 17320 bound_to 7965
  146.1452  140.7002  142.9348 LP  0  0  0  0  0  0  0  0  0  0  0  0  # atno 17321 bound_to 7965
  139.6975  144.7639  151.1330 LP  0  0  0  0  0  0  0  0  0  0  0  0  # atno 17342 bound_to 10162
  140.7694  143.5503  150.9212 LP  0  0  0  0  0  0  0  0  0  0  0  0  # atno 17343 bound_to 10162
  157.7266  131.0645  150.5901 LP  0  0  0  0  0  0  0  0  0  0  0  0  # atno 17370 bound_to 10713
  156.5993  130.4350  149.5904 LP  0  0  0  0  0  0  0  0  0  0  0  0  # atno 17371 bound_to 10713
  140.6401  134.5175  157.5568 LP  0  0  0  0  0  0  0  0  0  0  0  0  # atno 17394 bound_to 11000
  139.9210  134.8149  156.1212 LP  0  0  0  0  0  0  0  0  0  0  0  0  # atno 17395 bound_to 11000

$$$$
