AV-unprocessed.smi:1570|AV-procd|sdf|6319|dock4
  -GOLD-   22720 6523D 1   1.00000     0.00000
 Structure written by MMmdl.
 52 54  0  0  0  0  0  0  0  0  2 V2000
  151.0183  144.9106  158.9482 C   0  0  0  0  0  0  0  0  0  0  0  0
  151.2876  144.2868  157.5728 C   0  0  0  0  0  0  0  0  0  0  0  0
  151.4168  142.8350  157.6685 N   0  0  0  0  0  0  0  0  0  0  0  0
  150.8435  141.9187  156.8540 C   0  0  0  0  0  0  0  0  0  0  0  0
  150.1016  142.1585  155.9012 O   0  0  0  0  0  0  0  0  0  0  0  0
  151.2433  140.6887  157.2558 N   0  0  0  0  0  0  0  0  0  0  0  0
  150.8633  139.4130  156.6497 C   0  0  0  0  0  0  0  0  0  0  0  0
  151.6150  139.1600  155.3267 C   0  0  1  0  0  0  0  0  0  0  0  0
  152.9999  139.1061  155.6088 O   0  0  0  0  0  0  0  0  0  0  0  0
  151.2150  137.8135  154.6897 C   0  0  0  0  0  0  0  0  0  0  0  0
  149.7509  137.7080  154.4626 N   0  3  1  0  0  0  0  0  0  0  0  0
  149.0491  137.0253  155.5749 C   0  0  0  0  0  0  0  0  0  0  0  0
  147.5479  136.8825  155.2598 C   0  0  1  0  0  0  0  0  0  0  0  0
  146.7710  136.2523  156.4208 C   0  0  0  0  0  0  0  0  0  0  0  0
  147.0009  138.1726  155.0088 O   0  0  0  0  0  0  0  0  0  0  0  0
  147.6005  138.8139  153.8885 C   0  0  1  0  0  0  0  0  0  0  0  0
  146.8776  140.1454  153.6563 C   0  0  0  0  0  0  0  0  0  0  0  0
  149.1024  139.0097  154.1669 C   0  0  0  0  0  0  0  0  0  0  0  0
  152.1103  140.8232  158.3503 C   0  0  0  0  0  0  0  0  0  0  0  0
  152.8019  139.8627  159.1095 C   0  0  0  0  0  0  0  0  0  0  0  0
  153.6198  140.3366  160.1620 C   0  0  0  0  0  0  0  0  0  0  0  0
  153.7299  141.7260  160.4286 C   0  0  0  0  0  0  0  0  0  0  0  0
  153.0254  142.6717  159.6476 C   0  0  0  0  0  0  0  0  0  0  0  0
  152.2190  142.1740  158.6092 C   0  0  0  0  0  0  0  0  0  0  0  0
  150.9220  145.9936  158.8708 H   0  0  0  0  0  0  0  0  0  0  0  0
  151.8304  144.6982  159.6440 H   0  0  0  0  0  0  0  0  0  0  0  0
  150.0951  144.5258  159.3827 H   0  0  0  0  0  0  0  0  0  0  0  0
  150.4811  144.5376  156.8834 H   0  0  0  0  0  0  0  0  0  0  0  0
  152.1953  144.7138  157.1436 H   0  0  0  0  0  0  0  0  0  0  0  0
  150.9986  138.5857  157.3469 H   0  0  0  0  0  0  0  0  0  0  0  0
  149.7899  139.4575  156.4579 H   0  0  0  0  0  0  0  0  0  0  0  0
  151.4254  139.9754  154.6299 H   0  0  0  0  0  0  0  0  0  0  0  0
  153.2531  138.2014  155.7133 H   0  0  0  0  0  0  0  0  0  0  0  0
  151.7500  137.6994  153.7454 H   0  0  0  0  0  0  0  0  0  0  0  0
  151.5341  136.9807  155.3183 H   0  0  0  0  0  0  0  0  0  0  0  0
  149.4853  136.0384  155.7342 H   0  0  0  0  0  0  0  0  0  0  0  0
  149.1910  137.5923  156.4967 H   0  0  0  0  0  0  0  0  0  0  0  0
  147.4155  136.2583  154.3741 H   0  0  0  0  0  0  0  0  0  0  0  0
  147.1414  135.2516  156.6442 H   0  0  0  0  0  0  0  0  0  0  0  0
  145.7109  136.1677  156.1798 H   0  0  0  0  0  0  0  0  0  0  0  0
  146.8589  136.8526  157.3268 H   0  0  0  0  0  0  0  0  0  0  0  0
  147.4687  138.1890  153.0033 H   0  0  0  0  0  0  0  0  0  0  0  0
  147.2946  140.6752  152.7994 H   0  0  0  0  0  0  0  0  0  0  0  0
  146.9609  140.7976  154.5263 H   0  0  0  0  0  0  0  0  0  0  0  0
  145.8169  139.9845  153.4618 H   0  0  0  0  0  0  0  0  0  0  0  0
  149.2412  139.6854  155.0126 H   0  0  0  0  0  0  0  0  0  0  0  0
  149.5706  139.4820  153.3040 H   0  0  0  0  0  0  0  0  0  0  0  0
  152.7201  138.8065  158.9017 H   0  0  0  0  0  0  0  0  0  0  0  0
  154.1689  139.6320  160.7691 H   0  0  0  0  0  0  0  0  0  0  0  0
  154.3611  142.0659  161.2364 H   0  0  0  0  0  0  0  0  0  0  0  0
  153.1087  143.7305  159.8434 H   0  0  0  0  0  0  0  0  0  0  0  0
  149.6302  137.1214  153.6486 H   0  0  0  0  0  0  0  0  0  0  0  0
  1  2  1  0  0  0  0
  1 25  1  0  0  0  0
  1 26  1  0  0  0  0
  1 27  1  0  0  0  0
  2  3  1  0  0  0  0
  2 28  1  0  0  0  0
  2 29  1  0  0  0  0
  3 24  1  0  0  0  0
  3  4  1  0  0  0  0
  4  5  2  0  0  0  0
  4  6  1  0  0  0  0
  6  7  1  0  0  0  0
  6 19  1  0  0  0  0
  7  8  1  0  0  0  0
  7 30  1  0  0  0  0
  7 31  1  0  0  0  0
  8  9  1  0  0  0  0
  8 10  1  0  0  0  0
  8 32  1  0  0  0  0
  9 33  1  0  0  0  0
 10 11  1  0  0  0  0
 10 34  1  0  0  0  0
 10 35  1  0  0  0  0
 11 18  1  0  0  0  0
 11 12  1  0  0  0  0
 11 52  1  0  0  0  0
 12 13  1  0  0  0  0
 12 36  1  0  0  0  0
 12 37  1  0  0  0  0
 13 14  1  0  0  0  0
 13 15  1  0  0  0  0
 13 38  1  0  0  0  0
 14 39  1  0  0  0  0
 14 40  1  0  0  0  0
 14 41  1  0  0  0  0
 15 16  1  0  0  0  0
 16 17  1  0  0  0  0
 16 18  1  0  0  0  0
 16 42  1  0  0  0  0
 17 43  1  0  0  0  0
 17 44  1  0  0  0  0
 17 45  1  0  0  0  0
 18 46  1  0  0  0  0
 18 47  1  0  0  0  0
 19 24  2  0  0  0  0
 19 20  1  0  0  0  0
 20 21  2  0  0  0  0
 20 48  1  0  0  0  0
 21 22  1  0  0  0  0
 21 49  1  0  0  0  0
 22 23  2  0  0  0  0
 22 50  1  0  0  0  0
 23 24  1  0  0  0  0
 23 51  1  0  0  0  0
M  CHG  1  11   1
M  END
> <s_m_source_file>
AV-unprocessed.smi

> <i_m_source_file_index>
1570

> <i_lp_mmshare_version>
43012

> <i_f3d_flags>
0

> <s_epik_input>
W2NIXTFbY0hdW2NIXVtjSF1jKGMxMiluKFtDSDJdW0NIM10pYyg9TyluMltDSDJdW0NASF0oW09IXSlbQ0gyXU4zW0NIMl1bQ0BASF0oW0NIM10pT1tDQEBIXShbQ0gzXSlbQ0gyXTM=

> <s_epik_cmdline>
J2VwaWtfcHl0aG9uJywgJy1waCcsICc3LjAnLCAnLXRuJywgJzgnLCAnLW1hJywgJzIwMCcsICctbWV0YWxfYmluZGluZycsICctaW1hZScsICc8aW5maWxlLm1hZT4nLCAnLW9tYWUnLCAnPG91dGZpbGUubWFlPic=

> <r_epik_Ionization_Penalty>
0.706332

> <r_epik_Ionization_Penalty_Charging>
0.706318

> <r_epik_Ionization_Penalty_Neutral>
1.42224e-05

> <r_epik_State_Penalty>
0.729493

> <r_epik_Charging_Adjusted_Penalty>
1.43581

> <i_epik_Tot_Q>
1

> <i_epik_Tot_abs_Q>
1

> <r_epik_Metal_State_Penalty>
0.729493

> <b_epik_Metal_Only>
0

> <s_lp_Force_Field>
OPLS_2005

> <r_lp_Energy>
52.3817

> <b_lp_Chiralities_Consistent>
1

> <s_lp_Variant>
AV-unprocessed.smi:1570-8

> <Gold.Version>
5.8.1

> <Gold.Id.Protein>
6NUR|6NUR_protein|mol2

> <Gold.PLP.Fitness>
53.0364

> <Gold.PLP.PLP>
-45.5261

> <Gold.PLP.part.hbond>
-2.0000

> <Gold.PLP.part.metal>
0.0000

> <Gold.PLP.part.buried>
-4.0305

> <Gold.PLP.part.nonpolar>
-41.4201

> <Gold.PLP.part.repulsive>
1.8509

> <Gold.PLP.ligand.clash>
0.0000

> <Gold.PLP.ligand.torsion>
0.7851

> <Gold.PLP.Chemscore.Hbond>
3.0000

> <Gold.PLP.Chemscore.CHOScore>
0.0000

> <Gold.PLP.Chemscore.Metal>
0.0000

> <Gold.Chemscore.Hbonds>
donor molecule, donor type, donor heavy atom, donor atom, acceptor molecule, acceptor atom, score
      L1  H    11    52       P1  7948  1.76
      P1  H  7997  8009       L1     9  1.00

> <Gold.PLP.Chemscore.Internal.Correction>
0.0804

> <Gold.Rescore>
     Score         DG    S(hbond)    S(metal)    S(lipo)     H(rot)  DE(clash)    DE(int)     intcor
     18.17     -20.21       1.88        0.00     118.89       2.13       1.48       0.55       ----

> <Gold.Chemscore.Fitness>
18.1712

> <Gold.Chemscore.DG>
-20.2059

> <Gold.Chemscore.ZeroCoef>
-5.4800

> <Gold.Chemscore.Hbond>
1.8771

> <Gold.Chemscore.Metal>
0.0000

> <Gold.Chemscore.Lipo>
118.8887

> <Gold.Chemscore.Internal_Hbond>
0.0000

> <Gold.Chemscore.DEClash>
1.4798

> <Gold.Chemscore.DEInternal>
0.5549

> <Gold.Chemscore.Rot>
2.1303

> <Gold.Chemscore.Internal.Correction>
   9.000000E+99

> <Gold.Chemscore.Hbonds>
donor molecule, donor type, donor heavy atom, donor atom, acceptor molecule, acceptor atom, score
      L1  H    11    52       P1  7948  0.70
      P1  H  7997  8009       L1     9  0.70

> <Gold.Chemscore.Hbond.Weighted>
-6.2694

> <Gold.Chemscore.Metal.Weighted>
-0.0000

> <Gold.Chemscore.Lipo.Weighted>
-13.9100

> <Gold.Chemscore.Internal_Hbond.Weighted>
0.0000

> <Gold.Chemscore.DEClash.Weighted>
1.4798

> <Gold.Chemscore.DEInternal.Weighted>
0.5549

> <Gold.Chemscore.Rot.Weighted>
5.4535

> <Gold.Chemscore.Internal.Correction.Weighted>
   9.000000E+99

> <Gold.Protein.RotatedTorsions>
[ 6907 6896 6895 6894 ] final    2.23 input  -60.11 | X-H torsion
[ 7974 7965 7964 7962 ] final    8.34 input  175.53 | X-H torsion
[ 8008 7997 7996 7995 ] final -139.63 input   59.86 | X-H torsion
[ 10167 10162 10161 10158 ] final  -25.00 input  -65.29 | X-H torsion
[ 10718 10713 10712 10709 ] final    6.21 input   66.30 | X-H torsion
[ 10763 10752 10751 10750 ] final   29.21 input  -60.55 | X-H torsion
[ 11005 11000 10999 10996 ] final  142.58 input  -57.11 | X-H torsion

> <Gold.Protein.ActiveResidues>
 VAL166  LYS551  ARG553  GLY616  TRP617  ASP618  TYR619  PRO620  LYS621  CYS622 
 ASP623  PHE694  ASN695  SER759  ASP760  ASP761  ALA762  ILE779  LEU786  VAL792 
 PHE793  MET794  SER795  GLU796  ALA797  LYS798  CYS799  TRP800  GLU811  SER814 

> <Gold.Protein.RotatedAtoms>
  151.6055  135.1044  160.0069 H   0  0  0  0  0  0  0  0  0  0  0  0  # atno 6907 bound_to 6896
  152.4235  133.7152  159.6512 H   0  0  0  0  0  0  0  0  0  0  0  0  # atno 6908 bound_to 6896
  150.8123  133.8326  159.3198 H   0  0  0  0  0  0  0  0  0  0  0  0  # atno 6909 bound_to 6896
  146.2417  139.9948  142.8422 H   0  0  0  0  0  0  0  0  0  0  0  0  # atno 7974 bound_to 7965
  155.4480  140.0536  157.3004 H   0  0  0  0  0  0  0  0  0  0  0  0  # atno 8008 bound_to 7997
  154.4789  140.2073  155.9767 H   0  0  0  0  0  0  0  0  0  0  0  0  # atno 8009 bound_to 7997
  156.1175  140.3194  155.8165 H   0  0  0  0  0  0  0  0  0  0  0  0  # atno 8010 bound_to 7997
  140.7287  143.4303  151.0812 H   0  0  0  0  0  0  0  0  0  0  0  0  # atno 10167 bound_to 10162
  156.9188  130.5783  149.5647 H   0  0  0  0  0  0  0  0  0  0  0  0  # atno 10718 bound_to 10713
  153.0444  135.6494  154.0855 H   0  0  0  0  0  0  0  0  0  0  0  0  # atno 10763 bound_to 10752
  154.0556  135.2892  155.3335 H   0  0  0  0  0  0  0  0  0  0  0  0  # atno 10764 bound_to 10752
  154.6691  135.5363  153.8181 H   0  0  0  0  0  0  0  0  0  0  0  0  # atno 10765 bound_to 10752
  140.0488  134.9266  157.0979 H   0  0  0  0  0  0  0  0  0  0  0  0  # atno 11005 bound_to 11000
  145.1470  140.9602  143.4455 LP  0  0  0  0  0  0  0  0  0  0  0  0  # atno 17320 bound_to 7965
  145.0242  139.3397  143.6057 LP  0  0  0  0  0  0  0  0  0  0  0  0  # atno 17321 bound_to 7965
  139.7960  143.8151  152.3157 LP  0  0  0  0  0  0  0  0  0  0  0  0  # atno 17342 bound_to 10162
  139.8152  144.7319  150.9645 LP  0  0  0  0  0  0  0  0  0  0  0  0  # atno 17343 bound_to 10162
  156.0501  130.5571  150.8969 LP  0  0  0  0  0  0  0  0  0  0  0  0  # atno 17370 bound_to 10713
  157.5921  131.0944  150.9102 LP  0  0  0  0  0  0  0  0  0  0  0  0  # atno 17371 bound_to 10713
  140.3951  134.2143  155.7165 LP  0  0  0  0  0  0  0  0  0  0  0  0  # atno 17394 bound_to 11000
  141.1920  133.8182  157.0856 LP  0  0  0  0  0  0  0  0  0  0  0  0  # atno 17395 bound_to 11000

$$$$
