AV-unprocessed.smi:1677|AV-procd|sdf|6725|dock8
  -GOLD-   22720 7473D 1   1.00000     0.00000
 Structure written by MMmdl.
 36 37  0  0  0  0  0  0  0  0  1 V2000
  147.2037  141.8542  155.7690 C   0  0  0  0  0  0  0  0  0  0  0  0
  148.5856  141.1949  155.9092 C   0  0  1  0  0  0  0  0  0  0  0  0
  149.2296  140.8373  154.5520 C   0  0  0  0  0  0  0  0  0  0  0  0
  150.1643  139.7321  154.6484 N   0  0  0  0  0  0  0  0  0  0  0  0
  150.1818  138.5830  153.8691 C   0  0  0  0  0  0  0  0  0  0  0  0
  151.2388  137.8220  154.3149 C   0  0  0  0  0  0  0  0  0  0  0  0
  151.8777  138.4764  155.3655 N   0  0  0  0  0  0  0  0  0  0  0  0
  151.1837  139.5981  155.5082 C   0  0  0  0  0  0  0  0  0  0  0  0
  149.4642  142.0853  156.6620 N   0  0  0  0  0  0  0  0  0  0  0  0
  150.2589  141.7197  157.6803 C   0  0  0  0  0  0  0  0  0  0  0  0
  150.3382  140.5621  158.0928 O   0  0  0  0  0  0  0  0  0  0  0  0
  151.0902  142.8326  158.3328 C   0  0  2  0  0  0  0  0  0  0  0  0
  151.9449  142.2863  159.5000 C   0  0  0  0  0  0  0  0  0  0  0  0
  152.5758  143.3997  160.3178 C   0  0  0  0  0  0  0  0  0  0  0  0
  152.1732  144.6808  160.2574 C   0  0  0  0  0  0  0  0  0  0  0  0
  151.0389  145.1590  159.3684 C   0  0  0  0  0  0  0  0  0  0  0  0
  150.1970  143.9926  158.8170 C   0  0  0  0  0  0  0  0  0  0  0  0
  146.4858  141.1836  155.2962 H   0  0  0  0  0  0  0  0  0  0  0  0
  147.2578  142.7622  155.1676 H   0  0  0  0  0  0  0  0  0  0  0  0
  146.7976  142.1240  156.7444 H   0  0  0  0  0  0  0  0  0  0  0  0
  148.4490  140.2753  156.4819 H   0  0  0  0  0  0  0  0  0  0  0  0
  148.4591  140.5776  153.8243 H   0  0  0  0  0  0  0  0  0  0  0  0
  149.7656  141.6958  154.1454 H   0  0  0  0  0  0  0  0  0  0  0  0
  149.4622  138.4094  153.0823 H   0  0  0  0  0  0  0  0  0  0  0  0
  151.5846  136.8607  153.9642 H   0  0  0  0  0  0  0  0  0  0  0  0
  151.4274  140.3424  156.2523 H   0  0  0  0  0  0  0  0  0  0  0  0
  149.4637  143.0579  156.3913 H   0  0  0  0  0  0  0  0  0  0  0  0
  151.7702  143.2344  157.5787 H   0  0  0  0  0  0  0  0  0  0  0  0
  151.3491  141.6716  160.1761 H   0  0  0  0  0  0  0  0  0  0  0  0
  152.7392  141.6494  159.1091 H   0  0  0  0  0  0  0  0  0  0  0  0
  153.3788  143.1204  160.9841 H   0  0  0  0  0  0  0  0  0  0  0  0
  152.6720  145.4295  160.8551 H   0  0  0  0  0  0  0  0  0  0  0  0
  150.4027  145.8418  159.9320 H   0  0  0  0  0  0  0  0  0  0  0  0
  151.4718  145.7319  158.5478 H   0  0  0  0  0  0  0  0  0  0  0  0
  149.5578  144.3529  158.0100 H   0  0  0  0  0  0  0  0  0  0  0  0
  149.5280  143.6342  159.6012 H   0  0  0  0  0  0  0  0  0  0  0  0
  1  2  1  0  0  0  0
  1 18  1  0  0  0  0
  1 19  1  0  0  0  0
  1 20  1  0  0  0  0
  2  3  1  0  0  0  0
  2  9  1  0  0  0  0
  2 21  1  0  0  0  0
  3  4  1  0  0  0  0
  3 22  1  0  0  0  0
  3 23  1  0  0  0  0
  4  8  1  0  0  0  0
  4  5  1  0  0  0  0
  5  6  2  0  0  0  0
  5 24  1  0  0  0  0
  6  7  1  0  0  0  0
  6 25  1  0  0  0  0
  7  8  2  0  0  0  0
  8 26  1  0  0  0  0
  9 10  1  0  0  0  0
  9 27  1  0  0  0  0
 10 11  2  0  0  0  0
 10 12  1  0  0  0  0
 12 17  1  0  0  0  0
 12 13  1  0  0  0  0
 12 28  1  0  0  0  0
 13 14  1  0  0  0  0
 13 29  1  0  0  0  0
 13 30  1  0  0  0  0
 14 15  2  0  0  0  0
 14 31  1  0  0  0  0
 15 16  1  0  0  0  0
 15 32  1  0  0  0  0
 16 17  1  0  0  0  0
 16 33  1  0  0  0  0
 16 34  1  0  0  0  0
 17 35  1  0  0  0  0
 17 36  1  0  0  0  0
M  END
> <s_m_source_file>
AV-unprocessed.smi

> <i_m_source_file_index>
1677

> <i_lp_mmshare_version>
43012

> <i_f3d_flags>
0

> <s_epik_input>
W2NIXTFuW2NIXVtjSF1uMVtDSDJdW0NAQEhdKFtDSDNdKVtOSF1DKD1PKVtDQEBIXTJbQ0gyXVtDSF09W0NIXVtDSDJdW0NIMl0y

> <s_epik_cmdline>
J2VwaWtfcHl0aG9uJywgJy1waCcsICc3LjAnLCAnLXRuJywgJzgnLCAnLW1hJywgJzIwMCcsICctbWV0YWxfYmluZGluZycsICctaW1hZScsICc8aW5maWxlLm1hZT4nLCAnLW9tYWUnLCAnPG91dGZpbGUubWFlPic=

> <r_lp_tautomer_probability>
1

> <r_epik_Ionization_Penalty>
0.640435

> <r_epik_Ionization_Penalty_Charging>
0.640435

> <r_epik_Ionization_Penalty_Neutral>
2.11108e-08

> <r_epik_State_Penalty>
0.658069

> <r_epik_Charging_Adjusted_Penalty>
1.2985

> <i_epik_Tot_Q>
0

> <i_epik_Tot_abs_Q>
0

> <r_epik_Metal_State_Penalty>
0.311689

> <b_epik_Metal_Only>
0

> <s_lp_Force_Field>
OPLS_2005

> <r_lp_Energy>
10.0444

> <b_lp_Chiralities_Consistent>
1

> <s_lp_Variant>
AV-unprocessed.smi:1677-6

> <Gold.Version>
5.8.1

> <Gold.Id.Protein>
6NUR|6NUR_protein|mol2

> <Gold.PLP.Fitness>
45.3562

> <Gold.PLP.PLP>
-36.0931

> <Gold.PLP.part.hbond>
-1.0000

> <Gold.PLP.part.metal>
0.0000

> <Gold.PLP.part.buried>
-2.9545

> <Gold.PLP.part.nonpolar>
-33.0411

> <Gold.PLP.part.repulsive>
0.0466

> <Gold.PLP.ligand.clash>
0.0000

> <Gold.PLP.ligand.torsion>
0.5757

> <Gold.PLP.Chemscore.Hbond>
1.0000

> <Gold.PLP.Chemscore.CHOScore>
2.4581

> <Gold.PLP.Chemscore.Metal>
0.0000

> <Gold.Chemscore.Hbonds>
donor molecule, donor type, donor heavy atom, donor atom, acceptor molecule, acceptor atom, score
      L1  H     9    27       P1  8028  1.00
      L1  C     5    24       P1  7948  0.96
      L1  C     5    24       P1  7957  0.70
      L1  C     6    25       P1  7949  0.60

> <Gold.PLP.Chemscore.Internal.Correction>
0.0404

> <Gold.Rescore>
     Score         DG    S(hbond)    S(metal)    S(lipo)     H(rot)  DE(clash)    DE(int)     intcor
     14.25     -15.60       1.00        0.00      96.28       1.75       0.01       1.34       ----

> <Gold.Chemscore.Fitness>
14.2453

> <Gold.Chemscore.DG>
-15.6004

> <Gold.Chemscore.ZeroCoef>
-5.4800

> <Gold.Chemscore.Hbond>
0.9968

> <Gold.Chemscore.Metal>
0.0000

> <Gold.Chemscore.Lipo>
96.2778

> <Gold.Chemscore.Internal_Hbond>
0.0000

> <Gold.Chemscore.DEClash>
0.0144

> <Gold.Chemscore.DEInternal>
1.3407

> <Gold.Chemscore.Rot>
1.7475

> <Gold.Chemscore.Internal.Correction>
   9.000000E+99

> <Gold.Chemscore.Hbonds>
donor molecule, donor type, donor heavy atom, donor atom, acceptor molecule, acceptor atom, score
      L1  H     9    27       P1  8028  0.99

> <Gold.Chemscore.Hbond.Weighted>
-3.3294

> <Gold.Chemscore.Metal.Weighted>
-0.0000

> <Gold.Chemscore.Lipo.Weighted>
-11.2645

> <Gold.Chemscore.Internal_Hbond.Weighted>
0.0000

> <Gold.Chemscore.DEClash.Weighted>
0.0144

> <Gold.Chemscore.DEInternal.Weighted>
1.3407

> <Gold.Chemscore.Rot.Weighted>
4.4735

> <Gold.Chemscore.Internal.Correction.Weighted>
   9.000000E+99

> <Gold.Protein.RotatedTorsions>
[ 6907 6896 6895 6894 ] final   90.50 input  -60.11 | X-H torsion
[ 7974 7965 7964 7962 ] final  145.39 input  175.53 | X-H torsion
[ 8008 7997 7996 7995 ] final  -24.84 input   59.86 | X-H torsion
[ 10167 10162 10161 10158 ] final  -76.88 input  -65.29 | X-H torsion
[ 10718 10713 10712 10709 ] final   28.08 input   66.30 | X-H torsion
[ 10763 10752 10751 10750 ] final  145.75 input  -60.55 | X-H torsion
[ 11005 11000 10999 10996 ] final -125.39 input  -57.11 | X-H torsion

> <Gold.Protein.ActiveResidues>
 VAL166  LYS551  ARG553  GLY616  TRP617  ASP618  TYR619  PRO620  LYS621  CYS622 
 ASP623  PHE694  ASN695  SER759  ASP760  ASP761  ALA762  ILE779  LEU786  VAL792 
 PHE793  MET794  SER795  GLU796  ALA797  LYS798  CYS799  TRP800  GLU811  SER814 

> <Gold.Protein.RotatedAtoms>
  152.5445  134.1801  159.8631 H   0  0  0  0  0  0  0  0  0  0  0  0  # atno 6907 bound_to 6896
  151.1804  133.4721  159.2601 H   0  0  0  0  0  0  0  0  0  0  0  0  # atno 6908 bound_to 6896
  151.1184  135.0077  159.8582 H   0  0  0  0  0  0  0  0  0  0  0  0  # atno 6909 bound_to 6896
  144.8756  139.5777  143.5866 H   0  0  0  0  0  0  0  0  0  0  0  0  # atno 7974 bound_to 7965
  154.4507  140.1942  156.0527 H   0  0  0  0  0  0  0  0  0  0  0  0  # atno 8008 bound_to 7997
  156.0642  140.3293  155.7471 H   0  0  0  0  0  0  0  0  0  0  0  0  # atno 8009 bound_to 7997
  155.5364  140.0582  157.2869 H   0  0  0  0  0  0  0  0  0  0  0  0  # atno 8010 bound_to 7997
  140.4818  143.2400  151.8046 H   0  0  0  0  0  0  0  0  0  0  0  0  # atno 10167 bound_to 10162
  157.2288  130.7014  149.6304 H   0  0  0  0  0  0  0  0  0  0  0  0  # atno 10718 bound_to 10713
  154.0106  135.2915  155.3392 H   0  0  0  0  0  0  0  0  0  0  0  0  # atno 10763 bound_to 10752
  154.7105  135.5151  153.8663 H   0  0  0  0  0  0  0  0  0  0  0  0  # atno 10764 bound_to 10752
  153.0725  135.6652  154.0338 H   0  0  0  0  0  0  0  0  0  0  0  0  # atno 10765 bound_to 10752
  140.9765  134.0732  157.3812 H   0  0  0  0  0  0  0  0  0  0  0  0  # atno 11005 bound_to 11000
  146.2960  139.7281  142.9126 LP  0  0  0  0  0  0  0  0  0  0  0  0  # atno 17320 bound_to 7965
  145.4048  141.0389  143.3050 LP  0  0  0  0  0  0  0  0  0  0  0  0  # atno 17321 bound_to 7965
  139.4835  144.4762  151.9363 LP  0  0  0  0  0  0  0  0  0  0  0  0  # atno 17342 bound_to 10162
  140.3848  144.2691  150.5905 LP  0  0  0  0  0  0  0  0  0  0  0  0  # atno 17343 bound_to 10162
  155.9677  130.4496  150.5663 LP  0  0  0  0  0  0  0  0  0  0  0  0  # atno 17370 bound_to 10713
  157.3500  131.0732  151.1721 LP  0  0  0  0  0  0  0  0  0  0  0  0  # atno 17371 bound_to 10713
  139.8933  135.0129  156.6890 LP  0  0  0  0  0  0  0  0  0  0  0  0  # atno 17394 bound_to 11000
  140.7250  133.9107  155.8172 LP  0  0  0  0  0  0  0  0  0  0  0  0  # atno 17395 bound_to 11000

$$$$
