AV-unprocessed.smi:2922|AV-procd|sdf|11198|dock8
  -GOLD-   2272016 93D 1   1.00000     0.00000
 Structure written by MMmdl.
 30 31  0  0  0  0  0  0  0  0  1 V2000
  145.6892  140.9734  154.7047 N   0  0  0  0  0  0  0  0  0  0  0  0
  146.5096  141.8796  154.1649 C   0  0  0  0  0  0  0  0  0  0  0  0
  146.2104  143.0710  154.1090 O   0  0  0  0  0  0  0  0  0  0  0  0
  147.8681  141.3858  153.6330 C   0  0  2  0  0  0  0  0  0  0  0  0
  148.1247  139.8844  153.8780 C   0  0  0  0  0  0  0  0  0  0  0  0
  149.3684  139.8547  154.7515 C   0  0  0  0  0  0  0  0  0  0  0  0
  149.3680  141.2372  155.3921 C   0  0  1  0  0  0  0  0  0  0  0  0
  150.7466  141.6922  155.8940 C   0  0  0  0  0  0  0  0  0  0  0  0
  150.6625  142.9022  156.7004 N   0  0  0  0  0  0  0  0  0  0  0  0
  151.1729  143.0338  157.9792 C   0  0  0  0  0  0  0  0  0  0  0  0
  151.0274  144.2086  158.6053 N   0  0  0  0  0  0  0  0  0  0  0  0
  151.5408  144.3100  159.8509 C   0  0  0  0  0  0  0  0  0  0  0  0
  152.1998  143.2273  160.4662 C   0  0  0  0  0  0  0  0  0  0  0  0
  152.8592  143.3502  162.0556 Cl  0  0  0  0  0  0  0  0  0  0  0  0
  152.2923  142.0389  159.7147 C   0  0  0  0  0  0  0  0  0  0  0  0
  151.7760  141.9472  158.4692 N   0  0  0  0  0  0  0  0  0  0  0  0
  148.9334  142.0515  154.3127 O   0  0  0  0  0  0  0  0  0  0  0  0
  144.7896  141.2589  155.0633 H   0  0  0  0  0  0  0  0  0  0  0  0
  145.9746  140.0056  154.7499 H   0  0  0  0  0  0  0  0  0  0  0  0
  147.9287  141.6222  152.5703 H   0  0  0  0  0  0  0  0  0  0  0  0
  147.2969  139.4014  154.3993 H   0  0  0  0  0  0  0  0  0  0  0  0
  148.2821  139.3416  152.9458 H   0  0  0  0  0  0  0  0  0  0  0  0
  149.3551  139.0478  155.4845 H   0  0  0  0  0  0  0  0  0  0  0  0
  150.2535  139.7298  154.1261 H   0  0  0  0  0  0  0  0  0  0  0  0
  148.6284  141.2669  156.1944 H   0  0  0  0  0  0  0  0  0  0  0  0
  151.2117  140.9011  156.4832 H   0  0  0  0  0  0  0  0  0  0  0  0
  151.4104  141.8798  155.0499 H   0  0  0  0  0  0  0  0  0  0  0  0
  150.0594  143.6423  156.3721 H   0  0  0  0  0  0  0  0  0  0  0  0
  151.4248  145.2577  160.3556 H   0  0  0  0  0  0  0  0  0  0  0  0
  152.7811  141.1608  160.1108 H   0  0  0  0  0  0  0  0  0  0  0  0
  1  2  1  0  0  0  0
  1 18  1  0  0  0  0
  1 19  1  0  0  0  0
  2  3  2  0  0  0  0
  2  4  1  0  0  0  0
  4 17  1  0  0  0  0
  4  5  1  0  0  0  0
  4 20  1  0  0  0  0
  5  6  1  0  0  0  0
  5 21  1  0  0  0  0
  5 22  1  0  0  0  0
  6  7  1  0  0  0  0
  6 23  1  0  0  0  0
  6 24  1  0  0  0  0
  7  8  1  0  0  0  0
  7 17  1  0  0  0  0
  7 25  1  0  0  0  0
  8  9  1  0  0  0  0
  8 26  1  0  0  0  0
  8 27  1  0  0  0  0
  9 10  1  0  0  0  0
  9 28  1  0  0  0  0
 10 16  1  0  0  0  0
 10 11  2  0  0  0  0
 11 12  1  0  0  0  0
 12 13  2  0  0  0  0
 12 29  1  0  0  0  0
 13 14  1  0  0  0  0
 13 15  1  0  0  0  0
 15 16  2  0  0  0  0
 15 30  1  0  0  0  0
M  END
> <s_m_source_file>
AV-unprocessed.smi

> <i_m_source_file_index>
2922

> <i_lp_mmshare_version>
43012

> <i_f3d_flags>
0

> <s_epik_input>
W05IMl1DKD1PKVtDQEBIXTFbQ0gyXVtDSDJdW0NASF0oTzEpW0NIMl1bTkhdYzJuW2NIXWMoQ2wpW2NIXW4y

> <s_epik_cmdline>
J2VwaWtfcHl0aG9uJywgJy1waCcsICc3LjAnLCAnLXRuJywgJzgnLCAnLW1hJywgJzIwMCcsICctbWV0YWxfYmluZGluZycsICctaW1hZScsICc8aW5maWxlLm1hZT4nLCAnLW9tYWUnLCAnPG91dGZpbGUubWFlPic=

> <r_lp_tautomer_probability>
1

> <r_epik_Ionization_Penalty>
6.13883e-06

> <r_epik_Ionization_Penalty_Charging>
0

> <r_epik_Ionization_Penalty_Neutral>
6.13883e-06

> <r_epik_State_Penalty>
-0

> <r_epik_Charging_Adjusted_Penalty>
0

> <i_epik_Tot_Q>
0

> <i_epik_Tot_abs_Q>
0

> <r_epik_Metal_State_Penalty>
-0

> <b_epik_Metal_Only>
0

> <s_lp_Force_Field>
OPLS_2005

> <r_lp_Energy>
9.74106

> <b_lp_Chiralities_Consistent>
1

> <s_lp_Variant>
AV-unprocessed.smi:2922-1

> <Gold.Version>
5.8.1

> <Gold.Id.Protein>
6NUR|6NUR_protein|mol2

> <Gold.PLP.Fitness>
38.8461

> <Gold.PLP.PLP>
-35.8171

> <Gold.PLP.part.hbond>
-3.0000

> <Gold.PLP.part.metal>
0.0000

> <Gold.PLP.part.buried>
-6.4270

> <Gold.PLP.part.nonpolar>
-27.3497

> <Gold.PLP.part.repulsive>
1.5182

> <Gold.PLP.ligand.clash>
0.0000

> <Gold.PLP.ligand.torsion>
0.1237

> <Gold.PLP.Chemscore.Hbond>
1.0841

> <Gold.PLP.Chemscore.CHOScore>
0.0000

> <Gold.PLP.Chemscore.Metal>
0.0000

> <Gold.Chemscore.Hbonds>
donor molecule, donor type, donor heavy atom, donor atom, acceptor molecule, acceptor atom, score
      L1  H     9    28       P1  8028  1.00
      P1  H  8011  8017       L1    17  0.08

> <Gold.PLP.Chemscore.Internal.Correction>
0.0241

> <Gold.Rescore>
     Score         DG    S(hbond)    S(metal)    S(lipo)     H(rot)  DE(clash)    DE(int)     intcor
     13.09     -13.35       1.05        0.00      79.28       1.91       0.14       0.12       ----

> <Gold.Chemscore.Fitness>
13.0876

> <Gold.Chemscore.DG>
-13.3546

> <Gold.Chemscore.ZeroCoef>
-5.4800

> <Gold.Chemscore.Hbond>
1.0477

> <Gold.Chemscore.Metal>
0.0000

> <Gold.Chemscore.Lipo>
79.2787

> <Gold.Chemscore.Internal_Hbond>
0.0000

> <Gold.Chemscore.DEClash>
0.1422

> <Gold.Chemscore.DEInternal>
0.1247

> <Gold.Chemscore.Rot>
1.9142

> <Gold.Chemscore.Internal.Correction>
   9.000000E+99

> <Gold.Chemscore.Hbonds>
donor molecule, donor type, donor heavy atom, donor atom, acceptor molecule, acceptor atom, score
      L1  H     9    28       P1  8028  1.00

> <Gold.Chemscore.Hbond.Weighted>
-3.4992

> <Gold.Chemscore.Metal.Weighted>
-0.0000

> <Gold.Chemscore.Lipo.Weighted>
-9.2756

> <Gold.Chemscore.Internal_Hbond.Weighted>
0.0000

> <Gold.Chemscore.DEClash.Weighted>
0.1422

> <Gold.Chemscore.DEInternal.Weighted>
0.1247

> <Gold.Chemscore.Rot.Weighted>
4.9002

> <Gold.Chemscore.Internal.Correction.Weighted>
   9.000000E+99

> <Gold.Protein.RotatedTorsions>
[ 6907 6896 6895 6894 ] final -133.64 input  -60.11 | X-H torsion
[ 7974 7965 7964 7962 ] final  133.38 input  175.53 | X-H torsion
[ 8008 7997 7996 7995 ] final  149.64 input   59.86 | X-H torsion
[ 10167 10162 10161 10158 ] final   16.44 input  -65.29 | X-H torsion
[ 10718 10713 10712 10709 ] final  -50.47 input   66.30 | X-H torsion
[ 10763 10752 10751 10750 ] final  -20.67 input  -60.55 | X-H torsion
[ 11005 11000 10999 10996 ] final  116.17 input  -57.11 | X-H torsion

> <Gold.Protein.ActiveResidues>
 VAL166  LYS551  ARG553  GLY616  TRP617  ASP618  TYR619  PRO620  LYS621  CYS622 
 ASP623  PHE694  ASN695  SER759  ASP760  ASP761  ALA762  ILE779  LEU786  VAL792 
 PHE793  MET794  SER795  GLU796  ALA797  LYS798  CYS799  TRP800  GLU811  SER814 

> <Gold.Protein.RotatedAtoms>
  150.9764  133.6290  159.2729 H   0  0  0  0  0  0  0  0  0  0  0  0  # atno 6907 bound_to 6896
  151.3561  135.0893  159.9428 H   0  0  0  0  0  0  0  0  0  0  0  0  # atno 6908 bound_to 6896
  152.5201  133.9347  159.7652 H   0  0  0  0  0  0  0  0  0  0  0  0  # atno 6909 bound_to 6896
  144.9871  139.4444  143.5358 H   0  0  0  0  0  0  0  0  0  0  0  0  # atno 7974 bound_to 7965
  156.2747  140.2096  156.5890 H   0  0  0  0  0  0  0  0  0  0  0  0  # atno 8008 bound_to 7997
  154.6997  140.0522  157.0469 H   0  0  0  0  0  0  0  0  0  0  0  0  # atno 8009 bound_to 7997
  155.0751  140.3181  155.4621 H   0  0  0  0  0  0  0  0  0  0  0  0  # atno 8010 bound_to 7997
  140.5797  143.9004  150.6779 H   0  0  0  0  0  0  0  0  0  0  0  0  # atno 10167 bound_to 10162
  156.1797  130.4150  149.9524 H   0  0  0  0  0  0  0  0  0  0  0  0  # atno 10718 bound_to 10713
  153.6240  135.6991  153.5300 H   0  0  0  0  0  0  0  0  0  0  0  0  # atno 10763 bound_to 10752
  153.2914  135.4156  155.1170 H   0  0  0  0  0  0  0  0  0  0  0  0  # atno 10764 bound_to 10752
  154.8537  135.3626  154.5782 H   0  0  0  0  0  0  0  0  0  0  0  0  # atno 10765 bound_to 10752
  139.9032  134.9594  156.7157 H   0  0  0  0  0  0  0  0  0  0  0  0  # atno 11005 bound_to 11000
  146.3422  139.9179  142.8771 LP  0  0  0  0  0  0  0  0  0  0  0  0  # atno 17320 bound_to 7965
  145.2338  140.9983  143.3975 LP  0  0  0  0  0  0  0  0  0  0  0  0  # atno 17321 bound_to 7965
  140.2500  143.3600  152.1413 LP  0  0  0  0  0  0  0  0  0  0  0  0  # atno 17342 bound_to 10162
  139.5163  144.6975  151.5589 LP  0  0  0  0  0  0  0  0  0  0  0  0  # atno 17343 bound_to 10162
  156.7298  130.9039  151.3625 LP  0  0  0  0  0  0  0  0  0  0  0  0  # atno 17370 bound_to 10713
  157.6860  130.9186  150.0388 LP  0  0  0  0  0  0  0  0  0  0  0  0  # atno 17371 bound_to 10713
  140.7041  133.9281  155.8042 LP  0  0  0  0  0  0  0  0  0  0  0  0  # atno 17394 bound_to 11000
  141.0350  134.0703  157.3970 LP  0  0  0  0  0  0  0  0  0  0  0  0  # atno 17395 bound_to 11000

$$$$
