AV-unprocessed.smi:422|AV-procd|sdf|2537|dock4
  -GOLD-   2262022493D 1   1.00000     0.00000
 Structure written by MMmdl.
 43 45  0  0  0  0  0  0  0  0  1 V2000
  153.4942  140.2413  160.1812 C   0  0  0  0  0  0  0  0  0  0  0  0
  152.7454  141.1994  159.3768 N   0  0  0  0  0  0  0  0  0  0  0  0
  152.2784  141.0132  158.1201 C   0  0  0  0  0  0  0  0  0  0  0  0
  152.4128  139.9957  157.4406 O   0  0  0  0  0  0  0  0  0  0  0  0
  151.6532  142.1497  157.7328 N   0  0  0  0  0  0  0  0  0  0  0  0
  151.0173  142.3949  156.4403 C   0  0  0  0  0  0  0  0  0  0  0  0
  149.7956  141.4784  156.2255 C   0  0  1  0  0  0  0  0  0  0  0  0
  148.6346  142.0703  156.7726 O   0  0  0  0  0  0  0  0  0  0  0  0
  149.5156  141.1826  154.7423 C   0  0  0  0  0  0  0  0  0  0  0  0
  148.2037  140.6643  154.5859 O   0  0  0  0  0  0  0  0  0  0  0  0
  147.4692  141.3203  153.5675 C   0  0  0  0  0  0  0  0  0  0  0  0
  146.4229  142.2453  154.1566 C   0  0  0  0  0  0  0  0  0  0  0  0
  146.0192  143.3958  153.4469 C   0  0  0  0  0  0  0  0  0  0  0  0
  145.0441  144.2562  153.9880 C   0  0  0  0  0  0  0  0  0  0  0  0
  144.4676  143.9686  155.2402 C   0  0  0  0  0  0  0  0  0  0  0  0
  144.8660  142.8196  155.9503 C   0  0  0  0  0  0  0  0  0  0  0  0
  145.8409  141.9577  155.4106 C   0  0  0  0  0  0  0  0  0  0  0  0
  146.2141  140.8535  156.1012 F   0  0  0  0  0  0  0  0  0  0  0  0
  151.7457  143.0984  158.7615 C   0  0  0  0  0  0  0  0  0  0  0  0
  151.2853  144.4243  158.8432 C   0  0  0  0  0  0  0  0  0  0  0  0
  151.5508  145.1277  160.0415 C   0  0  0  0  0  0  0  0  0  0  0  0
  152.2560  144.5094  161.1069 C   0  0  0  0  0  0  0  0  0  0  0  0
  152.7114  143.1746  160.9965 C   0  0  0  0  0  0  0  0  0  0  0  0
  152.4324  142.4988  159.7963 C   0  0  0  0  0  0  0  0  0  0  0  0
  153.3711  139.2215  159.8148 H   0  0  0  0  0  0  0  0  0  0  0  0
  153.1567  140.2631  161.2176 H   0  0  0  0  0  0  0  0  0  0  0  0
  154.5568  140.4848  160.1614 H   0  0  0  0  0  0  0  0  0  0  0  0
  150.7443  143.4463  156.3323 H   0  0  0  0  0  0  0  0  0  0  0  0
  151.7602  142.2059  155.6645 H   0  0  0  0  0  0  0  0  0  0  0  0
  149.9486  140.5253  156.7339 H   0  0  0  0  0  0  0  0  0  0  0  0
  148.6405  142.9927  156.5659 H   0  0  0  0  0  0  0  0  0  0  0  0
  149.5939  142.1111  154.1744 H   0  0  0  0  0  0  0  0  0  0  0  0
  150.2601  140.4955  154.3361 H   0  0  0  0  0  0  0  0  0  0  0  0
  148.1410  141.8989  152.9312 H   0  0  0  0  0  0  0  0  0  0  0  0
  146.9824  140.5828  152.9270 H   0  0  0  0  0  0  0  0  0  0  0  0
  146.4548  143.6206  152.4842 H   0  0  0  0  0  0  0  0  0  0  0  0
  144.7379  145.1362  153.4417 H   0  0  0  0  0  0  0  0  0  0  0  0
  143.7197  144.6278  155.6553 H   0  0  0  0  0  0  0  0  0  0  0  0
  144.4228  142.5984  156.9101 H   0  0  0  0  0  0  0  0  0  0  0  0
  150.7530  144.8916  158.0278 H   0  0  0  0  0  0  0  0  0  0  0  0
  151.2140  146.1487  160.1460 H   0  0  0  0  0  0  0  0  0  0  0  0
  152.4494  145.0651  162.0126 H   0  0  0  0  0  0  0  0  0  0  0  0
  153.2520  142.6995  161.8018 H   0  0  0  0  0  0  0  0  0  0  0  0
  1  2  1  0  0  0  0
  1 25  1  0  0  0  0
  1 26  1  0  0  0  0
  1 27  1  0  0  0  0
  2 24  1  0  0  0  0
  2  3  1  0  0  0  0
  3  4  2  0  0  0  0
  3  5  1  0  0  0  0
  5  6  1  0  0  0  0
  5 19  1  0  0  0  0
  6  7  1  0  0  0  0
  6 28  1  0  0  0  0
  6 29  1  0  0  0  0
  7  8  1  0  0  0  0
  7  9  1  0  0  0  0
  7 30  1  0  0  0  0
  8 31  1  0  0  0  0
  9 10  1  0  0  0  0
  9 32  1  0  0  0  0
  9 33  1  0  0  0  0
 10 11  1  0  0  0  0
 11 12  1  0  0  0  0
 11 34  1  0  0  0  0
 11 35  1  0  0  0  0
 12 17  1  0  0  0  0
 12 13  2  0  0  0  0
 13 14  1  0  0  0  0
 13 36  1  0  0  0  0
 14 15  2  0  0  0  0
 14 37  1  0  0  0  0
 15 16  1  0  0  0  0
 15 38  1  0  0  0  0
 16 17  2  0  0  0  0
 16 39  1  0  0  0  0
 17 18  1  0  0  0  0
 19 24  2  0  0  0  0
 19 20  1  0  0  0  0
 20 21  2  0  0  0  0
 20 40  1  0  0  0  0
 21 22  1  0  0  0  0
 21 41  1  0  0  0  0
 22 23  2  0  0  0  0
 22 42  1  0  0  0  0
 23 24  1  0  0  0  0
 23 43  1  0  0  0  0
M  END
> <s_m_source_file>
AV-unprocessed.smi

> <i_m_source_file_index>
422

> <i_lp_mmshare_version>
43012

> <i_f3d_flags>
0

> <s_epik_input>
W2NIXTFbY0hdW2NIXVtjSF1jKGMxMiluKFtDSDNdKWMoPU8pbjJbQ0gyXVtDQEhdKFtPSF0pW0NIMl1PW0NIMl1jM1tjSF1bY0hdW2NIXVtjSF1jM0Y=

> <s_epik_cmdline>
J2VwaWtfcHl0aG9uJywgJy1waCcsICc3LjAnLCAnLXRuJywgJzgnLCAnLW1hJywgJzIwMCcsICctbWV0YWxfYmluZGluZycsICctaW1hZScsICc8aW5maWxlLm1hZT4nLCAnLW9tYWUnLCAnPG91dGZpbGUubWFlPic=

> <r_lp_tautomer_probability>
1

> <r_epik_Ionization_Penalty>
1.0795e-06

> <r_epik_Ionization_Penalty_Charging>
2.82452e-09

> <r_epik_Ionization_Penalty_Neutral>
1.07667e-06

> <r_epik_State_Penalty>
-0

> <r_epik_Charging_Adjusted_Penalty>
2.82452e-09

> <i_epik_Tot_Q>
0

> <i_epik_Tot_abs_Q>
0

> <r_epik_Metal_State_Penalty>
-0

> <b_epik_Metal_Only>
0

> <s_lp_Force_Field>
OPLS_2005

> <r_lp_Energy>
48.6782

> <b_lp_Chiralities_Consistent>
1

> <s_lp_Variant>
AV-unprocessed.smi:422-2

> <Gold.Version>
5.8.1

> <Gold.Id.Protein>
6NUR|6NUR_protein|mol2

> <Gold.PLP.Fitness>
58.2487

> <Gold.PLP.PLP>
-55.1640

> <Gold.PLP.part.hbond>
-2.0000

> <Gold.PLP.part.metal>
0.0000

> <Gold.PLP.part.buried>
-7.8765

> <Gold.PLP.part.nonpolar>
-44.0521

> <Gold.PLP.part.repulsive>
0.1054

> <Gold.PLP.ligand.clash>
0.0000

> <Gold.PLP.ligand.torsion>
1.5351

> <Gold.PLP.Chemscore.Hbond>
2.0000

> <Gold.PLP.Chemscore.CHOScore>
0.0000

> <Gold.PLP.Chemscore.Metal>
0.0000

> <Gold.Chemscore.Hbonds>
donor molecule, donor type, donor heavy atom, donor atom, acceptor molecule, acceptor atom, score
      L1  H     8    31       P1  8028  1.00
      P1  H  7997  8008       L1     4  0.80

> <Gold.PLP.Chemscore.Internal.Correction>
0.1549

> <Gold.Rescore>
     Score         DG    S(hbond)    S(metal)    S(lipo)     H(rot)  DE(clash)    DE(int)     intcor
     17.89     -21.69       1.70        0.00     142.03       2.38       0.76       3.04       ----

> <Gold.Chemscore.Fitness>
17.8936

> <Gold.Chemscore.DG>
-21.6926

> <Gold.Chemscore.ZeroCoef>
-5.4800

> <Gold.Chemscore.Hbond>
1.7037

> <Gold.Chemscore.Metal>
0.0000

> <Gold.Chemscore.Lipo>
142.0282

> <Gold.Chemscore.Internal_Hbond>
0.0000

> <Gold.Chemscore.DEClash>
0.7584

> <Gold.Chemscore.DEInternal>
3.0407

> <Gold.Chemscore.Rot>
2.3809

> <Gold.Chemscore.Internal.Correction>
   9.000000E+99

> <Gold.Chemscore.Hbonds>
donor molecule, donor type, donor heavy atom, donor atom, acceptor molecule, acceptor atom, score
      L1  H     8    31       P1  8028  0.87
      P1  H  7997  8008       L1     4  0.39

> <Gold.Chemscore.Hbond.Weighted>
-5.6904

> <Gold.Chemscore.Metal.Weighted>
-0.0000

> <Gold.Chemscore.Lipo.Weighted>
-16.6173

> <Gold.Chemscore.Internal_Hbond.Weighted>
0.0000

> <Gold.Chemscore.DEClash.Weighted>
0.7584

> <Gold.Chemscore.DEInternal.Weighted>
3.0407

> <Gold.Chemscore.Rot.Weighted>
6.0951

> <Gold.Chemscore.Internal.Correction.Weighted>
   9.000000E+99

> <Gold.Protein.RotatedTorsions>
[ 6907 6896 6895 6894 ] final   66.22 input  -60.11 | X-H torsion
[ 7974 7965 7964 7962 ] final  -19.65 input  175.53 | X-H torsion
[ 8008 7997 7996 7995 ] final  -62.56 input   59.86 | X-H torsion
[ 10167 10162 10161 10158 ] final  -40.42 input  -65.29 | X-H torsion
[ 10718 10713 10712 10709 ] final -155.29 input   66.30 | X-H torsion
[ 10763 10752 10751 10750 ] final -165.73 input  -60.55 | X-H torsion
[ 11005 11000 10999 10996 ] final   25.67 input  -57.11 | X-H torsion

> <Gold.Protein.ActiveResidues>
 VAL166  LYS551  ARG553  GLY616  TRP617  ASP618  TYR619  PRO620  LYS621  CYS622 
 ASP623  PHE694  ASN695  SER759  ASP760  ASP761  ALA762  ILE779  LEU786  VAL792 
 PHE793  MET794  SER795  GLU796  ALA797  LYS798  CYS799  TRP800  GLU811  SER814 

> <Gold.Protein.RotatedAtoms>
  152.4465  134.5484  159.9859 H   0  0  0  0  0  0  0  0  0  0  0  0  # atno 6907 bound_to 6896
  151.5568  133.3403  159.2971 H   0  0  0  0  0  0  0  0  0  0  0  0  # atno 6908 bound_to 6896
  150.8382  134.7696  159.6974 H   0  0  0  0  0  0  0  0  0  0  0  0  # atno 6909 bound_to 6896
  146.1830  140.4091  142.8487 H   0  0  0  0  0  0  0  0  0  0  0  0  # atno 7974 bound_to 7965
  154.4506  140.0993  156.6605 H   0  0  0  0  0  0  0  0  0  0  0  0  # atno 8008 bound_to 7997
  155.5298  140.3481  155.4405 H   0  0  0  0  0  0  0  0  0  0  0  0  # atno 8009 bound_to 7997
  156.0672  140.1340  156.9860 H   0  0  0  0  0  0  0  0  0  0  0  0  # atno 8010 bound_to 7997
  140.7035  143.3155  151.2921 H   0  0  0  0  0  0  0  0  0  0  0  0  # atno 10167 bound_to 10162
  156.5109  130.8434  151.2646 H   0  0  0  0  0  0  0  0  0  0  0  0  # atno 10718 bound_to 10713
  154.6903  135.2969  154.9489 H   0  0  0  0  0  0  0  0  0  0  0  0  # atno 10763 bound_to 10752
  154.0455  135.6651  153.4798 H   0  0  0  0  0  0  0  0  0  0  0  0  # atno 10764 bound_to 10752
  153.0607  135.5117  154.7991 H   0  0  0  0  0  0  0  0  0  0  0  0  # atno 10765 bound_to 10752
  140.3453  134.2288  155.7685 H   0  0  0  0  0  0  0  0  0  0  0  0  # atno 11005 bound_to 11000
  144.8348  140.6765  143.6267 LP  0  0  0  0  0  0  0  0  0  0  0  0  # atno 17320 bound_to 7965
  145.4020  139.1596  143.4172 LP  0  0  0  0  0  0  0  0  0  0  0  0  # atno 17321 bound_to 7965
  139.6592  144.0221  152.2680 LP  0  0  0  0  0  0  0  0  0  0  0  0  # atno 17342 bound_to 10162
  139.9783  144.6446  150.7925 LP  0  0  0  0  0  0  0  0  0  0  0  0  # atno 17343 bound_to 10162
  157.7450  130.9950  150.2727 LP  0  0  0  0  0  0  0  0  0  0  0  0  # atno 17370 bound_to 10713
  156.3241  130.3790  149.7549 LP  0  0  0  0  0  0  0  0  0  0  0  0  # atno 17371 bound_to 10713
  141.2027  133.7931  157.0377 LP  0  0  0  0  0  0  0  0  0  0  0  0  # atno 17394 bound_to 11000
  140.0747  134.9682  157.1526 LP  0  0  0  0  0  0  0  0  0  0  0  0  # atno 17395 bound_to 11000

$$$$
