AV-unprocessed.smi:315|AV-procd|sdf|2319|dock1
  -GOLD-   2262022223D 1   1.00000     0.00000
 Structure written by MMmdl.
 47 49  0  0  0  0  0  0  0  0  2 V2000
  152.8082  138.9879  154.6943 C   0  0  0  0  0  0  0  0  0  0  0  0
  151.6494  138.1668  155.2646 C   0  0  0  0  0  0  0  0  0  0  0  0
  150.5479  138.2506  154.3666 O   0  0  0  0  0  0  0  0  0  0  0  0
  149.7500  139.3790  154.3975 C   0  0  0  0  0  0  0  0  0  0  0  0
  150.3091  140.5600  154.7607 N   0  0  0  0  0  0  0  0  0  0  0  0
  149.5266  141.6589  154.7864 C   0  0  0  0  0  0  0  0  0  0  0  0
  148.1575  141.6391  154.4610 C   0  0  0  0  0  0  0  0  0  0  0  0
  147.5752  140.4146  154.0848 C   0  0  0  0  0  0  0  0  0  0  0  0
  148.3879  139.2572  154.0400 C   0  0  0  0  0  0  0  0  0  0  0  0
  147.9021  137.9695  153.6944 N   0  0  0  0  0  0  0  0  0  0  0  0
  146.6516  137.4871  153.8169 C   0  0  0  0  0  0  0  0  0  0  0  0
  145.7300  138.0663  154.3869 O   0  0  0  0  0  0  0  0  0  0  0  0
  146.4657  136.2944  153.2218 N   0  0  0  0  0  0  0  0  0  0  0  0
  145.2408  135.4894  153.1600 C   0  0  1  0  0  0  0  0  0  0  0  0
  144.1202  136.1733  152.3540 C   0  0  0  0  0  0  0  0  0  0  0  0
  143.4609  135.0366  151.5670 C   0  0  0  0  0  0  0  0  0  0  0  0
  144.5868  134.1389  151.2862 N   0  3  2  0  0  0  0  0  0  0  0  0
  144.3013  132.7972  150.7393 C   0  0  0  0  0  0  0  0  0  0  0  0
  145.6408  132.1352  150.3519 C   0  0  0  0  0  0  0  0  0  0  0  0
  146.6579  132.1491  151.5151 C   0  0  0  0  0  0  0  0  0  0  0  0
  146.8122  133.5572  152.1296 C   0  0  0  0  0  0  0  0  0  0  0  0
  145.4187  134.0974  152.5017 C   0  0  1  0  0  0  0  0  0  0  0  0
  153.6805  138.9344  155.3458 H   0  0  0  0  0  0  0  0  0  0  0  0
  152.5312  140.0371  154.5941 H   0  0  0  0  0  0  0  0  0  0  0  0
  153.1018  138.6214  153.7102 H   0  0  0  0  0  0  0  0  0  0  0  0
  151.9611  137.1283  155.3871 H   0  0  0  0  0  0  0  0  0  0  0  0
  151.3734  138.5564  156.2458 H   0  0  0  0  0  0  0  0  0  0  0  0
  150.0055  142.5812  155.0803 H   0  0  0  0  0  0  0  0  0  0  0  0
  147.5663  142.5418  154.5034 H   0  0  0  0  0  0  0  0  0  0  0  0
  146.5218  140.3818  153.8526 H   0  0  0  0  0  0  0  0  0  0  0  0
  148.5400  137.4040  153.1539 H   0  0  0  0  0  0  0  0  0  0  0  0
  147.2613  135.9183  152.7261 H   0  0  0  0  0  0  0  0  0  0  0  0
  144.8597  135.3429  154.1724 H   0  0  0  0  0  0  0  0  0  0  0  0
  143.4113  136.7072  152.9878 H   0  0  0  0  0  0  0  0  0  0  0  0
  144.5430  136.8953  151.6535 H   0  0  0  0  0  0  0  0  0  0  0  0
  142.7212  134.5211  152.1815 H   0  0  0  0  0  0  0  0  0  0  0  0
  142.9756  135.3821  150.6538 H   0  0  0  0  0  0  0  0  0  0  0  0
  143.7663  132.1952  151.4753 H   0  0  0  0  0  0  0  0  0  0  0  0
  143.6587  132.8857  149.8625 H   0  0  0  0  0  0  0  0  0  0  0  0
  145.4693  131.1116  150.0174 H   0  0  0  0  0  0  0  0  0  0  0  0
  146.0685  132.6672  149.5010 H   0  0  0  0  0  0  0  0  0  0  0  0
  146.3242  131.4551  152.2871 H   0  0  0  0  0  0  0  0  0  0  0  0
  147.6255  131.7817  151.1719 H   0  0  0  0  0  0  0  0  0  0  0  0
  147.4532  133.4969  153.0088 H   0  0  0  0  0  0  0  0  0  0  0  0
  147.3033  134.2250  151.4205 H   0  0  0  0  0  0  0  0  0  0  0  0
  144.9608  133.3799  153.1865 H   0  0  0  0  0  0  0  0  0  0  0  0
  145.1397  134.6173  150.5894 H   0  0  0  0  0  0  0  0  0  0  0  0
  1  2  1  0  0  0  0
  1 23  1  0  0  0  0
  1 24  1  0  0  0  0
  1 25  1  0  0  0  0
  2  3  1  0  0  0  0
  2 26  1  0  0  0  0
  2 27  1  0  0  0  0
  3  4  1  0  0  0  0
  4  9  1  0  0  0  0
  4  5  2  0  0  0  0
  5  6  1  0  0  0  0
  6  7  2  0  0  0  0
  6 28  1  0  0  0  0
  7  8  1  0  0  0  0
  7 29  1  0  0  0  0
  8  9  2  0  0  0  0
  8 30  1  0  0  0  0
  9 10  1  0  0  0  0
 10 11  1  0  0  0  0
 10 31  1  0  0  0  0
 11 12  2  0  0  0  0
 11 13  1  0  0  0  0
 13 14  1  0  0  0  0
 13 32  1  0  0  0  0
 14 22  1  0  0  0  0
 14 15  1  0  0  0  0
 14 33  1  0  0  0  0
 15 16  1  0  0  0  0
 15 34  1  0  0  0  0
 15 35  1  0  0  0  0
 16 17  1  0  0  0  0
 16 36  1  0  0  0  0
 16 37  1  0  0  0  0
 17 22  1  0  0  0  0
 17 18  1  0  0  0  0
 17 47  1  0  0  0  0
 18 19  1  0  0  0  0
 18 38  1  0  0  0  0
 18 39  1  0  0  0  0
 19 20  1  0  0  0  0
 19 40  1  0  0  0  0
 19 41  1  0  0  0  0
 20 21  1  0  0  0  0
 20 42  1  0  0  0  0
 20 43  1  0  0  0  0
 21 22  1  0  0  0  0
 21 44  1  0  0  0  0
 21 45  1  0  0  0  0
 22 46  1  0  0  0  0
M  CHG  1  17   1
M  END
> <s_m_source_file>
AV-unprocessed.smi

> <i_m_source_file_index>
315

> <i_lp_mmshare_version>
43012

> <i_f3d_flags>
0

> <s_epik_input>
W0NIM11bQ0gyXU9jMW5bY0hdW2NIXVtjSF1jMVtOSF1DKD1PKVtOSF1bQ0BIXShbQ0gyXVtDSDJdMilbQ0BASF0oTjIzKVtDSDJdW0NIMl1bQ0gyXVtDSDJdMw==

> <s_epik_cmdline>
J2VwaWtfcHl0aG9uJywgJy1waCcsICc3LjAnLCAnLXRuJywgJzgnLCAnLW1hJywgJzIwMCcsICctbWV0YWxfYmluZGluZycsICctaW1hZScsICc8aW5maWxlLm1hZT4nLCAnLW9tYWUnLCAnPG91dGZpbGUubWFlPic=

> <r_lp_tautomer_probability>
1

> <r_epik_Ionization_Penalty>
0.00106455

> <r_epik_Ionization_Penalty_Charging>
0.000974069

> <r_epik_Ionization_Penalty_Neutral>
9.04821e-05

> <r_epik_State_Penalty>
0.000633842

> <r_epik_Charging_Adjusted_Penalty>
0.00160791

> <i_epik_Tot_Q>
1

> <i_epik_Tot_abs_Q>
1

> <r_epik_Metal_State_Penalty>
-0

> <b_epik_Metal_Only>
0

> <s_lp_Force_Field>
OPLS_2005

> <r_lp_Energy>
53.3224

> <b_lp_Chiralities_Consistent>
1

> <s_lp_Variant>
AV-unprocessed.smi:315-4

> <Gold.Version>
5.8.1

> <Gold.Id.Protein>
6NUR|6NUR_protein|mol2

> <Gold.PLP.Fitness>
45.1919

> <Gold.PLP.PLP>
-34.8490

> <Gold.PLP.part.hbond>
-3.0000

> <Gold.PLP.part.metal>
0.0000

> <Gold.PLP.part.buried>
-1.4937

> <Gold.PLP.part.nonpolar>
-29.4038

> <Gold.PLP.part.repulsive>
0.4101

> <Gold.PLP.ligand.clash>
0.0000

> <Gold.PLP.ligand.torsion>
0.6492

> <Gold.PLP.Chemscore.Hbond>
2.9360

> <Gold.PLP.Chemscore.CHOScore>
0.9383

> <Gold.PLP.Chemscore.Metal>
0.0000

> <Gold.Chemscore.Hbonds>
donor molecule, donor type, donor heavy atom, donor atom, acceptor molecule, acceptor atom, score
      L1  H    10    31       P1  7948  1.00
      L1  H    13    32       P1  7948  0.99
      P1  H  7989  7998       L1     5  0.94
      L1  C     6    28       P1  8028  0.94

> <Gold.PLP.Chemscore.Internal.Correction>
0.0184

> <Gold.Rescore>
     Score         DG    S(hbond)    S(metal)    S(lipo)     H(rot)  DE(clash)    DE(int)     intcor
     16.95     -19.92       2.27        0.00      88.78       1.38       0.49       2.48       ----

> <Gold.Chemscore.Fitness>
16.9518

> <Gold.Chemscore.DG>
-19.9217

> <Gold.Chemscore.ZeroCoef>
-5.4800

> <Gold.Chemscore.Hbond>
2.2693

> <Gold.Chemscore.Metal>
0.0000

> <Gold.Chemscore.Lipo>
88.7824

> <Gold.Chemscore.Internal_Hbond>
0.0000

> <Gold.Chemscore.DEClash>
0.4860

> <Gold.Chemscore.DEInternal>
2.4840

> <Gold.Chemscore.Rot>
1.3770

> <Gold.Chemscore.Internal.Correction>
   9.000000E+99

> <Gold.Chemscore.Hbonds>
donor molecule, donor type, donor heavy atom, donor atom, acceptor molecule, acceptor atom, score
      L1  H    10    31       P1  7948  0.98
      L1  H    13    32       P1  7948  0.93
      P1  H  7989  7998       L1     5  0.25

> <Gold.Chemscore.Hbond.Weighted>
-7.5794

> <Gold.Chemscore.Metal.Weighted>
-0.0000

> <Gold.Chemscore.Lipo.Weighted>
-10.3875

> <Gold.Chemscore.Internal_Hbond.Weighted>
0.0000

> <Gold.Chemscore.DEClash.Weighted>
0.4860

> <Gold.Chemscore.DEInternal.Weighted>
2.4840

> <Gold.Chemscore.Rot.Weighted>
3.5252

> <Gold.Chemscore.Internal.Correction.Weighted>
   9.000000E+99

> <Gold.Protein.RotatedTorsions>
[ 6907 6896 6895 6894 ] final -111.46 input  -60.11 | X-H torsion
[ 7974 7965 7964 7962 ] final   -2.86 input  175.53 | X-H torsion
[ 8008 7997 7996 7995 ] final  -23.88 input   59.86 | X-H torsion
[ 10167 10162 10161 10158 ] final  -24.45 input  -65.29 | X-H torsion
[ 10718 10713 10712 10709 ] final  168.65 input   66.30 | X-H torsion
[ 10763 10752 10751 10750 ] final   -6.40 input  -60.55 | X-H torsion
[ 11005 11000 10999 10996 ] final  137.68 input  -57.11 | X-H torsion

> <Gold.Protein.ActiveResidues>
 VAL166  LYS551  ARG553  GLY616  TRP617  ASP618  TYR619  PRO620  LYS621  CYS622 
 ASP623  PHE694  ASN695  SER759  ASP760  ASP761  ALA762  ILE779  LEU786  VAL792 
 PHE793  MET794  SER795  GLU796  ALA797  LYS798  CYS799  TRP800  GLU811  SER814 

> <Gold.Protein.RotatedAtoms>
  150.7692  133.9232  159.3404 H   0  0  0  0  0  0  0  0  0  0  0  0  # atno 6907 bound_to 6896
  151.7122  135.0908  160.0279 H   0  0  0  0  0  0  0  0  0  0  0  0  # atno 6908 bound_to 6896
  152.3702  133.6371  159.6117 H   0  0  0  0  0  0  0  0  0  0  0  0  # atno 6909 bound_to 6896
  146.2398  140.1634  142.8332 H   0  0  0  0  0  0  0  0  0  0  0  0  # atno 7974 bound_to 7965
  154.4560  140.1968  156.0379 H   0  0  0  0  0  0  0  0  0  0  0  0  # atno 8008 bound_to 7997
  156.0746  140.3280  155.7590 H   0  0  0  0  0  0  0  0  0  0  0  0  # atno 8009 bound_to 7997
  155.5208  140.0569  157.2898 H   0  0  0  0  0  0  0  0  0  0  0  0  # atno 8010 bound_to 7997
  140.7288  143.4352  151.0741 H   0  0  0  0  0  0  0  0  0  0  0  0  # atno 10167 bound_to 10162
  157.0341  131.0268  151.2735 H   0  0  0  0  0  0  0  0  0  0  0  0  # atno 10718 bound_to 10713
  153.4118  135.7008  153.6354 H   0  0  0  0  0  0  0  0  0  0  0  0  # atno 10763 bound_to 10752
  153.4845  135.3686  155.2460 H   0  0  0  0  0  0  0  0  0  0  0  0  # atno 10764 bound_to 10752
  154.8717  135.4074  154.3471 H   0  0  0  0  0  0  0  0  0  0  0  0  # atno 10765 bound_to 10752
  140.0131  134.9430  157.0319 H   0  0  0  0  0  0  0  0  0  0  0  0  # atno 11005 bound_to 11000
  145.0070  140.8681  143.5247 LP  0  0  0  0  0  0  0  0  0  0  0  0  # atno 17320 bound_to 7965
  145.1662  139.2430  143.5366 LP  0  0  0  0  0  0  0  0  0  0  0  0  # atno 17321 bound_to 7965
  139.8013  143.8080  152.3163 LP  0  0  0  0  0  0  0  0  0  0  0  0  # atno 17342 bound_to 10162
  139.8097  144.7341  150.9713 LP  0  0  0  0  0  0  0  0  0  0  0  0  # atno 17343 bound_to 10162
  157.5155  130.7965  149.7752 LP  0  0  0  0  0  0  0  0  0  0  0  0  # atno 17370 bound_to 10713
  156.0060  130.3855  150.2431 LP  0  0  0  0  0  0  0  0  0  0  0  0  # atno 17371 bound_to 10713
  140.4519  134.1573  155.7182 LP  0  0  0  0  0  0  0  0  0  0  0  0  # atno 17394 bound_to 11000
  141.1724  133.8581  157.1528 LP  0  0  0  0  0  0  0  0  0  0  0  0  # atno 17395 bound_to 11000

$$$$
