AV-unprocessed.smi:1484|AV-procd|sdf|5997|dock6
  -GOLD-   22720 6 93D 1   1.00000     0.00000
 Structure written by MMmdl.
 38 39  0  0  0  0  0  0  0  0  1 V2000
  151.4424  145.4811  160.4162 C   0  0  0  0  0  0  0  0  0  0  0  0
  151.7551  143.9782  160.4203 C   0  0  2  0  0  0  0  0  0  0  0  0
  152.4027  143.5413  161.7481 C   0  0  0  0  0  0  0  0  0  0  0  0
  152.7206  142.0377  161.7544 C   0  0  0  0  0  0  0  0  0  0  0  0
  153.6101  141.6474  160.5611 C   0  0  0  0  0  0  0  0  0  0  0  0
  152.9999  142.0822  159.2148 C   0  0  1  0  0  0  0  0  0  0  0  0
  151.8278  141.2652  158.9044 N   0  0  0  0  0  0  0  0  0  0  0  0
  151.7200  140.4145  157.8727 C   0  0  0  0  0  0  0  0  0  0  0  0
  152.6204  140.2312  157.0522 O   0  0  0  0  0  0  0  0  0  0  0  0
  150.3763  139.6814  157.7490 C   0  0  0  0  0  0  0  0  0  0  0  0
  150.3496  138.6832  156.6704 N   0  0  0  0  0  0  0  0  0  0  0  0
  150.3566  139.2276  155.3951 N   0  0  0  0  0  0  0  0  0  0  0  0
  150.3497  138.4531  154.3634 C   0  0  0  0  0  0  0  0  0  0  0  0
  150.3604  139.0337  153.1189 O   0  0  0  0  0  0  0  0  0  0  0  0
  150.3299  137.0140  154.5080 C   0  0  0  0  0  0  0  0  0  0  0  0
  150.3185  136.4932  155.7544 C   0  0  0  0  0  0  0  0  0  0  0  0
  150.3272  137.3431  156.9466 C   0  0  0  0  0  0  0  0  0  0  0  0
  150.3173  136.8958  158.0931 O   0  0  0  0  0  0  0  0  0  0  0  0
  152.6534  143.5874  159.2281 C   0  0  0  0  0  0  0  0  0  0  0  0
  149.9017  138.4300  152.5554 H   0  0  0  0  0  0  0  0  0  0  0  0
  152.3506  146.0758  160.5199 H   0  0  0  0  0  0  0  0  0  0  0  0
  150.7750  145.7457  161.2370 H   0  0  0  0  0  0  0  0  0  0  0  0
  150.9544  145.7774  159.4872 H   0  0  0  0  0  0  0  0  0  0  0  0
  150.8059  143.4502  160.3182 H   0  0  0  0  0  0  0  0  0  0  0  0
  153.3210  144.1063  161.9144 H   0  0  0  0  0  0  0  0  0  0  0  0
  151.7407  143.7772  162.5820 H   0  0  0  0  0  0  0  0  0  0  0  0
  153.2158  141.7687  162.6878 H   0  0  0  0  0  0  0  0  0  0  0  0
  151.7912  141.4677  161.7255 H   0  0  0  0  0  0  0  0  0  0  0  0
  154.5867  142.1191  160.6784 H   0  0  0  0  0  0  0  0  0  0  0  0
  153.7917  140.5720  160.5644 H   0  0  0  0  0  0  0  0  0  0  0  0
  153.7475  141.9051  158.4395 H   0  0  0  0  0  0  0  0  0  0  0  0
  151.0361  141.3568  159.5243 H   0  0  0  0  0  0  0  0  0  0  0  0
  150.1327  139.2072  158.7016 H   0  0  0  0  0  0  0  0  0  0  0  0
  149.5977  140.4294  157.5883 H   0  0  0  0  0  0  0  0  0  0  0  0
  150.3243  136.3782  153.6349 H   0  0  0  0  0  0  0  0  0  0  0  0
  150.3037  135.4205  155.8776 H   0  0  0  0  0  0  0  0  0  0  0  0
  152.1760  143.8722  158.2896 H   0  0  0  0  0  0  0  0  0  0  0  0
  153.5805  144.1606  159.2763 H   0  0  0  0  0  0  0  0  0  0  0  0
  1  2  1  0  0  0  0
  1 21  1  0  0  0  0
  1 22  1  0  0  0  0
  1 23  1  0  0  0  0
  2 19  1  0  0  0  0
  2  3  1  0  0  0  0
  2 24  1  0  0  0  0
  3  4  1  0  0  0  0
  3 25  1  0  0  0  0
  3 26  1  0  0  0  0
  4  5  1  0  0  0  0
  4 27  1  0  0  0  0
  4 28  1  0  0  0  0
  5  6  1  0  0  0  0
  5 29  1  0  0  0  0
  5 30  1  0  0  0  0
  6  7  1  0  0  0  0
  6 19  1  0  0  0  0
  6 31  1  0  0  0  0
  7  8  1  0  0  0  0
  7 32  1  0  0  0  0
  8  9  2  0  0  0  0
  8 10  1  0  0  0  0
 10 33  1  0  0  0  0
 10 34  1  0  0  0  0
 10 11  1  0  0  0  0
 11 12  1  0  0  0  0
 11 17  1  0  0  0  0
 12 13  2  0  0  0  0
 13 14  1  0  0  0  0
 13 15  1  0  0  0  0
 14 20  1  0  0  0  0
 15 35  1  0  0  0  0
 15 16  2  0  0  0  0
 16 36  1  0  0  0  0
 16 17  1  0  0  0  0
 17 18  2  0  0  0  0
 19 37  1  0  0  0  0
 19 38  1  0  0  0  0
M  END
> <s_m_source_file>
AV-unprocessed.smi

> <i_m_source_file_index>
1484

> <i_lp_mmshare_version>
43012

> <i_f3d_flags>
0

> <s_epik_input>
W0NIM11bQ0BASF0xW0NIMl1bQ0gyXVtDSDJdW0NASF0oW0NIMl0xKVtOSF1DKD1PKVtDSDJdbjJbbkhdYyg9TylbY0hdW2NIXWMyPU8=

> <s_epik_cmdline>
J2VwaWtfcHl0aG9uJywgJy1waCcsICc3LjAnLCAnLXRuJywgJzgnLCAnLW1hJywgJzIwMCcsICctbWV0YWxfYmluZGluZycsICctaW1hZScsICc8aW5maWxlLm1hZT4nLCAnLW9tYWUnLCAnPG91dGZpbGUubWFlPic=

> <r_lp_tautomer_probability>
0.9996

> <r_epik_Ionization_Penalty>
2.10343

> <r_epik_Ionization_Penalty_Charging>
3.97871e-08

> <r_epik_Ionization_Penalty_Neutral>
2.10343

> <r_epik_State_Penalty>
1.67966

> <r_epik_Charging_Adjusted_Penalty>
1.67966

> <i_epik_Tot_Q>
0

> <i_epik_Tot_abs_Q>
0

> <r_epik_Metal_State_Penalty>
1.67966

> <b_epik_Metal_Only>
0

> <s_lp_Force_Field>
OPLS_2005

> <r_lp_Energy>
17.3635

> <b_lp_Chiralities_Consistent>
1

> <s_lp_Variant>
AV-unprocessed.smi:1484-5

> <Gold.Version>
5.8.1

> <Gold.Id.Protein>
6NUR|6NUR_protein|mol2

> <Gold.PLP.Fitness>
49.3108

> <Gold.PLP.PLP>
-40.5923

> <Gold.PLP.part.hbond>
-3.8908

> <Gold.PLP.part.metal>
0.0000

> <Gold.PLP.part.buried>
-6.0503

> <Gold.PLP.part.nonpolar>
-30.6531

> <Gold.PLP.part.repulsive>
0.1391

> <Gold.PLP.ligand.clash>
0.0000

> <Gold.PLP.ligand.torsion>
0.1445

> <Gold.PLP.Chemscore.Hbond>
3.0000

> <Gold.PLP.Chemscore.CHOScore>
0.0000

> <Gold.PLP.Chemscore.Metal>
0.0000

> <Gold.Chemscore.Hbonds>
donor molecule, donor type, donor heavy atom, donor atom, acceptor molecule, acceptor atom, score
      P1  H  7989  7998       L1    14  0.32
      P1  H  7997  8010       L1     9  1.00

> <Gold.PLP.Chemscore.Internal.Correction>
0.0075

> <Gold.Rescore>
     Score         DG    S(hbond)    S(metal)    S(lipo)     H(rot)  DE(clash)    DE(int)     intcor
     18.91     -20.10       2.87        0.00      91.99       2.24       0.10       1.09       ----

> <Gold.Chemscore.Fitness>
18.9114

> <Gold.Chemscore.DG>
-20.1017

> <Gold.Chemscore.ZeroCoef>
-5.4800

> <Gold.Chemscore.Hbond>
2.8740

> <Gold.Chemscore.Metal>
0.0000

> <Gold.Chemscore.Lipo>
91.9868

> <Gold.Chemscore.Internal_Hbond>
0.0000

> <Gold.Chemscore.DEClash>
0.1036

> <Gold.Chemscore.DEInternal>
1.0867

> <Gold.Chemscore.Rot>
2.2421

> <Gold.Chemscore.Internal.Correction>
   9.000000E+99

> <Gold.Chemscore.Hbonds>
donor molecule, donor type, donor heavy atom, donor atom, acceptor molecule, acceptor atom, score
      L1  H    14    20       P1  7948  0.02
      P1  H  7989  7998       L1    14  0.13
      P1  H  7997  8010       L1     9  0.95

> <Gold.Chemscore.Hbond.Weighted>
-9.5991

> <Gold.Chemscore.Metal.Weighted>
-0.0000

> <Gold.Chemscore.Lipo.Weighted>
-10.7625

> <Gold.Chemscore.Internal_Hbond.Weighted>
0.0000

> <Gold.Chemscore.DEClash.Weighted>
0.1036

> <Gold.Chemscore.DEInternal.Weighted>
1.0867

> <Gold.Chemscore.Rot.Weighted>
5.7398

> <Gold.Chemscore.Internal.Correction.Weighted>
   9.000000E+99

> <Gold.Protein.RotatedTorsions>
[ 6907 6896 6895 6894 ] final -165.86 input  -60.11 | X-H torsion
[ 7974 7965 7964 7962 ] final  107.96 input  175.53 | X-H torsion
[ 8008 7997 7996 7995 ] final   65.44 input   59.86 | X-H torsion
[ 10167 10162 10161 10158 ] final -102.39 input  -65.29 | X-H torsion
[ 10718 10713 10712 10709 ] final   16.53 input   66.30 | X-H torsion
[ 10763 10752 10751 10750 ] final  112.71 input  -60.55 | X-H torsion
[ 11005 11000 10999 10996 ] final  119.83 input  -57.11 | X-H torsion

> <Gold.Protein.ActiveResidues>
 VAL166  LYS551  ARG553  GLY616  TRP617  ASP618  TYR619  PRO620  LYS621  CYS622 
 ASP623  PHE694  ASN695  SER759  ASP760  ASP761  ALA762  ILE779  LEU786  VAL792 
 PHE793  MET794  SER795  GLU796  ALA797  LYS798  CYS799  TRP800  GLU811  SER814 

> <Gold.Protein.RotatedAtoms>
  151.4344  133.3661  159.2772 H   0  0  0  0  0  0  0  0  0  0  0  0  # atno 6907 bound_to 6896
  150.9202  134.8621  159.7494 H   0  0  0  0  0  0  0  0  0  0  0  0  # atno 6908 bound_to 6896
  152.4978  134.4281  159.9555 H   0  0  0  0  0  0  0  0  0  0  0  0  # atno 6909 bound_to 6896
  145.2869  139.2613  143.3885 H   0  0  0  0  0  0  0  0  0  0  0  0  # atno 7974 bound_to 7965
  155.6618  140.3497  155.4785 H   0  0  0  0  0  0  0  0  0  0  0  0  # atno 8008 bound_to 7997
  155.9762  140.1165  157.0791 H   0  0  0  0  0  0  0  0  0  0  0  0  # atno 8009 bound_to 7997
  154.4179  140.1147  156.5359 H   0  0  0  0  0  0  0  0  0  0  0  0  # atno 8010 bound_to 7997
  140.2312  143.3605  152.0885 H   0  0  0  0  0  0  0  0  0  0  0  0  # atno 10167 bound_to 10162
  157.0691  130.6341  149.5802 H   0  0  0  0  0  0  0  0  0  0  0  0  # atno 10718 bound_to 10713
  153.4818  135.3678  155.2446 H   0  0  0  0  0  0  0  0  0  0  0  0  # atno 10763 bound_to 10752
  154.8755  135.3956  154.3691 H   0  0  0  0  0  0  0  0  0  0  0  0  # atno 10764 bound_to 10752
  153.4296  135.7082  153.6305 H   0  0  0  0  0  0  0  0  0  0  0  0  # atno 10765 bound_to 10752
  139.9161  134.9631  156.7715 H   0  0  0  0  0  0  0  0  0  0  0  0  # atno 11005 bound_to 11000
  146.3198  140.3351  142.8643 LP  0  0  0  0  0  0  0  0  0  0  0  0  # atno 17320 bound_to 7965
  144.9205  140.7863  143.5751 LP  0  0  0  0  0  0  0  0  0  0  0  0  # atno 17321 bound_to 7965
  139.5109  144.6892  151.5805 LP  0  0  0  0  0  0  0  0  0  0  0  0  # atno 17342 bound_to 10162
  140.6184  143.9306  150.6506 LP  0  0  0  0  0  0  0  0  0  0  0  0  # atno 17343 bound_to 10162
  155.9955  130.5022  150.7463 LP  0  0  0  0  0  0  0  0  0  0  0  0  # atno 17370 bound_to 10713
  157.4892  131.0909  151.0446 LP  0  0  0  0  0  0  0  0  0  0  0  0  # atno 17371 bound_to 10713
  140.6617  133.9639  155.7808 LP  0  0  0  0  0  0  0  0  0  0  0  0  # atno 17394 bound_to 11000
  141.0639  134.0306  157.3621 LP  0  0  0  0  0  0  0  0  0  0  0  0  # atno 17395 bound_to 11000

$$$$
