AV-unprocessed.smi:264|AV-procd|sdf|2011|dock5
  -GOLD-   2262021213D 1   1.00000     0.00000
 Structure written by MMmdl.
 52 56  0  0  0  0  0  0  0  0  1 V2000
  142.9947  133.0766  151.3897 C   0  0  0  0  0  0  0  0  0  0  0  0
  144.0894  133.6308  150.4640 C   0  0  2  0  0  0  0  0  0  0  0  0
  145.0040  132.5727  150.1900 O   0  0  0  0  0  0  0  0  0  0  0  0
  146.2864  133.1282  149.9610 C   0  0  0  0  0  0  0  0  0  0  0  0
  146.3626  134.2170  151.0204 C   0  0  0  0  0  0  0  0  0  0  0  0
  144.9522  134.8013  151.0170 C   0  0  1  0  0  0  0  0  0  0  0  0
  144.9189  135.8472  150.0599 O   0  0  0  0  0  0  0  0  0  0  0  0
  144.5219  135.3910  152.3861 C   0  0  0  0  0  0  0  0  0  0  0  0
  145.4089  136.4388  152.8706 N   0  0  0  0  0  0  0  0  0  0  0  0
  145.2936  137.7890  152.6358 C   0  0  0  0  0  0  0  0  0  0  0  0
  146.2191  138.5276  153.1821 N   0  0  0  0  0  0  0  0  0  0  0  0
  147.0334  137.6245  153.8591 C   0  0  0  0  0  0  0  0  0  0  0  0
  148.2126  137.7347  154.6591 C   0  0  0  0  0  0  0  0  0  0  0  0
  148.8477  138.8922  154.9832 N   0  0  0  0  0  0  0  0  0  0  0  0
  148.2022  140.1341  154.5702 C   0  0  0  0  0  0  0  0  0  0  0  0
  149.2227  141.2807  154.5715 C   0  0  0  0  0  0  0  0  0  0  0  0
  149.8597  141.3732  155.8447 O   0  0  0  0  0  0  0  0  0  0  0  0
  150.5433  140.1829  156.2473 C   0  0  2  0  0  0  0  0  0  0  0  0
  151.1180  140.4237  157.6386 C   0  0  0  0  0  0  0  0  0  0  0  0
  152.4077  139.6180  157.6230 C   0  0  0  0  0  0  0  0  0  0  0  0
  152.9109  139.8738  156.3249 O   0  0  0  0  0  0  0  0  0  0  0  0
  151.8167  139.9053  155.4143 C   0  0  0  0  0  0  0  0  0  0  0  0
  149.5542  138.9939  156.2544 C   0  0  0  0  0  0  0  0  0  0  0  0
  148.7373  136.5813  155.1500 N   0  0  0  0  0  0  0  0  0  0  0  0
  148.1603  135.4052  154.8912 C   0  0  0  0  0  0  0  0  0  0  0  0
  147.0657  135.1548  154.1728 N   0  0  0  0  0  0  0  0  0  0  0  0
  146.5325  136.3033  153.6678 C   0  0  0  0  0  0  0  0  0  0  0  0
  142.2547  133.8392  151.6331 H   0  0  0  0  0  0  0  0  0  0  0  0
  143.4128  132.6942  152.3211 H   0  0  0  0  0  0  0  0  0  0  0  0
  142.4672  132.2529  150.9083 H   0  0  0  0  0  0  0  0  0  0  0  0
  143.6256  133.9150  149.5174 H   0  0  0  0  0  0  0  0  0  0  0  0
  147.0738  132.3815  150.0642 H   0  0  0  0  0  0  0  0  0  0  0  0
  146.3348  133.5500  148.9559 H   0  0  0  0  0  0  0  0  0  0  0  0
  146.5728  133.7489  151.9825 H   0  0  0  0  0  0  0  0  0  0  0  0
  147.1467  134.9511  150.8295 H   0  0  0  0  0  0  0  0  0  0  0  0
  145.4063  135.5721  149.2987 H   0  0  0  0  0  0  0  0  0  0  0  0
  143.5136  135.8025  152.3245 H   0  0  0  0  0  0  0  0  0  0  0  0
  144.4895  134.6092  153.1453 H   0  0  0  0  0  0  0  0  0  0  0  0
  144.4996  138.2116  152.0374 H   0  0  0  0  0  0  0  0  0  0  0  0
  147.7578  140.0531  153.5780 H   0  0  0  0  0  0  0  0  0  0  0  0
  147.3907  140.3553  155.2645 H   0  0  0  0  0  0  0  0  0  0  0  0
  149.9585  141.1377  153.7799 H   0  0  0  0  0  0  0  0  0  0  0  0
  148.7210  142.2255  154.3627 H   0  0  0  0  0  0  0  0  0  0  0  0
  151.3615  141.4792  157.7675 H   0  0  0  0  0  0  0  0  0  0  0  0
  150.4452  140.1387  158.4480 H   0  0  0  0  0  0  0  0  0  0  0  0
  153.1107  139.9286  158.3960 H   0  0  0  0  0  0  0  0  0  0  0  0
  152.2086  138.5517  157.7407 H   0  0  0  0  0  0  0  0  0  0  0  0
  151.7523  138.9526  154.8870 H   0  0  0  0  0  0  0  0  0  0  0  0
  152.0109  140.6800  154.6729 H   0  0  0  0  0  0  0  0  0  0  0  0
  148.8176  139.1283  157.0477 H   0  0  0  0  0  0  0  0  0  0  0  0
  150.0954  138.0706  156.4642 H   0  0  0  0  0  0  0  0  0  0  0  0
  148.6447  134.5418  155.3224 H   0  0  0  0  0  0  0  0  0  0  0  0
  1  2  1  0  0  0  0
  1 28  1  0  0  0  0
  1 29  1  0  0  0  0
  1 30  1  0  0  0  0
  2  6  1  0  0  0  0
  2  3  1  0  0  0  0
  2 31  1  0  0  0  0
  3  4  1  0  0  0  0
  4  5  1  0  0  0  0
  4 32  1  0  0  0  0
  4 33  1  0  0  0  0
  5  6  1  0  0  0  0
  5 34  1  0  0  0  0
  5 35  1  0  0  0  0
  6  7  1  0  0  0  0
  6  8  1  0  0  0  0
  7 36  1  0  0  0  0
  8  9  1  0  0  0  0
  8 37  1  0  0  0  0
  8 38  1  0  0  0  0
  9 27  1  0  0  0  0
  9 10  1  0  0  0  0
 10 11  2  0  0  0  0
 10 39  1  0  0  0  0
 11 12  1  0  0  0  0
 12 27  2  0  0  0  0
 12 13  1  0  0  0  0
 13 14  1  0  0  0  0
 13 24  2  0  0  0  0
 14 23  1  0  0  0  0
 14 15  1  0  0  0  0
 15 16  1  0  0  0  0
 15 40  1  0  0  0  0
 15 41  1  0  0  0  0
 16 17  1  0  0  0  0
 16 42  1  0  0  0  0
 16 43  1  0  0  0  0
 17 18  1  0  0  0  0
 18 22  1  0  0  0  0
 18 19  1  0  0  0  0
 18 23  1  0  0  0  0
 19 20  1  0  0  0  0
 19 44  1  0  0  0  0
 19 45  1  0  0  0  0
 20 21  1  0  0  0  0
 20 46  1  0  0  0  0
 20 47  1  0  0  0  0
 21 22  1  0  0  0  0
 22 48  1  0  0  0  0
 22 49  1  0  0  0  0
 23 50  1  0  0  0  0
 23 51  1  0  0  0  0
 24 25  1  0  0  0  0
 25 26  2  0  0  0  0
 25 52  1  0  0  0  0
 26 27  1  0  0  0  0
M  END
> <s_m_source_file>
AV-unprocessed.smi

> <i_m_source_file_index>
264

> <i_lp_mmshare_version>
43012

> <i_f3d_flags>
0

> <s_epik_input>
W0NIMl0xW0NIMl1PW0NAQEhdKFtDSDNdKVtDQEBdMShbT0hdKVtDSDJdbihbY0hdbjIpYyhjMjMpbltjSF1uYzNOKFtDSDJdNClbQ0gyXVtDSDJdT1tDQF00NVtDSDJdW0NIMl1PW0NIMl01

> <s_epik_cmdline>
J2VwaWtfcHl0aG9uJywgJy1waCcsICc3LjAnLCAnLXRuJywgJzgnLCAnLW1hJywgJzIwMCcsICctbWV0YWxfYmluZGluZycsICctaW1hZScsICc8aW5maWxlLm1hZT4nLCAnLW9tYWUnLCAnPG91dGZpbGUubWFlPic=

> <r_lp_tautomer_probability>
1

> <r_epik_Ionization_Penalty>
0.00539389

> <r_epik_Ionization_Penalty_Charging>
0

> <r_epik_Ionization_Penalty_Neutral>
0.00539389

> <r_epik_State_Penalty>
0.00375441

> <r_epik_Charging_Adjusted_Penalty>
0.00375441

> <i_epik_Tot_Q>
0

> <i_epik_Tot_abs_Q>
0

> <r_epik_Metal_State_Penalty>
-0

> <b_epik_Metal_Only>
0

> <s_lp_Force_Field>
OPLS_2005

> <r_lp_Energy>
55.2391

> <b_lp_Chiralities_Consistent>
1

> <s_lp_Variant>
AV-unprocessed.smi:264-5

> <Gold.Version>
5.8.1

> <Gold.Id.Protein>
6NUR|6NUR_protein|mol2

> <Gold.PLP.Fitness>
42.0861

> <Gold.PLP.PLP>
-31.7182

> <Gold.PLP.part.hbond>
-2.6285

> <Gold.PLP.part.metal>
0.0000

> <Gold.PLP.part.buried>
0.3899

> <Gold.PLP.part.nonpolar>
-28.2774

> <Gold.PLP.part.repulsive>
0.6451

> <Gold.PLP.ligand.clash>
0.0000

> <Gold.PLP.ligand.torsion>
0.5823

> <Gold.PLP.Chemscore.Hbond>
2.0000

> <Gold.PLP.Chemscore.CHOScore>
1.7444

> <Gold.PLP.Chemscore.Metal>
0.0000

> <Gold.Chemscore.Hbonds>
donor molecule, donor type, donor heavy atom, donor atom, acceptor molecule, acceptor atom, score
      L1  H     7    36       P1  7921  1.00
      P1  H  7997  8008       L1    21  0.83
      L1  C    10    39       P1 10171  1.00
      L1  C    10    39       P1 10175  0.84

> <Gold.PLP.Chemscore.Internal.Correction>
0.2994

> <Gold.Rescore>
     Score         DG    S(hbond)    S(metal)    S(lipo)     H(rot)  DE(clash)    DE(int)     intcor
     14.75     -16.48       1.95        0.00      77.53       1.79       0.01       1.72       ----

> <Gold.Chemscore.Fitness>
14.7476

> <Gold.Chemscore.DG>
-16.4782

> <Gold.Chemscore.ZeroCoef>
-5.4800

> <Gold.Chemscore.Hbond>
1.9518

> <Gold.Chemscore.Metal>
0.0000

> <Gold.Chemscore.Lipo>
77.5259

> <Gold.Chemscore.Internal_Hbond>
0.0000

> <Gold.Chemscore.DEClash>
0.0124

> <Gold.Chemscore.DEInternal>
1.7183

> <Gold.Chemscore.Rot>
1.7935

> <Gold.Chemscore.Internal.Correction>
   9.000000E+99

> <Gold.Chemscore.Hbonds>
donor molecule, donor type, donor heavy atom, donor atom, acceptor molecule, acceptor atom, score
      L1  H     7    36       P1  7921  0.99
      P1  H  7997  8008       L1    21  0.74

> <Gold.Chemscore.Hbond.Weighted>
-6.5190

> <Gold.Chemscore.Metal.Weighted>
-0.0000

> <Gold.Chemscore.Lipo.Weighted>
-9.0705

> <Gold.Chemscore.Internal_Hbond.Weighted>
0.0000

> <Gold.Chemscore.DEClash.Weighted>
0.0124

> <Gold.Chemscore.DEInternal.Weighted>
1.7183

> <Gold.Chemscore.Rot.Weighted>
4.5913

> <Gold.Chemscore.Internal.Correction.Weighted>
   9.000000E+99

> <Gold.Protein.RotatedTorsions>
[ 6907 6896 6895 6894 ] final -120.55 input  -60.11 | X-H torsion
[ 7974 7965 7964 7962 ] final  167.28 input  175.53 | X-H torsion
[ 8008 7997 7996 7995 ] final  -35.38 input   59.86 | X-H torsion
[ 10167 10162 10161 10158 ] final  159.68 input  -65.29 | X-H torsion
[ 10718 10713 10712 10709 ] final   86.59 input   66.30 | X-H torsion
[ 10763 10752 10751 10750 ] final -156.38 input  -60.55 | X-H torsion
[ 11005 11000 10999 10996 ] final  -10.10 input  -57.11 | X-H torsion

> <Gold.Protein.ActiveResidues>
 VAL166  LYS551  ARG553  GLY616  TRP617  ASP618  TYR619  PRO620  LYS621  CYS622 
 ASP623  PHE694  ASN695  SER759  ASP760  ASP761  ALA762  ILE779  LEU786  VAL792 
 PHE793  MET794  SER795  GLU796  ALA797  LYS798  CYS799  TRP800  GLU811  SER814 

> <Gold.Protein.RotatedAtoms>
  150.8403  133.7946  159.3063 H   0  0  0  0  0  0  0  0  0  0  0  0  # atno 6907 bound_to 6896
  151.5649  135.1063  159.9991 H   0  0  0  0  0  0  0  0  0  0  0  0  # atno 6908 bound_to 6896
  152.4468  133.7510  159.6750 H   0  0  0  0  0  0  0  0  0  0  0  0  # atno 6909 bound_to 6896
  144.7430  139.8738  143.6391 H   0  0  0  0  0  0  0  0  0  0  0  0  # atno 7974 bound_to 7965
  154.4097  140.1659  156.2202 H   0  0  0  0  0  0  0  0  0  0  0  0  # atno 8008 bound_to 7997
  155.9370  140.3411  155.6272 H   0  0  0  0  0  0  0  0  0  0  0  0  # atno 8009 bound_to 7997
  155.7036  140.0748  157.2390 H   0  0  0  0  0  0  0  0  0  0  0  0  # atno 8010 bound_to 7997
  139.4834  144.4707  151.8580 H   0  0  0  0  0  0  0  0  0  0  0  0  # atno 10167 bound_to 10162
  157.6930  131.0222  150.2996 H   0  0  0  0  0  0  0  0  0  0  0  0  # atno 10718 bound_to 10713
  154.7717  135.3147  154.8175 H   0  0  0  0  0  0  0  0  0  0  0  0  # atno 10763 bound_to 10752
  153.8909  135.6825  153.4765 H   0  0  0  0  0  0  0  0  0  0  0  0  # atno 10764 bound_to 10752
  153.1332  135.4771  154.9317 H   0  0  0  0  0  0  0  0  0  0  0  0  # atno 10765 bound_to 10752
  140.7411  133.8669  155.8969 H   0  0  0  0  0  0  0  0  0  0  0  0  # atno 11005 bound_to 11000
  146.1261  139.4287  143.0198 LP  0  0  0  0  0  0  0  0  0  0  0  0  # atno 17320 bound_to 7965
  145.7233  141.0067  143.1391 LP  0  0  0  0  0  0  0  0  0  0  0  0  # atno 17321 bound_to 7965
  140.4175  144.2287  150.5887 LP  0  0  0  0  0  0  0  0  0  0  0  0  # atno 17342 bound_to 10162
  140.4906  143.2348  151.8824 LP  0  0  0  0  0  0  0  0  0  0  0  0  # atno 17343 bound_to 10162
  156.3514  130.3831  149.7326 LP  0  0  0  0  0  0  0  0  0  0  0  0  # atno 17370 bound_to 10713
  156.4802  130.8037  151.3052 LP  0  0  0  0  0  0  0  0  0  0  0  0  # atno 17371 bound_to 10713
  140.9836  134.1373  157.4473 LP  0  0  0  0  0  0  0  0  0  0  0  0  # atno 17394 bound_to 11000
  139.8806  135.0018  156.6090 LP  0  0  0  0  0  0  0  0  0  0  0  0  # atno 17395 bound_to 11000

$$$$
