AV-unprocessed.smi:1697|AV-procd|sdf|6810|dock8
  -GOLD-   22720 7583D 1   1.00000     0.00000
 Structure written by MMmdl.
 55 57  0  0  0  0  0  0  0  0  3 V2000
  145.2066  134.5892  154.2666 C   0  0  0  0  0  0  0  0  0  0  0  0
  146.1318  135.6423  154.8797 C   0  0  0  0  0  0  0  0  0  0  0  0
  146.6039  136.4931  153.8453 O   0  0  0  0  0  0  0  0  0  0  0  0
  145.5874  137.2292  153.1740 C   0  0  2  0  0  0  0  0  0  0  0  0
  146.1736  138.0910  152.0403 C   0  0  0  0  0  0  0  0  0  0  0  0
  147.1048  139.1846  152.5899 C   0  0  0  0  0  0  0  0  0  0  0  0
  146.3972  140.0475  153.5736 N   0  3  2  0  0  0  0  0  0  0  0  0
  147.2119  141.1979  154.0450 C   0  0  0  0  0  0  0  0  0  0  0  0
  148.6468  140.7963  154.4431 C   0  0  1  0  0  0  0  0  0  0  0  0
  149.5139  141.0480  153.3546 O   0  0  0  0  0  0  0  0  0  0  0  0
  149.1405  141.5855  155.6715 C   0  0  0  0  0  0  0  0  0  0  0  0
  150.2325  140.9083  156.3839 N   0  0  0  0  0  0  0  0  0  0  0  0
  150.8276  139.7082  156.1422 C   0  0  0  0  0  0  0  0  0  0  0  0
  151.7922  139.5314  157.0877 N   0  3  0  0  0  0  0  0  0  0  0  0
  151.8175  140.6369  157.9411 C   0  0  0  0  0  0  0  0  0  0  0  0
  152.6158  140.9210  159.0430 C   0  0  0  0  0  0  0  0  0  0  0  0
  152.3885  142.1489  159.7052 C   0  0  0  0  0  0  0  0  0  0  0  0
  153.2432  142.4899  160.9139 C   0  0  0  0  0  0  0  0  0  0  0  0
  151.3857  143.0467  159.2553 C   0  0  0  0  0  0  0  0  0  0  0  0
  151.1498  144.3639  159.9748 C   0  0  0  0  0  0  0  0  0  0  0  0
  150.5849  142.7400  158.1320 C   0  0  0  0  0  0  0  0  0  0  0  0
  150.8210  141.5253  157.4929 C   0  0  0  0  0  0  0  0  0  0  0  0
  145.8510  139.2494  154.7018 C   0  0  0  0  0  0  0  0  0  0  0  0
  144.9041  138.1430  154.2026 C   0  0  0  0  0  0  0  0  0  0  0  0
  144.8239  133.9140  155.0323 H   0  0  0  0  0  0  0  0  0  0  0  0
  145.7335  133.9888  153.5248 H   0  0  0  0  0  0  0  0  0  0  0  0
  144.3531  135.0571  153.7757 H   0  0  0  0  0  0  0  0  0  0  0  0
  145.5872  136.2093  155.6342 H   0  0  0  0  0  0  0  0  0  0  0  0
  146.9706  135.1525  155.3762 H   0  0  0  0  0  0  0  0  0  0  0  0
  144.8408  136.5414  152.7735 H   0  0  0  0  0  0  0  0  0  0  0  0
  146.7063  137.4764  151.3156 H   0  0  0  0  0  0  0  0  0  0  0  0
  145.3581  138.5606  151.4886 H   0  0  0  0  0  0  0  0  0  0  0  0
  147.9783  138.7316  153.0618 H   0  0  0  0  0  0  0  0  0  0  0  0
  147.4729  139.7769  151.7537 H   0  0  0  0  0  0  0  0  0  0  0  0
  147.2728  141.9521  153.2586 H   0  0  0  0  0  0  0  0  0  0  0  0
  146.7023  141.6755  154.8834 H   0  0  0  0  0  0  0  0  0  0  0  0
  148.6943  139.7328  154.6721 H   0  0  0  0  0  0  0  0  0  0  0  0
  149.3547  140.3976  152.6869 H   0  0  0  0  0  0  0  0  0  0  0  0
  149.5032  142.5703  155.3727 H   0  0  0  0  0  0  0  0  0  0  0  0
  148.3275  141.7573  156.3783 H   0  0  0  0  0  0  0  0  0  0  0  0
  150.5783  139.0194  155.3475 H   0  0  0  0  0  0  0  0  0  0  0  0
  153.3780  140.2332  159.3795 H   0  0  0  0  0  0  0  0  0  0  0  0
  152.6235  142.5813  161.8065 H   0  0  0  0  0  0  0  0  0  0  0  0
  153.7699  143.4317  160.7591 H   0  0  0  0  0  0  0  0  0  0  0  0
  153.9910  141.7193  161.1042 H   0  0  0  0  0  0  0  0  0  0  0  0
  150.3340  144.9267  159.5201 H   0  0  0  0  0  0  0  0  0  0  0  0
  152.0444  144.9862  159.9375 H   0  0  0  0  0  0  0  0  0  0  0  0
  150.8920  144.1896  161.0196 H   0  0  0  0  0  0  0  0  0  0  0  0
  149.8228  143.4236  157.7887 H   0  0  0  0  0  0  0  0  0  0  0  0
  146.6734  138.8145  155.2721 H   0  0  0  0  0  0  0  0  0  0  0  0
  145.3042  139.9017  155.3837 H   0  0  0  0  0  0  0  0  0  0  0  0
  144.0223  138.6000  153.7514 H   0  0  0  0  0  0  0  0  0  0  0  0
  144.5440  137.5520  155.0454 H   0  0  0  0  0  0  0  0  0  0  0  0
  145.5988  140.4456  153.0993 H   0  0  0  0  0  0  0  0  0  0  0  0
  152.3900  138.7164  157.1421 H   0  0  0  0  0  0  0  0  0  0  0  0
  1  2  1  0  0  0  0
  1 25  1  0  0  0  0
  1 26  1  0  0  0  0
  1 27  1  0  0  0  0
  2  3  1  0  0  0  0
  2 28  1  0  0  0  0
  2 29  1  0  0  0  0
  3  4  1  0  0  0  0
  4 24  1  0  0  0  0
  4  5  1  0  0  0  0
  4 30  1  0  0  0  0
  5  6  1  0  0  0  0
  5 31  1  0  0  0  0
  5 32  1  0  0  0  0
  6  7  1  0  0  0  0
  6 33  1  0  0  0  0
  6 34  1  0  0  0  0
  7  8  1  0  0  0  0
  7 23  1  0  0  0  0
  7 54  1  0  0  0  0
  8  9  1  0  0  0  0
  8 35  1  0  0  0  0
  8 36  1  0  0  0  0
  9 10  1  0  0  0  0
  9 11  1  0  0  0  0
  9 37  1  0  0  0  0
 10 38  1  0  0  0  0
 11 12  1  0  0  0  0
 11 39  1  0  0  0  0
 11 40  1  0  0  0  0
 12 22  1  0  0  0  0
 12 13  1  0  0  0  0
 13 14  2  0  0  0  0
 13 41  1  0  0  0  0
 14 15  1  0  0  0  0
 14 55  1  0  0  0  0
 15 22  2  0  0  0  0
 15 16  1  0  0  0  0
 16 17  2  0  0  0  0
 16 42  1  0  0  0  0
 17 18  1  0  0  0  0
 17 19  1  0  0  0  0
 18 43  1  0  0  0  0
 18 44  1  0  0  0  0
 18 45  1  0  0  0  0
 19 20  1  0  0  0  0
 19 21  2  0  0  0  0
 20 46  1  0  0  0  0
 20 47  1  0  0  0  0
 20 48  1  0  0  0  0
 21 22  1  0  0  0  0
 21 49  1  0  0  0  0
 23 24  1  0  0  0  0
 23 50  1  0  0  0  0
 23 51  1  0  0  0  0
 24 52  1  0  0  0  0
 24 53  1  0  0  0  0
M  CHG  1   7   1
M  CHG  1  14   1
M  END
> <s_m_source_file>
AV-unprocessed.smi

> <i_m_source_file_index>
1697

> <i_lp_mmshare_version>
43012

> <i_f3d_flags>
0

> <s_epik_input>
W0NIM11bQ0gyXU9bQ0hdMVtDSDJdW0NIMl1OKFtDSDJdW0NIMl0xKVtDSDJdW0NASF0oW09IXSlbQ0gyXW4oW2NIXW4yKWMoYzIzKVtjSF1jKFtDSDNdKWMoW2NIXTMpW0NIM10=

> <s_epik_cmdline>
J2VwaWtfcHl0aG9uJywgJy1waCcsICc3LjAnLCAnLXRuJywgJzgnLCAnLW1hJywgJzIwMCcsICctbWV0YWxfYmluZGluZycsICctaW1hZScsICc8aW5maWxlLm1hZT4nLCAnLW9tYWUnLCAnPG91dGZpbGUubWFlPic=

> <r_epik_Ionization_Penalty>
1.20016

> <r_epik_Ionization_Penalty_Charging>
1.20016

> <r_epik_Ionization_Penalty_Neutral>
1.70998e-06

> <r_epik_State_Penalty>
1.27959

> <r_epik_Charging_Adjusted_Penalty>
2.47975

> <i_epik_Tot_Q>
2

> <i_epik_Tot_abs_Q>
2

> <r_epik_Metal_State_Penalty>
5.29682

> <b_epik_Metal_Only>
0

> <s_lp_Force_Field>
OPLS_2005

> <r_lp_Energy>
32.2175

> <b_lp_Chiralities_Consistent>
1

> <s_lp_Variant>
AV-unprocessed.smi:1697-8

> <Gold.Version>
5.8.1

> <Gold.Id.Protein>
6NUR|6NUR_protein|mol2

> <Gold.PLP.Fitness>
51.8619

> <Gold.PLP.PLP>
-41.5883

> <Gold.PLP.part.hbond>
-3.5073

> <Gold.PLP.part.metal>
0.0000

> <Gold.PLP.part.buried>
-3.1663

> <Gold.PLP.part.nonpolar>
-36.2298

> <Gold.PLP.part.repulsive>
0.5520

> <Gold.PLP.ligand.clash>
0.0000

> <Gold.PLP.ligand.torsion>
0.8807

> <Gold.PLP.Chemscore.Hbond>
3.9939

> <Gold.PLP.Chemscore.CHOScore>
0.0000

> <Gold.PLP.Chemscore.Metal>
0.0000

> <Gold.Chemscore.Hbonds>
donor molecule, donor type, donor heavy atom, donor atom, acceptor molecule, acceptor atom, score
      L1  H     7    54       P1 10175  2.00
      L1  H    10    38       P1  7957  0.86
      P1  H  7989  7998       L1    10  0.16
      P1  H  8011  8017       L1    10  0.95

> <Gold.PLP.Chemscore.Internal.Correction>
0.0534

> <Gold.Rescore>
     Score         DG    S(hbond)    S(metal)    S(lipo)     H(rot)  DE(clash)    DE(int)     intcor
     20.20     -21.18       2.32        0.00     119.26       2.35       0.16       0.83       ----

> <Gold.Chemscore.Fitness>
20.1952

> <Gold.Chemscore.DG>
-21.1774

> <Gold.Chemscore.ZeroCoef>
-5.4800

> <Gold.Chemscore.Hbond>
2.3208

> <Gold.Chemscore.Metal>
0.0000

> <Gold.Chemscore.Lipo>
119.2606

> <Gold.Chemscore.Internal_Hbond>
0.0000

> <Gold.Chemscore.DEClash>
0.1571

> <Gold.Chemscore.DEInternal>
0.8251

> <Gold.Chemscore.Rot>
2.3468

> <Gold.Chemscore.Internal.Correction>
   9.000000E+99

> <Gold.Chemscore.Hbonds>
donor molecule, donor type, donor heavy atom, donor atom, acceptor molecule, acceptor atom, score
      L1  H     7    54       P1 10175  0.87
      L1  H    10    38       P1  7957  0.83
      P1  H  7989  7998       L1    10  0.04
      P1  H  8011  8017       L1    10  0.21

> <Gold.Chemscore.Hbond.Weighted>
-7.7516

> <Gold.Chemscore.Metal.Weighted>
-0.0000

> <Gold.Chemscore.Lipo.Weighted>
-13.9535

> <Gold.Chemscore.Internal_Hbond.Weighted>
0.0000

> <Gold.Chemscore.DEClash.Weighted>
0.1571

> <Gold.Chemscore.DEInternal.Weighted>
0.8251

> <Gold.Chemscore.Rot.Weighted>
6.0077

> <Gold.Chemscore.Internal.Correction.Weighted>
   9.000000E+99

> <Gold.Protein.RotatedTorsions>
[ 6907 6896 6895 6894 ] final -141.37 input  -60.11 | X-H torsion
[ 7974 7965 7964 7962 ] final  -31.50 input  175.53 | X-H torsion
[ 8008 7997 7996 7995 ] final  -83.94 input   59.86 | X-H torsion
[ 10167 10162 10161 10158 ] final  -83.18 input  -65.29 | X-H torsion
[ 10718 10713 10712 10709 ] final -150.42 input   66.30 | X-H torsion
[ 10763 10752 10751 10750 ] final  151.36 input  -60.55 | X-H torsion
[ 11005 11000 10999 10996 ] final  -83.73 input  -57.11 | X-H torsion

> <Gold.Protein.ActiveResidues>
 VAL166  LYS551  ARG553  GLY616  TRP617  ASP618  TYR619  PRO620  LYS621  CYS622 
 ASP623  PHE694  ASN695  SER759  ASP760  ASP761  ALA762  ILE779  LEU786  VAL792 
 PHE793  MET794  SER795  GLU796  ALA797  LYS798  CYS799  TRP800  GLU811  SER814 

> <Gold.Protein.RotatedAtoms>
  151.0728  133.5452  159.2625 H   0  0  0  0  0  0  0  0  0  0  0  0  # atno 6907 bound_to 6896
  151.2385  135.0579  159.9025 H   0  0  0  0  0  0  0  0  0  0  0  0  # atno 6908 bound_to 6896
  152.5414  134.0507  159.8162 H   0  0  0  0  0  0  0  0  0  0  0  0  # atno 6909 bound_to 6896
  146.1062  140.5675  142.8798 H   0  0  0  0  0  0  0  0  0  0  0  0  # atno 7974 bound_to 7965
  154.6244  140.0612  156.9655 H   0  0  0  0  0  0  0  0  0  0  0  0  # atno 8008 bound_to 7997
  155.1765  140.3295  155.4364 H   0  0  0  0  0  0  0  0  0  0  0  0  # atno 8009 bound_to 7997
  156.2449  140.1905  156.6864 H   0  0  0  0  0  0  0  0  0  0  0  0  # atno 8010 bound_to 7997
  140.4251  143.2570  151.8837 H   0  0  0  0  0  0  0  0  0  0  0  0  # atno 10167 bound_to 10162
  156.4459  130.8144  151.2375 H   0  0  0  0  0  0  0  0  0  0  0  0  # atno 10718 bound_to 10713
  154.1025  135.2844  155.3248 H   0  0  0  0  0  0  0  0  0  0  0  0  # atno 10763 bound_to 10752
  154.6546  135.5357  153.7946 H   0  0  0  0  0  0  0  0  0  0  0  0  # atno 10764 bound_to 10752
  153.0374  135.6518  154.1188 H   0  0  0  0  0  0  0  0  0  0  0  0  # atno 10765 bound_to 10752
  141.1656  133.7309  156.8763 H   0  0  0  0  0  0  0  0  0  0  0  0  # atno 11005 bound_to 11000
  144.7473  140.5101  143.6826 LP  0  0  0  0  0  0  0  0  0  0  0  0  # atno 17320 bound_to 7965
  145.5755  139.1486  143.3264 LP  0  0  0  0  0  0  0  0  0  0  0  0  # atno 17321 bound_to 7965
  139.4783  144.5396  151.8548 LP  0  0  0  0  0  0  0  0  0  0  0  0  # atno 17342 bound_to 10162
  140.4490  144.1881  150.5896 LP  0  0  0  0  0  0  0  0  0  0  0  0  # atno 17343 bound_to 10162
  157.7505  131.0153  150.3500 LP  0  0  0  0  0  0  0  0  0  0  0  0  # atno 17370 bound_to 10713
  156.3868  130.3890  149.7060 LP  0  0  0  0  0  0  0  0  0  0  0  0  # atno 17371 bound_to 10713
  140.1746  134.9076  157.2875 LP  0  0  0  0  0  0  0  0  0  0  0  0  # atno 17394 bound_to 11000
  140.2463  134.3736  155.7460 LP  0  0  0  0  0  0  0  0  0  0  0  0  # atno 17395 bound_to 11000

$$$$
