AV-unprocessed.smi:534|AV-procd|sdf|2857|dock7
  -GOLD-   2262023353D 1   1.00000     0.00000
 Structure written by MMmdl.
 39 40  0  0  0  0  0  0  0  0  2 V2000
  145.5869  132.0285  149.2357 C   0  0  0  0  0  0  0  0  0  0  0  0
  144.9338  132.6515  150.3272 O   0  0  0  0  0  0  0  0  0  0  0  0
  145.4002  132.1796  151.5809 C   0  0  0  0  0  0  0  0  0  0  0  0
  146.8908  132.5127  151.7168 C   0  0  0  0  0  0  0  0  0  0  0  0
  147.4595  131.9163  152.9100 N   0  0  0  0  0  0  0  0  0  0  0  0
  148.3742  132.3946  153.8400 C   0  0  0  0  0  0  0  0  0  0  0  0
  148.9613  133.5907  153.7766 N   0  0  0  0  0  0  0  0  0  0  0  0
  149.7933  133.5785  154.8880 C   0  0  0  0  0  0  0  0  0  0  0  0
  149.6915  132.4044  155.5682 C   0  0  0  0  0  0  0  0  0  0  0  0
  150.4742  132.0818  156.7803 C   0  0  0  0  0  0  0  0  0  0  0  0
  150.3529  130.9951  157.3429 O   0  0  0  0  0  0  0  0  0  0  0  0
  151.3033  133.1098  157.1475 N   0  5  0  0  0  0  0  0  0  0  0  0
  151.4367  134.3161  156.4931 C   0  0  0  0  0  0  0  0  0  0  0  0
  152.2123  135.1876  156.8886 O   0  0  0  0  0  0  0  0  0  0  0  0
  150.6939  134.5678  155.3690 N   0  0  0  0  0  0  0  0  0  0  0  0
  150.8177  135.8396  154.6508 C   0  0  0  0  0  0  0  0  0  0  0  0
  148.7520  131.6245  154.8898 N   0  0  0  0  0  0  0  0  0  0  0  0
  148.2951  130.2754  155.2110 C   0  0  0  0  0  0  0  0  0  0  0  0
  148.6211  129.2791  154.0889 C   0  0  0  0  0  0  0  0  0  0  0  0
  147.5487  129.2398  153.1604 O   0  0  0  0  0  0  0  0  0  0  0  0
  147.6055  128.1109  152.3079 C   0  0  0  0  0  0  0  0  0  0  0  0
  145.2075  132.4387  148.3001 H   0  0  0  0  0  0  0  0  0  0  0  0
  145.4030  130.9534  149.2302 H   0  0  0  0  0  0  0  0  0  0  0  0
  146.6634  132.2004  149.2681 H   0  0  0  0  0  0  0  0  0  0  0  0
  144.8322  132.6220  152.4014 H   0  0  0  0  0  0  0  0  0  0  0  0
  145.2600  131.0990  151.6334 H   0  0  0  0  0  0  0  0  0  0  0  0
  147.4353  132.1338  150.8515 H   0  0  0  0  0  0  0  0  0  0  0  0
  147.0424  133.5918  151.7423 H   0  0  0  0  0  0  0  0  0  0  0  0
  147.2453  130.9344  153.0081 H   0  0  0  0  0  0  0  0  0  0  0  0
  150.6229  136.6794  155.3190 H   0  0  0  0  0  0  0  0  0  0  0  0
  150.1187  135.9217  153.8188 H   0  0  0  0  0  0  0  0  0  0  0  0
  151.8244  135.9508  154.2463 H   0  0  0  0  0  0  0  0  0  0  0  0
  148.7443  129.9575  156.1509 H   0  0  0  0  0  0  0  0  0  0  0  0
  147.2208  130.2911  155.3955 H   0  0  0  0  0  0  0  0  0  0  0  0
  149.5425  129.5740  153.5844 H   0  0  0  0  0  0  0  0  0  0  0  0
  148.7836  128.2864  154.5106 H   0  0  0  0  0  0  0  0  0  0  0  0
  146.7585  128.1277  151.6223 H   0  0  0  0  0  0  0  0  0  0  0  0
  147.5597  127.1826  152.8786 H   0  0  0  0  0  0  0  0  0  0  0  0
  148.5197  128.1127  151.7128 H   0  0  0  0  0  0  0  0  0  0  0  0
  1  2  1  0  0  0  0
  1 22  1  0  0  0  0
  1 23  1  0  0  0  0
  1 24  1  0  0  0  0
  2  3  1  0  0  0  0
  3  4  1  0  0  0  0
  3 25  1  0  0  0  0
  3 26  1  0  0  0  0
  4  5  1  0  0  0  0
  4 27  1  0  0  0  0
  4 28  1  0  0  0  0
  5  6  1  0  0  0  0
  5 29  1  0  0  0  0
  6 17  1  0  0  0  0
  6  7  2  0  0  0  0
  7  8  1  0  0  0  0
  8 15  1  0  0  0  0
  8  9  2  0  0  0  0
  9 10  1  0  0  0  0
  9 17  1  0  0  0  0
 10 11  2  0  0  0  0
 10 12  1  0  0  0  0
 12 13  1  0  0  0  0
 13 14  2  0  0  0  0
 13 15  1  0  0  0  0
 15 16  1  0  0  0  0
 16 30  1  0  0  0  0
 16 31  1  0  0  0  0
 16 32  1  0  0  0  0
 17 18  1  0  0  0  0
 18 19  1  0  0  0  0
 18 33  1  0  0  0  0
 18 34  1  0  0  0  0
 19 20  1  0  0  0  0
 19 35  1  0  0  0  0
 19 36  1  0  0  0  0
 20 21  1  0  0  0  0
 21 37  1  0  0  0  0
 21 38  1  0  0  0  0
 21 39  1  0  0  0  0
M  CHG  1  12  -1
M  END
> <s_m_source_file>
AV-unprocessed.smi

> <i_m_source_file_index>
534

> <i_lp_mmshare_version>
43012

> <i_f3d_flags>
0

> <s_epik_input>
W0NIM11PW0NIMl1bQ0gyXVtOSF1jKG4xKW4oW0NIMl1bQ0gyXU9bQ0gzXSljKGMxMiljKD1PKVtuSF1jKD1PKW4yW0NIM10=

> <s_epik_cmdline>
J2VwaWtfcHl0aG9uJywgJy1waCcsICc3LjAnLCAnLXRuJywgJzgnLCAnLW1hJywgJzIwMCcsICctbWV0YWxfYmluZGluZycsICctaW1hZScsICc8aW5maWxlLm1hZT4nLCAnLW9tYWUnLCAnPG91dGZpbGUubWFlPic=

> <r_lp_tautomer_probability>
1

> <r_epik_Ionization_Penalty>
5.88862

> <r_epik_Ionization_Penalty_Charging>
1.42184e-08

> <r_epik_Ionization_Penalty_Neutral>
5.88862

> <r_epik_State_Penalty>
5.88846

> <r_epik_Charging_Adjusted_Penalty>
5.88846

> <i_epik_Tot_Q>
-1

> <i_epik_Tot_abs_Q>
1

> <r_epik_Metal_State_Penalty>
1.85033

> <b_epik_Metal_Only>
1

> <s_lp_Force_Field>
OPLS_2005

> <r_lp_Energy>
24.5539

> <b_lp_Chiralities_Consistent>
1

> <s_lp_Variant>
AV-unprocessed.smi:534-2

> <Gold.Version>
5.8.1

> <Gold.Id.Protein>
6NUR|6NUR_protein|mol2

> <Gold.PLP.Fitness>
36.9116

> <Gold.PLP.PLP>
-32.3556

> <Gold.PLP.part.hbond>
-3.0830

> <Gold.PLP.part.metal>
0.0000

> <Gold.PLP.part.buried>
-2.3510

> <Gold.PLP.part.nonpolar>
-27.0476

> <Gold.PLP.part.repulsive>
0.4269

> <Gold.PLP.ligand.clash>
0.0000

> <Gold.PLP.ligand.torsion>
0.3974

> <Gold.PLP.Chemscore.Hbond>
1.7778

> <Gold.PLP.Chemscore.CHOScore>
0.0000

> <Gold.PLP.Chemscore.Metal>
0.0000

> <Gold.Chemscore.Hbonds>
donor molecule, donor type, donor heavy atom, donor atom, acceptor molecule, acceptor atom, score
      P1  H  6896  6908       L1    12  1.46
      P1  H 10752 10764       L1    14  0.95

> <Gold.PLP.Chemscore.Internal.Correction>
0.0176

> <Gold.Rescore>
     Score         DG    S(hbond)    S(metal)    S(lipo)     H(rot)  DE(clash)    DE(int)     intcor
      5.31      -7.23       0.62        0.00      49.73       2.40       0.01       1.91       ----

> <Gold.Chemscore.Fitness>
5.3068

> <Gold.Chemscore.DG>
-7.2310

> <Gold.Chemscore.ZeroCoef>
-5.4800

> <Gold.Chemscore.Hbond>
0.6229

> <Gold.Chemscore.Metal>
0.0000

> <Gold.Chemscore.Lipo>
49.7306

> <Gold.Chemscore.Internal_Hbond>
0.0000

> <Gold.Chemscore.DEClash>
0.0149

> <Gold.Chemscore.DEInternal>
1.9093

> <Gold.Chemscore.Rot>
2.4016

> <Gold.Chemscore.Internal.Correction>
   9.000000E+99

> <Gold.Chemscore.Hbonds>
donor molecule, donor type, donor heavy atom, donor atom, acceptor molecule, acceptor atom, score
      P1  H  6896  6908       L1    12  0.46
      P1  H 10752 10764       L1    14  0.20

> <Gold.Chemscore.Hbond.Weighted>
-2.0806

> <Gold.Chemscore.Metal.Weighted>
-0.0000

> <Gold.Chemscore.Lipo.Weighted>
-5.8185

> <Gold.Chemscore.Internal_Hbond.Weighted>
0.0000

> <Gold.Chemscore.DEClash.Weighted>
0.0149

> <Gold.Chemscore.DEInternal.Weighted>
1.9093

> <Gold.Chemscore.Rot.Weighted>
6.1481

> <Gold.Chemscore.Internal.Correction.Weighted>
   9.000000E+99

> <Gold.Protein.RotatedTorsions>
[ 6907 6896 6895 6894 ] final   77.81 input  -60.11 | X-H torsion
[ 7974 7965 7964 7962 ] final   18.13 input  175.53 | X-H torsion
[ 8008 7997 7996 7995 ] final -175.17 input   59.86 | X-H torsion
[ 10167 10162 10161 10158 ] final  159.87 input  -65.29 | X-H torsion
[ 10718 10713 10712 10709 ] final  -52.83 input   66.30 | X-H torsion
[ 10763 10752 10751 10750 ] final  -13.48 input  -60.55 | X-H torsion
[ 11005 11000 10999 10996 ] final  155.30 input  -57.11 | X-H torsion

> <Gold.Protein.ActiveResidues>
 VAL166  LYS551  ARG553  GLY616  TRP617  ASP618  TYR619  PRO620  LYS621  CYS622 
 ASP623  PHE694  ASN695  SER759  ASP760  ASP761  ALA762  ILE779  LEU786  VAL792 
 PHE793  MET794  SER795  GLU796  ALA797  LYS798  CYS799  TRP800  GLU811  SER814 

> <Gold.Protein.RotatedAtoms>
  152.5133  134.3760  159.9334 H   0  0  0  0  0  0  0  0  0  0  0  0  # atno 6907 bound_to 6896
  151.3715  133.3847  159.2708 H   0  0  0  0  0  0  0  0  0  0  0  0  # atno 6908 bound_to 6896
  150.9574  134.8986  159.7768 H   0  0  0  0  0  0  0  0  0  0  0  0  # atno 6909 bound_to 6896
  146.2195  139.8502  142.8624 H   0  0  0  0  0  0  0  0  0  0  0  0  # atno 7974 bound_to 7965
  155.9792  140.1178  157.0742 H   0  0  0  0  0  0  0  0  0  0  0  0  # atno 8008 bound_to 7997
  154.4178  140.1148  156.5480 H   0  0  0  0  0  0  0  0  0  0  0  0  # atno 8009 bound_to 7997
  155.6493  140.3473  155.4745 H   0  0  0  0  0  0  0  0  0  0  0  0  # atno 8010 bound_to 7997
  139.4835  144.4688  151.8605 H   0  0  0  0  0  0  0  0  0  0  0  0  # atno 10167 bound_to 10162
  156.1587  130.4150  149.9828 H   0  0  0  0  0  0  0  0  0  0  0  0  # atno 10718 bound_to 10713
  153.5140  135.7016  153.5766 H   0  0  0  0  0  0  0  0  0  0  0  0  # atno 10763 bound_to 10752
  153.3844  135.3912  155.1879 H   0  0  0  0  0  0  0  0  0  0  0  0  # atno 10764 bound_to 10752
  154.8701  135.3843  154.4622 H   0  0  0  0  0  0  0  0  0  0  0  0  # atno 10765 bound_to 10752
  140.1569  134.8637  157.2525 H   0  0  0  0  0  0  0  0  0  0  0  0  # atno 11005 bound_to 11000
  145.2809  141.0138  143.3718 LP  0  0  0  0  0  0  0  0  0  0  0  0  # atno 17320 bound_to 7965
  144.9150  139.4481  143.6568 LP  0  0  0  0  0  0  0  0  0  0  0  0  # atno 17321 bound_to 7965
  140.4155  144.2312  150.5888 LP  0  0  0  0  0  0  0  0  0  0  0  0  # atno 17342 bound_to 10162
  140.4924  143.2343  151.8798 LP  0  0  0  0  0  0  0  0  0  0  0  0  # atno 17343 bound_to 10162
  156.7663  130.9170  151.3643 LP  0  0  0  0  0  0  0  0  0  0  0  0  # atno 17370 bound_to 10713
  157.6715  130.9055  150.0052 LP  0  0  0  0  0  0  0  0  0  0  0  0  # atno 17371 bound_to 10713
  140.2537  134.3653  155.7432 LP  0  0  0  0  0  0  0  0  0  0  0  0  # atno 17394 bound_to 11000
  141.2205  133.7331  156.8975 LP  0  0  0  0  0  0  0  0  0  0  0  0  # atno 17395 bound_to 11000

$$$$
