AV-unprocessed.smi:3216|AV-procd|sdf|12288|dock2
  -GOLD-   2272018133D 1   1.00000     0.00000
 Structure written by MMmdl.
 36 36  0  0  0  0  0  0  0  0  1 V2000
  145.2284  132.7665  150.6486 C   0  0  0  0  0  0  0  0  0  0  0  0
  146.0161  134.0521  150.9565 C   0  0  0  0  0  0  0  0  0  0  0  0
  146.8932  133.8633  152.2029 C   0  0  0  0  0  0  0  0  0  0  0  0
  145.0969  135.2781  151.1167 C   0  0  0  0  0  0  0  0  0  0  0  0
  145.8584  136.5204  151.1439 N   0  0  0  0  0  0  0  0  0  0  0  0
  145.7321  137.4678  152.0836 C   0  0  0  0  0  0  0  0  0  0  0  0
  144.9506  137.3811  153.0308 O   0  0  0  0  0  0  0  0  0  0  0  0
  146.6323  138.7004  151.9389 C   0  0  0  0  0  0  0  0  0  0  0  0
  147.9459  138.5751  152.5905 N   0  0  0  0  0  0  0  0  0  0  0  0
  147.9547  139.0196  153.9809 C   0  0  0  0  0  0  0  0  0  0  0  0
  149.0520  140.0749  154.1979 C   0  0  0  0  0  0  0  0  0  0  0  0
  150.3680  139.4801  154.3535 N   0  0  0  0  0  0  0  0  0  0  0  0
  150.7565  138.1821  154.0957 C   0  0  0  0  0  0  0  0  0  0  0  0
  152.0860  138.0890  154.3926 C   0  0  0  0  0  0  0  0  0  0  0  0
  152.4272  139.4000  154.8280 C   0  0  0  0  0  0  0  0  0  0  0  0
  151.3979  140.2313  154.8002 N   0  0  0  0  0  0  0  0  0  0  0  0
  144.5207  132.5366  151.4457 H   0  0  0  0  0  0  0  0  0  0  0  0
  145.8983  131.9125  150.5436 H   0  0  0  0  0  0  0  0  0  0  0  0
  144.6658  132.8510  149.7185 H   0  0  0  0  0  0  0  0  0  0  0  0
  146.6843  134.2414  150.1152 H   0  0  0  0  0  0  0  0  0  0  0  0
  146.2870  133.6681  153.0882 H   0  0  0  0  0  0  0  0  0  0  0  0
  147.4937  134.7518  152.4000 H   0  0  0  0  0  0  0  0  0  0  0  0
  147.5796  133.0254  152.0781 H   0  0  0  0  0  0  0  0  0  0  0  0
  144.3724  135.3110  150.3010 H   0  0  0  0  0  0  0  0  0  0  0  0
  144.5277  135.1995  152.0444 H   0  0  0  0  0  0  0  0  0  0  0  0
  146.5255  136.6682  150.4007 H   0  0  0  0  0  0  0  0  0  0  0  0
  146.7768  138.9417  150.8843 H   0  0  0  0  0  0  0  0  0  0  0  0
  146.1094  139.5505  152.3779 H   0  0  0  0  0  0  0  0  0  0  0  0
  148.2947  137.6288  152.5394 H   0  0  0  0  0  0  0  0  0  0  0  0
  146.9878  139.4318  154.2717 H   0  0  0  0  0  0  0  0  0  0  0  0
  148.1467  138.1622  154.6272 H   0  0  0  0  0  0  0  0  0  0  0  0
  149.0892  140.7476  153.3404 H   0  0  0  0  0  0  0  0  0  0  0  0
  148.8260  140.6941  155.0681 H   0  0  0  0  0  0  0  0  0  0  0  0
  150.0611  137.4411  153.7301 H   0  0  0  0  0  0  0  0  0  0  0  0
  152.7181  137.2171  154.3123 H   0  0  0  0  0  0  0  0  0  0  0  0
  153.3858  139.7704  155.1601 H   0  0  0  0  0  0  0  0  0  0  0  0
  1  2  1  0  0  0  0
  1 17  1  0  0  0  0
  1 18  1  0  0  0  0
  1 19  1  0  0  0  0
  2  3  1  0  0  0  0
  2  4  1  0  0  0  0
  2 20  1  0  0  0  0
  3 21  1  0  0  0  0
  3 22  1  0  0  0  0
  3 23  1  0  0  0  0
  4  5  1  0  0  0  0
  4 24  1  0  0  0  0
  4 25  1  0  0  0  0
  5  6  1  0  0  0  0
  5 26  1  0  0  0  0
  6  7  2  0  0  0  0
  6  8  1  0  0  0  0
  8  9  1  0  0  0  0
  8 27  1  0  0  0  0
  8 28  1  0  0  0  0
  9 10  1  0  0  0  0
  9 29  1  0  0  0  0
 10 11  1  0  0  0  0
 10 30  1  0  0  0  0
 10 31  1  0  0  0  0
 11 12  1  0  0  0  0
 11 32  1  0  0  0  0
 11 33  1  0  0  0  0
 12 16  1  0  0  0  0
 12 13  1  0  0  0  0
 13 14  2  0  0  0  0
 13 34  1  0  0  0  0
 14 15  1  0  0  0  0
 14 35  1  0  0  0  0
 15 16  2  0  0  0  0
 15 36  1  0  0  0  0
M  END
> <s_m_source_file>
AV-unprocessed.smi

> <i_m_source_file_index>
3216

> <i_lp_mmshare_version>
43012

> <i_f3d_flags>
0

> <s_epik_input>
W0NIM11bQ0hdKFtDSDNdKVtDSDJdW05IXUMoPU8pW0NIMl1bTkhdW0NIMl1bQ0gyXW4xW2NIXVtjSF1bY0hdbjE=

> <s_epik_cmdline>
J2VwaWtfcHl0aG9uJywgJy1waCcsICc3LjAnLCAnLXRuJywgJzgnLCAnLW1hJywgJzIwMCcsICctbWV0YWxfYmluZGluZycsICctaW1hZScsICc8aW5maWxlLm1hZT4nLCAnLW9tYWUnLCAnPG91dGZpbGUubWFlPic=

> <r_lp_tautomer_probability>
1

> <r_epik_Ionization_Penalty>
0.724936

> <r_epik_Ionization_Penalty_Charging>
0

> <r_epik_Ionization_Penalty_Neutral>
0.724936

> <r_epik_State_Penalty>
0.747957

> <r_epik_Charging_Adjusted_Penalty>
0.747957

> <i_epik_Tot_Q>
0

> <i_epik_Tot_abs_Q>
0

> <r_epik_Metal_State_Penalty>
0.746186

> <b_epik_Metal_Only>
0

> <s_lp_Force_Field>
OPLS_2005

> <r_lp_Energy>
6.66152

> <b_lp_Chiralities_Consistent>
1

> <s_lp_Variant>
AV-unprocessed.smi:3216-2

> <Gold.Version>
5.8.1

> <Gold.Id.Protein>
6NUR|6NUR_protein|mol2

> <Gold.PLP.Fitness>
42.2959

> <Gold.PLP.PLP>
-36.2936

> <Gold.PLP.part.hbond>
-4.2819

> <Gold.PLP.part.metal>
0.0000

> <Gold.PLP.part.buried>
-1.3209

> <Gold.PLP.part.nonpolar>
-31.4714

> <Gold.PLP.part.repulsive>
0.3417

> <Gold.PLP.ligand.clash>
0.0000

> <Gold.PLP.ligand.torsion>
1.2419

> <Gold.PLP.Chemscore.Hbond>
1.7500

> <Gold.PLP.Chemscore.CHOScore>
1.0115

> <Gold.PLP.Chemscore.Metal>
0.0000

> <Gold.Chemscore.Hbonds>
donor molecule, donor type, donor heavy atom, donor atom, acceptor molecule, acceptor atom, score
      L1  H     9    29       P1  7948  1.00
      P1  H  7989  7998       L1    16  0.59
      L1  C    13    34       P1  7948  1.00
      L1  C    13    34       P1  7949  0.01

> <Gold.PLP.Chemscore.Internal.Correction>
0.2016

> <Gold.Rescore>
     Score         DG    S(hbond)    S(metal)    S(lipo)     H(rot)  DE(clash)    DE(int)     intcor
     10.31     -11.64       0.98        0.00      73.37       2.22       0.08       1.24       ----

> <Gold.Chemscore.Fitness>
10.3127

> <Gold.Chemscore.DG>
-11.6374

> <Gold.Chemscore.ZeroCoef>
-5.4800

> <Gold.Chemscore.Hbond>
0.9772

> <Gold.Chemscore.Metal>
0.0000

> <Gold.Chemscore.Lipo>
73.3665

> <Gold.Chemscore.Internal_Hbond>
0.0000

> <Gold.Chemscore.DEClash>
0.0802

> <Gold.Chemscore.DEInternal>
1.2445

> <Gold.Chemscore.Rot>
2.2227

> <Gold.Chemscore.Internal.Correction>
   9.000000E+99

> <Gold.Chemscore.Hbonds>
donor molecule, donor type, donor heavy atom, donor atom, acceptor molecule, acceptor atom, score
      L1  H     9    29       P1  7948  0.99
      P1  H  7989  7998       L1    16  0.02

> <Gold.Chemscore.Hbond.Weighted>
-3.2637

> <Gold.Chemscore.Metal.Weighted>
-0.0000

> <Gold.Chemscore.Lipo.Weighted>
-8.5839

> <Gold.Chemscore.Internal_Hbond.Weighted>
0.0000

> <Gold.Chemscore.DEClash.Weighted>
0.0802

> <Gold.Chemscore.DEInternal.Weighted>
1.2445

> <Gold.Chemscore.Rot.Weighted>
5.6902

> <Gold.Chemscore.Internal.Correction.Weighted>
   9.000000E+99

> <Gold.Protein.RotatedTorsions>
[ 6907 6896 6895 6894 ] final -166.20 input  -60.11 | X-H torsion
[ 7974 7965 7964 7962 ] final  -23.09 input  175.53 | X-H torsion
[ 8008 7997 7996 7995 ] final -112.66 input   59.86 | X-H torsion
[ 10167 10162 10161 10158 ] final  163.83 input  -65.29 | X-H torsion
[ 10718 10713 10712 10709 ] final   19.77 input   66.30 | X-H torsion
[ 10763 10752 10751 10750 ] final  -94.06 input  -60.55 | X-H torsion
[ 11005 11000 10999 10996 ] final -175.87 input  -57.11 | X-H torsion

> <Gold.Protein.ActiveResidues>
 VAL166  LYS551  ARG553  GLY616  TRP617  ASP618  TYR619  PRO620  LYS621  CYS622 
 ASP623  PHE694  ASN695  SER759  ASP760  ASP761  ALA762  ILE779  LEU786  VAL792 
 PHE793  MET794  SER795  GLU796  ALA797  LYS798  CYS799  TRP800  GLU811  SER814 

> <Gold.Protein.RotatedAtoms>
  151.4398  133.3646  159.2779 H   0  0  0  0  0  0  0  0  0  0  0  0  # atno 6907 bound_to 6896
  150.9166  134.8585  159.7471 H   0  0  0  0  0  0  0  0  0  0  0  0  # atno 6908 bound_to 6896
  152.4960  134.4332  159.9571 H   0  0  0  0  0  0  0  0  0  0  0  0  # atno 6909 bound_to 6896
  146.1637  140.4568  142.8561 H   0  0  0  0  0  0  0  0  0  0  0  0  # atno 7974 bound_to 7965
  155.0087  140.0393  157.2390 H   0  0  0  0  0  0  0  0  0  0  0  0  # atno 8008 bound_to 7997
  154.7480  140.2761  155.6294 H   0  0  0  0  0  0  0  0  0  0  0  0  # atno 8009 bound_to 7997
  156.2879  140.2652  156.2225 H   0  0  0  0  0  0  0  0  0  0  0  0  # atno 8010 bound_to 7997
  139.4879  144.4297  151.9086 H   0  0  0  0  0  0  0  0  0  0  0  0  # atno 10167 bound_to 10162
  157.1152  130.6526  149.5908 H   0  0  0  0  0  0  0  0  0  0  0  0  # atno 10718 bound_to 10713
  154.7019  135.5171  153.8539 H   0  0  0  0  0  0  0  0  0  0  0  0  # atno 10763 bound_to 10752
  153.0710  135.6601  154.0256 H   0  0  0  0  0  0  0  0  0  0  0  0  # atno 10764 bound_to 10752
  154.0113  135.3002  155.3371 H   0  0  0  0  0  0  0  0  0  0  0  0  # atno 10765 bound_to 10752
  140.4585  134.6277  157.4832 H   0  0  0  0  0  0  0  0  0  0  0  0  # atno 11005 bound_to 11000
  144.8062  140.6304  143.6445 LP  0  0  0  0  0  0  0  0  0  0  0  0  # atno 17320 bound_to 7965
  145.4523  139.1522  143.3912 LP  0  0  0  0  0  0  0  0  0  0  0  0  # atno 17321 bound_to 7965
  140.3744  144.2815  150.5916 LP  0  0  0  0  0  0  0  0  0  0  0  0  # atno 17342 bound_to 10162
  140.5290  143.2248  151.8269 LP  0  0  0  0  0  0  0  0  0  0  0  0  # atno 17343 bound_to 10162
  155.9841  130.4864  150.6967 LP  0  0  0  0  0  0  0  0  0  0  0  0  # atno 17370 bound_to 10713
  157.4525  131.0874  151.0831 LP  0  0  0  0  0  0  0  0  0  0  0  0  # atno 17371 bound_to 10713
  139.9961  134.6909  155.9608 LP  0  0  0  0  0  0  0  0  0  0  0  0  # atno 17394 bound_to 11000
  141.1632  133.6538  156.4390 LP  0  0  0  0  0  0  0  0  0  0  0  0  # atno 17395 bound_to 11000

$$$$
