AV-unprocessed.smi:1014|AV-procd|sdf|4430|dock7
  -GOLD-   22720 2383D 1   1.00000     0.00000
 Structure written by MMmdl.
 34 34  0  0  0  0  0  0  0  0  2 V2000
  146.4128  140.6072  155.0443 C   0  0  0  0  0  0  0  0  0  0  0  0
  147.3648  141.7316  155.4807 C   0  0  0  0  0  0  0  0  0  0  0  0
  148.7663  141.2535  155.9189 C   0  0  2  0  0  0  0  0  0  0  0  0
  149.4705  142.3690  156.5912 N   0  3  0  0  0  0  0  0  0  0  0  0
  150.9012  142.1318  156.8861 C   0  0  0  0  0  0  0  0  0  0  0  0
  151.5211  143.3070  157.6591 C   0  0  0  0  0  0  0  0  0  0  0  0
  152.1248  142.8858  158.9108 N   0  0  0  0  0  0  0  0  0  0  0  0
  152.0879  143.5184  160.1353 C   0  0  0  0  0  0  0  0  0  0  0  0
  152.8009  142.7538  161.0150 C   0  0  0  0  0  0  0  0  0  0  0  0
  153.0667  142.9992  162.4723 C   0  0  0  0  0  0  0  0  0  0  0  0
  153.2393  141.6570  160.2202 C   0  0  0  0  0  0  0  0  0  0  0  0
  152.8350  141.7390  158.9629 N   0  0  0  0  0  0  0  0  0  0  0  0
  149.5803  140.7290  154.7247 C   0  0  0  0  0  0  0  0  0  0  0  0
  149.0242  140.8267  153.5143 N   0  0  0  0  0  0  0  0  0  0  0  0
  150.6997  140.2486  154.8926 O   0  0  0  0  0  0  0  0  0  0  0  0
  145.4248  141.0076  154.8153 H   0  0  0  0  0  0  0  0  0  0  0  0
  146.2933  139.8647  155.8336 H   0  0  0  0  0  0  0  0  0  0  0  0
  146.7706  140.0958  154.1507 H   0  0  0  0  0  0  0  0  0  0  0  0
  147.4533  142.4629  154.6756 H   0  0  0  0  0  0  0  0  0  0  0  0
  146.8975  142.2611  156.3122 H   0  0  0  0  0  0  0  0  0  0  0  0
  148.6383  140.4514  156.6481 H   0  0  0  0  0  0  0  0  0  0  0  0
  149.3811  143.1981  156.0206 H   0  0  0  0  0  0  0  0  0  0  0  0
  151.0127  141.2110  157.4604 H   0  0  0  0  0  0  0  0  0  0  0  0
  151.4421  141.9911  155.9499 H   0  0  0  0  0  0  0  0  0  0  0  0
  152.2954  143.7782  157.0523 H   0  0  0  0  0  0  0  0  0  0  0  0
  150.7742  144.0763  157.8622 H   0  0  0  0  0  0  0  0  0  0  0  0
  151.5633  144.4516  160.2793 H   0  0  0  0  0  0  0  0  0  0  0  0
  153.1722  142.0662  163.0263 H   0  0  0  0  0  0  0  0  0  0  0  0
  152.2592  143.5608  162.9429 H   0  0  0  0  0  0  0  0  0  0  0  0
  153.9842  143.5683  162.6225 H   0  0  0  0  0  0  0  0  0  0  0  0
  153.8373  140.8086  160.5185 H   0  0  0  0  0  0  0  0  0  0  0  0
  149.5161  140.4890  152.6996 H   0  0  0  0  0  0  0  0  0  0  0  0
  148.1046  141.2334  153.4179 H   0  0  0  0  0  0  0  0  0  0  0  0
  149.0089  142.5386  157.4738 H   0  0  0  0  0  0  0  0  0  0  0  0
  1  2  1  0  0  0  0
  1 16  1  0  0  0  0
  1 17  1  0  0  0  0
  1 18  1  0  0  0  0
  2  3  1  0  0  0  0
  2 19  1  0  0  0  0
  2 20  1  0  0  0  0
  3  4  1  0  0  0  0
  3 13  1  0  0  0  0
  3 21  1  0  0  0  0
  4  5  1  0  0  0  0
  4 22  1  0  0  0  0
  4 34  1  0  0  0  0
  5  6  1  0  0  0  0
  5 23  1  0  0  0  0
  5 24  1  0  0  0  0
  6  7  1  0  0  0  0
  6 25  1  0  0  0  0
  6 26  1  0  0  0  0
  7 12  1  0  0  0  0
  7  8  1  0  0  0  0
  8  9  2  0  0  0  0
  8 27  1  0  0  0  0
  9 10  1  0  0  0  0
  9 11  1  0  0  0  0
 10 28  1  0  0  0  0
 10 29  1  0  0  0  0
 10 30  1  0  0  0  0
 11 12  2  0  0  0  0
 11 31  1  0  0  0  0
 13 14  1  0  0  0  0
 13 15  2  0  0  0  0
 14 32  1  0  0  0  0
 14 33  1  0  0  0  0
M  CHG  1   4   1
M  END
> <s_m_source_file>
AV-unprocessed.smi

> <i_m_source_file_index>
1014

> <i_lp_mmshare_version>
43012

> <i_f3d_flags>
0

> <s_epik_input>
W0NIM11bQ0gyXVtDQEBIXShDKD1PKVtOSDJdKVtOSF1bQ0gyXVtDSDJdbjFbY0hdYyhbQ0gzXSlbY0hdbjE=

> <s_epik_cmdline>
J2VwaWtfcHl0aG9uJywgJy1waCcsICc3LjAnLCAnLXRuJywgJzgnLCAnLW1hJywgJzIwMCcsICctbWV0YWxfYmluZGluZycsICctaW1hZScsICc8aW5maWxlLm1hZT4nLCAnLW9tYWUnLCAnPG91dGZpbGUubWFlPic=

> <r_lp_tautomer_probability>
1

> <r_epik_Ionization_Penalty>
0.19042

> <r_epik_Ionization_Penalty_Charging>
0.190412

> <r_epik_Ionization_Penalty_Neutral>
7.5834e-06

> <r_epik_State_Penalty>
0.180404

> <r_epik_Charging_Adjusted_Penalty>
0.370816

> <i_epik_Tot_Q>
1

> <i_epik_Tot_abs_Q>
1

> <r_epik_Metal_State_Penalty>
0.180563

> <b_epik_Metal_Only>
0

> <s_lp_Force_Field>
OPLS_2005

> <r_lp_Energy>
2.67467

> <b_lp_Chiralities_Consistent>
1

> <s_lp_Variant>
AV-unprocessed.smi:1014-1

> <Gold.Version>
5.8.1

> <Gold.Id.Protein>
6NUR|6NUR_protein|mol2

> <Gold.PLP.Fitness>
45.2228

> <Gold.PLP.PLP>
-35.5119

> <Gold.PLP.part.hbond>
-2.9566

> <Gold.PLP.part.metal>
0.0000

> <Gold.PLP.part.buried>
-5.2587

> <Gold.PLP.part.nonpolar>
-27.4215

> <Gold.PLP.part.repulsive>
0.8693

> <Gold.PLP.ligand.clash>
0.8211

> <Gold.PLP.ligand.torsion>
0.7797

> <Gold.PLP.Chemscore.Hbond>
4.0000

> <Gold.PLP.Chemscore.CHOScore>
0.0000

> <Gold.PLP.Chemscore.Metal>
0.0000

> <Gold.Chemscore.Hbonds>
donor molecule, donor type, donor heavy atom, donor atom, acceptor molecule, acceptor atom, score
      L1  H     4    22       P1  8028  2.00
      L1  H    14    32       P1  7957  1.00
      P1  H  7989  7998       L1    15  1.00

> <Gold.PLP.Chemscore.Internal.Correction>
0.0913

> <Gold.Rescore>
     Score         DG    S(hbond)    S(metal)    S(lipo)     H(rot)  DE(clash)    DE(int)     intcor
     15.22     -17.37       2.95        0.00      74.06       2.59       0.00       2.14       ----

> <Gold.Chemscore.Fitness>
15.2209

> <Gold.Chemscore.DG>
-17.3680

> <Gold.Chemscore.ZeroCoef>
-5.4800

> <Gold.Chemscore.Hbond>
2.9484

> <Gold.Chemscore.Metal>
0.0000

> <Gold.Chemscore.Lipo>
74.0599

> <Gold.Chemscore.Internal_Hbond>
0.0000

> <Gold.Chemscore.DEClash>
0.0038

> <Gold.Chemscore.DEInternal>
2.1433

> <Gold.Chemscore.Rot>
2.5878

> <Gold.Chemscore.Internal.Correction>
   9.000000E+99

> <Gold.Chemscore.Hbonds>
donor molecule, donor type, donor heavy atom, donor atom, acceptor molecule, acceptor atom, score
      L1  H     4    22       P1  8028  0.98
      L1  H    14    32       P1  7957  0.96
      P1  H  7989  7998       L1    15  0.39

> <Gold.Chemscore.Hbond.Weighted>
-9.8477

> <Gold.Chemscore.Metal.Weighted>
-0.0000

> <Gold.Chemscore.Lipo.Weighted>
-8.6650

> <Gold.Chemscore.Internal_Hbond.Weighted>
0.0000

> <Gold.Chemscore.DEClash.Weighted>
0.0038

> <Gold.Chemscore.DEInternal.Weighted>
2.1433

> <Gold.Chemscore.Rot.Weighted>
6.6247

> <Gold.Chemscore.Internal.Correction.Weighted>
   9.000000E+99

> <Gold.Protein.RotatedTorsions>
[ 6907 6896 6895 6894 ] final  127.53 input  -60.11 | X-H torsion
[ 7974 7965 7964 7962 ] final   70.36 input  175.53 | X-H torsion
[ 8008 7997 7996 7995 ] final  -15.38 input   59.86 | X-H torsion
[ 10167 10162 10161 10158 ] final   88.16 input  -65.29 | X-H torsion
[ 10718 10713 10712 10709 ] final -124.81 input   66.30 | X-H torsion
[ 10763 10752 10751 10750 ] final  113.20 input  -60.55 | X-H torsion
[ 11005 11000 10999 10996 ] final -148.59 input  -57.11 | X-H torsion

> <Gold.Protein.ActiveResidues>
 VAL166  LYS551  ARG553  GLY616  TRP617  ASP618  TYR619  PRO620  LYS621  CYS622 
 ASP623  PHE694  ASN695  SER759  ASP760  ASP761  ALA762  ILE779  LEU786  VAL792 
 PHE793  MET794  SER795  GLU796  ALA797  LYS798  CYS799  TRP800  GLU811  SER814 

> <Gold.Protein.RotatedAtoms>
  152.3804  133.6538  159.6156 H   0  0  0  0  0  0  0  0  0  0  0  0  # atno 6907 bound_to 6896
  150.7737  133.9123  159.3382 H   0  0  0  0  0  0  0  0  0  0  0  0  # atno 6908 bound_to 6896
  151.6930  135.0944  160.0288 H   0  0  0  0  0  0  0  0  0  0  0  0  # atno 6909 bound_to 6896
  145.7791  139.2879  143.1276 H   0  0  0  0  0  0  0  0  0  0  0  0  # atno 7974 bound_to 7965
  154.5135  140.2198  155.9110 H   0  0  0  0  0  0  0  0  0  0  0  0  # atno 8008 bound_to 7997
  156.1580  140.3148  155.8725 H   0  0  0  0  0  0  0  0  0  0  0  0  # atno 8009 bound_to 7997
  155.3807  140.0472  157.3034 H   0  0  0  0  0  0  0  0  0  0  0  0  # atno 8010 bound_to 7997
  139.8701  144.6497  150.8959 H   0  0  0  0  0  0  0  0  0  0  0  0  # atno 10167 bound_to 10162
  156.1620  130.6608  151.0063 H   0  0  0  0  0  0  0  0  0  0  0  0  # atno 10718 bound_to 10713
  153.4890  135.3663  155.2482 H   0  0  0  0  0  0  0  0  0  0  0  0  # atno 10763 bound_to 10752
  154.8753  135.3972  154.3611 H   0  0  0  0  0  0  0  0  0  0  0  0  # atno 10764 bound_to 10752
  153.4227  135.7080  153.6348 H   0  0  0  0  0  0  0  0  0  0  0  0  # atno 10765 bound_to 10752
  140.7596  134.3313  157.5105 H   0  0  0  0  0  0  0  0  0  0  0  0  # atno 11005 bound_to 11000
  146.0093  140.8450  142.9979 LP  0  0  0  0  0  0  0  0  0  0  0  0  # atno 17320 bound_to 7965
  144.6799  140.2466  143.7337 LP  0  0  0  0  0  0  0  0  0  0  0  0  # atno 17321 bound_to 7965
  140.7762  143.3671  151.1718 LP  0  0  0  0  0  0  0  0  0  0  0  0  # atno 17342 bound_to 10162
  139.7292  143.9099  152.3013 LP  0  0  0  0  0  0  0  0  0  0  0  0  # atno 17343 bound_to 10162
  157.6739  131.0855  150.7542 LP  0  0  0  0  0  0  0  0  0  0  0  0  # atno 17370 bound_to 10713
  156.7605  130.4797  149.5438 LP  0  0  0  0  0  0  0  0  0  0  0  0  # atno 17371 bound_to 10713
  139.8773  134.9194  156.3225 LP  0  0  0  0  0  0  0  0  0  0  0  0  # atno 17394 bound_to 11000
  140.9675  133.7348  156.0488 LP  0  0  0  0  0  0  0  0  0  0  0  0  # atno 17395 bound_to 11000

$$$$
