AV-unprocessed.smi:2923|AV-procd|sdf|11214|dock3
  -GOLD-   2272016103D 1   1.00000     0.00000
 Structure written by MMmdl.
 46 48  0  0  0  0  0  0  0  0  1 V2000
  143.6992  132.2692  150.4106 C   0  0  0  0  0  0  0  0  0  0  0  0
  145.1092  132.3966  150.7439 N   0  0  0  0  0  0  0  0  0  0  0  0
  145.7011  131.2847  151.4718 C   0  0  0  0  0  0  0  0  0  0  0  0
  145.4255  133.6455  151.2942 C   0  0  0  0  0  0  0  0  0  0  0  0
  145.0690  134.8477  150.6421 C   0  0  0  0  0  0  0  0  0  0  0  0
  145.4161  136.0735  151.2415 C   0  0  0  0  0  0  0  0  0  0  0  0
  146.1161  136.0589  152.4714 C   0  0  0  0  0  0  0  0  0  0  0  0
  146.5080  137.2235  153.1851 N   0  0  0  0  0  0  0  0  0  0  0  0
  146.6664  138.4760  152.7243 C   0  0  0  0  0  0  0  0  0  0  0  0
  146.4936  138.8350  151.5599 O   0  0  0  0  0  0  0  0  0  0  0  0
  147.0601  139.3002  153.7033 N   0  0  0  0  0  0  0  0  0  0  0  0
  147.3297  140.7313  153.5492 C   0  0  2  0  0  0  0  0  0  0  0  0
  148.7189  141.1429  154.0867 C   0  0  2  0  0  0  0  0  0  0  0  0
  149.7816  140.1409  154.4677 C   0  0  0  0  0  0  0  0  0  0  0  0
  149.6068  140.0225  155.9846 C   0  0  0  0  0  0  0  0  0  0  0  0
  148.2788  140.4783  156.2355 O   0  0  0  0  0  0  0  0  0  0  0  0
  148.0253  141.5803  155.3667 C   0  0  2  0  0  0  0  0  0  0  0  0
  146.6581  141.5925  154.6509 C   0  0  0  0  0  0  0  0  0  0  0  0
  146.2131  142.9794  154.1771 C   0  0  0  0  0  0  0  0  0  0  0  0
  145.4741  141.0037  155.4303 C   0  0  0  0  0  0  0  0  0  0  0  0
  146.4109  134.8040  153.0434 C   0  0  0  0  0  0  0  0  0  0  0  0
  146.0830  133.6253  152.4734 N   0  0  0  0  0  0  0  0  0  0  0  0
  143.3486  133.1442  149.8618 H   0  0  0  0  0  0  0  0  0  0  0  0
  143.0937  132.1607  151.3112 H   0  0  0  0  0  0  0  0  0  0  0  0
  143.5387  131.3924  149.7830 H   0  0  0  0  0  0  0  0  0  0  0  0
  146.7601  131.4657  151.6609 H   0  0  0  0  0  0  0  0  0  0  0  0
  145.6156  130.3668  150.8897 H   0  0  0  0  0  0  0  0  0  0  0  0
  145.2004  131.1300  152.4283 H   0  0  0  0  0  0  0  0  0  0  0  0
  144.5371  134.8354  149.7020 H   0  0  0  0  0  0  0  0  0  0  0  0
  145.1277  136.9915  150.7539 H   0  0  0  0  0  0  0  0  0  0  0  0
  146.7565  137.0732  154.1520 H   0  0  0  0  0  0  0  0  0  0  0  0
  147.1805  138.9168  154.6295 H   0  0  0  0  0  0  0  0  0  0  0  0
  147.1484  141.1169  152.5442 H   0  0  0  0  0  0  0  0  0  0  0  0
  149.1058  142.0038  153.5391 H   0  0  0  0  0  0  0  0  0  0  0  0
  149.6367  139.1797  153.9749 H   0  0  0  0  0  0  0  0  0  0  0  0
  150.7840  140.4872  154.2143 H   0  0  0  0  0  0  0  0  0  0  0  0
  149.7564  139.0056  156.3475 H   0  0  0  0  0  0  0  0  0  0  0  0
  150.3091  140.6769  156.5029 H   0  0  0  0  0  0  0  0  0  0  0  0
  148.3745  142.5365  155.7593 H   0  0  0  0  0  0  0  0  0  0  0  0
  145.9773  143.6335  155.0171 H   0  0  0  0  0  0  0  0  0  0  0  0
  145.3260  142.9204  153.5455 H   0  0  0  0  0  0  0  0  0  0  0  0
  146.9901  143.4747  153.5940 H   0  0  0  0  0  0  0  0  0  0  0  0
  145.1539  141.6685  156.2330 H   0  0  0  0  0  0  0  0  0  0  0  0
  145.7191  140.0490  155.8958 H   0  0  0  0  0  0  0  0  0  0  0  0
  144.6146  140.8346  154.7807 H   0  0  0  0  0  0  0  0  0  0  0  0
  146.9319  134.7409  153.9877 H   0  0  0  0  0  0  0  0  0  0  0  0
  1  2  1  0  0  0  0
  1 23  1  0  0  0  0
  1 24  1  0  0  0  0
  1 25  1  0  0  0  0
  2  3  1  0  0  0  0
  2  4  1  0  0  0  0
  3 26  1  0  0  0  0
  3 27  1  0  0  0  0
  3 28  1  0  0  0  0
  4 22  1  0  0  0  0
  4  5  2  0  0  0  0
  5  6  1  0  0  0  0
  5 29  1  0  0  0  0
  6  7  2  0  0  0  0
  6 30  1  0  0  0  0
  7  8  1  0  0  0  0
  7 21  1  0  0  0  0
  8  9  1  0  0  0  0
  8 31  1  0  0  0  0
  9 10  2  0  0  0  0
  9 11  1  0  0  0  0
 11 12  1  0  0  0  0
 11 32  1  0  0  0  0
 12 18  1  0  0  0  0
 12 13  1  0  0  0  0
 12 33  1  0  0  0  0
 13 17  1  0  0  0  0
 13 14  1  0  0  0  0
 13 34  1  0  0  0  0
 14 15  1  0  0  0  0
 14 35  1  0  0  0  0
 14 36  1  0  0  0  0
 15 16  1  0  0  0  0
 15 37  1  0  0  0  0
 15 38  1  0  0  0  0
 16 17  1  0  0  0  0
 17 18  1  0  0  0  0
 17 39  1  0  0  0  0
 18 19  1  0  0  0  0
 18 20  1  0  0  0  0
 19 40  1  0  0  0  0
 19 41  1  0  0  0  0
 19 42  1  0  0  0  0
 20 43  1  0  0  0  0
 20 44  1  0  0  0  0
 20 45  1  0  0  0  0
 21 22  2  0  0  0  0
 21 46  1  0  0  0  0
M  END
> <s_m_source_file>
AV-unprocessed.smi

> <i_m_source_file_index>
2923

> <i_lp_mmshare_version>
43012

> <i_f3d_flags>
0

> <s_epik_input>
W0NIM11OKFtDSDNdKWMxW2NIXVtjSF1jKFtjSF1uMSlbTkhdQyg9TylbTkhdW0NASF0yQyhbQ0gzXSkoW0NIM10pW0NAQEhdKFtDQEhdMjMpT1tDSDJdW0NIMl0z

> <s_epik_cmdline>
J2VwaWtfcHl0aG9uJywgJy1waCcsICc3LjAnLCAnLXRuJywgJzgnLCAnLW1hJywgJzIwMCcsICctbWV0YWxfYmluZGluZycsICctaW1hZScsICc8aW5maWxlLm1hZT4nLCAnLW9tYWUnLCAnPG91dGZpbGUubWFlPic=

> <r_lp_tautomer_probability>
1

> <r_epik_Ionization_Penalty>
0.628785

> <r_epik_Ionization_Penalty_Charging>
0

> <r_epik_Ionization_Penalty_Neutral>
0.628785

> <r_epik_State_Penalty>
0.644286

> <r_epik_Charging_Adjusted_Penalty>
0.644286

> <i_epik_Tot_Q>
0

> <i_epik_Tot_abs_Q>
0

> <r_epik_Metal_State_Penalty>
0.308404

> <b_epik_Metal_Only>
0

> <s_lp_Force_Field>
OPLS_2005

> <r_lp_Energy>
44.9088

> <b_lp_Chiralities_Consistent>
1

> <s_lp_Variant>
AV-unprocessed.smi:2923-13

> <Gold.Version>
5.8.1

> <Gold.Id.Protein>
6NUR|6NUR_protein|mol2

> <Gold.PLP.Fitness>
35.8142

> <Gold.PLP.PLP>
-35.0234

> <Gold.PLP.part.hbond>
-1.3532

> <Gold.PLP.part.metal>
0.0000

> <Gold.PLP.part.buried>
0.8094

> <Gold.PLP.part.nonpolar>
-34.0014

> <Gold.PLP.part.repulsive>
0.7450

> <Gold.PLP.ligand.clash>
0.0000

> <Gold.PLP.ligand.torsion>
0.2904

> <Gold.PLP.Chemscore.Hbond>
0.3250

> <Gold.PLP.Chemscore.CHOScore>
0.0000

> <Gold.PLP.Chemscore.Metal>
0.0000

> <Gold.PLP.Chemscore.Internal.Correction>
0.3967

> <Gold.Rescore>
     Score         DG    S(hbond)    S(metal)    S(lipo)     H(rot)  DE(clash)    DE(int)     intcor
     11.74     -14.62       0.56        0.00      88.43       1.19       1.34       1.54       ----

> <Gold.Chemscore.Fitness>
11.7434

> <Gold.Chemscore.DG>
-14.6245

> <Gold.Chemscore.ZeroCoef>
-5.4800

> <Gold.Chemscore.Hbond>
0.5553

> <Gold.Chemscore.Metal>
0.0000

> <Gold.Chemscore.Lipo>
88.4254

> <Gold.Chemscore.Internal_Hbond>
0.0000

> <Gold.Chemscore.DEClash>
1.3397

> <Gold.Chemscore.DEInternal>
1.5414

> <Gold.Chemscore.Rot>
1.1937

> <Gold.Chemscore.Internal.Correction>
   9.000000E+99

> <Gold.Chemscore.Hbond.Weighted>
-1.8546

> <Gold.Chemscore.Metal.Weighted>
-0.0000

> <Gold.Chemscore.Lipo.Weighted>
-10.3458

> <Gold.Chemscore.Internal_Hbond.Weighted>
0.0000

> <Gold.Chemscore.DEClash.Weighted>
1.3397

> <Gold.Chemscore.DEInternal.Weighted>
1.5414

> <Gold.Chemscore.Rot.Weighted>
3.0559

> <Gold.Chemscore.Internal.Correction.Weighted>
   9.000000E+99

> <Gold.Protein.RotatedTorsions>
[ 6907 6896 6895 6894 ] final -163.91 input  -60.11 | X-H torsion
[ 7974 7965 7964 7962 ] final  -47.96 input  175.53 | X-H torsion
[ 8008 7997 7996 7995 ] final -119.49 input   59.86 | X-H torsion
[ 10167 10162 10161 10158 ] final -151.37 input  -65.29 | X-H torsion
[ 10718 10713 10712 10709 ] final   42.70 input   66.30 | X-H torsion
[ 10763 10752 10751 10750 ] final  -35.16 input  -60.55 | X-H torsion
[ 11005 11000 10999 10996 ] final   37.42 input  -57.11 | X-H torsion

> <Gold.Protein.ActiveResidues>
 VAL166  LYS551  ARG553  GLY616  TRP617  ASP618  TYR619  PRO620  LYS621  CYS622 
 ASP623  PHE694  ASN695  SER759  ASP760  ASP761  ALA762  ILE779  LEU786  VAL792 
 PHE793  MET794  SER795  GLU796  ALA797  LYS798  CYS799  TRP800  GLU811  SER814 

> <Gold.Protein.RotatedAtoms>
  151.4034  133.3750  159.2734 H   0  0  0  0  0  0  0  0  0  0  0  0  # atno 6907 bound_to 6896
  150.9416  134.8826  159.7626 H   0  0  0  0  0  0  0  0  0  0  0  0  # atno 6908 bound_to 6896
  152.5074  134.3985  159.9460 H   0  0  0  0  0  0  0  0  0  0  0  0  # atno 6909 bound_to 6896
  145.9561  140.7525  142.9480 H   0  0  0  0  0  0  0  0  0  0  0  0  # atno 7974 bound_to 7965
  155.1165  140.0398  157.2738 H   0  0  0  0  0  0  0  0  0  0  0  0  # atno 8008 bound_to 7997
  154.6646  140.2598  155.7046 H   0  0  0  0  0  0  0  0  0  0  0  0  # atno 8009 bound_to 7997
  156.2633  140.2810  156.1131 H   0  0  0  0  0  0  0  0  0  0  0  0  # atno 8010 bound_to 7997
  139.7273  143.8862  152.2523 H   0  0  0  0  0  0  0  0  0  0  0  0  # atno 10167 bound_to 10162
  157.4078  130.7897  149.7404 H   0  0  0  0  0  0  0  0  0  0  0  0  # atno 10718 bound_to 10713
  153.8587  135.6842  153.4785 H   0  0  0  0  0  0  0  0  0  0  0  0  # atno 10763 bound_to 10752
  153.1354  135.4680  154.9413 H   0  0  0  0  0  0  0  0  0  0  0  0  # atno 10764 bound_to 10752
  154.7769  135.3256  154.8022 H   0  0  0  0  0  0  0  0  0  0  0  0  # atno 10765 bound_to 10752
  140.2227  134.3621  155.7998 H   0  0  0  0  0  0  0  0  0  0  0  0  # atno 11005 bound_to 11000
  144.6805  140.2515  143.7331 LP  0  0  0  0  0  0  0  0  0  0  0  0  # atno 17320 bound_to 7965
  145.8104  139.2001  143.1996 LP  0  0  0  0  0  0  0  0  0  0  0  0  # atno 17321 bound_to 7965
  139.8776  144.7035  150.8915 LP  0  0  0  0  0  0  0  0  0  0  0  0  # atno 17342 bound_to 10162
  140.7765  143.3687  151.1689 LP  0  0  0  0  0  0  0  0  0  0  0  0  # atno 17343 bound_to 10162
  155.9841  130.3994  150.3326 LP  0  0  0  0  0  0  0  0  0  0  0  0  # atno 17370 bound_to 10713
  157.1461  131.0309  151.2906 LP  0  0  0  0  0  0  0  0  0  0  0  0  # atno 17371 bound_to 10713
  141.2222  133.7202  156.8603 LP  0  0  0  0  0  0  0  0  0  0  0  0  # atno 17394 bound_to 11000
  140.1832  134.9018  157.2973 LP  0  0  0  0  0  0  0  0  0  0  0  0  # atno 17395 bound_to 11000

$$$$
