AV-unprocessed.smi:3245|AV-procd|sdf|12407|dock5
  -GOLD-   2272018283D 1   1.00000     0.00000
 Structure written by MMmdl.
 35 36  0  0  0  0  0  0  0  0  3 V2000
  147.6747  140.8339  153.3838 C   0  0  0  0  0  0  0  0  0  0  0  0
  147.3919  139.3279  153.3030 C   0  0  1  0  0  0  0  0  0  0  0  0
  146.4415  139.0135  152.1271 C   0  0  0  0  0  0  0  0  0  0  0  0
  146.1438  137.5978  152.0034 N   0  0  0  0  0  0  0  0  0  0  0  0
  145.7925  136.8895  150.8738 C   0  0  0  0  0  0  0  0  0  0  0  0
  145.5838  135.5953  151.2557 C   0  0  0  0  0  0  0  0  0  0  0  0
  145.8383  135.6095  152.6555 C   0  0  0  0  0  0  0  0  0  0  0  0
  146.1767  136.8093  153.0997 N   0  0  0  0  0  0  0  0  0  0  0  0
  148.6705  138.5929  153.1696 N   0  3  0  0  0  0  0  0  0  0  0  0
  149.4251  138.4272  154.4281 C   0  0  0  0  0  0  0  0  0  0  0  0
  150.9340  138.5677  154.1862 C   0  0  0  0  0  0  0  0  0  0  0  0
  151.5905  139.2015  155.3319 N   0  0  0  0  0  0  0  0  0  0  0  0
  151.2769  140.4097  155.8083 C   0  0  0  0  0  0  0  0  0  0  0  0
  150.4233  141.1899  155.3861 O   0  0  0  0  0  0  0  0  0  0  0  0
  152.1605  140.6694  157.0060 C   0  0  0  0  0  0  0  0  0  0  0  0
  152.9373  139.4525  157.0855 N   0  5  0  0  0  0  0  0  0  0  0  0
  152.5552  138.6324  156.0797 C   0  0  0  0  0  0  0  0  0  0  0  0
  152.9898  137.5059  155.8417 O   0  0  0  0  0  0  0  0  0  0  0  0
  146.7518  141.3996  153.5153 H   0  0  0  0  0  0  0  0  0  0  0  0
  148.1604  141.1974  152.4775 H   0  0  0  0  0  0  0  0  0  0  0  0
  148.3252  141.0674  154.2275 H   0  0  0  0  0  0  0  0  0  0  0  0
  146.9086  139.0388  154.2382 H   0  0  0  0  0  0  0  0  0  0  0  0
  145.4966  139.5419  152.2591 H   0  0  0  0  0  0  0  0  0  0  0  0
  146.8651  139.3700  151.1865 H   0  0  0  0  0  0  0  0  0  0  0  0
  145.7140  137.3607  149.9052 H   0  0  0  0  0  0  0  0  0  0  0  0
  145.2903  134.7643  150.6316 H   0  0  0  0  0  0  0  0  0  0  0  0
  145.7847  134.7904  153.3575 H   0  0  0  0  0  0  0  0  0  0  0  0
  148.4705  137.6797  152.7867 H   0  0  0  0  0  0  0  0  0  0  0  0
  149.0834  139.1720  155.1479 H   0  0  0  0  0  0  0  0  0  0  0  0
  149.2150  137.4493  154.8607 H   0  0  0  0  0  0  0  0  0  0  0  0
  151.3773  137.5864  154.0073 H   0  0  0  0  0  0  0  0  0  0  0  0
  151.1159  139.1455  153.2784 H   0  0  0  0  0  0  0  0  0  0  0  0
  152.7683  141.5582  156.8334 H   0  0  0  0  0  0  0  0  0  0  0  0
  151.5458  140.8468  157.8889 H   0  0  0  0  0  0  0  0  0  0  0  0
  149.2634  139.0913  152.5216 H   0  0  0  0  0  0  0  0  0  0  0  0
  1  2  1  0  0  0  0
  1 19  1  0  0  0  0
  1 20  1  0  0  0  0
  1 21  1  0  0  0  0
  2  3  1  0  0  0  0
  2  9  1  0  0  0  0
  2 22  1  0  0  0  0
  3  4  1  0  0  0  0
  3 23  1  0  0  0  0
  3 24  1  0  0  0  0
  4  8  1  0  0  0  0
  4  5  1  0  0  0  0
  5  6  2  0  0  0  0
  5 25  1  0  0  0  0
  6  7  1  0  0  0  0
  6 26  1  0  0  0  0
  7  8  2  0  0  0  0
  7 27  1  0  0  0  0
  9 10  1  0  0  0  0
  9 28  1  0  0  0  0
  9 35  1  0  0  0  0
 10 11  1  0  0  0  0
 10 29  1  0  0  0  0
 10 30  1  0  0  0  0
 11 12  1  0  0  0  0
 11 31  1  0  0  0  0
 11 32  1  0  0  0  0
 12 17  1  0  0  0  0
 12 13  1  0  0  0  0
 13 14  2  0  0  0  0
 13 15  1  0  0  0  0
 15 16  1  0  0  0  0
 15 33  1  0  0  0  0
 15 34  1  0  0  0  0
 16 17  1  0  0  0  0
 17 18  2  0  0  0  0
M  CHG  1   9   1
M  CHG  1  16  -1
M  END
> <s_m_source_file>
AV-unprocessed.smi

> <i_m_source_file_index>
3245

> <i_lp_mmshare_version>
43012

> <i_f3d_flags>
0

> <s_epik_input>
bjFbY0hdW2NIXVtjSF1uMVtDSDJdW0NAQEhdKFtDSDNdKVtOSF1bQ0gyXVtDSDJdTjJDKD1PKVtDSDJdW05IXUMyPU8=

> <s_epik_cmdline>
J2VwaWtfcHl0aG9uJywgJy1waCcsICc3LjAnLCAnLXRuJywgJzgnLCAnLW1hJywgJzIwMCcsICctbWV0YWxfYmluZGluZycsICctaW1hZScsICc8aW5maWxlLm1hZT4nLCAnLW9tYWUnLCAnPG91dGZpbGUubWFlPic=

> <r_lp_tautomer_probability>
1

> <r_epik_Ionization_Penalty>
5.1873

> <r_epik_Ionization_Penalty_Charging>
5.18729

> <r_epik_Ionization_Penalty_Neutral>
3.83745e-06

> <r_epik_State_Penalty>
5.18822

> <r_epik_Charging_Adjusted_Penalty>
10.3755

> <i_epik_Tot_Q>
0

> <i_epik_Tot_abs_Q>
2

> <r_epik_Metal_State_Penalty>
1.25934

> <b_epik_Metal_Only>
1

> <s_lp_Force_Field>
OPLS_2005

> <r_lp_Energy>
10.2516

> <b_lp_Chiralities_Consistent>
1

> <s_lp_Variant>
AV-unprocessed.smi:3245-6

> <Gold.Version>
5.8.1

> <Gold.Id.Protein>
6NUR|6NUR_protein|mol2

> <Gold.PLP.Fitness>
48.5844

> <Gold.PLP.PLP>
-32.7042

> <Gold.PLP.part.hbond>
-4.5919

> <Gold.PLP.part.metal>
0.0000

> <Gold.PLP.part.buried>
3.8139

> <Gold.PLP.part.nonpolar>
-32.4123

> <Gold.PLP.part.repulsive>
0.9703

> <Gold.PLP.ligand.clash>
0.0000

> <Gold.PLP.ligand.torsion>
1.0524

> <Gold.PLP.Chemscore.Hbond>
5.4126

> <Gold.PLP.Chemscore.CHOScore>
0.5564

> <Gold.PLP.Chemscore.Metal>
0.0000

> <Gold.Chemscore.Hbonds>
donor molecule, donor type, donor heavy atom, donor atom, acceptor molecule, acceptor atom, score
      L1  H     9    28       P1  7948  1.98
      L1  H     9    35       P1  7957  1.00
      P1  H  7989  7998       L1    14  0.01
      P1  H  7997  8009       L1    16  2.00
      P1  H 10752 10763       L1    18  0.34
      L1  C     5    25       P1 10171  0.62

> <Gold.PLP.Chemscore.Internal.Correction>
0.0782

> <Gold.Rescore>
     Score         DG    S(hbond)    S(metal)    S(lipo)     H(rot)  DE(clash)    DE(int)     intcor
     12.59     -14.61       2.61        0.00      61.79       2.66       1.03       0.99       ----

> <Gold.Chemscore.Fitness>
12.5879

> <Gold.Chemscore.DG>
-14.6078

> <Gold.Chemscore.ZeroCoef>
-5.4800

> <Gold.Chemscore.Hbond>
2.6073

> <Gold.Chemscore.Metal>
0.0000

> <Gold.Chemscore.Lipo>
61.7876

> <Gold.Chemscore.Internal_Hbond>
0.0000

> <Gold.Chemscore.DEClash>
1.0288

> <Gold.Chemscore.DEInternal>
0.9911

> <Gold.Chemscore.Rot>
2.6601

> <Gold.Chemscore.Internal.Correction>
   9.000000E+99

> <Gold.Chemscore.Hbonds>
donor molecule, donor type, donor heavy atom, donor atom, acceptor molecule, acceptor atom, score
      L1  H     9    28       P1  7948  0.94
      L1  H     9    35       P1  7957  0.97
      P1  H  7997  8009       L1    16  0.30
      P1  H 10752 10763       L1    18  0.33

> <Gold.Chemscore.Hbond.Weighted>
-8.7084

> <Gold.Chemscore.Metal.Weighted>
-0.0000

> <Gold.Chemscore.Lipo.Weighted>
-7.2291

> <Gold.Chemscore.Internal_Hbond.Weighted>
0.0000

> <Gold.Chemscore.DEClash.Weighted>
1.0288

> <Gold.Chemscore.DEInternal.Weighted>
0.9911

> <Gold.Chemscore.Rot.Weighted>
6.8098

> <Gold.Chemscore.Internal.Correction.Weighted>
   9.000000E+99

> <Gold.Protein.RotatedTorsions>
[ 6907 6896 6895 6894 ] final   85.07 input  -60.11 | X-H torsion
[ 7974 7965 7964 7962 ] final  -94.15 input  175.53 | X-H torsion
[ 8008 7997 7996 7995 ] final  160.88 input   59.86 | X-H torsion
[ 10167 10162 10161 10158 ] final  -58.77 input  -65.29 | X-H torsion
[ 10718 10713 10712 10709 ] final    7.60 input   66.30 | X-H torsion
[ 10763 10752 10751 10750 ] final   90.33 input  -60.55 | X-H torsion
[ 11005 11000 10999 10996 ] final -133.80 input  -57.11 | X-H torsion

> <Gold.Protein.ActiveResidues>
 VAL166  LYS551  ARG553  GLY616  TRP617  ASP618  TYR619  PRO620  LYS621  CYS622 
 ASP623  PHE694  ASN695  SER759  ASP760  ASP761  ALA762  ILE779  LEU786  VAL792 
 PHE793  MET794  SER795  GLU796  ALA797  LYS798  CYS799  TRP800  GLU811  SER814 

> <Gold.Protein.RotatedAtoms>
  152.5367  134.2643  159.8947 H   0  0  0  0  0  0  0  0  0  0  0  0  # atno 6907 bound_to 6896
  151.2602  133.4299  159.2623 H   0  0  0  0  0  0  0  0  0  0  0  0  # atno 6908 bound_to 6896
  151.0460  134.9654  159.8243 H   0  0  0  0  0  0  0  0  0  0  0  0  # atno 6909 bound_to 6896
  145.3771  140.9513  143.2414 H   0  0  0  0  0  0  0  0  0  0  0  0  # atno 7974 bound_to 7965
  156.2142  140.1792  156.7627 H   0  0  0  0  0  0  0  0  0  0  0  0  # atno 8008 bound_to 7997
  154.5767  140.0673  156.9073 H   0  0  0  0  0  0  0  0  0  0  0  0  # atno 8009 bound_to 7997
  155.2576  140.3333  155.4278 H   0  0  0  0  0  0  0  0  0  0  0  0  # atno 8010 bound_to 7997
  140.6177  143.2408  151.5558 H   0  0  0  0  0  0  0  0  0  0  0  0  # atno 10167 bound_to 10162
  156.9392  130.5855  149.5652 H   0  0  0  0  0  0  0  0  0  0  0  0  # atno 10718 bound_to 10713
  153.1964  135.4438  155.0213 H   0  0  0  0  0  0  0  0  0  0  0  0  # atno 10763 bound_to 10752
  154.8121  135.3299  154.7278 H   0  0  0  0  0  0  0  0  0  0  0  0  # atno 10764 bound_to 10752
  153.7728  135.6983  153.4958 H   0  0  0  0  0  0  0  0  0  0  0  0  # atno 10765 bound_to 10752
  140.9048  134.1644  157.4434 H   0  0  0  0  0  0  0  0  0  0  0  0  # atno 11005 bound_to 11000
  144.8534  139.5286  143.6846 LP  0  0  0  0  0  0  0  0  0  0  0  0  # atno 17320 bound_to 7965
  146.2859  139.7003  142.9196 LP  0  0  0  0  0  0  0  0  0  0  0  0  # atno 17321 bound_to 7965
  139.5412  144.2643  152.1354 LP  0  0  0  0  0  0  0  0  0  0  0  0  # atno 17342 bound_to 10162
  140.1856  144.4802  150.6505 LP  0  0  0  0  0  0  0  0  0  0  0  0  # atno 17343 bound_to 10162
  156.0412  130.5494  150.8774 LP  0  0  0  0  0  0  0  0  0  0  0  0  # atno 17370 bound_to 10713
  157.5796  131.0946  150.9292 LP  0  0  0  0  0  0  0  0  0  0  0  0  # atno 17371 bound_to 10713
  139.8748  134.9912  156.5540 LP  0  0  0  0  0  0  0  0  0  0  0  0  # atno 17394 bound_to 11000
  140.8184  133.8373  155.8873 LP  0  0  0  0  0  0  0  0  0  0  0  0  # atno 17395 bound_to 11000

$$$$
