AV-unprocessed.smi:676|AV-procd|sdf|3308|dock2
  -GOLD-   22720 0273D 1   1.00000     0.00000
 Structure written by MMmdl.
 42 43  0  0  0  0  0  0  0  0  1 V2000
  152.5899  143.4345  161.9578 C   0  0  0  0  0  0  0  0  0  0  0  0
  151.3943  143.3758  161.1896 O   0  0  0  0  0  0  0  0  0  0  0  0
  151.2823  144.2729  160.0762 C   0  0  2  0  0  0  0  0  0  0  0  0
  151.7433  145.6816  160.4712 C   0  0  0  0  0  0  0  0  0  0  0  0
  149.9189  144.0916  159.3822 C   0  0  0  0  0  0  0  0  0  0  0  0
  150.5405  142.9177  158.6286 C   0  0  1  0  0  0  0  0  0  0  0  0
  150.0865  142.8348  157.2448 N   0  0  0  0  0  0  0  0  0  0  0  0
  150.4853  141.8992  156.3714 C   0  0  0  0  0  0  0  0  0  0  0  0
  151.2538  140.9836  156.6676 O   0  0  0  0  0  0  0  0  0  0  0  0
  149.9174  142.0145  154.9506 C   0  0  0  0  0  0  0  0  0  0  0  0
  149.1808  140.8108  154.5322 N   0  0  0  0  0  0  0  0  0  0  0  0
  149.8669  139.5816  154.5944 C   0  0  0  0  0  0  0  0  0  0  0  0
  149.2876  138.4261  154.2321 C   0  0  0  0  0  0  0  0  0  0  0  0
  147.9213  138.4637  153.7678 C   0  0  0  0  0  0  0  0  0  0  0  0
  147.2564  139.6343  153.7022 C   0  0  0  0  0  0  0  0  0  0  0  0
  147.8860  140.8999  154.0962 C   0  0  0  0  0  0  0  0  0  0  0  0
  147.2864  141.9741  154.0380 O   0  0  0  0  0  0  0  0  0  0  0  0
  151.9248  143.5896  158.8247 C   0  0  0  0  0  0  0  0  0  0  0  0
  152.3992  144.5386  157.7073 C   0  0  0  0  0  0  0  0  0  0  0  0
  153.0993  142.6412  159.0898 C   0  0  0  0  0  0  0  0  0  0  0  0
  152.4696  142.8187  162.8489 H   0  0  0  0  0  0  0  0  0  0  0  0
  152.8257  144.4465  162.2854 H   0  0  0  0  0  0  0  0  0  0  0  0
  153.4416  143.0373  161.4061 H   0  0  0  0  0  0  0  0  0  0  0  0
  151.7638  146.3560  159.6158 H   0  0  0  0  0  0  0  0  0  0  0  0
  152.7462  145.6645  160.8984 H   0  0  0  0  0  0  0  0  0  0  0  0
  151.0757  146.1405  161.1998 H   0  0  0  0  0  0  0  0  0  0  0  0
  149.0839  143.8174  160.0259 H   0  0  0  0  0  0  0  0  0  0  0  0
  149.6562  144.9341  158.7399 H   0  0  0  0  0  0  0  0  0  0  0  0
  150.4383  141.9827  159.1845 H   0  0  0  0  0  0  0  0  0  0  0  0
  149.4481  143.5486  156.9252 H   0  0  0  0  0  0  0  0  0  0  0  0
  149.2744  142.8947  154.9141 H   0  0  0  0  0  0  0  0  0  0  0  0
  150.7242  142.2197  154.2441 H   0  0  0  0  0  0  0  0  0  0  0  0
  150.8868  139.6397  154.9455 H   0  0  0  0  0  0  0  0  0  0  0  0
  149.8303  137.4937  154.2832 H   0  0  0  0  0  0  0  0  0  0  0  0
  147.4304  137.5492  153.4698 H   0  0  0  0  0  0  0  0  0  0  0  0
  146.2352  139.6428  153.3506 H   0  0  0  0  0  0  0  0  0  0  0  0
  152.6772  143.9924  156.8051 H   0  0  0  0  0  0  0  0  0  0  0  0
  153.2735  145.1126  158.0156 H   0  0  0  0  0  0  0  0  0  0  0  0
  151.6296  145.2549  157.4195 H   0  0  0  0  0  0  0  0  0  0  0  0
  153.4436  142.1613  158.1730 H   0  0  0  0  0  0  0  0  0  0  0  0
  152.8299  141.8400  159.7778 H   0  0  0  0  0  0  0  0  0  0  0  0
  153.9479  143.1704  159.5241 H   0  0  0  0  0  0  0  0  0  0  0  0
  1  2  1  0  0  0  0
  1 21  1  0  0  0  0
  1 22  1  0  0  0  0
  1 23  1  0  0  0  0
  2  3  1  0  0  0  0
  3 18  1  0  0  0  0
  3  4  1  0  0  0  0
  3  5  1  0  0  0  0
  4 24  1  0  0  0  0
  4 25  1  0  0  0  0
  4 26  1  0  0  0  0
  5  6  1  0  0  0  0
  5 27  1  0  0  0  0
  5 28  1  0  0  0  0
  6  7  1  0  0  0  0
  6 18  1  0  0  0  0
  6 29  1  0  0  0  0
  7  8  1  0  0  0  0
  7 30  1  0  0  0  0
  8  9  2  0  0  0  0
  8 10  1  0  0  0  0
 10 11  1  0  0  0  0
 10 31  1  0  0  0  0
 10 32  1  0  0  0  0
 11 16  1  0  0  0  0
 11 12  1  0  0  0  0
 12 13  2  0  0  0  0
 12 33  1  0  0  0  0
 13 14  1  0  0  0  0
 13 34  1  0  0  0  0
 14 15  2  0  0  0  0
 14 35  1  0  0  0  0
 15 16  1  0  0  0  0
 15 36  1  0  0  0  0
 16 17  2  0  0  0  0
 18 19  1  0  0  0  0
 18 20  1  0  0  0  0
 19 37  1  0  0  0  0
 19 38  1  0  0  0  0
 19 39  1  0  0  0  0
 20 40  1  0  0  0  0
 20 41  1  0  0  0  0
 20 42  1  0  0  0  0
M  END
> <s_m_source_file>
AV-unprocessed.smi

> <i_m_source_file_index>
676

> <i_lp_mmshare_version>
43012

> <i_f3d_flags>
0

> <s_epik_input>
W0NIM11PW0NAQF0xKFtDSDNdKVtDSDJdW0NASF0oQzEoW0NIM10pW0NIM10pW05IXUMoPU8pW0NIMl1uMltjSF1bY0hdW2NIXVtjSF1jMj1P

> <s_epik_cmdline>
J2VwaWtfcHl0aG9uJywgJy1waCcsICc3LjAnLCAnLXRuJywgJzgnLCAnLW1hJywgJzIwMCcsICctbWV0YWxfYmluZGluZycsICctaW1hZScsICc8aW5maWxlLm1hZT4nLCAnLW9tYWUnLCAnPG91dGZpbGUubWFlPic=

> <r_lp_tautomer_probability>
1

> <r_epik_Ionization_Penalty>
4.09771e-07

> <r_epik_Ionization_Penalty_Charging>
3.90712e-07

> <r_epik_Ionization_Penalty_Neutral>
1.90591e-08

> <r_epik_State_Penalty>
-0

> <r_epik_Charging_Adjusted_Penalty>
3.90712e-07

> <i_epik_Tot_Q>
0

> <i_epik_Tot_abs_Q>
0

> <r_epik_Metal_State_Penalty>
-0

> <b_epik_Metal_Only>
0

> <s_lp_Force_Field>
OPLS_2005

> <r_lp_Energy>
31.4736

> <b_lp_Chiralities_Consistent>
1

> <s_lp_Variant>
AV-unprocessed.smi:676-2

> <Gold.Version>
5.8.1

> <Gold.Id.Protein>
6NUR|6NUR_protein|mol2

> <Gold.PLP.Fitness>
44.7086

> <Gold.PLP.PLP>
-41.9216

> <Gold.PLP.part.hbond>
-2.0000

> <Gold.PLP.part.metal>
0.0000

> <Gold.PLP.part.buried>
-4.6213

> <Gold.PLP.part.nonpolar>
-36.0872

> <Gold.PLP.part.repulsive>
0.3389

> <Gold.PLP.ligand.clash>
0.0000

> <Gold.PLP.ligand.torsion>
0.3908

> <Gold.PLP.Chemscore.Hbond>
1.0624

> <Gold.PLP.Chemscore.CHOScore>
0.0000

> <Gold.PLP.Chemscore.Metal>
0.0000

> <Gold.Chemscore.Hbonds>
donor molecule, donor type, donor heavy atom, donor atom, acceptor molecule, acceptor atom, score
      L1  H     7    30       P1  8028  1.00
      P1  H  6933  6945       L1     2  0.07

> <Gold.PLP.Chemscore.Internal.Correction>
0.3813

> <Gold.Rescore>
     Score         DG    S(hbond)    S(metal)    S(lipo)     H(rot)  DE(clash)    DE(int)     intcor
     15.15     -18.08       0.98        0.00     114.96       1.62       0.22       2.71       ----

> <Gold.Chemscore.Fitness>
15.1507

> <Gold.Chemscore.DG>
-18.0774

> <Gold.Chemscore.ZeroCoef>
-5.4800

> <Gold.Chemscore.Hbond>
0.9842

> <Gold.Chemscore.Metal>
0.0000

> <Gold.Chemscore.Lipo>
114.9645

> <Gold.Chemscore.Internal_Hbond>
0.0000

> <Gold.Chemscore.DEClash>
0.2212

> <Gold.Chemscore.DEInternal>
2.7056

> <Gold.Chemscore.Rot>
1.6175

> <Gold.Chemscore.Internal.Correction>
   9.000000E+99

> <Gold.Chemscore.Hbonds>
donor molecule, donor type, donor heavy atom, donor atom, acceptor molecule, acceptor atom, score
      L1  H     7    30       P1  8028  0.91
      P1  H  6933  6945       L1     2  0.04

> <Gold.Chemscore.Hbond.Weighted>
-3.2874

> <Gold.Chemscore.Metal.Weighted>
-0.0000

> <Gold.Chemscore.Lipo.Weighted>
-13.4508

> <Gold.Chemscore.Internal_Hbond.Weighted>
0.0000

> <Gold.Chemscore.DEClash.Weighted>
0.2212

> <Gold.Chemscore.DEInternal.Weighted>
2.7056

> <Gold.Chemscore.Rot.Weighted>
4.1408

> <Gold.Chemscore.Internal.Correction.Weighted>
   9.000000E+99

> <Gold.Protein.RotatedTorsions>
[ 6907 6896 6895 6894 ] final   57.36 input  -60.11 | X-H torsion
[ 7974 7965 7964 7962 ] final  -77.40 input  175.53 | X-H torsion
[ 8008 7997 7996 7995 ] final   95.88 input   59.86 | X-H torsion
[ 10167 10162 10161 10158 ] final  -84.30 input  -65.29 | X-H torsion
[ 10718 10713 10712 10709 ] final   72.71 input   66.30 | X-H torsion
[ 10763 10752 10751 10750 ] final  137.59 input  -60.55 | X-H torsion
[ 11005 11000 10999 10996 ] final   61.37 input  -57.11 | X-H torsion

> <Gold.Protein.ActiveResidues>
 VAL166  LYS551  ARG553  GLY616  TRP617  ASP618  TYR619  PRO620  LYS621  CYS622 
 ASP623  PHE694  ASN695  SER759  ASP760  ASP761  ALA762  ILE779  LEU786  VAL792 
 PHE793  MET794  SER795  GLU796  ALA797  LYS798  CYS799  TRP800  GLU811  SER814 

> <Gold.Protein.RotatedAtoms>
  152.3724  134.6714  160.0171 H   0  0  0  0  0  0  0  0  0  0  0  0  # atno 6907 bound_to 6896
  151.7003  133.3305  159.3273 H   0  0  0  0  0  0  0  0  0  0  0  0  # atno 6908 bound_to 6896
  150.7684  134.6557  159.6357 H   0  0  0  0  0  0  0  0  0  0  0  0  # atno 6909 bound_to 6896
  145.6001  140.9410  143.1245 H   0  0  0  0  0  0  0  0  0  0  0  0  # atno 7974 bound_to 7965
  156.0737  140.3280  155.7607 H   0  0  0  0  0  0  0  0  0  0  0  0  # atno 8008 bound_to 7997
  155.5265  140.0589  157.2914 H   0  0  0  0  0  0  0  0  0  0  0  0  # atno 8009 bound_to 7997
  154.4544  140.1935  156.0442 H   0  0  0  0  0  0  0  0  0  0  0  0  # atno 8010 bound_to 7997
  140.4146  143.2609  151.8972 H   0  0  0  0  0  0  0  0  0  0  0  0  # atno 10167 bound_to 10162
  157.6514  130.9592  150.0967 H   0  0  0  0  0  0  0  0  0  0  0  0  # atno 10718 bound_to 10713
  153.8755  135.3050  155.3443 H   0  0  0  0  0  0  0  0  0  0  0  0  # atno 10763 bound_to 10752
  154.7786  135.4848  153.9799 H   0  0  0  0  0  0  0  0  0  0  0  0  # atno 10764 bound_to 10752
  153.1381  135.6818  153.9167 H   0  0  0  0  0  0  0  0  0  0  0  0  # atno 10765 bound_to 10752
  140.0166  134.6216  155.9701 H   0  0  0  0  0  0  0  0  0  0  0  0  # atno 11005 bound_to 11000
  144.7313  139.7716  143.7346 LP  0  0  0  0  0  0  0  0  0  0  0  0  # atno 17320 bound_to 7965
  146.1582  139.4688  143.0005 LP  0  0  0  0  0  0  0  0  0  0  0  0  # atno 17321 bound_to 7965
  139.4782  144.5501  151.8398 LP  0  0  0  0  0  0  0  0  0  0  0  0  # atno 17342 bound_to 10162
  140.4601  144.1734  150.5905 LP  0  0  0  0  0  0  0  0  0  0  0  0  # atno 17343 bound_to 10162
  156.1901  130.3654  149.8921 LP  0  0  0  0  0  0  0  0  0  0  0  0  # atno 17370 bound_to 10713
  156.6851  130.8874  151.3581 LP  0  0  0  0  0  0  0  0  0  0  0  0  # atno 17371 bound_to 10713
  141.1747  133.6539  156.4782 LP  0  0  0  0  0  0  0  0  0  0  0  0  # atno 17394 bound_to 11000
  140.4460  134.6972  157.5016 LP  0  0  0  0  0  0  0  0  0  0  0  0  # atno 17395 bound_to 11000

$$$$
