AV-unprocessed.smi:526|AV-procd|sdf|2811|dock7
  -GOLD-   2262023293D 1   1.00000     0.00000
 Structure written by MMmdl.
 30 30  0  0  0  0  0  0  0  0  2 V2000
  152.5467  143.8316  161.7704 C   0  0  0  0  0  0  0  0  0  0  0  0
  152.0841  144.0538  160.5289 C   0  0  0  0  0  0  0  0  0  0  0  0
  151.6611  145.4346  160.0641 C   0  0  0  0  0  0  0  0  0  0  0  0
  151.9538  142.9396  159.5071 C   0  0  0  0  0  0  0  0  0  0  0  0
  150.9848  143.4372  158.0545 S   0  0  0  0  0  0  0  0  0  0  0  0
  151.0184  141.9137  157.0667 C   0  0  0  0  0  0  0  0  0  0  0  0
  151.6790  140.8196  157.2719 N   0  0  0  0  0  0  0  0  0  0  0  0
  151.5573  139.7486  156.3777 C   0  0  0  0  0  0  0  0  0  0  0  0
  152.3706  138.5120  156.7177 C   0  0  0  0  0  0  0  0  0  0  0  0
  150.7546  139.8273  155.2789 C   0  0  0  0  0  0  0  0  0  0  0  0
  150.5919  138.6780  154.2822 C   0  0  0  0  0  0  0  0  0  0  0  0
  150.2693  137.3193  154.9158 C   0  0  0  0  0  0  0  0  0  0  0  0
  151.1468  136.4348  154.8130 O   0  0  0  0  0  0  0  0  0  0  0  0
  149.1645  137.1757  155.4857 O   0  5  0  0  0  0  0  0  0  0  0  0
  150.0035  141.0697  155.0318 C   0  0  0  0  0  0  0  0  0  0  0  0
  149.2540  141.2567  154.0743 O   0  0  0  0  0  0  0  0  0  0  0  0
  150.1862  142.0407  155.9539 N   0  0  0  0  0  0  0  0  0  0  0  0
  149.6858  142.9075  155.8230 H   0  0  0  0  0  0  0  0  0  0  0  0
  152.6346  144.6339  162.4881 H   0  0  0  0  0  0  0  0  0  0  0  0
  152.8458  142.8435  162.0886 H   0  0  0  0  0  0  0  0  0  0  0  0
  150.6162  145.4251  159.7531 H   0  0  0  0  0  0  0  0  0  0  0  0
  152.2682  145.7588  159.2188 H   0  0  0  0  0  0  0  0  0  0  0  0
  151.7704  146.1724  160.8599 H   0  0  0  0  0  0  0  0  0  0  0  0
  152.9437  142.6263  159.1725 H   0  0  0  0  0  0  0  0  0  0  0  0
  151.4874  142.0734  159.9775 H   0  0  0  0  0  0  0  0  0  0  0  0
  153.1128  138.3179  155.9432 H   0  0  0  0  0  0  0  0  0  0  0  0
  151.7234  137.6391  156.8057 H   0  0  0  0  0  0  0  0  0  0  0  0
  152.8982  138.6321  157.6646 H   0  0  0  0  0  0  0  0  0  0  0  0
  149.8197  138.9099  153.5482 H   0  0  0  0  0  0  0  0  0  0  0  0
  151.5106  138.5753  153.7048 H   0  0  0  0  0  0  0  0  0  0  0  0
  1  2  2  0  0  0  0
  1 19  1  0  0  0  0
  1 20  1  0  0  0  0
  2  3  1  0  0  0  0
  2  4  1  0  0  0  0
  3 21  1  0  0  0  0
  3 22  1  0  0  0  0
  3 23  1  0  0  0  0
  4  5  1  0  0  0  0
  4 24  1  0  0  0  0
  4 25  1  0  0  0  0
  5  6  1  0  0  0  0
  6 17  1  0  0  0  0
  6  7  2  0  0  0  0
  7  8  1  0  0  0  0
  8  9  1  0  0  0  0
  8 10  2  0  0  0  0
  9 26  1  0  0  0  0
  9 27  1  0  0  0  0
  9 28  1  0  0  0  0
 10 11  1  0  0  0  0
 10 15  1  0  0  0  0
 11 12  1  0  0  0  0
 11 29  1  0  0  0  0
 11 30  1  0  0  0  0
 12 13  2  0  0  0  0
 12 14  1  0  0  0  0
 15 16  2  0  0  0  0
 15 17  1  0  0  0  0
 17 18  1  0  0  0  0
M  CHG  1  14  -1
M  END
> <s_m_source_file>
AV-unprocessed.smi

> <i_m_source_file_index>
526

> <i_lp_mmshare_version>
43012

> <i_f3d_flags>
0

> <s_epik_input>
W0NIMl09QyhbQ0gzXSlbQ0gyXVNjMW5jKFtDSDNdKWMoYyg9TylbbkhdMSlbQ0gyXUMoPU8pW09IXQ==

> <s_epik_cmdline>
J2VwaWtfcHl0aG9uJywgJy1waCcsICc3LjAnLCAnLXRuJywgJzgnLCAnLW1hJywgJzIwMCcsICctbWV0YWxfYmluZGluZycsICctaW1hZScsICc8aW5maWxlLm1hZT4nLCAnLW9tYWUnLCAnPG91dGZpbGUubWFlPic=

> <r_lp_tautomer_probability>
0.660323

> <r_epik_Ionization_Penalty>
0.000759783

> <r_epik_Ionization_Penalty_Charging>
0.000714454

> <r_epik_Ionization_Penalty_Neutral>
4.53284e-05

> <r_epik_State_Penalty>
0.230805

> <r_epik_Charging_Adjusted_Penalty>
0.231519

> <i_epik_Tot_Q>
-1

> <i_epik_Tot_abs_Q>
1

> <r_epik_Metal_State_Penalty>
0.34438

> <b_epik_Metal_Only>
0

> <s_lp_Force_Field>
OPLS_2005

> <r_lp_Energy>
1.72321

> <b_lp_Chiralities_Consistent>
1

> <s_lp_Variant>
AV-unprocessed.smi:526-1

> <Gold.Version>
5.8.1

> <Gold.Id.Protein>
6NUR|6NUR_protein|mol2

> <Gold.PLP.Fitness>
47.4716

> <Gold.PLP.PLP>
-36.9302

> <Gold.PLP.part.hbond>
-4.0000

> <Gold.PLP.part.metal>
0.0000

> <Gold.PLP.part.buried>
-2.8246

> <Gold.PLP.part.nonpolar>
-29.8700

> <Gold.PLP.part.repulsive>
0.6501

> <Gold.PLP.ligand.clash>
0.0000

> <Gold.PLP.ligand.torsion>
0.3116

> <Gold.PLP.Chemscore.Hbond>
3.7134

> <Gold.PLP.Chemscore.CHOScore>
0.0000

> <Gold.PLP.Chemscore.Metal>
0.0000

> <Gold.Chemscore.Hbonds>
donor molecule, donor type, donor heavy atom, donor atom, acceptor molecule, acceptor atom, score
      L1  H    17    18       P1  8028  1.00
      P1  H  8011  8017       L1    16  0.52
      P1  H 10752 10764       L1    13  2.00

> <Gold.PLP.Chemscore.Internal.Correction>
0.0243

> <Gold.Rescore>
     Score         DG    S(hbond)    S(metal)    S(lipo)     H(rot)  DE(clash)    DE(int)     intcor
     16.71     -18.49       2.74        0.00      84.33       2.34       1.66       0.13       ----

> <Gold.Chemscore.Fitness>
16.7096

> <Gold.Chemscore.DG>
-18.4930

> <Gold.Chemscore.ZeroCoef>
-5.4800

> <Gold.Chemscore.Hbond>
2.7370

> <Gold.Chemscore.Metal>
0.0000

> <Gold.Chemscore.Lipo>
84.3313

> <Gold.Chemscore.Internal_Hbond>
0.0000

> <Gold.Chemscore.DEClash>
1.6581

> <Gold.Chemscore.DEInternal>
0.1252

> <Gold.Chemscore.Rot>
2.3420

> <Gold.Chemscore.Internal.Correction>
   9.000000E+99

> <Gold.Chemscore.Hbonds>
donor molecule, donor type, donor heavy atom, donor atom, acceptor molecule, acceptor atom, score
      L1  H    17    18       P1  8028  0.97
      P1  H  8011  8017       L1    16  0.52
      P1  H 10752 10764       L1    13  0.97

> <Gold.Chemscore.Hbond.Weighted>
-9.1417

> <Gold.Chemscore.Metal.Weighted>
-0.0000

> <Gold.Chemscore.Lipo.Weighted>
-9.8668

> <Gold.Chemscore.Internal_Hbond.Weighted>
0.0000

> <Gold.Chemscore.DEClash.Weighted>
1.6581

> <Gold.Chemscore.DEInternal.Weighted>
0.1252

> <Gold.Chemscore.Rot.Weighted>
5.9955

> <Gold.Chemscore.Internal.Correction.Weighted>
   9.000000E+99

> <Gold.Protein.RotatedTorsions>
[ 6907 6896 6895 6894 ] final  100.81 input  -60.11 | X-H torsion
[ 7974 7965 7964 7962 ] final   -0.20 input  175.53 | X-H torsion
[ 8008 7997 7996 7995 ] final  173.09 input   59.86 | X-H torsion
[ 10167 10162 10161 10158 ] final -126.79 input  -65.29 | X-H torsion
[ 10718 10713 10712 10709 ] final -167.61 input   66.30 | X-H torsion
[ 10763 10752 10751 10750 ] final  -61.02 input  -60.55 | X-H torsion
[ 11005 11000 10999 10996 ] final   13.76 input  -57.11 | X-H torsion

> <Gold.Protein.ActiveResidues>
 VAL166  LYS551  ARG553  GLY616  TRP617  ASP618  TYR619  PRO620  LYS621  CYS622 
 ASP623  PHE694  ASN695  SER759  ASP760  ASP761  ALA762  ILE779  LEU786  VAL792 
 PHE793  MET794  SER795  GLU796  ALA797  LYS798  CYS799  TRP800  GLU811  SER814 

> <Gold.Protein.RotatedAtoms>
  152.5364  134.0221  159.7986 H   0  0  0  0  0  0  0  0  0  0  0  0  # atno 6907 bound_to 6896
  151.0406  133.5702  159.2658 H   0  0  0  0  0  0  0  0  0  0  0  0  # atno 6908 bound_to 6896
  151.2673  135.0681  159.9174 H   0  0  0  0  0  0  0  0  0  0  0  0  # atno 6909 bound_to 6896
  146.2429  140.1233  142.8340 H   0  0  0  0  0  0  0  0  0  0  0  0  # atno 7974 bound_to 7965
  156.1110  140.1469  156.9338 H   0  0  0  0  0  0  0  0  0  0  0  0  # atno 8008 bound_to 7997
  154.4767  140.0892  156.7322 H   0  0  0  0  0  0  0  0  0  0  0  0  # atno 8009 bound_to 7997
  155.4596  140.3438  155.4313 H   0  0  0  0  0  0  0  0  0  0  0  0  # atno 8010 bound_to 7997
  139.9677  143.5880  152.2423 H   0  0  0  0  0  0  0  0  0  0  0  0  # atno 10167 bound_to 10162
  156.6849  130.9136  151.3062 H   0  0  0  0  0  0  0  0  0  0  0  0  # atno 10718 bound_to 10713
  154.2782  135.6277  153.5336 H   0  0  0  0  0  0  0  0  0  0  0  0  # atno 10763 bound_to 10752
  152.9870  135.5626  154.5525 H   0  0  0  0  0  0  0  0  0  0  0  0  # atno 10764 bound_to 10752
  154.5110  135.2877  155.1318 H   0  0  0  0  0  0  0  0  0  0  0  0  # atno 10765 bound_to 10752
  140.4771  134.0972  155.7743 H   0  0  0  0  0  0  0  0  0  0  0  0  # atno 11005 bound_to 11000
  145.0388  140.8929  143.5065 LP  0  0  0  0  0  0  0  0  0  0  0  0  # atno 17320 bound_to 7965
  145.1310  139.2632  143.5539 LP  0  0  0  0  0  0  0  0  0  0  0  0  # atno 17321 bound_to 7965
  139.6505  144.7660  151.2158 LP  0  0  0  0  0  0  0  0  0  0  0  0  # atno 17342 bound_to 10162
  140.7532  143.6169  150.8551 LP  0  0  0  0  0  0  0  0  0  0  0  0  # atno 17343 bound_to 10162
  157.7030  130.9354  150.0844 LP  0  0  0  0  0  0  0  0  0  0  0  0  # atno 17370 bound_to 10713
  156.1840  130.3651  149.8997 LP  0  0  0  0  0  0  0  0  0  0  0  0  # atno 17371 bound_to 10713
  141.1549  133.8901  157.2003 LP  0  0  0  0  0  0  0  0  0  0  0  0  # atno 17394 bound_to 11000
  139.9849  135.0085  156.9838 LP  0  0  0  0  0  0  0  0  0  0  0  0  # atno 17395 bound_to 11000

$$$$
