AV-unprocessed.smi:1920|AV-procd|sdf|7782|dock6
  -GOLD-   22720 9523D 1   1.00000     0.00000
 Structure written by MMmdl.
 36 37  0  0  0  0  0  0  0  0  1 V2000
  146.9789  142.1643  154.9292 C   0  0  0  0  0  0  0  0  0  0  0  0
  148.1355  141.1759  155.1457 C   0  0  1  0  0  0  0  0  0  0  0  0
  148.4967  140.4376  153.8429 C   0  0  0  0  0  0  0  0  0  0  0  0
  147.4685  139.4957  153.4400 N   0  0  0  0  0  0  0  0  0  0  0  0
  146.9101  139.3555  152.1763 C   0  0  0  0  0  0  0  0  0  0  0  0
  145.9792  138.3455  152.2678 C   0  0  0  0  0  0  0  0  0  0  0  0
  145.9502  137.8510  153.5697 N   0  0  0  0  0  0  0  0  0  0  0  0
  146.8594  138.5792  154.2049 C   0  0  0  0  0  0  0  0  0  0  0  0
  149.3040  141.8858  155.6617 N   0  0  0  0  0  0  0  0  0  0  0  0
  150.5595  141.4129  155.6713 C   0  0  0  0  0  0  0  0  0  0  0  0
  150.8708  140.3077  155.2272 O   0  0  0  0  0  0  0  0  0  0  0  0
  151.6283  142.3264  156.2799 C   0  0  0  0  0  0  0  0  0  0  0  0
  151.3969  142.6264  157.7770 C   0  0  2  0  0  0  0  0  0  0  0  0
  152.0439  143.9068  158.2488 C   0  0  0  0  0  0  0  0  0  0  0  0
  152.8016  143.7313  159.3289 C   0  0  0  0  0  0  0  0  0  0  0  0
  152.8143  142.3025  159.7963 C   0  0  0  0  0  0  0  0  0  0  0  0
  152.0019  141.5527  158.7172 C   0  0  0  0  0  0  0  0  0  0  0  0
  146.0887  141.6514  154.5645 H   0  0  0  0  0  0  0  0  0  0  0  0
  147.2434  142.9314  154.2007 H   0  0  0  0  0  0  0  0  0  0  0  0
  146.7081  142.6669  155.8583 H   0  0  0  0  0  0  0  0  0  0  0  0
  147.8127  140.4321  155.8769 H   0  0  0  0  0  0  0  0  0  0  0  0
  148.6303  141.1530  153.0302 H   0  0  0  0  0  0  0  0  0  0  0  0
  149.4434  139.9056  153.9495 H   0  0  0  0  0  0  0  0  0  0  0  0
  147.2109  139.9707  151.3412 H   0  0  0  0  0  0  0  0  0  0  0  0
  145.3339  137.9397  151.5025 H   0  0  0  0  0  0  0  0  0  0  0  0
  147.0852  138.4454  155.2527 H   0  0  0  0  0  0  0  0  0  0  0  0
  149.1443  142.8055  156.0467 H   0  0  0  0  0  0  0  0  0  0  0  0
  152.5973  141.8431  156.1497 H   0  0  0  0  0  0  0  0  0  0  0  0
  151.6739  143.2615  155.7190 H   0  0  0  0  0  0  0  0  0  0  0  0
  150.3272  142.7127  157.9738 H   0  0  0  0  0  0  0  0  0  0  0  0
  151.8789  144.8545  157.7570 H   0  0  0  0  0  0  0  0  0  0  0  0
  153.3439  144.5112  159.8428 H   0  0  0  0  0  0  0  0  0  0  0  0
  153.8355  141.9278  159.8711 H   0  0  0  0  0  0  0  0  0  0  0  0
  152.3430  142.2321  160.7769 H   0  0  0  0  0  0  0  0  0  0  0  0
  151.2252  140.9304  159.1628 H   0  0  0  0  0  0  0  0  0  0  0  0
  152.6644  140.8852  158.1645 H   0  0  0  0  0  0  0  0  0  0  0  0
  1  2  1  0  0  0  0
  1 18  1  0  0  0  0
  1 19  1  0  0  0  0
  1 20  1  0  0  0  0
  2  3  1  0  0  0  0
  2  9  1  0  0  0  0
  2 21  1  0  0  0  0
  3  4  1  0  0  0  0
  3 22  1  0  0  0  0
  3 23  1  0  0  0  0
  4  8  1  0  0  0  0
  4  5  1  0  0  0  0
  5  6  2  0  0  0  0
  5 24  1  0  0  0  0
  6  7  1  0  0  0  0
  6 25  1  0  0  0  0
  7  8  2  0  0  0  0
  8 26  1  0  0  0  0
  9 10  1  0  0  0  0
  9 27  1  0  0  0  0
 10 11  2  0  0  0  0
 10 12  1  0  0  0  0
 12 13  1  0  0  0  0
 12 28  1  0  0  0  0
 12 29  1  0  0  0  0
 13 17  1  0  0  0  0
 13 14  1  0  0  0  0
 13 30  1  0  0  0  0
 14 15  2  0  0  0  0
 14 31  1  0  0  0  0
 15 16  1  0  0  0  0
 15 32  1  0  0  0  0
 16 17  1  0  0  0  0
 16 33  1  0  0  0  0
 16 34  1  0  0  0  0
 17 35  1  0  0  0  0
 17 36  1  0  0  0  0
M  END
> <s_m_source_file>
AV-unprocessed.smi

> <i_m_source_file_index>
1920

> <i_lp_mmshare_version>
43012

> <i_f3d_flags>
0

> <s_epik_input>
W2NIXTFuW2NIXVtjSF1uMVtDSDJdW0NAQEhdKFtDSDNdKVtOSF1DKD1PKVtDSDJdW0NAQEhdMltDSF09W0NIXVtDSDJdW0NIMl0y

> <s_epik_cmdline>
J2VwaWtfcHl0aG9uJywgJy1waCcsICc3LjAnLCAnLXRuJywgJzgnLCAnLW1hJywgJzIwMCcsICctbWV0YWxfYmluZGluZycsICctaW1hZScsICc8aW5maWxlLm1hZT4nLCAnLW9tYWUnLCAnPG91dGZpbGUubWFlPic=

> <r_lp_tautomer_probability>
1

> <r_epik_Ionization_Penalty>
0.635367

> <r_epik_Ionization_Penalty_Charging>
0.635367

> <r_epik_Ionization_Penalty_Neutral>
2.1249e-08

> <r_epik_State_Penalty>
0.65258

> <r_epik_Charging_Adjusted_Penalty>
1.28795

> <i_epik_Tot_Q>
0

> <i_epik_Tot_abs_Q>
0

> <r_epik_Metal_State_Penalty>
0.310403

> <b_epik_Metal_Only>
0

> <s_lp_Force_Field>
OPLS_2005

> <r_lp_Energy>
19.6981

> <b_lp_Chiralities_Consistent>
1

> <s_lp_Variant>
AV-unprocessed.smi:1920-6

> <Gold.Version>
5.8.1

> <Gold.Id.Protein>
6NUR|6NUR_protein|mol2

> <Gold.PLP.Fitness>
44.1937

> <Gold.PLP.PLP>
-34.5693

> <Gold.PLP.part.hbond>
-2.0000

> <Gold.PLP.part.metal>
0.0000

> <Gold.PLP.part.buried>
-0.5266

> <Gold.PLP.part.nonpolar>
-31.8820

> <Gold.PLP.part.repulsive>
0.3577

> <Gold.PLP.ligand.clash>
0.0000

> <Gold.PLP.ligand.torsion>
0.7200

> <Gold.PLP.Chemscore.Hbond>
1.9588

> <Gold.PLP.Chemscore.CHOScore>
1.7193

> <Gold.PLP.Chemscore.Metal>
0.0000

> <Gold.Chemscore.Hbonds>
donor molecule, donor type, donor heavy atom, donor atom, acceptor molecule, acceptor atom, score
      L1  H     9    27       P1  8028  0.93
      P1  H  7989  7998       L1    11  0.95
      L1  C     5    24       P1  7957  0.64
      L1  C     6    25       P1 10171  1.00

> <Gold.PLP.Chemscore.Internal.Correction>
0.0303

> <Gold.Rescore>
     Score         DG    S(hbond)    S(metal)    S(lipo)     H(rot)  DE(clash)    DE(int)     intcor
     13.33     -16.79       1.28        0.00     102.41       1.93       1.51       1.95       ----

> <Gold.Chemscore.Fitness>
13.3262

> <Gold.Chemscore.DG>
-16.7926

> <Gold.Chemscore.ZeroCoef>
-5.4800

> <Gold.Chemscore.Hbond>
1.2794

> <Gold.Chemscore.Metal>
0.0000

> <Gold.Chemscore.Lipo>
102.4096

> <Gold.Chemscore.Internal_Hbond>
0.0000

> <Gold.Chemscore.DEClash>
1.5117

> <Gold.Chemscore.DEInternal>
1.9547

> <Gold.Chemscore.Rot>
1.9306

> <Gold.Chemscore.Internal.Correction>
   9.000000E+99

> <Gold.Chemscore.Hbonds>
donor molecule, donor type, donor heavy atom, donor atom, acceptor molecule, acceptor atom, score
      L1  H     9    27       P1  8028  0.88
      P1  H  7989  7998       L1    11  0.21

> <Gold.Chemscore.Hbond.Weighted>
-4.2732

> <Gold.Chemscore.Metal.Weighted>
-0.0000

> <Gold.Chemscore.Lipo.Weighted>
-11.9819

> <Gold.Chemscore.Internal_Hbond.Weighted>
0.0000

> <Gold.Chemscore.DEClash.Weighted>
1.5117

> <Gold.Chemscore.DEInternal.Weighted>
1.9547

> <Gold.Chemscore.Rot.Weighted>
4.9424

> <Gold.Chemscore.Internal.Correction.Weighted>
   9.000000E+99

> <Gold.Protein.RotatedTorsions>
[ 6907 6896 6895 6894 ] final  149.05 input  -60.11 | X-H torsion
[ 7974 7965 7964 7962 ] final   23.00 input  175.53 | X-H torsion
[ 8008 7997 7996 7995 ] final  -41.89 input   59.86 | X-H torsion
[ 10167 10162 10161 10158 ] final  -32.70 input  -65.29 | X-H torsion
[ 10718 10713 10712 10709 ] final  -32.94 input   66.30 | X-H torsion
[ 10763 10752 10751 10750 ] final  -29.23 input  -60.55 | X-H torsion
[ 11005 11000 10999 10996 ] final   60.66 input  -57.11 | X-H torsion

> <Gold.Protein.ActiveResidues>
 VAL166  LYS551  ARG553  GLY616  TRP617  ASP618  TYR619  PRO620  LYS621  CYS622 
 ASP623  PHE694  ASN695  SER759  ASP760  ASP761  ALA762  ILE779  LEU786  VAL792 
 PHE793  MET794  SER795  GLU796  ALA797  LYS798  CYS799  TRP800  GLU811  SER814 

> <Gold.Protein.RotatedAtoms>
  152.1332  133.4420  159.4730 H   0  0  0  0  0  0  0  0  0  0  0  0  # atno 6907 bound_to 6896
  150.6880  134.2395  159.4476 H   0  0  0  0  0  0  0  0  0  0  0  0  # atno 6908 bound_to 6896
  152.0281  134.9783  160.0622 H   0  0  0  0  0  0  0  0  0  0  0  0  # atno 6909 bound_to 6896
  146.2004  139.7806  142.8766 H   0  0  0  0  0  0  0  0  0  0  0  0  # atno 7974 bound_to 7965
  154.4001  140.1488  156.3265 H   0  0  0  0  0  0  0  0  0  0  0  0  # atno 8008 bound_to 7997
  155.8482  140.3459  155.5655 H   0  0  0  0  0  0  0  0  0  0  0  0  # atno 8009 bound_to 7997
  155.8013  140.0870  157.1946 H   0  0  0  0  0  0  0  0  0  0  0  0  # atno 8010 bound_to 7997
  140.7217  143.3675  151.1842 H   0  0  0  0  0  0  0  0  0  0  0  0  # atno 10167 bound_to 10162
  156.3687  130.4336  149.7563 H   0  0  0  0  0  0  0  0  0  0  0  0  # atno 10718 bound_to 10713
  153.7613  135.6919  153.4925 H   0  0  0  0  0  0  0  0  0  0  0  0  # atno 10763 bound_to 10752
  153.1937  135.4462  155.0179 H   0  0  0  0  0  0  0  0  0  0  0  0  # atno 10764 bound_to 10752
  154.8152  135.3395  154.7128 H   0  0  0  0  0  0  0  0  0  0  0  0  # atno 10765 bound_to 10752
  140.0216  134.6144  155.9631 H   0  0  0  0  0  0  0  0  0  0  0  0  # atno 11005 bound_to 11000
  145.3504  141.0306  143.3342 LP  0  0  0  0  0  0  0  0  0  0  0  0  # atno 17320 bound_to 7965
  144.8670  139.5093  143.6785 LP  0  0  0  0  0  0  0  0  0  0  0  0  # atno 17321 bound_to 7965
  139.7240  143.9178  152.2996 LP  0  0  0  0  0  0  0  0  0  0  0  0  # atno 17342 bound_to 10162
  139.8945  144.6947  150.8733 LP  0  0  0  0  0  0  0  0  0  0  0  0  # atno 17343 bound_to 10162
  156.4699  130.7991  151.3010 LP  0  0  0  0  0  0  0  0  0  0  0  0  # atno 17370 bound_to 10713
  157.7481  131.0039  150.3056 LP  0  0  0  0  0  0  0  0  0  0  0  0  # atno 17371 bound_to 10713
  141.1777  133.6542  156.4895 LP  0  0  0  0  0  0  0  0  0  0  0  0  # atno 17394 bound_to 11000
  140.4377  134.7044  157.4975 LP  0  0  0  0  0  0  0  0  0  0  0  0  # atno 17395 bound_to 11000

$$$$
