AV-unprocessed.smi:2594|AV-procd|sdf|10167|dock4
  -GOLD-   2272014183D 1   1.00000     0.00000
 Structure written by MMmdl.
 29 30  0  0  0  0  0  0  0  0  1 V2000
  150.1686  141.2487  158.2889 O   0  0  0  0  0  0  0  0  0  0  0  0
  151.2427  141.3059  157.6875 C   0  0  0  0  0  0  0  0  0  0  0  0
  151.2979  141.1967  156.1577 C   0  0  0  0  0  0  0  0  0  0  0  0
  150.7950  139.9193  155.6500 N   0  0  0  0  0  0  0  0  0  0  0  0
  150.3908  139.8571  154.3528 N   0  0  0  0  0  0  0  0  0  0  0  0
  149.9668  138.6866  154.0491 C   0  0  0  0  0  0  0  0  0  0  0  0
  150.0133  137.4801  155.3410 S   0  0  0  0  0  0  0  0  0  0  0  0
  150.6929  138.7491  156.3970 C   0  0  0  0  0  0  0  0  0  0  0  0
  150.9985  138.5619  157.5733 O   0  0  0  0  0  0  0  0  0  0  0  0
  152.4200  141.4857  158.3045 N   0  0  0  0  0  0  0  0  0  0  0  0
  152.5988  141.6340  159.7442 C   0  0  0  0  0  0  0  0  0  0  0  0
  152.1556  143.0241  160.2295 C   0  0  1  0  0  0  0  0  0  0  0  0
  152.6839  144.1721  159.3730 C   0  0  0  0  0  0  0  0  0  0  0  0
  151.6887  145.2650  159.6897 C   0  0  0  0  0  0  0  0  0  0  0  0
  150.3803  144.4842  159.7926 C   0  0  0  0  0  0  0  0  0  0  0  0
  150.7378  143.1538  160.1619 O   0  0  0  0  0  0  0  0  0  0  0  0
  150.7259  142.0222  155.7307 H   0  0  0  0  0  0  0  0  0  0  0  0
  152.3276  141.3305  155.8217 H   0  0  0  0  0  0  0  0  0  0  0  0
  149.5852  138.3726  153.0778 H   0  0  0  0  0  0  0  0  0  0  0  0
  153.2528  141.5322  157.7353 H   0  0  0  0  0  0  0  0  0  0  0  0
  152.0419  140.8554  160.2682 H   0  0  0  0  0  0  0  0  0  0  0  0
  153.6514  141.4726  159.9791 H   0  0  0  0  0  0  0  0  0  0  0  0
  152.4629  143.1863  161.2641 H   0  0  0  0  0  0  0  0  0  0  0  0
  153.7113  144.4452  159.6148 H   0  0  0  0  0  0  0  0  0  0  0  0
  152.6355  143.9186  158.3128 H   0  0  0  0  0  0  0  0  0  0  0  0
  151.9305  145.7206  160.6507 H   0  0  0  0  0  0  0  0  0  0  0  0
  151.6589  146.0524  158.9362 H   0  0  0  0  0  0  0  0  0  0  0  0
  149.6944  144.9254  160.5161 H   0  0  0  0  0  0  0  0  0  0  0  0
  149.8762  144.4500  158.8260 H   0  0  0  0  0  0  0  0  0  0  0  0
  1  2  2  0  0  0  0
  2  3  1  0  0  0  0
  2 10  1  0  0  0  0
  3  4  1  0  0  0  0
  3 17  1  0  0  0  0
  3 18  1  0  0  0  0
  4  8  1  0  0  0  0
  4  5  1  0  0  0  0
  5  6  2  0  0  0  0
  6  7  1  0  0  0  0
  6 19  1  0  0  0  0
  7  8  1  0  0  0  0
  8  9  2  0  0  0  0
 10 11  1  0  0  0  0
 10 20  1  0  0  0  0
 11 12  1  0  0  0  0
 11 21  1  0  0  0  0
 11 22  1  0  0  0  0
 12 16  1  0  0  0  0
 12 13  1  0  0  0  0
 12 23  1  0  0  0  0
 13 14  1  0  0  0  0
 13 24  1  0  0  0  0
 13 25  1  0  0  0  0
 14 15  1  0  0  0  0
 14 26  1  0  0  0  0
 14 27  1  0  0  0  0
 15 16  1  0  0  0  0
 15 28  1  0  0  0  0
 15 29  1  0  0  0  0
M  END
> <s_m_source_file>
AV-unprocessed.smi

> <i_m_source_file_index>
2594

> <i_lp_mmshare_version>
43012

> <i_f3d_flags>
0

> <s_epik_input>
TzFbQ0gyXVtDSDJdW0NIMl1bQ0BIXTFbQ0gyXVtOSF1DKD1PKVtDSDJdbjJuW2NIXXNjMj1P

> <s_epik_cmdline>
J2VwaWtfcHl0aG9uJywgJy1waCcsICc3LjAnLCAnLXRuJywgJzgnLCAnLW1hJywgJzIwMCcsICctbWV0YWxfYmluZGluZycsICctaW1hZScsICc8aW5maWxlLm1hZT4nLCAnLW9tYWUnLCAnPG91dGZpbGUubWFlPic=

> <r_lp_tautomer_probability>
1

> <r_epik_Ionization_Penalty>
2.49222e-07

> <r_epik_Ionization_Penalty_Charging>
1.4085e-08

> <r_epik_Ionization_Penalty_Neutral>
2.35137e-07

> <r_epik_State_Penalty>
-0

> <r_epik_Charging_Adjusted_Penalty>
1.4085e-08

> <i_epik_Tot_Q>
0

> <i_epik_Tot_abs_Q>
0

> <r_epik_Metal_State_Penalty>
-0

> <b_epik_Metal_Only>
0

> <s_lp_Force_Field>
OPLS_2005

> <r_lp_Energy>
18.288

> <b_lp_Chiralities_Consistent>
1

> <s_lp_Variant>
AV-unprocessed.smi:2594-2

> <Gold.Version>
5.8.1

> <Gold.Id.Protein>
6NUR|6NUR_protein|mol2

> <Gold.PLP.Fitness>
38.5833

> <Gold.PLP.PLP>
-31.1153

> <Gold.PLP.part.hbond>
-2.0000

> <Gold.PLP.part.metal>
0.0000

> <Gold.PLP.part.buried>
-4.0949

> <Gold.PLP.part.nonpolar>
-24.2084

> <Gold.PLP.part.repulsive>
0.2905

> <Gold.PLP.ligand.clash>
0.0000

> <Gold.PLP.ligand.torsion>
0.4605

> <Gold.PLP.Chemscore.Hbond>
1.0000

> <Gold.PLP.Chemscore.CHOScore>
1.7914

> <Gold.PLP.Chemscore.Metal>
0.0000

> <Gold.Chemscore.Hbonds>
donor molecule, donor type, donor heavy atom, donor atom, acceptor molecule, acceptor atom, score
      P1  H  7989  7998       L1     5  1.00
      L1  C     6    19       P1  7948  1.00
      L1  C     6    19       P1  7957  0.79

> <Gold.PLP.Chemscore.Internal.Correction>
0.0149

> <Gold.Rescore>
     Score         DG    S(hbond)    S(metal)    S(lipo)     H(rot)  DE(clash)    DE(int)     intcor
      8.71     -12.18       0.91        0.00      75.04       2.00       0.06       3.41       ----

> <Gold.Chemscore.Fitness>
8.7111

> <Gold.Chemscore.DG>
-12.1784

> <Gold.Chemscore.ZeroCoef>
-5.4800

> <Gold.Chemscore.Hbond>
0.9060

> <Gold.Chemscore.Metal>
0.0000

> <Gold.Chemscore.Lipo>
75.0439

> <Gold.Chemscore.Internal_Hbond>
0.0000

> <Gold.Chemscore.DEClash>
0.0580

> <Gold.Chemscore.DEInternal>
3.4093

> <Gold.Chemscore.Rot>
1.9952

> <Gold.Chemscore.Internal.Correction>
   9.000000E+99

> <Gold.Chemscore.Hbonds>
donor molecule, donor type, donor heavy atom, donor atom, acceptor molecule, acceptor atom, score
      P1  H  7989  7998       L1     5  0.40

> <Gold.Chemscore.Hbond.Weighted>
-3.0260

> <Gold.Chemscore.Metal.Weighted>
-0.0000

> <Gold.Chemscore.Lipo.Weighted>
-8.7801

> <Gold.Chemscore.Internal_Hbond.Weighted>
0.0000

> <Gold.Chemscore.DEClash.Weighted>
0.0580

> <Gold.Chemscore.DEInternal.Weighted>
3.4093

> <Gold.Chemscore.Rot.Weighted>
5.1077

> <Gold.Chemscore.Internal.Correction.Weighted>
   9.000000E+99

> <Gold.Protein.RotatedTorsions>
[ 6907 6896 6895 6894 ] final -147.59 input  -60.11 | X-H torsion
[ 7974 7965 7964 7962 ] final  140.87 input  175.53 | X-H torsion
[ 8008 7997 7996 7995 ] final  120.18 input   59.86 | X-H torsion
[ 10167 10162 10161 10158 ] final  147.06 input  -65.29 | X-H torsion
[ 10718 10713 10712 10709 ] final  172.10 input   66.30 | X-H torsion
[ 10763 10752 10751 10750 ] final -153.28 input  -60.55 | X-H torsion
[ 11005 11000 10999 10996 ] final  155.39 input  -57.11 | X-H torsion

> <Gold.Protein.ActiveResidues>
 VAL166  LYS551  ARG553  GLY616  TRP617  ASP618  TYR619  PRO620  LYS621  CYS622 
 ASP623  PHE694  ASN695  SER759  ASP760  ASP761  ALA762  ILE779  LEU786  VAL792 
 PHE793  MET794  SER795  GLU796  ALA797  LYS798  CYS799  TRP800  GLU811  SER814 

> <Gold.Protein.RotatedAtoms>
  151.1578  133.4865  159.2594 H   0  0  0  0  0  0  0  0  0  0  0  0  # atno 6907 bound_to 6896
  151.1486  135.0216  159.8668 H   0  0  0  0  0  0  0  0  0  0  0  0  # atno 6908 bound_to 6896
  152.5463  134.1464  159.8553 H   0  0  0  0  0  0  0  0  0  0  0  0  # atno 6909 bound_to 6896
  144.9148  139.5245  143.5691 H   0  0  0  0  0  0  0  0  0  0  0  0  # atno 7974 bound_to 7965
  156.2631  140.2836  156.1109 H   0  0  0  0  0  0  0  0  0  0  0  0  # atno 8008 bound_to 7997
  155.1259  140.0393  157.2779 H   0  0  0  0  0  0  0  0  0  0  0  0  # atno 8009 bound_to 7997
  154.6636  140.2572  155.7088 H   0  0  0  0  0  0  0  0  0  0  0  0  # atno 8010 bound_to 7997
  139.4896  144.5783  151.6921 H   0  0  0  0  0  0  0  0  0  0  0  0  # atno 10167 bound_to 10162
  156.9838  131.0127  151.2874 H   0  0  0  0  0  0  0  0  0  0  0  0  # atno 10718 bound_to 10713
  154.7938  135.3216  154.7714 H   0  0  0  0  0  0  0  0  0  0  0  0  # atno 10763 bound_to 10752
  153.8397  135.6872  153.4808 H   0  0  0  0  0  0  0  0  0  0  0  0  # atno 10764 bound_to 10752
  153.1620  135.4657  154.9727 H   0  0  0  0  0  0  0  0  0  0  0  0  # atno 10765 bound_to 10752
  140.1577  134.8631  157.2534 H   0  0  0  0  0  0  0  0  0  0  0  0  # atno 11005 bound_to 11000
  146.3176  139.7981  142.8971 LP  0  0  0  0  0  0  0  0  0  0  0  0  # atno 17320 bound_to 7965
  145.3394  141.0284  143.3401 LP  0  0  0  0  0  0  0  0  0  0  0  0  # atno 17321 bound_to 7965
  140.5384  144.0618  150.6079 LP  0  0  0  0  0  0  0  0  0  0  0  0  # atno 17342 bound_to 10162
  140.3632  143.2896  152.0360 LP  0  0  0  0  0  0  0  0  0  0  0  0  # atno 17343 bound_to 10162
  157.5507  130.8180  149.8141 LP  0  0  0  0  0  0  0  0  0  0  0  0  # atno 17370 bound_to 10713
  156.0234  130.3788  150.1895 LP  0  0  0  0  0  0  0  0  0  0  0  0  # atno 17371 bound_to 10713
  140.2528  134.3663  155.7436 LP  0  0  0  0  0  0  0  0  0  0  0  0  # atno 17394 bound_to 11000
  141.2206  133.7326  156.8961 LP  0  0  0  0  0  0  0  0  0  0  0  0  # atno 17395 bound_to 11000

$$$$
