AV-unprocessed.smi:1705|AV-procd|sdf|6883|dock2
  -GOLD-   22720 8 93D 1   1.00000     0.00000
 Structure written by MMmdl.
 38 39  0  0  0  0  0  0  0  0  1 V2000
  151.1687  139.5914  154.9539 C   0  0  0  0  0  0  0  0  0  0  0  0
  150.1615  140.0471  156.0201 C   0  0  1  0  0  0  0  0  0  0  0  0
  150.7021  141.1775  156.7627 N   0  0  0  0  0  0  0  0  0  0  0  0
  151.5569  141.1438  157.8612 C   0  0  0  0  0  0  0  0  0  0  0  0
  152.0117  139.9721  158.3902 C   0  0  0  0  0  0  0  0  0  0  0  0
  151.7049  138.6838  157.8527 C   0  0  0  0  0  0  0  0  0  0  0  0
  151.4496  137.6288  157.4492 N   0  0  0  0  0  0  0  0  0  0  0  0
  152.9005  139.9387  159.5500 C   0  0  0  0  0  0  0  0  0  0  0  0
  153.3217  138.8987  160.0623 O   0  0  0  0  0  0  0  0  0  0  0  0
  153.2498  141.2028  160.0653 N   0  0  0  0  0  0  0  0  0  0  0  0
  154.1211  141.2096  161.2243 C   0  0  0  0  0  0  0  0  0  0  0  0
  152.7897  142.4289  159.5430 C   0  0  0  0  0  0  0  0  0  0  0  0
  153.1041  143.5096  160.0513 O   0  0  0  0  0  0  0  0  0  0  0  0
  151.9427  142.3718  158.4088 N   0  0  0  0  0  0  0  0  0  0  0  0
  151.5152  143.6660  157.9148 C   0  0  0  0  0  0  0  0  0  0  0  0
  148.8041  140.4217  155.3971 C   0  0  2  0  0  0  0  0  0  0  0  0
  148.2884  139.4230  154.3594 C   0  0  0  0  0  0  0  0  0  0  0  0
  147.3676  140.2586  153.4848 C   0  0  0  0  0  0  0  0  0  0  0  0
  147.7503  141.7037  153.8155 C   0  0  0  0  0  0  0  0  0  0  0  0
  148.9146  141.6066  154.6240 O   0  0  0  0  0  0  0  0  0  0  0  0
  150.8102  138.7080  154.4252 H   0  0  0  0  0  0  0  0  0  0  0  0
  152.1311  139.3381  155.3983 H   0  0  0  0  0  0  0  0  0  0  0  0
  151.3429  140.3736  154.2143 H   0  0  0  0  0  0  0  0  0  0  0  0
  149.9850  139.2198  156.7062 H   0  0  0  0  0  0  0  0  0  0  0  0
  150.0809  141.9738  156.7466 H   0  0  0  0  0  0  0  0  0  0  0  0
  154.4776  142.2143  161.4492 H   0  0  0  0  0  0  0  0  0  0  0  0
  154.9813  140.5763  160.9983 H   0  0  0  0  0  0  0  0  0  0  0  0
  153.5429  140.8122  162.0600 H   0  0  0  0  0  0  0  0  0  0  0  0
  150.8966  144.1208  158.6905 H   0  0  0  0  0  0  0  0  0  0  0  0
  150.9440  143.5596  156.9954 H   0  0  0  0  0  0  0  0  0  0  0  0
  152.4099  144.2574  157.7109 H   0  0  0  0  0  0  0  0  0  0  0  0
  148.0523  140.5744  156.1743 H   0  0  0  0  0  0  0  0  0  0  0  0
  149.1157  139.0415  153.7593 H   0  0  0  0  0  0  0  0  0  0  0  0
  147.7817  138.5697  154.8107 H   0  0  0  0  0  0  0  0  0  0  0  0
  147.5167  140.0296  152.4291 H   0  0  0  0  0  0  0  0  0  0  0  0
  146.3193  140.0767  153.7237 H   0  0  0  0  0  0  0  0  0  0  0  0
  147.9434  142.3003  152.9237 H   0  0  0  0  0  0  0  0  0  0  0  0
  146.9567  142.1894  154.3850 H   0  0  0  0  0  0  0  0  0  0  0  0
  1  2  1  0  0  0  0
  1 21  1  0  0  0  0
  1 22  1  0  0  0  0
  1 23  1  0  0  0  0
  2  3  1  0  0  0  0
  2 16  1  0  0  0  0
  2 24  1  0  0  0  0
  3  4  1  0  0  0  0
  3 25  1  0  0  0  0
  4 14  1  0  0  0  0
  4  5  2  0  0  0  0
  5  6  1  0  0  0  0
  5  8  1  0  0  0  0
  6  7  3  0  0  0  0
  8  9  2  0  0  0  0
  8 10  1  0  0  0  0
 10 11  1  0  0  0  0
 10 12  1  0  0  0  0
 11 26  1  0  0  0  0
 11 27  1  0  0  0  0
 11 28  1  0  0  0  0
 12 13  2  0  0  0  0
 12 14  1  0  0  0  0
 14 15  1  0  0  0  0
 15 29  1  0  0  0  0
 15 30  1  0  0  0  0
 15 31  1  0  0  0  0
 16 20  1  0  0  0  0
 16 17  1  0  0  0  0
 16 32  1  0  0  0  0
 17 18  1  0  0  0  0
 17 33  1  0  0  0  0
 17 34  1  0  0  0  0
 18 19  1  0  0  0  0
 18 35  1  0  0  0  0
 18 36  1  0  0  0  0
 19 20  1  0  0  0  0
 19 37  1  0  0  0  0
 19 38  1  0  0  0  0
M  END
> <s_m_source_file>
AV-unprocessed.smi

> <i_m_source_file_index>
1705

> <i_lp_mmshare_version>
43012

> <i_f3d_flags>
0

> <s_epik_input>
TzFbQ0gyXVtDSDJdW0NIMl1bQ0BIXTFbQ0BIXShbQ0gzXSlbTkhdYzJjKEMjTiljKD1PKW4oW0NIM10pYyg9TyluMltDSDNd

> <s_epik_cmdline>
J2VwaWtfcHl0aG9uJywgJy1waCcsICc3LjAnLCAnLXRuJywgJzgnLCAnLW1hJywgJzIwMCcsICctbWV0YWxfYmluZGluZycsICctaW1hZScsICc8aW5maWxlLm1hZT4nLCAnLW9tYWUnLCAnPG91dGZpbGUubWFlPic=

> <r_epik_Ionization_Penalty>
0.000446268

> <r_epik_Ionization_Penalty_Charging>
9.41922e-10

> <r_epik_Ionization_Penalty_Neutral>
0.000446267

> <r_epik_State_Penalty>
0.000275531

> <r_epik_Charging_Adjusted_Penalty>
0.000275532

> <i_epik_Tot_Q>
0

> <i_epik_Tot_abs_Q>
0

> <r_epik_Metal_State_Penalty>
-0

> <b_epik_Metal_Only>
0

> <s_lp_Force_Field>
OPLS_2005

> <r_lp_Energy>
36.9916

> <b_lp_Chiralities_Consistent>
1

> <s_lp_Variant>
AV-unprocessed.smi:1705-2

> <Gold.Version>
5.8.1

> <Gold.Id.Protein>
6NUR|6NUR_protein|mol2

> <Gold.PLP.Fitness>
34.0985

> <Gold.PLP.PLP>
-35.0329

> <Gold.PLP.part.hbond>
-0.3248

> <Gold.PLP.part.metal>
0.0000

> <Gold.PLP.part.buried>
-3.1555

> <Gold.PLP.part.nonpolar>
-31.6041

> <Gold.PLP.part.repulsive>
0.2216

> <Gold.PLP.ligand.clash>
7.7832

> <Gold.PLP.ligand.torsion>
0.4810

> <Gold.PLP.Chemscore.Hbond>
0.0000

> <Gold.PLP.Chemscore.CHOScore>
0.0000

> <Gold.PLP.Chemscore.Metal>
0.0000

> <Gold.PLP.Chemscore.Internal.Correction>
7.8108

> <Gold.Rescore>
     Score         DG    S(hbond)    S(metal)    S(lipo)     H(rot)  DE(clash)    DE(int)     intcor
      7.35      -9.87       0.00        0.00      65.50       1.28       0.13       2.40       ----

> <Gold.Chemscore.Fitness>
7.3455

> <Gold.Chemscore.DG>
-9.8715

> <Gold.Chemscore.ZeroCoef>
-5.4800

> <Gold.Chemscore.Hbond>
0.0000

> <Gold.Chemscore.Metal>
0.0000

> <Gold.Chemscore.Lipo>
65.4973

> <Gold.Chemscore.Internal_Hbond>
0.0000

> <Gold.Chemscore.DEClash>
0.1279

> <Gold.Chemscore.DEInternal>
2.3982

> <Gold.Chemscore.Rot>
1.2780

> <Gold.Chemscore.Internal.Correction>
   9.000000E+99

> <Gold.Chemscore.Hbond.Weighted>
-0.0000

> <Gold.Chemscore.Metal.Weighted>
-0.0000

> <Gold.Chemscore.Lipo.Weighted>
-7.6632

> <Gold.Chemscore.Internal_Hbond.Weighted>
0.0000

> <Gold.Chemscore.DEClash.Weighted>
0.1279

> <Gold.Chemscore.DEInternal.Weighted>
2.3982

> <Gold.Chemscore.Rot.Weighted>
3.2717

> <Gold.Chemscore.Internal.Correction.Weighted>
   9.000000E+99

> <Gold.Protein.RotatedTorsions>
[ 6907 6896 6895 6894 ] final -111.57 input  -60.11 | X-H torsion
[ 7974 7965 7964 7962 ] final    6.87 input  175.53 | X-H torsion
[ 8008 7997 7996 7995 ] final -137.87 input   59.86 | X-H torsion
[ 10167 10162 10161 10158 ] final -129.22 input  -65.29 | X-H torsion
[ 10718 10713 10712 10709 ] final   74.68 input   66.30 | X-H torsion
[ 10763 10752 10751 10750 ] final  107.82 input  -60.55 | X-H torsion
[ 11005 11000 10999 10996 ] final  105.80 input  -57.11 | X-H torsion

> <Gold.Protein.ActiveResidues>
 VAL166  LYS551  ARG553  GLY616  TRP617  ASP618  TYR619  PRO620  LYS621  CYS622 
 ASP623  PHE694  ASN695  SER759  ASP760  ASP761  ALA762  ILE779  LEU786  VAL792 
 PHE793  MET794  SER795  GLU796  ALA797  LYS798  CYS799  TRP800  GLU811  SER814 

> <Gold.Protein.RotatedAtoms>
  150.7699  133.9216  159.3399 H   0  0  0  0  0  0  0  0  0  0  0  0  # atno 6907 bound_to 6896
  151.7105  135.0911  160.0276 H   0  0  0  0  0  0  0  0  0  0  0  0  # atno 6908 bound_to 6896
  152.3712  133.6384  159.6124 H   0  0  0  0  0  0  0  0  0  0  0  0  # atno 6909 bound_to 6896
  146.2431  140.0168  142.8401 H   0  0  0  0  0  0  0  0  0  0  0  0  # atno 7974 bound_to 7965
  155.4190  140.0517  157.3027 H   0  0  0  0  0  0  0  0  0  0  0  0  # atno 8008 bound_to 7997
  154.4911  140.2120  155.9505 H   0  0  0  0  0  0  0  0  0  0  0  0  # atno 8009 bound_to 7997
  156.1343  140.3166  155.8402 H   0  0  0  0  0  0  0  0  0  0  0  0  # atno 8010 bound_to 7997
  139.9421  143.6151  152.2500 H   0  0  0  0  0  0  0  0  0  0  0  0  # atno 10167 bound_to 10162
  157.6602  130.9689  150.1245 H   0  0  0  0  0  0  0  0  0  0  0  0  # atno 10718 bound_to 10713
  153.4120  135.3832  155.2056 H   0  0  0  0  0  0  0  0  0  0  0  0  # atno 10763 bound_to 10752
  154.8738  135.3796  154.4489 H   0  0  0  0  0  0  0  0  0  0  0  0  # atno 10764 bound_to 10752
  153.4999  135.7088  153.5900 H   0  0  0  0  0  0  0  0  0  0  0  0  # atno 10765 bound_to 10752
  139.8806  134.9348  156.5569 H   0  0  0  0  0  0  0  0  0  0  0  0  # atno 11005 bound_to 11000
  145.1277  140.9500  143.4563 LP  0  0  0  0  0  0  0  0  0  0  0  0  # atno 17320 bound_to 7965
  145.0418  139.3253  143.5972 LP  0  0  0  0  0  0  0  0  0  0  0  0  # atno 17321 bound_to 7965
  139.6696  144.7661  151.1808 LP  0  0  0  0  0  0  0  0  0  0  0  0  # atno 17342 bound_to 10162
  140.7608  143.5885  150.8821 LP  0  0  0  0  0  0  0  0  0  0  0  0  # atno 17343 bound_to 10162
  156.2108  130.3666  149.8673 LP  0  0  0  0  0  0  0  0  0  0  0  0  # atno 17370 bound_to 10713
  156.6552  130.8760  151.3538 LP  0  0  0  0  0  0  0  0  0  0  0  0  # atno 17371 bound_to 10713
  140.8198  133.8363  155.8885 LP  0  0  0  0  0  0  0  0  0  0  0  0  # atno 17394 bound_to 11000
  140.9429  134.1878  157.4784 LP  0  0  0  0  0  0  0  0  0  0  0  0  # atno 17395 bound_to 11000

$$$$
