AV-unprocessed.smi:21|AV-procd|sdf|145|dock6
  -GOLD-   2262015353D 1   1.00000     0.00000
 Structure written by MMmdl.
 62 65  0  0  0  0  0  0  0  0  2 V2000
  143.4921  132.9956  148.6254 C   0  0  0  0  0  0  0  0  0  0  0  0
  143.4912  131.8318  149.4367 O   0  0  0  0  0  0  0  0  0  0  0  0
  143.8730  132.0764  150.7823 C   0  0  1  0  0  0  0  0  0  0  0  0
  145.1284  132.9332  150.9037 C   0  0  0  0  0  0  0  0  0  0  0  0
  145.0137  133.5496  152.3050 C   0  0  1  0  0  0  0  0  0  0  0  0
  145.8111  134.8664  152.4764 C   0  0  0  0  0  0  0  0  0  0  0  0
  146.6259  134.8741  153.6946 N   0  0  0  0  0  0  0  0  0  0  0  0
  146.1606  135.6694  154.8243 C   0  0  0  0  0  0  0  0  0  0  0  0
  147.5963  133.9332  153.8783 C   0  0  0  0  0  0  0  0  0  0  0  0
  147.6270  132.8705  153.0304 N   0  0  0  0  0  0  0  0  0  0  0  0
  148.5481  131.9131  153.1614 C   0  0  0  0  0  0  0  0  0  0  0  0
  149.5263  131.8178  154.0608 N   0  0  0  0  0  0  0  0  0  0  0  0
  149.5120  132.8770  154.9178 C   0  0  0  0  0  0  0  0  0  0  0  0
  148.5919  133.9664  154.9040 C   0  0  0  0  0  0  0  0  0  0  0  0
  148.8898  134.8308  155.9534 N   0  0  0  0  0  0  0  0  0  0  0  0
  149.9241  134.2944  156.5394 C   0  0  0  0  0  0  0  0  0  0  0  0
  150.3763  133.1277  155.9693 N   0  0  0  0  0  0  0  0  0  0  0  0
  151.4976  132.3207  156.4179 C   0  0  0  0  0  0  0  0  0  0  0  0
  151.2693  130.7880  156.3320 C   0  0  2  0  0  0  0  0  0  0  0  0
  151.5408  130.1534  157.7155 C   0  0  0  0  0  0  0  0  0  0  0  0
  150.7859  130.7774  158.7346 O   0  0  0  0  0  0  0  0  0  0  0  0
  152.0543  130.0823  155.1874 C   0  0  1  0  0  0  0  0  0  0  0  0
  153.5677  130.1841  155.3010 C   0  0  0  0  0  0  0  0  0  0  0  0
  154.0368  129.0710  154.3759 C   0  0  0  0  0  0  0  0  0  0  0  0
  153.0996  128.0240  154.5758 O   0  0  0  0  0  0  0  0  0  0  0  0
  151.8865  128.5565  155.1006 C   0  0  0  0  0  0  0  0  0  0  0  0
  143.5498  133.6305  152.5885 N   0  3  1  0  0  0  0  0  0  0  0  0
  142.9812  134.9603  152.9120 C   0  0  0  0  0  0  0  0  0  0  0  0
  142.8341  132.9455  151.4871 C   0  0  0  0  0  0  0  0  0  0  0  0
  143.9959  131.1412  151.3319 H   0  0  0  0  0  0  0  0  0  0  0  0
  145.3988  132.8215  153.0205 H   0  0  0  0  0  0  0  0  0  0  0  0
  143.2237  132.7265  147.6040 H   0  0  0  0  0  0  0  0  0  0  0  0
  144.4792  133.4592  148.6010 H   0  0  0  0  0  0  0  0  0  0  0  0
  142.7677  133.7313  148.9764 H   0  0  0  0  0  0  0  0  0  0  0  0
  146.0478  132.3620  150.7705 H   0  0  0  0  0  0  0  0  0  0  0  0
  145.1065  133.7171  150.1453 H   0  0  0  0  0  0  0  0  0  0  0  0
  146.4112  135.0716  151.5903 H   0  0  0  0  0  0  0  0  0  0  0  0
  145.1179  135.7038  152.5565 H   0  0  0  0  0  0  0  0  0  0  0  0
  145.5431  135.0675  155.4915 H   0  0  0  0  0  0  0  0  0  0  0  0
  145.5600  136.5127  154.4831 H   0  0  0  0  0  0  0  0  0  0  0  0
  147.0013  136.0748  155.3884 H   0  0  0  0  0  0  0  0  0  0  0  0
  148.4938  131.1090  152.4424 H   0  0  0  0  0  0  0  0  0  0  0  0
  150.3942  134.7447  157.4017 H   0  0  0  0  0  0  0  0  0  0  0  0
  152.3776  132.6020  155.8382 H   0  0  0  0  0  0  0  0  0  0  0  0
  151.7067  132.6080  157.4489 H   0  0  0  0  0  0  0  0  0  0  0  0
  150.2084  130.6248  156.1401 H   0  0  0  0  0  0  0  0  0  0  0  0
  151.2941  129.0914  157.7012 H   0  0  0  0  0  0  0  0  0  0  0  0
  152.5976  130.2126  157.9752 H   0  0  0  0  0  0  0  0  0  0  0  0
  151.2753  131.5166  159.0616 H   0  0  0  0  0  0  0  0  0  0  0  0
  151.7611  130.5161  154.2300 H   0  0  0  0  0  0  0  0  0  0  0  0
  153.9572  131.1584  155.0050 H   0  0  0  0  0  0  0  0  0  0  0  0
  153.8908  129.9804  156.3231 H   0  0  0  0  0  0  0  0  0  0  0  0
  153.9905  129.3938  153.3351 H   0  0  0  0  0  0  0  0  0  0  0  0
  155.0550  128.7451  154.5890 H   0  0  0  0  0  0  0  0  0  0  0  0
  151.7279  128.1190  156.0868 H   0  0  0  0  0  0  0  0  0  0  0  0
  151.0496  128.2703  154.4646 H   0  0  0  0  0  0  0  0  0  0  0  0
  143.1158  135.6636  152.0895 H   0  0  0  0  0  0  0  0  0  0  0  0
  143.4359  135.3766  153.8109 H   0  0  0  0  0  0  0  0  0  0  0  0
  141.9115  134.8709  153.1039 H   0  0  0  0  0  0  0  0  0  0  0  0
  142.4507  133.6882  150.7846 H   0  0  0  0  0  0  0  0  0  0  0  0
  141.9853  132.3688  151.8554 H   0  0  0  0  0  0  0  0  0  0  0  0
  143.4081  133.0609  153.4106 H   0  0  0  0  0  0  0  0  0  0  0  0
  1  2  1  0  0  0  0
  1 32  1  0  0  0  0
  1 33  1  0  0  0  0
  1 34  1  0  0  0  0
  2  3  1  0  0  0  0
  3 30  1  0  0  0  0
  3 29  1  0  0  0  0
  3  4  1  0  0  0  0
  4  5  1  0  0  0  0
  4 35  1  0  0  0  0
  4 36  1  0  0  0  0
  5 31  1  0  0  0  0
  5  6  1  0  0  0  0
  5 27  1  0  0  0  0
  6  7  1  0  0  0  0
  6 37  1  0  0  0  0
  6 38  1  0  0  0  0
  7  8  1  0  0  0  0
  7  9  1  0  0  0  0
  8 39  1  0  0  0  0
  8 40  1  0  0  0  0
  8 41  1  0  0  0  0
  9 14  1  0  0  0  0
  9 10  2  0  0  0  0
 10 11  1  0  0  0  0
 11 12  2  0  0  0  0
 11 42  1  0  0  0  0
 12 13  1  0  0  0  0
 13 17  1  0  0  0  0
 13 14  2  0  0  0  0
 14 15  1  0  0  0  0
 15 16  2  0  0  0  0
 16 17  1  0  0  0  0
 16 43  1  0  0  0  0
 17 18  1  0  0  0  0
 18 19  1  0  0  0  0
 18 44  1  0  0  0  0
 18 45  1  0  0  0  0
 19 20  1  0  0  0  0
 19 22  1  0  0  0  0
 19 46  1  0  0  0  0
 20 21  1  0  0  0  0
 20 47  1  0  0  0  0
 20 48  1  0  0  0  0
 21 49  1  0  0  0  0
 22 26  1  0  0  0  0
 22 23  1  0  0  0  0
 22 50  1  0  0  0  0
 23 24  1  0  0  0  0
 23 51  1  0  0  0  0
 23 52  1  0  0  0  0
 24 25  1  0  0  0  0
 24 53  1  0  0  0  0
 24 54  1  0  0  0  0
 25 26  1  0  0  0  0
 26 55  1  0  0  0  0
 26 56  1  0  0  0  0
 27 28  1  0  0  0  0
 27 29  1  0  0  0  0
 27 62  1  0  0  0  0
 28 57  1  0  0  0  0
 28 58  1  0  0  0  0
 28 59  1  0  0  0  0
 29 60  1  0  0  0  0
 29 61  1  0  0  0  0
M  CHG  1  27   1
M  END
> <s_m_source_file>
AV-unprocessed.smi

> <i_m_source_file_index>
21

> <i_lp_mmshare_version>
43012

> <i_f3d_flags>
0

> <s_epik_input>
W0NIM11PW0NASF0xW0NIMl1bQ0BIXShOKFtDSDNdKVtDSDJdMSlbQ0gyXU4oW0NIM10pYyhuW2NIXW4yKWMoYzIzKW5bY0hdbjNbQ0gyXVtDQEhdKFtDSDJdW09IXSlbQ0BASF00W0NIMl1bQ0gyXU9bQ0gyXTQ=

> <s_epik_cmdline>
J2VwaWtfcHl0aG9uJywgJy1waCcsICc3LjAnLCAnLXRuJywgJzgnLCAnLW1hJywgJzIwMCcsICctbWV0YWxfYmluZGluZycsICctaW1hZScsICc8aW5maWxlLm1hZT4nLCAnLW9tYWUnLCAnPG91dGZpbGUubWFlPic=

> <r_lp_tautomer_probability>
1

> <r_epik_Ionization_Penalty>
0.0157465

> <r_epik_Ionization_Penalty_Charging>
0.015354

> <r_epik_Ionization_Penalty_Neutral>
0.000392529

> <r_epik_State_Penalty>
0.0120612

> <r_epik_Charging_Adjusted_Penalty>
0.0274152

> <i_epik_Tot_Q>
1

> <i_epik_Tot_abs_Q>
1

> <r_epik_Metal_State_Penalty>
0.0121253

> <b_epik_Metal_Only>
0

> <s_lp_Force_Field>
OPLS_2005

> <r_lp_Energy>
60.8003

> <b_lp_Chiralities_Consistent>
1

> <s_lp_Variant>
AV-unprocessed.smi:21-25

> <Gold.Version>
5.8.1

> <Gold.Id.Protein>
6NUR|6NUR_protein|mol2

> <Gold.PLP.Fitness>
48.9169

> <Gold.PLP.PLP>
-41.0279

> <Gold.PLP.part.hbond>
-2.0000

> <Gold.PLP.part.metal>
0.0000

> <Gold.PLP.part.buried>
-4.4486

> <Gold.PLP.part.nonpolar>
-36.2741

> <Gold.PLP.part.repulsive>
0.5456

> <Gold.PLP.ligand.clash>
0.0000

> <Gold.PLP.ligand.torsion>
2.0288

> <Gold.PLP.Chemscore.Hbond>
2.8145

> <Gold.PLP.Chemscore.CHOScore>
1.0000

> <Gold.PLP.Chemscore.Metal>
0.0000

> <Gold.Chemscore.Hbonds>
donor molecule, donor type, donor heavy atom, donor atom, acceptor molecule, acceptor atom, score
      L1  H    27    62       P1 10957  2.00
      P1  H 10785 10796       L1     2  1.00
      L1  C    11    42       P1 10747  1.00

> <Gold.PLP.Chemscore.Internal.Correction>
0.5030

> <Gold.Rescore>
     Score         DG    S(hbond)    S(metal)    S(lipo)     H(rot)  DE(clash)    DE(int)     intcor
      9.32     -13.42       1.61        0.00      89.27       3.08       0.14       3.95       ----

> <Gold.Chemscore.Fitness>
9.3218

> <Gold.Chemscore.DG>
-13.4155

> <Gold.Chemscore.ZeroCoef>
-5.4800

> <Gold.Chemscore.Hbond>
1.6062

> <Gold.Chemscore.Metal>
0.0000

> <Gold.Chemscore.Lipo>
89.2726

> <Gold.Chemscore.Internal_Hbond>
0.0000

> <Gold.Chemscore.DEClash>
0.1413

> <Gold.Chemscore.DEInternal>
3.9523

> <Gold.Chemscore.Rot>
3.0758

> <Gold.Chemscore.Internal.Correction>
   9.000000E+99

> <Gold.Chemscore.Hbonds>
donor molecule, donor type, donor heavy atom, donor atom, acceptor molecule, acceptor atom, score
      L1  H    27    62       P1 10957  0.81
      P1  H 10785 10796       L1     2  0.93

> <Gold.Chemscore.Hbond.Weighted>
-5.3647

> <Gold.Chemscore.Metal.Weighted>
-0.0000

> <Gold.Chemscore.Lipo.Weighted>
-10.4449

> <Gold.Chemscore.Internal_Hbond.Weighted>
0.0000

> <Gold.Chemscore.DEClash.Weighted>
0.1413

> <Gold.Chemscore.DEInternal.Weighted>
3.9523

> <Gold.Chemscore.Rot.Weighted>
7.8741

> <Gold.Chemscore.Internal.Correction.Weighted>
   9.000000E+99

> <Gold.Protein.RotatedTorsions>
[ 6907 6896 6895 6894 ] final  110.17 input  -60.11 | X-H torsion
[ 7974 7965 7964 7962 ] final -127.66 input  175.53 | X-H torsion
[ 8008 7997 7996 7995 ] final  -61.33 input   59.86 | X-H torsion
[ 10167 10162 10161 10158 ] final   38.11 input  -65.29 | X-H torsion
[ 10718 10713 10712 10709 ] final  -92.86 input   66.30 | X-H torsion
[ 10763 10752 10751 10750 ] final  -31.05 input  -60.55 | X-H torsion
[ 11005 11000 10999 10996 ] final  -14.02 input  -57.11 | X-H torsion

> <Gold.Protein.ActiveResidues>
 VAL166  LYS551  ARG553  GLY616  TRP617  ASP618  TYR619  PRO620  LYS621  CYS622 
 ASP623  PHE694  ASN695  SER759  ASP760  ASP761  ALA762  ILE779  LEU786  VAL792 
 PHE793  MET794  SER795  GLU796  ALA797  LYS798  CYS799  TRP800  GLU811  SER814 

> <Gold.Protein.RotatedAtoms>
  152.5032  133.8839  159.7359 H   0  0  0  0  0  0  0  0  0  0  0  0  # atno 6907 bound_to 6896
  150.9294  133.6776  159.2821 H   0  0  0  0  0  0  0  0  0  0  0  0  # atno 6908 bound_to 6896
  151.4125  135.0991  159.9642 H   0  0  0  0  0  0  0  0  0  0  0  0  # atno 6909 bound_to 6896
  144.9748  140.7582  143.4648 H   0  0  0  0  0  0  0  0  0  0  0  0  # atno 7974 bound_to 7965
  154.4442  140.1020  156.6414 H   0  0  0  0  0  0  0  0  0  0  0  0  # atno 8008 bound_to 7997
  155.5498  140.3485  155.4447 H   0  0  0  0  0  0  0  0  0  0  0  0  # atno 8009 bound_to 7997
  156.0537  140.1310  157.0010 H   0  0  0  0  0  0  0  0  0  0  0  0  # atno 8010 bound_to 7997
  140.3968  144.1778  150.6132 H   0  0  0  0  0  0  0  0  0  0  0  0  # atno 10167 bound_to 10162
  156.0007  130.5004  150.5690 H   0  0  0  0  0  0  0  0  0  0  0  0  # atno 10718 bound_to 10713
  153.7910  135.6898  153.4871 H   0  0  0  0  0  0  0  0  0  0  0  0  # atno 10763 bound_to 10752
  153.1749  135.4528  154.9951 H   0  0  0  0  0  0  0  0  0  0  0  0  # atno 10764 bound_to 10752
  154.8044  135.3351  154.7406 H   0  0  0  0  0  0  0  0  0  0  0  0  # atno 10765 bound_to 10752
  140.7821  133.8355  155.9301 H   0  0  0  0  0  0  0  0  0  0  0  0  # atno 11005 bound_to 11000
  145.2505  139.2033  143.4944 LP  0  0  0  0  0  0  0  0  0  0  0  0  # atno 17320 bound_to 7965
  146.3392  140.2418  142.8596 LP  0  0  0  0  0  0  0  0  0  0  0  0  # atno 17321 bound_to 7965
  140.4782  143.2388  151.8993 LP  0  0  0  0  0  0  0  0  0  0  0  0  # atno 17342 bound_to 10162
  139.4786  144.5297  151.8684 LP  0  0  0  0  0  0  0  0  0  0  0  0  # atno 17343 bound_to 10162
  157.3588  131.0746  151.1654 LP  0  0  0  0  0  0  0  0  0  0  0  0  # atno 17370 bound_to 10713
  157.2446  130.6585  149.5904 LP  0  0  0  0  0  0  0  0  0  0  0  0  # atno 17371 bound_to 10713
  140.9472  134.1825  157.4754 LP  0  0  0  0  0  0  0  0  0  0  0  0  # atno 17394 bound_to 11000
  139.8741  134.9895  156.5461 LP  0  0  0  0  0  0  0  0  0  0  0  0  # atno 17395 bound_to 11000

$$$$
