AV-unprocessed.smi:265|AV-procd|sdf|2029|dock9
  -GOLD-   2262021233D 1   1.00000     0.00000
 Structure written by MMmdl.
 52 56  0  0  0  0  0  0  0  0  1 V2000
  147.1320  133.4835  151.7564 C   0  0  0  0  0  0  0  0  0  0  0  0
  145.6854  132.9652  151.7569 C   0  0  2  0  0  0  0  0  0  0  0  0
  145.5398  131.8316  150.9029 O   0  0  0  0  0  0  0  0  0  0  0  0
  144.3679  131.9558  150.1051 C   0  0  0  0  0  0  0  0  0  0  0  0
  143.5308  133.0368  150.7812 C   0  0  0  0  0  0  0  0  0  0  0  0
  144.5914  133.9745  151.3417 C   0  0  2  0  0  0  0  0  0  0  0  0
  145.0585  134.8032  150.2901 O   0  0  0  0  0  0  0  0  0  0  0  0
  144.1029  134.9337  152.4583 C   0  0  0  0  0  0  0  0  0  0  0  0
  145.0830  135.9135  152.9005 N   0  0  0  0  0  0  0  0  0  0  0  0
  145.3546  137.1325  152.3186 C   0  0  0  0  0  0  0  0  0  0  0  0
  146.2862  137.8356  152.9032 N   0  0  0  0  0  0  0  0  0  0  0  0
  146.7007  137.0310  153.9564 C   0  0  0  0  0  0  0  0  0  0  0  0
  147.6716  137.1708  154.9812 C   0  0  0  0  0  0  0  0  0  0  0  0
  148.4369  138.2764  155.0940 N   0  0  0  0  0  0  0  0  0  0  0  0
  149.8486  138.0467  154.7836 C   0  0  0  0  0  0  0  0  0  0  0  0
  150.6282  139.3746  154.7326 C   0  0  0  0  0  0  0  0  0  0  0  0
  150.4169  140.1519  156.0393 C   0  0  1  0  0  0  0  0  0  0  0  0
  151.0263  141.4335  156.0020 O   0  0  0  0  0  0  0  0  0  0  0  0
  150.9842  142.1204  157.2580 C   0  0  0  0  0  0  0  0  0  0  0  0
  149.5900  142.0755  157.9200 C   0  0  0  0  0  0  0  0  0  0  0  0
  149.3398  142.8140  158.8699 O   0  0  0  0  0  0  0  0  0  0  0  0
  148.6955  141.1871  157.4562 N   0  0  0  0  0  0  0  0  0  0  0  0
  148.9138  140.3877  156.2582 C   0  0  2  0  0  0  0  0  0  0  0  0
  148.1750  139.0410  156.3130 C   0  0  0  0  0  0  0  0  0  0  0  0
  147.8181  136.1507  155.8670 N   0  0  0  0  0  0  0  0  0  0  0  0
  147.0574  135.0572  155.7534 C   0  0  0  0  0  0  0  0  0  0  0  0
  146.1112  134.7878  154.8506 N   0  0  0  0  0  0  0  0  0  0  0  0
  145.9633  135.8147  153.9642 C   0  0  0  0  0  0  0  0  0  0  0  0
  150.8402  139.5735  156.8636 H   0  0  0  0  0  0  0  0  0  0  0  0
  148.5194  140.9654  155.4200 H   0  0  0  0  0  0  0  0  0  0  0  0
  147.2367  134.3504  152.4090 H   0  0  0  0  0  0  0  0  0  0  0  0
  147.4566  133.7719  150.7566 H   0  0  0  0  0  0  0  0  0  0  0  0
  147.8174  132.7152  152.1143 H   0  0  0  0  0  0  0  0  0  0  0  0
  145.4634  132.5836  152.7522 H   0  0  0  0  0  0  0  0  0  0  0  0
  144.6593  132.2684  149.1016 H   0  0  0  0  0  0  0  0  0  0  0  0
  143.8388  131.0061  150.0229 H   0  0  0  0  0  0  0  0  0  0  0  0
  142.8290  133.5231  150.1025 H   0  0  0  0  0  0  0  0  0  0  0  0
  142.9545  132.5740  151.5812 H   0  0  0  0  0  0  0  0  0  0  0  0
  145.2349  134.2620  149.5359 H   0  0  0  0  0  0  0  0  0  0  0  0
  143.2176  135.4744  152.1200 H   0  0  0  0  0  0  0  0  0  0  0  0
  143.7889  134.3592  153.3309 H   0  0  0  0  0  0  0  0  0  0  0  0
  144.8306  137.4897  151.4439 H   0  0  0  0  0  0  0  0  0  0  0  0
  150.2846  137.3931  155.5406 H   0  0  0  0  0  0  0  0  0  0  0  0
  149.9357  137.5299  153.8268 H   0  0  0  0  0  0  0  0  0  0  0  0
  151.6893  139.1821  154.5730 H   0  0  0  0  0  0  0  0  0  0  0  0
  150.2857  139.9706  153.8856 H   0  0  0  0  0  0  0  0  0  0  0  0
  151.7078  141.6693  157.9380 H   0  0  0  0  0  0  0  0  0  0  0  0
  151.2876  143.1565  157.1064 H   0  0  0  0  0  0  0  0  0  0  0  0
  147.7936  141.1249  157.9058 H   0  0  0  0  0  0  0  0  0  0  0  0
  147.1018  139.2077  156.4183 H   0  0  0  0  0  0  0  0  0  0  0  0
  148.5002  138.4682  157.1829 H   0  0  0  0  0  0  0  0  0  0  0  0
  147.2303  134.2885  156.4922 H   0  0  0  0  0  0  0  0  0  0  0  0
  1  2  1  0  0  0  0
  1 31  1  0  0  0  0
  1 32  1  0  0  0  0
  1 33  1  0  0  0  0
  2  6  1  0  0  0  0
  2  3  1  0  0  0  0
  2 34  1  0  0  0  0
  3  4  1  0  0  0  0
  4  5  1  0  0  0  0
  4 35  1  0  0  0  0
  4 36  1  0  0  0  0
  5  6  1  0  0  0  0
  5 37  1  0  0  0  0
  5 38  1  0  0  0  0
  6  7  1  0  0  0  0
  6  8  1  0  0  0  0
  7 39  1  0  0  0  0
  8  9  1  0  0  0  0
  8 40  1  0  0  0  0
  8 41  1  0  0  0  0
  9 28  1  0  0  0  0
  9 10  1  0  0  0  0
 10 11  2  0  0  0  0
 10 42  1  0  0  0  0
 11 12  1  0  0  0  0
 12 28  2  0  0  0  0
 12 13  1  0  0  0  0
 13 14  1  0  0  0  0
 13 25  2  0  0  0  0
 14 24  1  0  0  0  0
 14 15  1  0  0  0  0
 15 16  1  0  0  0  0
 15 43  1  0  0  0  0
 15 44  1  0  0  0  0
 16 17  1  0  0  0  0
 16 45  1  0  0  0  0
 16 46  1  0  0  0  0
 17 29  1  0  0  0  0
 17 23  1  0  0  0  0
 17 18  1  0  0  0  0
 18 19  1  0  0  0  0
 19 20  1  0  0  0  0
 19 47  1  0  0  0  0
 19 48  1  0  0  0  0
 20 21  2  0  0  0  0
 20 22  1  0  0  0  0
 22 23  1  0  0  0  0
 22 49  1  0  0  0  0
 23 30  1  0  0  0  0
 23 24  1  0  0  0  0
 24 50  1  0  0  0  0
 24 51  1  0  0  0  0
 25 26  1  0  0  0  0
 26 27  2  0  0  0  0
 26 52  1  0  0  0  0
 27 28  1  0  0  0  0
M  END
> <s_m_source_file>
AV-unprocessed.smi

> <i_m_source_file_index>
265

> <i_lp_mmshare_version>
43012

> <i_f3d_flags>
0

> <s_epik_input>
W0NIMl0xW0NIMl1PW0NAQEhdKFtDSDNdKVtDQEBdMShbT0hdKVtDSDJdbihbY0hdbjIpYyhjMjMpbltjSF1uYzNOKFtDSDJdW0NIMl00KVtDSDJdW0NAQEhdKFtDQEhdNDUpW05IXUMoPU8pW0NIMl1PNQ==

> <s_epik_cmdline>
J2VwaWtfcHl0aG9uJywgJy1waCcsICc3LjAnLCAnLXRuJywgJzgnLCAnLW1hJywgJzIwMCcsICctbWV0YWxfYmluZGluZycsICctaW1hZScsICc8aW5maWxlLm1hZT4nLCAnLW9tYWUnLCAnPG91dGZpbGUubWFlPic=

> <r_lp_tautomer_probability>
1

> <r_epik_Ionization_Penalty>
0.00221504

> <r_epik_Ionization_Penalty_Charging>
0

> <r_epik_Ionization_Penalty_Neutral>
0.00221504

> <r_epik_State_Penalty>
-0

> <r_epik_Charging_Adjusted_Penalty>
0

> <i_epik_Tot_Q>
0

> <i_epik_Tot_abs_Q>
0

> <r_epik_Metal_State_Penalty>
-0

> <b_epik_Metal_Only>
0

> <s_lp_Force_Field>
OPLS_2005

> <r_lp_Energy>
49.142

> <b_lp_Chiralities_Consistent>
1

> <s_lp_Variant>
AV-unprocessed.smi:265-15

> <Gold.Version>
5.8.1

> <Gold.Id.Protein>
6NUR|6NUR_protein|mol2

> <Gold.PLP.Fitness>
34.4199

> <Gold.PLP.PLP>
-30.2410

> <Gold.PLP.part.hbond>
-2.0493

> <Gold.PLP.part.metal>
0.0000

> <Gold.PLP.part.buried>
-2.3776

> <Gold.PLP.part.nonpolar>
-25.5481

> <Gold.PLP.part.repulsive>
0.8277

> <Gold.PLP.ligand.clash>
0.0000

> <Gold.PLP.ligand.torsion>
0.4925

> <Gold.PLP.Chemscore.Hbond>
0.6503

> <Gold.PLP.Chemscore.CHOScore>
1.0000

> <Gold.PLP.Chemscore.Metal>
0.0000

> <Gold.Chemscore.Hbonds>
donor molecule, donor type, donor heavy atom, donor atom, acceptor molecule, acceptor atom, score
      L1  H     7    39       P1  7921  0.37
      L1  C    10    42       P1 10171  1.00

> <Gold.PLP.Chemscore.Internal.Correction>
0.2132

> <Gold.Rescore>
     Score         DG    S(hbond)    S(metal)    S(lipo)     H(rot)  DE(clash)    DE(int)     intcor
      9.62     -10.39       0.67        0.00      71.99       2.25       0.29       0.48       ----

> <Gold.Chemscore.Fitness>
9.6170

> <Gold.Chemscore.DG>
-10.3854

> <Gold.Chemscore.ZeroCoef>
-5.4800

> <Gold.Chemscore.Hbond>
0.6678

> <Gold.Chemscore.Metal>
0.0000

> <Gold.Chemscore.Lipo>
71.9894

> <Gold.Chemscore.Internal_Hbond>
0.0000

> <Gold.Chemscore.DEClash>
0.2933

> <Gold.Chemscore.DEInternal>
0.4751

> <Gold.Chemscore.Rot>
2.2453

> <Gold.Chemscore.Internal.Correction>
   9.000000E+99

> <Gold.Chemscore.Hbonds>
donor molecule, donor type, donor heavy atom, donor atom, acceptor molecule, acceptor atom, score
      L1  H     7    39       P1  7921  0.36

> <Gold.Chemscore.Hbond.Weighted>
-2.2305

> <Gold.Chemscore.Metal.Weighted>
-0.0000

> <Gold.Chemscore.Lipo.Weighted>
-8.4228

> <Gold.Chemscore.Internal_Hbond.Weighted>
0.0000

> <Gold.Chemscore.DEClash.Weighted>
0.2933

> <Gold.Chemscore.DEInternal.Weighted>
0.4751

> <Gold.Chemscore.Rot.Weighted>
5.7479

> <Gold.Chemscore.Internal.Correction.Weighted>
   9.000000E+99

> <Gold.Protein.RotatedTorsions>
[ 6907 6896 6895 6894 ] final  -50.81 input  -60.11 | X-H torsion
[ 7974 7965 7964 7962 ] final  165.63 input  175.53 | X-H torsion
[ 8008 7997 7996 7995 ] final  -76.14 input   59.86 | X-H torsion
[ 10167 10162 10161 10158 ] final -122.98 input  -65.29 | X-H torsion
[ 10718 10713 10712 10709 ] final -155.37 input   66.30 | X-H torsion
[ 10763 10752 10751 10750 ] final  -69.16 input  -60.55 | X-H torsion
[ 11005 11000 10999 10996 ] final  -80.16 input  -57.11 | X-H torsion

> <Gold.Protein.ActiveResidues>
 VAL166  LYS551  ARG553  GLY616  TRP617  ASP618  TYR619  PRO620  LYS621  CYS622 
 ASP623  PHE694  ASN695  SER759  ASP760  ASP761  ALA762  ILE779  LEU786  VAL792 
 PHE793  MET794  SER795  GLU796  ALA797  LYS798  CYS799  TRP800  GLU811  SER814 

> <Gold.Protein.RotatedAtoms>
  150.8671  134.8037  159.7126 H   0  0  0  0  0  0  0  0  0  0  0  0  # atno 6907 bound_to 6896
  152.4689  134.5006  159.9733 H   0  0  0  0  0  0  0  0  0  0  0  0  # atno 6908 bound_to 6896
  151.5101  133.3448  159.2919 H   0  0  0  0  0  0  0  0  0  0  0  0  # atno 6909 bound_to 6896
  144.7495  139.8498  143.6371 H   0  0  0  0  0  0  0  0  0  0  0  0  # atno 7974 bound_to 7965
  154.5478  140.0732  156.8618 H   0  0  0  0  0  0  0  0  0  0  0  0  # atno 8008 bound_to 7997
  155.3052  140.3387  155.4228 H   0  0  0  0  0  0  0  0  0  0  0  0  # atno 8009 bound_to 7997
  156.1934  140.1694  156.8032 H   0  0  0  0  0  0  0  0  0  0  0  0  # atno 8010 bound_to 7997
  140.0084  143.5467  152.2274 H   0  0  0  0  0  0  0  0  0  0  0  0  # atno 10167 bound_to 10162
  156.5119  130.8439  151.2649 H   0  0  0  0  0  0  0  0  0  0  0  0  # atno 10718 bound_to 10713
  154.3994  135.6034  153.5889 H   0  0  0  0  0  0  0  0  0  0  0  0  # atno 10763 bound_to 10752
  152.9788  135.5903  154.4202 H   0  0  0  0  0  0  0  0  0  0  0  0  # atno 10764 bound_to 10752
  154.3998  135.2843  155.2082 H   0  0  0  0  0  0  0  0  0  0  0  0  # atno 10765 bound_to 10752
  141.1668  133.7137  156.8230 H   0  0  0  0  0  0  0  0  0  0  0  0  # atno 11005 bound_to 11000
  146.1423  139.4484  143.0101 LP  0  0  0  0  0  0  0  0  0  0  0  0  # atno 17320 bound_to 7965
  145.6998  141.0139  143.1510 LP  0  0  0  0  0  0  0  0  0  0  0  0  # atno 17321 bound_to 7965
  139.6222  144.7631  151.2715 LP  0  0  0  0  0  0  0  0  0  0  0  0  # atno 17342 bound_to 10162
  140.7391  143.6627  150.8150 LP  0  0  0  0  0  0  0  0  0  0  0  0  # atno 17343 bound_to 10162
  157.7449  130.9947  150.2716 LP  0  0  0  0  0  0  0  0  0  0  0  0  # atno 17370 bound_to 10713
  156.3232  130.3789  149.7556 LP  0  0  0  0  0  0  0  0  0  0  0  0  # atno 17371 bound_to 10713
  140.2105  134.8831  157.3269 LP  0  0  0  0  0  0  0  0  0  0  0  0  # atno 17394 bound_to 11000
  140.2091  134.4160  155.7622 LP  0  0  0  0  0  0  0  0  0  0  0  0  # atno 17395 bound_to 11000

$$$$
