AV-unprocessed.smi:2059|AV-procd|sdf|8351|dock7
  -GOLD-   2272011 23D 1   1.00000     0.00000
 Structure written by MMmdl.
 29 30  0  0  0  0  0  0  0  0  2 V2000
  145.4871  134.7178  162.8025 C   0  0  0  0  0  0  0  0  0  0  0  0
  146.5394  135.3926  161.9908 C   0  0  0  0  0  0  0  0  0  0  0  0
  147.6520  134.9308  161.3470 C   0  0  0  0  0  0  0  0  0  0  0  0
  148.2042  136.1057  160.7683 C   0  0  0  0  0  0  0  0  0  0  0  0
  149.3259  136.1655  160.0289 N   0  5  0  0  0  0  0  0  0  0  0  0
  149.3925  136.8258  158.8423 C   0  0  0  0  0  0  0  0  0  0  0  0
  149.1564  136.2921  157.7590 O   0  0  0  0  0  0  0  0  0  0  0  0
  149.7370  138.1279  158.8646 N   0  0  0  0  0  0  0  0  0  0  0  0
  149.8544  139.0086  157.7070 C   0  0  1  0  0  0  0  0  0  0  0  0
  150.4028  140.3864  158.1211 C   0  0  0  0  0  0  0  0  0  0  0  0
  150.8426  141.1395  156.8600 C   0  0  0  0  0  0  0  0  0  0  0  0
  151.4101  139.8591  155.6774 S   0  0  0  0  0  0  0  0  0  0  0  0
  150.6382  139.9860  154.4318 O   0  0  0  0  0  0  0  0  0  0  0  0
  152.8805  139.8267  155.6556 O   0  0  0  0  0  0  0  0  0  0  0  0
  150.7934  138.4263  156.6380 C   0  0  0  0  0  0  0  0  0  0  0  0
  147.4962  137.1877  161.0468 N   0  0  0  0  0  0  0  0  0  0  0  0
  146.4233  136.7379  161.8257 O   0  0  0  0  0  0  0  0  0  0  0  0
  145.8924  134.3875  163.7589 H   0  0  0  0  0  0  0  0  0  0  0  0
  145.0975  133.8441  162.2801 H   0  0  0  0  0  0  0  0  0  0  0  0
  144.6530  135.3905  163.0030 H   0  0  0  0  0  0  0  0  0  0  0  0
  148.0141  133.9150  161.2962 H   0  0  0  0  0  0  0  0  0  0  0  0
  149.9310  138.5374  159.7669 H   0  0  0  0  0  0  0  0  0  0  0  0
  148.8686  139.1608  157.2636 H   0  0  0  0  0  0  0  0  0  0  0  0
  149.6730  140.9581  158.6953 H   0  0  0  0  0  0  0  0  0  0  0  0
  151.2735  140.2469  158.7634 H   0  0  0  0  0  0  0  0  0  0  0  0
  149.9986  141.6614  156.4091 H   0  0  0  0  0  0  0  0  0  0  0  0
  151.6383  141.8599  157.0494 H   0  0  0  0  0  0  0  0  0  0  0  0
  151.6533  137.9347  157.0942 H   0  0  0  0  0  0  0  0  0  0  0  0
  150.2962  137.7153  155.9781 H   0  0  0  0  0  0  0  0  0  0  0  0
  1  2  1  0  0  0  0
  1 18  1  0  0  0  0
  1 19  1  0  0  0  0
  1 20  1  0  0  0  0
  2 17  1  0  0  0  0
  2  3  2  0  0  0  0
  3  4  1  0  0  0  0
  3 21  1  0  0  0  0
  4  5  1  0  0  0  0
  4 16  2  0  0  0  0
  5  6  1  0  0  0  0
  6  7  2  0  0  0  0
  6  8  1  0  0  0  0
  8  9  1  0  0  0  0
  8 22  1  0  0  0  0
  9 15  1  0  0  0  0
  9 10  1  0  0  0  0
  9 23  1  0  0  0  0
 10 11  1  0  0  0  0
 10 24  1  0  0  0  0
 10 25  1  0  0  0  0
 11 12  1  0  0  0  0
 11 26  1  0  0  0  0
 11 27  1  0  0  0  0
 12 13  2  0  0  0  0
 12 14  2  0  0  0  0
 12 15  1  0  0  0  0
 15 28  1  0  0  0  0
 15 29  1  0  0  0  0
 16 17  1  0  0  0  0
M  CHG  1   5  -1
M  END
> <s_m_source_file>
AV-unprocessed.smi

> <i_m_source_file_index>
2059

> <i_lp_mmshare_version>
43012

> <i_f3d_flags>
0

> <s_epik_input>
W0NIM11jMVtjSF1jKG5vMSlbTkhdQyg9TylbTkhdW0NAQEhdKFtDSDJdMilbQ0gyXVtDSDJdUzIoPU8pPU8=

> <s_epik_cmdline>
J2VwaWtfcHl0aG9uJywgJy1waCcsICc3LjAnLCAnLXRuJywgJzgnLCAnLW1hJywgJzIwMCcsICctbWV0YWxfYmluZGluZycsICctaW1hZScsICc8aW5maWxlLm1hZT4nLCAnLW9tYWUnLCAnPG91dGZpbGUubWFlPic=

> <r_lp_tautomer_probability>
1

> <r_epik_Ionization_Penalty>
6.15571

> <r_epik_Ionization_Penalty_Charging>
6.1556

> <r_epik_Ionization_Penalty_Neutral>
0.000110918

> <r_epik_State_Penalty>
6.15558

> <r_epik_Charging_Adjusted_Penalty>
12.3112

> <i_epik_Tot_Q>
-1

> <i_epik_Tot_abs_Q>
1

> <r_epik_Metal_State_Penalty>
2.1059

> <b_epik_Metal_Only>
1

> <s_lp_Force_Field>
OPLS_2005

> <r_lp_Energy>
-1.66836

> <b_lp_Chiralities_Consistent>
1

> <s_lp_Variant>
AV-unprocessed.smi:2059-4

> <Gold.Version>
5.8.1

> <Gold.Id.Protein>
6NUR|6NUR_protein|mol2

> <Gold.PLP.Fitness>
40.6458

> <Gold.PLP.PLP>
-25.4258

> <Gold.PLP.part.hbond>
-5.0640

> <Gold.PLP.part.metal>
0.0000

> <Gold.PLP.part.buried>
-5.1928

> <Gold.PLP.part.nonpolar>
-16.2818

> <Gold.PLP.part.repulsive>
0.3044

> <Gold.PLP.ligand.clash>
0.0000

> <Gold.PLP.ligand.torsion>
1.1995

> <Gold.PLP.Chemscore.Hbond>
5.8720

> <Gold.PLP.Chemscore.CHOScore>
0.0000

> <Gold.PLP.Chemscore.Metal>
0.0000

> <Gold.Chemscore.Hbonds>
donor molecule, donor type, donor heavy atom, donor atom, acceptor molecule, acceptor atom, score
      P1  H  6896  6908       L1     5  1.90
      P1  H  6931  6943       L1    16  0.69
      P1  H  6934  6947       L1    16  0.99
      P1  H  7989  7998       L1    13  1.00
      P1  H  7997  8009       L1    14  1.00

> <Gold.PLP.Chemscore.Internal.Correction>
0.0031

> <Gold.Rescore>
     Score         DG    S(hbond)    S(metal)    S(lipo)     H(rot)  DE(clash)    DE(int)     intcor
     15.56     -17.89       3.12        0.00      38.85       1.00       0.01       2.32       ----

> <Gold.Chemscore.Fitness>
15.5648

> <Gold.Chemscore.DG>
-17.8869

> <Gold.Chemscore.ZeroCoef>
-5.4800

> <Gold.Chemscore.Hbond>
3.1202

> <Gold.Chemscore.Metal>
0.0000

> <Gold.Chemscore.Lipo>
38.8487

> <Gold.Chemscore.Internal_Hbond>
0.0000

> <Gold.Chemscore.DEClash>
0.0060

> <Gold.Chemscore.DEInternal>
2.3161

> <Gold.Chemscore.Rot>
1.0000

> <Gold.Chemscore.Internal.Correction>
   9.000000E+99

> <Gold.Chemscore.Hbonds>
donor molecule, donor type, donor heavy atom, donor atom, acceptor molecule, acceptor atom, score
      P1  H  6896  6908       L1     5  0.20
      P1  H  6931  6943       L1    16  0.11
      P1  H  6934  6947       L1    16  0.37
      P1  H  7989  7998       L1    13  0.39
      P1  H  7997  8009       L1    14  0.97

> <Gold.Chemscore.Hbond.Weighted>
-10.4216

> <Gold.Chemscore.Metal.Weighted>
-0.0000

> <Gold.Chemscore.Lipo.Weighted>
-4.5453

> <Gold.Chemscore.Internal_Hbond.Weighted>
0.0000

> <Gold.Chemscore.DEClash.Weighted>
0.0060

> <Gold.Chemscore.DEInternal.Weighted>
2.3161

> <Gold.Chemscore.Rot.Weighted>
2.5600

> <Gold.Chemscore.Internal.Correction.Weighted>
   9.000000E+99

> <Gold.Protein.RotatedTorsions>
[ 6907 6896 6895 6894 ] final -176.00 input  -60.11 | X-H torsion
[ 7974 7965 7964 7962 ] final -107.35 input  175.53 | X-H torsion
[ 8008 7997 7996 7995 ] final -131.90 input   59.86 | X-H torsion
[ 10167 10162 10161 10158 ] final -175.66 input  -65.29 | X-H torsion
[ 10718 10713 10712 10709 ] final  -78.32 input   66.30 | X-H torsion
[ 10763 10752 10751 10750 ] final   57.26 input  -60.55 | X-H torsion
[ 11005 11000 10999 10996 ] final   17.37 input  -57.11 | X-H torsion

> <Gold.Protein.ActiveResidues>
 VAL166  LYS551  ARG553  GLY616  TRP617  ASP618  TYR619  PRO620  LYS621  CYS622 
 ASP623  PHE694  ASN695  SER759  ASP760  ASP761  ALA762  ILE779  LEU786  VAL792 
 PHE793  MET794  SER795  GLU796  ALA797  LYS798  CYS799  TRP800  GLU811  SER814 

> <Gold.Protein.RotatedAtoms>
  151.5977  133.3359  159.3040 H   0  0  0  0  0  0  0  0  0  0  0  0  # atno 6907 bound_to 6896
  150.8225  134.7443  159.6796 H   0  0  0  0  0  0  0  0  0  0  0  0  # atno 6908 bound_to 6896
  152.4317  134.5770  159.9989 H   0  0  0  0  0  0  0  0  0  0  0  0  # atno 6909 bound_to 6896
  145.2065  140.9078  143.3339 H   0  0  0  0  0  0  0  0  0  0  0  0  # atno 7974 bound_to 7965
  155.3201  140.0461  157.3039 H   0  0  0  0  0  0  0  0  0  0  0  0  # atno 8008 bound_to 7997
  154.5385  140.2280  155.8647 H   0  0  0  0  0  0  0  0  0  0  0  0  # atno 8009 bound_to 7997
  156.1858  140.3063  155.9242 H   0  0  0  0  0  0  0  0  0  0  0  0  # atno 8010 bound_to 7997
  139.5569  144.1966  152.1174 H   0  0  0  0  0  0  0  0  0  0  0  0  # atno 10167 bound_to 10162
  156.0121  130.4515  150.3478 H   0  0  0  0  0  0  0  0  0  0  0  0  # atno 10718 bound_to 10713
  152.9847  135.5647  154.5363 H   0  0  0  0  0  0  0  0  0  0  0  0  # atno 10763 bound_to 10752
  154.4825  135.2789  155.1561 H   0  0  0  0  0  0  0  0  0  0  0  0  # atno 10764 bound_to 10752
  154.3064  135.6297  153.5500 H   0  0  0  0  0  0  0  0  0  0  0  0  # atno 10765 bound_to 10752
  140.4367  134.1364  155.7686 H   0  0  0  0  0  0  0  0  0  0  0  0  # atno 11005 bound_to 11000
  144.9897  139.3701  143.6221 LP  0  0  0  0  0  0  0  0  0  0  0  0  # atno 17320 bound_to 7965
  146.3407  139.9075  142.8785 LP  0  0  0  0  0  0  0  0  0  0  0  0  # atno 17321 bound_to 7965
  140.1472  144.5148  150.6708 LP  0  0  0  0  0  0  0  0  0  0  0  0  # atno 17342 bound_to 10162
  140.6843  143.2342  151.5301 LP  0  0  0  0  0  0  0  0  0  0  0  0  # atno 17343 bound_to 10162
  157.1571  131.0336  151.2858 LP  0  0  0  0  0  0  0  0  0  0  0  0  # atno 17370 bound_to 10713
  157.4342  130.7508  149.7015 LP  0  0  0  0  0  0  0  0  0  0  0  0  # atno 17371 bound_to 10713
  141.1723  133.8584  157.1532 LP  0  0  0  0  0  0  0  0  0  0  0  0  # atno 17394 bound_to 11000
  140.0097  134.9993  157.0369 LP  0  0  0  0  0  0  0  0  0  0  0  0  # atno 17395 bound_to 11000

$$$$
