AV-unprocessed.smi:1018|AV-procd|sdf|4440|dock1
  -GOLD-   22720 2403D 1   1.00000     0.00000
 Structure written by MMmdl.
 52 53  0  0  0  0  0  0  0  0  1 V2000
  153.4888  141.6858  160.4207 C   0  0  0  0  0  0  0  0  0  0  0  0
  152.4163  142.2271  159.4697 C   0  0  2  0  0  0  0  0  0  0  0  0
  152.1033  141.2361  158.3343 C   0  0  0  0  0  0  0  0  0  0  0  0
  151.1748  141.8361  157.3820 N   0  0  0  0  0  0  0  0  0  0  0  0
  150.5205  140.9472  156.5022 C   0  0  0  0  0  0  0  0  0  0  0  0
  151.2675  140.1870  155.5716 C   0  0  0  0  0  0  0  0  0  0  0  0
  150.5975  139.2943  154.7135 C   0  0  0  0  0  0  0  0  0  0  0  0
  149.1921  139.1735  154.8130 C   0  0  0  0  0  0  0  0  0  0  0  0
  148.4002  138.3118  154.0067 N   0  0  0  0  0  0  0  0  0  0  0  0
  147.0715  138.3424  153.8053 C   0  0  0  0  0  0  0  0  0  0  0  0
  146.2849  139.1185  154.3472 O   0  0  0  0  0  0  0  0  0  0  0  0
  146.6986  137.4195  152.9092 N   0  0  0  0  0  0  0  0  0  0  0  0
  145.3321  137.2222  152.4273 C   0  0  0  0  0  0  0  0  0  0  0  0
  145.0287  135.7460  152.0534 C   0  0  0  0  0  0  0  0  0  0  0  0
  143.4970  135.5209  152.0332 C   0  0  0  0  0  0  0  0  0  0  0  0
  145.5672  135.4568  150.6353 C   0  0  0  0  0  0  0  0  0  0  0  0
  145.7009  134.7808  153.0635 C   0  0  0  0  0  0  0  0  0  0  0  0
  147.0273  134.8652  153.2102 N   0  0  0  0  0  0  0  0  0  0  0  0
  145.0395  133.9725  153.7138 O   0  0  0  0  0  0  0  0  0  0  0  0
  148.5332  139.9834  155.7588 C   0  0  0  0  0  0  0  0  0  0  0  0
  149.1717  140.8395  156.5836 N   0  0  0  0  0  0  0  0  0  0  0  0
  151.6374  143.1182  156.8555 C   0  0  0  0  0  0  0  0  0  0  0  0
  151.9978  144.0861  157.9995 C   0  0  1  0  0  0  0  0  0  0  0  0
  150.7674  144.6841  158.7052 C   0  0  0  0  0  0  0  0  0  0  0  0
  152.8929  143.4543  158.9178 O   0  0  0  0  0  0  0  0  0  0  0  0
  153.1692  140.7502  160.8801 H   0  0  0  0  0  0  0  0  0  0  0  0
  153.6938  142.3961  161.2221 H   0  0  0  0  0  0  0  0  0  0  0  0
  154.4252  141.4981  159.8943 H   0  0  0  0  0  0  0  0  0  0  0  0
  151.5136  142.4121  160.0521 H   0  0  0  0  0  0  0  0  0  0  0  0
  153.0194  140.9694  157.8053 H   0  0  0  0  0  0  0  0  0  0  0  0
  151.7087  140.3160  158.7625 H   0  0  0  0  0  0  0  0  0  0  0  0
  152.3431  140.2644  155.5161 H   0  0  0  0  0  0  0  0  0  0  0  0
  151.1747  138.7290  153.9986 H   0  0  0  0  0  0  0  0  0  0  0  0
  148.9175  137.6534  153.4426 H   0  0  0  0  0  0  0  0  0  0  0  0
  147.4111  136.8254  152.5105 H   0  0  0  0  0  0  0  0  0  0  0  0
  144.6477  137.5578  153.2076 H   0  0  0  0  0  0  0  0  0  0  0  0
  145.1449  137.8662  151.5658 H   0  0  0  0  0  0  0  0  0  0  0  0
  143.0099  136.1948  151.3276 H   0  0  0  0  0  0  0  0  0  0  0  0
  143.0409  135.6933  153.0090 H   0  0  0  0  0  0  0  0  0  0  0  0
  143.2464  134.5028  151.7312 H   0  0  0  0  0  0  0  0  0  0  0  0
  145.0595  136.0699  149.8897 H   0  0  0  0  0  0  0  0  0  0  0  0
  145.4168  134.4135  150.3539 H   0  0  0  0  0  0  0  0  0  0  0  0
  146.6334  135.6710  150.5507 H   0  0  0  0  0  0  0  0  0  0  0  0
  147.5032  134.2523  153.8561 H   0  0  0  0  0  0  0  0  0  0  0  0
  147.5490  135.5412  152.6713 H   0  0  0  0  0  0  0  0  0  0  0  0
  147.4593  139.9385  155.8659 H   0  0  0  0  0  0  0  0  0  0  0  0
  152.5154  142.9428  156.2322 H   0  0  0  0  0  0  0  0  0  0  0  0
  150.8767  143.5721  156.2190 H   0  0  0  0  0  0  0  0  0  0  0  0
  152.5481  144.9214  157.5658 H   0  0  0  0  0  0  0  0  0  0  0  0
  150.1737  145.2764  158.0087 H   0  0  0  0  0  0  0  0  0  0  0  0
  151.0683  145.3393  159.5227 H   0  0  0  0  0  0  0  0  0  0  0  0
  150.1110  143.9167  159.1149 H   0  0  0  0  0  0  0  0  0  0  0  0
  1  2  1  0  0  0  0
  1 26  1  0  0  0  0
  1 27  1  0  0  0  0
  1 28  1  0  0  0  0
  2 25  1  0  0  0  0
  2  3  1  0  0  0  0
  2 29  1  0  0  0  0
  3  4  1  0  0  0  0
  3 30  1  0  0  0  0
  3 31  1  0  0  0  0
  4  5  1  0  0  0  0
  4 22  1  0  0  0  0
  5 21  1  0  0  0  0
  5  6  2  0  0  0  0
  6  7  1  0  0  0  0
  6 32  1  0  0  0  0
  7  8  2  0  0  0  0
  7 33  1  0  0  0  0
  8  9  1  0  0  0  0
  8 20  1  0  0  0  0
  9 10  1  0  0  0  0
  9 34  1  0  0  0  0
 10 11  2  0  0  0  0
 10 12  1  0  0  0  0
 12 13  1  0  0  0  0
 12 35  1  0  0  0  0
 13 14  1  0  0  0  0
 13 36  1  0  0  0  0
 13 37  1  0  0  0  0
 14 15  1  0  0  0  0
 14 16  1  0  0  0  0
 14 17  1  0  0  0  0
 15 38  1  0  0  0  0
 15 39  1  0  0  0  0
 15 40  1  0  0  0  0
 16 41  1  0  0  0  0
 16 42  1  0  0  0  0
 16 43  1  0  0  0  0
 17 18  1  0  0  0  0
 17 19  2  0  0  0  0
 18 44  1  0  0  0  0
 18 45  1  0  0  0  0
 20 21  2  0  0  0  0
 20 46  1  0  0  0  0
 22 23  1  0  0  0  0
 22 47  1  0  0  0  0
 22 48  1  0  0  0  0
 23 24  1  0  0  0  0
 23 25  1  0  0  0  0
 23 49  1  0  0  0  0
 24 50  1  0  0  0  0
 24 51  1  0  0  0  0
 24 52  1  0  0  0  0
M  END
> <s_m_source_file>
AV-unprocessed.smi

> <i_m_source_file_index>
1018

> <i_lp_mmshare_version>
43012

> <i_f3d_flags>
0

> <s_epik_input>
W0NIM11bQ0BASF0xW0NIMl1OKFtDSDJdW0NASF0oTzEpW0NIM10pYzJbY0hdW2NIXWMoW2NIXW4yKVtOSF1DKD1PKVtOSF1bQ0gyXUMoW0NIM10pKFtDSDNdKUMoPU8pW05IMl0=

> <s_epik_cmdline>
J2VwaWtfcHl0aG9uJywgJy1waCcsICc3LjAnLCAnLXRuJywgJzgnLCAnLW1hJywgJzIwMCcsICctbWV0YWxfYmluZGluZycsICctaW1hZScsICc8aW5maWxlLm1hZT4nLCAnLW9tYWUnLCAnPG91dGZpbGUubWFlPic=

> <r_lp_tautomer_probability>
1

> <r_epik_Ionization_Penalty>
0.002562

> <r_epik_Ionization_Penalty_Charging>
0

> <r_epik_Ionization_Penalty_Neutral>
0.002562

> <r_epik_State_Penalty>
0.00175377

> <r_epik_Charging_Adjusted_Penalty>
0.00175377

> <i_epik_Tot_Q>
0

> <i_epik_Tot_abs_Q>
0

> <r_epik_Metal_State_Penalty>
-0

> <b_epik_Metal_Only>
0

> <s_lp_Force_Field>
OPLS_2005

> <r_lp_Energy>
25.7986

> <b_lp_Chiralities_Consistent>
1

> <s_lp_Variant>
AV-unprocessed.smi:1018-1

> <Gold.Version>
5.8.1

> <Gold.Id.Protein>
6NUR|6NUR_protein|mol2

> <Gold.PLP.Fitness>
47.6485

> <Gold.PLP.PLP>
-40.4038

> <Gold.PLP.part.hbond>
-3.0000

> <Gold.PLP.part.metal>
0.0000

> <Gold.PLP.part.buried>
-5.8162

> <Gold.PLP.part.nonpolar>
-32.4005

> <Gold.PLP.part.repulsive>
0.3256

> <Gold.PLP.ligand.clash>
0.0000

> <Gold.PLP.ligand.torsion>
0.7900

> <Gold.PLP.Chemscore.Hbond>
2.8060

> <Gold.PLP.Chemscore.CHOScore>
0.0000

> <Gold.PLP.Chemscore.Metal>
0.0000

> <Gold.Chemscore.Hbonds>
donor molecule, donor type, donor heavy atom, donor atom, acceptor molecule, acceptor atom, score
      L1  H     9    34       P1  7948  0.81
      L1  H    12    35       P1  7948  1.00
      L1  H    18    45       P1  7948  1.00

> <Gold.PLP.Chemscore.Internal.Correction>
0.4067

> <Gold.Rescore>
     Score         DG    S(hbond)    S(metal)    S(lipo)     H(rot)  DE(clash)    DE(int)     intcor
     17.02     -22.05       2.91        0.00     104.46       2.09       1.49       3.54       ----

> <Gold.Chemscore.Fitness>
17.0169

> <Gold.Chemscore.DG>
-22.0505

> <Gold.Chemscore.ZeroCoef>
-5.4800

> <Gold.Chemscore.Hbond>
2.9077

> <Gold.Chemscore.Metal>
0.0000

> <Gold.Chemscore.Lipo>
104.4555

> <Gold.Chemscore.Internal_Hbond>
0.0000

> <Gold.Chemscore.DEClash>
1.4938

> <Gold.Chemscore.DEInternal>
3.5398

> <Gold.Chemscore.Rot>
2.0947

> <Gold.Chemscore.Internal.Correction>
   9.000000E+99

> <Gold.Chemscore.Hbonds>
donor molecule, donor type, donor heavy atom, donor atom, acceptor molecule, acceptor atom, score
      L1  H     9    34       P1  7948  0.74
      L1  H    12    35       P1  7948  1.00
      L1  H    18    45       P1  7948  0.99

> <Gold.Chemscore.Hbond.Weighted>
-9.7116

> <Gold.Chemscore.Metal.Weighted>
-0.0000

> <Gold.Chemscore.Lipo.Weighted>
-12.2213

> <Gold.Chemscore.Internal_Hbond.Weighted>
0.0000

> <Gold.Chemscore.DEClash.Weighted>
1.4938

> <Gold.Chemscore.DEInternal.Weighted>
3.5398

> <Gold.Chemscore.Rot.Weighted>
5.3624

> <Gold.Chemscore.Internal.Correction.Weighted>
   9.000000E+99

> <Gold.Protein.RotatedTorsions>
[ 6907 6896 6895 6894 ] final   24.40 input  -60.11 | X-H torsion
[ 7974 7965 7964 7962 ] final   -0.34 input  175.53 | X-H torsion
[ 8008 7997 7996 7995 ] final -169.53 input   59.86 | X-H torsion
[ 10167 10162 10161 10158 ] final -126.41 input  -65.29 | X-H torsion
[ 10718 10713 10712 10709 ] final  136.92 input   66.30 | X-H torsion
[ 10763 10752 10751 10750 ] final -136.70 input  -60.55 | X-H torsion
[ 11005 11000 10999 10996 ] final -148.69 input  -57.11 | X-H torsion

> <Gold.Protein.ActiveResidues>
 VAL166  LYS551  ARG553  GLY616  TRP617  ASP618  TYR619  PRO620  LYS621  CYS622 
 ASP623  PHE694  ASN695  SER759  ASP760  ASP761  ALA762  ILE779  LEU786  VAL792 
 PHE793  MET794  SER795  GLU796  ALA797  LYS798  CYS799  TRP800  GLU811  SER814 

> <Gold.Protein.RotatedAtoms>
  151.9570  135.0142  160.0545 H   0  0  0  0  0  0  0  0  0  0  0  0  # atno 6907 bound_to 6896
  152.1903  133.4763  159.5012 H   0  0  0  0  0  0  0  0  0  0  0  0  # atno 6908 bound_to 6896
  150.6934  134.1639  159.4229 H   0  0  0  0  0  0  0  0  0  0  0  0  # atno 6909 bound_to 6896
  146.2428  140.1255  142.8339 H   0  0  0  0  0  0  0  0  0  0  0  0  # atno 7974 bound_to 7965
  155.9062  140.1049  157.1314 H   0  0  0  0  0  0  0  0  0  0  0  0  # atno 8008 bound_to 7997
  154.4033  140.1283  156.4563 H   0  0  0  0  0  0  0  0  0  0  0  0  # atno 8009 bound_to 7997
  155.7365  140.3467  155.5086 H   0  0  0  0  0  0  0  0  0  0  0  0  # atno 8010 bound_to 7997
  139.9718  143.5837  152.2410 H   0  0  0  0  0  0  0  0  0  0  0  0  # atno 10167 bound_to 10162
  157.4416  131.1058  151.0137 H   0  0  0  0  0  0  0  0  0  0  0  0  # atno 10718 bound_to 10713
  154.8678  135.3664  154.5103 H   0  0  0  0  0  0  0  0  0  0  0  0  # atno 10763 bound_to 10752
  153.5738  135.7020  153.5497 H   0  0  0  0  0  0  0  0  0  0  0  0  # atno 10764 bound_to 10752
  153.3518  135.4070  155.1614 H   0  0  0  0  0  0  0  0  0  0  0  0  # atno 10765 bound_to 10752
  140.7586  134.3324  157.5107 H   0  0  0  0  0  0  0  0  0  0  0  0  # atno 11005 bound_to 11000
  145.0370  140.8916  143.5075 LP  0  0  0  0  0  0  0  0  0  0  0  0  # atno 17320 bound_to 7965
  145.1329  139.2621  143.5530 LP  0  0  0  0  0  0  0  0  0  0  0  0  # atno 17321 bound_to 7965
  139.6476  144.7659  151.2213 LP  0  0  0  0  0  0  0  0  0  0  0  0  # atno 17342 bound_to 10162
  140.7519  143.6214  150.8509 LP  0  0  0  0  0  0  0  0  0  0  0  0  # atno 17343 bound_to 10162
  157.0998  130.5977  149.5458 LP  0  0  0  0  0  0  0  0  0  0  0  0  # atno 17370 bound_to 10713
  155.9951  130.5016  150.7445 LP  0  0  0  0  0  0  0  0  0  0  0  0  # atno 17371 bound_to 10713
  139.8775  134.9188  156.3211 LP  0  0  0  0  0  0  0  0  0  0  0  0  # atno 17394 bound_to 11000
  140.9684  133.7343  156.0499 LP  0  0  0  0  0  0  0  0  0  0  0  0  # atno 17395 bound_to 11000

$$$$
