AV-unprocessed.smi:1029|AV-procd|sdf|4477|dock9
  -GOLD-   22720 2453D 1   1.00000     0.00000
 Structure written by MMmdl.
 46 47  0  0  0  0  0  0  0  0  2 V2000
  153.5961  137.7593  156.5646 C   0  0  0  0  0  0  0  0  0  0  0  0
  152.5266  138.4312  155.7553 C   0  0  0  0  0  0  0  0  0  0  0  0
  151.4598  137.8310  155.0303 C   0  0  0  0  0  0  0  0  0  0  0  0
  150.8123  138.9120  154.4941 C   0  0  0  0  0  0  0  0  0  0  0  0
  149.7130  138.9278  153.6959 N   0  0  0  0  0  0  0  0  0  0  0  0
  148.4537  138.5563  153.9862 C   0  0  0  0  0  0  0  0  0  0  0  0
  148.0644  138.1354  155.0759 O   0  0  0  0  0  0  0  0  0  0  0  0
  147.6483  138.7051  152.9248 N   0  0  0  0  0  0  0  0  0  0  0  0
  146.2225  138.3953  152.9047 C   0  0  0  0  0  0  0  0  0  0  0  0
  145.9012  137.2145  151.9657 C   0  0  1  0  0  0  0  0  0  0  0  0
  146.3970  137.5165  150.6757 O   0  0  0  0  0  0  0  0  0  0  0  0
  146.5933  135.9168  152.4320 C   0  0  0  0  0  0  0  0  0  0  0  0
  145.7959  134.6998  152.1285 N   0  3  2  0  0  0  0  0  0  0  0  0
  146.5998  133.4486  152.1387 C   0  0  0  0  0  0  0  0  0  0  0  0
  145.7058  132.2100  151.9486 C   0  0  0  0  0  0  0  0  0  0  0  0
  144.8538  132.2957  150.6692 C   0  0  2  0  0  0  0  0  0  0  0  0
  145.6764  132.0695  149.3885 C   0  0  0  0  0  0  0  0  0  0  0  0
  144.0863  133.6297  150.6555 C   0  0  0  0  0  0  0  0  0  0  0  0
  145.0146  134.8383  150.8726 C   0  0  0  0  0  0  0  0  0  0  0  0
  151.4178  140.0719  154.8466 O   0  0  0  0  0  0  0  0  0  0  0  0
  152.5136  139.7523  155.6567 N   0  0  0  0  0  0  0  0  0  0  0  0
  153.4480  136.6796  156.5930 H   0  0  0  0  0  0  0  0  0  0  0  0
  153.5970  138.1210  157.5930 H   0  0  0  0  0  0  0  0  0  0  0  0
  154.5836  137.9475  156.1428 H   0  0  0  0  0  0  0  0  0  0  0  0
  151.2282  136.7813  154.9319 H   0  0  0  0  0  0  0  0  0  0  0  0
  149.8708  139.2694  152.7593 H   0  0  0  0  0  0  0  0  0  0  0  0
  148.0495  139.0617  152.0698 H   0  0  0  0  0  0  0  0  0  0  0  0
  145.8314  138.2280  153.9104 H   0  0  0  0  0  0  0  0  0  0  0  0
  145.7276  139.2944  152.5367 H   0  0  0  0  0  0  0  0  0  0  0  0
  144.8220  137.0725  151.9133 H   0  0  0  0  0  0  0  0  0  0  0  0
  145.6809  137.8198  150.1381 H   0  0  0  0  0  0  0  0  0  0  0  0
  147.5670  135.8518  151.9435 H   0  0  0  0  0  0  0  0  0  0  0  0
  146.7955  135.9519  153.5036 H   0  0  0  0  0  0  0  0  0  0  0  0
  147.3596  133.4937  151.3574 H   0  0  0  0  0  0  0  0  0  0  0  0
  147.1329  133.3488  153.0831 H   0  0  0  0  0  0  0  0  0  0  0  0
  146.3158  131.3060  151.9365 H   0  0  0  0  0  0  0  0  0  0  0  0
  145.0451  132.1159  152.8117 H   0  0  0  0  0  0  0  0  0  0  0  0
  144.1179  131.4915  150.7087 H   0  0  0  0  0  0  0  0  0  0  0  0
  146.4465  132.8282  149.2527 H   0  0  0  0  0  0  0  0  0  0  0  0
  145.0362  132.0894  148.5060 H   0  0  0  0  0  0  0  0  0  0  0  0
  146.1716  131.0984  149.4096 H   0  0  0  0  0  0  0  0  0  0  0  0
  143.5384  133.7410  149.7191 H   0  0  0  0  0  0  0  0  0  0  0  0
  143.3335  133.6161  151.4448 H   0  0  0  0  0  0  0  0  0  0  0  0
  144.4080  135.7438  150.9167 H   0  0  0  0  0  0  0  0  0  0  0  0
  145.6948  134.9576  150.0282 H   0  0  0  0  0  0  0  0  0  0  0  0
  145.1168  134.6191  152.8724 H   0  0  0  0  0  0  0  0  0  0  0  0
  1  2  1  0  0  0  0
  1 22  1  0  0  0  0
  1 23  1  0  0  0  0
  1 24  1  0  0  0  0
  2 21  2  0  0  0  0
  2  3  1  0  0  0  0
  3  4  2  0  0  0  0
  3 25  1  0  0  0  0
  4  5  1  0  0  0  0
  4 20  1  0  0  0  0
  5  6  1  0  0  0  0
  5 26  1  0  0  0  0
  6  7  2  0  0  0  0
  6  8  1  0  0  0  0
  8  9  1  0  0  0  0
  8 27  1  0  0  0  0
  9 10  1  0  0  0  0
  9 28  1  0  0  0  0
  9 29  1  0  0  0  0
 10 11  1  0  0  0  0
 10 12  1  0  0  0  0
 10 30  1  0  0  0  0
 11 31  1  0  0  0  0
 12 13  1  0  0  0  0
 12 32  1  0  0  0  0
 12 33  1  0  0  0  0
 13 19  1  0  0  0  0
 13 14  1  0  0  0  0
 13 46  1  0  0  0  0
 14 15  1  0  0  0  0
 14 34  1  0  0  0  0
 14 35  1  0  0  0  0
 15 16  1  0  0  0  0
 15 36  1  0  0  0  0
 15 37  1  0  0  0  0
 16 17  1  0  0  0  0
 16 18  1  0  0  0  0
 16 38  1  0  0  0  0
 17 39  1  0  0  0  0
 17 40  1  0  0  0  0
 17 41  1  0  0  0  0
 18 19  1  0  0  0  0
 18 42  1  0  0  0  0
 18 43  1  0  0  0  0
 19 44  1  0  0  0  0
 19 45  1  0  0  0  0
 20 21  1  0  0  0  0
M  CHG  1  13   1
M  END
> <s_m_source_file>
AV-unprocessed.smi

> <i_m_source_file_index>
1029

> <i_lp_mmshare_version>
43012

> <i_f3d_flags>
0

> <s_epik_input>
W0NIM11jMVtjSF1jKG9uMSlbTkhdQyg9TylbTkhdW0NIMl1bQ0BIXShbT0hdKVtDSDJdTjJbQ0gyXVtDSDJdW0NIXShbQ0gzXSlbQ0gyXVtDSDJdMg==

> <s_epik_cmdline>
J2VwaWtfcHl0aG9uJywgJy1waCcsICc3LjAnLCAnLXRuJywgJzgnLCAnLW1hJywgJzIwMCcsICctbWV0YWxfYmluZGluZycsICctaW1hZScsICc8aW5maWxlLm1hZT4nLCAnLW9tYWUnLCAnPG91dGZpbGUubWFlPic=

> <r_lp_tautomer_probability>
1

> <r_epik_Ionization_Penalty>
0.00211787

> <r_epik_Ionization_Penalty_Charging>
0.00153238

> <r_epik_Ionization_Penalty_Neutral>
0.000585488

> <r_epik_State_Penalty>
-0

> <r_epik_Charging_Adjusted_Penalty>
0.00153238

> <i_epik_Tot_Q>
1

> <i_epik_Tot_abs_Q>
1

> <r_epik_Metal_State_Penalty>
-0

> <b_epik_Metal_Only>
0

> <s_lp_Force_Field>
OPLS_2005

> <r_lp_Energy>
22.6481

> <b_lp_Chiralities_Consistent>
1

> <s_lp_Variant>
AV-unprocessed.smi:1029-4

> <Gold.Version>
5.8.1

> <Gold.Id.Protein>
6NUR|6NUR_protein|mol2

> <Gold.PLP.Fitness>
51.6561

> <Gold.PLP.PLP>
-36.3134

> <Gold.PLP.part.hbond>
-7.9780

> <Gold.PLP.part.metal>
0.0000

> <Gold.PLP.part.buried>
0.0514

> <Gold.PLP.part.nonpolar>
-28.4036

> <Gold.PLP.part.repulsive>
0.2907

> <Gold.PLP.ligand.clash>
0.0000

> <Gold.PLP.ligand.torsion>
1.3363

> <Gold.PLP.Chemscore.Hbond>
5.9920

> <Gold.PLP.Chemscore.CHOScore>
0.0000

> <Gold.PLP.Chemscore.Metal>
0.0000

> <Gold.Chemscore.Hbonds>
donor molecule, donor type, donor heavy atom, donor atom, acceptor molecule, acceptor atom, score
      L1  H     5    26       P1  7957  1.00
      L1  H     8    27       P1  7957  0.98
      L1  H    11    31       P1 10171  1.00
      P1  H  7954  7966       L1    11  1.00
      P1  H  7989  7998       L1    20  1.00
      P1  H  7997  8009       L1    21  1.00

> <Gold.PLP.Chemscore.Internal.Correction>
0.0392

> <Gold.Rescore>
     Score         DG    S(hbond)    S(metal)    S(lipo)     H(rot)  DE(clash)    DE(int)     intcor
     23.40     -26.83       5.42        0.00      81.53       2.46       2.08       1.36       ----

> <Gold.Chemscore.Fitness>
23.3952

> <Gold.Chemscore.DG>
-26.8287

> <Gold.Chemscore.ZeroCoef>
-5.4800

> <Gold.Chemscore.Hbond>
5.4232

> <Gold.Chemscore.Metal>
0.0000

> <Gold.Chemscore.Lipo>
81.5294

> <Gold.Chemscore.Internal_Hbond>
0.0000

> <Gold.Chemscore.DEClash>
2.0775

> <Gold.Chemscore.DEInternal>
1.3561

> <Gold.Chemscore.Rot>
2.4624

> <Gold.Chemscore.Internal.Correction>
   9.000000E+99

> <Gold.Chemscore.Hbonds>
donor molecule, donor type, donor heavy atom, donor atom, acceptor molecule, acceptor atom, score
      L1  H     5    26       P1  7957  0.96
      L1  H     8    27       P1  7957  0.87
      L1  H    11    31       P1 10171  0.96
      P1  H  7954  7966       L1    11  0.80
      P1  H  7989  7998       L1    20  0.52
      P1  H  7997  8009       L1    21  0.25

> <Gold.Chemscore.Hbond.Weighted>
-18.1134

> <Gold.Chemscore.Metal.Weighted>
-0.0000

> <Gold.Chemscore.Lipo.Weighted>
-9.5389

> <Gold.Chemscore.Internal_Hbond.Weighted>
0.0000

> <Gold.Chemscore.DEClash.Weighted>
2.0775

> <Gold.Chemscore.DEInternal.Weighted>
1.3561

> <Gold.Chemscore.Rot.Weighted>
6.3037

> <Gold.Chemscore.Internal.Correction.Weighted>
   9.000000E+99

> <Gold.Protein.RotatedTorsions>
[ 6907 6896 6895 6894 ] final  -49.76 input  -60.11 | X-H torsion
[ 7974 7965 7964 7962 ] final  -19.80 input  175.53 | X-H torsion
[ 8008 7997 7996 7995 ] final -152.62 input   59.86 | X-H torsion
[ 10167 10162 10161 10158 ] final -133.82 input  -65.29 | X-H torsion
[ 10718 10713 10712 10709 ] final   18.02 input   66.30 | X-H torsion
[ 10763 10752 10751 10750 ] final   67.45 input  -60.55 | X-H torsion
[ 11005 11000 10999 10996 ] final  -87.88 input  -57.11 | X-H torsion

> <Gold.Protein.ActiveResidues>
 VAL166  LYS551  ARG553  GLY616  TRP617  ASP618  TYR619  PRO620  LYS621  CYS622 
 ASP623  PHE694  ASN695  SER759  ASP760  ASP761  ALA762  ILE779  LEU786  VAL792 
 PHE793  MET794  SER795  GLU796  ALA797  LYS798  CYS799  TRP800  GLU811  SER814 

> <Gold.Protein.RotatedAtoms>
  150.8774  134.8159  159.7199 H   0  0  0  0  0  0  0  0  0  0  0  0  # atno 6907 bound_to 6896
  152.4755  134.4851  159.9687 H   0  0  0  0  0  0  0  0  0  0  0  0  # atno 6908 bound_to 6896
  151.4930  133.3482  159.2892 H   0  0  0  0  0  0  0  0  0  0  0  0  # atno 6909 bound_to 6896
  146.1822  140.4113  142.8490 H   0  0  0  0  0  0  0  0  0  0  0  0  # atno 7974 bound_to 7965
  155.6581  140.0719  157.2564 H   0  0  0  0  0  0  0  0  0  0  0  0  # atno 8008 bound_to 7997
  154.4148  140.1721  156.1797 H   0  0  0  0  0  0  0  0  0  0  0  0  # atno 8009 bound_to 7997
  155.9720  140.3361  155.6588 H   0  0  0  0  0  0  0  0  0  0  0  0  # atno 8010 bound_to 7997
  139.8943  143.6684  152.2606 H   0  0  0  0  0  0  0  0  0  0  0  0  # atno 10167 bound_to 10162
  157.0905  130.6425  149.5847 H   0  0  0  0  0  0  0  0  0  0  0  0  # atno 10718 bound_to 10713
  153.0187  135.5283  154.6981 H   0  0  0  0  0  0  0  0  0  0  0  0  # atno 10763 bound_to 10752
  154.6097  135.2877  155.0448 H   0  0  0  0  0  0  0  0  0  0  0  0  # atno 10764 bound_to 10752
  154.1474  135.6568  153.5008 H   0  0  0  0  0  0  0  0  0  0  0  0  # atno 10765 bound_to 10752
  141.1610  133.7537  156.9370 H   0  0  0  0  0  0  0  0  0  0  0  0  # atno 11005 bound_to 11000
  144.8335  140.6744  143.6276 LP  0  0  0  0  0  0  0  0  0  0  0  0  # atno 17320 bound_to 7965
  145.4043  139.1592  143.4160 LP  0  0  0  0  0  0  0  0  0  0  0  0  # atno 17321 bound_to 7965
  139.7081  144.7624  151.1158 LP  0  0  0  0  0  0  0  0  0  0  0  0  # atno 17342 bound_to 10162
  140.7720  143.5367  150.9360 LP  0  0  0  0  0  0  0  0  0  0  0  0  # atno 17343 bound_to 10162
  155.9899  130.4949  150.7235 LP  0  0  0  0  0  0  0  0  0  0  0  0  # atno 17370 bound_to 10713
  157.4725  131.0894  151.0626 LP  0  0  0  0  0  0  0  0  0  0  0  0  # atno 17371 bound_to 10713
  140.1347  134.9333  157.2385 LP  0  0  0  0  0  0  0  0  0  0  0  0  # atno 17394 bound_to 11000
  140.2910  134.3241  155.7315 LP  0  0  0  0  0  0  0  0  0  0  0  0  # atno 17395 bound_to 11000

$$$$
