AV-unprocessed.smi:1106|AV-procd|sdf|4780|dock1
  -GOLD-   22720 3323D 1   1.00000     0.00000
 Structure written by MMmdl.
 48 49  0  0  0  0  0  0  0  0  2 V2000
  152.7485  142.5571  159.5654 C   0  0  0  0  0  0  0  0  0  0  0  0
  151.5725  141.9666  158.7734 C   0  0  0  0  0  0  0  0  0  0  0  0
  151.8423  140.6449  158.2702 N   0  0  0  0  0  0  0  0  0  0  0  0
  152.3075  139.6364  159.0915 C   0  0  0  0  0  0  0  0  0  0  0  0
  152.5711  138.3898  158.6437 C   0  0  0  0  0  0  0  0  0  0  0  0
  153.0437  137.3643  159.5137 C   0  0  0  0  0  0  0  0  0  0  0  0
  153.4061  136.5277  160.2267 N   0  0  0  0  0  0  0  0  0  0  0  0
  152.3796  138.0354  157.2390 C   0  0  0  0  0  0  0  0  0  0  0  0
  152.5758  136.9063  156.7849 O   0  0  0  0  0  0  0  0  0  0  0  0
  151.9263  139.1006  156.4201 N   0  0  0  0  0  0  0  0  0  0  0  0
  151.7069  138.8198  155.0100 C   0  0  0  0  0  0  0  0  0  0  0  0
  150.3930  138.0550  154.7386 C   0  0  1  0  0  0  0  0  0  0  0  0
  149.9741  138.3334  153.4168 O   0  0  0  0  0  0  0  0  0  0  0  0
  150.5981  136.5303  154.8360 C   0  0  0  0  0  0  0  0  0  0  0  0
  149.3578  135.7772  154.5200 N   0  3  2  0  0  0  0  0  0  0  0  0
  148.1547  136.3214  155.2036 C   0  0  0  0  0  0  0  0  0  0  0  0
  146.8769  135.6033  154.7344 C   0  0  0  0  0  0  0  0  0  0  0  0
  146.9634  134.0774  154.9215 C   0  0  2  0  0  0  0  0  0  0  0  0
  146.8260  133.6477  156.3925 C   0  0  0  0  0  0  0  0  0  0  0  0
  148.2552  133.5534  154.2676 C   0  0  0  0  0  0  0  0  0  0  0  0
  149.5033  134.3169  154.7470 C   0  0  0  0  0  0  0  0  0  0  0  0
  151.6351  140.4030  156.8920 C   0  0  0  0  0  0  0  0  0  0  0  0
  151.2132  141.2871  156.1416 O   0  0  0  0  0  0  0  0  0  0  0  0
  152.4926  143.5410  159.9585 H   0  0  0  0  0  0  0  0  0  0  0  0
  153.6360  142.6718  158.9427 H   0  0  0  0  0  0  0  0  0  0  0  0
  153.0120  141.9203  160.4104 H   0  0  0  0  0  0  0  0  0  0  0  0
  150.6905  141.8713  159.4081 H   0  0  0  0  0  0  0  0  0  0  0  0
  151.2811  142.5902  157.9261 H   0  0  0  0  0  0  0  0  0  0  0  0
  152.4657  139.8523  160.1386 H   0  0  0  0  0  0  0  0  0  0  0  0
  151.7788  139.7499  154.4435 H   0  0  0  0  0  0  0  0  0  0  0  0
  152.5729  138.2432  154.6797 H   0  0  0  0  0  0  0  0  0  0  0  0
  149.6205  138.3798  155.4354 H   0  0  0  0  0  0  0  0  0  0  0  0
  149.8566  137.5151  152.9573 H   0  0  0  0  0  0  0  0  0  0  0  0
  151.3993  136.2434  154.1524 H   0  0  0  0  0  0  0  0  0  0  0  0
  150.9403  136.2488  155.8332 H   0  0  0  0  0  0  0  0  0  0  0  0
  148.2702  136.2230  156.2838 H   0  0  0  0  0  0  0  0  0  0  0  0
  148.0548  137.3870  154.9999 H   0  0  0  0  0  0  0  0  0  0  0  0
  146.0087  136.0006  155.2615 H   0  0  0  0  0  0  0  0  0  0  0  0
  146.7156  135.8251  153.6784 H   0  0  0  0  0  0  0  0  0  0  0  0
  146.1206  133.6325  154.3906 H   0  0  0  0  0  0  0  0  0  0  0  0
  147.6328  134.0369  157.0131 H   0  0  0  0  0  0  0  0  0  0  0  0
  146.8360  132.5613  156.4830 H   0  0  0  0  0  0  0  0  0  0  0  0
  145.8851  134.0005  156.8159 H   0  0  0  0  0  0  0  0  0  0  0  0
  148.3713  132.4862  154.4602 H   0  0  0  0  0  0  0  0  0  0  0  0
  148.1731  133.6571  153.1848 H   0  0  0  0  0  0  0  0  0  0  0  0
  150.3730  133.9476  154.2021 H   0  0  0  0  0  0  0  0  0  0  0  0
  149.6907  134.1259  155.8044 H   0  0  0  0  0  0  0  0  0  0  0  0
  149.2112  135.8894  153.5267 H   0  0  0  0  0  0  0  0  0  0  0  0
  1  2  1  0  0  0  0
  1 24  1  0  0  0  0
  1 25  1  0  0  0  0
  1 26  1  0  0  0  0
  2  3  1  0  0  0  0
  2 27  1  0  0  0  0
  2 28  1  0  0  0  0
  3 22  1  0  0  0  0
  3  4  1  0  0  0  0
  4  5  2  0  0  0  0
  4 29  1  0  0  0  0
  5  6  1  0  0  0  0
  5  8  1  0  0  0  0
  6  7  3  0  0  0  0
  8  9  2  0  0  0  0
  8 10  1  0  0  0  0
 10 11  1  0  0  0  0
 10 22  1  0  0  0  0
 11 12  1  0  0  0  0
 11 30  1  0  0  0  0
 11 31  1  0  0  0  0
 12 13  1  0  0  0  0
 12 14  1  0  0  0  0
 12 32  1  0  0  0  0
 13 33  1  0  0  0  0
 14 15  1  0  0  0  0
 14 34  1  0  0  0  0
 14 35  1  0  0  0  0
 15 21  1  0  0  0  0
 15 16  1  0  0  0  0
 15 48  1  0  0  0  0
 16 17  1  0  0  0  0
 16 36  1  0  0  0  0
 16 37  1  0  0  0  0
 17 18  1  0  0  0  0
 17 38  1  0  0  0  0
 17 39  1  0  0  0  0
 18 19  1  0  0  0  0
 18 20  1  0  0  0  0
 18 40  1  0  0  0  0
 19 41  1  0  0  0  0
 19 42  1  0  0  0  0
 19 43  1  0  0  0  0
 20 21  1  0  0  0  0
 20 44  1  0  0  0  0
 20 45  1  0  0  0  0
 21 46  1  0  0  0  0
 21 47  1  0  0  0  0
 22 23  2  0  0  0  0
M  CHG  1  15   1
M  END
> <s_m_source_file>
AV-unprocessed.smi

> <i_m_source_file_index>
1106

> <i_lp_mmshare_version>
43012

> <i_f3d_flags>
0

> <s_epik_input>
W0NIM11bQ0gyXW4xW2NIXWMoQyNOKWMoPU8pbihjMT1PKVtDSDJdW0NASF0oW09IXSlbQ0gyXU4yW0NIMl1bQ0gyXVtDSF0oW0NIM10pW0NIMl1bQ0gyXTI=

> <s_epik_cmdline>
J2VwaWtfcHl0aG9uJywgJy1waCcsICc3LjAnLCAnLXRuJywgJzgnLCAnLW1hJywgJzIwMCcsICctbWV0YWxfYmluZGluZycsICctaW1hZScsICc8aW5maWxlLm1hZT4nLCAnLW9tYWUnLCAnPG91dGZpbGUubWFlPic=

> <r_epik_Ionization_Penalty>
0.00136816

> <r_epik_Ionization_Penalty_Charging>
0.00136813

> <r_epik_Ionization_Penalty_Neutral>
3.19882e-08

> <r_epik_State_Penalty>
0.000910892

> <r_epik_Charging_Adjusted_Penalty>
0.00227902

> <i_epik_Tot_Q>
1

> <i_epik_Tot_abs_Q>
1

> <r_epik_Metal_State_Penalty>
-0

> <b_epik_Metal_Only>
0

> <s_lp_Force_Field>
OPLS_2005

> <r_lp_Energy>
30.5318

> <b_lp_Chiralities_Consistent>
1

> <s_lp_Variant>
AV-unprocessed.smi:1106-4

> <Gold.Version>
5.8.1

> <Gold.Id.Protein>
6NUR|6NUR_protein|mol2

> <Gold.PLP.Fitness>
48.7387

> <Gold.PLP.PLP>
-34.9998

> <Gold.PLP.part.hbond>
-5.3483

> <Gold.PLP.part.metal>
0.0000

> <Gold.PLP.part.buried>
-4.2216

> <Gold.PLP.part.nonpolar>
-26.3327

> <Gold.PLP.part.repulsive>
0.0690

> <Gold.PLP.ligand.clash>
0.0000

> <Gold.PLP.ligand.torsion>
0.6747

> <Gold.PLP.Chemscore.Hbond>
4.9833

> <Gold.PLP.Chemscore.CHOScore>
0.0000

> <Gold.PLP.Chemscore.Metal>
0.0000

> <Gold.Chemscore.Hbonds>
donor molecule, donor type, donor heavy atom, donor atom, acceptor molecule, acceptor atom, score
      L1  H    13    33       P1  7948  1.00
      L1  H    15    48       P1  7948  2.00
      P1  H  6896  6909       L1     7  1.00
      P1  H 10752 10764       L1     9  0.39

> <Gold.PLP.Chemscore.Internal.Correction>
0.1382

> <Gold.Rescore>
     Score         DG    S(hbond)    S(metal)    S(lipo)     H(rot)  DE(clash)    DE(int)     intcor
     17.02     -19.25       3.85        0.00      62.20       2.48       0.13       2.10       ----

> <Gold.Chemscore.Fitness>
17.0196

> <Gold.Chemscore.DG>
-19.2544

> <Gold.Chemscore.ZeroCoef>
-5.4800

> <Gold.Chemscore.Hbond>
3.8490

> <Gold.Chemscore.Metal>
0.0000

> <Gold.Chemscore.Lipo>
62.1990

> <Gold.Chemscore.Internal_Hbond>
0.0000

> <Gold.Chemscore.DEClash>
0.1334

> <Gold.Chemscore.DEInternal>
2.1015

> <Gold.Chemscore.Rot>
2.4838

> <Gold.Chemscore.Internal.Correction>
   9.000000E+99

> <Gold.Chemscore.Hbonds>
donor molecule, donor type, donor heavy atom, donor atom, acceptor molecule, acceptor atom, score
      L1  H    13    33       P1  7948  0.34
      L1  H    15    48       P1  7948  0.74
      P1  H  6896  6909       L1     7  0.75
      P1  H 10752 10764       L1     9  0.38

> <Gold.Chemscore.Hbond.Weighted>
-12.8556

> <Gold.Chemscore.Metal.Weighted>
-0.0000

> <Gold.Chemscore.Lipo.Weighted>
-7.2773

> <Gold.Chemscore.Internal_Hbond.Weighted>
0.0000

> <Gold.Chemscore.DEClash.Weighted>
0.1334

> <Gold.Chemscore.DEInternal.Weighted>
2.1015

> <Gold.Chemscore.Rot.Weighted>
6.3585

> <Gold.Chemscore.Internal.Correction.Weighted>
   9.000000E+99

> <Gold.Protein.RotatedTorsions>
[ 6907 6896 6895 6894 ] final  164.41 input  -60.11 | X-H torsion
[ 7974 7965 7964 7962 ] final  -20.50 input  175.53 | X-H torsion
[ 8008 7997 7996 7995 ] final -146.72 input   59.86 | X-H torsion
[ 10167 10162 10161 10158 ] final -140.18 input  -65.29 | X-H torsion
[ 10718 10713 10712 10709 ] final   14.82 input   66.30 | X-H torsion
[ 10763 10752 10751 10750 ] final  -15.09 input  -60.55 | X-H torsion
[ 11005 11000 10999 10996 ] final   97.07 input  -57.11 | X-H torsion

> <Gold.Protein.ActiveResidues>
 VAL166  LYS551  ARG553  GLY616  TRP617  ASP618  TYR619  PRO620  LYS621  CYS622 
 ASP623  PHE694  ASN695  SER759  ASP760  ASP761  ALA762  ILE779  LEU786  VAL792 
 PHE793  MET794  SER795  GLU796  ALA797  LYS798  CYS799  TRP800  GLU811  SER814 

> <Gold.Protein.RotatedAtoms>
  151.9103  133.3559  159.3860 H   0  0  0  0  0  0  0  0  0  0  0  0  # atno 6907 bound_to 6896
  150.7059  134.4739  159.5447 H   0  0  0  0  0  0  0  0  0  0  0  0  # atno 6908 bound_to 6896
  152.2344  134.8291  160.0520 H   0  0  0  0  0  0  0  0  0  0  0  0  # atno 6909 bound_to 6896
  146.1785  140.4211  142.8504 H   0  0  0  0  0  0  0  0  0  0  0  0  # atno 7974 bound_to 7965
  155.5639  140.0628  157.2822 H   0  0  0  0  0  0  0  0  0  0  0  0  # atno 8008 bound_to 7997
  154.4381  140.1881  156.0856 H   0  0  0  0  0  0  0  0  0  0  0  0  # atno 8009 bound_to 7997
  156.0426  140.3294  155.7264 H   0  0  0  0  0  0  0  0  0  0  0  0  # atno 8010 bound_to 7997
  139.8306  143.7451  152.2666 H   0  0  0  0  0  0  0  0  0  0  0  0  # atno 10167 bound_to 10162
  157.0446  130.6245  149.5757 H   0  0  0  0  0  0  0  0  0  0  0  0  # atno 10718 bound_to 10713
  153.5381  135.7013  153.5650 H   0  0  0  0  0  0  0  0  0  0  0  0  # atno 10763 bound_to 10752
  153.3628  135.3965  155.1731 H   0  0  0  0  0  0  0  0  0  0  0  0  # atno 10764 bound_to 10752
  154.8677  135.3793  154.4883 H   0  0  0  0  0  0  0  0  0  0  0  0  # atno 10765 bound_to 10752
  139.8778  134.8982  156.4252 H   0  0  0  0  0  0  0  0  0  0  0  0  # atno 11005 bound_to 11000
  144.8275  140.6652  143.6313 LP  0  0  0  0  0  0  0  0  0  0  0  0  # atno 17320 bound_to 7965
  145.4145  139.1574  143.4108 LP  0  0  0  0  0  0  0  0  0  0  0  0  # atno 17321 bound_to 7965
  139.7658  144.7492  151.0297 LP  0  0  0  0  0  0  0  0  0  0  0  0  # atno 17342 bound_to 10162
  140.7807  143.4700  151.0160 LP  0  0  0  0  0  0  0  0  0  0  0  0  # atno 17343 bound_to 10162
  156.0027  130.5109  150.7721 LP  0  0  0  0  0  0  0  0  0  0  0  0  # atno 17370 bound_to 10713
  157.5078  131.0923  151.0236 LP  0  0  0  0  0  0  0  0  0  0  0  0  # atno 17371 bound_to 10713
  140.9106  133.7715  155.9787 LP  0  0  0  0  0  0  0  0  0  0  0  0  # atno 17394 bound_to 11000
  140.8551  134.2908  157.5259 LP  0  0  0  0  0  0  0  0  0  0  0  0  # atno 17395 bound_to 11000

$$$$
