AV-unprocessed.smi:3266|AV-procd|sdf|12501|dock3
  -GOLD-   2272018403D 1   1.00000     0.00000
 Structure written by MMmdl.
 38 39  0  0  0  0  0  0  0  0  1 V2000
  150.0392  140.3355  154.6312 O   0  0  0  0  0  0  0  0  0  0  0  0
  149.4468  141.3598  154.9717 C   0  0  0  0  0  0  0  0  0  0  0  0
  148.1288  141.7488  154.2977 C   0  0  0  0  0  0  0  0  0  0  0  0
  147.0404  140.6766  154.4807 C   0  0  0  0  0  0  0  0  0  0  0  0
  147.1136  139.5706  153.4182 C   0  0  1  0  0  0  0  0  0  0  0  0
  146.0838  138.4616  153.6102 C   0  0  0  0  0  0  0  0  0  0  0  0
  145.9833  137.8513  152.2236 C   0  0  0  0  0  0  0  0  0  0  0  0
  146.4665  138.9685  151.2922 C   0  0  0  0  0  0  0  0  0  0  0  0
  146.7766  140.0727  152.1346 O   0  0  0  0  0  0  0  0  0  0  0  0
  149.8945  142.1835  155.9316 N   0  0  0  0  0  0  0  0  0  0  0  0
  151.1209  141.9856  156.6982 C   0  0  0  0  0  0  0  0  0  0  0  0
  151.4077  143.1383  157.6807 C   0  0  0  0  0  0  0  0  0  0  0  0
  152.0720  142.6908  158.9727 C   0  0  0  0  0  0  0  0  0  0  0  0
  151.9956  143.4942  160.1306 C   0  0  0  0  0  0  0  0  0  0  0  0
  152.6187  143.0376  161.3081 C   0  0  0  0  0  0  0  0  0  0  0  0
  153.2899  141.8001  161.2839 C   0  0  0  0  0  0  0  0  0  0  0  0
  153.3094  141.0721  160.0775 C   0  0  0  0  0  0  0  0  0  0  0  0
  152.7157  141.5013  158.9431 N   0  0  0  0  0  0  0  0  0  0  0  0
  147.7947  142.6968  154.7213 H   0  0  0  0  0  0  0  0  0  0  0  0
  148.2973  141.9250  153.2342 H   0  0  0  0  0  0  0  0  0  0  0  0
  147.1454  140.2245  155.4681 H   0  0  0  0  0  0  0  0  0  0  0  0
  146.0513  141.1369  154.4565 H   0  0  0  0  0  0  0  0  0  0  0  0
  148.1160  139.1401  153.3812 H   0  0  0  0  0  0  0  0  0  0  0  0
  146.3750  137.7396  154.3738 H   0  0  0  0  0  0  0  0  0  0  0  0
  145.1202  138.8866  153.8951 H   0  0  0  0  0  0  0  0  0  0  0  0
  146.6358  136.9817  152.1379 H   0  0  0  0  0  0  0  0  0  0  0  0
  144.9659  137.5318  151.9962 H   0  0  0  0  0  0  0  0  0  0  0  0
  147.3622  138.6585  150.7524 H   0  0  0  0  0  0  0  0  0  0  0  0
  145.7099  139.2518  150.5602 H   0  0  0  0  0  0  0  0  0  0  0  0
  149.3425  142.9992  156.1538 H   0  0  0  0  0  0  0  0  0  0  0  0
  151.0726  141.0382  157.2375 H   0  0  0  0  0  0  0  0  0  0  0  0
  151.9465  141.8922  155.9923 H   0  0  0  0  0  0  0  0  0  0  0  0
  152.0356  143.8893  157.1993 H   0  0  0  0  0  0  0  0  0  0  0  0
  150.4731  143.6450  157.9243 H   0  0  0  0  0  0  0  0  0  0  0  0
  151.4711  144.4383  160.1185 H   0  0  0  0  0  0  0  0  0  0  0  0
  152.5813  143.6256  162.2132 H   0  0  0  0  0  0  0  0  0  0  0  0
  153.7780  141.4180  162.1681 H   0  0  0  0  0  0  0  0  0  0  0  0
  153.8152  140.1195  160.0224 H   0  0  0  0  0  0  0  0  0  0  0  0
  1  2  2  0  0  0  0
  2  3  1  0  0  0  0
  2 10  1  0  0  0  0
  3  4  1  0  0  0  0
  3 19  1  0  0  0  0
  3 20  1  0  0  0  0
  4  5  1  0  0  0  0
  4 21  1  0  0  0  0
  4 22  1  0  0  0  0
  5  9  1  0  0  0  0
  5  6  1  0  0  0  0
  5 23  1  0  0  0  0
  6  7  1  0  0  0  0
  6 24  1  0  0  0  0
  6 25  1  0  0  0  0
  7  8  1  0  0  0  0
  7 26  1  0  0  0  0
  7 27  1  0  0  0  0
  8  9  1  0  0  0  0
  8 28  1  0  0  0  0
  8 29  1  0  0  0  0
 10 11  1  0  0  0  0
 10 30  1  0  0  0  0
 11 12  1  0  0  0  0
 11 31  1  0  0  0  0
 11 32  1  0  0  0  0
 12 13  1  0  0  0  0
 12 33  1  0  0  0  0
 12 34  1  0  0  0  0
 13 18  1  0  0  0  0
 13 14  2  0  0  0  0
 14 15  1  0  0  0  0
 14 35  1  0  0  0  0
 15 16  2  0  0  0  0
 15 36  1  0  0  0  0
 16 17  1  0  0  0  0
 16 37  1  0  0  0  0
 17 18  2  0  0  0  0
 17 38  1  0  0  0  0
M  END
> <s_m_source_file>
AV-unprocessed.smi

> <i_m_source_file_index>
3266

> <i_lp_mmshare_version>
43012

> <i_f3d_flags>
0

> <s_epik_input>
TzFbQ0gyXVtDSDJdW0NIMl1bQ0BIXTFbQ0gyXVtDSDJdQyg9TylbTkhdW0NIMl1bQ0gyXWMyW2NIXVtjSF1bY0hdW2NIXW4y

> <s_epik_cmdline>
J2VwaWtfcHl0aG9uJywgJy1waCcsICc3LjAnLCAnLXRuJywgJzgnLCAnLW1hJywgJzIwMCcsICctbWV0YWxfYmluZGluZycsICctaW1hZScsICc8aW5maWxlLm1hZT4nLCAnLW9tYWUnLCAnPG91dGZpbGUubWFlPic=

> <r_epik_Ionization_Penalty>
0.0267142

> <r_epik_Ionization_Penalty_Charging>
0

> <r_epik_Ionization_Penalty_Neutral>
0.0267142

> <r_epik_State_Penalty>
0.0218233

> <r_epik_Charging_Adjusted_Penalty>
0.0218233

> <i_epik_Tot_Q>
0

> <i_epik_Tot_abs_Q>
0

> <r_epik_Metal_State_Penalty>
0.0208786

> <b_epik_Metal_Only>
0

> <s_lp_Force_Field>
OPLS_2005

> <r_lp_Energy>
16.882

> <b_lp_Chiralities_Consistent>
1

> <s_lp_Variant>
AV-unprocessed.smi:3266-2

> <Gold.Version>
5.8.1

> <Gold.Id.Protein>
6NUR|6NUR_protein|mol2

> <Gold.PLP.Fitness>
45.7582

> <Gold.PLP.PLP>
-41.2579

> <Gold.PLP.part.hbond>
-2.0000

> <Gold.PLP.part.metal>
0.0000

> <Gold.PLP.part.buried>
-5.2431

> <Gold.PLP.part.nonpolar>
-37.1112

> <Gold.PLP.part.repulsive>
1.6018

> <Gold.PLP.ligand.clash>
0.0000

> <Gold.PLP.ligand.torsion>
0.6967

> <Gold.PLP.Chemscore.Hbond>
1.9360

> <Gold.PLP.Chemscore.CHOScore>
0.0000

> <Gold.PLP.Chemscore.Metal>
0.0000

> <Gold.Chemscore.Hbonds>
donor molecule, donor type, donor heavy atom, donor atom, acceptor molecule, acceptor atom, score
      L1  H    10    30       P1  8028  0.93
      P1  H  7989  7998       L1     1  0.98

> <Gold.PLP.Chemscore.Internal.Correction>
0.0857

> <Gold.Rescore>
     Score         DG    S(hbond)    S(metal)    S(lipo)     H(rot)  DE(clash)    DE(int)     intcor
     18.41     -19.89       1.65        0.00     113.41       1.71       0.73       0.75       ----

> <Gold.Chemscore.Fitness>
18.4111

> <Gold.Chemscore.DG>
-19.8886

> <Gold.Chemscore.ZeroCoef>
-5.4800

> <Gold.Chemscore.Hbond>
1.6540

> <Gold.Chemscore.Metal>
0.0000

> <Gold.Chemscore.Lipo>
113.4074

> <Gold.Chemscore.Internal_Hbond>
0.0000

> <Gold.Chemscore.DEClash>
0.7282

> <Gold.Chemscore.DEInternal>
0.7493

> <Gold.Chemscore.Rot>
1.7127

> <Gold.Chemscore.Internal.Correction>
   9.000000E+99

> <Gold.Chemscore.Hbonds>
donor molecule, donor type, donor heavy atom, donor atom, acceptor molecule, acceptor atom, score
      L1  H    10    30       P1  8028  0.90
      P1  H  7989  7998       L1     1  0.58

> <Gold.Chemscore.Hbond.Weighted>
-5.5245

> <Gold.Chemscore.Metal.Weighted>
-0.0000

> <Gold.Chemscore.Lipo.Weighted>
-13.2687

> <Gold.Chemscore.Internal_Hbond.Weighted>
0.0000

> <Gold.Chemscore.DEClash.Weighted>
0.7282

> <Gold.Chemscore.DEInternal.Weighted>
0.7493

> <Gold.Chemscore.Rot.Weighted>
4.3846

> <Gold.Chemscore.Internal.Correction.Weighted>
   9.000000E+99

> <Gold.Protein.RotatedTorsions>
[ 6907 6896 6895 6894 ] final   19.33 input  -60.11 | X-H torsion
[ 7974 7965 7964 7962 ] final   40.09 input  175.53 | X-H torsion
[ 8008 7997 7996 7995 ] final  -48.14 input   59.86 | X-H torsion
[ 10167 10162 10161 10158 ] final   52.89 input  -65.29 | X-H torsion
[ 10718 10713 10712 10709 ] final  -73.61 input   66.30 | X-H torsion
[ 10763 10752 10751 10750 ] final  135.45 input  -60.55 | X-H torsion
[ 11005 11000 10999 10996 ] final  -51.49 input  -57.11 | X-H torsion

> <Gold.Protein.ActiveResidues>
 VAL166  LYS551  ARG553  GLY616  TRP617  ASP618  TYR619  PRO620  LYS621  CYS622 
 ASP623  PHE694  ASN695  SER759  ASP760  ASP761  ALA762  ILE779  LEU786  VAL792 
 PHE793  MET794  SER795  GLU796  ALA797  LYS798  CYS799  TRP800  GLU811  SER814 

> <Gold.Protein.RotatedAtoms>
  151.8791  135.0460  160.0486 H   0  0  0  0  0  0  0  0  0  0  0  0  # atno 6907 bound_to 6896
  152.2527  133.5224  159.5343 H   0  0  0  0  0  0  0  0  0  0  0  0  # atno 6908 bound_to 6896
  150.7089  134.0854  159.3955 H   0  0  0  0  0  0  0  0  0  0  0  0  # atno 6909 bound_to 6896
  146.0933  139.5574  142.9462 H   0  0  0  0  0  0  0  0  0  0  0  0  # atno 7974 bound_to 7965
  154.4025  140.1329  156.4290 H   0  0  0  0  0  0  0  0  0  0  0  0  # atno 8008 bound_to 7997
  155.7570  140.3487  155.5158 H   0  0  0  0  0  0  0  0  0  0  0  0  # atno 8009 bound_to 7997
  155.8895  140.1001  157.1418 H   0  0  0  0  0  0  0  0  0  0  0  0  # atno 8010 bound_to 7997
  140.2465  144.3526  150.6362 H   0  0  0  0  0  0  0  0  0  0  0  0  # atno 10167 bound_to 10162
  156.0274  130.4398  150.2768 H   0  0  0  0  0  0  0  0  0  0  0  0  # atno 10718 bound_to 10713
  153.8403  135.3092  155.3425 H   0  0  0  0  0  0  0  0  0  0  0  0  # atno 10763 bound_to 10752
  154.7935  135.4768  154.0111 H   0  0  0  0  0  0  0  0  0  0  0  0  # atno 10764 bound_to 10752
  153.1580  135.6855  153.8876 H   0  0  0  0  0  0  0  0  0  0  0  0  # atno 10765 bound_to 10752
  141.0873  133.6640  156.3884 H   0  0  0  0  0  0  0  0  0  0  0  0  # atno 11005 bound_to 11000
  145.5997  141.0357  143.2025 LP  0  0  0  0  0  0  0  0  0  0  0  0  # atno 17320 bound_to 7965
  144.7376  139.7540  143.7323 LP  0  0  0  0  0  0  0  0  0  0  0  0  # atno 17321 bound_to 7965
  140.6073  143.2168  151.6955 LP  0  0  0  0  0  0  0  0  0  0  0  0  # atno 17342 bound_to 10162
  139.5060  144.3697  152.0482 LP  0  0  0  0  0  0  0  0  0  0  0  0  # atno 17343 bound_to 10162
  157.0871  131.0159  151.3135 LP  0  0  0  0  0  0  0  0  0  0  0  0  # atno 17370 bound_to 10713
  157.4883  130.7806  149.7482 LP  0  0  0  0  0  0  0  0  0  0  0  0  # atno 17371 bound_to 10713
  140.5332  134.6192  157.5357 LP  0  0  0  0  0  0  0  0  0  0  0  0  # atno 17394 bound_to 11000
  139.9694  134.7319  156.0073 LP  0  0  0  0  0  0  0  0  0  0  0  0  # atno 17395 bound_to 11000

$$$$
