AV-unprocessed.smi:54|AV-procd|sdf|556|dock7
  -GOLD-   2262016453D 1   1.00000     0.00000
 Structure written by MMmdl.
 43 45  0  0  0  0  0  0  0  0  2 V2000
  152.5803  144.6640  158.5023 C   0  0  0  0  0  0  0  0  0  0  0  0
  152.0167  143.5742  159.4289 C   0  0  0  0  0  0  0  0  0  0  0  0
  152.4118  143.8274  160.8933 C   0  0  0  0  0  0  0  0  0  0  0  0
  152.4780  142.1825  158.9735 C   0  0  0  0  0  0  0  0  0  0  0  0
  153.4906  141.6915  159.4769 O   0  0  0  0  0  0  0  0  0  0  0  0
  151.7154  141.6069  158.0180 N   0  0  0  0  0  0  0  0  0  0  0  0
  151.8872  140.3752  157.3768 C   0  0  0  0  0  0  0  0  0  0  0  0
  151.0626  140.2005  156.3738 N   0  0  0  0  0  0  0  0  0  0  0  0
  151.2374  138.9842  155.7426 C   0  0  0  0  0  0  0  0  0  0  0  0
  152.1285  137.9975  156.0660 C   0  0  0  0  0  0  0  0  0  0  0  0
  152.0207  136.9114  155.2057 N   0  0  0  0  0  0  0  0  0  0  0  0
  151.0483  137.3031  154.3844 C   0  0  0  0  0  0  0  0  0  0  0  0
  150.5306  138.5218  154.6351 N   0  0  0  0  0  0  0  0  0  0  0  0
  149.4389  139.1925  153.8641 C   0  0  1  0  0  0  0  0  0  0  0  0
  148.3033  138.3881  153.9311 O   0  0  0  0  0  0  0  0  0  0  0  0
  147.1524  139.2040  154.0858 C   0  0  1  0  0  0  0  0  0  0  0  0
  145.9827  138.3844  154.6589 C   0  0  0  0  0  0  0  0  0  0  0  0
  144.8270  139.1878  154.7720 O   0  0  0  0  0  0  0  0  0  0  0  0
  147.6413  140.4031  154.9131 C   0  0  1  0  0  0  0  0  0  0  0  0
  147.5606  140.1574  156.3038 O   0  0  0  0  0  0  0  0  0  0  0  0
  149.0959  140.5626  154.4781 C   0  0  2  0  0  0  0  0  0  0  0  0
  149.1892  141.5867  153.5076 O   0  0  0  0  0  0  0  0  0  0  0  0
  153.0150  138.2486  157.2269 C   0  0  0  0  0  0  0  0  0  0  0  0
  153.8255  137.3854  157.5582 O   0  0  0  0  0  0  0  0  0  0  0  0
  152.8454  139.4550  157.8460 N   0  5  0  0  0  0  0  0  0  0  0  0
  149.8110  139.2487  152.8399 H   0  0  0  0  0  0  0  0  0  0  0  0
  146.8862  139.5581  153.0882 H   0  0  0  0  0  0  0  0  0  0  0  0
  147.0440  141.2929  154.7089 H   0  0  0  0  0  0  0  0  0  0  0  0
  149.7592  140.8027  155.3113 H   0  0  0  0  0  0  0  0  0  0  0  0
  152.3054  144.4811  157.4628 H   0  0  0  0  0  0  0  0  0  0  0  0
  153.6687  144.7133  158.5555 H   0  0  0  0  0  0  0  0  0  0  0  0
  152.1920  145.6456  158.7745 H   0  0  0  0  0  0  0  0  0  0  0  0
  150.9279  143.6144  159.3662 H   0  0  0  0  0  0  0  0  0  0  0  0
  152.0172  143.0509  161.5496 H   0  0  0  0  0  0  0  0  0  0  0  0
  152.0182  144.7822  161.2428 H   0  0  0  0  0  0  0  0  0  0  0  0
  153.4949  143.8515  161.0190 H   0  0  0  0  0  0  0  0  0  0  0  0
  150.9638  142.1844  157.6723 H   0  0  0  0  0  0  0  0  0  0  0  0
  150.7017  136.6832  153.5707 H   0  0  0  0  0  0  0  0  0  0  0  0
  145.7559  137.5511  153.9936 H   0  0  0  0  0  0  0  0  0  0  0  0
  146.2312  137.9530  155.6291 H   0  0  0  0  0  0  0  0  0  0  0  0
  144.6582  139.5894  153.9333 H   0  0  0  0  0  0  0  0  0  0  0  0
  148.4332  140.0002  156.6302 H   0  0  0  0  0  0  0  0  0  0  0  0
  149.2007  141.1875  152.6513 H   0  0  0  0  0  0  0  0  0  0  0  0
  1  2  1  0  0  0  0
  1 30  1  0  0  0  0
  1 31  1  0  0  0  0
  1 32  1  0  0  0  0
  2  3  1  0  0  0  0
  2  4  1  0  0  0  0
  2 33  1  0  0  0  0
  3 34  1  0  0  0  0
  3 35  1  0  0  0  0
  3 36  1  0  0  0  0
  4  5  2  0  0  0  0
  4  6  1  0  0  0  0
  6 37  1  0  0  0  0
  6  7  1  0  0  0  0
  7 25  1  0  0  0  0
  7  8  2  0  0  0  0
  8  9  1  0  0  0  0
  9 13  1  0  0  0  0
  9 10  2  0  0  0  0
 10 11  1  0  0  0  0
 10 23  1  0  0  0  0
 11 12  2  0  0  0  0
 12 13  1  0  0  0  0
 12 38  1  0  0  0  0
 13 14  1  0  0  0  0
 14 26  1  0  0  0  0
 14 21  1  0  0  0  0
 14 15  1  0  0  0  0
 15 16  1  0  0  0  0
 16 27  1  0  0  0  0
 16 17  1  0  0  0  0
 16 19  1  0  0  0  0
 17 18  1  0  0  0  0
 17 39  1  0  0  0  0
 17 40  1  0  0  0  0
 18 41  1  0  0  0  0
 19 28  1  0  0  0  0
 19 20  1  0  0  0  0
 19 21  1  0  0  0  0
 20 42  1  0  0  0  0
 21 29  1  0  0  0  0
 21 22  1  0  0  0  0
 22 43  1  0  0  0  0
 23 24  2  0  0  0  0
 23 25  1  0  0  0  0
M  CHG  1  25  -1
M  END
> <s_m_source_file>
AV-unprocessed.smi

> <i_m_source_file_index>
54

> <i_lp_mmshare_version>
43012

> <i_f3d_flags>
0

> <s_epik_input>
W0NIM11bQ0hdKFtDSDNdKUMoPU8pW05IXWMobjEpW25IXWMoPU8pYyhjMTIpbltjSF1uMltDQEBIXTNPW0NASF0oW0NIMl1bT0hdKVtDQEBIXShbT0hdKVtDQEhdM1tPSF0=

> <s_epik_cmdline>
J2VwaWtfcHl0aG9uJywgJy1waCcsICc3LjAnLCAnLXRuJywgJzgnLCAnLW1hJywgJzIwMCcsICctbWV0YWxfYmluZGluZycsICctaW1hZScsICc8aW5maWxlLm1hZT4nLCAnLW9tYWUnLCAnPG91dGZpbGUubWFlPic=

> <r_lp_tautomer_probability>
0.85571

> <r_epik_Ionization_Penalty>
1.75936

> <r_epik_Ionization_Penalty_Charging>
4.55893e-11

> <r_epik_Ionization_Penalty_Neutral>
1.75936

> <r_epik_State_Penalty>
1.72072

> <r_epik_Charging_Adjusted_Penalty>
1.72072

> <i_epik_Tot_Q>
-1

> <i_epik_Tot_abs_Q>
1

> <r_epik_Metal_State_Penalty>
0.400338

> <b_epik_Metal_Only>
1

> <s_epik_Chemistry_Notes>
This compound contains an acetal/aminal-like group ( X-CH(R)-Y where X, Y are N, S, or O) that may be acid/base labile, releasing an aldehyde.

> <s_lp_Force_Field>
OPLS_2005

> <r_lp_Energy>
57.3422

> <b_lp_Chiralities_Consistent>
1

> <s_lp_Variant>
AV-unprocessed.smi:54-28

> <Gold.Version>
5.8.1

> <Gold.Id.Protein>
6NUR|6NUR_protein|mol2

> <Gold.PLP.Fitness>
50.5113

> <Gold.PLP.PLP>
-37.5331

> <Gold.PLP.part.hbond>
-5.6121

> <Gold.PLP.part.metal>
0.0000

> <Gold.PLP.part.buried>
-1.3353

> <Gold.PLP.part.nonpolar>
-30.5654

> <Gold.PLP.part.repulsive>
0.7450

> <Gold.PLP.ligand.clash>
0.0000

> <Gold.PLP.ligand.torsion>
0.7559

> <Gold.PLP.Chemscore.Hbond>
3.9425

> <Gold.PLP.Chemscore.CHOScore>
0.8765

> <Gold.PLP.Chemscore.Metal>
0.0000

> <Gold.Chemscore.Hbonds>
donor molecule, donor type, donor heavy atom, donor atom, acceptor molecule, acceptor atom, score
      L1  H    18    41       P1 10175  1.00
      L1  H    22    43       P1  7957  1.00
      P1  H  7997  8010       L1    25  0.73
      P1  H 10752 10765       L1    11  1.00
      L1  C    12    38       P1  7948  0.23
      L1  C    12    38       P1  7949  0.65

> <Gold.PLP.Chemscore.Internal.Correction>
0.0331

> <Gold.Rescore>
     Score         DG    S(hbond)    S(metal)    S(lipo)     H(rot)  DE(clash)    DE(int)     intcor
      7.89     -12.29       2.97        0.00      61.24       4.02       0.98       3.42       ----

> <Gold.Chemscore.Fitness>
7.8921

> <Gold.Chemscore.DG>
-12.2866

> <Gold.Chemscore.ZeroCoef>
-5.4800

> <Gold.Chemscore.Hbond>
2.9733

> <Gold.Chemscore.Metal>
0.0000

> <Gold.Chemscore.Lipo>
61.2404

> <Gold.Chemscore.Internal_Hbond>
0.0000

> <Gold.Chemscore.DEClash>
0.9795

> <Gold.Chemscore.DEInternal>
3.4151

> <Gold.Chemscore.Rot>
4.0192

> <Gold.Chemscore.Internal.Correction>
   9.000000E+99

> <Gold.Chemscore.Hbonds>
donor molecule, donor type, donor heavy atom, donor atom, acceptor molecule, acceptor atom, score
      L1  H    18    41       P1 10175  0.98
      L1  H    22    43       P1  7957  1.00
      P1  H  7997  8010       L1    25  0.01
      P1  H 10752 10765       L1    11  0.88

> <Gold.Chemscore.Hbond.Weighted>
-9.9308

> <Gold.Chemscore.Metal.Weighted>
-0.0000

> <Gold.Chemscore.Lipo.Weighted>
-7.1651

> <Gold.Chemscore.Internal_Hbond.Weighted>
0.0000

> <Gold.Chemscore.DEClash.Weighted>
0.9795

> <Gold.Chemscore.DEInternal.Weighted>
3.4151

> <Gold.Chemscore.Rot.Weighted>
10.2893

> <Gold.Chemscore.Internal.Correction.Weighted>
   9.000000E+99

> <Gold.Protein.RotatedTorsions>
[ 6907 6896 6895 6894 ] final  122.71 input  -60.11 | X-H torsion
[ 7974 7965 7964 7962 ] final  -99.81 input  175.53 | X-H torsion
[ 8008 7997 7996 7995 ] final   25.21 input   59.86 | X-H torsion
[ 10167 10162 10161 10158 ] final  -36.15 input  -65.29 | X-H torsion
[ 10718 10713 10712 10709 ] final  161.08 input   66.30 | X-H torsion
[ 10763 10752 10751 10750 ] final -174.93 input  -60.55 | X-H torsion
[ 11005 11000 10999 10996 ] final  146.72 input  -57.11 | X-H torsion

> <Gold.Protein.ActiveResidues>
 VAL166  LYS551  ARG553  GLY616  TRP617  ASP618  TYR619  PRO620  LYS621  CYS622 
 ASP623  PHE694  ASN695  SER759  ASP760  ASP761  ALA762  ILE779  LEU786  VAL792 
 PHE793  MET794  SER795  GLU796  ALA797  LYS798  CYS799  TRP800  GLU811  SER814 

> <Gold.Protein.RotatedAtoms>
  152.4221  133.7133  159.6491 H   0  0  0  0  0  0  0  0  0  0  0  0  # atno 6907 bound_to 6896
  150.8097  133.8434  159.3194 H   0  0  0  0  0  0  0  0  0  0  0  0  # atno 6908 bound_to 6896
  151.6147  135.1039  160.0140 H   0  0  0  0  0  0  0  0  0  0  0  0  # atno 6909 bound_to 6896
  145.3028  140.9381  143.2814 H   0  0  0  0  0  0  0  0  0  0  0  0  # atno 7974 bound_to 7965
  155.0083  140.3133  155.4840 H   0  0  0  0  0  0  0  0  0  0  0  0  # atno 8008 bound_to 7997
  156.2913  140.2219  156.5137 H   0  0  0  0  0  0  0  0  0  0  0  0  # atno 8009 bound_to 7997
  154.7557  140.0463  157.0919 H   0  0  0  0  0  0  0  0  0  0  0  0  # atno 8010 bound_to 7997
  140.7149  143.3428  151.2320 H   0  0  0  0  0  0  0  0  0  0  0  0  # atno 10167 bound_to 10162
  157.1415  131.0541  151.2324 H   0  0  0  0  0  0  0  0  0  0  0  0  # atno 10718 bound_to 10713
  154.5904  135.2844  155.0641 H   0  0  0  0  0  0  0  0  0  0  0  0  # atno 10763 bound_to 10752
  154.1944  135.6435  153.5073 H   0  0  0  0  0  0  0  0  0  0  0  0  # atno 10764 bound_to 10752
  153.0119  135.5454  154.6588 H   0  0  0  0  0  0  0  0  0  0  0  0  # atno 10765 bound_to 10752
  140.0817  134.9093  157.1510 H   0  0  0  0  0  0  0  0  0  0  0  0  # atno 11005 bound_to 11000
  144.9080  139.4565  143.6601 LP  0  0  0  0  0  0  0  0  0  0  0  0  # atno 17320 bound_to 7965
  146.3146  139.7871  142.8993 LP  0  0  0  0  0  0  0  0  0  0  0  0  # atno 17321 bound_to 7965
  139.6940  143.9643  152.2873 LP  0  0  0  0  0  0  0  0  0  0  0  0  # atno 17342 bound_to 10162
  139.9315  144.6738  150.8358 LP  0  0  0  0  0  0  0  0  0  0  0  0  # atno 17343 bound_to 10162
  157.4303  130.7486  149.6984 LP  0  0  0  0  0  0  0  0  0  0  0  0  # atno 17370 bound_to 10713
  155.9787  130.4048  150.3629 LP  0  0  0  0  0  0  0  0  0  0  0  0  # atno 17371 bound_to 10713
  140.3479  134.2631  155.7202 LP  0  0  0  0  0  0  0  0  0  0  0  0  # atno 17394 bound_to 11000
  141.2049  133.7875  157.0264 LP  0  0  0  0  0  0  0  0  0  0  0  0  # atno 17395 bound_to 11000

$$$$
