AV-unprocessed.smi:657|AV-procd|sdf|3225|dock6
  -GOLD-   22720 0163D 1   1.00000     0.00000
 Structure written by MMmdl.
 46 47  0  0  0  0  0  0  0  0  1 V2000
  152.7854  144.7350  158.1487 C   0  0  0  0  0  0  0  0  0  0  0  0
  151.9165  143.7961  159.0063 C   0  0  0  0  0  0  0  0  0  0  0  0
  151.3533  144.5171  160.2483 C   0  0  0  0  0  0  0  0  0  0  0  0
  152.6295  142.5384  159.3254 N   0  0  0  0  0  0  0  0  0  0  0  0
  153.3717  142.5926  160.5968 C   0  0  0  0  0  0  0  0  0  0  0  0
  154.3208  141.3904  160.7342 C   0  0  0  0  0  0  0  0  0  0  0  0
  153.5465  140.0728  160.6749 C   0  0  0  0  0  0  0  0  0  0  0  0
  152.7202  140.0351  159.3876 C   0  0  0  0  0  0  0  0  0  0  0  0
  151.8123  141.2818  159.2668 C   0  0  2  0  0  0  0  0  0  0  0  0
  150.9275  141.1429  158.0126 C   0  0  0  0  0  0  0  0  0  0  0  0
  149.7009  141.2055  158.1054 O   0  0  0  0  0  0  0  0  0  0  0  0
  151.5656  140.9295  156.8512 N   0  0  0  0  0  0  0  0  0  0  0  0
  150.9180  140.7500  155.5578 C   0  0  0  0  0  0  0  0  0  0  0  0
  149.9745  139.5374  155.5633 C   0  0  0  0  0  0  0  0  0  0  0  0
  148.8994  139.6743  154.5221 C   0  0  0  0  0  0  0  0  0  0  0  0
  148.2081  140.8563  154.1306 C   0  0  0  0  0  0  0  0  0  0  0  0
  147.3105  140.6373  153.1835 N   0  0  0  0  0  0  0  0  0  0  0  0
  147.3975  139.3138  152.9379 N   0  0  0  0  0  0  0  0  0  0  0  0
  146.5407  138.7163  151.9363 C   0  0  0  0  0  0  0  0  0  0  0  0
  148.3477  138.7070  153.7305 C   0  0  0  0  0  0  0  0  0  0  0  0
  152.1797  145.5423  157.7358 H   0  0  0  0  0  0  0  0  0  0  0  0
  153.2330  144.2027  157.3087 H   0  0  0  0  0  0  0  0  0  0  0  0
  153.5859  145.2054  158.7188 H   0  0  0  0  0  0  0  0  0  0  0  0
  151.0740  143.5638  158.3571 H   0  0  0  0  0  0  0  0  0  0  0  0
  150.7609  145.3823  159.9501 H   0  0  0  0  0  0  0  0  0  0  0  0
  152.1441  144.8827  160.9033 H   0  0  0  0  0  0  0  0  0  0  0  0
  150.7013  143.8715  160.8357 H   0  0  0  0  0  0  0  0  0  0  0  0
  153.9763  143.4946  160.6643 H   0  0  0  0  0  0  0  0  0  0  0  0
  152.6819  142.6135  161.4414 H   0  0  0  0  0  0  0  0  0  0  0  0
  155.0683  141.4181  159.9400 H   0  0  0  0  0  0  0  0  0  0  0  0
  154.8676  141.4549  161.6753 H   0  0  0  0  0  0  0  0  0  0  0  0
  154.2323  139.2261  160.7119 H   0  0  0  0  0  0  0  0  0  0  0  0
  152.8903  139.9869  161.5418 H   0  0  0  0  0  0  0  0  0  0  0  0
  153.3958  139.9770  158.5323 H   0  0  0  0  0  0  0  0  0  0  0  0
  152.1212  139.1234  159.3704 H   0  0  0  0  0  0  0  0  0  0  0  0
  151.1430  141.2762  160.1294 H   0  0  0  0  0  0  0  0  0  0  0  0
  152.5739  140.8809  156.8673 H   0  0  0  0  0  0  0  0  0  0  0  0
  150.3560  141.6576  155.3351 H   0  0  0  0  0  0  0  0  0  0  0  0
  151.6685  140.6495  154.7717 H   0  0  0  0  0  0  0  0  0  0  0  0
  150.5504  138.6266  155.3946 H   0  0  0  0  0  0  0  0  0  0  0  0
  149.5331  139.4290  156.5547 H   0  0  0  0  0  0  0  0  0  0  0  0
  148.3313  141.8614  154.5064 H   0  0  0  0  0  0  0  0  0  0  0  0
  146.7366  137.6461  151.8666 H   0  0  0  0  0  0  0  0  0  0  0  0
  146.7315  139.1755  150.9658 H   0  0  0  0  0  0  0  0  0  0  0  0
  145.4953  138.8684  152.2063 H   0  0  0  0  0  0  0  0  0  0  0  0
  148.5503  137.6479  153.6683 H   0  0  0  0  0  0  0  0  0  0  0  0
  1  2  1  0  0  0  0
  1 21  1  0  0  0  0
  1 22  1  0  0  0  0
  1 23  1  0  0  0  0
  2  3  1  0  0  0  0
  2  4  1  0  0  0  0
  2 24  1  0  0  0  0
  3 25  1  0  0  0  0
  3 26  1  0  0  0  0
  3 27  1  0  0  0  0
  4  9  1  0  0  0  0
  4  5  1  0  0  0  0
  5  6  1  0  0  0  0
  5 28  1  0  0  0  0
  5 29  1  0  0  0  0
  6  7  1  0  0  0  0
  6 30  1  0  0  0  0
  6 31  1  0  0  0  0
  7  8  1  0  0  0  0
  7 32  1  0  0  0  0
  7 33  1  0  0  0  0
  8  9  1  0  0  0  0
  8 34  1  0  0  0  0
  8 35  1  0  0  0  0
  9 10  1  0  0  0  0
  9 36  1  0  0  0  0
 10 11  2  0  0  0  0
 10 12  1  0  0  0  0
 12 13  1  0  0  0  0
 12 37  1  0  0  0  0
 13 14  1  0  0  0  0
 13 38  1  0  0  0  0
 13 39  1  0  0  0  0
 14 15  1  0  0  0  0
 14 40  1  0  0  0  0
 14 41  1  0  0  0  0
 15 20  2  0  0  0  0
 15 16  1  0  0  0  0
 16 17  2  0  0  0  0
 16 42  1  0  0  0  0
 17 18  1  0  0  0  0
 18 19  1  0  0  0  0
 18 20  1  0  0  0  0
 19 43  1  0  0  0  0
 19 44  1  0  0  0  0
 19 45  1  0  0  0  0
 20 46  1  0  0  0  0
M  END
> <s_m_source_file>
AV-unprocessed.smi

> <i_m_source_file_index>
657

> <i_lp_mmshare_version>
43012

> <i_f3d_flags>
0

> <s_epik_input>
W0NIM11bQ0hdKFtDSDNdKU4xW0NIMl1bQ0gyXVtDSDJdW0NIMl1bQ0BIXTFDKD1PKVtOSF1bQ0gyXVtDSDJdYzJbY0hdbm4oW0NIM10pW2NIXTI=

> <s_epik_cmdline>
J2VwaWtfcHl0aG9uJywgJy1waCcsICc3LjAnLCAnLXRuJywgJzgnLCAnLW1hJywgJzIwMCcsICctbWV0YWxfYmluZGluZycsICctaW1hZScsICc8aW5maWxlLm1hZT4nLCAnLW9tYWUnLCAnPG91dGZpbGUubWFlPic=

> <r_lp_tautomer_probability>
1

> <r_epik_Ionization_Penalty>
1.91154

> <r_epik_Ionization_Penalty_Charging>
0

> <r_epik_Ionization_Penalty_Neutral>
1.91154

> <r_epik_State_Penalty>
2.0331

> <r_epik_Charging_Adjusted_Penalty>
2.0331

> <i_epik_Tot_Q>
0

> <i_epik_Tot_abs_Q>
0

> <r_epik_Metal_State_Penalty>
2.04973

> <b_epik_Metal_Only>
0

> <s_lp_Force_Field>
OPLS_2005

> <r_lp_Energy>
15.3254

> <b_lp_Chiralities_Consistent>
1

> <s_lp_Variant>
AV-unprocessed.smi:657-6

> <Gold.Version>
5.8.1

> <Gold.Id.Protein>
6NUR|6NUR_protein|mol2

> <Gold.PLP.Fitness>
41.8960

> <Gold.PLP.PLP>
-41.5860

> <Gold.PLP.part.hbond>
0.0000

> <Gold.PLP.part.metal>
0.0000

> <Gold.PLP.part.buried>
-1.6722

> <Gold.PLP.part.nonpolar>
-40.1027

> <Gold.PLP.part.repulsive>
0.3172

> <Gold.PLP.ligand.clash>
0.0000

> <Gold.PLP.ligand.torsion>
1.4067

> <Gold.PLP.Chemscore.Hbond>
0.0000

> <Gold.PLP.Chemscore.CHOScore>
1.0000

> <Gold.PLP.Chemscore.Metal>
0.0000

> <Gold.Chemscore.Hbonds>
donor molecule, donor type, donor heavy atom, donor atom, acceptor molecule, acceptor atom, score
      L1  C    20    46       P1  7948  1.00

> <Gold.PLP.Chemscore.Internal.Correction>
0.1234

> <Gold.Rescore>
     Score         DG    S(hbond)    S(metal)    S(lipo)     H(rot)  DE(clash)    DE(int)     intcor
     14.41     -15.74       0.00        0.00     122.15       1.57       0.35       0.98       ----

> <Gold.Chemscore.Fitness>
14.4147

> <Gold.Chemscore.DG>
-15.7429

> <Gold.Chemscore.ZeroCoef>
-5.4800

> <Gold.Chemscore.Hbond>
0.0000

> <Gold.Chemscore.Metal>
0.0000

> <Gold.Chemscore.Lipo>
122.1482

> <Gold.Chemscore.Internal_Hbond>
0.0000

> <Gold.Chemscore.DEClash>
0.3515

> <Gold.Chemscore.DEInternal>
0.9767

> <Gold.Chemscore.Rot>
1.5736

> <Gold.Chemscore.Internal.Correction>
   9.000000E+99

> <Gold.Chemscore.Hbond.Weighted>
-0.0000

> <Gold.Chemscore.Metal.Weighted>
-0.0000

> <Gold.Chemscore.Lipo.Weighted>
-14.2913

> <Gold.Chemscore.Internal_Hbond.Weighted>
0.0000

> <Gold.Chemscore.DEClash.Weighted>
0.3515

> <Gold.Chemscore.DEInternal.Weighted>
0.9767

> <Gold.Chemscore.Rot.Weighted>
4.0284

> <Gold.Chemscore.Internal.Correction.Weighted>
   9.000000E+99

> <Gold.Protein.RotatedTorsions>
[ 6907 6896 6895 6894 ] final  -44.97 input  -60.11 | X-H torsion
[ 7974 7965 7964 7962 ] final  -69.65 input  175.53 | X-H torsion
[ 8008 7997 7996 7995 ] final   59.41 input   59.86 | X-H torsion
[ 10167 10162 10161 10158 ] final  -18.39 input  -65.29 | X-H torsion
[ 10718 10713 10712 10709 ] final   99.40 input   66.30 | X-H torsion
[ 10763 10752 10751 10750 ] final  -40.59 input  -60.55 | X-H torsion
[ 11005 11000 10999 10996 ] final  -90.97 input  -57.11 | X-H torsion

> <Gold.Protein.ActiveResidues>
 VAL166  LYS551  ARG553  GLY616  TRP617  ASP618  TYR619  PRO620  LYS621  CYS622 
 ASP623  PHE694  ASN695  SER759  ASP760  ASP761  ALA762  ILE779  LEU786  VAL792 
 PHE793  MET794  SER795  GLU796  ALA797  LYS798  CYS799  TRP800  GLU811  SER814 

> <Gold.Protein.RotatedAtoms>
  150.9270  134.8687  159.7526 H   0  0  0  0  0  0  0  0  0  0  0  0  # atno 6907 bound_to 6896
  152.5020  134.4134  159.9466 H   0  0  0  0  0  0  0  0  0  0  0  0  # atno 6908 bound_to 6896
  151.4164  133.3672  159.2785 H   0  0  0  0  0  0  0  0  0  0  0  0  # atno 6909 bound_to 6896
  145.7010  140.9116  143.0731 H   0  0  0  0  0  0  0  0  0  0  0  0  # atno 7974 bound_to 7965
  155.5657  140.3489  155.4502 H   0  0  0  0  0  0  0  0  0  0  0  0  # atno 8008 bound_to 7997
  156.0481  140.1311  157.0106 H   0  0  0  0  0  0  0  0  0  0  0  0  # atno 8009 bound_to 7997
  154.4422  140.1010  156.6321 H   0  0  0  0  0  0  0  0  0  0  0  0  # atno 8010 bound_to 7997
  140.7258  143.4921  150.9978 H   0  0  0  0  0  0  0  0  0  0  0  0  # atno 10167 bound_to 10162
  157.6877  131.0668  150.4942 H   0  0  0  0  0  0  0  0  0  0  0  0  # atno 10718 bound_to 10713
  153.9485  135.6753  153.4744 H   0  0  0  0  0  0  0  0  0  0  0  0  # atno 10763 bound_to 10752
  153.0896  135.4881  154.8661 H   0  0  0  0  0  0  0  0  0  0  0  0  # atno 10764 bound_to 10752
  154.7338  135.3144  154.8804 H   0  0  0  0  0  0  0  0  0  0  0  0  # atno 10765 bound_to 10752
  141.1555  133.7726  156.9813 H   0  0  0  0  0  0  0  0  0  0  0  0  # atno 11005 bound_to 11000
  144.6968  139.8948  143.7455 LP  0  0  0  0  0  0  0  0  0  0  0  0  # atno 17320 bound_to 7965
  146.0798  139.3785  143.0472 LP  0  0  0  0  0  0  0  0  0  0  0  0  # atno 17321 bound_to 7965
  139.8626  143.7295  152.3172 LP  0  0  0  0  0  0  0  0  0  0  0  0  # atno 17342 bound_to 10162
  139.7515  144.7532  151.0499 LP  0  0  0  0  0  0  0  0  0  0  0  0  # atno 17343 bound_to 10162
  156.5267  130.4175  149.6222 LP  0  0  0  0  0  0  0  0  0  0  0  0  # atno 17370 bound_to 10713
  156.3106  130.7227  151.2118 LP  0  0  0  0  0  0  0  0  0  0  0  0  # atno 17371 bound_to 10713
  140.1064  134.9504  157.2000 LP  0  0  0  0  0  0  0  0  0  0  0  0  # atno 17394 bound_to 11000
  140.3251  134.2872  155.7238 LP  0  0  0  0  0  0  0  0  0  0  0  0  # atno 17395 bound_to 11000

$$$$
