AV-unprocessed.smi:479|AV-procd|sdf|2674|dock3
  -GOLD-   2262023 93D 1   1.00000     0.00000
 Structure written by MMmdl.
 46 48  0  0  0  0  0  0  0  0  2 V2000
  151.7721  139.8263  157.2466 C   0  0  0  0  0  0  0  0  0  0  0  0
  152.5654  139.6999  158.4172 O   0  0  0  0  0  0  0  0  0  0  0  0
  152.7403  140.8093  159.2189 C   0  0  0  0  0  0  0  0  0  0  0  0
  152.2781  142.1058  158.8763 C   0  0  0  0  0  0  0  0  0  0  0  0
  152.4913  143.2064  159.7381 C   0  0  0  0  0  0  0  0  0  0  0  0
  152.0128  144.5778  159.3997 C   0  0  0  0  0  0  0  0  0  0  0  0
  151.3135  144.7810  158.0565 C   0  0  0  0  0  0  0  0  0  0  0  0
  152.1510  145.5473  160.1449 O   0  0  0  0  0  0  0  0  0  0  0  0
  153.1786  142.9956  160.9517 C   0  0  0  0  0  0  0  0  0  0  0  0
  153.6392  141.7143  161.3008 C   0  0  0  0  0  0  0  0  0  0  0  0
  153.4195  140.6103  160.4416 C   0  0  0  0  0  0  0  0  0  0  0  0
  153.8301  139.3243  160.7281 O   0  0  0  0  0  0  0  0  0  0  0  0
  154.7897  139.1301  161.7598 C   0  0  0  0  0  0  0  0  0  0  0  0
  155.5526  137.8119  161.5314 C   0  0  2  0  0  0  0  0  0  0  0  0
  156.1761  137.8361  160.2651 O   0  0  0  0  0  0  0  0  0  0  0  0
  154.7124  136.5275  161.6874 C   0  0  0  0  0  0  0  0  0  0  0  0
  154.5222  136.1444  163.0952 N   0  0  0  0  0  0  0  0  0  0  0  0
  154.3406  136.9383  164.1856 C   0  0  0  0  0  0  0  0  0  0  0  0
  154.1893  136.1263  165.2675 N   0  3  0  0  0  0  0  0  0  0  0  0
  154.2845  134.7926  164.8666 C   0  0  0  0  0  0  0  0  0  0  0  0
  154.1929  133.6148  165.6022 C   0  0  0  0  0  0  0  0  0  0  0  0
  154.3352  132.4081  164.8863 C   0  0  0  0  0  0  0  0  0  0  0  0
  154.5648  132.4033  163.4957 C   0  0  0  0  0  0  0  0  0  0  0  0
  154.6617  133.6036  162.7624 C   0  0  0  0  0  0  0  0  0  0  0  0
  154.5098  134.7945  163.4731 C   0  0  0  0  0  0  0  0  0  0  0  0
  151.7282  138.8630  156.7384 H   0  0  0  0  0  0  0  0  0  0  0  0
  152.2003  140.5471  156.5491 H   0  0  0  0  0  0  0  0  0  0  0  0
  150.7492  140.1176  157.4886 H   0  0  0  0  0  0  0  0  0  0  0  0
  151.7568  142.2601  157.9453 H   0  0  0  0  0  0  0  0  0  0  0  0
  151.9814  144.5225  157.2347 H   0  0  0  0  0  0  0  0  0  0  0  0
  151.0138  145.8225  157.9369 H   0  0  0  0  0  0  0  0  0  0  0  0
  150.4195  144.1607  157.9931 H   0  0  0  0  0  0  0  0  0  0  0  0
  153.3613  143.8161  161.6307 H   0  0  0  0  0  0  0  0  0  0  0  0
  154.1613  141.6074  162.2392 H   0  0  0  0  0  0  0  0  0  0  0  0
  155.4823  139.9719  161.8074 H   0  0  0  0  0  0  0  0  0  0  0  0
  154.2799  139.0692  162.7226 H   0  0  0  0  0  0  0  0  0  0  0  0
  156.3628  137.7759  162.2607 H   0  0  0  0  0  0  0  0  0  0  0  0
  157.1130  137.8431  160.3897 H   0  0  0  0  0  0  0  0  0  0  0  0
  153.7452  136.6390  161.1999 H   0  0  0  0  0  0  0  0  0  0  0  0
  155.2084  135.6935  161.1892 H   0  0  0  0  0  0  0  0  0  0  0  0
  154.3099  138.0184  164.1892 H   0  0  0  0  0  0  0  0  0  0  0  0
  154.0188  133.6161  166.6684 H   0  0  0  0  0  0  0  0  0  0  0  0
  154.2683  131.4678  165.4141 H   0  0  0  0  0  0  0  0  0  0  0  0
  154.6681  131.4603  162.9788 H   0  0  0  0  0  0  0  0  0  0  0  0
  154.8354  133.5797  161.6974 H   0  0  0  0  0  0  0  0  0  0  0  0
  154.0328  136.4606  166.2099 H   0  0  0  0  0  0  0  0  0  0  0  0
  1  2  1  0  0  0  0
  1 26  1  0  0  0  0
  1 27  1  0  0  0  0
  1 28  1  0  0  0  0
  2  3  1  0  0  0  0
  3 11  1  0  0  0  0
  3  4  2  0  0  0  0
  4  5  1  0  0  0  0
  4 29  1  0  0  0  0
  5  6  1  0  0  0  0
  5  9  2  0  0  0  0
  6  7  1  0  0  0  0
  6  8  2  0  0  0  0
  7 30  1  0  0  0  0
  7 31  1  0  0  0  0
  7 32  1  0  0  0  0
  9 10  1  0  0  0  0
  9 33  1  0  0  0  0
 10 11  2  0  0  0  0
 10 34  1  0  0  0  0
 11 12  1  0  0  0  0
 12 13  1  0  0  0  0
 13 14  1  0  0  0  0
 13 35  1  0  0  0  0
 13 36  1  0  0  0  0
 14 15  1  0  0  0  0
 14 16  1  0  0  0  0
 14 37  1  0  0  0  0
 15 38  1  0  0  0  0
 16 17  1  0  0  0  0
 16 39  1  0  0  0  0
 16 40  1  0  0  0  0
 17 25  1  0  0  0  0
 17 18  1  0  0  0  0
 18 19  2  0  0  0  0
 18 41  1  0  0  0  0
 19 20  1  0  0  0  0
 19 46  1  0  0  0  0
 20 25  2  0  0  0  0
 20 21  1  0  0  0  0
 21 22  2  0  0  0  0
 21 42  1  0  0  0  0
 22 23  1  0  0  0  0
 22 43  1  0  0  0  0
 23 24  2  0  0  0  0
 23 44  1  0  0  0  0
 24 25  1  0  0  0  0
 24 45  1  0  0  0  0
M  CHG  1  19   1
M  END
> <s_m_source_file>
AV-unprocessed.smi

> <i_m_source_file_index>
479

> <i_lp_mmshare_version>
43012

> <i_f3d_flags>
0

> <s_epik_input>
W0NIM11PYzFbY0hdYyhDKD1PKVtDSDNdKVtjSF1bY0hdYzFPW0NIMl1bQ0BIXShbT0hdKVtDSDJdbihbY0hdbjIpYyhjMjMpW2NIXVtjSF1bY0hdW2NIXTM=

> <s_epik_cmdline>
J2VwaWtfcHl0aG9uJywgJy1waCcsICc3LjAnLCAnLXRuJywgJzgnLCAnLW1hJywgJzIwMCcsICctbWV0YWxfYmluZGluZycsICctaW1hZScsICc8aW5maWxlLm1hZT4nLCAnLW9tYWUnLCAnPG91dGZpbGUubWFlPic=

> <r_lp_tautomer_probability>
0.99995

> <r_epik_Ionization_Penalty>
1.37698

> <r_epik_Ionization_Penalty_Charging>
1.37698

> <r_epik_Ionization_Penalty_Neutral>
2.3993e-06

> <r_epik_State_Penalty>
1.45717

> <r_epik_Charging_Adjusted_Penalty>
2.83415

> <i_epik_Tot_Q>
1

> <i_epik_Tot_abs_Q>
1

> <r_epik_Metal_State_Penalty>
5.49703

> <b_epik_Metal_Only>
0

> <s_lp_Force_Field>
OPLS_2005

> <r_lp_Energy>
30.5916

> <b_lp_Chiralities_Consistent>
1

> <s_lp_Variant>
AV-unprocessed.smi:479-3

> <Gold.Version>
5.8.1

> <Gold.Id.Protein>
6NUR|6NUR_protein|mol2

> <Gold.PLP.Fitness>
51.5004

> <Gold.PLP.PLP>
-53.2044

> <Gold.PLP.part.hbond>
-1.7871

> <Gold.PLP.part.metal>
0.0000

> <Gold.PLP.part.buried>
-5.4076

> <Gold.PLP.part.nonpolar>
-45.9692

> <Gold.PLP.part.repulsive>
0.3248

> <Gold.PLP.ligand.clash>
0.0000

> <Gold.PLP.ligand.torsion>
0.9511

> <Gold.PLP.Chemscore.Hbond>
0.0000

> <Gold.PLP.Chemscore.CHOScore>
0.0000

> <Gold.PLP.Chemscore.Metal>
0.0000

> <Gold.PLP.Chemscore.Internal.Correction>
0.1982

> <Gold.Rescore>
     Score         DG    S(hbond)    S(metal)    S(lipo)     H(rot)  DE(clash)    DE(int)     intcor
     13.52     -14.22       0.00        0.00     134.84       2.75       0.07       0.63       ----

> <Gold.Chemscore.Fitness>
13.5213

> <Gold.Chemscore.DG>
-14.2190

> <Gold.Chemscore.ZeroCoef>
-5.4800

> <Gold.Chemscore.Hbond>
0.0000

> <Gold.Chemscore.Metal>
0.0000

> <Gold.Chemscore.Lipo>
134.8355

> <Gold.Chemscore.Internal_Hbond>
0.0000

> <Gold.Chemscore.DEClash>
0.0706

> <Gold.Chemscore.DEInternal>
0.6271

> <Gold.Chemscore.Rot>
2.7487

> <Gold.Chemscore.Internal.Correction>
   9.000000E+99

> <Gold.Chemscore.Hbond.Weighted>
-0.0000

> <Gold.Chemscore.Metal.Weighted>
-0.0000

> <Gold.Chemscore.Lipo.Weighted>
-15.7758

> <Gold.Chemscore.Internal_Hbond.Weighted>
0.0000

> <Gold.Chemscore.DEClash.Weighted>
0.0706

> <Gold.Chemscore.DEInternal.Weighted>
0.6271

> <Gold.Chemscore.Rot.Weighted>
7.0368

> <Gold.Chemscore.Internal.Correction.Weighted>
   9.000000E+99

> <Gold.Protein.RotatedTorsions>
[ 6907 6896 6895 6894 ] final  132.21 input  -60.11 | X-H torsion
[ 7974 7965 7964 7962 ] final   61.44 input  175.53 | X-H torsion
[ 8008 7997 7996 7995 ] final   78.97 input   59.86 | X-H torsion
[ 10167 10162 10161 10158 ] final  172.99 input  -65.29 | X-H torsion
[ 10718 10713 10712 10709 ] final  100.04 input   66.30 | X-H torsion
[ 10763 10752 10751 10750 ] final  133.54 input  -60.55 | X-H torsion
[ 11005 11000 10999 10996 ] final   -2.88 input  -57.11 | X-H torsion

> <Gold.Protein.ActiveResidues>
 VAL166  LYS551  ARG553  GLY616  TRP617  ASP618  TYR619  PRO620  LYS621  CYS622 
 ASP623  PHE694  ASN695  SER759  ASP760  ASP761  ALA762  ILE779  LEU786  VAL792 
 PHE793  MET794  SER795  GLU796  ALA797  LYS798  CYS799  TRP800  GLU811  SER814 

> <Gold.Protein.RotatedAtoms>
  152.3348  133.5999  159.5834 H   0  0  0  0  0  0  0  0  0  0  0  0  # atno 6907 bound_to 6896
  150.7444  133.9813  159.3586 H   0  0  0  0  0  0  0  0  0  0  0  0  # atno 6908 bound_to 6896
  151.7684  135.0793  160.0407 H   0  0  0  0  0  0  0  0  0  0  0  0  # atno 6909 bound_to 6896
  145.8848  139.3468  143.0685 H   0  0  0  0  0  0  0  0  0  0  0  0  # atno 7974 bound_to 7965
  155.8631  140.3452  155.5770 H   0  0  0  0  0  0  0  0  0  0  0  0  # atno 8008 bound_to 7997
  155.7911  140.0872  157.2028 H   0  0  0  0  0  0  0  0  0  0  0  0  # atno 8009 bound_to 7997
  154.4013  140.1483  156.3151 H   0  0  0  0  0  0  0  0  0  0  0  0  # atno 8010 bound_to 7997
  139.5094  144.3312  152.0109 H   0  0  0  0  0  0  0  0  0  0  0  0  # atno 10167 bound_to 10162
  157.6863  131.0687  150.5041 H   0  0  0  0  0  0  0  0  0  0  0  0  # atno 10718 bound_to 10713
  153.8087  135.3132  155.3398 H   0  0  0  0  0  0  0  0  0  0  0  0  # atno 10763 bound_to 10752
  154.8060  135.4697  154.0396 H   0  0  0  0  0  0  0  0  0  0  0  0  # atno 10764 bound_to 10752
  153.1767  135.6887  153.8621 H   0  0  0  0  0  0  0  0  0  0  0  0  # atno 10765 bound_to 10752
  140.6632  133.9301  155.8449 H   0  0  0  0  0  0  0  0  0  0  0  0  # atno 11005 bound_to 11000
  145.8980  140.9261  143.0517 LP  0  0  0  0  0  0  0  0  0  0  0  0  # atno 17320 bound_to 7965
  144.6728  140.0995  143.7461 LP  0  0  0  0  0  0  0  0  0  0  0  0  # atno 17321 bound_to 7965
  140.2751  144.3921  150.6138 LP  0  0  0  0  0  0  0  0  0  0  0  0  # atno 17342 bound_to 10162
  140.6059  143.2168  151.6981 LP  0  0  0  0  0  0  0  0  0  0  0  0  # atno 17343 bound_to 10162
  156.5361  130.4196  149.6177 LP  0  0  0  0  0  0  0  0  0  0  0  0  # atno 17370 bound_to 10713
  156.3026  130.7185  151.2060 LP  0  0  0  0  0  0  0  0  0  0  0  0  # atno 17371 bound_to 10713
  141.0449  134.0568  157.3856 LP  0  0  0  0  0  0  0  0  0  0  0  0  # atno 17394 bound_to 11000
  139.9006  135.0163  156.7249 LP  0  0  0  0  0  0  0  0  0  0  0  0  # atno 17395 bound_to 11000

$$$$
