AV-unprocessed.smi:1763|AV-procd|sdf|7129|dock1
  -GOLD-   22720 8363D 1   1.00000     0.00000
 Structure written by MMmdl.
 43 44  0  0  0  0  0  0  0  0  2 V2000
  145.7598  134.9408  152.4093 C   0  0  0  0  0  0  0  0  0  0  0  0
  146.9564  135.1877  153.1995 N   0  0  0  0  0  0  0  0  0  0  0  0
  146.9665  135.3044  154.5346 C   0  0  0  0  0  0  0  0  0  0  0  0
  145.9521  135.2186  155.2276 O   0  0  0  0  0  0  0  0  0  0  0  0
  148.3291  135.5770  155.1800 C   0  0  0  0  0  0  0  0  0  0  0  0
  149.0356  136.7381  154.5802 N   0  3  2  0  0  0  0  0  0  0  0  0
  150.4595  136.8098  154.9962 C   0  0  0  0  0  0  0  0  0  0  0  0
  151.2035  137.9373  154.2566 C   0  0  0  0  0  0  0  0  0  0  0  0
  150.5132  139.3003  154.4367 C   0  0  2  0  0  0  0  0  0  0  0  0
  150.6920  139.7851  155.8053 N   0  0  0  0  0  0  0  0  0  0  0  0
  151.8580  139.8282  156.4672 C   0  0  0  0  0  0  0  0  0  0  0  0
  152.9288  139.4721  155.9753 O   0  0  0  0  0  0  0  0  0  0  0  0
  151.6925  140.3047  157.7138 N   0  0  0  0  0  0  0  0  0  0  0  0
  152.6804  140.5062  158.7142 C   0  0  0  0  0  0  0  0  0  0  0  0
  152.4284  141.5813  159.5960 C   0  0  0  0  0  0  0  0  0  0  0  0
  153.3479  141.8636  160.6248 C   0  0  0  0  0  0  0  0  0  0  0  0
  154.4978  141.0634  160.7445 C   0  0  0  0  0  0  0  0  0  0  0  0
  154.6737  140.0136  159.8243 C   0  0  0  0  0  0  0  0  0  0  0  0
  153.7937  139.7410  158.8378 N   0  0  0  0  0  0  0  0  0  0  0  0
  149.0241  139.1777  154.0554 C   0  0  0  0  0  0  0  0  0  0  0  0
  148.3314  138.0284  154.8076 C   0  0  0  0  0  0  0  0  0  0  0  0
  146.0131  134.9142  151.3494 H   0  0  0  0  0  0  0  0  0  0  0  0
  145.0219  135.7292  152.5632 H   0  0  0  0  0  0  0  0  0  0  0  0
  145.3087  133.9843  152.6759 H   0  0  0  0  0  0  0  0  0  0  0  0
  147.8288  135.2769  152.6984 H   0  0  0  0  0  0  0  0  0  0  0  0
  148.2223  135.7191  156.2569 H   0  0  0  0  0  0  0  0  0  0  0  0
  148.9239  134.6732  155.0411 H   0  0  0  0  0  0  0  0  0  0  0  0
  150.5170  136.9582  156.0756 H   0  0  0  0  0  0  0  0  0  0  0  0
  150.9524  135.8606  154.7825 H   0  0  0  0  0  0  0  0  0  0  0  0
  152.2390  137.9891  154.5956 H   0  0  0  0  0  0  0  0  0  0  0  0
  151.2454  137.6965  153.1934 H   0  0  0  0  0  0  0  0  0  0  0  0
  150.9920  140.0147  153.7645 H   0  0  0  0  0  0  0  0  0  0  0  0
  149.8623  140.0909  156.2926 H   0  0  0  0  0  0  0  0  0  0  0  0
  150.7505  140.5490  157.9809 H   0  0  0  0  0  0  0  0  0  0  0  0
  151.5397  142.1867  159.4905 H   0  0  0  0  0  0  0  0  0  0  0  0
  153.1726  142.6800  161.3098 H   0  0  0  0  0  0  0  0  0  0  0  0
  155.2258  141.2490  161.5204 H   0  0  0  0  0  0  0  0  0  0  0  0
  155.5433  139.3759  159.8810 H   0  0  0  0  0  0  0  0  0  0  0  0
  148.4984  140.1153  154.2393 H   0  0  0  0  0  0  0  0  0  0  0  0
  148.9449  138.9974  152.9825 H   0  0  0  0  0  0  0  0  0  0  0  0
  147.2973  137.9562  154.4695 H   0  0  0  0  0  0  0  0  0  0  0  0
  148.2959  138.2439  155.8765 H   0  0  0  0  0  0  0  0  0  0  0  0
  149.0393  136.5778  153.5825 H   0  0  0  0  0  0  0  0  0  0  0  0
  1  2  1  0  0  0  0
  1 22  1  0  0  0  0
  1 23  1  0  0  0  0
  1 24  1  0  0  0  0
  2  3  1  0  0  0  0
  2 25  1  0  0  0  0
  3  4  2  0  0  0  0
  3  5  1  0  0  0  0
  5  6  1  0  0  0  0
  5 26  1  0  0  0  0
  5 27  1  0  0  0  0
  6 21  1  0  0  0  0
  6  7  1  0  0  0  0
  6 43  1  0  0  0  0
  7  8  1  0  0  0  0
  7 28  1  0  0  0  0
  7 29  1  0  0  0  0
  8  9  1  0  0  0  0
  8 30  1  0  0  0  0
  8 31  1  0  0  0  0
  9 10  1  0  0  0  0
  9 20  1  0  0  0  0
  9 32  1  0  0  0  0
 10 11  1  0  0  0  0
 10 33  1  0  0  0  0
 11 12  2  0  0  0  0
 11 13  1  0  0  0  0
 13 14  1  0  0  0  0
 13 34  1  0  0  0  0
 14 19  1  0  0  0  0
 14 15  2  0  0  0  0
 15 16  1  0  0  0  0
 15 35  1  0  0  0  0
 16 17  2  0  0  0  0
 16 36  1  0  0  0  0
 17 18  1  0  0  0  0
 17 37  1  0  0  0  0
 18 19  2  0  0  0  0
 18 38  1  0  0  0  0
 20 21  1  0  0  0  0
 20 39  1  0  0  0  0
 20 40  1  0  0  0  0
 21 41  1  0  0  0  0
 21 42  1  0  0  0  0
M  CHG  1   6   1
M  END
> <s_m_source_file>
AV-unprocessed.smi

> <i_m_source_file_index>
1763

> <i_lp_mmshare_version>
43012

> <i_f3d_flags>
0

> <s_epik_input>
W0NIM11bTkhdQyg9TylbQ0gyXU4xW0NIMl1bQ0gyXVtDSF0oW0NIMl1bQ0gyXTEpW05IXUMoPU8pW05IXWMyW2NIXVtjSF1bY0hdW2NIXW4y

> <s_epik_cmdline>
J2VwaWtfcHl0aG9uJywgJy1waCcsICc3LjAnLCAnLXRuJywgJzgnLCAnLW1hJywgJzIwMCcsICctbWV0YWxfYmluZGluZycsICctaW1hZScsICc8aW5maWxlLm1hZT4nLCAnLW9tYWUnLCAnPG91dGZpbGUubWFlPic=

> <r_epik_Ionization_Penalty>
0.838902

> <r_epik_Ionization_Penalty_Charging>
0.838844

> <r_epik_Ionization_Penalty_Neutral>
5.81242e-05

> <r_epik_State_Penalty>
0.8734

> <r_epik_Charging_Adjusted_Penalty>
1.71224

> <i_epik_Tot_Q>
1

> <i_epik_Tot_abs_Q>
1

> <r_epik_Metal_State_Penalty>
0.877921

> <b_epik_Metal_Only>
0

> <s_lp_Force_Field>
OPLS_2005

> <r_lp_Energy>
15.7472

> <b_lp_Chiralities_Consistent>
1

> <s_lp_Variant>
AV-unprocessed.smi:1763-3

> <Gold.Version>
5.8.1

> <Gold.Id.Protein>
6NUR|6NUR_protein|mol2

> <Gold.PLP.Fitness>
45.7109

> <Gold.PLP.PLP>
-33.5582

> <Gold.PLP.part.hbond>
-4.0000

> <Gold.PLP.part.metal>
0.0000

> <Gold.PLP.part.buried>
-2.2336

> <Gold.PLP.part.nonpolar>
-26.9128

> <Gold.PLP.part.repulsive>
0.1787

> <Gold.PLP.ligand.clash>
0.0000

> <Gold.PLP.ligand.torsion>
0.3973

> <Gold.PLP.Chemscore.Hbond>
4.2944

> <Gold.PLP.Chemscore.CHOScore>
0.0000

> <Gold.PLP.Chemscore.Metal>
0.0000

> <Gold.Chemscore.Hbonds>
donor molecule, donor type, donor heavy atom, donor atom, acceptor molecule, acceptor atom, score
      L1  H     2    25       P1  7948  1.00
      L1  H     6    43       P1  7948  2.00
      P1  H  7997  8009       L1    19  0.38
      P1  H  7997  8010       L1    12  0.78

> <Gold.PLP.Chemscore.Internal.Correction>
0.0640

> <Gold.Rescore>
     Score         DG    S(hbond)    S(metal)    S(lipo)     H(rot)  DE(clash)    DE(int)     intcor
     17.11     -19.77       2.98        0.00      74.81       1.73       0.18       2.47       ----

> <Gold.Chemscore.Fitness>
17.1111

> <Gold.Chemscore.DG>
-19.7656

> <Gold.Chemscore.ZeroCoef>
-5.4800

> <Gold.Chemscore.Hbond>
2.9811

> <Gold.Chemscore.Metal>
0.0000

> <Gold.Chemscore.Lipo>
74.8064

> <Gold.Chemscore.Internal_Hbond>
0.0000

> <Gold.Chemscore.DEClash>
0.1818

> <Gold.Chemscore.DEInternal>
2.4727

> <Gold.Chemscore.Rot>
1.7280

> <Gold.Chemscore.Internal.Correction>
   9.000000E+99

> <Gold.Chemscore.Hbonds>
donor molecule, donor type, donor heavy atom, donor atom, acceptor molecule, acceptor atom, score
      L1  H     2    25       P1  7948  0.96
      L1  H     6    43       P1  7948  1.00
      P1  H  7997  8009       L1    19  0.02
      P1  H  7997  8010       L1    12  0.78

> <Gold.Chemscore.Hbond.Weighted>
-9.9570

> <Gold.Chemscore.Metal.Weighted>
-0.0000

> <Gold.Chemscore.Lipo.Weighted>
-8.7524

> <Gold.Chemscore.Internal_Hbond.Weighted>
0.0000

> <Gold.Chemscore.DEClash.Weighted>
0.1818

> <Gold.Chemscore.DEInternal.Weighted>
2.4727

> <Gold.Chemscore.Rot.Weighted>
4.4237

> <Gold.Chemscore.Internal.Correction.Weighted>
   9.000000E+99

> <Gold.Protein.RotatedTorsions>
[ 6907 6896 6895 6894 ] final -149.13 input  -60.11 | X-H torsion
[ 7974 7965 7964 7962 ] final   67.54 input  175.53 | X-H torsion
[ 8008 7997 7996 7995 ] final  110.80 input   59.86 | X-H torsion
[ 10167 10162 10161 10158 ] final   98.25 input  -65.29 | X-H torsion
[ 10718 10713 10712 10709 ] final  -22.93 input   66.30 | X-H torsion
[ 10763 10752 10751 10750 ] final   35.10 input  -60.55 | X-H torsion
[ 11005 11000 10999 10996 ] final -129.61 input  -57.11 | X-H torsion

> <Gold.Protein.ActiveResidues>
 VAL166  LYS551  ARG553  GLY616  TRP617  ASP618  TYR619  PRO620  LYS621  CYS622 
 ASP623  PHE694  ASN695  SER759  ASP760  ASP761  ALA762  ILE779  LEU786  VAL792 
 PHE793  MET794  SER795  GLU796  ALA797  LYS798  CYS799  TRP800  GLU811  SER814 

> <Gold.Protein.RotatedAtoms>
  151.1797  133.4732  159.2593 H   0  0  0  0  0  0  0  0  0  0  0  0  # atno 6907 bound_to 6896
  151.1271  135.0110  159.8575 H   0  0  0  0  0  0  0  0  0  0  0  0  # atno 6908 bound_to 6896
  152.5458  134.1703  159.8647 H   0  0  0  0  0  0  0  0  0  0  0  0  # atno 6909 bound_to 6896
  145.8135  139.3045  143.1085 H   0  0  0  0  0  0  0  0  0  0  0  0  # atno 7974 bound_to 7965
  156.2079  140.3031  155.9667 H   0  0  0  0  0  0  0  0  0  0  0  0  # atno 8008 bound_to 7997
  155.2797  140.0437  157.3031 H   0  0  0  0  0  0  0  0  0  0  0  0  # atno 8009 bound_to 7997
  154.5658  140.2334  155.8274 H   0  0  0  0  0  0  0  0  0  0  0  0  # atno 8010 bound_to 7997
  139.7726  144.6917  151.0135 H   0  0  0  0  0  0  0  0  0  0  0  0  # atno 10167 bound_to 10162
  156.4978  130.4581  149.6718 H   0  0  0  0  0  0  0  0  0  0  0  0  # atno 10718 bound_to 10713
  153.0134  135.6342  154.1774 H   0  0  0  0  0  0  0  0  0  0  0  0  # atno 10763 bound_to 10752
  154.1514  135.2829  155.3136 H   0  0  0  0  0  0  0  0  0  0  0  0  # atno 10764 bound_to 10752
  154.6050  135.5575  153.7474 H   0  0  0  0  0  0  0  0  0  0  0  0  # atno 10765 bound_to 10752
  140.9416  134.1185  157.4145 H   0  0  0  0  0  0  0  0  0  0  0  0  # atno 11005 bound_to 11000
  145.9752  140.8728  143.0142 LP  0  0  0  0  0  0  0  0  0  0  0  0  # atno 17320 bound_to 7965
  144.6755  140.2002  143.7388 LP  0  0  0  0  0  0  0  0  0  0  0  0  # atno 17321 bound_to 7965
  140.7815  143.4572  151.0329 LP  0  0  0  0  0  0  0  0  0  0  0  0  # atno 17342 bound_to 10162
  139.8255  143.7762  152.3178 LP  0  0  0  0  0  0  0  0  0  0  0  0  # atno 17343 bound_to 10162
  156.3362  130.7358  151.2296 LP  0  0  0  0  0  0  0  0  0  0  0  0  # atno 17370 bound_to 10713
  157.7466  131.0416  150.4654 LP  0  0  0  0  0  0  0  0  0  0  0  0  # atno 17371 bound_to 10713
  139.8822  135.0038  156.6212 LP  0  0  0  0  0  0  0  0  0  0  0  0  # atno 17394 bound_to 11000
  140.7726  133.8726  155.8503 LP  0  0  0  0  0  0  0  0  0  0  0  0  # atno 17395 bound_to 11000

$$$$
