AV-unprocessed.smi:1830|AV-procd|sdf|7445|dock5
  -GOLD-   22720 9133D 1   1.00000     0.00000
 Structure written by MMmdl.
 54 57  0  0  0  0  0  0  0  0  3 V2000
  150.0447  133.7683  155.4691 O   0  0  0  0  0  0  0  0  0  0  0  0
  149.4606  134.3991  154.5883 C   0  0  0  0  0  0  0  0  0  0  0  0
  149.5139  135.7337  154.4766 N   0  0  0  0  0  0  0  0  0  0  0  0
  150.2529  136.6158  155.3741 C   0  0  0  0  0  0  0  0  0  0  0  0
  151.0525  137.6877  154.5994 C   0  0  1  0  0  0  0  0  0  0  0  0
  150.2678  139.0094  154.4129 C   0  0  0  0  0  0  0  0  0  0  0  0
  150.2557  139.7501  155.6881 N   0  3  2  0  0  0  0  0  0  0  0  0
  149.5551  141.0454  155.7323 C   0  0  0  0  0  0  0  0  0  0  0  0
  150.2126  141.8118  156.8973 C   0  0  0  0  0  0  0  0  0  0  0  0
  151.3948  140.9396  157.3565 C   0  0  0  0  0  0  0  0  0  0  0  0
  151.6142  140.0040  156.1718 C   0  0  1  0  0  0  0  0  0  0  0  0
  152.3112  138.6639  156.4325 C   0  0  0  0  0  0  0  0  0  0  0  0
  152.3328  137.9314  155.2039 O   0  0  0  0  0  0  0  0  0  0  0  0
  148.7106  133.8553  153.6156 N   0  0  0  0  0  0  0  0  0  0  0  0
  148.4524  132.4747  153.3797 C   0  0  0  0  0  0  0  0  0  0  0  0
  149.3161  131.4580  153.8619 C   0  0  0  0  0  0  0  0  0  0  0  0
  148.9978  130.1047  153.6384 C   0  0  0  0  0  0  0  0  0  0  0  0
  147.8162  129.7873  152.9458 C   0  0  0  0  0  0  0  0  0  0  0  0
  147.0078  130.7772  152.5133 N   0  3  0  0  0  0  0  0  0  0  0  0
  147.2619  132.0960  152.7002 C   0  0  0  0  0  0  0  0  0  0  0  0
  146.3556  133.0458  152.1822 N   0  0  0  0  0  0  0  0  0  0  0  0
  146.2556  133.0435  150.7247 C   0  0  0  0  0  0  0  0  0  0  0  0
  144.7907  133.3310  150.3891 C   0  0  0  0  0  0  0  0  0  0  0  0
  144.0476  132.8181  151.6164 C   0  0  0  0  0  0  0  0  0  0  0  0
  145.0129  133.1563  152.7508 C   0  0  0  0  0  0  0  0  0  0  0  0
  149.0065  136.1720  153.7216 H   0  0  0  0  0  0  0  0  0  0  0  0
  149.5586  137.0955  156.0663 H   0  0  0  0  0  0  0  0  0  0  0  0
  150.9107  136.0037  155.9904 H   0  0  0  0  0  0  0  0  0  0  0  0
  151.2539  137.2910  153.6039 H   0  0  0  0  0  0  0  0  0  0  0  0
  150.7431  139.6204  153.6441 H   0  0  0  0  0  0  0  0  0  0  0  0
  149.2473  138.8146  154.0812 H   0  0  0  0  0  0  0  0  0  0  0  0
  149.7065  141.5846  154.7957 H   0  0  0  0  0  0  0  0  0  0  0  0
  148.4833  140.9051  155.8749 H   0  0  0  0  0  0  0  0  0  0  0  0
  150.5598  142.7875  156.5555 H   0  0  0  0  0  0  0  0  0  0  0  0
  149.5125  141.9809  157.7162 H   0  0  0  0  0  0  0  0  0  0  0  0
  152.2821  141.5237  157.6034 H   0  0  0  0  0  0  0  0  0  0  0  0
  151.1109  140.3679  158.2412 H   0  0  0  0  0  0  0  0  0  0  0  0
  152.1644  140.5484  155.4010 H   0  0  0  0  0  0  0  0  0  0  0  0
  153.3364  138.8270  156.7655 H   0  0  0  0  0  0  0  0  0  0  0  0
  151.8084  138.0963  157.2159 H   0  0  0  0  0  0  0  0  0  0  0  0
  148.3681  134.4893  152.9086 H   0  0  0  0  0  0  0  0  0  0  0  0
  150.2118  131.6938  154.4162 H   0  0  0  0  0  0  0  0  0  0  0  0
  149.6492  129.3220  153.9992 H   0  0  0  0  0  0  0  0  0  0  0  0
  147.4920  128.7795  152.7299 H   0  0  0  0  0  0  0  0  0  0  0  0
  146.9153  133.7901  150.2820 H   0  0  0  0  0  0  0  0  0  0  0  0
  146.5426  132.0672  150.3305 H   0  0  0  0  0  0  0  0  0  0  0  0
  144.6372  134.4064  150.2896 H   0  0  0  0  0  0  0  0  0  0  0  0
  144.4665  132.8565  149.4625 H   0  0  0  0  0  0  0  0  0  0  0  0
  143.0651  133.2733  151.7439 H   0  0  0  0  0  0  0  0  0  0  0  0
  143.9163  131.7373  151.5475 H   0  0  0  0  0  0  0  0  0  0  0  0
  144.8356  132.5368  153.6297 H   0  0  0  0  0  0  0  0  0  0  0  0
  144.8704  134.1919  153.0618 H   0  0  0  0  0  0  0  0  0  0  0  0
  149.8108  139.1612  156.3775 H   0  0  0  0  0  0  0  0  0  0  0  0
  146.1574  130.5169  152.0133 H   0  0  0  0  0  0  0  0  0  0  0  0
  1  2  2  0  0  0  0
  2  3  1  0  0  0  0
  2 14  1  0  0  0  0
  3  4  1  0  0  0  0
  3 26  1  0  0  0  0
  4  5  1  0  0  0  0
  4 27  1  0  0  0  0
  4 28  1  0  0  0  0
  5 13  1  0  0  0  0
  5  6  1  0  0  0  0
  5 29  1  0  0  0  0
  6  7  1  0  0  0  0
  6 30  1  0  0  0  0
  6 31  1  0  0  0  0
  7 11  1  0  0  0  0
  7  8  1  0  0  0  0
  7 53  1  0  0  0  0
  8  9  1  0  0  0  0
  8 32  1  0  0  0  0
  8 33  1  0  0  0  0
  9 10  1  0  0  0  0
  9 34  1  0  0  0  0
  9 35  1  0  0  0  0
 10 11  1  0  0  0  0
 10 36  1  0  0  0  0
 10 37  1  0  0  0  0
 11 12  1  0  0  0  0
 11 38  1  0  0  0  0
 12 13  1  0  0  0  0
 12 39  1  0  0  0  0
 12 40  1  0  0  0  0
 14 15  1  0  0  0  0
 14 41  1  0  0  0  0
 15 20  1  0  0  0  0
 15 16  2  0  0  0  0
 16 17  1  0  0  0  0
 16 42  1  0  0  0  0
 17 18  2  0  0  0  0
 17 43  1  0  0  0  0
 18 19  1  0  0  0  0
 18 44  1  0  0  0  0
 19 20  2  0  0  0  0
 19 54  1  0  0  0  0
 20 21  1  0  0  0  0
 21 25  1  0  0  0  0
 21 22  1  0  0  0  0
 22 23  1  0  0  0  0
 22 45  1  0  0  0  0
 22 46  1  0  0  0  0
 23 24  1  0  0  0  0
 23 47  1  0  0  0  0
 23 48  1  0  0  0  0
 24 25  1  0  0  0  0
 24 49  1  0  0  0  0
 24 50  1  0  0  0  0
 25 51  1  0  0  0  0
 25 52  1  0  0  0  0
M  CHG  1   7   1
M  CHG  1  19   1
M  END
> <s_m_source_file>
AV-unprocessed.smi

> <i_m_source_file_index>
1830

> <i_lp_mmshare_version>
43012

> <i_f3d_flags>
0

> <s_epik_input>
W0NIMl0xW0NIMl1bQ0gyXVtDQEhdKE4xMilbQ0gyXU9bQ0BASF0oW0NIMl0yKVtDSDJdW05IXUMoPU8pW05IXWMzW2NIXVtjSF1bY0hdbmMzTjRbQ0gyXVtDSDJdW0NIMl1bQ0gyXTQ=

> <s_epik_cmdline>
J2VwaWtfcHl0aG9uJywgJy1waCcsICc3LjAnLCAnLXRuJywgJzgnLCAnLW1hJywgJzIwMCcsICctbWV0YWxfYmluZGluZycsICctaW1hZScsICc8aW5maWxlLm1hZT4nLCAnLW9tYWUnLCAnPG91dGZpbGUubWFlPic=

> <r_lp_tautomer_probability>
0.999994

> <r_epik_Ionization_Penalty>
1.29113

> <r_epik_Ionization_Penalty_Charging>
1.29111

> <r_epik_Ionization_Penalty_Neutral>
1.88144e-05

> <r_epik_State_Penalty>
1.32676

> <r_epik_Charging_Adjusted_Penalty>
2.61787

> <i_epik_Tot_Q>
2

> <i_epik_Tot_abs_Q>
2

> <r_epik_Metal_State_Penalty>
1.40425

> <b_epik_Metal_Only>
0

> <s_lp_Force_Field>
OPLS_2005

> <r_lp_Energy>
76.3722

> <b_lp_Chiralities_Consistent>
1

> <s_lp_Variant>
AV-unprocessed.smi:1830-14

> <Gold.Version>
5.8.1

> <Gold.Id.Protein>
6NUR|6NUR_protein|mol2

> <Gold.PLP.Fitness>
49.2970

> <Gold.PLP.PLP>
-45.1807

> <Gold.PLP.part.hbond>
-4.0692

> <Gold.PLP.part.metal>
0.0000

> <Gold.PLP.part.buried>
-4.1937

> <Gold.PLP.part.nonpolar>
-36.6072

> <Gold.PLP.part.repulsive>
0.3312

> <Gold.PLP.ligand.clash>
0.0000

> <Gold.PLP.ligand.torsion>
0.7748

> <Gold.PLP.Chemscore.Hbond>
1.8366

> <Gold.PLP.Chemscore.CHOScore>
0.0000

> <Gold.PLP.Chemscore.Metal>
0.0000

> <Gold.Chemscore.Hbonds>
donor molecule, donor type, donor heavy atom, donor atom, acceptor molecule, acceptor atom, score
      L1  H     3    26       P1  7948  0.78
      L1  H    14    41       P1  7948  0.72

> <Gold.PLP.Chemscore.Internal.Correction>
0.1562

> <Gold.Rescore>
     Score         DG    S(hbond)    S(metal)    S(lipo)     H(rot)  DE(clash)    DE(int)     intcor
     15.20     -17.36       1.16        0.00      99.82       1.43       0.01       2.15       ----

> <Gold.Chemscore.Fitness>
15.2019

> <Gold.Chemscore.DG>
-17.3644

> <Gold.Chemscore.ZeroCoef>
-5.4800

> <Gold.Chemscore.Hbond>
1.1559

> <Gold.Chemscore.Metal>
0.0000

> <Gold.Chemscore.Lipo>
99.8184

> <Gold.Chemscore.Internal_Hbond>
0.0000

> <Gold.Chemscore.DEClash>
0.0089

> <Gold.Chemscore.DEInternal>
2.1536

> <Gold.Chemscore.Rot>
1.4278

> <Gold.Chemscore.Internal.Correction>
   9.000000E+99

> <Gold.Chemscore.Hbonds>
donor molecule, donor type, donor heavy atom, donor atom, acceptor molecule, acceptor atom, score
      L1  H     3    26       P1  7948  0.76
      L1  H    14    41       P1  7948  0.24

> <Gold.Chemscore.Hbond.Weighted>
-3.8607

> <Gold.Chemscore.Metal.Weighted>
-0.0000

> <Gold.Chemscore.Lipo.Weighted>
-11.6788

> <Gold.Chemscore.Internal_Hbond.Weighted>
0.0000

> <Gold.Chemscore.DEClash.Weighted>
0.0089

> <Gold.Chemscore.DEInternal.Weighted>
2.1536

> <Gold.Chemscore.Rot.Weighted>
3.6551

> <Gold.Chemscore.Internal.Correction.Weighted>
   9.000000E+99

> <Gold.Protein.RotatedTorsions>
[ 6907 6896 6895 6894 ] final  113.24 input  -60.11 | X-H torsion
[ 7974 7965 7964 7962 ] final  107.25 input  175.53 | X-H torsion
[ 8008 7997 7996 7995 ] final   89.12 input   59.86 | X-H torsion
[ 10167 10162 10161 10158 ] final -156.10 input  -65.29 | X-H torsion
[ 10718 10713 10712 10709 ] final   35.09 input   66.30 | X-H torsion
[ 10763 10752 10751 10750 ] final -170.75 input  -60.55 | X-H torsion
[ 11005 11000 10999 10996 ] final -108.68 input  -57.11 | X-H torsion

> <Gold.Protein.ActiveResidues>
 VAL166  LYS551  ARG553  GLY616  TRP617  ASP618  TYR619  PRO620  LYS621  CYS622 
 ASP623  PHE694  ASN695  SER759  ASP760  ASP761  ALA762  ILE779  LEU786  VAL792 
 PHE793  MET794  SER795  GLU796  ALA797  LYS798  CYS799  TRP800  GLU811  SER814 

> <Gold.Protein.RotatedAtoms>
  152.4871  133.8403  159.7148 H   0  0  0  0  0  0  0  0  0  0  0  0  # atno 6907 bound_to 6896
  150.8968  133.7161  159.2896 H   0  0  0  0  0  0  0  0  0  0  0  0  # atno 6908 bound_to 6896
  151.4616  135.1042  159.9778 H   0  0  0  0  0  0  0  0  0  0  0  0  # atno 6909 bound_to 6896
  145.2960  139.2584  143.3839 H   0  0  0  0  0  0  0  0  0  0  0  0  # atno 7974 bound_to 7965
  155.9961  140.3364  155.6800 H   0  0  0  0  0  0  0  0  0  0  0  0  # atno 8008 bound_to 7997
  155.6354  140.0689  157.2653 H   0  0  0  0  0  0  0  0  0  0  0  0  # atno 8009 bound_to 7997
  154.4234  140.1752  156.1504 H   0  0  0  0  0  0  0  0  0  0  0  0  # atno 8010 bound_to 7997
  139.6877  143.9473  152.2369 H   0  0  0  0  0  0  0  0  0  0  0  0  # atno 10167 bound_to 10162
  157.3184  130.7435  149.6769 H   0  0  0  0  0  0  0  0  0  0  0  0  # atno 10718 bound_to 10713
  154.6381  135.2895  155.0136 H   0  0  0  0  0  0  0  0  0  0  0  0  # atno 10763 bound_to 10752
  154.1273  135.6539  153.4919 H   0  0  0  0  0  0  0  0  0  0  0  0  # atno 10764 bound_to 10752
  153.0313  135.5302  154.7237 H   0  0  0  0  0  0  0  0  0  0  0  0  # atno 10765 bound_to 10752
  141.0888  133.9091  157.2123 H   0  0  0  0  0  0  0  0  0  0  0  0  # atno 11005 bound_to 11000
  146.3168  140.3463  142.8652 LP  0  0  0  0  0  0  0  0  0  0  0  0  # atno 17320 bound_to 7965
  144.9133  140.7782  143.5794 LP  0  0  0  0  0  0  0  0  0  0  0  0  # atno 17321 bound_to 7965
  139.9280  144.6759  150.8392 LP  0  0  0  0  0  0  0  0  0  0  0  0  # atno 17342 bound_to 10162
  140.7673  143.3328  151.2373 LP  0  0  0  0  0  0  0  0  0  0  0  0  # atno 17343 bound_to 10162
  155.9683  130.4230  150.4544 LP  0  0  0  0  0  0  0  0  0  0  0  0  # atno 17370 bound_to 10713
  157.2555  131.0555  151.2353 LP  0  0  0  0  0  0  0  0  0  0  0  0  # atno 17371 bound_to 10713
  139.9711  135.0128  156.9513 LP  0  0  0  0  0  0  0  0  0  0  0  0  # atno 17394 bound_to 11000
  140.5300  134.0823  155.7313 LP  0  0  0  0  0  0  0  0  0  0  0  0  # atno 17395 bound_to 11000

$$$$
