AV-unprocessed.smi:1873|AV-procd|sdf|7609|dock6
  -GOLD-   22720 9333D 1   1.00000     0.00000
 Structure written by MMmdl.
 37 39  0  0  0  0  0  0  0  0  2 V2000
  153.4020  139.2090  155.6131 O   0  0  0  0  0  0  0  0  0  0  0  0
  152.0381  139.2720  155.9842 C   0  0  2  0  0  0  0  0  0  0  0  0
  151.9112  139.9171  157.3785 C   0  0  0  0  0  0  0  0  0  0  0  0
  151.4848  141.3205  157.3154 N   0  0  0  0  0  0  0  0  0  0  0  0
  150.7385  141.9677  156.3799 C   0  0  0  0  0  0  0  0  0  0  0  0
  150.6087  143.2625  156.7822 N   0  3  0  0  0  0  0  0  0  0  0  0
  151.2832  143.4451  157.9918 C   0  0  0  0  0  0  0  0  0  0  0  0
  151.4373  144.5747  158.7897 C   0  0  0  0  0  0  0  0  0  0  0  0
  152.1921  144.4169  159.9710 C   0  0  0  0  0  0  0  0  0  0  0  0
  152.7588  143.1737  160.3207 C   0  0  0  0  0  0  0  0  0  0  0  0
  152.5950  142.0347  159.5051 C   0  0  0  0  0  0  0  0  0  0  0  0
  151.8488  142.2003  158.3391 C   0  0  0  0  0  0  0  0  0  0  0  0
  151.3644  137.9103  155.9398 C   0  0  0  0  0  0  0  0  0  0  0  0
  151.3183  137.1677  154.7408 C   0  0  0  0  0  0  0  0  0  0  0  0
  150.6983  135.9035  154.7129 C   0  0  0  0  0  0  0  0  0  0  0  0
  150.1255  135.3590  155.8799 C   0  0  0  0  0  0  0  0  0  0  0  0
  149.5230  134.1250  155.7864 O   0  0  0  0  0  0  0  0  0  0  0  0
  150.2437  133.0658  155.3310 C   0  0  0  0  0  0  0  0  0  0  0  0
  151.1888  132.7114  156.2362 F   0  0  0  0  0  0  0  0  0  0  0  0
  149.4277  131.9991  155.1531 F   0  0  0  0  0  0  0  0  0  0  0  0
  150.1656  136.1095  157.0793 C   0  0  0  0  0  0  0  0  0  0  0  0
  150.7853  137.3735  157.1083 C   0  0  0  0  0  0  0  0  0  0  0  0
  153.4519  139.0597  154.6811 H   0  0  0  0  0  0  0  0  0  0  0  0
  151.5489  139.9154  155.2519 H   0  0  0  0  0  0  0  0  0  0  0  0
  151.2011  139.3696  157.9998 H   0  0  0  0  0  0  0  0  0  0  0  0
  152.8676  139.8877  157.9026 H   0  0  0  0  0  0  0  0  0  0  0  0
  150.3196  141.5308  155.4846 H   0  0  0  0  0  0  0  0  0  0  0  0
  151.0040  145.5280  158.5248 H   0  0  0  0  0  0  0  0  0  0  0  0
  152.3389  145.2666  160.6220 H   0  0  0  0  0  0  0  0  0  0  0  0
  153.3311  143.0918  161.2336 H   0  0  0  0  0  0  0  0  0  0  0  0
  153.0318  141.0863  159.7809 H   0  0  0  0  0  0  0  0  0  0  0  0
  151.7594  137.5642  153.8379 H   0  0  0  0  0  0  0  0  0  0  0  0
  150.6663  135.3449  153.7889 H   0  0  0  0  0  0  0  0  0  0  0  0
  150.7203  133.2831  154.3747 H   0  0  0  0  0  0  0  0  0  0  0  0
  149.7192  135.7290  157.9860 H   0  0  0  0  0  0  0  0  0  0  0  0
  150.8113  137.9300  158.0336 H   0  0  0  0  0  0  0  0  0  0  0  0
  150.0952  143.9665  156.2677 H   0  0  0  0  0  0  0  0  0  0  0  0
  1  2  1  0  0  0  0
  1 23  1  0  0  0  0
  2  3  1  0  0  0  0
  2 13  1  0  0  0  0
  2 24  1  0  0  0  0
  3  4  1  0  0  0  0
  3 25  1  0  0  0  0
  3 26  1  0  0  0  0
  4 12  1  0  0  0  0
  4  5  1  0  0  0  0
  5  6  2  0  0  0  0
  5 27  1  0  0  0  0
  6  7  1  0  0  0  0
  6 37  1  0  0  0  0
  7 12  2  0  0  0  0
  7  8  1  0  0  0  0
  8  9  2  0  0  0  0
  8 28  1  0  0  0  0
  9 10  1  0  0  0  0
  9 29  1  0  0  0  0
 10 11  2  0  0  0  0
 10 30  1  0  0  0  0
 11 12  1  0  0  0  0
 11 31  1  0  0  0  0
 13 22  1  0  0  0  0
 13 14  2  0  0  0  0
 14 15  1  0  0  0  0
 14 32  1  0  0  0  0
 15 16  2  0  0  0  0
 15 33  1  0  0  0  0
 16 17  1  0  0  0  0
 16 21  1  0  0  0  0
 17 18  1  0  0  0  0
 18 19  1  0  0  0  0
 18 20  1  0  0  0  0
 18 34  1  0  0  0  0
 21 22  2  0  0  0  0
 21 35  1  0  0  0  0
 22 36  1  0  0  0  0
M  CHG  1   6   1
M  END
> <s_m_source_file>
AV-unprocessed.smi

> <i_m_source_file_index>
1873

> <i_lp_mmshare_version>
43012

> <i_f3d_flags>
0

> <s_epik_input>
RltDSF0oRilPYyhbY0hdW2NIXTEpW2NIXVtjSF1jMVtDQEhdKFtPSF0pW0NIMl1uKFtjSF1uMiljKGMyMylbY0hdW2NIXVtjSF1bY0hdMw==

> <s_epik_cmdline>
J2VwaWtfcHl0aG9uJywgJy1waCcsICc3LjAnLCAnLXRuJywgJzgnLCAnLW1hJywgJzIwMCcsICctbWV0YWxfYmluZGluZycsICctaW1hZScsICc8aW5maWxlLm1hZT4nLCAnLW9tYWUnLCAnPG91dGZpbGUubWFlPic=

> <r_lp_tautomer_probability>
1

> <r_epik_Ionization_Penalty>
1.3029

> <r_epik_Ionization_Penalty_Charging>
1.3029

> <r_epik_Ionization_Penalty_Neutral>
2.50501e-07

> <r_epik_State_Penalty>
1.377

> <r_epik_Charging_Adjusted_Penalty>
2.6799

> <i_epik_Tot_Q>
1

> <i_epik_Tot_abs_Q>
1

> <r_epik_Metal_State_Penalty>
5.40879

> <b_epik_Metal_Only>
0

> <s_lp_Force_Field>
OPLS_2005

> <r_lp_Energy>
14.9016

> <b_lp_Chiralities_Consistent>
1

> <s_lp_Variant>
AV-unprocessed.smi:1873-3

> <Gold.Version>
5.8.1

> <Gold.Id.Protein>
6NUR|6NUR_protein|mol2

> <Gold.PLP.Fitness>
50.3717

> <Gold.PLP.PLP>
-43.7480

> <Gold.PLP.part.hbond>
-1.6391

> <Gold.PLP.part.metal>
0.0000

> <Gold.PLP.part.buried>
-5.7617

> <Gold.PLP.part.nonpolar>
-37.1706

> <Gold.PLP.part.repulsive>
0.0682

> <Gold.PLP.ligand.clash>
0.0000

> <Gold.PLP.ligand.torsion>
1.0601

> <Gold.PLP.Chemscore.Hbond>
2.8800

> <Gold.PLP.Chemscore.CHOScore>
0.0000

> <Gold.PLP.Chemscore.Metal>
0.0000

> <Gold.Chemscore.Hbonds>
donor molecule, donor type, donor heavy atom, donor atom, acceptor molecule, acceptor atom, score
      L1  H     6    37       P1  8028  2.00
      P1  H  7997  8009       L1     1  0.84

> <Gold.PLP.Chemscore.Internal.Correction>
0.1040

> <Gold.Rescore>
     Score         DG    S(hbond)    S(metal)    S(lipo)     H(rot)  DE(clash)    DE(int)     intcor
     17.42     -18.51       1.83        0.00     113.03       2.47       0.06       1.03       ----

> <Gold.Chemscore.Fitness>
17.4249

> <Gold.Chemscore.DG>
-18.5127

> <Gold.Chemscore.ZeroCoef>
-5.4800

> <Gold.Chemscore.Hbond>
1.8332

> <Gold.Chemscore.Metal>
0.0000

> <Gold.Chemscore.Lipo>
113.0330

> <Gold.Chemscore.Internal_Hbond>
0.0000

> <Gold.Chemscore.DEClash>
0.0580

> <Gold.Chemscore.DEInternal>
1.0298

> <Gold.Chemscore.Rot>
2.4668

> <Gold.Chemscore.Internal.Correction>
   9.000000E+99

> <Gold.Chemscore.Hbonds>
donor molecule, donor type, donor heavy atom, donor atom, acceptor molecule, acceptor atom, score
      L1  H     6    37       P1  8028  0.93
      P1  H  7997  8009       L1     1  0.73

> <Gold.Chemscore.Hbond.Weighted>
-6.1229

> <Gold.Chemscore.Metal.Weighted>
-0.0000

> <Gold.Chemscore.Lipo.Weighted>
-13.2249

> <Gold.Chemscore.Internal_Hbond.Weighted>
0.0000

> <Gold.Chemscore.DEClash.Weighted>
0.0580

> <Gold.Chemscore.DEInternal.Weighted>
1.0298

> <Gold.Chemscore.Rot.Weighted>
6.3151

> <Gold.Chemscore.Internal.Correction.Weighted>
   9.000000E+99

> <Gold.Protein.RotatedTorsions>
[ 6907 6896 6895 6894 ] final   73.70 input  -60.11 | X-H torsion
[ 7974 7965 7964 7962 ] final  -71.83 input  175.53 | X-H torsion
[ 8008 7997 7996 7995 ] final -167.35 input   59.86 | X-H torsion
[ 10167 10162 10161 10158 ] final  110.37 input  -65.29 | X-H torsion
[ 10718 10713 10712 10709 ] final   63.03 input   66.30 | X-H torsion
[ 10763 10752 10751 10750 ] final -163.89 input  -60.55 | X-H torsion
[ 11005 11000 10999 10996 ] final  140.28 input  -57.11 | X-H torsion

> <Gold.Protein.ActiveResidues>
 VAL166  LYS551  ARG553  GLY616  TRP617  ASP618  TYR619  PRO620  LYS621  CYS622 
 ASP623  PHE694  ASN695  SER759  ASP760  ASP761  ALA762  ILE779  LEU786  VAL792 
 PHE793  MET794  SER795  GLU796  ALA797  LYS798  CYS799  TRP800  GLU811  SER814 

> <Gold.Protein.RotatedAtoms>
  152.4937  134.4382  159.9534 H   0  0  0  0  0  0  0  0  0  0  0  0  # atno 6907 bound_to 6896
  151.4364  133.3649  159.2783 H   0  0  0  0  0  0  0  0  0  0  0  0  # atno 6908 bound_to 6896
  150.9118  134.8558  159.7490 H   0  0  0  0  0  0  0  0  0  0  0  0  # atno 6909 bound_to 6896
  145.6731  140.9214  143.0872 H   0  0  0  0  0  0  0  0  0  0  0  0  # atno 7974 bound_to 7965
  155.8765  140.1002  157.1515 H   0  0  0  0  0  0  0  0  0  0  0  0  # atno 8008 bound_to 7997
  154.4001  140.1337  156.4206 H   0  0  0  0  0  0  0  0  0  0  0  0  # atno 8009 bound_to 7997
  155.7692  140.3461  155.5240 H   0  0  0  0  0  0  0  0  0  0  0  0  # atno 8010 bound_to 7997
  139.6693  144.7126  151.1717 H   0  0  0  0  0  0  0  0  0  0  0  0  # atno 10167 bound_to 10162
  157.5942  130.9083  149.9663 H   0  0  0  0  0  0  0  0  0  0  0  0  # atno 10718 bound_to 10713
  154.7080  135.3000  154.9241 H   0  0  0  0  0  0  0  0  0  0  0  0  # atno 10763 bound_to 10752
  154.0152  135.6689  153.4772 H   0  0  0  0  0  0  0  0  0  0  0  0  # atno 10764 bound_to 10752
  153.0732  135.5049  154.8261 H   0  0  0  0  0  0  0  0  0  0  0  0  # atno 10765 bound_to 10752
  140.0315  134.9349  157.0672 H   0  0  0  0  0  0  0  0  0  0  0  0  # atno 11005 bound_to 11000
  144.7050  139.8598  143.7432 LP  0  0  0  0  0  0  0  0  0  0  0  0  # atno 17320 bound_to 7965
  146.1029  139.4026  143.0336 LP  0  0  0  0  0  0  0  0  0  0  0  0  # atno 17321 bound_to 7965
  140.7612  143.5869  150.8837 LP  0  0  0  0  0  0  0  0  0  0  0  0  # atno 17342 bound_to 10162
  139.9533  143.6247  152.3023 LP  0  0  0  0  0  0  0  0  0  0  0  0  # atno 17343 bound_to 10162
  156.1002  130.3656  150.0232 LP  0  0  0  0  0  0  0  0  0  0  0  0  # atno 17370 bound_to 10713
  156.8348  130.9405  151.3635 LP  0  0  0  0  0  0  0  0  0  0  0  0  # atno 17371 bound_to 10713
  140.4217  134.1873  155.7165 LP  0  0  0  0  0  0  0  0  0  0  0  0  # atno 17394 bound_to 11000
  141.1834  133.8366  157.1177 LP  0  0  0  0  0  0  0  0  0  0  0  0  # atno 17395 bound_to 11000

$$$$
