AV-unprocessed.smi:885|AV-procd|sdf|4046|dock8
  -GOLD-   22720 1533D 1   1.00000     0.00000
 Structure written by MMmdl.
 39 41  0  0  0  0  0  0  0  0  1 V2000
  151.5335  145.0054  159.9563 C   0  0  0  0  0  0  0  0  0  0  0  0
  152.0404  143.9723  160.9787 C   0  0  0  0  0  0  0  0  0  0  0  0
  152.4495  142.5968  160.4231 C   0  0  0  0  0  0  0  0  0  0  0  0
  151.5330  142.0299  159.3256 C   0  0  0  0  0  0  0  0  0  0  0  0
  151.9137  142.5020  157.9055 C   0  0  0  0  0  0  0  0  0  0  0  0
  151.2995  141.6187  156.8612 C   0  0  0  0  0  0  0  0  0  0  0  0
  152.0473  140.8361  156.0916 N   0  0  0  0  0  0  0  0  0  0  0  0
  151.1100  140.2026  155.2634 O   0  0  0  0  0  0  0  0  0  0  0  0
  149.8978  140.6690  155.6491 C   0  0  0  0  0  0  0  0  0  0  0  0
  148.6842  140.2113  154.9053 C   0  0  2  0  0  0  0  0  0  0  0  0
  148.9897  139.0349  153.9580 C   0  0  0  0  0  0  0  0  0  0  0  0
  147.7962  138.6777  153.1930 N   0  0  0  0  0  0  0  0  0  0  0  0
  147.2629  139.8351  152.4763 C   0  0  0  0  0  0  0  0  0  0  0  0
  147.0072  140.9985  153.4515 C   0  0  0  0  0  0  0  0  0  0  0  0
  148.2105  141.3180  154.1416 O   0  0  0  0  0  0  0  0  0  0  0  0
  149.9581  141.5690  156.6287 N   0  0  0  0  0  0  0  0  0  0  0  0
  151.6197  143.9857  157.6071 C   0  0  0  0  0  0  0  0  0  0  0  0
  152.2438  144.9889  158.5928 C   0  0  0  0  0  0  0  0  0  0  0  0
  151.6415  145.9958  160.4002 H   0  0  0  0  0  0  0  0  0  0  0  0
  150.4608  144.8757  159.8072 H   0  0  0  0  0  0  0  0  0  0  0  0
  152.8963  144.3888  161.5109 H   0  0  0  0  0  0  0  0  0  0  0  0
  151.2665  143.8357  161.7349 H   0  0  0  0  0  0  0  0  0  0  0  0
  153.4759  142.6399  160.0569 H   0  0  0  0  0  0  0  0  0  0  0  0
  152.4756  141.8957  161.2580 H   0  0  0  0  0  0  0  0  0  0  0  0
  151.6384  140.9443  159.3540 H   0  0  0  0  0  0  0  0  0  0  0  0
  150.4834  142.2317  159.5432 H   0  0  0  0  0  0  0  0  0  0  0  0
  152.9942  142.3777  157.8139 H   0  0  0  0  0  0  0  0  0  0  0  0
  147.9270  139.9220  155.6366 H   0  0  0  0  0  0  0  0  0  0  0  0
  149.7958  139.3105  153.2766 H   0  0  0  0  0  0  0  0  0  0  0  0
  149.3409  138.1738  154.5268 H   0  0  0  0  0  0  0  0  0  0  0  0
  148.0240  137.9432  152.5307 H   0  0  0  0  0  0  0  0  0  0  0  0
  147.9678  140.1517  151.7067 H   0  0  0  0  0  0  0  0  0  0  0  0
  146.3395  139.5651  151.9640 H   0  0  0  0  0  0  0  0  0  0  0  0
  146.6717  141.8792  152.9037 H   0  0  0  0  0  0  0  0  0  0  0  0
  146.2193  140.7470  154.1635 H   0  0  0  0  0  0  0  0  0  0  0  0
  151.9944  144.2128  156.6080 H   0  0  0  0  0  0  0  0  0  0  0  0
  150.5422  144.1495  157.5605 H   0  0  0  0  0  0  0  0  0  0  0  0
  152.1468  145.9821  158.1531 H   0  0  0  0  0  0  0  0  0  0  0  0
  153.3148  144.8184  158.7075 H   0  0  0  0  0  0  0  0  0  0  0  0
  1 18  1  0  0  0  0
  1  2  1  0  0  0  0
  1 19  1  0  0  0  0
  1 20  1  0  0  0  0
  2  3  1  0  0  0  0
  2 21  1  0  0  0  0
  2 22  1  0  0  0  0
  3  4  1  0  0  0  0
  3 23  1  0  0  0  0
  3 24  1  0  0  0  0
  4  5  1  0  0  0  0
  4 25  1  0  0  0  0
  4 26  1  0  0  0  0
  5  6  1  0  0  0  0
  5 17  1  0  0  0  0
  5 27  1  0  0  0  0
  6 16  1  0  0  0  0
  6  7  2  0  0  0  0
  7  8  1  0  0  0  0
  8  9  1  0  0  0  0
  9 10  1  0  0  0  0
  9 16  2  0  0  0  0
 10 15  1  0  0  0  0
 10 11  1  0  0  0  0
 10 28  1  0  0  0  0
 11 12  1  0  0  0  0
 11 29  1  0  0  0  0
 11 30  1  0  0  0  0
 12 13  1  0  0  0  0
 12 31  1  0  0  0  0
 13 14  1  0  0  0  0
 13 32  1  0  0  0  0
 13 33  1  0  0  0  0
 14 15  1  0  0  0  0
 14 34  1  0  0  0  0
 14 35  1  0  0  0  0
 17 18  1  0  0  0  0
 17 36  1  0  0  0  0
 17 37  1  0  0  0  0
 18 38  1  0  0  0  0
 18 39  1  0  0  0  0
M  END
> <s_m_source_file>
AV-unprocessed.smi

> <i_m_source_file_index>
885

> <i_lp_mmshare_version>
43012

> <i_f3d_flags>
0

> <s_epik_input>
W0NIMl0xW0NIMl1bQ0gyXVtDSDJdW0NIMl1bQ0gyXVtDSF0xYzJub2MobjIpW0NAQEhdM1tDSDJdW05IXVtDSDJdW0NIMl1PMw==

> <s_epik_cmdline>
J2VwaWtfcHl0aG9uJywgJy1waCcsICc3LjAnLCAnLXRuJywgJzgnLCAnLW1hJywgJzIwMCcsICctbWV0YWxfYmluZGluZycsICctaW1hZScsICc8aW5maWxlLm1hZT4nLCAnLW9tYWUnLCAnPG91dGZpbGUubWFlPic=

> <r_lp_tautomer_probability>
1

> <r_epik_Ionization_Penalty>
0.861744

> <r_epik_Ionization_Penalty_Charging>
0

> <r_epik_Ionization_Penalty_Neutral>
0.861744

> <r_epik_State_Penalty>
0.898282

> <r_epik_Charging_Adjusted_Penalty>
0.898282

> <i_epik_Tot_Q>
0

> <i_epik_Tot_abs_Q>
0

> <r_epik_Metal_State_Penalty>
0.898282

> <b_epik_Metal_Only>
0

> <s_lp_Force_Field>
OPLS_2005

> <r_lp_Energy>
20.6019

> <b_lp_Chiralities_Consistent>
1

> <s_lp_Variant>
AV-unprocessed.smi:885-3

> <Gold.Version>
5.8.1

> <Gold.Id.Protein>
6NUR|6NUR_protein|mol2

> <Gold.PLP.Fitness>
41.5233

> <Gold.PLP.PLP>
-35.8657

> <Gold.PLP.part.hbond>
-3.5345

> <Gold.PLP.part.metal>
0.0000

> <Gold.PLP.part.buried>
0.5747

> <Gold.PLP.part.nonpolar>
-33.4128

> <Gold.PLP.part.repulsive>
0.2565

> <Gold.PLP.ligand.clash>
0.0000

> <Gold.PLP.ligand.torsion>
0.2248

> <Gold.PLP.Chemscore.Hbond>
2.0000

> <Gold.PLP.Chemscore.CHOScore>
0.0000

> <Gold.PLP.Chemscore.Metal>
0.0000

> <Gold.Chemscore.Hbonds>
donor molecule, donor type, donor heavy atom, donor atom, acceptor molecule, acceptor atom, score
      L1  H    12    31       P1  7948  0.98
      P1  H  7989  7998       L1     8  1.00

> <Gold.PLP.Chemscore.Internal.Correction>
0.1073

> <Gold.Rescore>
     Score         DG    S(hbond)    S(metal)    S(lipo)     H(rot)  DE(clash)    DE(int)     intcor
     16.37     -18.96       1.25        0.00     105.99       1.21       2.32       0.26       ----

> <Gold.Chemscore.Fitness>
16.3701

> <Gold.Chemscore.DG>
-18.9552

> <Gold.Chemscore.ZeroCoef>
-5.4800

> <Gold.Chemscore.Hbond>
1.2480

> <Gold.Chemscore.Metal>
0.0000

> <Gold.Chemscore.Lipo>
105.9947

> <Gold.Chemscore.Internal_Hbond>
0.0000

> <Gold.Chemscore.DEClash>
2.3233

> <Gold.Chemscore.DEInternal>
0.2617

> <Gold.Chemscore.Rot>
1.2088

> <Gold.Chemscore.Internal.Correction>
   9.000000E+99

> <Gold.Chemscore.Hbonds>
donor molecule, donor type, donor heavy atom, donor atom, acceptor molecule, acceptor atom, score
      L1  H    12    31       P1  7948  0.90
      P1  H  7989  7998       L1     8  0.24

> <Gold.Chemscore.Hbond.Weighted>
-4.1684

> <Gold.Chemscore.Metal.Weighted>
-0.0000

> <Gold.Chemscore.Lipo.Weighted>
-12.4014

> <Gold.Chemscore.Internal_Hbond.Weighted>
0.0000

> <Gold.Chemscore.DEClash.Weighted>
2.3233

> <Gold.Chemscore.DEInternal.Weighted>
0.2617

> <Gold.Chemscore.Rot.Weighted>
3.0946

> <Gold.Chemscore.Internal.Correction.Weighted>
   9.000000E+99

> <Gold.Protein.RotatedTorsions>
[ 6907 6896 6895 6894 ] final  174.21 input  -60.11 | X-H torsion
[ 7974 7965 7964 7962 ] final   31.76 input  175.53 | X-H torsion
[ 8008 7997 7996 7995 ] final  122.22 input   59.86 | X-H torsion
[ 10167 10162 10161 10158 ] final  123.32 input  -65.29 | X-H torsion
[ 10718 10713 10712 10709 ] final  107.30 input   66.30 | X-H torsion
[ 10763 10752 10751 10750 ] final  164.35 input  -60.55 | X-H torsion
[ 11005 11000 10999 10996 ] final  170.85 input  -57.11 | X-H torsion

> <Gold.Protein.ActiveResidues>
 VAL166  LYS551  ARG553  GLY616  TRP617  ASP618  TYR619  PRO620  LYS621  CYS622 
 ASP623  PHE694  ASN695  SER759  ASP760  ASP761  ALA762  ILE779  LEU786  VAL792 
 PHE793  MET794  SER795  GLU796  ALA797  LYS798  CYS799  TRP800  GLU811  SER814 

> <Gold.Protein.RotatedAtoms>
  151.7559  133.3330  159.3404 H   0  0  0  0  0  0  0  0  0  0  0  0  # atno 6907 bound_to 6896
  150.7517  134.6150  159.6115 H   0  0  0  0  0  0  0  0  0  0  0  0  # atno 6908 bound_to 6896
  152.3438  134.7101  160.0308 H   0  0  0  0  0  0  0  0  0  0  0  0  # atno 6909 bound_to 6896
  146.1530  139.6615  142.9086 H   0  0  0  0  0  0  0  0  0  0  0  0  # atno 7974 bound_to 7965
  156.2719  140.2790  156.1433 H   0  0  0  0  0  0  0  0  0  0  0  0  # atno 8008 bound_to 7997
  155.0931  140.0389  157.2692 H   0  0  0  0  0  0  0  0  0  0  0  0  # atno 8009 bound_to 7997
  154.6874  140.2622  155.6853 H   0  0  0  0  0  0  0  0  0  0  0  0  # atno 8010 bound_to 7997
  139.5806  144.6984  151.3537 H   0  0  0  0  0  0  0  0  0  0  0  0  # atno 10167 bound_to 10162
  157.6634  131.0870  150.6136 H   0  0  0  0  0  0  0  0  0  0  0  0  # atno 10718 bound_to 10713
  154.3076  135.2758  155.2581 H   0  0  0  0  0  0  0  0  0  0  0  0  # atno 10763 bound_to 10752
  154.4990  135.5813  153.6520 H   0  0  0  0  0  0  0  0  0  0  0  0  # atno 10764 bound_to 10752
  152.9892  135.6153  154.3251 H   0  0  0  0  0  0  0  0  0  0  0  0  # atno 10765 bound_to 10752
  140.3127  134.7503  157.4004 H   0  0  0  0  0  0  0  0  0  0  0  0  # atno 11005 bound_to 11000
  145.4777  141.0437  143.2663 LP  0  0  0  0  0  0  0  0  0  0  0  0  # atno 17320 bound_to 7965
  144.7927  139.6295  143.7106 LP  0  0  0  0  0  0  0  0  0  0  0  0  # atno 17321 bound_to 7965
  140.7085  143.7452  150.7524 LP  0  0  0  0  0  0  0  0  0  0  0  0  # atno 17342 bound_to 10162
  140.0983  143.4812  152.2439 LP  0  0  0  0  0  0  0  0  0  0  0  0  # atno 17343 bound_to 10162
  156.6438  130.4466  149.5743 LP  0  0  0  0  0  0  0  0  0  0  0  0  # atno 17370 bound_to 10713
  156.2189  130.6725  151.1348 LP  0  0  0  0  0  0  0  0  0  0  0  0  # atno 17371 bound_to 10713
  140.1010  134.5472  155.8352 LP  0  0  0  0  0  0  0  0  0  0  0  0  # atno 17394 bound_to 11000
  141.2104  133.6695  156.6510 LP  0  0  0  0  0  0  0  0  0  0  0  0  # atno 17395 bound_to 11000

$$$$
