AV-unprocessed.smi:1387|AV-procd|sdf|5640|dock1
  -GOLD-   22720 5253D 1   1.00000     0.00000
 Structure written by MMmdl.
 34 35  0  0  0  0  0  0  0  0  1 V2000
  146.1651  142.3837  153.8938 C   0  0  0  0  0  0  0  0  0  0  0  0
  147.4105  142.2934  154.5764 O   0  0  0  0  0  0  0  0  0  0  0  0
  148.1070  141.1010  154.5228 C   0  0  0  0  0  0  0  0  0  0  0  0
  147.5575  140.0604  153.8475 N   0  0  0  0  0  0  0  0  0  0  0  0
  148.2395  138.8976  153.7940 C   0  0  0  0  0  0  0  0  0  0  0  0
  149.4968  138.7126  154.3982 C   0  0  0  0  0  0  0  0  0  0  0  0
  150.0686  139.7904  155.0992 C   0  0  0  0  0  0  0  0  0  0  0  0
  149.3571  141.0113  155.1772 C   0  0  0  0  0  0  0  0  0  0  0  0
  149.8518  142.1650  155.8419 N   0  0  0  0  0  0  0  0  0  0  0  0
  150.8965  142.2621  156.6862 C   0  0  0  0  0  0  0  0  0  0  0  0
  151.6262  141.3261  157.0063 O   0  0  0  0  0  0  0  0  0  0  0  0
  151.0689  143.4918  157.2045 N   0  0  0  0  0  0  0  0  0  0  0  0
  152.0992  143.9378  158.1465 C   0  0  0  0  0  0  0  0  0  0  0  0
  152.1783  142.9874  159.3560 C   0  0  0  0  0  0  0  0  0  0  0  0
  152.2589  143.8842  160.5918 C   0  0  0  0  0  0  0  0  0  0  0  0
  151.4673  145.1283  160.2030 C   0  0  0  0  0  0  0  0  0  0  0  0
  151.7942  145.3371  158.7238 C   0  0  0  0  0  0  0  0  0  0  0  0
  145.7457  143.3788  154.0402 H   0  0  0  0  0  0  0  0  0  0  0  0
  145.4450  141.6611  154.2805 H   0  0  0  0  0  0  0  0  0  0  0  0
  146.2864  142.2304  152.8206 H   0  0  0  0  0  0  0  0  0  0  0  0
  147.7715  138.0922  153.2476 H   0  0  0  0  0  0  0  0  0  0  0  0
  150.0126  137.7669  154.3217 H   0  0  0  0  0  0  0  0  0  0  0  0
  151.0419  139.6674  155.5489 H   0  0  0  0  0  0  0  0  0  0  0  0
  149.2851  142.9950  155.7456 H   0  0  0  0  0  0  0  0  0  0  0  0
  150.3753  144.1828  156.9573 H   0  0  0  0  0  0  0  0  0  0  0  0
  153.0698  143.9543  157.6475 H   0  0  0  0  0  0  0  0  0  0  0  0
  151.2763  142.3769  159.4244 H   0  0  0  0  0  0  0  0  0  0  0  0
  153.0253  142.3037  159.2899 H   0  0  0  0  0  0  0  0  0  0  0  0
  151.8698  143.4009  161.4884 H   0  0  0  0  0  0  0  0  0  0  0  0
  153.2979  144.1553  160.7831 H   0  0  0  0  0  0  0  0  0  0  0  0
  150.4001  144.9352  160.3194 H   0  0  0  0  0  0  0  0  0  0  0  0
  151.7183  145.9953  160.8148 H   0  0  0  0  0  0  0  0  0  0  0  0
  152.6841  145.9619  158.6348 H   0  0  0  0  0  0  0  0  0  0  0  0
  150.9880  145.8573  158.2047 H   0  0  0  0  0  0  0  0  0  0  0  0
  1  2  1  0  0  0  0
  1 18  1  0  0  0  0
  1 19  1  0  0  0  0
  1 20  1  0  0  0  0
  2  3  1  0  0  0  0
  3  8  1  0  0  0  0
  3  4  2  0  0  0  0
  4  5  1  0  0  0  0
  5  6  2  0  0  0  0
  5 21  1  0  0  0  0
  6  7  1  0  0  0  0
  6 22  1  0  0  0  0
  7  8  2  0  0  0  0
  7 23  1  0  0  0  0
  8  9  1  0  0  0  0
  9 10  1  0  0  0  0
  9 24  1  0  0  0  0
 10 11  2  0  0  0  0
 10 12  1  0  0  0  0
 12 13  1  0  0  0  0
 12 25  1  0  0  0  0
 13 17  1  0  0  0  0
 13 14  1  0  0  0  0
 13 26  1  0  0  0  0
 14 15  1  0  0  0  0
 14 27  1  0  0  0  0
 14 28  1  0  0  0  0
 15 16  1  0  0  0  0
 15 29  1  0  0  0  0
 15 30  1  0  0  0  0
 16 17  1  0  0  0  0
 16 31  1  0  0  0  0
 16 32  1  0  0  0  0
 17 33  1  0  0  0  0
 17 34  1  0  0  0  0
M  END
> <s_m_source_file>
AV-unprocessed.smi

> <i_m_source_file_index>
1387

> <i_lp_mmshare_version>
43012

> <i_f3d_flags>
0

> <s_epik_input>
W0NIM11PYzFuW2NIXVtjSF1bY0hdYzFbTkhdQyg9TylbTkhdW0NIXTJbQ0gyXVtDSDJdW0NIMl1bQ0gyXTI=

> <s_epik_cmdline>
J2VwaWtfcHl0aG9uJywgJy1waCcsICc3LjAnLCAnLXRuJywgJzgnLCAnLW1hJywgJzIwMCcsICctbWV0YWxfYmluZGluZycsICctaW1hZScsICc8aW5maWxlLm1hZT4nLCAnLW9tYWUnLCAnPG91dGZpbGUubWFlPic=

> <r_lp_tautomer_probability>
1

> <r_epik_Ionization_Penalty>
0.000100079

> <r_epik_Ionization_Penalty_Charging>
0

> <r_epik_Ionization_Penalty_Neutral>
0.000100079

> <r_epik_State_Penalty>
-0

> <r_epik_Charging_Adjusted_Penalty>
0

> <i_epik_Tot_Q>
0

> <i_epik_Tot_abs_Q>
0

> <r_epik_Metal_State_Penalty>
-0

> <b_epik_Metal_Only>
0

> <s_lp_Force_Field>
OPLS_2005

> <r_lp_Energy>
31.3495

> <b_lp_Chiralities_Consistent>
1

> <s_lp_Variant>
AV-unprocessed.smi:1387-1

> <Gold.Version>
5.8.1

> <Gold.Id.Protein>
6NUR|6NUR_protein|mol2

> <Gold.PLP.Fitness>
47.5481

> <Gold.PLP.PLP>
-39.0528

> <Gold.PLP.part.hbond>
-2.0000

> <Gold.PLP.part.metal>
0.0000

> <Gold.PLP.part.buried>
-4.0370

> <Gold.PLP.part.nonpolar>
-35.0972

> <Gold.PLP.part.repulsive>
1.4268

> <Gold.PLP.ligand.clash>
0.0000

> <Gold.PLP.ligand.torsion>
0.1412

> <Gold.PLP.Chemscore.Hbond>
1.9516

> <Gold.PLP.Chemscore.CHOScore>
0.9711

> <Gold.PLP.Chemscore.Metal>
0.0000

> <Gold.Chemscore.Hbonds>
donor molecule, donor type, donor heavy atom, donor atom, acceptor molecule, acceptor atom, score
      L1  H     9    24       P1  8028  1.00
      L1  H    12    25       P1  8028  0.96
      L1  C     5    21       P1  7948  0.79

> <Gold.PLP.Chemscore.Internal.Correction>
0.0097

> <Gold.Rescore>
     Score         DG    S(hbond)    S(metal)    S(lipo)     H(rot)  DE(clash)    DE(int)     intcor
     17.18     -19.70       1.94        0.00      93.14       1.23       0.07       2.44       ----

> <Gold.Chemscore.Fitness>
17.1819

> <Gold.Chemscore.DG>
-19.6979

> <Gold.Chemscore.ZeroCoef>
-5.4800

> <Gold.Chemscore.Hbond>
1.9379

> <Gold.Chemscore.Metal>
0.0000

> <Gold.Chemscore.Lipo>
93.1446

> <Gold.Chemscore.Internal_Hbond>
0.0000

> <Gold.Chemscore.DEClash>
0.0712

> <Gold.Chemscore.DEInternal>
2.4447

> <Gold.Chemscore.Rot>
1.2315

> <Gold.Chemscore.Internal.Correction>
   9.000000E+99

> <Gold.Chemscore.Hbonds>
donor molecule, donor type, donor heavy atom, donor atom, acceptor molecule, acceptor atom, score
      L1  H     9    24       P1  8028  0.99
      L1  H    12    25       P1  8028  0.83

> <Gold.Chemscore.Hbond.Weighted>
-6.4725

> <Gold.Chemscore.Metal.Weighted>
-0.0000

> <Gold.Chemscore.Lipo.Weighted>
-10.8979

> <Gold.Chemscore.Internal_Hbond.Weighted>
0.0000

> <Gold.Chemscore.DEClash.Weighted>
0.0712

> <Gold.Chemscore.DEInternal.Weighted>
2.4447

> <Gold.Chemscore.Rot.Weighted>
3.1526

> <Gold.Chemscore.Internal.Correction.Weighted>
   9.000000E+99

> <Gold.Protein.RotatedTorsions>
[ 6907 6896 6895 6894 ] final -143.89 input  -60.11 | X-H torsion
[ 7974 7965 7964 7962 ] final    4.07 input  175.53 | X-H torsion
[ 8008 7997 7996 7995 ] final   79.82 input   59.86 | X-H torsion
[ 10167 10162 10161 10158 ] final  -25.30 input  -65.29 | X-H torsion
[ 10718 10713 10712 10709 ] final  166.42 input   66.30 | X-H torsion
[ 10763 10752 10751 10750 ] final   65.11 input  -60.55 | X-H torsion
[ 11005 11000 10999 10996 ] final -109.55 input  -57.11 | X-H torsion

> <Gold.Protein.ActiveResidues>
 VAL166  LYS551  ARG553  GLY616  TRP617  ASP618  TYR619  PRO620  LYS621  CYS622 
 ASP623  PHE694  ASN695  SER759  ASP760  ASP761  ALA762  ILE779  LEU786  VAL792 
 PHE793  MET794  SER795  GLU796  ALA797  LYS798  CYS799  TRP800  GLU811  SER814 

> <Gold.Protein.RotatedAtoms>
  151.1067  133.5203  159.2607 H   0  0  0  0  0  0  0  0  0  0  0  0  # atno 6907 bound_to 6896
  151.2013  135.0443  159.8883 H   0  0  0  0  0  0  0  0  0  0  0  0  # atno 6908 bound_to 6896
  152.5447  134.0894  159.8324 H   0  0  0  0  0  0  0  0  0  0  0  0  # atno 6909 bound_to 6896
  146.2444  140.0589  142.8370 H   0  0  0  0  0  0  0  0  0  0  0  0  # atno 7974 bound_to 7965
  155.8749  140.3447  155.5847 H   0  0  0  0  0  0  0  0  0  0  0  0  # atno 8008 bound_to 7997
  155.7785  140.0855  157.2090 H   0  0  0  0  0  0  0  0  0  0  0  0  # atno 8009 bound_to 7997
  154.4020  140.1505  156.3012 H   0  0  0  0  0  0  0  0  0  0  0  0  # atno 8010 bound_to 7997
  140.7287  143.4277  151.0851 H   0  0  0  0  0  0  0  0  0  0  0  0  # atno 10167 bound_to 10162
  157.0661  131.0353  151.2629 H   0  0  0  0  0  0  0  0  0  0  0  0  # atno 10718 bound_to 10713
  153.0083  135.5369  154.6615 H   0  0  0  0  0  0  0  0  0  0  0  0  # atno 10763 bound_to 10752
  154.5823  135.2851  155.0723 H   0  0  0  0  0  0  0  0  0  0  0  0  # atno 10764 bound_to 10752
  154.1847  135.6510  153.5096 H   0  0  0  0  0  0  0  0  0  0  0  0  # atno 10765 bound_to 10752
  141.0841  133.9169  157.2223 H   0  0  0  0  0  0  0  0  0  0  0  0  # atno 11005 bound_to 11000
  145.0917  140.9289  143.4765 LP  0  0  0  0  0  0  0  0  0  0  0  0  # atno 17320 bound_to 7965
  145.0763  139.2993  143.5806 LP  0  0  0  0  0  0  0  0  0  0  0  0  # atno 17321 bound_to 7965
  139.7930  143.8191  152.3154 LP  0  0  0  0  0  0  0  0  0  0  0  0  # atno 17342 bound_to 10162
  139.8182  144.7307  150.9608 LP  0  0  0  0  0  0  0  0  0  0  0  0  # atno 17343 bound_to 10162
  157.4915  130.7825  149.7513 LP  0  0  0  0  0  0  0  0  0  0  0  0  # atno 17370 bound_to 10713
  155.9964  130.3906  150.2781 LP  0  0  0  0  0  0  0  0  0  0  0  0  # atno 17371 bound_to 10713
  139.9658  135.0142  156.9382 LP  0  0  0  0  0  0  0  0  0  0  0  0  # atno 17394 bound_to 11000
  140.5402  134.0728  155.7339 LP  0  0  0  0  0  0  0  0  0  0  0  0  # atno 17395 bound_to 11000

$$$$
