AV-unprocessed.smi:119|AV-procd|sdf|1135|dock7
  -GOLD-   2262018263D 1   1.00000     0.00000
 Structure written by MMmdl.
 51 54  0  0  0  0  0  0  0  0  1 V2000
  155.3589  141.1445  159.9643 C   0  0  0  0  0  0  0  0  0  0  0  0
  154.1331  140.3973  160.5139 C   0  0  2  0  0  0  0  0  0  0  0  0
  153.5510  139.3566  159.5362 C   0  0  0  0  0  0  0  0  0  0  0  0
  152.9909  139.9106  158.2104 C   0  0  0  0  0  0  0  0  0  0  0  0
  151.7630  140.6959  158.3917 N   0  0  0  0  0  0  0  0  0  0  0  0
  150.5167  140.1545  158.3936 C   0  0  0  0  0  0  0  0  0  0  0  0
  149.5089  140.8392  158.5901 O   0  0  0  0  0  0  0  0  0  0  0  0
  150.3484  138.6394  158.1417 C   0  0  0  0  0  0  0  0  0  0  0  0
  148.9432  138.1800  158.2133 N   0  0  0  0  0  0  0  0  0  0  0  0
  148.1164  138.3541  157.0770 C   0  0  0  0  0  0  0  0  0  0  0  0
  148.5450  138.8831  156.0500 O   0  0  0  0  0  0  0  0  0  0  0  0
  146.7507  137.8624  157.2127 C   0  0  0  0  0  0  0  0  0  0  0  0
  145.8904  137.9997  156.1895 F   0  0  0  0  0  0  0  0  0  0  0  0
  146.3313  137.2741  158.3522 C   0  0  0  0  0  0  0  0  0  0  0  0
  147.1517  137.1005  159.4547 N   0  0  0  0  0  0  0  0  0  0  0  0
  146.7079  136.3894  160.7180 C   0  0  1  0  0  0  0  0  0  0  0  0
  147.5007  135.1354  161.0965 C   0  0  0  0  0  0  0  0  0  0  0  0
  147.1600  135.0536  162.5665 C   0  0  0  0  0  0  0  0  0  0  0  0
  147.1995  136.5281  162.9686 C   0  0  0  0  0  0  0  0  0  0  0  0
  146.8617  137.2653  161.7943 O   0  0  0  0  0  0  0  0  0  0  0  0
  148.4895  137.5527  159.3980 C   0  0  0  0  0  0  0  0  0  0  0  0
  149.2453  137.3987  160.3603 O   0  0  0  0  0  0  0  0  0  0  0  0
  151.9285  142.0941  158.5845 C   0  0  0  0  0  0  0  0  0  0  0  0
  151.5782  142.9816  157.5422 C   0  0  0  0  0  0  0  0  0  0  0  0
  151.7322  144.3706  157.7103 C   0  0  0  0  0  0  0  0  0  0  0  0
  152.2366  144.8811  158.9211 C   0  0  0  0  0  0  0  0  0  0  0  0
  152.5878  144.0025  159.9636 C   0  0  0  0  0  0  0  0  0  0  0  0
  152.4409  142.6106  159.7991 C   0  0  0  0  0  0  0  0  0  0  0  0
  152.8773  141.5494  161.1440 S   0  0  0  0  0  0  0  0  0  0  0  0
  156.1308  140.4460  159.6406 H   0  0  0  0  0  0  0  0  0  0  0  0
  155.7967  141.7864  160.7291 H   0  0  0  0  0  0  0  0  0  0  0  0
  155.1058  141.7776  159.1142 H   0  0  0  0  0  0  0  0  0  0  0  0
  154.4717  139.8418  161.3890 H   0  0  0  0  0  0  0  0  0  0  0  0
  154.3362  138.6383  159.2982 H   0  0  0  0  0  0  0  0  0  0  0  0
  152.7823  138.7812  160.0519 H   0  0  0  0  0  0  0  0  0  0  0  0
  153.7421  140.5310  157.7207 H   0  0  0  0  0  0  0  0  0  0  0  0
  152.8327  139.0911  157.5101 H   0  0  0  0  0  0  0  0  0  0  0  0
  150.7796  138.3996  157.1692 H   0  0  0  0  0  0  0  0  0  0  0  0
  150.9567  138.0775  158.8501 H   0  0  0  0  0  0  0  0  0  0  0  0
  145.3043  136.9504  158.3733 H   0  0  0  0  0  0  0  0  0  0  0  0
  145.6507  136.1597  160.5675 H   0  0  0  0  0  0  0  0  0  0  0  0
  147.1941  134.2680  160.5115 H   0  0  0  0  0  0  0  0  0  0  0  0
  148.5739  135.2973  161.0052 H   0  0  0  0  0  0  0  0  0  0  0  0
  146.1546  134.6508  162.6985 H   0  0  0  0  0  0  0  0  0  0  0  0
  147.8548  134.4367  163.1371 H   0  0  0  0  0  0  0  0  0  0  0  0
  146.5146  136.7503  163.7872 H   0  0  0  0  0  0  0  0  0  0  0  0
  148.2047  136.8148  163.2795 H   0  0  0  0  0  0  0  0  0  0  0  0
  151.1887  142.5974  156.6105 H   0  0  0  0  0  0  0  0  0  0  0  0
  151.4612  145.0441  156.9107 H   0  0  0  0  0  0  0  0  0  0  0  0
  152.3523  145.9470  159.0509 H   0  0  0  0  0  0  0  0  0  0  0  0
  152.9716  144.4002  160.8915 H   0  0  0  0  0  0  0  0  0  0  0  0
  1  2  1  0  0  0  0
  1 30  1  0  0  0  0
  1 31  1  0  0  0  0
  1 32  1  0  0  0  0
  2 29  1  0  0  0  0
  2  3  1  0  0  0  0
  2 33  1  0  0  0  0
  3  4  1  0  0  0  0
  3 34  1  0  0  0  0
  3 35  1  0  0  0  0
  4  5  1  0  0  0  0
  4 36  1  0  0  0  0
  4 37  1  0  0  0  0
  5  6  1  0  0  0  0
  5 23  1  0  0  0  0
  6  7  2  0  0  0  0
  6  8  1  0  0  0  0
  8  9  1  0  0  0  0
  8 38  1  0  0  0  0
  8 39  1  0  0  0  0
  9 21  1  0  0  0  0
  9 10  1  0  0  0  0
 10 11  2  0  0  0  0
 10 12  1  0  0  0  0
 12 13  1  0  0  0  0
 12 14  2  0  0  0  0
 14 15  1  0  0  0  0
 14 40  1  0  0  0  0
 15 16  1  0  0  0  0
 15 21  1  0  0  0  0
 16 20  1  0  0  0  0
 16 17  1  0  0  0  0
 16 41  1  0  0  0  0
 17 18  1  0  0  0  0
 17 42  1  0  0  0  0
 17 43  1  0  0  0  0
 18 19  1  0  0  0  0
 18 44  1  0  0  0  0
 18 45  1  0  0  0  0
 19 20  1  0  0  0  0
 19 46  1  0  0  0  0
 19 47  1  0  0  0  0
 21 22  2  0  0  0  0
 23 28  2  0  0  0  0
 23 24  1  0  0  0  0
 24 25  2  0  0  0  0
 24 48  1  0  0  0  0
 25 26  1  0  0  0  0
 25 49  1  0  0  0  0
 26 27  2  0  0  0  0
 26 50  1  0  0  0  0
 27 28  1  0  0  0  0
 27 51  1  0  0  0  0
 28 29  1  0  0  0  0
M  END
> <s_m_source_file>
AV-unprocessed.smi

> <i_m_source_file_index>
119

> <i_lp_mmshare_version>
43012

> <i_f3d_flags>
0

> <s_epik_input>
W2NIXTFbY0hdW2NIXVtjSF1jKGMxMilTW0NASF0oW0NIM10pW0NIMl1bQ0gyXU4yQyg9TylbQ0gyXW4zYyg9TyljKEYpW2NIXW4oYzM9TylbQ0BASF00W0NIMl1bQ0gyXVtDSDJdTzQ=

> <s_epik_cmdline>
J2VwaWtfcHl0aG9uJywgJy1waCcsICc3LjAnLCAnLXRuJywgJzgnLCAnLW1hJywgJzIwMCcsICctbWV0YWxfYmluZGluZycsICctaW1hZScsICc8aW5maWxlLm1hZT4nLCAnLW9tYWUnLCAnPG91dGZpbGUubWFlPic=

> <r_lp_tautomer_probability>
1

> <r_epik_Ionization_Penalty>
1.68882e-06

> <r_epik_Ionization_Penalty_Charging>
3.67303e-09

> <r_epik_Ionization_Penalty_Neutral>
1.68515e-06

> <r_epik_State_Penalty>
-0

> <r_epik_Charging_Adjusted_Penalty>
3.67303e-09

> <i_epik_Tot_Q>
0

> <i_epik_Tot_abs_Q>
0

> <r_epik_Metal_State_Penalty>
-0

> <b_epik_Metal_Only>
0

> <s_epik_Chemistry_Notes>
This compound contains an acetal/aminal-like group ( X-CH(R)-Y where X, Y are N, S, or O) that may be acid/base labile, releasing an aldehyde.

> <s_lp_Force_Field>
OPLS_2005

> <r_lp_Energy>
51.5083

> <b_lp_Chiralities_Consistent>
1

> <s_lp_Variant>
AV-unprocessed.smi:119-3

> <Gold.Version>
5.8.1

> <Gold.Id.Protein>
6NUR|6NUR_protein|mol2

> <Gold.PLP.Fitness>
51.6332

> <Gold.PLP.PLP>
-48.0231

> <Gold.PLP.part.hbond>
-2.4708

> <Gold.PLP.part.metal>
0.0000

> <Gold.PLP.part.buried>
-2.9221

> <Gold.PLP.part.nonpolar>
-42.0667

> <Gold.PLP.part.repulsive>
0.0086

> <Gold.PLP.ligand.clash>
0.0000

> <Gold.PLP.ligand.torsion>
0.3037

> <Gold.PLP.Chemscore.Hbond>
1.4000

> <Gold.PLP.Chemscore.CHOScore>
0.0000

> <Gold.PLP.Chemscore.Metal>
0.0000

> <Gold.Chemscore.Hbonds>
donor molecule, donor type, donor heavy atom, donor atom, acceptor molecule, acceptor atom, score
      P1  H  6931  6943       L1    22  0.40
      P1  H  6934  6947       L1    20  0.93

> <Gold.PLP.Chemscore.Internal.Correction>
0.0175

> <Gold.Rescore>
     Score         DG    S(hbond)    S(metal)    S(lipo)     H(rot)  DE(clash)    DE(int)     intcor
     18.72     -21.79       1.23        0.00     137.84       1.53       0.06       3.01       ----

> <Gold.Chemscore.Fitness>
18.7163

> <Gold.Chemscore.DG>
-21.7931

> <Gold.Chemscore.ZeroCoef>
-5.4800

> <Gold.Chemscore.Hbond>
1.2257

> <Gold.Chemscore.Metal>
0.0000

> <Gold.Chemscore.Lipo>
137.8398

> <Gold.Chemscore.Internal_Hbond>
0.0000

> <Gold.Chemscore.DEClash>
0.0639

> <Gold.Chemscore.DEInternal>
3.0129

> <Gold.Chemscore.Rot>
1.5266

> <Gold.Chemscore.Internal.Correction>
   9.000000E+99

> <Gold.Chemscore.Hbonds>
donor molecule, donor type, donor heavy atom, donor atom, acceptor molecule, acceptor atom, score
      P1  H  6931  6943       L1    22  0.40
      P1  H  6934  6947       L1    20  0.44

> <Gold.Chemscore.Hbond.Weighted>
-4.0940

> <Gold.Chemscore.Metal.Weighted>
-0.0000

> <Gold.Chemscore.Lipo.Weighted>
-16.1273

> <Gold.Chemscore.Internal_Hbond.Weighted>
0.0000

> <Gold.Chemscore.DEClash.Weighted>
0.0639

> <Gold.Chemscore.DEInternal.Weighted>
3.0129

> <Gold.Chemscore.Rot.Weighted>
3.9081

> <Gold.Chemscore.Internal.Correction.Weighted>
   9.000000E+99

> <Gold.Protein.RotatedTorsions>
[ 6907 6896 6895 6894 ] final  120.26 input  -60.11 | X-H torsion
[ 7974 7965 7964 7962 ] final   88.39 input  175.53 | X-H torsion
[ 8008 7997 7996 7995 ] final -119.00 input   59.86 | X-H torsion
[ 10167 10162 10161 10158 ] final -117.89 input  -65.29 | X-H torsion
[ 10718 10713 10712 10709 ] final   51.45 input   66.30 | X-H torsion
[ 10763 10752 10751 10750 ] final   89.49 input  -60.55 | X-H torsion
[ 11005 11000 10999 10996 ] final -103.74 input  -57.11 | X-H torsion

> <Gold.Protein.ActiveResidues>
 VAL166  LYS551  ARG553  GLY616  TRP617  ASP618  TYR619  PRO620  LYS621  CYS622 
 ASP623  PHE694  ASN695  SER759  ASP760  ASP761  ALA762  ILE779  LEU786  VAL792 
 PHE793  MET794  SER795  GLU796  ALA797  LYS798  CYS799  TRP800  GLU811  SER814 

> <Gold.Protein.RotatedAtoms>
  152.4411  133.7451  159.6662 H   0  0  0  0  0  0  0  0  0  0  0  0  # atno 6907 bound_to 6896
  150.8302  133.8093  159.3107 H   0  0  0  0  0  0  0  0  0  0  0  0  # atno 6908 bound_to 6896
  151.5749  135.1063  160.0055 H   0  0  0  0  0  0  0  0  0  0  0  0  # atno 6909 bound_to 6896
  145.5463  139.2292  143.2538 H   0  0  0  0  0  0  0  0  0  0  0  0  # atno 7974 bound_to 7965
  155.1087  140.0397  157.2718 H   0  0  0  0  0  0  0  0  0  0  0  0  # atno 8008 bound_to 7997
  154.6702  140.2610  155.6990 H   0  0  0  0  0  0  0  0  0  0  0  0  # atno 8009 bound_to 7997
  156.2655  140.2799  156.1207 H   0  0  0  0  0  0  0  0  0  0  0  0  # atno 8010 bound_to 7997
  140.0634  143.4946  152.2019 H   0  0  0  0  0  0  0  0  0  0  0  0  # atno 10167 bound_to 10162
  157.4981  130.8420  149.8283 H   0  0  0  0  0  0  0  0  0  0  0  0  # atno 10718 bound_to 10713
  153.1876  135.4468  155.0108 H   0  0  0  0  0  0  0  0  0  0  0  0  # atno 10763 bound_to 10752
  154.8070  135.3278  154.7408 H   0  0  0  0  0  0  0  0  0  0  0  0  # atno 10764 bound_to 10752
  153.7865  135.6973  153.4934 H   0  0  0  0  0  0  0  0  0  0  0  0  # atno 10765 bound_to 10752
  141.1132  133.8665  157.1524 H   0  0  0  0  0  0  0  0  0  0  0  0  # atno 11005 bound_to 11000
  146.1947  140.6284  142.9129 LP  0  0  0  0  0  0  0  0  0  0  0  0  # atno 17320 bound_to 7965
  144.7552  140.5289  143.6774 LP  0  0  0  0  0  0  0  0  0  0  0  0  # atno 17321 bound_to 7965
  139.5879  144.7538  151.3473 LP  0  0  0  0  0  0  0  0  0  0  0  0  # atno 17342 bound_to 10162
  140.7161  143.7263  150.7657 LP  0  0  0  0  0  0  0  0  0  0  0  0  # atno 17343 bound_to 10162
  156.0213  130.3795  150.1954 LP  0  0  0  0  0  0  0  0  0  0  0  0  # atno 17370 bound_to 10713
  157.0144  130.9960  151.3357 LP  0  0  0  0  0  0  0  0  0  0  0  0  # atno 17371 bound_to 10713
  140.0038  135.0017  157.0247 LP  0  0  0  0  0  0  0  0  0  0  0  0  # atno 17394 bound_to 11000
  140.4718  134.1378  155.7204 LP  0  0  0  0  0  0  0  0  0  0  0  0  # atno 17395 bound_to 11000

$$$$
