AV-unprocessed.smi:2243|AV-procd|sdf|9066|dock1
  -GOLD-   2272012273D 1   1.00000     0.00000
 Structure written by MMmdl.
 34 35  0  0  0  0  0  0  0  0  1 V2000
  147.4630  133.6878  155.2570 C   0  0  0  0  0  0  0  0  0  0  0  0
  148.5914  133.7900  154.2167 C   0  0  2  0  0  0  0  0  0  0  0  0
  147.9763  133.8360  152.8891 N   0  0  0  0  0  0  0  0  0  0  0  0
  147.0223  133.0159  152.4204 C   0  0  0  0  0  0  0  0  0  0  0  0
  146.5534  132.1041  153.1089 O   0  0  0  0  0  0  0  0  0  0  0  0
  146.6939  133.3729  151.1206 N   0  0  0  0  0  0  0  0  0  0  0  0
  145.5311  133.0573  150.6399 C   0  0  0  0  0  0  0  0  0  0  0  0
  145.0367  133.3322  149.3749 N   0  0  0  0  0  0  0  0  0  0  0  0
  143.7716  132.8196  149.2914 C   0  0  0  0  0  0  0  0  0  0  0  0
  143.4803  132.2449  150.4547 C   0  0  0  0  0  0  0  0  0  0  0  0
  144.5382  132.3732  151.3032 O   0  0  0  0  0  0  0  0  0  0  0  0
  149.6129  132.6245  154.3018 C   0  0  0  0  0  0  0  0  0  0  0  0
  148.9395  131.2396  154.2183 C   0  0  0  0  0  0  0  0  0  0  0  0
  149.9685  130.1083  154.3757 C   0  0  0  0  0  0  0  0  0  0  0  0
  150.6635  130.2497  155.6081 O   0  0  0  0  0  0  0  0  0  0  0  0
  151.4064  131.4602  155.6813 C   0  0  0  0  0  0  0  0  0  0  0  0
  150.4587  132.6672  155.5930 C   0  0  0  0  0  0  0  0  0  0  0  0
  147.8390  133.7935  156.2741 H   0  0  0  0  0  0  0  0  0  0  0  0
  146.9438  132.7314  155.1878 H   0  0  0  0  0  0  0  0  0  0  0  0
  146.7248  134.4771  155.1103 H   0  0  0  0  0  0  0  0  0  0  0  0
  149.1269  134.7209  154.4103 H   0  0  0  0  0  0  0  0  0  0  0  0
  148.3102  134.5582  152.2672 H   0  0  0  0  0  0  0  0  0  0  0  0
  145.4922  133.8205  148.6175 H   0  0  0  0  0  0  0  0  0  0  0  0
  143.1987  132.9243  148.3820 H   0  0  0  0  0  0  0  0  0  0  0  0
  142.6057  131.7271  150.8192 H   0  0  0  0  0  0  0  0  0  0  0  0
  150.2971  132.7137  153.4562 H   0  0  0  0  0  0  0  0  0  0  0  0
  148.1809  131.1494  154.9970 H   0  0  0  0  0  0  0  0  0  0  0  0
  148.4262  131.1147  153.2655 H   0  0  0  0  0  0  0  0  0  0  0  0
  149.4651  129.1416  154.3661 H   0  0  0  0  0  0  0  0  0  0  0  0
  150.6753  130.1065  153.5443 H   0  0  0  0  0  0  0  0  0  0  0  0
  151.9495  131.4814  156.6261 H   0  0  0  0  0  0  0  0  0  0  0  0
  152.1523  131.4915  154.8857 H   0  0  0  0  0  0  0  0  0  0  0  0
  151.0492  133.5824  155.6404 H   0  0  0  0  0  0  0  0  0  0  0  0
  149.8023  132.6758  156.4641 H   0  0  0  0  0  0  0  0  0  0  0  0
  1  2  1  0  0  0  0
  1 18  1  0  0  0  0
  1 19  1  0  0  0  0
  1 20  1  0  0  0  0
  2  3  1  0  0  0  0
  2 12  1  0  0  0  0
  2 21  1  0  0  0  0
  3 22  1  0  0  0  0
  3  4  1  0  0  0  0
  4  6  1  0  0  0  0
  4  5  2  0  0  0  0
  6  7  2  0  0  0  0
  7 11  1  0  0  0  0
  7  8  1  0  0  0  0
  8 23  1  0  0  0  0
  8  9  1  0  0  0  0
  9 24  1  0  0  0  0
  9 10  2  0  0  0  0
 10 25  1  0  0  0  0
 10 11  1  0  0  0  0
 12 17  1  0  0  0  0
 12 13  1  0  0  0  0
 12 26  1  0  0  0  0
 13 14  1  0  0  0  0
 13 27  1  0  0  0  0
 13 28  1  0  0  0  0
 14 15  1  0  0  0  0
 14 29  1  0  0  0  0
 14 30  1  0  0  0  0
 15 16  1  0  0  0  0
 16 17  1  0  0  0  0
 16 31  1  0  0  0  0
 16 32  1  0  0  0  0
 17 33  1  0  0  0  0
 17 34  1  0  0  0  0
M  END
> <s_m_source_file>
AV-unprocessed.smi

> <i_m_source_file_index>
2243

> <i_lp_mmshare_version>
43012

> <i_f3d_flags>
0

> <s_epik_input>
W0NIMl0xW0NIMl1PW0NIMl1bQ0gyXVtDSF0xW0NASF0oW0NIM10pW05IXUMoPU8pW05IXWMybltjSF1bY0hdbzI=

> <s_epik_cmdline>
J2VwaWtfcHl0aG9uJywgJy1waCcsICc3LjAnLCAnLXRuJywgJzgnLCAnLW1hJywgJzIwMCcsICctbWV0YWxfYmluZGluZycsICctaW1hZScsICc8aW5maWxlLm1hZT4nLCAnLW9tYWUnLCAnPG91dGZpbGUubWFlPic=

> <r_lp_tautomer_probability>
0.107061

> <r_epik_Ionization_Penalty>
1.44639

> <r_epik_Ionization_Penalty_Charging>
1.44602

> <r_epik_Ionization_Penalty_Neutral>
0.000368208

> <r_epik_State_Penalty>
2.61815

> <r_epik_Charging_Adjusted_Penalty>
4.06418

> <i_epik_Tot_Q>
0

> <i_epik_Tot_abs_Q>
0

> <r_epik_Metal_State_Penalty>
3.54171

> <b_epik_Metal_Only>
0

> <s_lp_Force_Field>
OPLS_2005

> <r_lp_Energy>
34.6671

> <b_lp_Chiralities_Consistent>
1

> <s_lp_Variant>
AV-unprocessed.smi:2243-5

> <Gold.Version>
5.8.1

> <Gold.Id.Protein>
6NUR|6NUR_protein|mol2

> <Gold.PLP.Fitness>
36.7358

> <Gold.PLP.PLP>
-28.4168

> <Gold.PLP.part.hbond>
-2.0000

> <Gold.PLP.part.metal>
0.0000

> <Gold.PLP.part.buried>
-4.3458

> <Gold.PLP.part.nonpolar>
-22.6229

> <Gold.PLP.part.repulsive>
0.6370

> <Gold.PLP.ligand.clash>
0.0000

> <Gold.PLP.ligand.torsion>
0.3489

> <Gold.PLP.Chemscore.Hbond>
2.0000

> <Gold.PLP.Chemscore.CHOScore>
1.0000

> <Gold.PLP.Chemscore.Metal>
0.0000

> <Gold.Chemscore.Hbonds>
donor molecule, donor type, donor heavy atom, donor atom, acceptor molecule, acceptor atom, score
      L1  H     3    22       P1  7948  0.75
      L1  H     8    23       P1  7921  0.99
      L1  C     9    24       P1 10186  0.04
      L1  C    10    25       P1 10952  0.89

> <Gold.PLP.Chemscore.Internal.Correction>
0.0168

> <Gold.Rescore>
     Score         DG    S(hbond)    S(metal)    S(lipo)     H(rot)  DE(clash)    DE(int)     intcor
     10.22     -14.87       1.91        0.00      54.57       1.32       0.03       4.62       ----

> <Gold.Chemscore.Fitness>
10.2228

> <Gold.Chemscore.DG>
-14.8711

> <Gold.Chemscore.ZeroCoef>
-5.4800

> <Gold.Chemscore.Hbond>
1.9121

> <Gold.Chemscore.Metal>
0.0000

> <Gold.Chemscore.Lipo>
54.5661

> <Gold.Chemscore.Internal_Hbond>
0.0000

> <Gold.Chemscore.DEClash>
0.0274

> <Gold.Chemscore.DEInternal>
4.6209

> <Gold.Chemscore.Rot>
1.3201

> <Gold.Chemscore.Internal.Correction>
   9.000000E+99

> <Gold.Chemscore.Hbonds>
donor molecule, donor type, donor heavy atom, donor atom, acceptor molecule, acceptor atom, score
      L1  H     3    22       P1  7948  0.09
      L1  H     8    23       P1  7921  0.51

> <Gold.Chemscore.Hbond.Weighted>
-6.3863

> <Gold.Chemscore.Metal.Weighted>
-0.0000

> <Gold.Chemscore.Lipo.Weighted>
-6.3842

> <Gold.Chemscore.Internal_Hbond.Weighted>
0.0000

> <Gold.Chemscore.DEClash.Weighted>
0.0274

> <Gold.Chemscore.DEInternal.Weighted>
4.6209

> <Gold.Chemscore.Rot.Weighted>
3.3794

> <Gold.Chemscore.Internal.Correction.Weighted>
   9.000000E+99

> <Gold.Protein.RotatedTorsions>
[ 6907 6896 6895 6894 ] final   25.83 input  -60.11 | X-H torsion
[ 7974 7965 7964 7962 ] final  -27.11 input  175.53 | X-H torsion
[ 8008 7997 7996 7995 ] final -129.21 input   59.86 | X-H torsion
[ 10167 10162 10161 10158 ] final -172.63 input  -65.29 | X-H torsion
[ 10718 10713 10712 10709 ] final   93.05 input   66.30 | X-H torsion
[ 10763 10752 10751 10750 ] final   87.76 input  -60.55 | X-H torsion
[ 11005 11000 10999 10996 ] final  128.15 input  -57.11 | X-H torsion

> <Gold.Protein.ActiveResidues>
 VAL166  LYS551  ARG553  GLY616  TRP617  ASP618  TYR619  PRO620  LYS621  CYS622 
 ASP623  PHE694  ASN695  SER759  ASP760  ASP761  ALA762  ILE779  LEU786  VAL792 
 PHE793  MET794  SER795  GLU796  ALA797  LYS798  CYS799  TRP800  GLU811  SER814 

> <Gold.Protein.RotatedAtoms>
  151.9785  135.0041  160.0556 H   0  0  0  0  0  0  0  0  0  0  0  0  # atno 6907 bound_to 6896
  152.1718  133.4644  159.4921 H   0  0  0  0  0  0  0  0  0  0  0  0  # atno 6908 bound_to 6896
  150.6903  134.1861  159.4310 H   0  0  0  0  0  0  0  0  0  0  0  0  # atno 6909 bound_to 6896
  146.1380  140.5109  142.8664 H   0  0  0  0  0  0  0  0  0  0  0  0  # atno 7974 bound_to 7965
  155.2755  140.0442  157.3011 H   0  0  0  0  0  0  0  0  0  0  0  0  # atno 8008 bound_to 7997
  154.5628  140.2351  155.8278 H   0  0  0  0  0  0  0  0  0  0  0  0  # atno 8009 bound_to 7997
  156.2061  140.3012  155.9637 H   0  0  0  0  0  0  0  0  0  0  0  0  # atno 8010 bound_to 7997
  139.5733  144.1590  152.1416 H   0  0  0  0  0  0  0  0  0  0  0  0  # atno 10167 bound_to 10162
  157.6956  131.0465  150.3975 H   0  0  0  0  0  0  0  0  0  0  0  0  # atno 10718 bound_to 10713
  153.1701  135.4531  154.9890 H   0  0  0  0  0  0  0  0  0  0  0  0  # atno 10763 bound_to 10752
  154.7959  135.3237  154.7669 H   0  0  0  0  0  0  0  0  0  0  0  0  # atno 10764 bound_to 10752
  153.8147  135.6952  153.4890 H   0  0  0  0  0  0  0  0  0  0  0  0  # atno 10765 bound_to 10752
  139.9545  134.9615  156.8959 H   0  0  0  0  0  0  0  0  0  0  0  0  # atno 11005 bound_to 11000
  144.7761  140.5742  143.6637 LP  0  0  0  0  0  0  0  0  0  0  0  0  # atno 17320 bound_to 7965
  145.5112  139.1479  143.3604 LP  0  0  0  0  0  0  0  0  0  0  0  0  # atno 17321 bound_to 7965
  140.1127  144.5443  150.6914 LP  0  0  0  0  0  0  0  0  0  0  0  0  # atno 17342 bound_to 10162
  140.7017  143.2439  151.4844 LP  0  0  0  0  0  0  0  0  0  0  0  0  # atno 17343 bound_to 10162
  156.4372  130.3984  149.6721 LP  0  0  0  0  0  0  0  0  0  0  0  0  # atno 17370 bound_to 10713
  156.3917  130.7630  151.2632 LP  0  0  0  0  0  0  0  0  0  0  0  0  # atno 17371 bound_to 10713
  140.5641  134.0506  155.7408 LP  0  0  0  0  0  0  0  0  0  0  0  0  # atno 17394 bound_to 11000
  141.1214  133.9455  157.2722 LP  0  0  0  0  0  0  0  0  0  0  0  0  # atno 17395 bound_to 11000

$$$$
