AV-unprocessed.smi:49|AV-procd|sdf|463|dock9
  -GOLD-   2262016333D 1   1.00000     0.00000
 Structure written by MMmdl.
 28 29  0  0  0  0  0  0  0  0  2 V2000
  146.5880  129.1831  153.1075 C   0  0  0  0  0  0  0  0  0  0  0  0
  145.5830  129.4279  151.9767 C   0  0  0  0  0  0  0  0  0  0  0  0
  145.6048  130.8378  151.4842 C   0  0  0  0  0  0  0  0  0  0  0  0
  144.5446  131.6339  151.3926 N   0  0  0  0  0  0  0  0  0  0  0  0
  145.1342  132.7748  150.9244 C   0  0  0  0  0  0  0  0  0  0  0  0
  144.3417  134.0035  150.5934 C   0  0  2  0  0  0  0  0  0  0  0  0
  145.1797  135.2891  150.6906 C   0  0  0  0  0  0  0  0  0  0  0  0
  144.7622  135.9050  152.0237 C   0  0  1  0  0  0  0  0  0  0  0  0
  144.9513  137.3037  152.0483 O   0  0  0  0  0  0  0  0  0  0  0  0
  143.2876  135.5198  152.1237 C   0  0  0  0  0  0  0  0  0  0  0  0
  143.1997  134.1786  151.5193 N   0  3  0  0  0  0  0  0  0  0  0  0
  146.4504  132.7058  150.7168 N   0  0  0  0  0  0  0  0  0  0  0  0
  146.7307  131.4426  151.1006 N   0  0  0  0  0  0  0  0  0  0  0  0
  143.9510  133.8996  149.5803 H   0  0  0  0  0  0  0  0  0  0  0  0
  145.3233  135.4441  152.8381 H   0  0  0  0  0  0  0  0  0  0  0  0
  147.6618  131.0509  151.0782 H   0  0  0  0  0  0  0  0  0  0  0  0
  146.5476  128.1474  153.4454 H   0  0  0  0  0  0  0  0  0  0  0  0
  146.3780  129.8215  153.9661 H   0  0  0  0  0  0  0  0  0  0  0  0
  147.6075  129.3870  152.7789 H   0  0  0  0  0  0  0  0  0  0  0  0
  145.7910  128.7554  151.1436 H   0  0  0  0  0  0  0  0  0  0  0  0
  144.5749  129.1938  152.3204 H   0  0  0  0  0  0  0  0  0  0  0  0
  146.2545  135.1215  150.6073 H   0  0  0  0  0  0  0  0  0  0  0  0
  144.8911  135.9588  149.8785 H   0  0  0  0  0  0  0  0  0  0  0  0
  144.3169  137.7061  151.4742 H   0  0  0  0  0  0  0  0  0  0  0  0
  142.9140  135.5289  153.1478 H   0  0  0  0  0  0  0  0  0  0  0  0
  142.6732  136.1998  151.5312 H   0  0  0  0  0  0  0  0  0  0  0  0
  142.3188  134.0534  151.0419 H   0  0  0  0  0  0  0  0  0  0  0  0
  143.2911  133.4884  152.2515 H   0  0  0  0  0  0  0  0  0  0  0  0
  1  2  1  0  0  0  0
  1 17  1  0  0  0  0
  1 18  1  0  0  0  0
  1 19  1  0  0  0  0
  2  3  1  0  0  0  0
  2 20  1  0  0  0  0
  2 21  1  0  0  0  0
  3 13  1  0  0  0  0
  3  4  2  0  0  0  0
  4  5  1  0  0  0  0
  5  6  1  0  0  0  0
  5 12  2  0  0  0  0
  6 14  1  0  0  0  0
  6 11  1  0  0  0  0
  6  7  1  0  0  0  0
  7  8  1  0  0  0  0
  7 22  1  0  0  0  0
  7 23  1  0  0  0  0
  8 15  1  0  0  0  0
  8  9  1  0  0  0  0
  8 10  1  0  0  0  0
  9 24  1  0  0  0  0
 10 11  1  0  0  0  0
 10 25  1  0  0  0  0
 10 26  1  0  0  0  0
 11 27  1  0  0  0  0
 11 28  1  0  0  0  0
 12 13  1  0  0  0  0
 13 16  1  0  0  0  0
M  CHG  1  11   1
M  END
> <s_m_source_file>
AV-unprocessed.smi

> <i_m_source_file_index>
49

> <i_lp_mmshare_version>
43012

> <i_f3d_flags>
0

> <s_epik_input>
W0NIM11bQ0gyXWMxbmMobltuSF0xKVtDQEBIXTJbQ0gyXVtDQEBIXShbT0hdKVtDSDJdW05IXTI=

> <s_epik_cmdline>
J2VwaWtfcHl0aG9uJywgJy1waCcsICc3LjAnLCAnLXRuJywgJzgnLCAnLW1hJywgJzIwMCcsICctbWV0YWxfYmluZGluZycsICctaW1hZScsICc8aW5maWxlLm1hZT4nLCAnLW9tYWUnLCAnPG91dGZpbGUubWFlPic=

> <r_lp_tautomer_probability>
0.948284

> <r_epik_Ionization_Penalty>
0.045643

> <r_epik_Ionization_Penalty_Charging>
0.0371552

> <r_epik_Ionization_Penalty_Neutral>
0.00848778

> <r_epik_State_Penalty>
0.283309

> <r_epik_Charging_Adjusted_Penalty>
0.320465

> <i_epik_Tot_Q>
1

> <i_epik_Tot_abs_Q>
1

> <r_epik_Metal_State_Penalty>
0.558162

> <b_epik_Metal_Only>
0

> <s_lp_Force_Field>
OPLS_2005

> <r_lp_Energy>
17.5806

> <b_lp_Chiralities_Consistent>
1

> <s_lp_Variant>
AV-unprocessed.smi:49-1

> <Gold.Version>
5.8.1

> <Gold.Id.Protein>
6NUR|6NUR_protein|mol2

> <Gold.PLP.Fitness>
35.0731

> <Gold.PLP.PLP>
-24.6475

> <Gold.PLP.part.hbond>
-2.7360

> <Gold.PLP.part.metal>
0.0000

> <Gold.PLP.part.buried>
-6.1687

> <Gold.PLP.part.nonpolar>
-16.5474

> <Gold.PLP.part.repulsive>
0.3987

> <Gold.PLP.ligand.clash>
0.0000

> <Gold.PLP.ligand.torsion>
0.7686

> <Gold.PLP.Chemscore.Hbond>
3.9833

> <Gold.PLP.Chemscore.CHOScore>
0.0000

> <Gold.PLP.Chemscore.Metal>
0.0000

> <Gold.Chemscore.Hbonds>
donor molecule, donor type, donor heavy atom, donor atom, acceptor molecule, acceptor atom, score
      L1  H     9    24       P1 10171  1.00
      L1  H    11    27       P1 10186  2.00
      L1  H    13    16       P1 10747  0.94

> <Gold.PLP.Chemscore.Internal.Correction>
0.0128

> <Gold.Rescore>
     Score         DG    S(hbond)    S(metal)    S(lipo)     H(rot)  DE(clash)    DE(int)     intcor
     12.67     -13.89       2.52        0.00      41.23       1.89       0.53       0.69       ----

> <Gold.Chemscore.Fitness>
12.6693

> <Gold.Chemscore.DG>
-13.8883

> <Gold.Chemscore.ZeroCoef>
-5.4800

> <Gold.Chemscore.Hbond>
2.5203

> <Gold.Chemscore.Metal>
0.0000

> <Gold.Chemscore.Lipo>
41.2346

> <Gold.Chemscore.Internal_Hbond>
0.0000

> <Gold.Chemscore.DEClash>
0.5263

> <Gold.Chemscore.DEInternal>
0.6926

> <Gold.Chemscore.Rot>
1.8883

> <Gold.Chemscore.Internal.Correction>
   9.000000E+99

> <Gold.Chemscore.Hbonds>
donor molecule, donor type, donor heavy atom, donor atom, acceptor molecule, acceptor atom, score
      L1  H     9    24       P1 10171  0.95
      L1  H    11    27       P1 10186  0.24
      L1  H    13    16       P1 10747  0.87

> <Gold.Chemscore.Hbond.Weighted>
-8.4178

> <Gold.Chemscore.Metal.Weighted>
-0.0000

> <Gold.Chemscore.Lipo.Weighted>
-4.8244

> <Gold.Chemscore.Internal_Hbond.Weighted>
0.0000

> <Gold.Chemscore.DEClash.Weighted>
0.5263

> <Gold.Chemscore.DEInternal.Weighted>
0.6926

> <Gold.Chemscore.Rot.Weighted>
4.8340

> <Gold.Chemscore.Internal.Correction.Weighted>
   9.000000E+99

> <Gold.Protein.RotatedTorsions>
[ 6907 6896 6895 6894 ] final  -58.50 input  -60.11 | X-H torsion
[ 7974 7965 7964 7962 ] final  -80.69 input  175.53 | X-H torsion
[ 8008 7997 7996 7995 ] final  178.60 input   59.86 | X-H torsion
[ 10167 10162 10161 10158 ] final   -8.52 input  -65.29 | X-H torsion
[ 10718 10713 10712 10709 ] final   28.79 input   66.30 | X-H torsion
[ 10763 10752 10751 10750 ] final   16.94 input  -60.55 | X-H torsion
[ 11005 11000 10999 10996 ] final -133.05 input  -57.11 | X-H torsion

> <Gold.Protein.ActiveResidues>
 VAL166  LYS551  ARG553  GLY616  TRP617  ASP618  TYR619  PRO620  LYS621  CYS622 
 ASP623  PHE694  ASN695  SER759  ASP760  ASP761  ALA762  ILE779  LEU786  VAL792 
 PHE793  MET794  SER795  GLU796  ALA797  LYS798  CYS799  TRP800  GLU811  SER814 

> <Gold.Protein.RotatedAtoms>
  150.8002  134.7090  159.6592 H   0  0  0  0  0  0  0  0  0  0  0  0  # atno 6907 bound_to 6896
  152.4118  134.6108  160.0035 H   0  0  0  0  0  0  0  0  0  0  0  0  # atno 6908 bound_to 6896
  151.6349  133.3292  159.3153 H   0  0  0  0  0  0  0  0  0  0  0  0  # atno 6909 bound_to 6896
  145.5566  140.9488  143.1470 H   0  0  0  0  0  0  0  0  0  0  0  0  # atno 7974 bound_to 7965
  156.0528  140.1329  157.0030 H   0  0  0  0  0  0  0  0  0  0  0  0  # atno 8008 bound_to 7997
  154.4443  140.1007  156.6473 H   0  0  0  0  0  0  0  0  0  0  0  0  # atno 8009 bound_to 7997
  155.5497  140.3462  155.4468 H   0  0  0  0  0  0  0  0  0  0  0  0  # atno 8010 bound_to 7997
  140.7061  143.5959  150.8846 H   0  0  0  0  0  0  0  0  0  0  0  0  # atno 10167 bound_to 10162
  157.2381  130.7056  149.6345 H   0  0  0  0  0  0  0  0  0  0  0  0  # atno 10718 bound_to 10713
  153.1385  135.6755  153.9065 H   0  0  0  0  0  0  0  0  0  0  0  0  # atno 10763 bound_to 10752
  153.8529  135.3091  155.3435 H   0  0  0  0  0  0  0  0  0  0  0  0  # atno 10764 bound_to 10752
  154.7767  135.4910  153.9843 H   0  0  0  0  0  0  0  0  0  0  0  0  # atno 10765 bound_to 10752
  140.9116  134.1561  157.4385 H   0  0  0  0  0  0  0  0  0  0  0  0  # atno 11005 bound_to 11000
  144.7503  139.7211  143.7276 LP  0  0  0  0  0  0  0  0  0  0  0  0  # atno 17320 bound_to 7965
  146.1880  139.5105  142.9823 LP  0  0  0  0  0  0  0  0  0  0  0  0  # atno 17321 bound_to 7965
  139.9684  143.6084  152.2981 LP  0  0  0  0  0  0  0  0  0  0  0  0  # atno 17342 bound_to 10162
  139.6662  144.7662  151.1869 LP  0  0  0  0  0  0  0  0  0  0  0  0  # atno 17343 bound_to 10162
  155.9671  130.4467  150.5551 LP  0  0  0  0  0  0  0  0  0  0  0  0  # atno 17370 bound_to 10713
  157.3407  131.0716  151.1790 LP  0  0  0  0  0  0  0  0  0  0  0  0  # atno 17371 bound_to 10713
  139.8758  134.9937  156.5660 LP  0  0  0  0  0  0  0  0  0  0  0  0  # atno 17394 bound_to 11000
  140.8103  133.8434  155.8804 LP  0  0  0  0  0  0  0  0  0  0  0  0  # atno 17395 bound_to 11000

$$$$
