AV-unprocessed.smi:152|AV-procd|sdf|1246|dock1
  -GOLD-   2262018473D 1   1.00000     0.00000
 Structure written by MMmdl.
 58 61  0  0  0  0  0  0  0  0  2 V2000
  144.2692  135.9521  162.5671 C   0  0  0  0  0  0  0  0  0  0  0  0
  144.7269  135.4427  161.1932 C   0  0  0  0  0  0  0  0  0  0  0  0
  146.2033  135.3159  161.0813 N   0  3  2  0  0  0  0  0  0  0  0  0
  146.7766  134.4036  162.1004 C   0  0  0  0  0  0  0  0  0  0  0  0
  147.5976  135.2755  163.0446 C   0  0  0  0  0  0  0  0  0  0  0  0
  148.1154  136.3620  162.1181 C   0  0  0  0  0  0  0  0  0  0  0  0
  146.9471  136.6044  161.1496 C   0  0  1  0  0  0  0  0  0  0  0  0
  147.4042  137.0601  159.7456 C   0  0  0  0  0  0  0  0  0  0  0  0
  148.6660  136.4536  159.3203 N   0  0  0  0  0  0  0  0  0  0  0  0
  148.6098  135.1067  158.7585 C   0  0  0  0  0  0  0  0  0  0  0  0
  149.6849  137.2678  158.9314 C   0  0  0  0  0  0  0  0  0  0  0  0
  150.9627  136.8089  159.0163 N   0  0  0  0  0  0  0  0  0  0  0  0
  151.9877  137.5698  158.6234 C   0  0  0  0  0  0  0  0  0  0  0  0
  151.9636  138.8058  158.1244 N   0  0  0  0  0  0  0  0  0  0  0  0
  150.6887  139.2818  158.0469 C   0  0  0  0  0  0  0  0  0  0  0  0
  149.5025  138.5884  158.4245 C   0  0  0  0  0  0  0  0  0  0  0  0
  148.3981  139.4057  158.2096 N   0  0  0  0  0  0  0  0  0  0  0  0
  148.8998  140.5091  157.7269 C   0  0  0  0  0  0  0  0  0  0  0  0
  150.2695  140.5231  157.6017 N   0  0  0  0  0  0  0  0  0  0  0  0
  151.0870  141.6186  157.1029 C   0  0  0  0  0  0  0  0  0  0  0  0
  151.1327  142.8462  158.0460 C   0  0  0  0  0  0  0  0  0  0  0  0
  151.7274  143.9159  157.3309 O   0  0  0  0  0  0  0  0  0  0  0  0
  149.7293  143.2913  158.5127 C   0  0  0  0  0  0  0  0  0  0  0  0
  149.7987  144.3751  159.6033 C   0  0  0  0  0  0  0  0  0  0  0  0
  150.5931  143.9237  160.6936 O   0  0  0  0  0  0  0  0  0  0  0  0
  151.9441  143.6739  160.3245 C   0  0  0  0  0  0  0  0  0  0  0  0
  152.0044  142.5440  159.2815 C   0  0  0  0  0  0  0  0  0  0  0  0
  143.1912  136.1133  162.5757 H   0  0  0  0  0  0  0  0  0  0  0  0
  144.7458  136.9003  162.8168 H   0  0  0  0  0  0  0  0  0  0  0  0
  144.4946  135.2382  163.3594 H   0  0  0  0  0  0  0  0  0  0  0  0
  144.2522  134.4869  160.9657 H   0  0  0  0  0  0  0  0  0  0  0  0
  144.3800  136.1497  160.4386 H   0  0  0  0  0  0  0  0  0  0  0  0
  146.0274  133.8165  162.6337 H   0  0  0  0  0  0  0  0  0  0  0  0
  147.4337  133.7009  161.5870 H   0  0  0  0  0  0  0  0  0  0  0  0
  146.9531  135.7119  163.8085 H   0  0  0  0  0  0  0  0  0  0  0  0
  148.3953  134.7254  163.5448 H   0  0  0  0  0  0  0  0  0  0  0  0
  148.4150  137.2633  162.6538 H   0  0  0  0  0  0  0  0  0  0  0  0
  148.9878  135.9875  161.5805 H   0  0  0  0  0  0  0  0  0  0  0  0
  146.2939  137.3580  161.5930 H   0  0  0  0  0  0  0  0  0  0  0  0
  146.6097  136.8923  159.0224 H   0  0  0  0  0  0  0  0  0  0  0  0
  147.5547  138.1391  159.7437 H   0  0  0  0  0  0  0  0  0  0  0  0
  149.5749  134.6072  158.8513 H   0  0  0  0  0  0  0  0  0  0  0  0
  148.3343  135.1357  157.7039 H   0  0  0  0  0  0  0  0  0  0  0  0
  147.8722  134.5003  159.2843 H   0  0  0  0  0  0  0  0  0  0  0  0
  152.9667  137.1242  158.7225 H   0  0  0  0  0  0  0  0  0  0  0  0
  148.2819  141.3526  157.4547 H   0  0  0  0  0  0  0  0  0  0  0  0
  152.0957  141.2388  156.9358 H   0  0  0  0  0  0  0  0  0  0  0  0
  150.7075  141.9078  156.1218 H   0  0  0  0  0  0  0  0  0  0  0  0
  152.6650  143.7958  157.3364 H   0  0  0  0  0  0  0  0  0  0  0  0
  149.1357  143.6553  157.6731 H   0  0  0  0  0  0  0  0  0  0  0  0
  149.1951  142.4293  158.9146 H   0  0  0  0  0  0  0  0  0  0  0  0
  150.2028  145.3075  159.2063 H   0  0  0  0  0  0  0  0  0  0  0  0
  148.7964  144.5982  159.9694 H   0  0  0  0  0  0  0  0  0  0  0  0
  152.4051  144.5866  159.9445 H   0  0  0  0  0  0  0  0  0  0  0  0
  152.5025  143.3872  161.2157 H   0  0  0  0  0  0  0  0  0  0  0  0
  151.6554  141.6238  159.7519 H   0  0  0  0  0  0  0  0  0  0  0  0
  153.0386  142.3615  158.9860 H   0  0  0  0  0  0  0  0  0  0  0  0
  146.3984  134.8979  160.1827 H   0  0  0  0  0  0  0  0  0  0  0  0
  1  2  1  0  0  0  0
  1 28  1  0  0  0  0
  1 29  1  0  0  0  0
  1 30  1  0  0  0  0
  2  3  1  0  0  0  0
  2 31  1  0  0  0  0
  2 32  1  0  0  0  0
  3  7  1  0  0  0  0
  3  4  1  0  0  0  0
  3 58  1  0  0  0  0
  4  5  1  0  0  0  0
  4 33  1  0  0  0  0
  4 34  1  0  0  0  0
  5  6  1  0  0  0  0
  5 35  1  0  0  0  0
  5 36  1  0  0  0  0
  6  7  1  0  0  0  0
  6 37  1  0  0  0  0
  6 38  1  0  0  0  0
  7  8  1  0  0  0  0
  7 39  1  0  0  0  0
  8  9  1  0  0  0  0
  8 40  1  0  0  0  0
  8 41  1  0  0  0  0
  9 10  1  0  0  0  0
  9 11  1  0  0  0  0
 10 42  1  0  0  0  0
 10 43  1  0  0  0  0
 10 44  1  0  0  0  0
 11 16  1  0  0  0  0
 11 12  2  0  0  0  0
 12 13  1  0  0  0  0
 13 14  2  0  0  0  0
 13 45  1  0  0  0  0
 14 15  1  0  0  0  0
 15 19  1  0  0  0  0
 15 16  2  0  0  0  0
 16 17  1  0  0  0  0
 17 18  2  0  0  0  0
 18 19  1  0  0  0  0
 18 46  1  0  0  0  0
 19 20  1  0  0  0  0
 20 21  1  0  0  0  0
 20 47  1  0  0  0  0
 20 48  1  0  0  0  0
 21 27  1  0  0  0  0
 21 22  1  0  0  0  0
 21 23  1  0  0  0  0
 22 49  1  0  0  0  0
 23 24  1  0  0  0  0
 23 50  1  0  0  0  0
 23 51  1  0  0  0  0
 24 25  1  0  0  0  0
 24 52  1  0  0  0  0
 24 53  1  0  0  0  0
 25 26  1  0  0  0  0
 26 27  1  0  0  0  0
 26 54  1  0  0  0  0
 26 55  1  0  0  0  0
 27 56  1  0  0  0  0
 27 57  1  0  0  0  0
M  CHG  1   3   1
M  END
> <s_m_source_file>
AV-unprocessed.smi

> <i_m_source_file_index>
152

> <i_lp_mmshare_version>
43012

> <i_f3d_flags>
0

> <s_epik_input>
W0NIM11bQ0gyXU4xW0NIMl1bQ0gyXVtDSDJdW0NASF0xW0NIMl1OKFtDSDNdKWMobltjSF1uMiljKGMyMyluW2NIXW4zW0NIMl1DNChbT0hdKVtDSDJdW0NIMl1PW0NIMl1bQ0gyXTQ=

> <s_epik_cmdline>
J2VwaWtfcHl0aG9uJywgJy1waCcsICc3LjAnLCAnLXRuJywgJzgnLCAnLW1hJywgJzIwMCcsICctbWV0YWxfYmluZGluZycsICctaW1hZScsICc8aW5maWxlLm1hZT4nLCAnLW9tYWUnLCAnPG91dGZpbGUubWFlPic=

> <r_lp_tautomer_probability>
1

> <r_epik_Ionization_Penalty>
0.00152183

> <r_epik_Ionization_Penalty_Charging>
0.00112577

> <r_epik_Ionization_Penalty_Neutral>
0.000396066

> <r_epik_State_Penalty>
-0

> <r_epik_Charging_Adjusted_Penalty>
0.00112577

> <i_epik_Tot_Q>
1

> <i_epik_Tot_abs_Q>
1

> <r_epik_Metal_State_Penalty>
-0

> <b_epik_Metal_Only>
0

> <s_lp_Force_Field>
OPLS_2005

> <r_lp_Energy>
43.1926

> <b_lp_Chiralities_Consistent>
1

> <s_lp_Variant>
AV-unprocessed.smi:152-1

> <Gold.Version>
5.8.1

> <Gold.Id.Protein>
6NUR|6NUR_protein|mol2

> <Gold.PLP.Fitness>
43.9366

> <Gold.PLP.PLP>
-42.7956

> <Gold.PLP.part.hbond>
-3.0000

> <Gold.PLP.part.metal>
0.0000

> <Gold.PLP.part.buried>
-6.0962

> <Gold.PLP.part.nonpolar>
-34.4133

> <Gold.PLP.part.repulsive>
0.1511

> <Gold.PLP.ligand.clash>
0.0000

> <Gold.PLP.ligand.torsion>
1.2303

> <Gold.PLP.Chemscore.Hbond>
1.0000

> <Gold.PLP.Chemscore.CHOScore>
0.0000

> <Gold.PLP.Chemscore.Metal>
0.0000

> <Gold.Chemscore.Hbonds>
donor molecule, donor type, donor heavy atom, donor atom, acceptor molecule, acceptor atom, score
      P1  H  6896  6909       L1    12  1.00

> <Gold.PLP.Chemscore.Internal.Correction>
0.6015

> <Gold.Rescore>
     Score         DG    S(hbond)    S(metal)    S(lipo)     H(rot)  DE(clash)    DE(int)     intcor
     12.51     -15.21       1.06        0.00     106.77       2.46       0.33       2.36       ----

> <Gold.Chemscore.Fitness>
12.5130

> <Gold.Chemscore.DG>
-15.2050

> <Gold.Chemscore.ZeroCoef>
-5.4800

> <Gold.Chemscore.Hbond>
1.0580

> <Gold.Chemscore.Metal>
0.0000

> <Gold.Chemscore.Lipo>
106.7723

> <Gold.Chemscore.Internal_Hbond>
0.0000

> <Gold.Chemscore.DEClash>
0.3279

> <Gold.Chemscore.DEInternal>
2.3641

> <Gold.Chemscore.Rot>
2.4614

> <Gold.Chemscore.Internal.Correction>
   9.000000E+99

> <Gold.Chemscore.Hbonds>
donor molecule, donor type, donor heavy atom, donor atom, acceptor molecule, acceptor atom, score
      P1  H  6896  6909       L1    12  0.81

> <Gold.Chemscore.Hbond.Weighted>
-3.5339

> <Gold.Chemscore.Metal.Weighted>
-0.0000

> <Gold.Chemscore.Lipo.Weighted>
-12.4924

> <Gold.Chemscore.Internal_Hbond.Weighted>
0.0000

> <Gold.Chemscore.DEClash.Weighted>
0.3279

> <Gold.Chemscore.DEInternal.Weighted>
2.3641

> <Gold.Chemscore.Rot.Weighted>
6.3012

> <Gold.Chemscore.Internal.Correction.Weighted>
   9.000000E+99

> <Gold.Protein.RotatedTorsions>
[ 6907 6896 6895 6894 ] final   87.37 input  -60.11 | X-H torsion
[ 7974 7965 7964 7962 ] final -128.49 input  175.53 | X-H torsion
[ 8008 7997 7996 7995 ] final  100.13 input   59.86 | X-H torsion
[ 10167 10162 10161 10158 ] final  110.11 input  -65.29 | X-H torsion
[ 10718 10713 10712 10709 ] final  139.33 input   66.30 | X-H torsion
[ 10763 10752 10751 10750 ] final  113.34 input  -60.55 | X-H torsion
[ 11005 11000 10999 10996 ] final   86.26 input  -57.11 | X-H torsion

> <Gold.Protein.ActiveResidues>
 VAL166  LYS551  ARG553  GLY616  TRP617  ASP618  TYR619  PRO620  LYS621  CYS622 
 ASP623  PHE694  ASN695  SER759  ASP760  ASP761  ALA762  ILE779  LEU786  VAL792 
 PHE793  MET794  SER795  GLU796  ALA797  LYS798  CYS799  TRP800  GLU811  SER814 

> <Gold.Protein.RotatedAtoms>
  152.5410  134.2287  159.8815 H   0  0  0  0  0  0  0  0  0  0  0  0  # atno 6907 bound_to 6896
  151.2260  133.4469  159.2610 H   0  0  0  0  0  0  0  0  0  0  0  0  # atno 6908 bound_to 6896
  151.0760  134.9842  159.8388 H   0  0  0  0  0  0  0  0  0  0  0  0  # atno 6909 bound_to 6896
  144.9666  140.7502  143.4696 H   0  0  0  0  0  0  0  0  0  0  0  0  # atno 7974 bound_to 7965
  156.1173  140.3218  155.8158 H   0  0  0  0  0  0  0  0  0  0  0  0  # atno 8008 bound_to 7997
  155.4567  140.0536  157.3012 H   0  0  0  0  0  0  0  0  0  0  0  0  # atno 8009 bound_to 7997
  154.4802  140.2050  155.9795 H   0  0  0  0  0  0  0  0  0  0  0  0  # atno 8010 bound_to 7997
  139.6714  144.7125  151.1682 H   0  0  0  0  0  0  0  0  0  0  0  0  # atno 10167 bound_to 10162
  157.4155  131.1033  151.0409 H   0  0  0  0  0  0  0  0  0  0  0  0  # atno 10718 bound_to 10713
  153.4911  135.3658  155.2492 H   0  0  0  0  0  0  0  0  0  0  0  0  # atno 10763 bound_to 10752
  154.8752  135.3977  154.3588 H   0  0  0  0  0  0  0  0  0  0  0  0  # atno 10764 bound_to 10752
  153.4207  135.7080  153.6361 H   0  0  0  0  0  0  0  0  0  0  0  0  # atno 10765 bound_to 10752
  139.8949  134.8343  156.2696 H   0  0  0  0  0  0  0  0  0  0  0  0  # atno 11005 bound_to 11000
  145.2621  139.1988  143.4886 LP  0  0  0  0  0  0  0  0  0  0  0  0  # atno 17320 bound_to 7965
  146.3369  140.2553  142.8600 LP  0  0  0  0  0  0  0  0  0  0  0  0  # atno 17321 bound_to 7965
  140.7619  143.5839  150.8866 LP  0  0  0  0  0  0  0  0  0  0  0  0  # atno 17342 bound_to 10162
  139.9504  143.6278  152.3030 LP  0  0  0  0  0  0  0  0  0  0  0  0  # atno 17343 bound_to 10162
  157.1358  130.6122  149.5541 LP  0  0  0  0  0  0  0  0  0  0  0  0  # atno 17370 bound_to 10713
  155.9864  130.4898  150.7076 LP  0  0  0  0  0  0  0  0  0  0  0  0  # atno 17371 bound_to 10713
  141.0110  133.7096  156.1111 LP  0  0  0  0  0  0  0  0  0  0  0  0  # atno 17394 bound_to 11000
  140.7368  134.4194  157.5559 LP  0  0  0  0  0  0  0  0  0  0  0  0  # atno 17395 bound_to 11000

$$$$
