AV-unprocessed.smi:2432|AV-procd|sdf|9587|dock1
  -GOLD-   2272013223D 1   1.00000     0.00000
 Structure written by MMmdl.
 33 34  0  0  0  0  0  0  0  0  1 V2000
  146.8295  140.0793  152.2172 C   0  0  0  0  0  0  0  0  0  0  0  0
  147.8763  139.7784  153.1815 N   0  0  0  0  0  0  0  0  0  0  0  0
  148.5391  140.7021  153.8937 C   0  0  0  0  0  0  0  0  0  0  0  0
  148.3101  141.9085  153.7977 O   0  0  0  0  0  0  0  0  0  0  0  0
  149.6026  140.1819  154.8725 C   0  0  2  0  0  0  0  0  0  0  0  0
  150.3255  141.3231  155.6241 C   0  0  0  0  0  0  0  0  0  0  0  0
  151.4106  140.8027  156.4608 N   0  0  0  0  0  0  0  0  0  0  0  0
  151.7861  141.4221  157.6607 C   0  0  0  0  0  0  0  0  0  0  0  0
  152.2974  140.6467  158.6275 N   0  0  0  0  0  0  0  0  0  0  0  0
  152.6598  141.2377  159.7862 C   0  0  0  0  0  0  0  0  0  0  0  0
  152.5119  142.6229  159.9893 C   0  0  0  0  0  0  0  0  0  0  0  0
  151.9638  143.3493  158.9140 C   0  0  0  0  0  0  0  0  0  0  0  0
  151.7544  144.8462  158.9967 C   0  0  0  0  0  0  0  0  0  0  0  0
  151.6062  142.7468  157.7592 N   0  0  0  0  0  0  0  0  0  0  0  0
  152.3168  139.9134  155.7312 C   0  0  0  0  0  0  0  0  0  0  0  0
  151.5282  138.8196  154.9954 C   0  0  0  0  0  0  0  0  0  0  0  0
  150.5616  139.4188  154.1428 O   0  0  0  0  0  0  0  0  0  0  0  0
  146.4572  139.1564  151.7724 H   0  0  0  0  0  0  0  0  0  0  0  0
  147.2099  140.7150  151.4167 H   0  0  0  0  0  0  0  0  0  0  0  0
  145.9932  140.5879  152.6988 H   0  0  0  0  0  0  0  0  0  0  0  0
  148.1196  138.8072  153.3154 H   0  0  0  0  0  0  0  0  0  0  0  0
  149.0967  139.5317  155.5888 H   0  0  0  0  0  0  0  0  0  0  0  0
  150.7484  142.0374  154.9165 H   0  0  0  0  0  0  0  0  0  0  0  0
  149.5879  141.8647  156.2162 H   0  0  0  0  0  0  0  0  0  0  0  0
  153.0707  140.6008  160.5555 H   0  0  0  0  0  0  0  0  0  0  0  0
  152.8032  143.0965  160.9153 H   0  0  0  0  0  0  0  0  0  0  0  0
  151.6516  145.1673  160.0336 H   0  0  0  0  0  0  0  0  0  0  0  0
  150.8529  145.1427  158.4594 H   0  0  0  0  0  0  0  0  0  0  0  0
  152.6041  145.3688  158.5574 H   0  0  0  0  0  0  0  0  0  0  0  0
  152.8881  140.5080  155.0175 H   0  0  0  0  0  0  0  0  0  0  0  0
  153.0388  139.4290  156.3878 H   0  0  0  0  0  0  0  0  0  0  0  0
  152.2035  138.2132  154.3917 H   0  0  0  0  0  0  0  0  0  0  0  0
  151.0419  138.1457  155.7028 H   0  0  0  0  0  0  0  0  0  0  0  0
  1  2  1  0  0  0  0
  1 18  1  0  0  0  0
  1 19  1  0  0  0  0
  1 20  1  0  0  0  0
  2  3  1  0  0  0  0
  2 21  1  0  0  0  0
  3  4  2  0  0  0  0
  3  5  1  0  0  0  0
  5 17  1  0  0  0  0
  5  6  1  0  0  0  0
  5 22  1  0  0  0  0
  6  7  1  0  0  0  0
  6 23  1  0  0  0  0
  6 24  1  0  0  0  0
  7  8  1  0  0  0  0
  7 15  1  0  0  0  0
  8 14  1  0  0  0  0
  8  9  2  0  0  0  0
  9 10  1  0  0  0  0
 10 11  2  0  0  0  0
 10 25  1  0  0  0  0
 11 12  1  0  0  0  0
 11 26  1  0  0  0  0
 12 13  1  0  0  0  0
 12 14  2  0  0  0  0
 13 27  1  0  0  0  0
 13 28  1  0  0  0  0
 13 29  1  0  0  0  0
 15 16  1  0  0  0  0
 15 30  1  0  0  0  0
 15 31  1  0  0  0  0
 16 17  1  0  0  0  0
 16 32  1  0  0  0  0
 16 33  1  0  0  0  0
M  END
> <s_m_source_file>
AV-unprocessed.smi

> <i_m_source_file_index>
2432

> <i_lp_mmshare_version>
43012

> <i_f3d_flags>
0

> <s_epik_input>
W0NIM11bTkhdQyg9TylbQ0BASF0xW0NIMl1OKFtDSDJdW0NIMl1PMSljMm5bY0hdW2NIXWMobjIpW0NIM10=

> <s_epik_cmdline>
J2VwaWtfcHl0aG9uJywgJy1waCcsICc3LjAnLCAnLXRuJywgJzgnLCAnLW1hJywgJzIwMCcsICctbWV0YWxfYmluZGluZycsICctaW1hZScsICc8aW5maWxlLm1hZT4nLCAnLW9tYWUnLCAnPG91dGZpbGUubWFlPic=

> <r_lp_tautomer_probability>
1

> <r_epik_Ionization_Penalty>
3.16085e-05

> <r_epik_Ionization_Penalty_Charging>
0

> <r_epik_Ionization_Penalty_Neutral>
3.16085e-05

> <r_epik_State_Penalty>
-0

> <r_epik_Charging_Adjusted_Penalty>
0

> <i_epik_Tot_Q>
0

> <i_epik_Tot_abs_Q>
0

> <r_epik_Metal_State_Penalty>
-0

> <b_epik_Metal_Only>
0

> <s_lp_Force_Field>
OPLS_2005

> <r_lp_Energy>
9.35754

> <b_lp_Chiralities_Consistent>
1

> <s_lp_Variant>
AV-unprocessed.smi:2432-1

> <Gold.Version>
5.8.1

> <Gold.Id.Protein>
6NUR|6NUR_protein|mol2

> <Gold.PLP.Fitness>
38.8004

> <Gold.PLP.PLP>
-36.2816

> <Gold.PLP.part.hbond>
-3.0000

> <Gold.PLP.part.metal>
0.0000

> <Gold.PLP.part.buried>
1.8871

> <Gold.PLP.part.nonpolar>
-33.6011

> <Gold.PLP.part.repulsive>
0.4836

> <Gold.PLP.ligand.clash>
0.0000

> <Gold.PLP.ligand.torsion>
0.6449

> <Gold.PLP.Chemscore.Hbond>
1.2343

> <Gold.PLP.Chemscore.CHOScore>
0.0000

> <Gold.PLP.Chemscore.Metal>
0.0000

> <Gold.Chemscore.Hbonds>
donor molecule, donor type, donor heavy atom, donor atom, acceptor molecule, acceptor atom, score
      P1  H  7989  7998       L1    17  0.90
      P1  H  8011  8017       L1     4  0.34

> <Gold.PLP.Chemscore.Internal.Correction>
0.1059

> <Gold.Rescore>
     Score         DG    S(hbond)    S(metal)    S(lipo)     H(rot)  DE(clash)    DE(int)     intcor
     12.85     -13.99       0.37        0.00      83.96       1.00       0.57       0.57       ----

> <Gold.Chemscore.Fitness>
12.8544

> <Gold.Chemscore.DG>
-13.9941

> <Gold.Chemscore.ZeroCoef>
-5.4800

> <Gold.Chemscore.Hbond>
0.3745

> <Gold.Chemscore.Metal>
0.0000

> <Gold.Chemscore.Lipo>
83.9599

> <Gold.Chemscore.Internal_Hbond>
0.0000

> <Gold.Chemscore.DEClash>
0.5682

> <Gold.Chemscore.DEInternal>
0.5715

> <Gold.Chemscore.Rot>
1.0000

> <Gold.Chemscore.Internal.Correction>
   9.000000E+99

> <Gold.Chemscore.Hbonds>
donor molecule, donor type, donor heavy atom, donor atom, acceptor molecule, acceptor atom, score
      P1  H  7989  7998       L1    17  0.05
      P1  H  8011  8017       L1     4  0.09

> <Gold.Chemscore.Hbond.Weighted>
-1.2508

> <Gold.Chemscore.Metal.Weighted>
-0.0000

> <Gold.Chemscore.Lipo.Weighted>
-9.8233

> <Gold.Chemscore.Internal_Hbond.Weighted>
0.0000

> <Gold.Chemscore.DEClash.Weighted>
0.5682

> <Gold.Chemscore.DEInternal.Weighted>
0.5715

> <Gold.Chemscore.Rot.Weighted>
2.5600

> <Gold.Chemscore.Internal.Correction.Weighted>
   9.000000E+99

> <Gold.Protein.RotatedTorsions>
[ 6907 6896 6895 6894 ] final   83.84 input  -60.11 | X-H torsion
[ 7974 7965 7964 7962 ] final -146.72 input  175.53 | X-H torsion
[ 8008 7997 7996 7995 ] final   66.69 input   59.86 | X-H torsion
[ 10167 10162 10161 10158 ] final  116.87 input  -65.29 | X-H torsion
[ 10718 10713 10712 10709 ] final  -50.11 input   66.30 | X-H torsion
[ 10763 10752 10751 10750 ] final   74.97 input  -60.55 | X-H torsion
[ 11005 11000 10999 10996 ] final   -6.49 input  -57.11 | X-H torsion

> <Gold.Protein.ActiveResidues>
 VAL166  LYS551  ARG553  GLY616  TRP617  ASP618  TYR619  PRO620  LYS621  CYS622 
 ASP623  PHE694  ASN695  SER759  ASP760  ASP761  ALA762  ILE779  LEU786  VAL792 
 PHE793  MET794  SER795  GLU796  ALA797  LYS798  CYS799  TRP800  GLU811  SER814 

> <Gold.Protein.RotatedAtoms>
  152.5337  134.2833  159.9015 H   0  0  0  0  0  0  0  0  0  0  0  0  # atno 6907 bound_to 6896
  151.2787  133.4213  159.2633 H   0  0  0  0  0  0  0  0  0  0  0  0  # atno 6908 bound_to 6896
  151.0303  134.9549  159.8164 H   0  0  0  0  0  0  0  0  0  0  0  0  # atno 6909 bound_to 6896
  144.8141  140.5420  143.5623 H   0  0  0  0  0  0  0  0  0  0  0  0  # atno 7974 bound_to 7965
  155.6813  140.3496  155.4856 H   0  0  0  0  0  0  0  0  0  0  0  0  # atno 8008 bound_to 7997
  155.9604  140.1136  157.0923 H   0  0  0  0  0  0  0  0  0  0  0  0  # atno 8009 bound_to 7997
  154.4142  140.1177  156.5158 H   0  0  0  0  0  0  0  0  0  0  0  0  # atno 8010 bound_to 7997
  139.6217  144.7102  151.2620 H   0  0  0  0  0  0  0  0  0  0  0  0  # atno 10167 bound_to 10162
  156.1831  130.4151  149.9478 H   0  0  0  0  0  0  0  0  0  0  0  0  # atno 10718 bound_to 10713
  153.0622  135.5006  154.8120 H   0  0  0  0  0  0  0  0  0  0  0  0  # atno 10763 bound_to 10752
  154.6900  135.2983  154.9495 H   0  0  0  0  0  0  0  0  0  0  0  0  # atno 10764 bound_to 10752
  154.0252  135.6737  153.4828 H   0  0  0  0  0  0  0  0  0  0  0  0  # atno 10765 bound_to 10752
  140.7026  133.8977  155.8694 H   0  0  0  0  0  0  0  0  0  0  0  0  # atno 11005 bound_to 11000
  145.5256  139.1476  143.3528 LP  0  0  0  0  0  0  0  0  0  0  0  0  # atno 17320 bound_to 7965
  146.2442  140.5397  142.8921 LP  0  0  0  0  0  0  0  0  0  0  0  0  # atno 17321 bound_to 7965
  140.7386  143.6643  150.8137 LP  0  0  0  0  0  0  0  0  0  0  0  0  # atno 17342 bound_to 10162
  140.0255  143.5498  152.2782 LP  0  0  0  0  0  0  0  0  0  0  0  0  # atno 17343 bound_to 10162
  156.7242  130.9018  151.3620 LP  0  0  0  0  0  0  0  0  0  0  0  0  # atno 17370 bound_to 10713
  157.6881  130.9206  150.0440 LP  0  0  0  0  0  0  0  0  0  0  0  0  # atno 17371 bound_to 10713
  141.0151  134.0966  157.4180 LP  0  0  0  0  0  0  0  0  0  0  0  0  # atno 17394 bound_to 11000
  139.8893  135.0104  156.6669 LP  0  0  0  0  0  0  0  0  0  0  0  0  # atno 17395 bound_to 11000

$$$$
