AV-unprocessed.smi:2840|AV-procd|sdf|10934|dock4
  -GOLD-   2272015383D 1   1.00000     0.00000
 Structure written by MMmdl.
 36 37  0  0  0  0  0  0  0  0  1 V2000
  147.7777  140.7065  155.1530 C   0  0  0  0  0  0  0  0  0  0  0  0
  149.0451  139.8672  155.3938 C   0  0  1  0  0  0  0  0  0  0  0  0
  148.9472  138.5212  154.6471 C   0  0  0  0  0  0  0  0  0  0  0  0
  150.1912  137.6488  154.8704 C   0  0  0  0  0  0  0  0  0  0  0  0
  151.4666  138.3945  154.4567 C   0  0  0  0  0  0  0  0  0  0  0  0
  151.5890  139.7291  155.2058 C   0  0  0  0  0  0  0  0  0  0  0  0
  150.3451  140.6166  155.0010 C   0  0  2  0  0  0  0  0  0  0  0  0
  150.5052  141.8355  155.7932 N   0  0  0  0  0  0  0  0  0  0  0  0
  150.8683  141.8960  157.0833 C   0  0  0  0  0  0  0  0  0  0  0  0
  151.1268  140.9054  157.7674 O   0  0  0  0  0  0  0  0  0  0  0  0
  150.9096  143.1694  157.5128 N   0  0  0  0  0  0  0  0  0  0  0  0
  151.2641  143.6520  158.8008 C   0  0  0  0  0  0  0  0  0  0  0  0
  151.2114  145.0565  158.9482 C   0  0  0  0  0  0  0  0  0  0  0  0
  151.5484  145.6363  160.1865 C   0  0  0  0  0  0  0  0  0  0  0  0
  151.9294  144.7956  161.2475 C   0  0  0  0  0  0  0  0  0  0  0  0
  151.9563  143.4078  161.0169 C   0  0  0  0  0  0  0  0  0  0  0  0
  151.6342  142.8502  159.8306 N   0  0  0  0  0  0  0  0  0  0  0  0
  147.6934  141.0012  154.1064 H   0  0  0  0  0  0  0  0  0  0  0  0
  147.7735  141.6145  155.7556 H   0  0  0  0  0  0  0  0  0  0  0  0
  146.8802  140.1447  155.4130 H   0  0  0  0  0  0  0  0  0  0  0  0
  149.0920  139.6469  156.4616 H   0  0  0  0  0  0  0  0  0  0  0  0
  148.0604  137.9771  154.9744 H   0  0  0  0  0  0  0  0  0  0  0  0
  148.8195  138.7018  153.5788 H   0  0  0  0  0  0  0  0  0  0  0  0
  150.2561  137.3644  155.9214 H   0  0  0  0  0  0  0  0  0  0  0  0
  150.1023  136.7217  154.3034 H   0  0  0  0  0  0  0  0  0  0  0  0
  152.3413  137.7747  154.6555 H   0  0  0  0  0  0  0  0  0  0  0  0
  151.4532  138.5770  153.3815 H   0  0  0  0  0  0  0  0  0  0  0  0
  151.7325  139.5317  156.2692 H   0  0  0  0  0  0  0  0  0  0  0  0
  152.4823  140.2558  154.8677 H   0  0  0  0  0  0  0  0  0  0  0  0
  150.2892  140.8647  153.9391 H   0  0  0  0  0  0  0  0  0  0  0  0
  150.3184  142.7056  155.3170 H   0  0  0  0  0  0  0  0  0  0  0  0
  150.6616  143.8775  156.8380 H   0  0  0  0  0  0  0  0  0  0  0  0
  150.9161  145.6877  158.1223 H   0  0  0  0  0  0  0  0  0  0  0  0
  151.5152  146.7075  160.3186 H   0  0  0  0  0  0  0  0  0  0  0  0
  152.1949  145.2031  162.2118 H   0  0  0  0  0  0  0  0  0  0  0  0
  152.2447  142.7275  161.8045 H   0  0  0  0  0  0  0  0  0  0  0  0
  1  2  1  0  0  0  0
  1 18  1  0  0  0  0
  1 19  1  0  0  0  0
  1 20  1  0  0  0  0
  2  7  1  0  0  0  0
  2  3  1  0  0  0  0
  2 21  1  0  0  0  0
  3  4  1  0  0  0  0
  3 22  1  0  0  0  0
  3 23  1  0  0  0  0
  4  5  1  0  0  0  0
  4 24  1  0  0  0  0
  4 25  1  0  0  0  0
  5  6  1  0  0  0  0
  5 26  1  0  0  0  0
  5 27  1  0  0  0  0
  6  7  1  0  0  0  0
  6 28  1  0  0  0  0
  6 29  1  0  0  0  0
  7  8  1  0  0  0  0
  7 30  1  0  0  0  0
  8  9  1  0  0  0  0
  8 31  1  0  0  0  0
  9 10  2  0  0  0  0
  9 11  1  0  0  0  0
 11 12  1  0  0  0  0
 11 32  1  0  0  0  0
 12 17  1  0  0  0  0
 12 13  2  0  0  0  0
 13 14  1  0  0  0  0
 13 33  1  0  0  0  0
 14 15  2  0  0  0  0
 14 34  1  0  0  0  0
 15 16  1  0  0  0  0
 15 35  1  0  0  0  0
 16 17  2  0  0  0  0
 16 36  1  0  0  0  0
M  END
> <s_m_source_file>
AV-unprocessed.smi

> <i_m_source_file_index>
2840

> <i_lp_mmshare_version>
43012

> <i_f3d_flags>
0

> <s_epik_input>
W0NIM11bQ0BASF0xW0NIMl1bQ0gyXVtDSDJdW0NIMl1bQ0BIXTFbTkhdQyg9TylbTkhdYzJbY0hdW2NIXVtjSF1bY0hdbjI=

> <s_epik_cmdline>
J2VwaWtfcHl0aG9uJywgJy1waCcsICc3LjAnLCAnLXRuJywgJzgnLCAnLW1hJywgJzIwMCcsICctbWV0YWxfYmluZGluZycsICctaW1hZScsICc8aW5maWxlLm1hZT4nLCAnLW9tYWUnLCAnPG91dGZpbGUubWFlPic=

> <r_lp_tautomer_probability>
1

> <r_epik_Ionization_Penalty>
5.29956e-05

> <r_epik_Ionization_Penalty_Charging>
0

> <r_epik_Ionization_Penalty_Neutral>
5.29956e-05

> <r_epik_State_Penalty>
-0

> <r_epik_Charging_Adjusted_Penalty>
0

> <i_epik_Tot_Q>
0

> <i_epik_Tot_abs_Q>
0

> <r_epik_Metal_State_Penalty>
-0

> <b_epik_Metal_Only>
0

> <s_lp_Force_Field>
OPLS_2005

> <r_lp_Energy>
13.2298

> <b_lp_Chiralities_Consistent>
1

> <s_lp_Variant>
AV-unprocessed.smi:2840-4

> <Gold.Version>
5.8.1

> <Gold.Id.Protein>
6NUR|6NUR_protein|mol2

> <Gold.PLP.Fitness>
39.1831

> <Gold.PLP.PLP>
-33.7599

> <Gold.PLP.part.hbond>
-2.0000

> <Gold.PLP.part.metal>
0.0000

> <Gold.PLP.part.buried>
-3.8664

> <Gold.PLP.part.nonpolar>
-28.4174

> <Gold.PLP.part.repulsive>
0.1660

> <Gold.PLP.ligand.clash>
0.0000

> <Gold.PLP.ligand.torsion>
0.1464

> <Gold.PLP.Chemscore.Hbond>
1.9040

> <Gold.PLP.Chemscore.CHOScore>
0.0000

> <Gold.PLP.Chemscore.Metal>
0.0000

> <Gold.Chemscore.Hbonds>
donor molecule, donor type, donor heavy atom, donor atom, acceptor molecule, acceptor atom, score
      L1  H    11    32       P1  8028  0.34

> <Gold.PLP.Chemscore.Internal.Correction>
0.0039

> <Gold.Rescore>
     Score         DG    S(hbond)    S(metal)    S(lipo)     H(rot)  DE(clash)    DE(int)     intcor
     15.79     -18.37       1.88        0.00      78.49       1.00       0.08       2.49       ----

> <Gold.Chemscore.Fitness>
15.7929

> <Gold.Chemscore.DG>
-18.3695

> <Gold.Chemscore.ZeroCoef>
-5.4800

> <Gold.Chemscore.Hbond>
1.8763

> <Gold.Chemscore.Metal>
0.0000

> <Gold.Chemscore.Lipo>
78.4854

> <Gold.Chemscore.Internal_Hbond>
0.0000

> <Gold.Chemscore.DEClash>
0.0849

> <Gold.Chemscore.DEInternal>
2.4917

> <Gold.Chemscore.Rot>
1.0000

> <Gold.Chemscore.Internal.Correction>
   9.000000E+99

> <Gold.Chemscore.Hbonds>
donor molecule, donor type, donor heavy atom, donor atom, acceptor molecule, acceptor atom, score
      L1  H     8    31       P1  8028  0.02
      L1  H    11    32       P1  8028  0.33

> <Gold.Chemscore.Hbond.Weighted>
-6.2667

> <Gold.Chemscore.Metal.Weighted>
-0.0000

> <Gold.Chemscore.Lipo.Weighted>
-9.1828

> <Gold.Chemscore.Internal_Hbond.Weighted>
0.0000

> <Gold.Chemscore.DEClash.Weighted>
0.0849

> <Gold.Chemscore.DEInternal.Weighted>
2.4917

> <Gold.Chemscore.Rot.Weighted>
2.5600

> <Gold.Chemscore.Internal.Correction.Weighted>
   9.000000E+99

> <Gold.Protein.RotatedTorsions>
[ 6907 6896 6895 6894 ] final   76.04 input  -60.11 | X-H torsion
[ 7974 7965 7964 7962 ] final   80.84 input  175.53 | X-H torsion
[ 8008 7997 7996 7995 ] final   87.23 input   59.86 | X-H torsion
[ 10167 10162 10161 10158 ] final    2.54 input  -65.29 | X-H torsion
[ 10718 10713 10712 10709 ] final   26.47 input   66.30 | X-H torsion
[ 10763 10752 10751 10750 ] final -175.21 input  -60.55 | X-H torsion
[ 11005 11000 10999 10996 ] final   -7.79 input  -57.11 | X-H torsion

> <Gold.Protein.ActiveResidues>
 VAL166  LYS551  ARG553  GLY616  TRP617  ASP618  TYR619  PRO620  LYS621  CYS622 
 ASP623  PHE694  ASN695  SER759  ASP760  ASP761  ALA762  ILE779  LEU786  VAL792 
 PHE793  MET794  SER795  GLU796  ALA797  LYS798  CYS799  TRP800  GLU811  SER814 

> <Gold.Protein.RotatedAtoms>
  152.5054  134.4030  159.9422 H   0  0  0  0  0  0  0  0  0  0  0  0  # atno 6907 bound_to 6896
  151.3994  133.3756  159.2738 H   0  0  0  0  0  0  0  0  0  0  0  0  # atno 6908 bound_to 6896
  150.9373  134.8805  159.7648 H   0  0  0  0  0  0  0  0  0  0  0  0  # atno 6909 bound_to 6896
  145.6460  139.2436  143.2003 H   0  0  0  0  0  0  0  0  0  0  0  0  # atno 7974 bound_to 7965
  155.9728  140.3384  155.6591 H   0  0  0  0  0  0  0  0  0  0  0  0  # atno 8008 bound_to 7997
  155.6652  140.0720  157.2558 H   0  0  0  0  0  0  0  0  0  0  0  0  # atno 8009 bound_to 7997
  154.4171  140.1701  156.1807 H   0  0  0  0  0  0  0  0  0  0  0  0  # atno 8010 bound_to 7997
  140.6630  143.7254  150.7773 H   0  0  0  0  0  0  0  0  0  0  0  0  # atno 10167 bound_to 10162
  157.2073  130.6917  149.6213 H   0  0  0  0  0  0  0  0  0  0  0  0  # atno 10718 bound_to 10713
  154.5871  135.2841  155.0673 H   0  0  0  0  0  0  0  0  0  0  0  0  # atno 10763 bound_to 10752
  154.1988  135.6428  153.5085 H   0  0  0  0  0  0  0  0  0  0  0  0  # atno 10764 bound_to 10752
  153.0108  135.5464  154.6544 H   0  0  0  0  0  0  0  0  0  0  0  0  # atno 10765 bound_to 10752
  140.7165  133.8864  155.8789 H   0  0  0  0  0  0  0  0  0  0  0  0  # atno 11005 bound_to 11000
  146.1242  140.7269  142.9443 LP  0  0  0  0  0  0  0  0  0  0  0  0  # atno 17320 bound_to 7965
  144.7140  140.4142  143.7059 LP  0  0  0  0  0  0  0  0  0  0  0  0  # atno 17321 bound_to 7965
  140.0927  143.4863  152.2470 LP  0  0  0  0  0  0  0  0  0  0  0  0  # atno 17342 bound_to 10162
  139.5869  144.7535  151.3497 LP  0  0  0  0  0  0  0  0  0  0  0  0  # atno 17343 bound_to 10162
  155.9694  130.4563  150.5919 LP  0  0  0  0  0  0  0  0  0  0  0  0  # atno 17370 bound_to 10713
  157.3708  131.0765  151.1559 LP  0  0  0  0  0  0  0  0  0  0  0  0  # atno 17371 bound_to 10713
  141.0040  134.1112  157.4289 LP  0  0  0  0  0  0  0  0  0  0  0  0  # atno 17394 bound_to 11000
  139.8858  135.0076  156.6461 LP  0  0  0  0  0  0  0  0  0  0  0  0  # atno 17395 bound_to 11000

$$$$
