AV-unprocessed.smi:136|AV-procd|sdf|1173|dock1
  -GOLD-   2262018323D 1   1.00000     0.00000
 Structure written by MMmdl.
 54 58  0  0  0  0  0  0  0  0  1 V2000
  150.5213  137.0850  159.8742 O   0  0  0  0  0  0  0  0  0  0  0  0
  149.6167  137.3891  159.0942 C   0  0  0  0  0  0  0  0  0  0  0  0
  149.8621  138.4654  158.0156 C   0  0  0  0  0  0  0  0  0  0  0  0
  150.8017  139.5250  158.4433 N   0  0  0  0  0  0  0  0  0  0  0  0
  152.1345  139.1652  158.7617 C   0  0  0  0  0  0  0  0  0  0  0  0
  152.5191  137.9979  158.6771 O   0  0  0  0  0  0  0  0  0  0  0  0
  152.9946  140.2591  159.1980 C   0  0  0  0  0  0  0  0  0  0  0  0
  154.2755  140.0100  159.5193 F   0  0  0  0  0  0  0  0  0  0  0  0
  152.5251  141.5204  159.2870 C   0  0  0  0  0  0  0  0  0  0  0  0
  151.2201  141.8577  158.9742 N   0  0  0  0  0  0  0  0  0  0  0  0
  150.7033  143.2760  159.0975 C   0  0  2  0  0  0  0  0  0  0  0  0
  151.4762  144.2198  158.1562 C   0  0  0  0  0  0  0  0  0  0  0  0
  151.9108  145.3372  159.0836 C   0  0  0  0  0  0  0  0  0  0  0  0
  152.0309  144.6123  160.4155 C   0  0  0  0  0  0  0  0  0  0  0  0
  150.9051  143.7449  160.4006 O   0  0  0  0  0  0  0  0  0  0  0  0
  150.3227  140.8521  158.5535 C   0  0  0  0  0  0  0  0  0  0  0  0
  149.1490  141.1275  158.2937 O   0  0  0  0  0  0  0  0  0  0  0  0
  148.4009  136.8006  159.1468 N   0  0  0  0  0  0  0  0  0  0  0  0
  147.4382  137.0043  158.2125 N   0  0  0  0  0  0  0  0  0  0  0  0
  146.4599  136.2015  158.4157 C   0  0  0  0  0  0  0  0  0  0  0  0
  145.2371  136.1430  157.5839 C   0  0  0  0  0  0  0  0  0  0  0  0
  144.1533  135.3352  157.9978 C   0  0  0  0  0  0  0  0  0  0  0  0
  142.9900  135.2773  157.2057 C   0  0  0  0  0  0  0  0  0  0  0  0
  142.9091  136.0201  156.0106 C   0  0  0  0  0  0  0  0  0  0  0  0
  141.4821  135.9438  155.0440 Cl  0  0  0  0  0  0  0  0  0  0  0  0
  143.9918  136.8252  155.6037 C   0  0  0  0  0  0  0  0  0  0  0  0
  145.1604  136.8915  156.3875 C   0  0  0  0  0  0  0  0  0  0  0  0
  146.6521  135.3038  159.5914 C   0  0  0  0  0  0  0  0  0  0  0  0
  148.0087  135.7744  160.1215 C   0  0  2  0  0  0  0  0  0  0  0  0
  147.9383  136.2718  161.5375 C   0  0  0  0  0  0  0  0  0  0  0  0
  148.6244  135.9870  162.6880 C   0  0  0  0  0  0  0  0  0  0  0  0
  148.0768  136.8193  163.7024 C   0  0  0  0  0  0  0  0  0  0  0  0
  147.1004  137.5563  163.0962 C   0  0  0  0  0  0  0  0  0  0  0  0
  147.0056  137.2370  161.7770 O   0  0  0  0  0  0  0  0  0  0  0  0
  150.2138  137.9750  157.1067 H   0  0  0  0  0  0  0  0  0  0  0  0
  148.9037  138.9018  157.7290 H   0  0  0  0  0  0  0  0  0  0  0  0
  153.2136  142.2813  159.6212 H   0  0  0  0  0  0  0  0  0  0  0  0
  149.6324  143.2185  158.8945 H   0  0  0  0  0  0  0  0  0  0  0  0
  152.3477  143.7107  157.7411 H   0  0  0  0  0  0  0  0  0  0  0  0
  150.8422  144.5622  157.3379 H   0  0  0  0  0  0  0  0  0  0  0  0
  152.8399  145.8148  158.7712 H   0  0  0  0  0  0  0  0  0  0  0  0
  151.1342  146.1006  159.1426 H   0  0  0  0  0  0  0  0  0  0  0  0
  152.9539  144.0327  160.4604 H   0  0  0  0  0  0  0  0  0  0  0  0
  152.0055  145.2887  161.2700 H   0  0  0  0  0  0  0  0  0  0  0  0
  144.1958  134.7578  158.9101 H   0  0  0  0  0  0  0  0  0  0  0  0
  142.1590  134.6608  157.5162 H   0  0  0  0  0  0  0  0  0  0  0  0
  143.9270  137.3939  154.6877 H   0  0  0  0  0  0  0  0  0  0  0  0
  145.9750  137.5167  156.0537 H   0  0  0  0  0  0  0  0  0  0  0  0
  145.8529  135.4379  160.3221 H   0  0  0  0  0  0  0  0  0  0  0  0
  146.6802  134.2562  159.2898 H   0  0  0  0  0  0  0  0  0  0  0  0
  148.7230  134.9510  160.0647 H   0  0  0  0  0  0  0  0  0  0  0  0
  149.4220  135.2656  162.7878 H   0  0  0  0  0  0  0  0  0  0  0  0
  148.3618  136.8728  164.7425 H   0  0  0  0  0  0  0  0  0  0  0  0
  146.4118  138.3148  163.4381 H   0  0  0  0  0  0  0  0  0  0  0  0
  1  2  2  0  0  0  0
  2  3  1  0  0  0  0
  2 18  1  0  0  0  0
  3  4  1  0  0  0  0
  3 35  1  0  0  0  0
  3 36  1  0  0  0  0
  4 16  1  0  0  0  0
  4  5  1  0  0  0  0
  5  6  2  0  0  0  0
  5  7  1  0  0  0  0
  7  8  1  0  0  0  0
  7  9  2  0  0  0  0
  9 10  1  0  0  0  0
  9 37  1  0  0  0  0
 10 11  1  0  0  0  0
 10 16  1  0  0  0  0
 11 15  1  0  0  0  0
 11 12  1  0  0  0  0
 11 38  1  0  0  0  0
 12 13  1  0  0  0  0
 12 39  1  0  0  0  0
 12 40  1  0  0  0  0
 13 14  1  0  0  0  0
 13 41  1  0  0  0  0
 13 42  1  0  0  0  0
 14 15  1  0  0  0  0
 14 43  1  0  0  0  0
 14 44  1  0  0  0  0
 16 17  2  0  0  0  0
 18 29  1  0  0  0  0
 18 19  1  0  0  0  0
 19 20  2  0  0  0  0
 20 21  1  0  0  0  0
 20 28  1  0  0  0  0
 21 27  1  0  0  0  0
 21 22  2  0  0  0  0
 22 23  1  0  0  0  0
 22 45  1  0  0  0  0
 23 24  2  0  0  0  0
 23 46  1  0  0  0  0
 24 25  1  0  0  0  0
 24 26  1  0  0  0  0
 26 27  2  0  0  0  0
 26 47  1  0  0  0  0
 27 48  1  0  0  0  0
 28 29  1  0  0  0  0
 28 49  1  0  0  0  0
 28 50  1  0  0  0  0
 29 30  1  0  0  0  0
 29 51  1  0  0  0  0
 30 34  1  0  0  0  0
 30 31  2  0  0  0  0
 31 32  1  0  0  0  0
 31 52  1  0  0  0  0
 32 33  2  0  0  0  0
 32 53  1  0  0  0  0
 33 34  1  0  0  0  0
 33 54  1  0  0  0  0
M  END
> <s_m_source_file>
AV-unprocessed.smi

> <i_m_source_file_index>
136

> <i_lp_mmshare_version>
43012

> <i_f3d_flags>
0

> <s_epik_input>
bzFbY0hdW2NIXVtjSF1jMVtDQEBIXTJbQ0gyXUMoYzNbY0hdW2NIXWMoQ2wpW2NIXVtjSF0zKT1OTjJDKD1PKVtDSDJdbjRjKD1PKWMoRilbY0hdbihjND1PKVtDQEBIXTVbQ0gyXVtDSDJdW0NIMl1PNQ==

> <s_epik_cmdline>
J2VwaWtfcHl0aG9uJywgJy1waCcsICc3LjAnLCAnLXRuJywgJzgnLCAnLW1hJywgJzIwMCcsICctbWV0YWxfYmluZGluZycsICctaW1hZScsICc8aW5maWxlLm1hZT4nLCAnLW9tYWUnLCAnPG91dGZpbGUubWFlPic=

> <r_lp_tautomer_probability>
1

> <r_epik_Ionization_Penalty>
2.55467e-08

> <r_epik_Ionization_Penalty_Charging>
4.85705e-09

> <r_epik_Ionization_Penalty_Neutral>
2.06897e-08

> <r_epik_State_Penalty>
-0

> <r_epik_Charging_Adjusted_Penalty>
4.85705e-09

> <i_epik_Tot_Q>
0

> <i_epik_Tot_abs_Q>
0

> <r_epik_Metal_State_Penalty>
-0

> <b_epik_Metal_Only>
0

> <s_epik_Chemistry_Notes>
This compound has an imine and may undergo hydrolysis. This compound contains an acetal/aminal-like group ( X-CH(R)-Y where X, Y are N, S, or O) that may be acid/base labile, releasing an aldehyde.

> <s_lp_Force_Field>
OPLS_2005

> <r_lp_Energy>
40.0267

> <b_lp_Chiralities_Consistent>
1

> <s_lp_Variant>
AV-unprocessed.smi:136-3

> <Gold.Version>
5.8.1

> <Gold.Id.Protein>
6NUR|6NUR_protein|mol2

> <Gold.PLP.Fitness>
53.2526

> <Gold.PLP.PLP>
-51.1161

> <Gold.PLP.part.hbond>
-3.1596

> <Gold.PLP.part.metal>
0.0000

> <Gold.PLP.part.buried>
-6.1954

> <Gold.PLP.part.nonpolar>
-42.4956

> <Gold.PLP.part.repulsive>
0.1284

> <Gold.PLP.ligand.clash>
0.0000

> <Gold.PLP.ligand.torsion>
0.4912

> <Gold.PLP.Chemscore.Hbond>
1.0000

> <Gold.PLP.Chemscore.CHOScore>
0.0000

> <Gold.PLP.Chemscore.Metal>
0.0000

> <Gold.Chemscore.Hbonds>
donor molecule, donor type, donor heavy atom, donor atom, acceptor molecule, acceptor atom, score
      P1  H  6896  6907       L1     1  0.88
      P1  H  6934  6947       L1    34  0.91

> <Gold.PLP.Chemscore.Internal.Correction>
0.1188

> <Gold.Rescore>
     Score         DG    S(hbond)    S(metal)    S(lipo)     H(rot)  DE(clash)    DE(int)     intcor
     13.56     -16.64       1.13        0.00     102.55       1.81       0.17       2.91       ----

> <Gold.Chemscore.Fitness>
13.5610

> <Gold.Chemscore.DG>
-16.6438

> <Gold.Chemscore.ZeroCoef>
-5.4800

> <Gold.Chemscore.Hbond>
1.1341

> <Gold.Chemscore.Metal>
0.0000

> <Gold.Chemscore.Lipo>
102.5503

> <Gold.Chemscore.Internal_Hbond>
0.0000

> <Gold.Chemscore.DEClash>
0.1742

> <Gold.Chemscore.DEInternal>
2.9087

> <Gold.Chemscore.Rot>
1.8056

> <Gold.Chemscore.Internal.Correction>
   9.000000E+99

> <Gold.Chemscore.Hbonds>
donor molecule, donor type, donor heavy atom, donor atom, acceptor molecule, acceptor atom, score
      P1  H  6896  6907       L1     1  0.83
      P1  H  6934  6947       L1    34  0.22

> <Gold.Chemscore.Hbond.Weighted>
-3.7877

> <Gold.Chemscore.Metal.Weighted>
-0.0000

> <Gold.Chemscore.Lipo.Weighted>
-11.9984

> <Gold.Chemscore.Internal_Hbond.Weighted>
0.0000

> <Gold.Chemscore.DEClash.Weighted>
0.1742

> <Gold.Chemscore.DEInternal.Weighted>
2.9087

> <Gold.Chemscore.Rot.Weighted>
4.6223

> <Gold.Chemscore.Internal.Correction.Weighted>
   9.000000E+99

> <Gold.Protein.RotatedTorsions>
[ 6907 6896 6895 6894 ] final  -22.27 input  -60.11 | X-H torsion
[ 7974 7965 7964 7962 ] final   62.76 input  175.53 | X-H torsion
[ 8008 7997 7996 7995 ] final   48.67 input   59.86 | X-H torsion
[ 10167 10162 10161 10158 ] final -106.56 input  -65.29 | X-H torsion
[ 10718 10713 10712 10709 ] final  -62.93 input   66.30 | X-H torsion
[ 10763 10752 10751 10750 ] final    2.12 input  -60.55 | X-H torsion
[ 11005 11000 10999 10996 ] final   14.59 input  -57.11 | X-H torsion

> <Gold.Protein.ActiveResidues>
 VAL166  LYS551  ARG553  GLY616  TRP617  ASP618  TYR619  PRO620  LYS621  CYS622 
 ASP623  PHE694  ASN695  SER759  ASP760  ASP761  ALA762  ILE779  LEU786  VAL792 
 PHE793  MET794  SER795  GLU796  ALA797  LYS798  CYS799  TRP800  GLU811  SER814 

> <Gold.Protein.RotatedAtoms>
  151.2210  135.0518  159.8949 H   0  0  0  0  0  0  0  0  0  0  0  0  # atno 6907 bound_to 6896
  152.5415  134.0641  159.8175 H   0  0  0  0  0  0  0  0  0  0  0  0  # atno 6908 bound_to 6896
  151.0807  133.5344  159.2652 H   0  0  0  0  0  0  0  0  0  0  0  0  # atno 6909 bound_to 6896
  145.8697  139.3369  143.0770 H   0  0  0  0  0  0  0  0  0  0  0  0  # atno 7974 bound_to 7965
  155.3895  140.3432  155.4250 H   0  0  0  0  0  0  0  0  0  0  0  0  # atno 8008 bound_to 7997
  156.1565  140.1587  156.8716 H   0  0  0  0  0  0  0  0  0  0  0  0  # atno 8009 bound_to 7997
  154.5100  140.0792  156.7952 H   0  0  0  0  0  0  0  0  0  0  0  0  # atno 8010 bound_to 7997
  140.1864  143.3926  152.1241 H   0  0  0  0  0  0  0  0  0  0  0  0  # atno 10167 bound_to 10162
  156.0823  130.4214  150.1205 H   0  0  0  0  0  0  0  0  0  0  0  0  # atno 10718 bound_to 10713
  153.2996  135.6955  153.7216 H   0  0  0  0  0  0  0  0  0  0  0  0  # atno 10763 bound_to 10752
  153.6135  135.3440  155.2987 H   0  0  0  0  0  0  0  0  0  0  0  0  # atno 10764 bound_to 10752
  154.8547  135.4369  154.2103 H   0  0  0  0  0  0  0  0  0  0  0  0  # atno 10765 bound_to 10752
  140.4678  134.1061  155.7727 H   0  0  0  0  0  0  0  0  0  0  0  0  # atno 11005 bound_to 11000
  145.9151  140.9153  143.0434 LP  0  0  0  0  0  0  0  0  0  0  0  0  # atno 17320 bound_to 7965
  144.6726  140.1213  143.7449 LP  0  0  0  0  0  0  0  0  0  0  0  0  # atno 17321 bound_to 7965
  139.5274  144.7119  151.5179 LP  0  0  0  0  0  0  0  0  0  0  0  0  # atno 17342 bound_to 10162
  140.6485  143.8745  150.6761 LP  0  0  0  0  0  0  0  0  0  0  0  0  # atno 17343 bound_to 10162
  156.9233  130.9690  151.3545 LP  0  0  0  0  0  0  0  0  0  0  0  0  # atno 17370 bound_to 10713
  157.5945  130.8467  149.8708 LP  0  0  0  0  0  0  0  0  0  0  0  0  # atno 17371 bound_to 10713
  141.1591  133.8827  157.1897 LP  0  0  0  0  0  0  0  0  0  0  0  0  # atno 17394 bound_to 11000
  139.9904  135.0066  156.9962 LP  0  0  0  0  0  0  0  0  0  0  0  0  # atno 17395 bound_to 11000

$$$$
