AV-unprocessed.smi:44|AV-procd|sdf|403|dock1
  -GOLD-   2262016253D 1   1.00000     0.00000
 Structure written by MMmdl.
 28 30  0  0  0  0  0  0  0  0  2 V2000
  152.3092  139.5586  158.7157 O   0  0  0  0  0  0  0  0  0  0  0  0
  152.0522  139.5883  157.5138 C   0  0  0  0  0  0  0  0  0  0  0  0
  152.7915  138.9823  156.5307 N   0  5  0  0  0  0  0  0  0  0  0  0
  152.3925  139.0938  155.2003 C   0  0  0  0  0  0  0  0  0  0  0  0
  151.3657  139.7207  154.7355 N   0  0  0  0  0  0  0  0  0  0  0  0
  150.6029  140.3374  155.7054 C   0  0  0  0  0  0  0  0  0  0  0  0
  150.8468  140.3332  157.0522 C   0  0  0  0  0  0  0  0  0  0  0  0
  149.8802  141.0560  157.7402 N   0  0  0  0  0  0  0  0  0  0  0  0
  149.0843  141.4676  156.7530 C   0  0  0  0  0  0  0  0  0  0  0  0
  149.4417  141.0744  155.5117 N   0  0  0  0  0  0  0  0  0  0  0  0
  148.7670  141.3646  154.2060 C   0  0  1  0  0  0  0  0  0  0  0  0
  148.0955  140.0947  153.6817 C   0  0  0  0  0  0  0  0  0  0  0  0
  146.7421  140.1798  154.3506 C   0  0  0  0  0  0  0  0  0  0  0  0
  146.4623  141.6806  154.2722 C   0  0  1  0  0  0  0  0  0  0  0  0
  145.4762  142.1743  155.3415 C   0  0  0  0  0  0  0  0  0  0  0  0
  144.1936  141.6370  155.1022 O   0  0  0  0  0  0  0  0  0  0  0  0
  147.7443  142.2918  154.4364 O   0  0  0  0  0  0  0  0  0  0  0  0
  149.5572  141.7598  153.5667 H   0  0  0  0  0  0  0  0  0  0  0  0
  146.0940  141.9113  153.2707 H   0  0  0  0  0  0  0  0  0  0  0  0
  153.0723  138.5653  154.5273 H   0  0  0  0  0  0  0  0  0  0  0  0
  148.2139  142.0751  156.9458 H   0  0  0  0  0  0  0  0  0  0  0  0
  147.9974  140.1704  152.5980 H   0  0  0  0  0  0  0  0  0  0  0  0
  148.6592  139.1935  153.9261 H   0  0  0  0  0  0  0  0  0  0  0  0
  145.9810  139.5788  153.8525 H   0  0  0  0  0  0  0  0  0  0  0  0
  146.8130  139.8498  155.3883 H   0  0  0  0  0  0  0  0  0  0  0  0
  145.7933  141.8322  156.3272 H   0  0  0  0  0  0  0  0  0  0  0  0
  145.4319  143.2625  155.3769 H   0  0  0  0  0  0  0  0  0  0  0  0
  144.1335  141.3963  154.1904 H   0  0  0  0  0  0  0  0  0  0  0  0
  1  2  2  0  0  0  0
  2  7  1  0  0  0  0
  2  3  1  0  0  0  0
  3  4  1  0  0  0  0
  4  5  2  0  0  0  0
  4 20  1  0  0  0  0
  5  6  1  0  0  0  0
  6 10  1  0  0  0  0
  6  7  2  0  0  0  0
  7  8  1  0  0  0  0
  8  9  2  0  0  0  0
  9 10  1  0  0  0  0
  9 21  1  0  0  0  0
 10 11  1  0  0  0  0
 11 18  1  0  0  0  0
 11 17  1  0  0  0  0
 11 12  1  0  0  0  0
 12 13  1  0  0  0  0
 12 22  1  0  0  0  0
 12 23  1  0  0  0  0
 13 14  1  0  0  0  0
 13 24  1  0  0  0  0
 13 25  1  0  0  0  0
 14 19  1  0  0  0  0
 14 15  1  0  0  0  0
 14 17  1  0  0  0  0
 15 16  1  0  0  0  0
 15 26  1  0  0  0  0
 15 27  1  0  0  0  0
 16 28  1  0  0  0  0
M  CHG  1   3  -1
M  END
> <s_m_source_file>
AV-unprocessed.smi

> <i_m_source_file_index>
44

> <i_lp_mmshare_version>
43012

> <i_f3d_flags>
0

> <s_epik_input>
bjFbY0hdW25IXWMoPU8pYyhjMTIpbltjSF1uMltDQEhdM1tDSDJdW0NIMl1bQ0BIXShPMylbQ0gyXVtPSF0=

> <s_epik_cmdline>
J2VwaWtfcHl0aG9uJywgJy1waCcsICc3LjAnLCAnLXRuJywgJzgnLCAnLW1hJywgJzIwMCcsICctbWV0YWxfYmluZGluZycsICctaW1hZScsICc8aW5maWxlLm1hZT4nLCAnLW9tYWUnLCAnPG91dGZpbGUubWFlPic=

> <r_lp_tautomer_probability>
0.85571

> <r_epik_Ionization_Penalty>
2.55863

> <r_epik_Ionization_Penalty_Charging>
1.36424e-10

> <r_epik_Ionization_Penalty_Neutral>
2.55863

> <r_epik_State_Penalty>
2.63326

> <r_epik_Charging_Adjusted_Penalty>
2.63326

> <i_epik_Tot_Q>
-1

> <i_epik_Tot_abs_Q>
1

> <r_epik_Metal_State_Penalty>
0.475154

> <b_epik_Metal_Only>
1

> <s_epik_Chemistry_Notes>
This compound contains an acetal/aminal-like group ( X-CH(R)-Y where X, Y are N, S, or O) that may be acid/base labile, releasing an aldehyde.

> <s_lp_Force_Field>
OPLS_2005

> <r_lp_Energy>
44.8595

> <b_lp_Chiralities_Consistent>
1

> <s_lp_Variant>
AV-unprocessed.smi:44-9

> <Gold.Version>
5.8.1

> <Gold.Id.Protein>
6NUR|6NUR_protein|mol2

> <Gold.PLP.Fitness>
40.4118

> <Gold.PLP.PLP>
-26.9799

> <Gold.PLP.part.hbond>
-3.4922

> <Gold.PLP.part.metal>
0.0000

> <Gold.PLP.part.buried>
-0.7018

> <Gold.PLP.part.nonpolar>
-23.3480

> <Gold.PLP.part.repulsive>
0.9899

> <Gold.PLP.ligand.clash>
0.0000

> <Gold.PLP.ligand.torsion>
0.2130

> <Gold.PLP.Chemscore.Hbond>
4.0000

> <Gold.PLP.Chemscore.CHOScore>
0.6127

> <Gold.PLP.Chemscore.Metal>
0.0000

> <Gold.Chemscore.Hbonds>
donor molecule, donor type, donor heavy atom, donor atom, acceptor molecule, acceptor atom, score
      L1  H    16    28       P1 10175  1.00
      P1  H  7989  7998       L1     5  1.00
      P1  H  7997  8008       L1     3  2.00

> <Gold.PLP.Chemscore.Internal.Correction>
0.0199

> <Gold.Rescore>
     Score         DG    S(hbond)    S(metal)    S(lipo)     H(rot)  DE(clash)    DE(int)     intcor
      9.97     -10.48       2.39        0.00      24.08       2.26       0.24       0.27       ----

> <Gold.Chemscore.Fitness>
9.9651

> <Gold.Chemscore.DG>
-10.4821

> <Gold.Chemscore.ZeroCoef>
-5.4800

> <Gold.Chemscore.Hbond>
2.3853

> <Gold.Chemscore.Metal>
0.0000

> <Gold.Chemscore.Lipo>
24.0827

> <Gold.Chemscore.Internal_Hbond>
0.0000

> <Gold.Chemscore.DEClash>
0.2423

> <Gold.Chemscore.DEInternal>
0.2746

> <Gold.Chemscore.Rot>
2.2588

> <Gold.Chemscore.Internal.Correction>
   9.000000E+99

> <Gold.Chemscore.Hbonds>
donor molecule, donor type, donor heavy atom, donor atom, acceptor molecule, acceptor atom, score
      L1  H    16    28       P1 10175  0.34
      P1  H  7989  7998       L1     5  0.62
      P1  H  7997  8008       L1     3  0.09

> <Gold.Chemscore.Hbond.Weighted>
-7.9669

> <Gold.Chemscore.Metal.Weighted>
-0.0000

> <Gold.Chemscore.Lipo.Weighted>
-2.8177

> <Gold.Chemscore.Internal_Hbond.Weighted>
0.0000

> <Gold.Chemscore.DEClash.Weighted>
0.2423

> <Gold.Chemscore.DEInternal.Weighted>
0.2746

> <Gold.Chemscore.Rot.Weighted>
5.7825

> <Gold.Chemscore.Internal.Correction.Weighted>
   9.000000E+99

> <Gold.Protein.RotatedTorsions>
[ 6907 6896 6895 6894 ] final   90.22 input  -60.11 | X-H torsion
[ 7974 7965 7964 7962 ] final  142.06 input  175.53 | X-H torsion
[ 8008 7997 7996 7995 ] final  -57.74 input   59.86 | X-H torsion
[ 10167 10162 10161 10158 ] final  -99.18 input  -65.29 | X-H torsion
[ 10718 10713 10712 10709 ] final -115.04 input   66.30 | X-H torsion
[ 10763 10752 10751 10750 ] final  -20.87 input  -60.55 | X-H torsion
[ 11005 11000 10999 10996 ] final   97.82 input  -57.11 | X-H torsion

> <Gold.Protein.ActiveResidues>
 VAL166  LYS551  ARG553  GLY616  TRP617  ASP618  TYR619  PRO620  LYS621  CYS622 
 ASP623  PHE694  ASN695  SER759  ASP760  ASP761  ALA762  ILE779  LEU786  VAL792 
 PHE793  MET794  SER795  GLU796  ALA797  LYS798  CYS799  TRP800  GLU811  SER814 

> <Gold.Protein.RotatedAtoms>
  152.5443  134.1845  159.8648 H   0  0  0  0  0  0  0  0  0  0  0  0  # atno 6907 bound_to 6896
  151.1845  133.4698  159.2602 H   0  0  0  0  0  0  0  0  0  0  0  0  # atno 6908 bound_to 6896
  151.1145  135.0057  159.8565 H   0  0  0  0  0  0  0  0  0  0  0  0  # atno 6909 bound_to 6896
  144.9041  139.5382  143.5740 H   0  0  0  0  0  0  0  0  0  0  0  0  # atno 7974 bound_to 7965
  154.4280  140.1100  156.5845 H   0  0  0  0  0  0  0  0  0  0  0  0  # atno 8008 bound_to 7997
  155.6077  140.3494  155.4594 H   0  0  0  0  0  0  0  0  0  0  0  0  # atno 8009 bound_to 7997
  156.0124  140.1222  157.0430 H   0  0  0  0  0  0  0  0  0  0  0  0  # atno 8010 bound_to 7997
  140.2652  143.3381  152.0587 H   0  0  0  0  0  0  0  0  0  0  0  0  # atno 10167 bound_to 10162
  156.0869  130.6059  150.8854 H   0  0  0  0  0  0  0  0  0  0  0  0  # atno 10718 bound_to 10713
  153.6273  135.6990  153.5288 H   0  0  0  0  0  0  0  0  0  0  0  0  # atno 10763 bound_to 10752
  153.2888  135.4163  155.1147 H   0  0  0  0  0  0  0  0  0  0  0  0  # atno 10764 bound_to 10752
  154.8530  135.3620  154.5815 H   0  0  0  0  0  0  0  0  0  0  0  0  # atno 10765 bound_to 10752
  139.8774  134.9019  156.4364 H   0  0  0  0  0  0  0  0  0  0  0  0  # atno 11005 bound_to 11000
  146.3124  139.7795  142.9009 LP  0  0  0  0  0  0  0  0  0  0  0  0  # atno 17320 bound_to 7965
  145.3566  141.0318  143.3308 LP  0  0  0  0  0  0  0  0  0  0  0  0  # atno 17321 bound_to 7965
  139.5005  144.6693  151.6282 LP  0  0  0  0  0  0  0  0  0  0  0  0  # atno 17342 bound_to 10162
  140.5934  143.9739  150.6339 LP  0  0  0  0  0  0  0  0  0  0  0  0  # atno 17343 bound_to 10162
  157.6007  131.0941  150.8965 LP  0  0  0  0  0  0  0  0  0  0  0  0  # atno 17370 bound_to 10713
  156.9123  130.5285  149.5280 LP  0  0  0  0  0  0  0  0  0  0  0  0  # atno 17371 bound_to 10713
  140.9030  133.7766  155.9702 LP  0  0  0  0  0  0  0  0  0  0  0  0  # atno 17394 bound_to 11000
  140.8630  134.2818  157.5226 LP  0  0  0  0  0  0  0  0  0  0  0  0  # atno 17395 bound_to 11000

$$$$
