AV-unprocessed.smi:2683|AV-procd|sdf|10376|dock1
  -GOLD-   2272014403D 1   1.00000     0.00000
 Structure written by MMmdl.
 37 38  0  0  0  0  0  0  0  0  2 V2000
  148.9567  141.0196  156.6993 C   0  0  0  0  0  0  0  0  0  0  0  0
  150.3373  141.5576  156.2996 C   0  0  2  0  0  0  0  0  0  0  0  0
  151.4155  140.4652  156.4577 C   0  0  0  0  0  0  0  0  0  0  0  0
  151.0278  139.1986  155.8639 N   0  0  0  0  0  0  0  0  0  0  0  0
  150.9203  137.9644  156.4697 C   0  0  0  0  0  0  0  0  0  0  0  0
  150.5154  137.0776  155.5137 C   0  0  0  0  0  0  0  0  0  0  0  0
  150.4039  137.8730  154.3390 C   0  0  0  0  0  0  0  0  0  0  0  0
  150.7099  139.1428  154.5522 N   0  0  0  0  0  0  0  0  0  0  0  0
  150.6555  142.7474  157.1213 N   0  3  0  0  0  0  0  0  0  0  0  0
  152.0246  143.2773  156.9517 C   0  0  0  0  0  0  0  0  0  0  0  0
  152.6073  143.7464  158.2938 C   0  0  0  0  0  0  0  0  0  0  0  0
  152.6258  142.6682  159.3839 C   0  0  0  0  0  0  0  0  0  0  0  0
  152.6664  143.4278  160.7166 C   0  0  0  0  0  0  0  0  0  0  0  0
  152.2579  144.8752  160.4042 C   0  0  0  0  0  0  0  0  0  0  0  0
  151.8096  144.8795  158.9412 C   0  0  0  0  0  0  0  0  0  0  0  0
  148.6790  140.1597  156.0890 H   0  0  0  0  0  0  0  0  0  0  0  0
  148.1848  141.7784  156.5656 H   0  0  0  0  0  0  0  0  0  0  0  0
  148.9384  140.7054  157.7436 H   0  0  0  0  0  0  0  0  0  0  0  0
  150.2793  141.8487  155.2490 H   0  0  0  0  0  0  0  0  0  0  0  0
  152.3602  140.7902  156.0180 H   0  0  0  0  0  0  0  0  0  0  0  0
  151.6137  140.2880  157.5157 H   0  0  0  0  0  0  0  0  0  0  0  0
  151.1366  137.8217  157.5186 H   0  0  0  0  0  0  0  0  0  0  0  0
  150.3295  136.0205  155.6339 H   0  0  0  0  0  0  0  0  0  0  0  0
  150.1107  137.5679  153.3453 H   0  0  0  0  0  0  0  0  0  0  0  0
  150.0121  143.4843  156.8705 H   0  0  0  0  0  0  0  0  0  0  0  0
  152.6632  142.5001  156.5323 H   0  0  0  0  0  0  0  0  0  0  0  0
  152.0114  144.0982  156.2334 H   0  0  0  0  0  0  0  0  0  0  0  0
  153.6273  144.1030  158.1374 H   0  0  0  0  0  0  0  0  0  0  0  0
  151.7111  142.0753  159.3373 H   0  0  0  0  0  0  0  0  0  0  0  0
  153.4663  141.9820  159.2743 H   0  0  0  0  0  0  0  0  0  0  0  0
  151.9928  142.9709  161.4425 H   0  0  0  0  0  0  0  0  0  0  0  0
  153.6692  143.4045  161.1448 H   0  0  0  0  0  0  0  0  0  0  0  0
  151.4748  145.2379  161.0707 H   0  0  0  0  0  0  0  0  0  0  0  0
  153.1206  145.5313  160.5266 H   0  0  0  0  0  0  0  0  0  0  0  0
  151.9783  145.8417  158.4569 H   0  0  0  0  0  0  0  0  0  0  0  0
  150.7414  144.6635  158.8870 H   0  0  0  0  0  0  0  0  0  0  0  0
  150.5110  142.5135  158.0936 H   0  0  0  0  0  0  0  0  0  0  0  0
  1  2  1  0  0  0  0
  1 16  1  0  0  0  0
  1 17  1  0  0  0  0
  1 18  1  0  0  0  0
  2  3  1  0  0  0  0
  2  9  1  0  0  0  0
  2 19  1  0  0  0  0
  3  4  1  0  0  0  0
  3 20  1  0  0  0  0
  3 21  1  0  0  0  0
  4  8  1  0  0  0  0
  4  5  1  0  0  0  0
  5  6  2  0  0  0  0
  5 22  1  0  0  0  0
  6  7  1  0  0  0  0
  6 23  1  0  0  0  0
  7  8  2  0  0  0  0
  7 24  1  0  0  0  0
  9 10  1  0  0  0  0
  9 25  1  0  0  0  0
  9 37  1  0  0  0  0
 10 11  1  0  0  0  0
 10 26  1  0  0  0  0
 10 27  1  0  0  0  0
 11 15  1  0  0  0  0
 11 12  1  0  0  0  0
 11 28  1  0  0  0  0
 12 13  1  0  0  0  0
 12 29  1  0  0  0  0
 12 30  1  0  0  0  0
 13 14  1  0  0  0  0
 13 31  1  0  0  0  0
 13 32  1  0  0  0  0
 14 15  1  0  0  0  0
 14 33  1  0  0  0  0
 14 34  1  0  0  0  0
 15 35  1  0  0  0  0
 15 36  1  0  0  0  0
M  CHG  1   9   1
M  END
> <s_m_source_file>
AV-unprocessed.smi

> <i_m_source_file_index>
2683

> <i_lp_mmshare_version>
43012

> <i_f3d_flags>
0

> <s_epik_input>
bjFbY0hdW2NIXVtjSF1uMVtDSDJdW0NAQEhdKFtDSDNdKVtOSF1bQ0gyXVtDSF0yW0NIMl1bQ0gyXVtDSDJdW0NIMl0y

> <s_epik_cmdline>
J2VwaWtfcHl0aG9uJywgJy1waCcsICc3LjAnLCAnLXRuJywgJzgnLCAnLW1hJywgJzIwMCcsICctbWV0YWxfYmluZGluZycsICctaW1hZScsICc8aW5maWxlLm1hZT4nLCAnLW9tYWUnLCAnPG91dGZpbGUubWFlPic=

> <r_lp_tautomer_probability>
1

> <r_epik_Ionization_Penalty>
0.00170049

> <r_epik_Ionization_Penalty_Charging>
0.00169627

> <r_epik_Ionization_Penalty_Neutral>
4.21324e-06

> <r_epik_State_Penalty>
0.00114589

> <r_epik_Charging_Adjusted_Penalty>
0.00284216

> <i_epik_Tot_Q>
1

> <i_epik_Tot_abs_Q>
1

> <r_epik_Metal_State_Penalty>
-0

> <b_epik_Metal_Only>
0

> <s_lp_Force_Field>
OPLS_2005

> <r_lp_Energy>
26.6693

> <b_lp_Chiralities_Consistent>
1

> <s_lp_Variant>
AV-unprocessed.smi:2683-1

> <Gold.Version>
5.8.1

> <Gold.Id.Protein>
6NUR|6NUR_protein|mol2

> <Gold.PLP.Fitness>
49.7099

> <Gold.PLP.PLP>
-38.1506

> <Gold.PLP.part.hbond>
-2.0000

> <Gold.PLP.part.metal>
0.0000

> <Gold.PLP.part.buried>
-5.5830

> <Gold.PLP.part.nonpolar>
-30.3084

> <Gold.PLP.part.repulsive>
0.1482

> <Gold.PLP.ligand.clash>
0.0000

> <Gold.PLP.ligand.torsion>
0.3752

> <Gold.PLP.Chemscore.Hbond>
3.0000

> <Gold.PLP.Chemscore.CHOScore>
1.0801

> <Gold.PLP.Chemscore.Metal>
0.0000

> <Gold.Chemscore.Hbonds>
donor molecule, donor type, donor heavy atom, donor atom, acceptor molecule, acceptor atom, score
      L1  H     9    25       P1  8028  1.89
      P1  H  7989  7998       L1     8  0.54
      L1  C     7    24       P1  7948  1.00
      L1  C     7    24       P1  7949  0.09

> <Gold.PLP.Chemscore.Internal.Correction>
0.0695

> <Gold.Rescore>
     Score         DG    S(hbond)    S(metal)    S(lipo)     H(rot)  DE(clash)    DE(int)     intcor
     19.91     -20.61       1.96        0.00     107.29       1.55       0.11       0.58       ----

> <Gold.Chemscore.Fitness>
19.9131

> <Gold.Chemscore.DG>
-20.6089

> <Gold.Chemscore.ZeroCoef>
-5.4800

> <Gold.Chemscore.Hbond>
1.9625

> <Gold.Chemscore.Metal>
0.0000

> <Gold.Chemscore.Lipo>
107.2910

> <Gold.Chemscore.Internal_Hbond>
0.0000

> <Gold.Chemscore.DEClash>
0.1125

> <Gold.Chemscore.DEInternal>
0.5833

> <Gold.Chemscore.Rot>
1.5543

> <Gold.Chemscore.Internal.Correction>
   9.000000E+99

> <Gold.Chemscore.Hbonds>
donor molecule, donor type, donor heavy atom, donor atom, acceptor molecule, acceptor atom, score
      L1  H     9    25       P1  8028  0.89
      P1  H  7989  7998       L1     8  0.40

> <Gold.Chemscore.Hbond.Weighted>
-6.5548

> <Gold.Chemscore.Metal.Weighted>
-0.0000

> <Gold.Chemscore.Lipo.Weighted>
-12.5531

> <Gold.Chemscore.Internal_Hbond.Weighted>
0.0000

> <Gold.Chemscore.DEClash.Weighted>
0.1125

> <Gold.Chemscore.DEInternal.Weighted>
0.5833

> <Gold.Chemscore.Rot.Weighted>
3.9789

> <Gold.Chemscore.Internal.Correction.Weighted>
   9.000000E+99

> <Gold.Protein.RotatedTorsions>
[ 6907 6896 6895 6894 ] final  -95.15 input  -60.11 | X-H torsion
[ 7974 7965 7964 7962 ] final  137.94 input  175.53 | X-H torsion
[ 8008 7997 7996 7995 ] final  146.45 input   59.86 | X-H torsion
[ 10167 10162 10161 10158 ] final   52.53 input  -65.29 | X-H torsion
[ 10718 10713 10712 10709 ] final -148.07 input   66.30 | X-H torsion
[ 10763 10752 10751 10750 ] final -110.36 input  -60.55 | X-H torsion
[ 11005 11000 10999 10996 ] final -123.33 input  -57.11 | X-H torsion

> <Gold.Protein.ActiveResidues>
 VAL166  LYS551  ARG553  GLY616  TRP617  ASP618  TYR619  PRO620  LYS621  CYS622 
 ASP623  PHE694  ASN695  SER759  ASP760  ASP761  ALA762  ILE779  LEU786  VAL792 
 PHE793  MET794  SER795  GLU796  ALA797  LYS798  CYS799  TRP800  GLU811  SER814 

> <Gold.Protein.RotatedAtoms>
  150.6957  134.1703  159.4209 H   0  0  0  0  0  0  0  0  0  0  0  0  # atno 6907 bound_to 6896
  151.9681  135.0088  160.0560 H   0  0  0  0  0  0  0  0  0  0  0  0  # atno 6908 bound_to 6896
  152.1867  133.4709  159.5023 H   0  0  0  0  0  0  0  0  0  0  0  0  # atno 6909 bound_to 6896
  144.9420  139.4920  143.5567 H   0  0  0  0  0  0  0  0  0  0  0  0  # atno 7974 bound_to 7965
  156.2855  140.2182  156.5379 H   0  0  0  0  0  0  0  0  0  0  0  0  # atno 8008 bound_to 7997
  154.7394  140.0489  157.0820 H   0  0  0  0  0  0  0  0  0  0  0  0  # atno 8009 bound_to 7997
  155.0250  140.3128  155.4782 H   0  0  0  0  0  0  0  0  0  0  0  0  # atno 8010 bound_to 7997
  140.2504  144.3486  150.6350 H   0  0  0  0  0  0  0  0  0  0  0  0  # atno 10167 bound_to 10162
  156.4155  130.8003  151.2223 H   0  0  0  0  0  0  0  0  0  0  0  0  # atno 10718 bound_to 10713
  154.8243  135.4567  154.0873 H   0  0  0  0  0  0  0  0  0  0  0  0  # atno 10763 bound_to 10752
  153.2200  135.6893  153.8018 H   0  0  0  0  0  0  0  0  0  0  0  0  # atno 10764 bound_to 10752
  153.7439  135.3308  155.3285 H   0  0  0  0  0  0  0  0  0  0  0  0  # atno 10765 bound_to 10752
  140.9927  134.0516  157.3635 H   0  0  0  0  0  0  0  0  0  0  0  0  # atno 11005 bound_to 11000
  146.3289  139.8445  142.8884 LP  0  0  0  0  0  0  0  0  0  0  0  0  # atno 17320 bound_to 7965
  145.2977  141.0185  143.3627 LP  0  0  0  0  0  0  0  0  0  0  0  0  # atno 17321 bound_to 7965
  140.6045  143.2167  151.7007 LP  0  0  0  0  0  0  0  0  0  0  0  0  # atno 17342 bound_to 10162
  139.5048  144.3740  152.0442 LP  0  0  0  0  0  0  0  0  0  0  0  0  # atno 17343 bound_to 10162
  157.7508  131.0244  150.3876 LP  0  0  0  0  0  0  0  0  0  0  0  0  # atno 17370 bound_to 10713
  156.4182  130.3947  149.6843 LP  0  0  0  0  0  0  0  0  0  0  0  0  # atno 17371 bound_to 10713
  139.9000  135.0161  156.7221 LP  0  0  0  0  0  0  0  0  0  0  0  0  # atno 17394 bound_to 11000
  140.7014  133.9303  155.8027 LP  0  0  0  0  0  0  0  0  0  0  0  0  # atno 17395 bound_to 11000

$$$$
