AV-unprocessed.smi:705|AV-procd|sdf|3448|dock6
  -GOLD-   22720 0433D 1   1.00000     0.00000
 Structure written by MMmdl.
 29 30  0  0  0  0  0  0  0  0  2 V2000
  149.7477  138.6654  153.2190 N   0  0  0  0  0  0  0  0  0  0  0  0
  150.4009  138.8088  154.3753 C   0  0  0  0  0  0  0  0  0  0  0  0
  151.0895  137.9159  154.8663 O   0  0  0  0  0  0  0  0  0  0  0  0
  150.2460  140.1425  155.0453 C   0  0  0  0  0  0  0  0  0  0  0  0
  150.8612  140.3983  156.3077 C   0  0  0  0  0  0  0  0  0  0  0  0
  150.5115  141.6871  156.6015 C   0  0  0  0  0  0  0  0  0  0  0  0
  150.8275  142.5523  157.7809 C   0  0  2  0  0  0  0  0  0  0  0  0
  151.5840  143.8313  157.3717 C   0  0  0  0  0  0  0  0  0  0  0  0
  151.9162  144.6867  158.6039 C   0  0  0  0  0  0  0  0  0  0  0  0
  152.6883  143.8655  159.6485 C   0  0  0  0  0  0  0  0  0  0  0  0
  151.9326  142.6486  160.0160 N   0  3  0  0  0  0  0  0  0  0  0  0
  151.6282  141.7849  158.8537 C   0  0  0  0  0  0  0  0  0  0  0  0
  149.7333  142.1213  155.5519 N   0  0  0  0  0  0  0  0  0  0  0  0
  149.5650  141.1892  154.5955 N   0  0  0  0  0  0  0  0  0  0  0  0
  149.3201  143.0399  155.4724 H   0  0  0  0  0  0  0  0  0  0  0  0
  149.8071  137.7945  152.7119 H   0  0  0  0  0  0  0  0  0  0  0  0
  149.1981  139.4319  152.8584 H   0  0  0  0  0  0  0  0  0  0  0  0
  151.4681  139.7358  156.9073 H   0  0  0  0  0  0  0  0  0  0  0  0
  149.8844  142.8618  158.2347 H   0  0  0  0  0  0  0  0  0  0  0  0
  152.5078  143.5694  156.8538 H   0  0  0  0  0  0  0  0  0  0  0  0
  150.9874  144.4123  156.6676 H   0  0  0  0  0  0  0  0  0  0  0  0
  152.5014  145.5572  158.3058 H   0  0  0  0  0  0  0  0  0  0  0  0
  150.9948  145.0694  159.0449 H   0  0  0  0  0  0  0  0  0  0  0  0
  153.6655  143.5776  159.2583 H   0  0  0  0  0  0  0  0  0  0  0  0
  152.8644  144.4611  160.5445 H   0  0  0  0  0  0  0  0  0  0  0  0
  152.4713  142.1178  160.6858 H   0  0  0  0  0  0  0  0  0  0  0  0
  151.0632  140.9190  159.2005 H   0  0  0  0  0  0  0  0  0  0  0  0
  152.5632  141.4074  158.4371 H   0  0  0  0  0  0  0  0  0  0  0  0
  151.0627  142.9282  160.4465 H   0  0  0  0  0  0  0  0  0  0  0  0
  1  2  1  0  0  0  0
  1 16  1  0  0  0  0
  1 17  1  0  0  0  0
  2  3  2  0  0  0  0
  2  4  1  0  0  0  0
  4 14  2  0  0  0  0
  4  5  1  0  0  0  0
  5  6  2  0  0  0  0
  5 18  1  0  0  0  0
  6  7  1  0  0  0  0
  6 13  1  0  0  0  0
  7 12  1  0  0  0  0
  7  8  1  0  0  0  0
  7 19  1  0  0  0  0
  8  9  1  0  0  0  0
  8 20  1  0  0  0  0
  8 21  1  0  0  0  0
  9 10  1  0  0  0  0
  9 22  1  0  0  0  0
  9 23  1  0  0  0  0
 10 11  1  0  0  0  0
 10 24  1  0  0  0  0
 10 25  1  0  0  0  0
 11 12  1  0  0  0  0
 11 26  1  0  0  0  0
 11 29  1  0  0  0  0
 12 27  1  0  0  0  0
 12 28  1  0  0  0  0
 13 15  1  0  0  0  0
 13 14  1  0  0  0  0
M  CHG  1  11   1
M  END
> <s_m_source_file>
AV-unprocessed.smi

> <i_m_source_file_index>
705

> <i_lp_mmshare_version>
43012

> <i_f3d_flags>
0

> <s_epik_input>
W05IMl1DKD1PKWMxW2NIXWMoW25IXW4xKVtDQEBIXTJbQ0gyXVtDSDJdW0NIMl1bTkhdW0NIMl0y

> <s_epik_cmdline>
J2VwaWtfcHl0aG9uJywgJy1waCcsICc3LjAnLCAnLXRuJywgJzgnLCAnLW1hJywgJzIwMCcsICctbWV0YWxfYmluZGluZycsICctaW1hZScsICc8aW5maWxlLm1hZT4nLCAnLW9tYWUnLCAnPG91dGZpbGUubWFlPic=

> <r_lp_tautomer_probability>
0.5

> <r_epik_Ionization_Penalty>
0.000245231

> <r_epik_Ionization_Penalty_Charging>
0.000226378

> <r_epik_Ionization_Penalty_Neutral>
1.88531e-05

> <r_epik_State_Penalty>
0.41068

> <r_epik_Charging_Adjusted_Penalty>
0.410906

> <i_epik_Tot_Q>
1

> <i_epik_Tot_abs_Q>
1

> <r_epik_Metal_State_Penalty>
0.446108

> <b_epik_Metal_Only>
0

> <s_lp_Force_Field>
OPLS_2005

> <r_lp_Energy>
15.347

> <b_lp_Chiralities_Consistent>
1

> <s_lp_Variant>
AV-unprocessed.smi:705-3

> <Gold.Version>
5.8.1

> <Gold.Id.Protein>
6NUR|6NUR_protein|mol2

> <Gold.PLP.Fitness>
39.0078

> <Gold.PLP.PLP>
-31.8249

> <Gold.PLP.part.hbond>
-3.8838

> <Gold.PLP.part.metal>
0.0000

> <Gold.PLP.part.buried>
-2.7174

> <Gold.PLP.part.nonpolar>
-24.7048

> <Gold.PLP.part.repulsive>
0.6734

> <Gold.PLP.ligand.clash>
0.0000

> <Gold.PLP.ligand.torsion>
0.0167

> <Gold.PLP.Chemscore.Hbond>
2.4000

> <Gold.PLP.Chemscore.CHOScore>
0.0000

> <Gold.PLP.Chemscore.Metal>
0.0000

> <Gold.Chemscore.Hbonds>
donor molecule, donor type, donor heavy atom, donor atom, acceptor molecule, acceptor atom, score
      L1  H     1    16       P1  7948  1.00
      L1  H     1    17       P1  7957  0.34
      L1  H    13    15       P1  8028  1.00

> <Gold.PLP.Chemscore.Internal.Correction>
0.0164

> <Gold.Rescore>
     Score         DG    S(hbond)    S(metal)    S(lipo)     H(rot)  DE(clash)    DE(int)     intcor
     19.87     -20.29       2.61        0.00      73.85       1.00       0.33       0.08       ----

> <Gold.Chemscore.Fitness>
19.8682

> <Gold.Chemscore.DG>
-20.2873

> <Gold.Chemscore.ZeroCoef>
-5.4800

> <Gold.Chemscore.Hbond>
2.6130

> <Gold.Chemscore.Metal>
0.0000

> <Gold.Chemscore.Lipo>
73.8461

> <Gold.Chemscore.Internal_Hbond>
0.0000

> <Gold.Chemscore.DEClash>
0.3350

> <Gold.Chemscore.DEInternal>
0.0841

> <Gold.Chemscore.Rot>
1.0000

> <Gold.Chemscore.Internal.Correction>
   9.000000E+99

> <Gold.Chemscore.Hbonds>
donor molecule, donor type, donor heavy atom, donor atom, acceptor molecule, acceptor atom, score
      L1  H     1    16       P1  7948  0.33
      L1  H     1    17       P1  7957  0.34
      L1  H    13    15       P1  8028  1.00

> <Gold.Chemscore.Hbond.Weighted>
-8.7273

> <Gold.Chemscore.Metal.Weighted>
-0.0000

> <Gold.Chemscore.Lipo.Weighted>
-8.6400

> <Gold.Chemscore.Internal_Hbond.Weighted>
0.0000

> <Gold.Chemscore.DEClash.Weighted>
0.3350

> <Gold.Chemscore.DEInternal.Weighted>
0.0841

> <Gold.Chemscore.Rot.Weighted>
2.5600

> <Gold.Chemscore.Internal.Correction.Weighted>
   9.000000E+99

> <Gold.Protein.RotatedTorsions>
[ 6907 6896 6895 6894 ] final  -12.12 input  -60.11 | X-H torsion
[ 7974 7965 7964 7962 ] final -168.43 input  175.53 | X-H torsion
[ 8008 7997 7996 7995 ] final   27.94 input   59.86 | X-H torsion
[ 10167 10162 10161 10158 ] final  -15.66 input  -65.29 | X-H torsion
[ 10718 10713 10712 10709 ] final  175.78 input   66.30 | X-H torsion
[ 10763 10752 10751 10750 ] final -157.42 input  -60.55 | X-H torsion
[ 11005 11000 10999 10996 ] final  103.22 input  -57.11 | X-H torsion

> <Gold.Protein.ActiveResidues>
 VAL166  LYS551  ARG553  GLY616  TRP617  ASP618  TYR619  PRO620  LYS621  CYS622 
 ASP623  PHE694  ASN695  SER759  ASP760  ASP761  ALA762  ILE779  LEU786  VAL792 
 PHE793  MET794  SER795  GLU796  ALA797  LYS798  CYS799  TRP800  GLU811  SER814 

> <Gold.Protein.RotatedAtoms>
  151.3755  135.0930  159.9478 H   0  0  0  0  0  0  0  0  0  0  0  0  # atno 6907 bound_to 6896
  152.5123  133.9123  159.7504 H   0  0  0  0  0  0  0  0  0  0  0  0  # atno 6908 bound_to 6896
  150.9546  133.6457  159.2794 H   0  0  0  0  0  0  0  0  0  0  0  0  # atno 6909 bound_to 6896
  144.7203  140.2371  143.6296 H   0  0  0  0  0  0  0  0  0  0  0  0  # atno 7974 bound_to 7965
  155.0508  140.3179  155.4693 H   0  0  0  0  0  0  0  0  0  0  0  0  # atno 8008 bound_to 7997
  156.2835  140.2146  156.5577 H   0  0  0  0  0  0  0  0  0  0  0  0  # atno 8009 bound_to 7997
  154.7212  140.0489  157.0629 H   0  0  0  0  0  0  0  0  0  0  0  0  # atno 8010 bound_to 7997
  140.7222  143.5195  150.9650 H   0  0  0  0  0  0  0  0  0  0  0  0  # atno 10167 bound_to 10162
  156.9298  130.9967  151.2989 H   0  0  0  0  0  0  0  0  0  0  0  0  # atno 10718 bound_to 10713
  154.7637  135.3125  154.8327 H   0  0  0  0  0  0  0  0  0  0  0  0  # atno 10763 bound_to 10752
  153.9081  135.6808  153.4756 H   0  0  0  0  0  0  0  0  0  0  0  0  # atno 10764 bound_to 10752
  153.1241  135.4809  154.9176 H   0  0  0  0  0  0  0  0  0  0  0  0  # atno 10765 bound_to 10752
  139.8782  134.9254  156.5176 H   0  0  0  0  0  0  0  0  0  0  0  0  # atno 11005 bound_to 11000
  145.8355  139.2105  143.1858 LP  0  0  0  0  0  0  0  0  0  0  0  0  # atno 17320 bound_to 7965
  146.0393  140.8181  142.9837 LP  0  0  0  0  0  0  0  0  0  0  0  0  # atno 17321 bound_to 7965
  139.8912  143.6951  152.3145 LP  0  0  0  0  0  0  0  0  0  0  0  0  # atno 17342 bound_to 10162
  139.7267  144.7591  151.0867 LP  0  0  0  0  0  0  0  0  0  0  0  0  # atno 17343 bound_to 10162
  157.5854  130.8406  149.8582 LP  0  0  0  0  0  0  0  0  0  0  0  0  # atno 17370 bound_to 10713
  156.0452  130.3729  150.1334 LP  0  0  0  0  0  0  0  0  0  0  0  0  # atno 17371 bound_to 10713
  140.8474  133.8158  155.9134 LP  0  0  0  0  0  0  0  0  0  0  0  0  # atno 17394 bound_to 11000
  140.9178  134.2180  157.4946 LP  0  0  0  0  0  0  0  0  0  0  0  0  # atno 17395 bound_to 11000

$$$$
