AV-unprocessed.smi:1368|AV-procd|sdf|5577|dock9
  -GOLD-   22720 5173D 1   1.00000     0.00000
 Structure written by MMmdl.
 47 49  0  0  0  0  0  0  0  0  2 V2000
  149.2957  129.4468  153.6514 C   0  0  0  0  0  0  0  0  0  0  0  0
  149.5705  130.9405  153.5069 C   0  0  0  0  0  0  0  0  0  0  0  0
  149.2613  131.5100  152.4613 O   0  0  0  0  0  0  0  0  0  0  0  0
  150.1717  131.5277  154.5585 N   0  0  0  0  0  0  0  0  0  0  0  0
  150.5410  132.8901  154.7312 C   0  0  0  0  0  0  0  0  0  0  0  0
  151.3031  133.2113  155.8721 C   0  0  0  0  0  0  0  0  0  0  0  0
  151.6899  134.5413  156.1229 C   0  0  0  0  0  0  0  0  0  0  0  0
  151.3171  135.5795  155.2462 C   0  0  0  0  0  0  0  0  0  0  0  0
  151.7365  136.8530  155.5674 O   0  0  0  0  0  0  0  0  0  0  0  0
  151.3790  137.9180  154.6962 C   0  0  0  0  0  0  0  0  0  0  0  0
  152.0057  139.2218  155.2152 C   0  0  2  0  0  0  0  0  0  0  0  0
  153.4126  139.0793  155.2010 O   0  0  0  0  0  0  0  0  0  0  0  0
  151.5403  139.5467  156.6490 C   0  0  0  0  0  0  0  0  0  0  0  0
  151.1283  140.9501  156.8171 N   0  0  0  0  0  0  0  0  0  0  0  0
  150.3420  141.7305  156.0223 C   0  0  0  0  0  0  0  0  0  0  0  0
  149.6910  141.3263  154.7424 C   0  0  0  0  0  0  0  0  0  0  0  0
  150.2549  142.9543  156.6156 N   0  3  0  0  0  0  0  0  0  0  0  0
  150.9930  142.9581  157.8001 C   0  0  0  0  0  0  0  0  0  0  0  0
  151.2028  143.9640  158.7385 C   0  0  0  0  0  0  0  0  0  0  0  0
  152.0182  143.6395  159.8424 C   0  0  0  0  0  0  0  0  0  0  0  0
  152.5898  142.3581  159.9812 C   0  0  0  0  0  0  0  0  0  0  0  0
  152.3687  141.3462  159.0238 C   0  0  0  0  0  0  0  0  0  0  0  0
  151.5593  141.6738  157.9359 C   0  0  0  0  0  0  0  0  0  0  0  0
  150.5394  135.2593  154.1059 C   0  0  0  0  0  0  0  0  0  0  0  0
  150.1510  133.9293  153.8533 C   0  0  0  0  0  0  0  0  0  0  0  0
  149.1515  129.1705  154.6967 H   0  0  0  0  0  0  0  0  0  0  0  0
  150.1316  128.8704  153.2545 H   0  0  0  0  0  0  0  0  0  0  0  0
  148.3960  129.1688  153.1015 H   0  0  0  0  0  0  0  0  0  0  0  0
  150.4442  130.9096  155.3090 H   0  0  0  0  0  0  0  0  0  0  0  0
  151.5999  132.4347  156.5619 H   0  0  0  0  0  0  0  0  0  0  0  0
  152.2787  134.7673  156.9999 H   0  0  0  0  0  0  0  0  0  0  0  0
  151.7785  137.6972  153.7048 H   0  0  0  0  0  0  0  0  0  0  0  0
  150.2960  138.0189  154.6043 H   0  0  0  0  0  0  0  0  0  0  0  0
  151.7290  140.0473  154.5583 H   0  0  0  0  0  0  0  0  0  0  0  0
  153.6192  138.1569  155.1833 H   0  0  0  0  0  0  0  0  0  0  0  0
  150.6792  138.9289  156.9068 H   0  0  0  0  0  0  0  0  0  0  0  0
  152.3114  139.3052  157.3809 H   0  0  0  0  0  0  0  0  0  0  0  0
  149.1743  142.1728  154.2897 H   0  0  0  0  0  0  0  0  0  0  0  0
  148.9653  140.5338  154.9252 H   0  0  0  0  0  0  0  0  0  0  0  0
  150.4379  140.9600  154.0381 H   0  0  0  0  0  0  0  0  0  0  0  0
  150.7677  144.9470  158.6330 H   0  0  0  0  0  0  0  0  0  0  0  0
  152.2107  144.3888  160.5968 H   0  0  0  0  0  0  0  0  0  0  0  0
  153.2123  142.1467  160.8384 H   0  0  0  0  0  0  0  0  0  0  0  0
  152.8179  140.3709  159.1376 H   0  0  0  0  0  0  0  0  0  0  0  0
  150.2207  136.0182  153.4079 H   0  0  0  0  0  0  0  0  0  0  0  0
  149.5403  133.7363  152.9854 H   0  0  0  0  0  0  0  0  0  0  0  0
  149.7283  143.7301  156.2352 H   0  0  0  0  0  0  0  0  0  0  0  0
  1  2  1  0  0  0  0
  1 26  1  0  0  0  0
  1 27  1  0  0  0  0
  1 28  1  0  0  0  0
  2  3  2  0  0  0  0
  2  4  1  0  0  0  0
  4  5  1  0  0  0  0
  4 29  1  0  0  0  0
  5 25  1  0  0  0  0
  5  6  2  0  0  0  0
  6  7  1  0  0  0  0
  6 30  1  0  0  0  0
  7  8  2  0  0  0  0
  7 31  1  0  0  0  0
  8  9  1  0  0  0  0
  8 24  1  0  0  0  0
  9 10  1  0  0  0  0
 10 11  1  0  0  0  0
 10 32  1  0  0  0  0
 10 33  1  0  0  0  0
 11 12  1  0  0  0  0
 11 13  1  0  0  0  0
 11 34  1  0  0  0  0
 12 35  1  0  0  0  0
 13 14  1  0  0  0  0
 13 36  1  0  0  0  0
 13 37  1  0  0  0  0
 14 23  1  0  0  0  0
 14 15  1  0  0  0  0
 15 16  1  0  0  0  0
 15 17  2  0  0  0  0
 16 38  1  0  0  0  0
 16 39  1  0  0  0  0
 16 40  1  0  0  0  0
 17 18  1  0  0  0  0
 17 47  1  0  0  0  0
 18 23  2  0  0  0  0
 18 19  1  0  0  0  0
 19 20  2  0  0  0  0
 19 41  1  0  0  0  0
 20 21  1  0  0  0  0
 20 42  1  0  0  0  0
 21 22  2  0  0  0  0
 21 43  1  0  0  0  0
 22 23  1  0  0  0  0
 22 44  1  0  0  0  0
 24 25  2  0  0  0  0
 24 45  1  0  0  0  0
 25 46  1  0  0  0  0
M  CHG  1  17   1
M  END
> <s_m_source_file>
AV-unprocessed.smi

> <i_m_source_file_index>
1368

> <i_lp_mmshare_version>
43012

> <i_f3d_flags>
0

> <s_epik_input>
W0NIM11DKD1PKVtOSF1jMVtjSF1bY0hdYyhbY0hdW2NIXTEpT1tDSDJdW0NASF0oW09IXSlbQ0gyXW4oYyhuMilbQ0gzXSljKGMyMylbY0hdW2NIXVtjSF1bY0hdMw==

> <s_epik_cmdline>
J2VwaWtfcHl0aG9uJywgJy1waCcsICc3LjAnLCAnLXRuJywgJzgnLCAnLW1hJywgJzIwMCcsICctbWV0YWxfYmluZGluZycsICctaW1hZScsICc8aW5maWxlLm1hZT4nLCAnLW9tYWUnLCAnPG91dGZpbGUubWFlPic=

> <r_lp_tautomer_probability>
1

> <r_epik_Ionization_Penalty>
1.00673

> <r_epik_Ionization_Penalty_Charging>
1.00673

> <r_epik_Ionization_Penalty_Neutral>
2.60899e-06

> <r_epik_State_Penalty>
1.05579

> <r_epik_Charging_Adjusted_Penalty>
2.06252

> <i_epik_Tot_Q>
1

> <i_epik_Tot_abs_Q>
1

> <r_epik_Metal_State_Penalty>
1.15682

> <b_epik_Metal_Only>
0

> <s_lp_Force_Field>
OPLS_2005

> <r_lp_Energy>
25.0727

> <b_lp_Chiralities_Consistent>
1

> <s_lp_Variant>
AV-unprocessed.smi:1368-3

> <Gold.Version>
5.8.1

> <Gold.Id.Protein>
6NUR|6NUR_protein|mol2

> <Gold.PLP.Fitness>
56.9637

> <Gold.PLP.PLP>
-49.6212

> <Gold.PLP.part.hbond>
-2.5644

> <Gold.PLP.part.metal>
0.0000

> <Gold.PLP.part.buried>
-4.2897

> <Gold.PLP.part.nonpolar>
-43.0470

> <Gold.PLP.part.repulsive>
0.7158

> <Gold.PLP.ligand.clash>
0.0000

> <Gold.PLP.ligand.torsion>
0.8654

> <Gold.PLP.Chemscore.Hbond>
3.0000

> <Gold.PLP.Chemscore.CHOScore>
0.0000

> <Gold.PLP.Chemscore.Metal>
0.0000

> <Gold.Chemscore.Hbonds>
donor molecule, donor type, donor heavy atom, donor atom, acceptor molecule, acceptor atom, score
      L1  H    17    47       P1  8028  1.43
      P1  H  7997  8010       L1    12  1.00

> <Gold.PLP.Chemscore.Internal.Correction>
0.0733

> <Gold.Rescore>
     Score         DG    S(hbond)    S(metal)    S(lipo)     H(rot)  DE(clash)    DE(int)     intcor
     17.98     -20.11       1.92        0.00     124.35       2.47       0.02       2.11       ----

> <Gold.Chemscore.Fitness>
17.9760

> <Gold.Chemscore.DG>
-20.1101

> <Gold.Chemscore.ZeroCoef>
-5.4800

> <Gold.Chemscore.Hbond>
1.9188

> <Gold.Chemscore.Metal>
0.0000

> <Gold.Chemscore.Lipo>
124.3451

> <Gold.Chemscore.Internal_Hbond>
0.0000

> <Gold.Chemscore.DEClash>
0.0207

> <Gold.Chemscore.DEInternal>
2.1134

> <Gold.Chemscore.Rot>
2.4715

> <Gold.Chemscore.Internal.Correction>
   9.000000E+99

> <Gold.Chemscore.Hbonds>
donor molecule, donor type, donor heavy atom, donor atom, acceptor molecule, acceptor atom, score
      L1  H    17    47       P1  8028  0.71
      P1  H  7997  8010       L1    12  0.97

> <Gold.Chemscore.Hbond.Weighted>
-6.4088

> <Gold.Chemscore.Metal.Weighted>
-0.0000

> <Gold.Chemscore.Lipo.Weighted>
-14.5484

> <Gold.Chemscore.Internal_Hbond.Weighted>
0.0000

> <Gold.Chemscore.DEClash.Weighted>
0.0207

> <Gold.Chemscore.DEInternal.Weighted>
2.1134

> <Gold.Chemscore.Rot.Weighted>
6.3271

> <Gold.Chemscore.Internal.Correction.Weighted>
   9.000000E+99

> <Gold.Protein.RotatedTorsions>
[ 6907 6896 6895 6894 ] final   57.22 input  -60.11 | X-H torsion
[ 7974 7965 7964 7962 ] final   36.79 input  175.53 | X-H torsion
[ 8008 7997 7996 7995 ] final  107.42 input   59.86 | X-H torsion
[ 10167 10162 10161 10158 ] final  107.05 input  -65.29 | X-H torsion
[ 10718 10713 10712 10709 ] final  -20.98 input   66.30 | X-H torsion
[ 10763 10752 10751 10750 ] final   72.69 input  -60.55 | X-H torsion
[ 11005 11000 10999 10996 ] final  128.22 input  -57.11 | X-H torsion

> <Gold.Protein.ActiveResidues>
 VAL166  LYS551  ARG553  GLY616  TRP617  ASP618  TYR619  PRO620  LYS621  CYS622 
 ASP623  PHE694  ASN695  SER759  ASP760  ASP761  ALA762  ILE779  LEU786  VAL792 
 PHE793  MET794  SER795  GLU796  ALA797  LYS798  CYS799  TRP800  GLU811  SER814 

> <Gold.Protein.RotatedAtoms>
  152.3711  134.6733  160.0175 H   0  0  0  0  0  0  0  0  0  0  0  0  # atno 6907 bound_to 6896
  151.7026  133.3306  159.3278 H   0  0  0  0  0  0  0  0  0  0  0  0  # atno 6908 bound_to 6896
  150.7674  134.6538  159.6347 H   0  0  0  0  0  0  0  0  0  0  0  0  # atno 6909 bound_to 6896
  146.1185  139.5973  142.9305 H   0  0  0  0  0  0  0  0  0  0  0  0  # atno 7974 bound_to 7965
  156.1822  140.3095  155.9171 H   0  0  0  0  0  0  0  0  0  0  0  0  # atno 8008 bound_to 7997
  155.3358  140.0463  157.3061 H   0  0  0  0  0  0  0  0  0  0  0  0  # atno 8009 bound_to 7997
  154.5356  140.2245  155.8739 H   0  0  0  0  0  0  0  0  0  0  0  0  # atno 8010 bound_to 7997
  139.6959  144.7101  151.1269 H   0  0  0  0  0  0  0  0  0  0  0  0  # atno 10167 bound_to 10162
  156.5244  130.4640  149.6580 H   0  0  0  0  0  0  0  0  0  0  0  0  # atno 10718 bound_to 10713
  153.0474  135.5090  154.7781 H   0  0  0  0  0  0  0  0  0  0  0  0  # atno 10763 bound_to 10752
  154.6670  135.2947  154.9794 H   0  0  0  0  0  0  0  0  0  0  0  0  # atno 10764 bound_to 10752
  154.0625  135.6689  153.4866 H   0  0  0  0  0  0  0  0  0  0  0  0  # atno 10765 bound_to 10752
  139.9549  134.9615  156.8970 H   0  0  0  0  0  0  0  0  0  0  0  0  # atno 11005 bound_to 11000
  145.5516  141.0413  143.2275 LP  0  0  0  0  0  0  0  0  0  0  0  0  # atno 17320 bound_to 7965
  144.7575  139.7038  143.7248 LP  0  0  0  0  0  0  0  0  0  0  0  0  # atno 17321 bound_to 7965
  140.7696  143.5493  150.9223 LP  0  0  0  0  0  0  0  0  0  0  0  0  # atno 17342 bound_to 10162
  139.9173  143.6648  152.3104 LP  0  0  0  0  0  0  0  0  0  0  0  0  # atno 17343 bound_to 10162
  156.3119  130.7233  151.2128 LP  0  0  0  0  0  0  0  0  0  0  0  0  # atno 17370 bound_to 10713
  157.7432  131.0479  150.4967 LP  0  0  0  0  0  0  0  0  0  0  0  0  # atno 17371 bound_to 10713
  140.5632  134.0514  155.7406 LP  0  0  0  0  0  0  0  0  0  0  0  0  # atno 17394 bound_to 11000
  141.1219  133.9448  157.2713 LP  0  0  0  0  0  0  0  0  0  0  0  0  # atno 17395 bound_to 11000

$$$$
