AV-unprocessed.smi:1410|AV-procd|sdf|5737|dock2
  -GOLD-   22720 5373D 1   1.00000     0.00000
 Structure written by MMmdl.
 40 41  0  0  0  0  0  0  0  0  4 V2000
  142.3232  132.1516  148.0397 N   0  5  0  0  0  0  0  0  0  0  0  0
  143.4718  132.7433  148.4196 C   0  0  0  0  0  0  0  0  0  0  0  0
  144.1549  133.5440  147.7845 O   0  0  0  0  0  0  0  0  0  0  0  0
  143.9293  132.2948  149.8117 C   0  0  0  0  0  0  0  0  0  0  0  0
  144.8203  133.3185  150.4128 N   0  3  2  0  0  0  0  0  0  0  0  0
  145.3889  132.9023  151.7231 C   0  0  0  0  0  0  0  0  0  0  0  0
  146.4078  133.9324  152.2368 C   0  0  0  0  0  0  0  0  0  0  0  0
  145.7763  135.3290  152.3466 C   0  0  1  0  0  0  0  0  0  0  0  0
  146.7867  136.2978  152.7621 N   0  0  0  0  0  0  0  0  0  0  0  0
  146.5381  137.5632  153.1289 C   0  0  0  0  0  0  0  0  0  0  0  0
  145.4122  138.0605  153.1307 O   0  0  0  0  0  0  0  0  0  0  0  0
  147.6702  138.2044  153.4677 N   0  0  0  0  0  0  0  0  0  0  0  0
  147.8234  139.5348  153.9448 C   0  0  0  0  0  0  0  0  0  0  0  0
  149.0174  139.8513  154.6302 C   0  0  0  0  0  0  0  0  0  0  0  0
  149.2045  141.1539  155.1362 C   0  0  0  0  0  0  0  0  0  0  0  0
  148.2400  142.0843  154.9717 N   0  3  0  0  0  0  0  0  0  0  0  0
  147.0764  141.8251  154.3375 C   0  0  0  0  0  0  0  0  0  0  0  0
  146.8325  140.5406  153.8102 C   0  0  0  0  0  0  0  0  0  0  0  0
  145.1592  135.7225  150.9922 C   0  0  0  0  0  0  0  0  0  0  0  0
  144.1713  134.6514  150.4990 C   0  0  0  0  0  0  0  0  0  0  0  0
  141.8329  131.5494  148.7123 H   0  0  0  0  0  0  0  0  0  0  0  0
  143.0292  132.1817  150.4175 H   0  0  0  0  0  0  0  0  0  0  0  0
  144.4205  131.3192  149.8025 H   0  0  0  0  0  0  0  0  0  0  0  0
  144.5825  132.7779  152.4476 H   0  0  0  0  0  0  0  0  0  0  0  0
  145.8811  131.9339  151.6324 H   0  0  0  0  0  0  0  0  0  0  0  0
  146.7912  133.6167  153.2079 H   0  0  0  0  0  0  0  0  0  0  0  0
  147.2638  133.9614  151.5605 H   0  0  0  0  0  0  0  0  0  0  0  0
  144.9867  135.2879  153.0995 H   0  0  0  0  0  0  0  0  0  0  0  0
  147.7429  135.9743  152.7837 H   0  0  0  0  0  0  0  0  0  0  0  0
  148.5294  137.6940  153.3248 H   0  0  0  0  0  0  0  0  0  0  0  0
  149.7890  139.1069  154.7646 H   0  0  0  0  0  0  0  0  0  0  0  0
  150.0896  141.4762  155.6650 H   0  0  0  0  0  0  0  0  0  0  0  0
  146.3763  142.6456  154.2769 H   0  0  0  0  0  0  0  0  0  0  0  0
  145.8868  140.3496  153.3261 H   0  0  0  0  0  0  0  0  0  0  0  0
  144.6464  136.6815  151.0749 H   0  0  0  0  0  0  0  0  0  0  0  0
  145.9473  135.8564  150.2493 H   0  0  0  0  0  0  0  0  0  0  0  0
  143.7917  134.9410  149.5184 H   0  0  0  0  0  0  0  0  0  0  0  0
  143.3115  134.5949  151.1685 H   0  0  0  0  0  0  0  0  0  0  0  0
  145.5950  133.4172  149.7719 H   0  0  0  0  0  0  0  0  0  0  0  0
  148.3943  143.0207  155.3467 H   0  0  0  0  0  0  0  0  0  0  0  0
  1  2  1  0  0  0  0
  1 21  1  0  0  0  0
  2  3  2  0  0  0  0
  2  4  1  0  0  0  0
  4  5  1  0  0  0  0
  4 22  1  0  0  0  0
  4 23  1  0  0  0  0
  5 20  1  0  0  0  0
  5  6  1  0  0  0  0
  5 39  1  0  0  0  0
  6  7  1  0  0  0  0
  6 24  1  0  0  0  0
  6 25  1  0  0  0  0
  7  8  1  0  0  0  0
  7 26  1  0  0  0  0
  7 27  1  0  0  0  0
  8  9  1  0  0  0  0
  8 19  1  0  0  0  0
  8 28  1  0  0  0  0
  9 10  1  0  0  0  0
  9 29  1  0  0  0  0
 10 11  2  0  0  0  0
 10 12  1  0  0  0  0
 12 13  1  0  0  0  0
 12 30  1  0  0  0  0
 13 18  1  0  0  0  0
 13 14  2  0  0  0  0
 14 15  1  0  0  0  0
 14 31  1  0  0  0  0
 15 16  2  0  0  0  0
 15 32  1  0  0  0  0
 16 17  1  0  0  0  0
 16 40  1  0  0  0  0
 17 18  2  0  0  0  0
 17 33  1  0  0  0  0
 18 34  1  0  0  0  0
 19 20  1  0  0  0  0
 19 35  1  0  0  0  0
 19 36  1  0  0  0  0
 20 37  1  0  0  0  0
 20 38  1  0  0  0  0
M  CHG  1   1  -1
M  CHG  1   5   1
M  CHG  1  16   1
M  END
> <s_m_source_file>
AV-unprocessed.smi

> <i_m_source_file_index>
1410

> <i_lp_mmshare_version>
43012

> <i_f3d_flags>
0

> <s_epik_input>
W05IMl1DKD1PKVtDSDJdTjFbQ0gyXVtDSDJdW0NIXShbQ0gyXVtDSDJdMSlbTkhdQyg9TylbTkhdYzJbY0hdW2NIXW5bY0hdW2NIXTI=

> <s_epik_cmdline>
J2VwaWtfcHl0aG9uJywgJy1waCcsICc3LjAnLCAnLXRuJywgJzgnLCAnLW1hJywgJzIwMCcsICctbWV0YWxfYmluZGluZycsICctaW1hZScsICc8aW5maWxlLm1hZT4nLCAnLW9tYWUnLCAnPG91dGZpbGUubWFlPic=

> <r_epik_Ionization_Penalty>
6.84067

> <r_epik_Ionization_Penalty_Charging>
6.84065

> <r_epik_Ionization_Penalty_Neutral>
1.84563e-05

> <r_epik_State_Penalty>
7.68217

> <r_epik_Charging_Adjusted_Penalty>
14.5228

> <i_epik_Tot_Q>
1

> <i_epik_Tot_abs_Q>
3

> <r_epik_Metal_State_Penalty>
3.74331

> <b_epik_Metal_Only>
1

> <s_lp_Force_Field>
OPLS_2005

> <r_lp_Energy>
19.1226

> <b_lp_Chiralities_Consistent>
1

> <s_lp_Variant>
AV-unprocessed.smi:1410-9

> <Gold.Version>
5.8.1

> <Gold.Id.Protein>
6NUR|6NUR_protein|mol2

> <Gold.PLP.Fitness>
49.9027

> <Gold.PLP.PLP>
-36.3680

> <Gold.PLP.part.hbond>
-7.0361

> <Gold.PLP.part.metal>
0.0000

> <Gold.PLP.part.buried>
-4.6397

> <Gold.PLP.part.nonpolar>
-31.4352

> <Gold.PLP.part.repulsive>
6.3356

> <Gold.PLP.ligand.clash>
0.0000

> <Gold.PLP.ligand.torsion>
0.4998

> <Gold.PLP.Chemscore.Hbond>
4.8326

> <Gold.PLP.Chemscore.CHOScore>
0.0000

> <Gold.PLP.Chemscore.Metal>
0.0000

> <Gold.Chemscore.Hbonds>
donor molecule, donor type, donor heavy atom, donor atom, acceptor molecule, acceptor atom, score
      L1  H     1    21       P1 10952  1.00
      L1  H     9    29       P1  7948  0.66
      L1  H    12    30       P1  7948  0.48
      L1  H    16    40       P1  8028  2.00
      P1  H  7918  7932       L1     3  0.67

> <Gold.PLP.Chemscore.Internal.Correction>
0.0364

> <Gold.Rescore>
     Score         DG    S(hbond)    S(metal)    S(lipo)     H(rot)  DE(clash)    DE(int)     intcor
     17.23     -22.31       4.09        0.00      70.10       1.96       2.17       2.90       ----

> <Gold.Chemscore.Fitness>
17.2296

> <Gold.Chemscore.DG>
-22.3069

> <Gold.Chemscore.ZeroCoef>
-5.4800

> <Gold.Chemscore.Hbond>
4.0855

> <Gold.Chemscore.Metal>
0.0000

> <Gold.Chemscore.Lipo>
70.1034

> <Gold.Chemscore.Internal_Hbond>
0.0000

> <Gold.Chemscore.DEClash>
2.1745

> <Gold.Chemscore.DEInternal>
2.9028

> <Gold.Chemscore.Rot>
1.9612

> <Gold.Chemscore.Internal.Correction>
   9.000000E+99

> <Gold.Chemscore.Hbonds>
donor molecule, donor type, donor heavy atom, donor atom, acceptor molecule, acceptor atom, score
      L1  H     1    21       P1 10952  1.00
      L1  H     9    29       P1  7948  0.62
      L1  H    12    30       P1  7948  0.48
      L1  H    16    40       P1  8028  1.00
      P1  H  7918  7932       L1     3  0.65

> <Gold.Chemscore.Hbond.Weighted>
-13.6455

> <Gold.Chemscore.Metal.Weighted>
-0.0000

> <Gold.Chemscore.Lipo.Weighted>
-8.2021

> <Gold.Chemscore.Internal_Hbond.Weighted>
0.0000

> <Gold.Chemscore.DEClash.Weighted>
2.1745

> <Gold.Chemscore.DEInternal.Weighted>
2.9028

> <Gold.Chemscore.Rot.Weighted>
5.0208

> <Gold.Chemscore.Internal.Correction.Weighted>
   9.000000E+99

> <Gold.Protein.RotatedTorsions>
[ 6907 6896 6895 6894 ] final   11.13 input  -60.11 | X-H torsion
[ 7974 7965 7964 7962 ] final -145.81 input  175.53 | X-H torsion
[ 8008 7997 7996 7995 ] final   55.49 input   59.86 | X-H torsion
[ 10167 10162 10161 10158 ] final  -68.75 input  -65.29 | X-H torsion
[ 10718 10713 10712 10709 ] final -171.21 input   66.30 | X-H torsion
[ 10763 10752 10751 10750 ] final   -8.26 input  -60.55 | X-H torsion
[ 11005 11000 10999 10996 ] final  -18.86 input  -57.11 | X-H torsion

> <Gold.Protein.ActiveResidues>
 VAL166  LYS551  ARG553  GLY616  TRP617  ASP618  TYR619  PRO620  LYS621  CYS622 
 ASP623  PHE694  ASN695  SER759  ASP760  ASP761  ALA762  ILE779  LEU786  VAL792 
 PHE793  MET794  SER795  GLU796  ALA797  LYS798  CYS799  TRP800  GLU811  SER814 

> <Gold.Protein.RotatedAtoms>
  151.7493  135.0836  160.0328 H   0  0  0  0  0  0  0  0  0  0  0  0  # atno 6907 bound_to 6896
  152.3427  133.6082  159.5896 H   0  0  0  0  0  0  0  0  0  0  0  0  # atno 6908 bound_to 6896
  150.7489  133.9613  159.3558 H   0  0  0  0  0  0  0  0  0  0  0  0  # atno 6909 bound_to 6896
  144.8202  140.5536  143.5583 H   0  0  0  0  0  0  0  0  0  0  0  0  # atno 7974 bound_to 7965
  155.5019  140.3474  155.4372 H   0  0  0  0  0  0  0  0  0  0  0  0  # atno 8008 bound_to 7997
  156.0908  140.1410  156.9622 H   0  0  0  0  0  0  0  0  0  0  0  0  # atno 8009 bound_to 7997
  154.4634  140.0926  156.6931 H   0  0  0  0  0  0  0  0  0  0  0  0  # atno 8010 bound_to 7997
  140.5484  143.2312  151.6958 H   0  0  0  0  0  0  0  0  0  0  0  0  # atno 10167 bound_to 10162
  156.7375  130.9330  151.3108 H   0  0  0  0  0  0  0  0  0  0  0  0  # atno 10718 bound_to 10713
  153.4379  135.7013  153.6188 H   0  0  0  0  0  0  0  0  0  0  0  0  # atno 10763 bound_to 10752
  153.4575  135.3744  155.2319 H   0  0  0  0  0  0  0  0  0  0  0  0  # atno 10764 bound_to 10752
  154.8727  135.4012  154.3773 H   0  0  0  0  0  0  0  0  0  0  0  0  # atno 10765 bound_to 10752
  140.8309  133.7997  155.9758 H   0  0  0  0  0  0  0  0  0  0  0  0  # atno 11005 bound_to 11000
  145.5122  139.1479  143.3598 LP  0  0  0  0  0  0  0  0  0  0  0  0  # atno 17320 bound_to 7965
  146.2507  140.5263  142.8894 LP  0  0  0  0  0  0  0  0  0  0  0  0  # atno 17321 bound_to 7965
  139.5017  144.3858  152.0330 LP  0  0  0  0  0  0  0  0  0  0  0  0  # atno 17342 bound_to 10162
  140.2973  144.3687  150.6070 LP  0  0  0  0  0  0  0  0  0  0  0  0  # atno 17343 bound_to 10162
  157.6833  130.9160  150.0321 LP  0  0  0  0  0  0  0  0  0  0  0  0  # atno 17370 bound_to 10713
  156.1487  130.3642  149.9471 LP  0  0  0  0  0  0  0  0  0  0  0  0  # atno 17371 bound_to 10713
  140.8999  134.2392  157.5048 LP  0  0  0  0  0  0  0  0  0  0  0  0  # atno 17394 bound_to 11000
  139.8705  134.9701  156.4691 LP  0  0  0  0  0  0  0  0  0  0  0  0  # atno 17395 bound_to 11000

$$$$
