AV-unprocessed.smi:3028|AV-procd|sdf|11520|dock5
  -GOLD-   2272016463D 1   1.00000     0.00000
 Structure written by MMmdl.
 48 49  0  0  0  0  0  0  0  0  2 V2000
  147.1525  136.0603  156.0607 C   0  0  0  0  0  0  0  0  0  0  0  0
  146.7599  137.3780  155.4571 C   0  0  0  0  0  0  0  0  0  0  0  0
  146.7301  137.7340  154.0790 C   0  0  0  0  0  0  0  0  0  0  0  0
  146.3346  138.9803  153.8790 N   0  0  0  0  0  0  0  0  0  0  0  0
  146.0970  139.4652  155.1181 N   0  0  0  0  0  0  0  0  0  0  0  0
  145.6411  140.8383  155.2945 C   0  0  1  0  0  0  0  0  0  0  0  0
  145.4305  141.1340  156.7924 C   0  0  0  0  0  0  0  0  0  0  0  0
  146.5841  141.8664  154.6139 C   0  0  1  0  0  0  0  0  0  0  0  0
  145.9457  143.2634  154.4651 C   0  0  0  0  0  0  0  0  0  0  0  0
  147.8471  141.9666  155.3797 N   0  3  0  0  0  0  0  0  0  0  0  0
  148.9068  141.0131  154.9852 C   0  0  0  0  0  0  0  0  0  0  0  0
  150.2078  141.2396  155.7679 C   0  0  0  0  0  0  0  0  0  0  0  0
  151.1452  140.4526  155.6446 O   0  0  0  0  0  0  0  0  0  0  0  0
  150.3075  142.3030  156.5832 N   0  0  0  0  0  0  0  0  0  0  0  0
  151.4485  142.6942  157.4087 C   0  0  0  0  0  0  0  0  0  0  0  0
  151.5664  141.7405  158.6074 C   0  0  0  0  0  0  0  0  0  0  0  0
  152.6630  142.2144  159.5751 C   0  0  0  0  0  0  0  0  0  0  0  0
  152.3917  143.5451  160.0013 O   0  0  0  0  0  0  0  0  0  0  0  0
  152.3926  144.4825  158.9302 C   0  0  0  0  0  0  0  0  0  0  0  0
  151.2829  144.1344  157.9242 C   0  0  0  0  0  0  0  0  0  0  0  0
  146.3487  138.5174  156.0886 C   0  0  0  0  0  0  0  0  0  0  0  0
  147.7356  135.4545  155.3668 H   0  0  0  0  0  0  0  0  0  0  0  0
  146.2791  135.4729  156.3446 H   0  0  0  0  0  0  0  0  0  0  0  0
  147.7577  136.1915  156.9578 H   0  0  0  0  0  0  0  0  0  0  0  0
  146.9834  137.1260  153.2230 H   0  0  0  0  0  0  0  0  0  0  0  0
  144.6671  140.9049  154.8069 H   0  0  0  0  0  0  0  0  0  0  0  0
  144.9688  142.1088  156.9491 H   0  0  0  0  0  0  0  0  0  0  0  0
  146.3735  141.1232  157.3404 H   0  0  0  0  0  0  0  0  0  0  0  0
  144.7759  140.3904  157.2481 H   0  0  0  0  0  0  0  0  0  0  0  0
  146.8200  141.4924  153.6160 H   0  0  0  0  0  0  0  0  0  0  0  0
  145.0497  143.2364  153.8453 H   0  0  0  0  0  0  0  0  0  0  0  0
  146.6268  143.9708  153.9929 H   0  0  0  0  0  0  0  0  0  0  0  0
  145.6642  143.6735  155.4356 H   0  0  0  0  0  0  0  0  0  0  0  0
  148.2030  142.9092  155.3096 H   0  0  0  0  0  0  0  0  0  0  0  0
  148.5506  139.9989  155.1694 H   0  0  0  0  0  0  0  0  0  0  0  0
  149.1094  141.1075  153.9191 H   0  0  0  0  0  0  0  0  0  0  0  0
  149.5011  142.9093  156.6359 H   0  0  0  0  0  0  0  0  0  0  0  0
  152.3744  142.6235  156.8369 H   0  0  0  0  0  0  0  0  0  0  0  0
  150.6162  141.6948  159.1418 H   0  0  0  0  0  0  0  0  0  0  0  0
  151.7822  140.7272  158.2667 H   0  0  0  0  0  0  0  0  0  0  0  0
  152.6966  141.5645  160.4496 H   0  0  0  0  0  0  0  0  0  0  0  0
  153.6459  142.1644  159.1042 H   0  0  0  0  0  0  0  0  0  0  0  0
  152.2293  145.4807  159.3366 H   0  0  0  0  0  0  0  0  0  0  0  0
  153.3693  144.4933  158.4438 H   0  0  0  0  0  0  0  0  0  0  0  0
  151.2973  144.8451  157.0979 H   0  0  0  0  0  0  0  0  0  0  0  0
  150.3129  144.2446  158.4115 H   0  0  0  0  0  0  0  0  0  0  0  0
  146.2155  138.7288  157.1394 H   0  0  0  0  0  0  0  0  0  0  0  0
  147.6347  141.7811  156.3496 H   0  0  0  0  0  0  0  0  0  0  0  0
  1  2  1  0  0  0  0
  1 22  1  0  0  0  0
  1 23  1  0  0  0  0
  1 24  1  0  0  0  0
  2 21  2  0  0  0  0
  2  3  1  0  0  0  0
  3  4  2  0  0  0  0
  3 25  1  0  0  0  0
  4  5  1  0  0  0  0
  5  6  1  0  0  0  0
  5 21  1  0  0  0  0
  6  7  1  0  0  0  0
  6  8  1  0  0  0  0
  6 26  1  0  0  0  0
  7 27  1  0  0  0  0
  7 28  1  0  0  0  0
  7 29  1  0  0  0  0
  8  9  1  0  0  0  0
  8 10  1  0  0  0  0
  8 30  1  0  0  0  0
  9 31  1  0  0  0  0
  9 32  1  0  0  0  0
  9 33  1  0  0  0  0
 10 11  1  0  0  0  0
 10 34  1  0  0  0  0
 10 48  1  0  0  0  0
 11 12  1  0  0  0  0
 11 35  1  0  0  0  0
 11 36  1  0  0  0  0
 12 13  2  0  0  0  0
 12 14  1  0  0  0  0
 14 15  1  0  0  0  0
 14 37  1  0  0  0  0
 15 20  1  0  0  0  0
 15 16  1  0  0  0  0
 15 38  1  0  0  0  0
 16 17  1  0  0  0  0
 16 39  1  0  0  0  0
 16 40  1  0  0  0  0
 17 18  1  0  0  0  0
 17 41  1  0  0  0  0
 17 42  1  0  0  0  0
 18 19  1  0  0  0  0
 19 20  1  0  0  0  0
 19 43  1  0  0  0  0
 19 44  1  0  0  0  0
 20 45  1  0  0  0  0
 20 46  1  0  0  0  0
 21 47  1  0  0  0  0
M  CHG  1  10   1
M  END
> <s_m_source_file>
AV-unprocessed.smi

> <i_m_source_file_index>
3028

> <i_lp_mmshare_version>
43012

> <i_f3d_flags>
0

> <s_epik_input>
W0NIM11jMVtjSF1ubihbY0hdMSlbQ0BIXShbQ0gzXSlbQ0BIXShbQ0gzXSlbTkhdW0NIMl1DKD1PKVtOSF1bQ0hdMltDSDJdW0NIMl1PW0NIMl1bQ0gyXTI=

> <s_epik_cmdline>
J2VwaWtfcHl0aG9uJywgJy1waCcsICc3LjAnLCAnLXRuJywgJzgnLCAnLW1hJywgJzIwMCcsICctbWV0YWxfYmluZGluZycsICctaW1hZScsICc8aW5maWxlLm1hZT4nLCAnLW9tYWUnLCAnPG91dGZpbGUubWFlPic=

> <r_lp_tautomer_probability>
1

> <r_epik_Ionization_Penalty>
0.151514

> <r_epik_Ionization_Penalty_Charging>
0.151494

> <r_epik_Ionization_Penalty_Neutral>
1.95502e-05

> <r_epik_State_Penalty>
0.141395

> <r_epik_Charging_Adjusted_Penalty>
0.292889

> <i_epik_Tot_Q>
1

> <i_epik_Tot_abs_Q>
1

> <r_epik_Metal_State_Penalty>
0.141632

> <b_epik_Metal_Only>
0

> <s_lp_Force_Field>
OPLS_2005

> <r_lp_Energy>
16.118

> <b_lp_Chiralities_Consistent>
1

> <s_lp_Variant>
AV-unprocessed.smi:3028-4

> <Gold.Version>
5.8.1

> <Gold.Id.Protein>
6NUR|6NUR_protein|mol2

> <Gold.PLP.Fitness>
47.4825

> <Gold.PLP.PLP>
-34.9891

> <Gold.PLP.part.hbond>
-3.0000

> <Gold.PLP.part.metal>
0.0000

> <Gold.PLP.part.buried>
-5.5080

> <Gold.PLP.part.nonpolar>
-26.4390

> <Gold.PLP.part.repulsive>
0.4455

> <Gold.PLP.ligand.clash>
0.0000

> <Gold.PLP.ligand.torsion>
0.7613

> <Gold.PLP.Chemscore.Hbond>
3.6032

> <Gold.PLP.Chemscore.CHOScore>
1.0000

> <Gold.PLP.Chemscore.Metal>
0.0000

> <Gold.Chemscore.Hbonds>
donor molecule, donor type, donor heavy atom, donor atom, acceptor molecule, acceptor atom, score
      L1  H    10    34       P1  8028  2.00
      L1  H    14    37       P1  8028  0.50
      P1  H  7989  7998       L1    13  0.40
      L1  C     3    25       P1  7948  0.94

> <Gold.PLP.Chemscore.Internal.Correction>
0.2065

> <Gold.Rescore>
     Score         DG    S(hbond)    S(metal)    S(lipo)     H(rot)  DE(clash)    DE(int)     intcor
     15.97     -17.20       1.94        0.00      88.27       1.99       0.42       0.80       ----

> <Gold.Chemscore.Fitness>
15.9716

> <Gold.Chemscore.DG>
-17.1970

> <Gold.Chemscore.ZeroCoef>
-5.4800

> <Gold.Chemscore.Hbond>
1.9410

> <Gold.Chemscore.Metal>
0.0000

> <Gold.Chemscore.Lipo>
88.2714

> <Gold.Chemscore.Internal_Hbond>
0.0000

> <Gold.Chemscore.DEClash>
0.4247

> <Gold.Chemscore.DEInternal>
0.8007

> <Gold.Chemscore.Rot>
1.9897

> <Gold.Chemscore.Internal.Correction>
   9.000000E+99

> <Gold.Chemscore.Hbonds>
donor molecule, donor type, donor heavy atom, donor atom, acceptor molecule, acceptor atom, score
      L1  H    10    34       P1  8028  0.97
      L1  H    14    37       P1  8028  0.51
      P1  H  7989  7998       L1    13  0.08

> <Gold.Chemscore.Hbond.Weighted>
-6.4829

> <Gold.Chemscore.Metal.Weighted>
-0.0000

> <Gold.Chemscore.Lipo.Weighted>
-10.3278

> <Gold.Chemscore.Internal_Hbond.Weighted>
0.0000

> <Gold.Chemscore.DEClash.Weighted>
0.4247

> <Gold.Chemscore.DEInternal.Weighted>
0.8007

> <Gold.Chemscore.Rot.Weighted>
5.0936

> <Gold.Chemscore.Internal.Correction.Weighted>
   9.000000E+99

> <Gold.Protein.RotatedTorsions>
[ 6907 6896 6895 6894 ] final  -14.89 input  -60.11 | X-H torsion
[ 7974 7965 7964 7962 ] final -172.42 input  175.53 | X-H torsion
[ 8008 7997 7996 7995 ] final -140.36 input   59.86 | X-H torsion
[ 10167 10162 10161 10158 ] final  144.66 input  -65.29 | X-H torsion
[ 10718 10713 10712 10709 ] final  -58.32 input   66.30 | X-H torsion
[ 10763 10752 10751 10750 ] final  146.58 input  -60.55 | X-H torsion
[ 11005 11000 10999 10996 ] final   21.93 input  -57.11 | X-H torsion

> <Gold.Protein.ActiveResidues>
 VAL166  LYS551  ARG553  GLY616  TRP617  ASP618  TYR619  PRO620  LYS621  CYS622 
 ASP623  PHE694  ASN695  SER759  ASP760  ASP761  ALA762  ILE779  LEU786  VAL792 
 PHE793  MET794  SER795  GLU796  ALA797  LYS798  CYS799  TRP800  GLU811  SER814 

> <Gold.Protein.RotatedAtoms>
  151.3323  135.0844  159.9342 H   0  0  0  0  0  0  0  0  0  0  0  0  # atno 6907 bound_to 6896
  152.5231  133.9530  159.7691 H   0  0  0  0  0  0  0  0  0  0  0  0  # atno 6908 bound_to 6896
  150.9871  133.6134  159.2743 H   0  0  0  0  0  0  0  0  0  0  0  0  # atno 6909 bound_to 6896
  144.7146  140.1775  143.6361 H   0  0  0  0  0  0  0  0  0  0  0  0  # atno 7974 bound_to 7965
  155.4601  140.0545  157.2992 H   0  0  0  0  0  0  0  0  0  0  0  0  # atno 8008 bound_to 7997
  154.4741  140.2053  155.9876 H   0  0  0  0  0  0  0  0  0  0  0  0  # atno 8009 bound_to 7997
  156.1103  140.3205  155.8068 H   0  0  0  0  0  0  0  0  0  0  0  0  # atno 8010 bound_to 7997
  139.4942  144.5956  151.6589 H   0  0  0  0  0  0  0  0  0  0  0  0  # atno 10167 bound_to 10162
  156.1144  130.4172  150.0561 H   0  0  0  0  0  0  0  0  0  0  0  0  # atno 10718 bound_to 10713
  154.0242  135.2903  155.3377 H   0  0  0  0  0  0  0  0  0  0  0  0  # atno 10763 bound_to 10752
  154.7027  135.5182  153.8553 H   0  0  0  0  0  0  0  0  0  0  0  0  # atno 10764 bound_to 10752
  153.0668  135.6633  154.0461 H   0  0  0  0  0  0  0  0  0  0  0  0  # atno 10765 bound_to 10752
  140.3862  134.1868  155.7663 H   0  0  0  0  0  0  0  0  0  0  0  0  # atno 11005 bound_to 11000
  145.8887  139.2363  143.1562 LP  0  0  0  0  0  0  0  0  0  0  0  0  # atno 17320 bound_to 7965
  145.9925  140.8590  143.0059 LP  0  0  0  0  0  0  0  0  0  0  0  0  # atno 17321 bound_to 7965
  140.5594  144.0294  150.6162 LP  0  0  0  0  0  0  0  0  0  0  0  0  # atno 17342 bound_to 10162
  140.3375  143.3040  152.0623 LP  0  0  0  0  0  0  0  0  0  0  0  0  # atno 17343 bound_to 10162
  156.8516  130.9461  151.3625 LP  0  0  0  0  0  0  0  0  0  0  0  0  # atno 17370 bound_to 10713
  157.6326  130.8741  149.9302 LP  0  0  0  0  0  0  0  0  0  0  0  0  # atno 17371 bound_to 10713
  141.1907  133.8212  157.0909 LP  0  0  0  0  0  0  0  0  0  0  0  0  # atno 17394 bound_to 11000
  140.0441  134.9839  157.1016 LP  0  0  0  0  0  0  0  0  0  0  0  0  # atno 17395 bound_to 11000

$$$$
