AV-unprocessed.smi:1878|AV-procd|sdf|7627|dock4
  -GOLD-   22720 9353D 1   1.00000     0.00000
 Structure written by MMmdl.
 36 37  0  0  0  0  0  0  0  0  2 V2000
  147.1106  140.5640  153.7083 O   0  0  0  0  0  0  0  0  0  0  0  0
  147.8252  139.5770  153.5358 C   0  0  0  0  0  0  0  0  0  0  0  0
  147.5111  138.5719  152.7073 N   0  0  0  0  0  0  0  0  0  0  0  0
  146.2854  138.4856  151.9194 C   0  0  0  0  0  0  0  0  0  0  0  0
  145.3162  137.4298  152.4779 C   0  0  0  0  0  0  0  0  0  0  0  0
  145.2837  136.3853  151.6516 F   0  0  0  0  0  0  0  0  0  0  0  0
  145.7297  137.0141  153.6752 F   0  0  0  0  0  0  0  0  0  0  0  0
  144.0832  137.9244  152.5876 F   0  0  0  0  0  0  0  0  0  0  0  0
  148.9960  139.3488  154.1552 N   0  0  0  0  0  0  0  0  0  0  0  0
  149.6711  140.1686  155.0995 C   0  0  0  0  0  0  0  0  0  0  0  0
  150.3884  139.6680  156.2149 C   0  0  0  0  0  0  0  0  0  0  0  0
  151.0089  140.5704  157.1029 C   0  0  0  0  0  0  0  0  0  0  0  0
  150.8999  141.9615  156.8718 C   0  0  0  0  0  0  0  0  0  0  0  0
  151.4837  142.9374  157.6917 N   0  0  0  0  0  0  0  0  0  0  0  0
  152.1814  142.4101  158.8527 C   0  0  0  0  0  0  0  0  0  0  0  0
  152.3548  143.5963  159.8049 C   0  0  0  0  0  0  0  0  0  0  0  0
  151.2967  144.6149  159.3645 C   0  0  0  0  0  0  0  0  0  0  0  0
  150.5664  143.9446  158.1981 C   0  0  0  0  0  0  0  0  0  0  0  0
  150.1967  142.3964  155.8036 N   0  3  0  0  0  0  0  0  0  0  0  0
  149.5864  141.5665  154.9301 C   0  0  0  0  0  0  0  0  0  0  0  0
  148.1540  137.7977  152.6290 H   0  0  0  0  0  0  0  0  0  0  0  0
  145.7960  139.4594  151.8608 H   0  0  0  0  0  0  0  0  0  0  0  0
  146.5643  138.2228  150.8986 H   0  0  0  0  0  0  0  0  0  0  0  0
  149.4249  138.4529  153.9740 H   0  0  0  0  0  0  0  0  0  0  0  0
  150.4653  138.6109  156.4162 H   0  0  0  0  0  0  0  0  0  0  0  0
  151.5591  140.1911  157.9515 H   0  0  0  0  0  0  0  0  0  0  0  0
  151.5920  141.6272  159.3322 H   0  0  0  0  0  0  0  0  0  0  0  0
  153.1430  141.9805  158.5697 H   0  0  0  0  0  0  0  0  0  0  0  0
  152.2323  143.2945  160.8455 H   0  0  0  0  0  0  0  0  0  0  0  0
  153.3516  144.0263  159.6992 H   0  0  0  0  0  0  0  0  0  0  0  0
  150.6108  144.8777  160.1705 H   0  0  0  0  0  0  0  0  0  0  0  0
  151.7826  145.5326  159.0299 H   0  0  0  0  0  0  0  0  0  0  0  0
  150.3082  144.6650  157.4213 H   0  0  0  0  0  0  0  0  0  0  0  0
  149.6423  143.4849  158.5502 H   0  0  0  0  0  0  0  0  0  0  0  0
  149.0561  142.0468  154.1203 H   0  0  0  0  0  0  0  0  0  0  0  0
  150.1224  143.4025  155.6497 H   0  0  0  0  0  0  0  0  0  0  0  0
  1  2  2  0  0  0  0
  2  3  1  0  0  0  0
  2  9  1  0  0  0  0
  3  4  1  0  0  0  0
  3 21  1  0  0  0  0
  4  5  1  0  0  0  0
  4 22  1  0  0  0  0
  4 23  1  0  0  0  0
  5  6  1  0  0  0  0
  5  7  1  0  0  0  0
  5  8  1  0  0  0  0
  9 10  1  0  0  0  0
  9 24  1  0  0  0  0
 10 20  1  0  0  0  0
 10 11  2  0  0  0  0
 11 12  1  0  0  0  0
 11 25  1  0  0  0  0
 12 13  2  0  0  0  0
 12 26  1  0  0  0  0
 13 14  1  0  0  0  0
 13 19  1  0  0  0  0
 14 18  1  0  0  0  0
 14 15  1  0  0  0  0
 15 16  1  0  0  0  0
 15 27  1  0  0  0  0
 15 28  1  0  0  0  0
 16 17  1  0  0  0  0
 16 29  1  0  0  0  0
 16 30  1  0  0  0  0
 17 18  1  0  0  0  0
 17 31  1  0  0  0  0
 17 32  1  0  0  0  0
 18 33  1  0  0  0  0
 18 34  1  0  0  0  0
 19 20  2  0  0  0  0
 19 36  1  0  0  0  0
 20 35  1  0  0  0  0
M  CHG  1  19   1
M  END
> <s_m_source_file>
AV-unprocessed.smi

> <i_m_source_file_index>
1878

> <i_lp_mmshare_version>
43012

> <i_f3d_flags>
0

> <s_epik_input>
RkMoRikoRilbQ0gyXVtOSF1DKD1PKVtOSF1jMVtjSF1bY0hdYyhuW2NIXTEpTjJbQ0gyXVtDSDJdW0NIMl1bQ0gyXTI=

> <s_epik_cmdline>
J2VwaWtfcHl0aG9uJywgJy1waCcsICc3LjAnLCAnLXRuJywgJzgnLCAnLW1hJywgJzIwMCcsICctbWV0YWxfYmluZGluZycsICctaW1hZScsICc8aW5maWxlLm1hZT4nLCAnLW9tYWUnLCAnPG91dGZpbGUubWFlPic=

> <r_lp_tautomer_probability>
0.999994

> <r_epik_Ionization_Penalty>
1.23546

> <r_epik_Ionization_Penalty_Charging>
1.23541

> <r_epik_Ionization_Penalty_Neutral>
4.98032e-05

> <r_epik_State_Penalty>
1.30389

> <r_epik_Charging_Adjusted_Penalty>
2.5393

> <i_epik_Tot_Q>
1

> <i_epik_Tot_abs_Q>
1

> <r_epik_Metal_State_Penalty>
1.39467

> <b_epik_Metal_Only>
0

> <s_lp_Force_Field>
OPLS_2005

> <r_lp_Energy>
38.4411

> <b_lp_Chiralities_Consistent>
1

> <s_lp_Variant>
AV-unprocessed.smi:1878-2

> <Gold.Version>
5.8.1

> <Gold.Id.Protein>
6NUR|6NUR_protein|mol2

> <Gold.PLP.Fitness>
44.3307

> <Gold.PLP.PLP>
-38.1164

> <Gold.PLP.part.hbond>
-4.0000

> <Gold.PLP.part.metal>
0.0000

> <Gold.PLP.part.buried>
-1.6809

> <Gold.PLP.part.nonpolar>
-33.8147

> <Gold.PLP.part.repulsive>
0.5141

> <Gold.PLP.ligand.clash>
0.0000

> <Gold.PLP.ligand.torsion>
1.4041

> <Gold.PLP.Chemscore.Hbond>
3.0000

> <Gold.PLP.Chemscore.CHOScore>
0.0000

> <Gold.PLP.Chemscore.Metal>
0.0000

> <Gold.Chemscore.Hbonds>
donor molecule, donor type, donor heavy atom, donor atom, acceptor molecule, acceptor atom, score
      L1  H     3    21       P1  7948  1.00
      L1  H    19    36       P1  8028  1.63

> <Gold.PLP.Chemscore.Internal.Correction>
0.0225

> <Gold.Rescore>
     Score         DG    S(hbond)    S(metal)    S(lipo)     H(rot)  DE(clash)    DE(int)     intcor
     15.08     -18.21       1.90        0.00      83.99       1.34       0.22       2.91       ----

> <Gold.Chemscore.Fitness>
15.0802

> <Gold.Chemscore.DG>
-18.2079

> <Gold.Chemscore.ZeroCoef>
-5.4800

> <Gold.Chemscore.Hbond>
1.8980

> <Gold.Chemscore.Metal>
0.0000

> <Gold.Chemscore.Lipo>
83.9895

> <Gold.Chemscore.Internal_Hbond>
0.0000

> <Gold.Chemscore.DEClash>
0.2162

> <Gold.Chemscore.DEInternal>
2.9115

> <Gold.Chemscore.Rot>
1.3430

> <Gold.Chemscore.Internal.Correction>
   9.000000E+99

> <Gold.Chemscore.Hbonds>
donor molecule, donor type, donor heavy atom, donor atom, acceptor molecule, acceptor atom, score
      L1  H     3    21       P1  7948  0.99
      L1  H    19    36       P1  8028  0.81

> <Gold.Chemscore.Hbond.Weighted>
-6.3392

> <Gold.Chemscore.Metal.Weighted>
-0.0000

> <Gold.Chemscore.Lipo.Weighted>
-9.8268

> <Gold.Chemscore.Internal_Hbond.Weighted>
0.0000

> <Gold.Chemscore.DEClash.Weighted>
0.2162

> <Gold.Chemscore.DEInternal.Weighted>
2.9115

> <Gold.Chemscore.Rot.Weighted>
3.4381

> <Gold.Chemscore.Internal.Correction.Weighted>
   9.000000E+99

> <Gold.Protein.RotatedTorsions>
[ 6907 6896 6895 6894 ] final -138.24 input  -60.11 | X-H torsion
[ 7974 7965 7964 7962 ] final  -97.52 input  175.53 | X-H torsion
[ 8008 7997 7996 7995 ] final  -67.72 input   59.86 | X-H torsion
[ 10167 10162 10161 10158 ] final   92.01 input  -65.29 | X-H torsion
[ 10718 10713 10712 10709 ] final -103.56 input   66.30 | X-H torsion
[ 10763 10752 10751 10750 ] final  158.03 input  -60.55 | X-H torsion
[ 11005 11000 10999 10996 ] final  157.18 input  -57.11 | X-H torsion

> <Gold.Protein.ActiveResidues>
 VAL166  LYS551  ARG553  GLY616  TRP617  ASP618  TYR619  PRO620  LYS621  CYS622 
 ASP623  PHE694  ASN695  SER759  ASP760  ASP761  ALA762  ILE779  LEU786  VAL792 
 PHE793  MET794  SER795  GLU796  ALA797  LYS798  CYS799  TRP800  GLU811  SER814 

> <Gold.Protein.RotatedAtoms>
  151.0326  133.5777  159.2659 H   0  0  0  0  0  0  0  0  0  0  0  0  # atno 6907 bound_to 6896
  151.2853  135.0725  159.9194 H   0  0  0  0  0  0  0  0  0  0  0  0  # atno 6908 bound_to 6896
  152.5348  134.0033  159.7959 H   0  0  0  0  0  0  0  0  0  0  0  0  # atno 6909 bound_to 6896
  145.3327  140.9444  143.2653 H   0  0  0  0  0  0  0  0  0  0  0  0  # atno 7974 bound_to 7965
  154.4819  140.0887  156.7397 H   0  0  0  0  0  0  0  0  0  0  0  0  # atno 8008 bound_to 7997
  155.4449  140.3455  155.4276 H   0  0  0  0  0  0  0  0  0  0  0  0  # atno 8009 bound_to 7997
  156.1204  140.1472  156.9201 H   0  0  0  0  0  0  0  0  0  0  0  0  # atno 8010 bound_to 7997
  139.8319  144.6683  150.9390 H   0  0  0  0  0  0  0  0  0  0  0  0  # atno 10167 bound_to 10162
  156.0270  130.5473  150.7271 H   0  0  0  0  0  0  0  0  0  0  0  0  # atno 10718 bound_to 10713
  154.2097  135.2786  155.2963 H   0  0  0  0  0  0  0  0  0  0  0  0  # atno 10763 bound_to 10752
  154.5789  135.5595  153.7169 H   0  0  0  0  0  0  0  0  0  0  0  0  # atno 10764 bound_to 10752
  153.0067  135.6340  154.2235 H   0  0  0  0  0  0  0  0  0  0  0  0  # atno 10765 bound_to 10752
  140.1745  134.8519  157.2730 H   0  0  0  0  0  0  0  0  0  0  0  0  # atno 11005 bound_to 11000
  144.8852  139.4849  143.6704 LP  0  0  0  0  0  0  0  0  0  0  0  0  # atno 17320 bound_to 7965
  146.3039  139.7516  142.9071 LP  0  0  0  0  0  0  0  0  0  0  0  0  # atno 17321 bound_to 7965
  140.7806  143.3993  151.1176 LP  0  0  0  0  0  0  0  0  0  0  0  0  # atno 17342 bound_to 10162
  139.7646  143.8584  152.3108 LP  0  0  0  0  0  0  0  0  0  0  0  0  # atno 17343 bound_to 10162
  157.4873  131.0908  151.0468 LP  0  0  0  0  0  0  0  0  0  0  0  0  # atno 17370 bound_to 10713
  157.0885  130.5932  149.5435 LP  0  0  0  0  0  0  0  0  0  0  0  0  # atno 17371 bound_to 10713
  140.2338  134.3877  155.7510 LP  0  0  0  0  0  0  0  0  0  0  0  0  # atno 17394 bound_to 11000
  141.2219  133.7229  156.8683 LP  0  0  0  0  0  0  0  0  0  0  0  0  # atno 17395 bound_to 11000

$$$$
