AV-unprocessed.smi:2845|AV-procd|sdf|10949|dock3
  -GOLD-   2272015403D 1   1.00000     0.00000
 Structure written by MMmdl.
 43 45  0  0  0  0  0  0  0  0  2 V2000
  151.9022  144.7720  160.7035 C   0  0  0  0  0  0  0  0  0  0  0  0
  151.8509  143.6376  159.6944 C   0  0  0  0  0  0  0  0  0  0  0  0
  151.0214  143.7813  158.5594 C   0  0  0  0  0  0  0  0  0  0  0  0
  150.9944  142.7257  157.6555 C   0  0  0  0  0  0  0  0  0  0  0  0
  150.2875  142.5619  156.4625 N   0  3  0  0  0  0  0  0  0  0  0  0
  150.5860  141.3489  155.9201 C   0  0  0  0  0  0  0  0  0  0  0  0
  151.4747  140.7361  156.7482 N   0  0  0  0  0  0  0  0  0  0  0  0
  152.1162  139.4188  156.6268 C   0  0  0  0  0  0  0  0  0  0  0  0
  151.4029  138.4916  155.6236 C   0  0  2  0  0  0  0  0  0  0  0  0
  151.5200  139.0145  154.3136 O   0  0  0  0  0  0  0  0  0  0  0  0
  149.9156  138.3019  155.9792 C   0  0  0  0  0  0  0  0  0  0  0  0
  149.7276  137.6998  157.2870 N   0  0  0  0  0  0  0  0  0  0  0  0
  150.6231  137.2738  158.1829 C   0  0  0  0  0  0  0  0  0  0  0  0
  150.0849  136.7600  159.2812 N   0  0  0  0  0  0  0  0  0  0  0  0
  148.7669  136.9198  158.9667 C   0  0  0  0  0  0  0  0  0  0  0  0
  147.4486  136.3804  160.0999 S   0  0  2  0  0  0  0  0  0  0  0  0
  146.0716  137.2220  159.1862 C   0  0  0  0  0  0  0  0  0  0  0  0
  147.6648  137.1595  161.3989 O   0  0  0  0  0  0  0  0  0  0  0  0
  148.4902  137.4747  157.7884 N   0  0  0  0  0  0  0  0  0  0  0  0
  151.7578  141.5577  157.8463 C   0  0  0  0  0  0  0  0  0  0  0  0
  152.5798  141.4001  158.9600 C   0  0  0  0  0  0  0  0  0  0  0  0
  152.6190  142.4610  159.8927 C   0  0  0  0  0  0  0  0  0  0  0  0
  153.5034  142.3142  161.1193 C   0  0  0  0  0  0  0  0  0  0  0  0
  151.2758  145.6095  160.3950 H   0  0  0  0  0  0  0  0  0  0  0  0
  152.9217  145.1422  160.8129 H   0  0  0  0  0  0  0  0  0  0  0  0
  151.5496  144.4332  161.6781 H   0  0  0  0  0  0  0  0  0  0  0  0
  150.4324  144.6732  158.4027 H   0  0  0  0  0  0  0  0  0  0  0  0
  150.1900  140.9467  154.9989 H   0  0  0  0  0  0  0  0  0  0  0  0
  153.1429  139.5931  156.3026 H   0  0  0  0  0  0  0  0  0  0  0  0
  152.1838  138.9593  157.6133 H   0  0  0  0  0  0  0  0  0  0  0  0
  151.8946  137.5179  155.6334 H   0  0  0  0  0  0  0  0  0  0  0  0
  150.9096  138.5592  153.7532 H   0  0  0  0  0  0  0  0  0  0  0  0
  149.4046  139.2654  155.9763 H   0  0  0  0  0  0  0  0  0  0  0  0
  149.4178  137.6832  155.2306 H   0  0  0  0  0  0  0  0  0  0  0  0
  151.6900  137.3372  158.0259 H   0  0  0  0  0  0  0  0  0  0  0  0
  146.2696  137.2427  158.1144 H   0  0  0  0  0  0  0  0  0  0  0  0
  145.9572  138.2472  159.5380 H   0  0  0  0  0  0  0  0  0  0  0  0
  145.1341  136.6919  159.3522 H   0  0  0  0  0  0  0  0  0  0  0  0
  153.1598  140.5025  159.1151 H   0  0  0  0  0  0  0  0  0  0  0  0
  154.0091  141.3481  161.1338 H   0  0  0  0  0  0  0  0  0  0  0  0
  152.9104  142.3924  162.0307 H   0  0  0  0  0  0  0  0  0  0  0  0
  154.2682  143.0910  161.1348 H   0  0  0  0  0  0  0  0  0  0  0  0
  149.6473  143.2267  156.0474 H   0  0  0  0  0  0  0  0  0  0  0  0
  1  2  1  0  0  0  0
  1 24  1  0  0  0  0
  1 25  1  0  0  0  0
  1 26  1  0  0  0  0
  2 22  1  0  0  0  0
  2  3  2  0  0  0  0
  3  4  1  0  0  0  0
  3 27  1  0  0  0  0
  4 20  2  0  0  0  0
  4  5  1  0  0  0  0
  5  6  2  0  0  0  0
  5 43  1  0  0  0  0
  6  7  1  0  0  0  0
  6 28  1  0  0  0  0
  7  8  1  0  0  0  0
  7 20  1  0  0  0  0
  8  9  1  0  0  0  0
  8 29  1  0  0  0  0
  8 30  1  0  0  0  0
  9 10  1  0  0  0  0
  9 11  1  0  0  0  0
  9 31  1  0  0  0  0
 10 32  1  0  0  0  0
 11 12  1  0  0  0  0
 11 33  1  0  0  0  0
 11 34  1  0  0  0  0
 12 19  1  0  0  0  0
 12 13  1  0  0  0  0
 13 14  2  0  0  0  0
 13 35  1  0  0  0  0
 14 15  1  0  0  0  0
 15 16  1  0  0  0  0
 15 19  2  0  0  0  0
 16 17  1  0  0  0  0
 16 18  2  0  0  0  0
 17 36  1  0  0  0  0
 17 37  1  0  0  0  0
 17 38  1  0  0  0  0
 20 21  1  0  0  0  0
 21 22  2  0  0  0  0
 21 39  1  0  0  0  0
 22 23  1  0  0  0  0
 23 40  1  0  0  0  0
 23 41  1  0  0  0  0
 23 42  1  0  0  0  0
M  CHG  1   5   1
M  END
> <s_m_source_file>
AV-unprocessed.smi

> <i_m_source_file_index>
2845

> <i_lp_mmshare_version>
43012

> <i_f3d_flags>
0

> <s_epik_input>
W0NIM11jKFtjSF0xKWMoW0NIM10pW2NIXWMoYzEyKW4oW2NIXW4yKVtDSDJdW0NASF0oW09IXSlbQ0gyXW4zW2NIXW5jKG4zKVtTQF0oPU8pW0NIM10=

> <s_epik_cmdline>
J2VwaWtfcHl0aG9uJywgJy1waCcsICc3LjAnLCAnLXRuJywgJzgnLCAnLW1hJywgJzIwMCcsICctbWV0YWxfYmluZGluZycsICctaW1hZScsICc8aW5maWxlLm1hZT4nLCAnLW9tYWUnLCAnPG91dGZpbGUubWFlPic=

> <r_lp_tautomer_probability>
1

> <r_epik_Ionization_Penalty>
1.12076

> <r_epik_Ionization_Penalty_Charging>
1.12075

> <r_epik_Ionization_Penalty_Neutral>
1.54566e-06

> <r_epik_State_Penalty>
1.17957

> <r_epik_Charging_Adjusted_Penalty>
2.30033

> <i_epik_Tot_Q>
1

> <i_epik_Tot_abs_Q>
1

> <r_epik_Metal_State_Penalty>
1.26402

> <b_epik_Metal_Only>
0

> <s_lp_Force_Field>
OPLS_2005

> <r_lp_Energy>
14.9183

> <b_lp_Chiralities_Consistent>
1

> <s_lp_Variant>
AV-unprocessed.smi:2845-7

> <Gold.Version>
5.8.1

> <Gold.Id.Protein>
6NUR|6NUR_protein|mol2

> <Gold.PLP.Fitness>
58.8901

> <Gold.PLP.PLP>
-42.6449

> <Gold.PLP.part.hbond>
-4.9738

> <Gold.PLP.part.metal>
0.0000

> <Gold.PLP.part.buried>
-5.3238

> <Gold.PLP.part.nonpolar>
-32.7653

> <Gold.PLP.part.repulsive>
0.0730

> <Gold.PLP.ligand.clash>
0.5389

> <Gold.PLP.ligand.torsion>
0.8280

> <Gold.PLP.Chemscore.Hbond>
5.8073

> <Gold.PLP.Chemscore.CHOScore>
0.0000

> <Gold.PLP.Chemscore.Metal>
0.0000

> <Gold.Chemscore.Hbonds>
donor molecule, donor type, donor heavy atom, donor atom, acceptor molecule, acceptor atom, score
      L1  H     5    43       P1  8028  2.00
      P1  H  6896  6907       L1    14  0.98
      P1  H  6931  6943       L1    18  0.99
      P1  H  6934  6947       L1    18  0.82
      P1  H  7989  7998       L1    10  1.00

> <Gold.PLP.Chemscore.Internal.Correction>
1.0183

> <Gold.Rescore>
     Score         DG    S(hbond)    S(metal)    S(lipo)     H(rot)  DE(clash)    DE(int)     intcor
     21.64     -24.53       4.38        0.00      98.27       2.77       0.81       2.08       ----

> <Gold.Chemscore.Fitness>
21.6407

> <Gold.Chemscore.DG>
-24.5337

> <Gold.Chemscore.ZeroCoef>
-5.4800

> <Gold.Chemscore.Hbond>
4.3840

> <Gold.Chemscore.Metal>
0.0000

> <Gold.Chemscore.Lipo>
98.2689

> <Gold.Chemscore.Internal_Hbond>
0.0000

> <Gold.Chemscore.DEClash>
0.8102

> <Gold.Chemscore.DEInternal>
2.0828

> <Gold.Chemscore.Rot>
2.7681

> <Gold.Chemscore.Internal.Correction>
   9.000000E+99

> <Gold.Chemscore.Hbonds>
donor molecule, donor type, donor heavy atom, donor atom, acceptor molecule, acceptor atom, score
      L1  H     5    43       P1  8028  1.00
      P1  H  6896  6907       L1    14  0.72
      P1  H  6931  6943       L1    18  0.94
      P1  H  6934  6947       L1    18  0.40
      P1  H  7989  7998       L1    10  0.41

> <Gold.Chemscore.Hbond.Weighted>
-14.6425

> <Gold.Chemscore.Metal.Weighted>
-0.0000

> <Gold.Chemscore.Lipo.Weighted>
-11.4975

> <Gold.Chemscore.Internal_Hbond.Weighted>
0.0000

> <Gold.Chemscore.DEClash.Weighted>
0.8102

> <Gold.Chemscore.DEInternal.Weighted>
2.0828

> <Gold.Chemscore.Rot.Weighted>
7.0863

> <Gold.Chemscore.Internal.Correction.Weighted>
   9.000000E+99

> <Gold.Protein.RotatedTorsions>
[ 6907 6896 6895 6894 ] final  -33.40 input  -60.11 | X-H torsion
[ 7974 7965 7964 7962 ] final  -88.74 input  175.53 | X-H torsion
[ 8008 7997 7996 7995 ] final  178.53 input   59.86 | X-H torsion
[ 10167 10162 10161 10158 ] final  -40.96 input  -65.29 | X-H torsion
[ 10718 10713 10712 10709 ] final    4.45 input   66.30 | X-H torsion
[ 10763 10752 10751 10750 ] final -174.82 input  -60.55 | X-H torsion
[ 11005 11000 10999 10996 ] final  141.97 input  -57.11 | X-H torsion

> <Gold.Protein.ActiveResidues>
 VAL166  LYS551  ARG553  GLY616  TRP617  ASP618  TYR619  PRO620  LYS621  CYS622 
 ASP623  PHE694  ASN695  SER759  ASP760  ASP761  ALA762  ILE779  LEU786  VAL792 
 PHE793  MET794  SER795  GLU796  ALA797  LYS798  CYS799  TRP800  GLU811  SER814 

> <Gold.Protein.RotatedAtoms>
  151.0661  134.9768  159.8284 H   0  0  0  0  0  0  0  0  0  0  0  0  # atno 6907 bound_to 6896
  152.5402  134.2357  159.8852 H   0  0  0  0  0  0  0  0  0  0  0  0  # atno 6908 bound_to 6896
  151.2379  133.4372  159.2640 H   0  0  0  0  0  0  0  0  0  0  0  0  # atno 6909 bound_to 6896
  145.4491  140.9560  143.2032 H   0  0  0  0  0  0  0  0  0  0  0  0  # atno 7974 bound_to 7965
  156.0536  140.1331  157.0022 H   0  0  0  0  0  0  0  0  0  0  0  0  # atno 8008 bound_to 7997
  154.4447  140.1006  156.6483 H   0  0  0  0  0  0  0  0  0  0  0  0  # atno 8009 bound_to 7997
  155.5486  140.3462  155.4465 H   0  0  0  0  0  0  0  0  0  0  0  0  # atno 8010 bound_to 7997
  140.7018  143.3122  151.2998 H   0  0  0  0  0  0  0  0  0  0  0  0  # atno 10167 bound_to 10162
  156.8928  130.5693  149.5649 H   0  0  0  0  0  0  0  0  0  0  0  0  # atno 10718 bound_to 10713
  154.5917  135.2846  155.0628 H   0  0  0  0  0  0  0  0  0  0  0  0  # atno 10763 bound_to 10752
  154.1926  135.6438  153.5068 H   0  0  0  0  0  0  0  0  0  0  0  0  # atno 10764 bound_to 10752
  153.0124  135.5450  154.6606 H   0  0  0  0  0  0  0  0  0  0  0  0  # atno 10765 bound_to 10752
  140.0441  134.9290  157.0898 H   0  0  0  0  0  0  0  0  0  0  0  0  # atno 11005 bound_to 11000
  144.8073  139.6027  143.7045 LP  0  0  0  0  0  0  0  0  0  0  0  0  # atno 17320 bound_to 7965
  146.2514  139.6209  142.9424 LP  0  0  0  0  0  0  0  0  0  0  0  0  # atno 17321 bound_to 7965
  139.6549  144.0294  152.2653 LP  0  0  0  0  0  0  0  0  0  0  0  0  # atno 17342 bound_to 10162
  139.9842  144.6407  150.7872 LP  0  0  0  0  0  0  0  0  0  0  0  0  # atno 17343 bound_to 10162
  156.0621  130.5671  150.9213 LP  0  0  0  0  0  0  0  0  0  0  0  0  # atno 17370 bound_to 10713
  157.6073  131.0938  150.8856 LP  0  0  0  0  0  0  0  0  0  0  0  0  # atno 17371 bound_to 10713
  140.4021  134.2071  155.7163 LP  0  0  0  0  0  0  0  0  0  0  0  0  # atno 17394 bound_to 11000
  141.1898  133.8231  157.0943 LP  0  0  0  0  0  0  0  0  0  0  0  0  # atno 17395 bound_to 11000

$$$$
