AV-unprocessed.smi:1671|AV-procd|sdf|6698|dock7
  -GOLD-   22720 7433D 1   1.00000     0.00000
 Structure written by MMmdl.
 44 45  0  0  0  0  0  0  0  0  1 V2000
  143.1238  135.5623  152.7727 C   0  0  0  0  0  0  0  0  0  0  0  0
  143.8141  137.2290  152.9572 S   0  0  0  0  0  0  0  0  0  0  0  0
  145.5335  136.9500  152.4375 C   0  0  1  0  0  0  0  0  0  0  0  0
  145.5750  136.0228  151.2127 C   0  0  0  0  0  0  0  0  0  0  0  0
  146.2678  138.2671  152.1584 C   0  0  0  0  0  0  0  0  0  0  0  0
  146.8075  138.4603  151.0685 O   0  0  0  0  0  0  0  0  0  0  0  0
  146.2785  139.1689  153.1527 N   0  0  0  0  0  0  0  0  0  0  0  0
  146.9234  140.4765  153.0878 C   0  0  0  0  0  0  0  0  0  0  0  0
  147.8070  140.8039  154.2838 C   0  0  0  0  0  0  0  0  0  0  0  0
  147.2797  140.9978  155.5779 C   0  0  0  0  0  0  0  0  0  0  0  0
  148.1576  141.3006  156.6359 C   0  0  0  0  0  0  0  0  0  0  0  0
  149.5446  141.4058  156.3747 C   0  0  0  0  0  0  0  0  0  0  0  0
  150.4438  141.7023  157.4223 N   0  0  0  0  0  0  0  0  0  0  0  0
  151.3696  140.6316  157.7827 C   0  0  0  0  0  0  0  0  0  0  0  0
  152.0699  140.9558  159.1128 C   0  0  0  0  0  0  0  0  0  0  0  0
  152.7008  142.2294  159.0276 O   0  0  0  0  0  0  0  0  0  0  0  0
  151.7654  143.2769  158.7878 C   0  0  1  0  0  0  0  0  0  0  0  0
  152.5206  144.6100  158.8035 C   0  0  0  0  0  0  0  0  0  0  0  0
  151.0610  143.0274  157.4406 C   0  0  0  0  0  0  0  0  0  0  0  0
  150.0451  141.2343  155.1262 N   0  0  0  0  0  0  0  0  0  0  0  0
  149.1993  140.9418  154.1160 C   0  0  0  0  0  0  0  0  0  0  0  0
  142.0601  135.5707  153.0098 H   0  0  0  0  0  0  0  0  0  0  0  0
  143.6181  134.8619  153.4456 H   0  0  0  0  0  0  0  0  0  0  0  0
  143.2461  135.2093  151.7487 H   0  0  0  0  0  0  0  0  0  0  0  0
  146.0385  136.4340  153.2556 H   0  0  0  0  0  0  0  0  0  0  0  0
  146.5989  135.8536  150.8770 H   0  0  0  0  0  0  0  0  0  0  0  0
  145.0126  136.4376  150.3751 H   0  0  0  0  0  0  0  0  0  0  0  0
  145.1439  135.0496  151.4483 H   0  0  0  0  0  0  0  0  0  0  0  0
  145.8075  138.9332  154.0142 H   0  0  0  0  0  0  0  0  0  0  0  0
  147.5059  140.5511  152.1678 H   0  0  0  0  0  0  0  0  0  0  0  0
  146.1449  141.2364  153.0206 H   0  0  0  0  0  0  0  0  0  0  0  0
  146.2189  140.9205  155.7660 H   0  0  0  0  0  0  0  0  0  0  0  0
  147.7573  141.4613  157.6258 H   0  0  0  0  0  0  0  0  0  0  0  0
  150.8642  139.6712  157.8742 H   0  0  0  0  0  0  0  0  0  0  0  0
  152.1098  140.5259  156.9884 H   0  0  0  0  0  0  0  0  0  0  0  0
  151.3584  140.9441  159.9400 H   0  0  0  0  0  0  0  0  0  0  0  0
  152.8248  140.2007  159.3323 H   0  0  0  0  0  0  0  0  0  0  0  0
  151.0267  143.2877  159.5914 H   0  0  0  0  0  0  0  0  0  0  0  0
  151.8432  145.4468  158.6312 H   0  0  0  0  0  0  0  0  0  0  0  0
  153.2894  144.6373  158.0309 H   0  0  0  0  0  0  0  0  0  0  0  0
  153.0087  144.7700  159.7651 H   0  0  0  0  0  0  0  0  0  0  0  0
  151.7776  143.1014  156.6212 H   0  0  0  0  0  0  0  0  0  0  0  0
  150.3034  143.7961  157.2821 H   0  0  0  0  0  0  0  0  0  0  0  0
  149.6508  140.8136  153.1432 H   0  0  0  0  0  0  0  0  0  0  0  0
  1  2  1  0  0  0  0
  1 22  1  0  0  0  0
  1 23  1  0  0  0  0
  1 24  1  0  0  0  0
  2  3  1  0  0  0  0
  3  4  1  0  0  0  0
  3  5  1  0  0  0  0
  3 25  1  0  0  0  0
  4 26  1  0  0  0  0
  4 27  1  0  0  0  0
  4 28  1  0  0  0  0
  5  6  2  0  0  0  0
  5  7  1  0  0  0  0
  7  8  1  0  0  0  0
  7 29  1  0  0  0  0
  8  9  1  0  0  0  0
  8 30  1  0  0  0  0
  8 31  1  0  0  0  0
  9 21  1  0  0  0  0
  9 10  2  0  0  0  0
 10 11  1  0  0  0  0
 10 32  1  0  0  0  0
 11 12  2  0  0  0  0
 11 33  1  0  0  0  0
 12 13  1  0  0  0  0
 12 20  1  0  0  0  0
 13 19  1  0  0  0  0
 13 14  1  0  0  0  0
 14 15  1  0  0  0  0
 14 34  1  0  0  0  0
 14 35  1  0  0  0  0
 15 16  1  0  0  0  0
 15 36  1  0  0  0  0
 15 37  1  0  0  0  0
 16 17  1  0  0  0  0
 17 18  1  0  0  0  0
 17 19  1  0  0  0  0
 17 38  1  0  0  0  0
 18 39  1  0  0  0  0
 18 40  1  0  0  0  0
 18 41  1  0  0  0  0
 19 42  1  0  0  0  0
 19 43  1  0  0  0  0
 20 21  2  0  0  0  0
 21 44  1  0  0  0  0
M  END
> <s_m_source_file>
AV-unprocessed.smi

> <i_m_source_file_index>
1671

> <i_lp_mmshare_version>
43012

> <i_f3d_flags>
0

> <s_epik_input>
W0NIM11TW0NASF0oW0NIM10pQyg9TylbTkhdW0NIMl1jMVtjSF1bY0hdYyhuW2NIXTEpTjJbQ0gyXVtDSDJdT1tDQEBIXShbQ0gzXSlbQ0gyXTI=

> <s_epik_cmdline>
J2VwaWtfcHl0aG9uJywgJy1waCcsICc3LjAnLCAnLXRuJywgJzgnLCAnLW1hJywgJzIwMCcsICctbWV0YWxfYmluZGluZycsICctaW1hZScsICc8aW5maWxlLm1hZT4nLCAnLW9tYWUnLCAnPG91dGZpbGUubWFlPic=

> <r_lp_tautomer_probability>
1

> <r_epik_Ionization_Penalty>
0.00480033

> <r_epik_Ionization_Penalty_Charging>
0

> <r_epik_Ionization_Penalty_Neutral>
0.00480033

> <r_epik_State_Penalty>
0.00347981

> <r_epik_Charging_Adjusted_Penalty>
0.00347981

> <i_epik_Tot_Q>
0

> <i_epik_Tot_abs_Q>
0

> <r_epik_Metal_State_Penalty>
-0

> <b_epik_Metal_Only>
0

> <s_lp_Force_Field>
OPLS_2005

> <r_lp_Energy>
15.4739

> <b_lp_Chiralities_Consistent>
1

> <s_lp_Variant>
AV-unprocessed.smi:1671-2

> <Gold.Version>
5.8.1

> <Gold.Id.Protein>
6NUR|6NUR_protein|mol2

> <Gold.PLP.Fitness>
44.9657

> <Gold.PLP.PLP>
-39.3354

> <Gold.PLP.part.hbond>
-3.0000

> <Gold.PLP.part.metal>
0.0000

> <Gold.PLP.part.buried>
-4.0643

> <Gold.PLP.part.nonpolar>
-34.5490

> <Gold.PLP.part.repulsive>
0.5251

> <Gold.PLP.ligand.clash>
0.0000

> <Gold.PLP.ligand.torsion>
0.4195

> <Gold.PLP.Chemscore.Hbond>
1.0337

> <Gold.PLP.Chemscore.CHOScore>
1.0000

> <Gold.PLP.Chemscore.Metal>
0.0000

> <Gold.Chemscore.Hbonds>
donor molecule, donor type, donor heavy atom, donor atom, acceptor molecule, acceptor atom, score
      P1  H  7954  7966       L1     6  1.00
      P1  H  7989  7998       L1    20  0.02
      L1  C    21    44       P1  7957  1.00

> <Gold.PLP.Chemscore.Internal.Correction>
0.3682

> <Gold.Rescore>
     Score         DG    S(hbond)    S(metal)    S(lipo)     H(rot)  DE(clash)    DE(int)     intcor
     14.72     -15.53       0.97        0.00      93.66       1.63       0.33       0.47       ----

> <Gold.Chemscore.Fitness>
14.7237

> <Gold.Chemscore.DG>
-15.5251

> <Gold.Chemscore.ZeroCoef>
-5.4800

> <Gold.Chemscore.Hbond>
0.9738

> <Gold.Chemscore.Metal>
0.0000

> <Gold.Chemscore.Lipo>
93.6605

> <Gold.Chemscore.Internal_Hbond>
0.0000

> <Gold.Chemscore.DEClash>
0.3268

> <Gold.Chemscore.DEInternal>
0.4745

> <Gold.Chemscore.Rot>
1.6272

> <Gold.Chemscore.Internal.Correction>
   9.000000E+99

> <Gold.Chemscore.Hbonds>
donor molecule, donor type, donor heavy atom, donor atom, acceptor molecule, acceptor atom, score
      P1  H  7954  7966       L1     6  0.97

> <Gold.Chemscore.Hbond.Weighted>
-3.2525

> <Gold.Chemscore.Metal.Weighted>
-0.0000

> <Gold.Chemscore.Lipo.Weighted>
-10.9583

> <Gold.Chemscore.Internal_Hbond.Weighted>
0.0000

> <Gold.Chemscore.DEClash.Weighted>
0.3268

> <Gold.Chemscore.DEInternal.Weighted>
0.4745

> <Gold.Chemscore.Rot.Weighted>
4.1657

> <Gold.Chemscore.Internal.Correction.Weighted>
   9.000000E+99

> <Gold.Protein.RotatedTorsions>
[ 6907 6896 6895 6894 ] final    4.30 input  -60.11 | X-H torsion
[ 7974 7965 7964 7962 ] final   21.16 input  175.53 | X-H torsion
[ 8008 7997 7996 7995 ] final  106.25 input   59.86 | X-H torsion
[ 10167 10162 10161 10158 ] final   99.93 input  -65.29 | X-H torsion
[ 10718 10713 10712 10709 ] final  111.40 input   66.30 | X-H torsion
[ 10763 10752 10751 10750 ] final  -85.10 input  -60.55 | X-H torsion
[ 11005 11000 10999 10996 ] final  158.91 input  -57.11 | X-H torsion

> <Gold.Protein.ActiveResidues>
 VAL166  LYS551  ARG553  GLY616  TRP617  ASP618  TYR619  PRO620  LYS621  CYS622 
 ASP623  PHE694  ASN695  SER759  ASP760  ASP761  ALA762  ILE779  LEU786  VAL792 
 PHE793  MET794  SER795  GLU796  ALA797  LYS798  CYS799  TRP800  GLU811  SER814 

> <Gold.Protein.RotatedAtoms>
  151.6391  135.1014  160.0137 H   0  0  0  0  0  0  0  0  0  0  0  0  # atno 6907 bound_to 6896
  152.4064  133.6891  159.6368 H   0  0  0  0  0  0  0  0  0  0  0  0  # atno 6908 bound_to 6896
  150.7958  133.8619  159.3275 H   0  0  0  0  0  0  0  0  0  0  0  0  # atno 6909 bound_to 6896
  146.2083  139.8067  142.8709 H   0  0  0  0  0  0  0  0  0  0  0  0  # atno 7974 bound_to 7965
  156.1727  140.3116  155.9003 H   0  0  0  0  0  0  0  0  0  0  0  0  # atno 8008 bound_to 7997
  155.3552  140.0473  157.3063 H   0  0  0  0  0  0  0  0  0  0  0  0  # atno 8009 bound_to 7997
  154.5258  140.2214  155.8903 H   0  0  0  0  0  0  0  0  0  0  0  0  # atno 8010 bound_to 7997
  139.7573  144.6965  151.0344 H   0  0  0  0  0  0  0  0  0  0  0  0  # atno 10167 bound_to 10162
  157.6446  131.0950  150.6744 H   0  0  0  0  0  0  0  0  0  0  0  0  # atno 10718 bound_to 10713
  154.6071  135.5497  153.7435 H   0  0  0  0  0  0  0  0  0  0  0  0  # atno 10763 bound_to 10752
  153.0179  135.6380  154.1631 H   0  0  0  0  0  0  0  0  0  0  0  0  # atno 10764 bound_to 10752
  154.1569  135.2899  155.3099 H   0  0  0  0  0  0  0  0  0  0  0  0  # atno 10765 bound_to 10752
  140.1911  134.8406  157.2913 H   0  0  0  0  0  0  0  0  0  0  0  0  # atno 11005 bound_to 11000
  145.3239  141.0250  143.3485 LP  0  0  0  0  0  0  0  0  0  0  0  0  # atno 17320 bound_to 7965
  144.8847  139.4856  143.6706 LP  0  0  0  0  0  0  0  0  0  0  0  0  # atno 17321 bound_to 7965
  140.7804  143.4738  151.0110 LP  0  0  0  0  0  0  0  0  0  0  0  0  # atno 17342 bound_to 10162
  139.8425  143.7545  152.3180 LP  0  0  0  0  0  0  0  0  0  0  0  0  # atno 17343 bound_to 10162
  156.7063  130.4638  149.5559 LP  0  0  0  0  0  0  0  0  0  0  0  0  # atno 17370 bound_to 10713
  156.1761  130.6468  151.0896 LP  0  0  0  0  0  0  0  0  0  0  0  0  # atno 17371 bound_to 10713
  140.2159  134.4082  155.7590 LP  0  0  0  0  0  0  0  0  0  0  0  0  # atno 17394 bound_to 11000
  141.2226  133.7141  156.8412 LP  0  0  0  0  0  0  0  0  0  0  0  0  # atno 17395 bound_to 11000

$$$$
