AV-unprocessed.smi:625|AV-procd|sdf|3102|dock4
  -GOLD-   22720 0 23D 1   1.00000     0.00000
 Structure written by MMmdl.
 49 51  0  0  0  0  0  0  0  0  1 V2000
  155.5509  139.0237  161.8280 C   0  0  0  0  0  0  0  0  0  0  0  0
  154.7257  140.1790  161.5095 N   0  0  0  0  0  0  0  0  0  0  0  0
  154.3505  140.5265  160.2676 C   0  0  0  0  0  0  0  0  0  0  0  0
  154.6867  139.8683  159.2811 O   0  0  0  0  0  0  0  0  0  0  0  0
  153.5218  141.7333  160.2160 C   0  0  0  0  0  0  0  0  0  0  0  0
  153.3554  142.6389  161.3428 C   0  0  0  0  0  0  0  0  0  0  0  0
  152.5503  143.7154  161.2434 C   0  0  0  0  0  0  0  0  0  0  0  0
  151.8128  144.0192  160.0130 C   0  0  0  0  0  0  0  0  0  0  0  0
  151.0601  144.9894  159.9270 O   0  0  0  0  0  0  0  0  0  0  0  0
  152.0121  143.1537  158.9739 N   0  0  0  0  0  0  0  0  0  0  0  0
  151.3001  143.3057  157.6957 C   0  0  0  0  0  0  0  0  0  0  0  0
  150.3416  142.1323  157.4701 C   0  0  0  0  0  0  0  0  0  0  0  0
  150.7532  140.9739  157.5369 O   0  0  0  0  0  0  0  0  0  0  0  0
  149.0719  142.4555  157.1811 N   0  0  0  0  0  0  0  0  0  0  0  0
  148.0378  141.5264  156.7334 C   0  0  1  0  0  0  0  0  0  0  0  0
  146.6985  141.9027  157.3853 C   0  0  0  0  0  0  0  0  0  0  0  0
  147.9653  141.5444  155.1872 C   0  0  2  0  0  0  0  0  0  0  0  0
  146.7385  140.8232  154.5855 C   0  0  0  0  0  0  0  0  0  0  0  0
  147.3645  139.9085  153.5149 C   0  0  2  0  0  0  0  0  0  0  0  0
  148.0736  138.7306  154.2084 C   0  0  0  0  0  0  0  0  0  0  0  0
  149.3175  139.3986  154.8211 C   0  0  0  0  0  0  0  0  0  0  0  0
  149.1404  140.8788  154.4240 C   0  0  1  0  0  0  0  0  0  0  0  0
  148.5451  140.7406  153.0272 C   0  0  0  0  0  0  0  0  0  0  0  0
  152.8552  142.0305  159.0847 C   0  0  0  0  0  0  0  0  0  0  0  0
  155.6915  138.9532  162.9066 H   0  0  0  0  0  0  0  0  0  0  0  0
  156.5330  139.1082  161.3610 H   0  0  0  0  0  0  0  0  0  0  0  0
  155.0795  138.1019  161.4842 H   0  0  0  0  0  0  0  0  0  0  0  0
  154.4193  140.7538  162.2809 H   0  0  0  0  0  0  0  0  0  0  0  0
  153.8693  142.4724  162.2782 H   0  0  0  0  0  0  0  0  0  0  0  0
  152.4421  144.3730  162.0937 H   0  0  0  0  0  0  0  0  0  0  0  0
  150.7336  144.2365  157.6443 H   0  0  0  0  0  0  0  0  0  0  0  0
  152.0247  143.3639  156.8812 H   0  0  0  0  0  0  0  0  0  0  0  0
  148.8286  143.4353  157.1737 H   0  0  0  0  0  0  0  0  0  0  0  0
  148.2830  140.5127  157.0537 H   0  0  0  0  0  0  0  0  0  0  0  0
  145.9060  141.2169  157.0854 H   0  0  0  0  0  0  0  0  0  0  0  0
  146.3889  142.9105  157.1066 H   0  0  0  0  0  0  0  0  0  0  0  0
  146.7688  141.8648  158.4728 H   0  0  0  0  0  0  0  0  0  0  0  0
  147.9317  142.5888  154.8714 H   0  0  0  0  0  0  0  0  0  0  0  0
  146.1740  140.2512  155.3229 H   0  0  0  0  0  0  0  0  0  0  0  0
  146.0556  141.5442  154.1346 H   0  0  0  0  0  0  0  0  0  0  0  0
  146.6637  139.6004  152.7386 H   0  0  0  0  0  0  0  0  0  0  0  0
  147.4449  138.2531  154.9609 H   0  0  0  0  0  0  0  0  0  0  0  0
  148.3657  137.9694  153.4840 H   0  0  0  0  0  0  0  0  0  0  0  0
  149.3914  139.2430  155.8963 H   0  0  0  0  0  0  0  0  0  0  0  0
  150.2257  138.9924  154.3739 H   0  0  0  0  0  0  0  0  0  0  0  0
  150.0671  141.4521  154.4602 H   0  0  0  0  0  0  0  0  0  0  0  0
  149.1939  140.2064  152.3303 H   0  0  0  0  0  0  0  0  0  0  0  0
  148.2506  141.6931  152.5828 H   0  0  0  0  0  0  0  0  0  0  0  0
  152.8994  141.4227  158.1914 H   0  0  0  0  0  0  0  0  0  0  0  0
  1  2  1  0  0  0  0
  1 25  1  0  0  0  0
  1 26  1  0  0  0  0
  1 27  1  0  0  0  0
  2  3  1  0  0  0  0
  2 28  1  0  0  0  0
  3  4  2  0  0  0  0
  3  5  1  0  0  0  0
  5 24  2  0  0  0  0
  5  6  1  0  0  0  0
  6  7  2  0  0  0  0
  6 29  1  0  0  0  0
  7  8  1  0  0  0  0
  7 30  1  0  0  0  0
  8  9  2  0  0  0  0
  8 10  1  0  0  0  0
 10 11  1  0  0  0  0
 10 24  1  0  0  0  0
 11 12  1  0  0  0  0
 11 31  1  0  0  0  0
 11 32  1  0  0  0  0
 12 13  2  0  0  0  0
 12 14  1  0  0  0  0
 14 15  1  0  0  0  0
 14 33  1  0  0  0  0
 15 16  1  0  0  0  0
 15 17  1  0  0  0  0
 15 34  1  0  0  0  0
 16 35  1  0  0  0  0
 16 36  1  0  0  0  0
 16 37  1  0  0  0  0
 17 22  1  0  0  0  0
 17 18  1  0  0  0  0
 17 38  1  0  0  0  0
 18 19  1  0  0  0  0
 18 39  1  0  0  0  0
 18 40  1  0  0  0  0
 19 23  1  0  0  0  0
 19 20  1  0  0  0  0
 19 41  1  0  0  0  0
 20 21  1  0  0  0  0
 20 42  1  0  0  0  0
 20 43  1  0  0  0  0
 21 22  1  0  0  0  0
 21 44  1  0  0  0  0
 21 45  1  0  0  0  0
 22 23  1  0  0  0  0
 22 46  1  0  0  0  0
 23 47  1  0  0  0  0
 23 48  1  0  0  0  0
 24 49  1  0  0  0  0
M  END
> <s_m_source_file>
AV-unprocessed.smi

> <i_m_source_file_index>
625

> <i_lp_mmshare_version>
43012

> <i_f3d_flags>
0

> <s_epik_input>
W0NIM11bTkhdQyg9TyljMVtjSF1bY0hdYyg9TyluKFtjSF0xKVtDSDJdQyg9TylbTkhdW0NASF0oW0NIM10pW0NASF0oW0NIMl1bQ0BIXTIzKVtDQEhdKFtDSDJdMylbQ0gyXVtDSDJdMg==

> <s_epik_cmdline>
J2VwaWtfcHl0aG9uJywgJy1waCcsICc3LjAnLCAnLXRuJywgJzgnLCAnLW1hJywgJzIwMCcsICctbWV0YWxfYmluZGluZycsICctaW1hZScsICc8aW5maWxlLm1hZT4nLCAnLW9tYWUnLCAnPG91dGZpbGUubWFlPic=

> <r_lp_tautomer_probability>
1

> <r_epik_Ionization_Penalty>
3.7129e-07

> <r_epik_Ionization_Penalty_Charging>
5.04114e-08

> <r_epik_Ionization_Penalty_Neutral>
3.20879e-07

> <r_epik_State_Penalty>
-0

> <r_epik_Charging_Adjusted_Penalty>
5.04114e-08

> <i_epik_Tot_Q>
0

> <i_epik_Tot_abs_Q>
0

> <r_epik_Metal_State_Penalty>
-0

> <b_epik_Metal_Only>
0

> <s_lp_Force_Field>
OPLS_2005

> <r_lp_Energy>
63.4228

> <b_lp_Chiralities_Consistent>
1

> <s_lp_Variant>
AV-unprocessed.smi:625-2

> <Gold.Version>
5.8.1

> <Gold.Id.Protein>
6NUR|6NUR_protein|mol2

> <Gold.PLP.Fitness>
46.8160

> <Gold.PLP.PLP>
-43.2402

> <Gold.PLP.part.hbond>
-2.0000

> <Gold.PLP.part.metal>
0.0000

> <Gold.PLP.part.buried>
-0.0720

> <Gold.PLP.part.nonpolar>
-40.1642

> <Gold.PLP.part.repulsive>
0.1964

> <Gold.PLP.ligand.clash>
0.0000

> <Gold.PLP.ligand.torsion>
0.6333

> <Gold.PLP.Chemscore.Hbond>
1.5920

> <Gold.PLP.Chemscore.CHOScore>
0.0000

> <Gold.PLP.Chemscore.Metal>
0.0000

> <Gold.Chemscore.Hbonds>
donor molecule, donor type, donor heavy atom, donor atom, acceptor molecule, acceptor atom, score
      L1  H    14    33       P1  8028  0.61
      P1  H  7997  8008       L1     4  1.00

> <Gold.PLP.Chemscore.Internal.Correction>
0.0665

> <Gold.Rescore>
     Score         DG    S(hbond)    S(metal)    S(lipo)     H(rot)  DE(clash)    DE(int)     intcor
     15.07     -19.52       1.47        0.00     114.50       1.67       2.44       2.00       ----

> <Gold.Chemscore.Fitness>
15.0737

> <Gold.Chemscore.DG>
-19.5171

> <Gold.Chemscore.ZeroCoef>
-5.4800

> <Gold.Chemscore.Hbond>
1.4726

> <Gold.Chemscore.Metal>
0.0000

> <Gold.Chemscore.Lipo>
114.4969

> <Gold.Chemscore.Internal_Hbond>
0.0000

> <Gold.Chemscore.DEClash>
2.4433

> <Gold.Chemscore.DEInternal>
2.0001

> <Gold.Chemscore.Rot>
1.6709

> <Gold.Chemscore.Internal.Correction>
   9.000000E+99

> <Gold.Chemscore.Hbonds>
donor molecule, donor type, donor heavy atom, donor atom, acceptor molecule, acceptor atom, score
      L1  H    14    33       P1  8028  0.23
      P1  H  7997  8008       L1     4  0.95

> <Gold.Chemscore.Hbond.Weighted>
-4.9184

> <Gold.Chemscore.Metal.Weighted>
-0.0000

> <Gold.Chemscore.Lipo.Weighted>
-13.3961

> <Gold.Chemscore.Internal_Hbond.Weighted>
0.0000

> <Gold.Chemscore.DEClash.Weighted>
2.4433

> <Gold.Chemscore.DEInternal.Weighted>
2.0001

> <Gold.Chemscore.Rot.Weighted>
4.2774

> <Gold.Chemscore.Internal.Correction.Weighted>
   9.000000E+99

> <Gold.Protein.RotatedTorsions>
[ 6907 6896 6895 6894 ] final -125.13 input  -60.11 | X-H torsion
[ 7974 7965 7964 7962 ] final   83.24 input  175.53 | X-H torsion
[ 8008 7997 7996 7995 ] final -126.52 input   59.86 | X-H torsion
[ 10167 10162 10161 10158 ] final  104.55 input  -65.29 | X-H torsion
[ 10718 10713 10712 10709 ] final  -71.09 input   66.30 | X-H torsion
[ 10763 10752 10751 10750 ] final   76.38 input  -60.55 | X-H torsion
[ 11005 11000 10999 10996 ] final   39.51 input  -57.11 | X-H torsion

> <Gold.Protein.ActiveResidues>
 VAL166  LYS551  ARG553  GLY616  TRP617  ASP618  TYR619  PRO620  LYS621  CYS622 
 ASP623  PHE694  ASN695  SER759  ASP760  ASP761  ALA762  ILE779  LEU786  VAL792 
 PHE793  MET794  SER795  GLU796  ALA797  LYS798  CYS799  TRP800  GLU811  SER814 

> <Gold.Protein.RotatedAtoms>
  150.8836  133.7338  159.2924 H   0  0  0  0  0  0  0  0  0  0  0  0  # atno 6907 bound_to 6896
  151.4911  135.1056  159.9813 H   0  0  0  0  0  0  0  0  0  0  0  0  # atno 6908 bound_to 6896
  152.4776  133.8129  159.7068 H   0  0  0  0  0  0  0  0  0  0  0  0  # atno 6909 bound_to 6896
  145.6145  139.2374  143.2173 H   0  0  0  0  0  0  0  0  0  0  0  0  # atno 7974 bound_to 7965
  155.2311  140.0425  157.2962 H   0  0  0  0  0  0  0  0  0  0  0  0  # atno 8008 bound_to 7997
  154.5888  140.2421  155.7920 H   0  0  0  0  0  0  0  0  0  0  0  0  # atno 8009 bound_to 7997
  156.2244  140.2959  156.0040 H   0  0  0  0  0  0  0  0  0  0  0  0  # atno 8010 bound_to 7997
  139.7167  144.7067  151.0938 H   0  0  0  0  0  0  0  0  0  0  0  0  # atno 10167 bound_to 10162
  156.0378  130.4344  150.2392 H   0  0  0  0  0  0  0  0  0  0  0  0  # atno 10718 bound_to 10713
  153.0721  135.4953  154.8327 H   0  0  0  0  0  0  0  0  0  0  0  0  # atno 10763 bound_to 10752
  154.7037  135.3006  154.9305 H   0  0  0  0  0  0  0  0  0  0  0  0  # atno 10764 bound_to 10752
  154.0020  135.6765  153.4812 H   0  0  0  0  0  0  0  0  0  0  0  0  # atno 10765 bound_to 10752
  140.2021  134.3858  155.8091 H   0  0  0  0  0  0  0  0  0  0  0  0  # atno 11005 bound_to 11000
  146.1479  140.6967  142.9336 LP  0  0  0  0  0  0  0  0  0  0  0  0  # atno 17320 bound_to 7965
  144.7256  140.4514  143.6975 LP  0  0  0  0  0  0  0  0  0  0  0  0  # atno 17321 bound_to 7965
  140.7745  143.5220  150.9525 LP  0  0  0  0  0  0  0  0  0  0  0  0  # atno 17342 bound_to 10162
  139.8906  143.6958  152.3146 LP  0  0  0  0  0  0  0  0  0  0  0  0  # atno 17343 bound_to 10162
  157.0489  131.0057  151.3260 LP  0  0  0  0  0  0  0  0  0  0  0  0  # atno 17370 bound_to 10713
  157.5155  130.7965  149.7751 LP  0  0  0  0  0  0  0  0  0  0  0  0  # atno 17371 bound_to 10713
  141.2227  133.7099  156.8275 LP  0  0  0  0  0  0  0  0  0  0  0  0  # atno 17394 bound_to 11000
  140.2043  134.8874  157.3204 LP  0  0  0  0  0  0  0  0  0  0  0  0  # atno 17395 bound_to 11000

$$$$
