AV-unprocessed.smi:3151|AV-procd|sdf|12015|dock7
  -GOLD-   2272017423D 1   1.00000     0.00000
 Structure written by MMmdl.
 36 37  0  0  0  0  0  0  0  0  2 V2000
  150.6206  139.9936  158.1260 O   0  0  0  0  0  0  0  0  0  0  0  0
  151.2665  140.8404  157.5081 C   0  0  0  0  0  0  0  0  0  0  0  0
  152.3398  141.6698  158.2211 C   0  0  0  0  0  0  0  0  0  0  0  0
  151.7710  142.8915  158.9731 C   0  0  0  0  0  0  0  0  0  0  0  0
  151.7759  144.2007  158.1717 C   0  0  0  0  0  0  0  0  0  0  0  0
  151.7670  145.3286  159.2131 C   0  0  0  0  0  0  0  0  0  0  0  0
  152.1221  144.6807  160.5592 C   0  0  0  0  0  0  0  0  0  0  0  0
  152.5599  143.2515  160.2334 C   0  0  0  0  0  0  0  0  0  0  0  0
  151.0877  141.0894  156.2014 N   0  0  0  0  0  0  0  0  0  0  0  0
  150.1088  140.4196  155.3539 C   0  0  0  0  0  0  0  0  0  0  0  0
  149.5139  141.3794  154.3104 C   0  0  0  0  0  0  0  0  0  0  0  0
  148.0541  141.2865  154.2627 N   0  0  0  0  0  0  0  0  0  0  0  0
  147.1504  141.9398  155.0605 C   0  0  0  0  0  0  0  0  0  0  0  0
  145.9055  141.5361  154.6510 C   0  0  0  0  0  0  0  0  0  0  0  0
  146.1026  140.6536  153.6227 N   0  3  0  0  0  0  0  0  0  0  0  0
  147.4102  140.5025  153.3887 C   0  0  0  0  0  0  0  0  0  0  0  0
  152.8553  141.0158  158.9251 H   0  0  0  0  0  0  0  0  0  0  0  0
  153.0901  141.9975  157.4996 H   0  0  0  0  0  0  0  0  0  0  0  0
  150.7440  142.6809  159.2777 H   0  0  0  0  0  0  0  0  0  0  0  0
  152.6881  144.2679  157.5769 H   0  0  0  0  0  0  0  0  0  0  0  0
  150.9323  144.2693  157.4840 H   0  0  0  0  0  0  0  0  0  0  0  0
  152.4850  146.1041  158.9437 H   0  0  0  0  0  0  0  0  0  0  0  0
  150.7851  145.8000  159.2691 H   0  0  0  0  0  0  0  0  0  0  0  0
  152.8934  145.2336  161.0961 H   0  0  0  0  0  0  0  0  0  0  0  0
  151.2360  144.6545  161.1950 H   0  0  0  0  0  0  0  0  0  0  0  0
  152.3737  142.5614  161.0571 H   0  0  0  0  0  0  0  0  0  0  0  0
  153.6304  143.2367  160.0225 H   0  0  0  0  0  0  0  0  0  0  0  0
  151.6616  141.7993  155.7693 H   0  0  0  0  0  0  0  0  0  0  0  0
  150.5699  139.5592  154.8654 H   0  0  0  0  0  0  0  0  0  0  0  0
  149.3171  140.0253  155.9917 H   0  0  0  0  0  0  0  0  0  0  0  0
  149.7788  142.4125  154.5397 H   0  0  0  0  0  0  0  0  0  0  0  0
  149.8978  141.1636  153.3120 H   0  0  0  0  0  0  0  0  0  0  0  0
  147.4522  142.6245  155.8398 H   0  0  0  0  0  0  0  0  0  0  0  0
  144.9202  141.8030  155.0054 H   0  0  0  0  0  0  0  0  0  0  0  0
  147.8580  139.8707  152.6419 H   0  0  0  0  0  0  0  0  0  0  0  0
  145.3670  140.1814  153.1121 H   0  0  0  0  0  0  0  0  0  0  0  0
  1  2  2  0  0  0  0
  2  3  1  0  0  0  0
  2  9  1  0  0  0  0
  3  4  1  0  0  0  0
  3 17  1  0  0  0  0
  3 18  1  0  0  0  0
  4  8  1  0  0  0  0
  4  5  1  0  0  0  0
  4 19  1  0  0  0  0
  5  6  1  0  0  0  0
  5 20  1  0  0  0  0
  5 21  1  0  0  0  0
  6  7  1  0  0  0  0
  6 22  1  0  0  0  0
  6 23  1  0  0  0  0
  7  8  1  0  0  0  0
  7 24  1  0  0  0  0
  7 25  1  0  0  0  0
  8 26  1  0  0  0  0
  8 27  1  0  0  0  0
  9 10  1  0  0  0  0
  9 28  1  0  0  0  0
 10 11  1  0  0  0  0
 10 29  1  0  0  0  0
 10 30  1  0  0  0  0
 11 12  1  0  0  0  0
 11 31  1  0  0  0  0
 11 32  1  0  0  0  0
 12 16  1  0  0  0  0
 12 13  1  0  0  0  0
 13 14  2  0  0  0  0
 13 33  1  0  0  0  0
 14 15  1  0  0  0  0
 14 34  1  0  0  0  0
 15 16  2  0  0  0  0
 15 36  1  0  0  0  0
 16 35  1  0  0  0  0
M  CHG  1  15   1
M  END
> <s_m_source_file>
AV-unprocessed.smi

> <i_m_source_file_index>
3151

> <i_lp_mmshare_version>
43012

> <i_f3d_flags>
0

> <s_epik_input>
W0NIMl0xW0NIMl1bQ0gyXVtDSDJdW0NIXTFbQ0gyXUMoPU8pW05IXVtDSDJdW0NIMl1uMltjSF1bY0hdbltjSF0y

> <s_epik_cmdline>
J2VwaWtfcHl0aG9uJywgJy1waCcsICc3LjAnLCAnLXRuJywgJzgnLCAnLW1hJywgJzIwMCcsICctbWV0YWxfYmluZGluZycsICctaW1hZScsICc8aW5maWxlLm1hZT4nLCAnLW9tYWUnLCAnPG91dGZpbGUubWFlPic=

> <r_lp_tautomer_probability>
1

> <r_epik_Ionization_Penalty>
0.269485

> <r_epik_Ionization_Penalty_Charging>
0

> <r_epik_Ionization_Penalty_Neutral>
0.269485

> <r_epik_State_Penalty>
0.261564

> <r_epik_Charging_Adjusted_Penalty>
0.261564

> <i_epik_Tot_Q>
1

> <i_epik_Tot_abs_Q>
1

> <r_epik_Metal_State_Penalty>
0.546677

> <b_epik_Metal_Only>
0

> <s_lp_Force_Field>
OPLS_2005

> <r_lp_Energy>
22.4511

> <b_lp_Chiralities_Consistent>
1

> <s_lp_Variant>
AV-unprocessed.smi:3151-1

> <Gold.Version>
5.8.1

> <Gold.Id.Protein>
6NUR|6NUR_protein|mol2

> <Gold.PLP.Fitness>
45.8326

> <Gold.PLP.PLP>
-37.0921

> <Gold.PLP.part.hbond>
-1.0000

> <Gold.PLP.part.metal>
0.0000

> <Gold.PLP.part.buried>
-2.2115

> <Gold.PLP.part.nonpolar>
-33.6465

> <Gold.PLP.part.repulsive>
0.1016

> <Gold.PLP.ligand.clash>
0.0000

> <Gold.PLP.ligand.torsion>
1.6171

> <Gold.PLP.Chemscore.Hbond>
2.0000

> <Gold.PLP.Chemscore.CHOScore>
1.9836

> <Gold.PLP.Chemscore.Metal>
0.0000

> <Gold.Chemscore.Hbonds>
donor molecule, donor type, donor heavy atom, donor atom, acceptor molecule, acceptor atom, score
      L1  H    15    36       P1 10175  1.60
      L1  C    13    33       P1  8028  0.98
      L1  C    16    35       P1  7957  1.00

> <Gold.PLP.Chemscore.Internal.Correction>
0.0238

> <Gold.Rescore>
     Score         DG    S(hbond)    S(metal)    S(lipo)     H(rot)  DE(clash)    DE(int)     intcor
     12.30     -14.10       0.96        0.00      91.66       2.08       0.61       1.19       ----

> <Gold.Chemscore.Fitness>
12.3011

> <Gold.Chemscore.DG>
-14.0995

> <Gold.Chemscore.ZeroCoef>
-5.4800

> <Gold.Chemscore.Hbond>
0.9623

> <Gold.Chemscore.Metal>
0.0000

> <Gold.Chemscore.Lipo>
91.6562

> <Gold.Chemscore.Internal_Hbond>
0.0000

> <Gold.Chemscore.DEClash>
0.6122

> <Gold.Chemscore.DEInternal>
1.1862

> <Gold.Chemscore.Rot>
2.0774

> <Gold.Chemscore.Internal.Correction>
   9.000000E+99

> <Gold.Chemscore.Hbonds>
donor molecule, donor type, donor heavy atom, donor atom, acceptor molecule, acceptor atom, score
      L1  H    15    36       P1 10175  0.79

> <Gold.Chemscore.Hbond.Weighted>
-3.2140

> <Gold.Chemscore.Metal.Weighted>
-0.0000

> <Gold.Chemscore.Lipo.Weighted>
-10.7238

> <Gold.Chemscore.Internal_Hbond.Weighted>
0.0000

> <Gold.Chemscore.DEClash.Weighted>
0.6122

> <Gold.Chemscore.DEInternal.Weighted>
1.1862

> <Gold.Chemscore.Rot.Weighted>
5.3183

> <Gold.Chemscore.Internal.Correction.Weighted>
   9.000000E+99

> <Gold.Protein.RotatedTorsions>
[ 6907 6896 6895 6894 ] final -102.12 input  -60.11 | X-H torsion
[ 7974 7965 7964 7962 ] final  -91.52 input  175.53 | X-H torsion
[ 8008 7997 7996 7995 ] final -114.74 input   59.86 | X-H torsion
[ 10167 10162 10161 10158 ] final   99.17 input  -65.29 | X-H torsion
[ 10718 10713 10712 10709 ] final -136.82 input   66.30 | X-H torsion
[ 10763 10752 10751 10750 ] final   64.86 input  -60.55 | X-H torsion
[ 11005 11000 10999 10996 ] final  -92.64 input  -57.11 | X-H torsion

> <Gold.Protein.ActiveResidues>
 VAL166  LYS551  ARG553  GLY616  TRP617  ASP618  TYR619  PRO620  LYS621  CYS622 
 ASP623  PHE694  ASN695  SER759  ASP760  ASP761  ALA762  ILE779  LEU786  VAL792 
 PHE793  MET794  SER795  GLU796  ALA797  LYS798  CYS799  TRP800  GLU811  SER814 

> <Gold.Protein.RotatedAtoms>
  150.7183  134.0629  159.3837 H   0  0  0  0  0  0  0  0  0  0  0  0  # atno 6907 bound_to 6896
  151.8610  135.0522  160.0478 H   0  0  0  0  0  0  0  0  0  0  0  0  # atno 6908 bound_to 6896
  152.2717  133.5353  159.5480 H   0  0  0  0  0  0  0  0  0  0  0  0  # atno 6909 bound_to 6896
  145.4120  140.9545  143.2229 H   0  0  0  0  0  0  0  0  0  0  0  0  # atno 7974 bound_to 7965
  155.0411  140.0392  157.2510 H   0  0  0  0  0  0  0  0  0  0  0  0  # atno 8008 bound_to 7997
  154.7216  140.2713  155.6513 H   0  0  0  0  0  0  0  0  0  0  0  0  # atno 8009 bound_to 7997
  156.2818  140.2702  156.1888 H   0  0  0  0  0  0  0  0  0  0  0  0  # atno 8010 bound_to 7997
  139.7642  144.6944  151.0248 H   0  0  0  0  0  0  0  0  0  0  0  0  # atno 10167 bound_to 10162
  156.2813  130.7322  151.1320 H   0  0  0  0  0  0  0  0  0  0  0  0  # atno 10718 bound_to 10713
  153.0073  135.5377  154.6577 H   0  0  0  0  0  0  0  0  0  0  0  0  # atno 10763 bound_to 10752
  154.5793  135.2848  155.0751 H   0  0  0  0  0  0  0  0  0  0  0  0  # atno 10764 bound_to 10752
  154.1886  135.6504  153.5106 H   0  0  0  0  0  0  0  0  0  0  0  0  # atno 10765 bound_to 10752
  141.1517  133.7834  157.0049 H   0  0  0  0  0  0  0  0  0  0  0  0  # atno 11005 bound_to 11000
  144.8302  139.5641  143.6947 LP  0  0  0  0  0  0  0  0  0  0  0  0  # atno 17320 bound_to 7965
  146.2700  139.6612  142.9303 LP  0  0  0  0  0  0  0  0  0  0  0  0  # atno 17321 bound_to 7965
  140.7809  143.4662  151.0209 LP  0  0  0  0  0  0  0  0  0  0  0  0  # atno 17342 bound_to 10162
  139.8347  143.7643  152.3180 LP  0  0  0  0  0  0  0  0  0  0  0  0  # atno 17343 bound_to 10162
  157.7315  131.0607  150.5674 LP  0  0  0  0  0  0  0  0  0  0  0  0  # atno 17370 bound_to 10713
  156.5780  130.4297  149.5990 LP  0  0  0  0  0  0  0  0  0  0  0  0  # atno 17371 bound_to 10713
  140.0916  134.9589  157.1785 LP  0  0  0  0  0  0  0  0  0  0  0  0  # atno 17394 bound_to 11000
  140.3438  134.2674  155.7208 LP  0  0  0  0  0  0  0  0  0  0  0  0  # atno 17395 bound_to 11000

$$$$
