AV-unprocessed.smi:1231|AV-procd|sdf|5161|dock2
  -GOLD-   22720 4233D 1   1.00000     0.00000
 Structure written by MMmdl.
 42 43  0  0  0  0  0  0  0  0  1 V2000
  151.8740  137.8833  154.7096 C   0  0  0  0  0  0  0  0  0  0  0  0
  150.9824  139.1057  154.4681 C   0  0  1  0  0  0  0  0  0  0  0  0
  149.5061  138.7173  154.2588 C   0  0  0  0  0  0  0  0  0  0  0  0
  148.6477  139.8898  154.1100 N   0  0  0  0  0  0  0  0  0  0  0  0
  147.2400  139.5377  153.9339 C   0  0  0  0  0  0  0  0  0  0  0  0
  146.8092  139.2918  152.4757 C   0  0  0  0  0  0  0  0  0  0  0  0
  146.9373  137.8851  152.1153 N   0  0  0  0  0  0  0  0  0  0  0  0
  145.9200  137.0149  152.0393 C   0  0  0  0  0  0  0  0  0  0  0  0
  144.7489  137.3193  152.2689 O   0  0  0  0  0  0  0  0  0  0  0  0
  146.3518  135.7908  151.6877 N   0  0  0  0  0  0  0  0  0  0  0  0
  145.5857  134.6088  151.5051 C   0  0  0  0  0  0  0  0  0  0  0  0
  146.3408  133.4256  151.3398 C   0  0  0  0  0  0  0  0  0  0  0  0
  145.6746  132.1991  151.1509 C   0  0  0  0  0  0  0  0  0  0  0  0
  144.2686  132.1873  151.1329 C   0  0  0  0  0  0  0  0  0  0  0  0
  143.5929  133.4093  151.3063 C   0  0  0  0  0  0  0  0  0  0  0  0
  144.2294  134.5857  151.4868 N   0  0  0  0  0  0  0  0  0  0  0  0
  148.8260  140.7555  155.2703 C   0  0  0  0  0  0  0  0  0  0  0  0
  150.3008  141.1496  155.4772 C   0  0  1  0  0  0  0  0  0  0  0  0
  150.5037  141.9959  156.7383 C   0  0  0  0  0  0  0  0  0  0  0  0
  151.0839  139.9657  155.5998 O   0  0  0  0  0  0  0  0  0  0  0  0
  151.8433  137.2011  153.8597 H   0  0  0  0  0  0  0  0  0  0  0  0
  151.5556  137.3314  155.5944 H   0  0  0  0  0  0  0  0  0  0  0  0
  152.9117  138.1824  154.8584 H   0  0  0  0  0  0  0  0  0  0  0  0
  151.3480  139.6370  153.5877 H   0  0  0  0  0  0  0  0  0  0  0  0
  149.4365  138.0841  153.3750 H   0  0  0  0  0  0  0  0  0  0  0  0
  149.1648  138.1158  155.1029 H   0  0  0  0  0  0  0  0  0  0  0  0
  147.0013  138.6615  154.5387 H   0  0  0  0  0  0  0  0  0  0  0  0
  146.6284  140.3492  154.3306 H   0  0  0  0  0  0  0  0  0  0  0  0
  145.7828  139.6272  152.3184 H   0  0  0  0  0  0  0  0  0  0  0  0
  147.4328  139.8590  151.7857 H   0  0  0  0  0  0  0  0  0  0  0  0
  147.8677  137.5512  151.9104 H   0  0  0  0  0  0  0  0  0  0  0  0
  147.3442  135.6926  151.5329 H   0  0  0  0  0  0  0  0  0  0  0  0
  147.4209  133.4525  151.3567 H   0  0  0  0  0  0  0  0  0  0  0  0
  146.2336  131.2840  151.0222 H   0  0  0  0  0  0  0  0  0  0  0  0
  143.7220  131.2669  150.9906 H   0  0  0  0  0  0  0  0  0  0  0  0
  142.5134  133.4442  151.3000 H   0  0  0  0  0  0  0  0  0  0  0  0
  148.2264  141.6587  155.1509 H   0  0  0  0  0  0  0  0  0  0  0  0
  148.4555  140.2527  156.1653 H   0  0  0  0  0  0  0  0  0  0  0  0
  150.6517  141.7181  154.6142 H   0  0  0  0  0  0  0  0  0  0  0  0
  149.9290  142.9209  156.6862 H   0  0  0  0  0  0  0  0  0  0  0  0
  151.5532  142.2636  156.8625 H   0  0  0  0  0  0  0  0  0  0  0  0
  150.1895  141.4555  157.6318 H   0  0  0  0  0  0  0  0  0  0  0  0
  1  2  1  0  0  0  0
  1 21  1  0  0  0  0
  1 22  1  0  0  0  0
  1 23  1  0  0  0  0
  2 20  1  0  0  0  0
  2  3  1  0  0  0  0
  2 24  1  0  0  0  0
  3  4  1  0  0  0  0
  3 25  1  0  0  0  0
  3 26  1  0  0  0  0
  4  5  1  0  0  0  0
  4 17  1  0  0  0  0
  5  6  1  0  0  0  0
  5 27  1  0  0  0  0
  5 28  1  0  0  0  0
  6  7  1  0  0  0  0
  6 29  1  0  0  0  0
  6 30  1  0  0  0  0
  7  8  1  0  0  0  0
  7 31  1  0  0  0  0
  8  9  2  0  0  0  0
  8 10  1  0  0  0  0
 10 11  1  0  0  0  0
 10 32  1  0  0  0  0
 11 16  1  0  0  0  0
 11 12  2  0  0  0  0
 12 13  1  0  0  0  0
 12 33  1  0  0  0  0
 13 14  2  0  0  0  0
 13 34  1  0  0  0  0
 14 15  1  0  0  0  0
 14 35  1  0  0  0  0
 15 16  2  0  0  0  0
 15 36  1  0  0  0  0
 17 18  1  0  0  0  0
 17 37  1  0  0  0  0
 17 38  1  0  0  0  0
 18 19  1  0  0  0  0
 18 20  1  0  0  0  0
 18 39  1  0  0  0  0
 19 40  1  0  0  0  0
 19 41  1  0  0  0  0
 19 42  1  0  0  0  0
M  END
> <s_m_source_file>
AV-unprocessed.smi

> <i_m_source_file_index>
1231

> <i_lp_mmshare_version>
43012

> <i_f3d_flags>
0

> <s_epik_input>
W0NIM11bQ0BASF0xW0NIMl1OKFtDSDJdW0NASF0oTzEpW0NIM10pW0NIMl1bQ0gyXVtOSF1DKD1PKVtOSF1jMltjSF1bY0hdW2NIXVtjSF1uMg==

> <s_epik_cmdline>
J2VwaWtfcHl0aG9uJywgJy1waCcsICc3LjAnLCAnLXRuJywgJzgnLCAnLW1hJywgJzIwMCcsICctbWV0YWxfYmluZGluZycsICctaW1hZScsICc8aW5maWxlLm1hZT4nLCAnLW9tYWUnLCAnPG91dGZpbGUubWFlPic=

> <r_epik_Ionization_Penalty>
0.266037

> <r_epik_Ionization_Penalty_Charging>
0

> <r_epik_Ionization_Penalty_Neutral>
0.266037

> <r_epik_State_Penalty>
0.257924

> <r_epik_Charging_Adjusted_Penalty>
0.257924

> <i_epik_Tot_Q>
0

> <i_epik_Tot_abs_Q>
0

> <r_epik_Metal_State_Penalty>
0.257923

> <b_epik_Metal_Only>
0

> <s_lp_Force_Field>
OPLS_2005

> <r_lp_Energy>
20.5827

> <b_lp_Chiralities_Consistent>
1

> <s_lp_Variant>
AV-unprocessed.smi:1231-2

> <Gold.Version>
5.8.1

> <Gold.Id.Protein>
6NUR|6NUR_protein|mol2

> <Gold.PLP.Fitness>
42.9948

> <Gold.PLP.PLP>
-35.5452

> <Gold.PLP.part.hbond>
-2.1642

> <Gold.PLP.part.metal>
0.0000

> <Gold.PLP.part.buried>
-4.3650

> <Gold.PLP.part.nonpolar>
-30.3894

> <Gold.PLP.part.repulsive>
2.0554

> <Gold.PLP.ligand.clash>
0.0000

> <Gold.PLP.ligand.torsion>
0.7010

> <Gold.PLP.Chemscore.Hbond>
1.9920

> <Gold.PLP.Chemscore.CHOScore>
0.9448

> <Gold.PLP.Chemscore.Metal>
0.0000

> <Gold.Chemscore.Hbonds>
donor molecule, donor type, donor heavy atom, donor atom, acceptor molecule, acceptor atom, score
      L1  H     7    31       P1  7948  0.98
      L1  H    10    32       P1  7948  1.00
      L1  C    15    36       P1 10186  0.98

> <Gold.PLP.Chemscore.Internal.Correction>
0.0414

> <Gold.Rescore>
     Score         DG    S(hbond)    S(metal)    S(lipo)     H(rot)  DE(clash)    DE(int)     intcor
     15.02     -17.67       1.91        0.00      82.97       1.52       0.62       2.03       ----

> <Gold.Chemscore.Fitness>
15.0248

> <Gold.Chemscore.DG>
-17.6732

> <Gold.Chemscore.ZeroCoef>
-5.4800

> <Gold.Chemscore.Hbond>
1.9065

> <Gold.Chemscore.Metal>
0.0000

> <Gold.Chemscore.Lipo>
82.9664

> <Gold.Chemscore.Internal_Hbond>
0.0000

> <Gold.Chemscore.DEClash>
0.6226

> <Gold.Chemscore.DEInternal>
2.0258

> <Gold.Chemscore.Rot>
1.5162

> <Gold.Chemscore.Internal.Correction>
   9.000000E+99

> <Gold.Chemscore.Hbonds>
donor molecule, donor type, donor heavy atom, donor atom, acceptor molecule, acceptor atom, score
      L1  H     7    31       P1  7948  0.93
      L1  H    10    32       P1  7948  0.95

> <Gold.Chemscore.Hbond.Weighted>
-6.3676

> <Gold.Chemscore.Metal.Weighted>
-0.0000

> <Gold.Chemscore.Lipo.Weighted>
-9.7071

> <Gold.Chemscore.Internal_Hbond.Weighted>
0.0000

> <Gold.Chemscore.DEClash.Weighted>
0.6226

> <Gold.Chemscore.DEInternal.Weighted>
2.0258

> <Gold.Chemscore.Rot.Weighted>
3.8814

> <Gold.Chemscore.Internal.Correction.Weighted>
   9.000000E+99

> <Gold.Protein.RotatedTorsions>
[ 6907 6896 6895 6894 ] final  157.12 input  -60.11 | X-H torsion
[ 7974 7965 7964 7962 ] final   29.24 input  175.53 | X-H torsion
[ 8008 7997 7996 7995 ] final  119.39 input   59.86 | X-H torsion
[ 10167 10162 10161 10158 ] final   -3.05 input  -65.29 | X-H torsion
[ 10718 10713 10712 10709 ] final  -77.27 input   66.30 | X-H torsion
[ 10763 10752 10751 10750 ] final   75.19 input  -60.55 | X-H torsion
[ 11005 11000 10999 10996 ] final   50.46 input  -57.11 | X-H torsion

> <Gold.Protein.ActiveResidues>
 VAL166  LYS551  ARG553  GLY616  TRP617  ASP618  TYR619  PRO620  LYS621  CYS622 
 ASP623  PHE694  ASN695  SER759  ASP760  ASP761  ALA762  ILE779  LEU786  VAL792 
 PHE793  MET794  SER795  GLU796  ALA797  LYS798  CYS799  TRP800  GLU811  SER814 

> <Gold.Protein.RotatedAtoms>
  152.0197  133.3894  159.4253 H   0  0  0  0  0  0  0  0  0  0  0  0  # atno 6907 bound_to 6896
  150.6891  134.3639  159.4972 H   0  0  0  0  0  0  0  0  0  0  0  0  # atno 6908 bound_to 6896
  152.1411  134.9061  160.0604 H   0  0  0  0  0  0  0  0  0  0  0  0  # atno 6909 bound_to 6896
  146.1683  139.6948  142.8986 H   0  0  0  0  0  0  0  0  0  0  0  0  # atno 7974 bound_to 7965
  156.2593  140.2854  156.0984 H   0  0  0  0  0  0  0  0  0  0  0  0  # atno 8008 bound_to 7997
  155.1386  140.0395  157.2810 H   0  0  0  0  0  0  0  0  0  0  0  0  # atno 8009 bound_to 7997
  154.6546  140.2552  155.7182 H   0  0  0  0  0  0  0  0  0  0  0  0  # atno 8010 bound_to 7997
  140.6875  143.6585  150.8287 H   0  0  0  0  0  0  0  0  0  0  0  0  # atno 10167 bound_to 10162
  156.0150  130.4487  150.3319 H   0  0  0  0  0  0  0  0  0  0  0  0  # atno 10718 bound_to 10713
  153.0638  135.4998  154.8153 H   0  0  0  0  0  0  0  0  0  0  0  0  # atno 10763 bound_to 10752
  154.6922  135.2986  154.9465 H   0  0  0  0  0  0  0  0  0  0  0  0  # atno 10764 bound_to 10752
  154.0215  135.6741  153.4826 H   0  0  0  0  0  0  0  0  0  0  0  0  # atno 10765 bound_to 10752
  140.1016  134.5074  155.8757 H   0  0  0  0  0  0  0  0  0  0  0  0  # atno 11005 bound_to 11000
  145.4409  141.0422  143.2858 LP  0  0  0  0  0  0  0  0  0  0  0  0  # atno 17320 bound_to 7965
  144.8124  139.5937  143.7023 LP  0  0  0  0  0  0  0  0  0  0  0  0  # atno 17321 bound_to 7965
  140.0294  143.5459  152.2766 LP  0  0  0  0  0  0  0  0  0  0  0  0  # atno 17342 bound_to 10162
  139.6246  144.7635  151.2665 LP  0  0  0  0  0  0  0  0  0  0  0  0  # atno 17343 bound_to 10162
  157.1417  131.0298  151.2925 LP  0  0  0  0  0  0  0  0  0  0  0  0  # atno 17370 bound_to 10713
  157.4466  130.7574  149.7115 LP  0  0  0  0  0  0  0  0  0  0  0  0  # atno 17371 bound_to 10713
  141.2107  133.6698  156.6529 LP  0  0  0  0  0  0  0  0  0  0  0  0  # atno 17394 bound_to 11000
  140.3212  134.8006  157.4254 LP  0  0  0  0  0  0  0  0  0  0  0  0  # atno 17395 bound_to 11000

$$$$
