AV-unprocessed.smi:1438|AV-procd|sdf|5867|dock1
  -GOLD-   22720 5543D 1   1.00000     0.00000
 Structure written by MMmdl.
 43 44  0  0  0  0  0  0  0  0  1 V2000
  153.9629  137.7195  161.8853 C   0  0  0  0  0  0  0  0  0  0  0  0
  154.6514  137.8921  160.5214 C   0  0  2  0  0  0  0  0  0  0  0  0
  154.7522  139.3685  160.1143 C   0  0  0  0  0  0  0  0  0  0  0  0
  155.4569  139.7106  159.1644 O   0  0  0  0  0  0  0  0  0  0  0  0
  154.0438  140.2383  160.8485 N   0  0  0  0  0  0  0  0  0  0  0  0
  154.0603  141.6820  160.6629 C   0  0  0  0  0  0  0  0  0  0  0  0
  152.9217  142.1487  159.7768 C   0  0  0  0  0  0  0  0  0  0  0  0
  152.3318  143.4153  159.9674 C   0  0  0  0  0  0  0  0  0  0  0  0
  151.2809  143.8013  159.1131 C   0  0  0  0  0  0  0  0  0  0  0  0
  150.8105  143.0200  158.1178 N   0  0  0  0  0  0  0  0  0  0  0  0
  151.3774  141.8033  157.9347 C   0  0  0  0  0  0  0  0  0  0  0  0
  150.9005  140.9941  156.8939 N   0  0  0  0  0  0  0  0  0  0  0  0
  150.0727  141.7021  155.9251 C   0  0  0  0  0  0  0  0  0  0  0  0
  149.4983  140.7082  154.9008 C   0  0  0  0  0  0  0  0  0  0  0  0
  150.5638  139.9941  154.2803 O   0  0  0  0  0  0  0  0  0  0  0  0
  151.3284  139.2475  155.2230 C   0  0  0  0  0  0  0  0  0  0  0  0
  151.9463  140.2020  156.2594 C   0  0  0  0  0  0  0  0  0  0  0  0
  152.4334  141.3274  158.7399 C   0  0  0  0  0  0  0  0  0  0  0  0
  153.7305  136.9398  159.2233 S   0  0  0  0  0  0  0  0  0  0  0  0
  154.5803  137.4286  157.6626 C   0  0  0  0  0  0  0  0  0  0  0  0
  153.9756  135.5072  159.4498 O   0  0  0  0  0  0  0  0  0  0  0  0
  152.3456  137.4325  159.1613 O   0  0  0  0  0  0  0  0  0  0  0  0
  154.4721  138.2911  162.6620 H   0  0  0  0  0  0  0  0  0  0  0  0
  153.9676  136.6736  162.1923 H   0  0  0  0  0  0  0  0  0  0  0  0
  152.9230  138.0469  161.8542 H   0  0  0  0  0  0  0  0  0  0  0  0
  155.6536  137.4661  160.5817 H   0  0  0  0  0  0  0  0  0  0  0  0
  153.4806  139.8826  161.6073 H   0  0  0  0  0  0  0  0  0  0  0  0
  154.0014  142.1792  161.6328 H   0  0  0  0  0  0  0  0  0  0  0  0
  155.0063  141.9778  160.2072 H   0  0  0  0  0  0  0  0  0  0  0  0
  152.6724  144.0760  160.7513 H   0  0  0  0  0  0  0  0  0  0  0  0
  150.8061  144.7640  159.2311 H   0  0  0  0  0  0  0  0  0  0  0  0
  149.2634  142.2206  156.4405 H   0  0  0  0  0  0  0  0  0  0  0  0
  150.6673  142.4585  155.4109 H   0  0  0  0  0  0  0  0  0  0  0  0
  148.8089  140.0105  155.3789 H   0  0  0  0  0  0  0  0  0  0  0  0
  148.9334  141.2407  154.1355 H   0  0  0  0  0  0  0  0  0  0  0  0
  150.6973  138.5017  155.7092 H   0  0  0  0  0  0  0  0  0  0  0  0
  152.1134  138.7056  154.6955 H   0  0  0  0  0  0  0  0  0  0  0  0
  152.6641  140.8635  155.7719 H   0  0  0  0  0  0  0  0  0  0  0  0
  152.4911  139.6345  157.0147 H   0  0  0  0  0  0  0  0  0  0  0  0
  152.8613  140.3514  158.5608 H   0  0  0  0  0  0  0  0  0  0  0  0
  154.1687  136.8517  156.8347 H   0  0  0  0  0  0  0  0  0  0  0  0
  155.6478  137.2267  157.7465 H   0  0  0  0  0  0  0  0  0  0  0  0
  154.4216  138.4889  157.4681 H   0  0  0  0  0  0  0  0  0  0  0  0
  1  2  1  0  0  0  0
  1 23  1  0  0  0  0
  1 24  1  0  0  0  0
  1 25  1  0  0  0  0
  2  3  1  0  0  0  0
  2 19  1  0  0  0  0
  2 26  1  0  0  0  0
  3  4  2  0  0  0  0
  3  5  1  0  0  0  0
  5  6  1  0  0  0  0
  5 27  1  0  0  0  0
  6  7  1  0  0  0  0
  6 28  1  0  0  0  0
  6 29  1  0  0  0  0
  7 18  1  0  0  0  0
  7  8  2  0  0  0  0
  8  9  1  0  0  0  0
  8 30  1  0  0  0  0
  9 10  2  0  0  0  0
  9 31  1  0  0  0  0
 10 11  1  0  0  0  0
 11 12  1  0  0  0  0
 11 18  2  0  0  0  0
 12 17  1  0  0  0  0
 12 13  1  0  0  0  0
 13 14  1  0  0  0  0
 13 32  1  0  0  0  0
 13 33  1  0  0  0  0
 14 15  1  0  0  0  0
 14 34  1  0  0  0  0
 14 35  1  0  0  0  0
 15 16  1  0  0  0  0
 16 17  1  0  0  0  0
 16 36  1  0  0  0  0
 16 37  1  0  0  0  0
 17 38  1  0  0  0  0
 17 39  1  0  0  0  0
 18 40  1  0  0  0  0
 19 20  1  0  0  0  0
 19 21  2  0  0  0  0
 19 22  2  0  0  0  0
 20 41  1  0  0  0  0
 20 42  1  0  0  0  0
 20 43  1  0  0  0  0
M  END
> <s_m_source_file>
AV-unprocessed.smi

> <i_m_source_file_index>
1438

> <i_lp_mmshare_version>
43012

> <i_f3d_flags>
0

> <s_epik_input>
W0NIM11TKD1PKSg9TylbQ0BIXShbQ0gzXSlDKD1PKVtOSF1bQ0gyXWMxW2NIXVtjSF1uYyhbY0hdMSlOMltDSDJdW0NIMl1PW0NIMl1bQ0gyXTI=

> <s_epik_cmdline>
J2VwaWtfcHl0aG9uJywgJy1waCcsICc3LjAnLCAnLXRuJywgJzgnLCAnLW1hJywgJzIwMCcsICctbWV0YWxfYmluZGluZycsICctaW1hZScsICc8aW5maWxlLm1hZT4nLCAnLW9tYWUnLCAnPG91dGZpbGUubWFlPic=

> <r_lp_tautomer_probability>
1

> <r_epik_Ionization_Penalty>
0.00387635

> <r_epik_Ionization_Penalty_Charging>
0

> <r_epik_Ionization_Penalty_Neutral>
0.00387635

> <r_epik_State_Penalty>
0.0027681

> <r_epik_Charging_Adjusted_Penalty>
0.0027681

> <i_epik_Tot_Q>
0

> <i_epik_Tot_abs_Q>
0

> <r_epik_Metal_State_Penalty>
-0

> <b_epik_Metal_Only>
0

> <s_lp_Force_Field>
OPLS_2005

> <r_lp_Energy>
15.2281

> <b_lp_Chiralities_Consistent>
1

> <s_lp_Variant>
AV-unprocessed.smi:1438-1

> <Gold.Version>
5.8.1

> <Gold.Id.Protein>
6NUR|6NUR_protein|mol2

> <Gold.PLP.Fitness>
45.1666

> <Gold.PLP.PLP>
-39.7928

> <Gold.PLP.part.hbond>
-3.0000

> <Gold.PLP.part.metal>
0.0000

> <Gold.PLP.part.buried>
-6.3698

> <Gold.PLP.part.nonpolar>
-31.4123

> <Gold.PLP.part.repulsive>
0.3016

> <Gold.PLP.ligand.clash>
0.9050

> <Gold.PLP.ligand.torsion>
1.5206

> <Gold.PLP.Chemscore.Hbond>
3.0000

> <Gold.PLP.Chemscore.CHOScore>
0.0000

> <Gold.PLP.Chemscore.Metal>
0.0000

> <Gold.Chemscore.Hbonds>
donor molecule, donor type, donor heavy atom, donor atom, acceptor molecule, acceptor atom, score
      P1  H  6896  6907       L1    21  0.99
      P1  H  7989  7998       L1    15  1.00
      P1  H  7997  8010       L1     4  1.00

> <Gold.PLP.Chemscore.Internal.Correction>
0.3198

> <Gold.Rescore>
     Score         DG    S(hbond)    S(metal)    S(lipo)     H(rot)  DE(clash)    DE(int)     intcor
     17.75     -20.18       2.64        0.00      95.78       2.08       0.00       2.43       ----

> <Gold.Chemscore.Fitness>
17.7494

> <Gold.Chemscore.DG>
-20.1809

> <Gold.Chemscore.ZeroCoef>
-5.4800

> <Gold.Chemscore.Hbond>
2.6379

> <Gold.Chemscore.Metal>
0.0000

> <Gold.Chemscore.Lipo>
95.7760

> <Gold.Chemscore.Internal_Hbond>
0.0000

> <Gold.Chemscore.DEClash>
0.0015

> <Gold.Chemscore.DEInternal>
2.4301

> <Gold.Chemscore.Rot>
2.0764

> <Gold.Chemscore.Internal.Correction>
   9.000000E+99

> <Gold.Chemscore.Hbonds>
donor molecule, donor type, donor heavy atom, donor atom, acceptor molecule, acceptor atom, score
      P1  H  6896  6907       L1    21  0.47
      P1  H  7989  7998       L1    15  0.45
      P1  H  7997  8010       L1     4  0.99

> <Gold.Chemscore.Hbond.Weighted>
-8.8107

> <Gold.Chemscore.Metal.Weighted>
-0.0000

> <Gold.Chemscore.Lipo.Weighted>
-11.2058

> <Gold.Chemscore.Internal_Hbond.Weighted>
0.0000

> <Gold.Chemscore.DEClash.Weighted>
0.0015

> <Gold.Chemscore.DEInternal.Weighted>
2.4301

> <Gold.Chemscore.Rot.Weighted>
5.3155

> <Gold.Chemscore.Internal.Correction.Weighted>
   9.000000E+99

> <Gold.Protein.RotatedTorsions>
[ 6907 6896 6895 6894 ] final   47.61 input  -60.11 | X-H torsion
[ 7974 7965 7964 7962 ] final   90.48 input  175.53 | X-H torsion
[ 8008 7997 7996 7995 ] final  -24.87 input   59.86 | X-H torsion
[ 10167 10162 10161 10158 ] final  -63.02 input  -65.29 | X-H torsion
[ 10718 10713 10712 10709 ] final  156.95 input   66.30 | X-H torsion
[ 10763 10752 10751 10750 ] final  164.54 input  -60.55 | X-H torsion
[ 11005 11000 10999 10996 ] final -120.15 input  -57.11 | X-H torsion

> <Gold.Protein.ActiveResidues>
 VAL166  LYS551  ARG553  GLY616  TRP617  ASP618  TYR619  PRO620  LYS621  CYS622 
 ASP623  PHE694  ASN695  SER759  ASP760  ASP761  ALA762  ILE779  LEU786  VAL792 
 PHE793  MET794  SER795  GLU796  ALA797  LYS798  CYS799  TRP800  GLU811  SER814 

> <Gold.Protein.RotatedAtoms>
  152.2700  134.7942  160.0415 H   0  0  0  0  0  0  0  0  0  0  0  0  # atno 6907 bound_to 6896
  151.8558  133.3443  159.3696 H   0  0  0  0  0  0  0  0  0  0  0  0  # atno 6908 bound_to 6896
  150.7148  134.5182  159.5685 H   0  0  0  0  0  0  0  0  0  0  0  0  # atno 6909 bound_to 6896
  145.5184  139.2278  143.2685 H   0  0  0  0  0  0  0  0  0  0  0  0  # atno 7974 bound_to 7965
  154.4506  140.1942  156.0531 H   0  0  0  0  0  0  0  0  0  0  0  0  # atno 8008 bound_to 7997
  156.0639  140.3293  155.7467 H   0  0  0  0  0  0  0  0  0  0  0  0  # atno 8009 bound_to 7997
  155.5368  140.0583  157.2869 H   0  0  0  0  0  0  0  0  0  0  0  0  # atno 8010 bound_to 7997
  140.5899  143.2340  151.6161 H   0  0  0  0  0  0  0  0  0  0  0  0  # atno 10167 bound_to 10162
  157.1980  131.0670  151.2041 H   0  0  0  0  0  0  0  0  0  0  0  0  # atno 10718 bound_to 10713
  154.3105  135.2757  155.2568 H   0  0  0  0  0  0  0  0  0  0  0  0  # atno 10763 bound_to 10752
  154.4965  135.5819  153.6502 H   0  0  0  0  0  0  0  0  0  0  0  0  # atno 10764 bound_to 10752
  152.9888  135.6147  154.3282 H   0  0  0  0  0  0  0  0  0  0  0  0  # atno 10765 bound_to 10752
  141.0164  134.0189  157.3344 H   0  0  0  0  0  0  0  0  0  0  0  0  # atno 11005 bound_to 11000
  146.2122  140.5995  142.9054 LP  0  0  0  0  0  0  0  0  0  0  0  0  # atno 17320 bound_to 7965
  144.7689  140.5594  143.6684 LP  0  0  0  0  0  0  0  0  0  0  0  0  # atno 17321 bound_to 7965
  139.5221  144.3173  152.0941 LP  0  0  0  0  0  0  0  0  0  0  0  0  # atno 17342 bound_to 10162
  140.2335  144.4343  150.6290 LP  0  0  0  0  0  0  0  0  0  0  0  0  # atno 17343 bound_to 10162
  157.3795  130.7223  149.6620 LP  0  0  0  0  0  0  0  0  0  0  0  0  # atno 17370 bound_to 10713
  155.9703  130.4176  150.4289 LP  0  0  0  0  0  0  0  0  0  0  0  0  # atno 17371 bound_to 10713
  139.9119  135.0191  156.7728 LP  0  0  0  0  0  0  0  0  0  0  0  0  # atno 17394 bound_to 11000
  140.6647  133.9613  155.7824 LP  0  0  0  0  0  0  0  0  0  0  0  0  # atno 17395 bound_to 11000

$$$$
