AV-unprocessed.smi:2305|AV-procd|sdf|9247|dock3
  -GOLD-   2272012463D 1   1.00000     0.00000
 Structure written by MMmdl.
 40 41  0  0  0  0  0  0  0  0  1 V2000
  153.1622  143.5302  159.7640 C   0  0  0  0  0  0  0  0  0  0  0  0
  152.1767  142.6976  158.9633 C   0  0  0  0  0  0  0  0  0  0  0  0
  151.4035  143.4025  158.0368 N   0  0  0  0  0  0  0  0  0  0  0  0
  150.5443  142.7746  157.3028 C   0  0  0  0  0  0  0  0  0  0  0  0
  150.3588  141.3850  157.4070 N   0  0  0  0  0  0  0  0  0  0  0  0
  149.3521  140.7838  156.5128 C   0  0  0  0  0  0  0  0  0  0  0  0
  149.6615  140.9999  155.0130 C   0  0  1  0  0  0  0  0  0  0  0  0
  150.7260  140.1378  154.6669 O   0  0  0  0  0  0  0  0  0  0  0  0
  148.4660  140.7155  154.0809 C   0  0  0  0  0  0  0  0  0  0  0  0
  147.3368  141.7152  154.2552 C   0  0  0  0  0  0  0  0  0  0  0  0
  146.9301  142.5178  153.1697 C   0  0  0  0  0  0  0  0  0  0  0  0
  145.8817  143.4449  153.3266 C   0  0  0  0  0  0  0  0  0  0  0  0
  145.2314  143.5816  154.5730 C   0  0  0  0  0  0  0  0  0  0  0  0
  144.0942  144.5748  154.7616 C   0  0  0  0  0  0  0  0  0  0  0  0
  142.9787  143.9134  155.0681 F   0  0  0  0  0  0  0  0  0  0  0  0
  144.3836  145.4135  155.7568 F   0  0  0  0  0  0  0  0  0  0  0  0
  143.8752  145.2926  153.6593 F   0  0  0  0  0  0  0  0  0  0  0  0
  145.6393  142.7738  155.6559 C   0  0  0  0  0  0  0  0  0  0  0  0
  146.6872  141.8460  155.4996 C   0  0  0  0  0  0  0  0  0  0  0  0
  151.0570  140.6258  158.3007 C   0  0  0  0  0  0  0  0  0  0  0  0
  150.8701  139.4120  158.4036 O   0  0  0  0  0  0  0  0  0  0  0  0
  152.0399  141.3527  159.1203 C   0  0  0  0  0  0  0  0  0  0  0  0
  152.8582  140.5313  160.1086 C   0  0  0  0  0  0  0  0  0  0  0  0
  152.9618  143.4389  160.8317 H   0  0  0  0  0  0  0  0  0  0  0  0
  153.0947  144.5866  159.5018 H   0  0  0  0  0  0  0  0  0  0  0  0
  154.1839  143.2025  159.5708 H   0  0  0  0  0  0  0  0  0  0  0  0
  149.9226  143.2802  156.5622 H   0  0  0  0  0  0  0  0  0  0  0  0
  149.2995  139.7132  156.7216 H   0  0  0  0  0  0  0  0  0  0  0  0
  148.3482  141.1543  156.7311 H   0  0  0  0  0  0  0  0  0  0  0  0
  150.0036  142.0242  154.8635 H   0  0  0  0  0  0  0  0  0  0  0  0
  150.4457  139.2459  154.8064 H   0  0  0  0  0  0  0  0  0  0  0  0
  148.7885  140.6842  153.0391 H   0  0  0  0  0  0  0  0  0  0  0  0
  148.0472  139.7325  154.2944 H   0  0  0  0  0  0  0  0  0  0  0  0
  147.4204  142.4220  152.2116 H   0  0  0  0  0  0  0  0  0  0  0  0
  145.5823  144.0475  152.4820 H   0  0  0  0  0  0  0  0  0  0  0  0
  145.1457  142.8647  156.6124 H   0  0  0  0  0  0  0  0  0  0  0  0
  146.9882  141.2339  156.3373 H   0  0  0  0  0  0  0  0  0  0  0  0
  153.4221  139.7614  159.5810 H   0  0  0  0  0  0  0  0  0  0  0  0
  152.1998  140.0377  160.8241 H   0  0  0  0  0  0  0  0  0  0  0  0
  153.5707  141.1276  160.6758 H   0  0  0  0  0  0  0  0  0  0  0  0
  1  2  1  0  0  0  0
  1 24  1  0  0  0  0
  1 25  1  0  0  0  0
  1 26  1  0  0  0  0
  2 22  2  0  0  0  0
  2  3  1  0  0  0  0
  3  4  2  0  0  0  0
  4  5  1  0  0  0  0
  4 27  1  0  0  0  0
  5  6  1  0  0  0  0
  5 20  1  0  0  0  0
  6  7  1  0  0  0  0
  6 28  1  0  0  0  0
  6 29  1  0  0  0  0
  7  8  1  0  0  0  0
  7  9  1  0  0  0  0
  7 30  1  0  0  0  0
  8 31  1  0  0  0  0
  9 10  1  0  0  0  0
  9 32  1  0  0  0  0
  9 33  1  0  0  0  0
 10 19  1  0  0  0  0
 10 11  2  0  0  0  0
 11 12  1  0  0  0  0
 11 34  1  0  0  0  0
 12 13  2  0  0  0  0
 12 35  1  0  0  0  0
 13 14  1  0  0  0  0
 13 18  1  0  0  0  0
 14 15  1  0  0  0  0
 14 16  1  0  0  0  0
 14 17  1  0  0  0  0
 18 19  2  0  0  0  0
 18 36  1  0  0  0  0
 19 37  1  0  0  0  0
 20 21  2  0  0  0  0
 20 22  1  0  0  0  0
 22 23  1  0  0  0  0
 23 38  1  0  0  0  0
 23 39  1  0  0  0  0
 23 40  1  0  0  0  0
M  END
> <s_m_source_file>
AV-unprocessed.smi

> <i_m_source_file_index>
2305

> <i_lp_mmshare_version>
43012

> <i_f3d_flags>
0

> <s_epik_input>
W0NIM11jMW5bY0hdbihjKD1PKWMxW0NIM10pW0NIMl1bQ0BIXShbT0hdKVtDSDJdYzJbY0hdW2NIXWMoQyhGKShGKUYpW2NIXVtjSF0y

> <s_epik_cmdline>
J2VwaWtfcHl0aG9uJywgJy1waCcsICc3LjAnLCAnLXRuJywgJzgnLCAnLW1hJywgJzIwMCcsICctbWV0YWxfYmluZGluZycsICctaW1hZScsICc8aW5maWxlLm1hZT4nLCAnLW9tYWUnLCAnPG91dGZpbGUubWFlPic=

> <r_lp_tautomer_probability>
1

> <r_epik_Ionization_Penalty>
8.92636e-05

> <r_epik_Ionization_Penalty_Charging>
8.63033e-08

> <r_epik_Ionization_Penalty_Neutral>
8.91773e-05

> <r_epik_State_Penalty>
-0

> <r_epik_Charging_Adjusted_Penalty>
8.63033e-08

> <i_epik_Tot_Q>
0

> <i_epik_Tot_abs_Q>
0

> <r_epik_Metal_State_Penalty>
-0

> <b_epik_Metal_Only>
0

> <s_lp_Force_Field>
OPLS_2005

> <r_lp_Energy>
18.7292

> <b_lp_Chiralities_Consistent>
1

> <s_lp_Variant>
AV-unprocessed.smi:2305-2

> <Gold.Version>
5.8.1

> <Gold.Id.Protein>
6NUR|6NUR_protein|mol2

> <Gold.PLP.Fitness>
49.9215

> <Gold.PLP.PLP>
-44.1676

> <Gold.PLP.part.hbond>
-1.0000

> <Gold.PLP.part.metal>
0.0000

> <Gold.PLP.part.buried>
-8.2834

> <Gold.PLP.part.nonpolar>
-35.0384

> <Gold.PLP.part.repulsive>
0.0705

> <Gold.PLP.ligand.clash>
0.0794

> <Gold.PLP.ligand.torsion>
0.1615

> <Gold.PLP.Chemscore.Hbond>
1.0000

> <Gold.PLP.Chemscore.CHOScore>
1.0000

> <Gold.PLP.Chemscore.Metal>
0.0000

> <Gold.Chemscore.Hbonds>
donor molecule, donor type, donor heavy atom, donor atom, acceptor molecule, acceptor atom, score
      P1  H  7989  7998       L1     8  1.00
      L1  C     4    27       P1  8028  0.89

> <Gold.PLP.Chemscore.Internal.Correction>
0.1563

> <Gold.Rescore>
     Score         DG    S(hbond)    S(metal)    S(lipo)     H(rot)  DE(clash)    DE(int)     intcor
     11.82     -13.68       0.85        0.00      97.59       2.37       1.49       0.37       ----

> <Gold.Chemscore.Fitness>
11.8196

> <Gold.Chemscore.DG>
-13.6819

> <Gold.Chemscore.ZeroCoef>
-5.4800

> <Gold.Chemscore.Hbond>
0.8521

> <Gold.Chemscore.Metal>
0.0000

> <Gold.Chemscore.Lipo>
97.5937

> <Gold.Chemscore.Internal_Hbond>
0.0000

> <Gold.Chemscore.DEClash>
1.4949

> <Gold.Chemscore.DEInternal>
0.3674

> <Gold.Chemscore.Rot>
2.3681

> <Gold.Chemscore.Internal.Correction>
   9.000000E+99

> <Gold.Chemscore.Hbonds>
donor molecule, donor type, donor heavy atom, donor atom, acceptor molecule, acceptor atom, score
      P1  H  7989  7998       L1     8  0.65

> <Gold.Chemscore.Hbond.Weighted>
-2.8459

> <Gold.Chemscore.Metal.Weighted>
-0.0000

> <Gold.Chemscore.Lipo.Weighted>
-11.4185

> <Gold.Chemscore.Internal_Hbond.Weighted>
0.0000

> <Gold.Chemscore.DEClash.Weighted>
1.4949

> <Gold.Chemscore.DEInternal.Weighted>
0.3674

> <Gold.Chemscore.Rot.Weighted>
6.0624

> <Gold.Chemscore.Internal.Correction.Weighted>
   9.000000E+99

> <Gold.Protein.RotatedTorsions>
[ 6907 6896 6895 6894 ] final   27.11 input  -60.11 | X-H torsion
[ 7974 7965 7964 7962 ] final   52.16 input  175.53 | X-H torsion
[ 8008 7997 7996 7995 ] final  -85.60 input   59.86 | X-H torsion
[ 10167 10162 10161 10158 ] final  -16.58 input  -65.29 | X-H torsion
[ 10718 10713 10712 10709 ] final  152.80 input   66.30 | X-H torsion
[ 10763 10752 10751 10750 ] final   15.20 input  -60.55 | X-H torsion
[ 11005 11000 10999 10996 ] final   38.71 input  -57.11 | X-H torsion

> <Gold.Protein.ActiveResidues>
 VAL166  LYS551  ARG553  GLY616  TRP617  ASP618  TYR619  PRO620  LYS621  CYS622 
 ASP623  PHE694  ASN695  SER759  ASP760  ASP761  ALA762  ILE779  LEU786  VAL792 
 PHE793  MET794  SER795  GLU796  ALA797  LYS798  CYS799  TRP800  GLU811  SER814 

> <Gold.Protein.RotatedAtoms>
  151.9974  134.9947  160.0563 H   0  0  0  0  0  0  0  0  0  0  0  0  # atno 6907 bound_to 6896
  152.1552  133.4542  159.4841 H   0  0  0  0  0  0  0  0  0  0  0  0  # atno 6908 bound_to 6896
  150.6880  134.2058  159.4383 H   0  0  0  0  0  0  0  0  0  0  0  0  # atno 6909 bound_to 6896
  145.9841  139.4272  143.0114 H   0  0  0  0  0  0  0  0  0  0  0  0  # atno 7974 bound_to 7965
  154.6426  140.0589  156.9863 H   0  0  0  0  0  0  0  0  0  0  0  0  # atno 8008 bound_to 7997
  155.1494  140.3272  155.4416 H   0  0  0  0  0  0  0  0  0  0  0  0  # atno 8009 bound_to 7997
  156.2538  140.1950  156.6606 H   0  0  0  0  0  0  0  0  0  0  0  0  # atno 8010 bound_to 7997
  140.7236  143.5102  150.9760 H   0  0  0  0  0  0  0  0  0  0  0  0  # atno 10167 bound_to 10162
  157.2530  131.0783  151.1717 H   0  0  0  0  0  0  0  0  0  0  0  0  # atno 10718 bound_to 10713
  153.1548  135.6785  153.8829 H   0  0  0  0  0  0  0  0  0  0  0  0  # atno 10763 bound_to 10752
  153.8244  135.3126  155.3414 H   0  0  0  0  0  0  0  0  0  0  0  0  # atno 10764 bound_to 10752
  154.7889  135.4846  154.0095 H   0  0  0  0  0  0  0  0  0  0  0  0  # atno 10765 bound_to 10752
  140.2100  134.3767  155.8054 H   0  0  0  0  0  0  0  0  0  0  0  0  # atno 11005 bound_to 11000
  145.7726  140.9890  143.1141 LP  0  0  0  0  0  0  0  0  0  0  0  0  # atno 17320 bound_to 7965
  144.6870  139.9466  143.7477 LP  0  0  0  0  0  0  0  0  0  0  0  0  # atno 17321 bound_to 7965
  139.8815  143.7066  152.3156 LP  0  0  0  0  0  0  0  0  0  0  0  0  # atno 17342 bound_to 10162
  139.7350  144.7573  151.0742 LP  0  0  0  0  0  0  0  0  0  0  0  0  # atno 17343 bound_to 10162
  157.3257  130.6960  149.6295 LP  0  0  0  0  0  0  0  0  0  0  0  0  # atno 17370 bound_to 10713
  155.9665  130.4322  150.4953 LP  0  0  0  0  0  0  0  0  0  0  0  0  # atno 17371 bound_to 10713
  141.2226  133.7138  156.8401 LP  0  0  0  0  0  0  0  0  0  0  0  0  # atno 17394 bound_to 11000
  140.1961  134.8930  157.3116 LP  0  0  0  0  0  0  0  0  0  0  0  0  # atno 17395 bound_to 11000

$$$$
