AV-unprocessed.smi:2855|AV-procd|sdf|10991|dock5
  -GOLD-   2272015443D 1   1.00000     0.00000
 Structure written by MMmdl.
 46 47  0  0  0  0  0  0  0  0  2 V2000
  150.6055  142.2554  157.9925 C   0  0  0  0  0  0  0  0  0  0  0  0
  150.9281  140.8418  157.4886 C   0  0  2  0  0  0  0  0  0  0  0  0
  151.5290  140.8723  156.0684 C   0  0  0  0  0  0  0  0  0  0  0  0
  151.7818  139.4539  155.5229 C   0  0  0  0  0  0  0  0  0  0  0  0
  150.4917  138.5950  155.5091 C   0  0  2  0  0  0  0  0  0  0  0  0
  149.4399  139.0784  154.4486 C   0  0  0  0  0  0  0  0  0  0  0  0
  148.8794  140.4897  154.7149 C   0  0  0  0  0  0  0  0  0  0  0  0
  148.2463  138.1096  154.3227 C   0  0  0  0  0  0  0  0  0  0  0  0
  150.0115  138.5239  156.9919 C   0  0  2  0  0  0  0  0  0  0  0  0
  148.9069  137.6009  157.2347 N   0  0  0  0  0  0  0  0  0  0  0  0
  148.8971  136.6160  158.1460 C   0  0  0  0  0  0  0  0  0  0  0  0
  149.8454  136.3838  158.8975 O   0  0  0  0  0  0  0  0  0  0  0  0
  147.6231  135.7600  158.1813 C   0  0  0  0  0  0  0  0  0  0  0  0
  147.2140  135.3682  159.5397 N   0  0  0  0  0  0  0  0  0  0  0  0
  146.9274  134.0104  159.7657 C   0  0  0  0  0  0  0  0  0  0  0  0
  146.5494  133.5557  160.9755 C   0  0  0  0  0  0  0  0  0  0  0  0
  146.4401  134.5131  162.0692 C   0  0  0  0  0  0  0  0  0  0  0  0
  146.0893  134.1171  163.1790 O   0  0  0  0  0  0  0  0  0  0  0  0
  146.7361  135.8189  161.8016 N   0  5  0  0  0  0  0  0  0  0  0  0
  147.1234  136.2663  160.5667 C   0  0  0  0  0  0  0  0  0  0  0  0
  147.3907  137.4485  160.3483 O   0  0  0  0  0  0  0  0  0  0  0  0
  149.6906  139.9233  157.5503 C   0  0  0  0  0  0  0  0  0  0  0  0
  149.8591  142.7399  157.3620 H   0  0  0  0  0  0  0  0  0  0  0  0
  151.4964  142.8838  157.9963 H   0  0  0  0  0  0  0  0  0  0  0  0
  150.2155  142.2300  159.0102 H   0  0  0  0  0  0  0  0  0  0  0  0
  151.6824  140.4217  158.1558 H   0  0  0  0  0  0  0  0  0  0  0  0
  150.8664  141.4154  155.3943 H   0  0  0  0  0  0  0  0  0  0  0  0
  152.4675  141.4273  156.0797 H   0  0  0  0  0  0  0  0  0  0  0  0
  152.2483  139.5017  154.5405 H   0  0  0  0  0  0  0  0  0  0  0  0
  152.5262  138.9668  156.1542 H   0  0  0  0  0  0  0  0  0  0  0  0
  150.7949  137.5905  155.2113 H   0  0  0  0  0  0  0  0  0  0  0  0
  149.9140  139.1109  153.4684 H   0  0  0  0  0  0  0  0  0  0  0  0
  148.5408  140.5968  155.7459 H   0  0  0  0  0  0  0  0  0  0  0  0
  148.0308  140.7103  154.0667 H   0  0  0  0  0  0  0  0  0  0  0  0
  149.6149  141.2657  154.5109 H   0  0  0  0  0  0  0  0  0  0  0  0
  147.7771  137.9295  155.2904 H   0  0  0  0  0  0  0  0  0  0  0  0
  148.5416  137.1488  153.9032 H   0  0  0  0  0  0  0  0  0  0  0  0
  147.4816  138.5060  153.6542 H   0  0  0  0  0  0  0  0  0  0  0  0
  150.8425  138.1405  157.5882 H   0  0  0  0  0  0  0  0  0  0  0  0
  148.0839  137.7183  156.6618 H   0  0  0  0  0  0  0  0  0  0  0  0
  146.8175  136.2996  157.6803 H   0  0  0  0  0  0  0  0  0  0  0  0
  147.7919  134.8705  157.5725 H   0  0  0  0  0  0  0  0  0  0  0  0
  147.0401  133.3678  158.9047 H   0  0  0  0  0  0  0  0  0  0  0  0
  146.3366  132.5086  161.1335 H   0  0  0  0  0  0  0  0  0  0  0  0
  149.3601  139.8369  158.5863 H   0  0  0  0  0  0  0  0  0  0  0  0
  148.8591  140.3692  157.0041 H   0  0  0  0  0  0  0  0  0  0  0  0
  1  2  1  0  0  0  0
  1 23  1  0  0  0  0
  1 24  1  0  0  0  0
  1 25  1  0  0  0  0
  2 22  1  0  0  0  0
  2  3  1  0  0  0  0
  2 26  1  0  0  0  0
  3  4  1  0  0  0  0
  3 27  1  0  0  0  0
  3 28  1  0  0  0  0
  4  5  1  0  0  0  0
  4 29  1  0  0  0  0
  4 30  1  0  0  0  0
  5  6  1  0  0  0  0
  5  9  1  0  0  0  0
  5 31  1  0  0  0  0
  6  7  1  0  0  0  0
  6  8  1  0  0  0  0
  6 32  1  0  0  0  0
  7 33  1  0  0  0  0
  7 34  1  0  0  0  0
  7 35  1  0  0  0  0
  8 36  1  0  0  0  0
  8 37  1  0  0  0  0
  8 38  1  0  0  0  0
  9 10  1  0  0  0  0
  9 22  1  0  0  0  0
  9 39  1  0  0  0  0
 10 11  1  0  0  0  0
 10 40  1  0  0  0  0
 11 12  2  0  0  0  0
 11 13  1  0  0  0  0
 13 14  1  0  0  0  0
 13 41  1  0  0  0  0
 13 42  1  0  0  0  0
 14 20  1  0  0  0  0
 14 15  1  0  0  0  0
 15 16  2  0  0  0  0
 15 43  1  0  0  0  0
 16 17  1  0  0  0  0
 16 44  1  0  0  0  0
 17 18  2  0  0  0  0
 17 19  1  0  0  0  0
 19 20  1  0  0  0  0
 20 21  2  0  0  0  0
 22 45  1  0  0  0  0
 22 46  1  0  0  0  0
M  CHG  1  19  -1
M  END
> <s_m_source_file>
AV-unprocessed.smi

> <i_m_source_file_index>
2855

> <i_lp_mmshare_version>
43012

> <i_f3d_flags>
0

> <s_epik_input>
W0NIM11bQ0BASF0xW0NIMl1bQ0gyXVtDQEBIXShbQ0hdKFtDSDNdKVtDSDNdKVtDQEhdKFtDSDJdMSlbTkhdQyg9TylbQ0gyXW4yW2NIXVtjSF1jKD1PKVtuSF1jMj1P

> <s_epik_cmdline>
J2VwaWtfcHl0aG9uJywgJy1waCcsICc3LjAnLCAnLXRuJywgJzgnLCAnLW1hJywgJzIwMCcsICctbWV0YWxfYmluZGluZycsICctaW1hZScsICc8aW5maWxlLm1hZT4nLCAnLW9tYWUnLCAnPG91dGZpbGUubWFlPic=

> <r_lp_tautomer_probability>
0.999537

> <r_epik_Ionization_Penalty>
3.12102

> <r_epik_Ionization_Penalty_Charging>
2.9581e-08

> <r_epik_Ionization_Penalty_Neutral>
3.12102

> <r_epik_State_Penalty>
3.12011

> <r_epik_Charging_Adjusted_Penalty>
3.12011

> <i_epik_Tot_Q>
-1

> <i_epik_Tot_abs_Q>
1

> <r_epik_Metal_State_Penalty>
0.463583

> <b_epik_Metal_Only>
1

> <s_lp_Force_Field>
OPLS_2005

> <r_lp_Energy>
28.6833

> <b_lp_Chiralities_Consistent>
1

> <s_lp_Variant>
AV-unprocessed.smi:2855-15

> <Gold.Version>
5.8.1

> <Gold.Id.Protein>
6NUR|6NUR_protein|mol2

> <Gold.PLP.Fitness>
36.5697

> <Gold.PLP.PLP>
-30.5600

> <Gold.PLP.part.hbond>
-4.0000

> <Gold.PLP.part.metal>
0.0000

> <Gold.PLP.part.buried>
-4.2926

> <Gold.PLP.part.nonpolar>
-23.2285

> <Gold.PLP.part.repulsive>
0.0462

> <Gold.PLP.ligand.clash>
0.0084

> <Gold.PLP.ligand.torsion>
0.5354

> <Gold.PLP.Chemscore.Hbond>
2.3354

> <Gold.PLP.Chemscore.CHOScore>
0.0000

> <Gold.PLP.Chemscore.Metal>
0.0000

> <Gold.Chemscore.Hbonds>
donor molecule, donor type, donor heavy atom, donor atom, acceptor molecule, acceptor atom, score
      P1  H  6896  6909       L1    12  1.00
      P1  H  6931  6943       L1    21  0.06
      P1  H  6934  6947       L1    21  1.00

> <Gold.PLP.Chemscore.Internal.Correction>
0.0827

> <Gold.Rescore>
     Score         DG    S(hbond)    S(metal)    S(lipo)     H(rot)  DE(clash)    DE(int)     intcor
     10.55     -14.94       1.98        0.00      63.93       1.81       0.34       4.05       ----

> <Gold.Chemscore.Fitness>
10.5503

> <Gold.Chemscore.DG>
-14.9383

> <Gold.Chemscore.ZeroCoef>
-5.4800

> <Gold.Chemscore.Hbond>
1.9796

> <Gold.Chemscore.Metal>
0.0000

> <Gold.Chemscore.Lipo>
63.9311

> <Gold.Chemscore.Internal_Hbond>
0.0000

> <Gold.Chemscore.DEClash>
0.3402

> <Gold.Chemscore.DEInternal>
4.0477

> <Gold.Chemscore.Rot>
1.8100

> <Gold.Chemscore.Internal.Correction>
   9.000000E+99

> <Gold.Chemscore.Hbonds>
donor molecule, donor type, donor heavy atom, donor atom, acceptor molecule, acceptor atom, score
      P1  H  6896  6909       L1    12  0.98
      P1  H  6931  6943       L1    21  0.06
      P1  H  6934  6947       L1    21  0.96

> <Gold.Chemscore.Hbond.Weighted>
-6.6118

> <Gold.Chemscore.Metal.Weighted>
-0.0000

> <Gold.Chemscore.Lipo.Weighted>
-7.4799

> <Gold.Chemscore.Internal_Hbond.Weighted>
0.0000

> <Gold.Chemscore.DEClash.Weighted>
0.3402

> <Gold.Chemscore.DEInternal.Weighted>
4.0477

> <Gold.Chemscore.Rot.Weighted>
4.6335

> <Gold.Chemscore.Internal.Correction.Weighted>
   9.000000E+99

> <Gold.Protein.RotatedTorsions>
[ 6907 6896 6895 6894 ] final   74.37 input  -60.11 | X-H torsion
[ 7974 7965 7964 7962 ] final   20.59 input  175.53 | X-H torsion
[ 8008 7997 7996 7995 ] final   20.07 input   59.86 | X-H torsion
[ 10167 10162 10161 10158 ] final  -36.29 input  -65.29 | X-H torsion
[ 10718 10713 10712 10709 ] final  -75.15 input   66.30 | X-H torsion
[ 10763 10752 10751 10750 ] final   18.13 input  -60.55 | X-H torsion
[ 11005 11000 10999 10996 ] final   56.30 input  -57.11 | X-H torsion

> <Gold.Protein.ActiveResidues>
 VAL166  LYS551  ARG553  GLY616  TRP617  ASP618  TYR619  PRO620  LYS621  CYS622 
 ASP623  PHE694  ASN695  SER759  ASP760  ASP761  ALA762  ILE779  LEU786  VAL792 
 PHE793  MET794  SER795  GLU796  ALA797  LYS798  CYS799  TRP800  GLU811  SER814 

> <Gold.Protein.RotatedAtoms>
  152.4972  134.4281  159.9502 H   0  0  0  0  0  0  0  0  0  0  0  0  # atno 6907 bound_to 6896
  151.4258  133.3678  159.2770 H   0  0  0  0  0  0  0  0  0  0  0  0  # atno 6908 bound_to 6896
  150.9190  134.8630  159.7536 H   0  0  0  0  0  0  0  0  0  0  0  0  # atno 6909 bound_to 6896
  146.2105  139.8148  142.8692 H   0  0  0  0  0  0  0  0  0  0  0  0  # atno 7974 bound_to 7965
  154.9301  140.3039  155.5172 H   0  0  0  0  0  0  0  0  0  0  0  0  # atno 8008 bound_to 7997
  156.3004  140.2355  156.4297 H   0  0  0  0  0  0  0  0  0  0  0  0  # atno 8009 bound_to 7997
  154.8245  140.0421  157.1423 H   0  0  0  0  0  0  0  0  0  0  0  0  # atno 8010 bound_to 7997
  140.7146  143.3419  151.2339 H   0  0  0  0  0  0  0  0  0  0  0  0  # atno 10167 bound_to 10162
  156.0217  130.4434  150.3000 H   0  0  0  0  0  0  0  0  0  0  0  0  # atno 10718 bound_to 10713
  153.1277  135.6733  153.9230 H   0  0  0  0  0  0  0  0  0  0  0  0  # atno 10763 bound_to 10752
  153.8726  135.3068  155.3444 H   0  0  0  0  0  0  0  0  0  0  0  0  # atno 10764 bound_to 10752
  154.7679  135.4954  153.9672 H   0  0  0  0  0  0  0  0  0  0  0  0  # atno 10765 bound_to 10752
  140.0540  134.5697  155.9230 H   0  0  0  0  0  0  0  0  0  0  0  0  # atno 11005 bound_to 11000
  145.3157  141.0231  143.3529 LP  0  0  0  0  0  0  0  0  0  0  0  0  # atno 17320 bound_to 7965
  144.8903  139.4784  143.6681 LP  0  0  0  0  0  0  0  0  0  0  0  0  # atno 17321 bound_to 7965
  139.6928  143.9662  152.2868 LP  0  0  0  0  0  0  0  0  0  0  0  0  # atno 17342 bound_to 10162
  139.9330  144.6729  150.8344 LP  0  0  0  0  0  0  0  0  0  0  0  0  # atno 17343 bound_to 10162
  157.1103  131.0219  151.3050 LP  0  0  0  0  0  0  0  0  0  0  0  0  # atno 17370 bound_to 10713
  157.4710  130.7708  149.7323 LP  0  0  0  0  0  0  0  0  0  0  0  0  # atno 17371 bound_to 10713
  141.1943  133.6582  156.5590 LP  0  0  0  0  0  0  0  0  0  0  0  0  # atno 17394 bound_to 11000
  140.3874  134.7470  157.4700 LP  0  0  0  0  0  0  0  0  0  0  0  0  # atno 17395 bound_to 11000

$$$$
