AV-unprocessed.smi:3140|AV-procd|sdf|11960|dock9
  -GOLD-   2272017363D 1   1.00000     0.00000
 Structure written by MMmdl.
 37 38  0  0  0  0  0  0  0  0  1 V2000
  150.9768  145.0142  159.0521 C   0  0  0  0  0  0  0  0  0  0  0  0
  151.2771  143.6130  158.4958 C   0  0  2  0  0  0  0  0  0  0  0  0
  152.7057  143.1214  158.8465 C   0  0  0  0  0  0  0  0  0  0  0  0
  152.8886  142.7811  160.2492 N   0  0  0  0  0  0  0  0  0  0  0  0
  153.5059  141.6732  160.7912 C   0  0  0  0  0  0  0  0  0  0  0  0
  153.4381  141.7927  162.1496 C   0  0  0  0  0  0  0  0  0  0  0  0
  152.7583  143.0270  162.3468 C   0  0  0  0  0  0  0  0  0  0  0  0
  152.4357  143.6179  161.2085 N   0  0  0  0  0  0  0  0  0  0  0  0
  151.0507  143.6561  157.0558 N   0  0  0  0  0  0  0  0  0  0  0  0
  151.0316  142.3329  156.4482 C   0  0  0  0  0  0  0  0  0  0  0  0
  149.7055  141.6292  156.7833 C   0  0  0  0  0  0  0  0  0  0  0  0
  148.8648  141.4594  155.5985 N   0  0  0  0  0  0  0  0  0  0  0  0
  147.4889  141.9276  155.5944 C   0  0  0  0  0  0  0  0  0  0  0  0
  146.9398  141.5796  154.2026 C   0  0  0  0  0  0  0  0  0  0  0  0
  148.0898  140.9134  153.4387 C   0  0  0  0  0  0  0  0  0  0  0  0
  149.2286  140.8912  154.4430 C   0  0  0  0  0  0  0  0  0  0  0  0
  150.3308  140.4077  154.1887 O   0  0  0  0  0  0  0  0  0  0  0  0
  151.1393  145.0491  160.1297 H   0  0  0  0  0  0  0  0  0  0  0  0
  149.9390  145.2944  158.8693 H   0  0  0  0  0  0  0  0  0  0  0  0
  151.6075  145.7778  158.5954 H   0  0  0  0  0  0  0  0  0  0  0  0
  150.5542  142.9245  158.9355 H   0  0  0  0  0  0  0  0  0  0  0  0
  152.9313  142.2310  158.2586 H   0  0  0  0  0  0  0  0  0  0  0  0
  153.4619  143.8533  158.5628 H   0  0  0  0  0  0  0  0  0  0  0  0
  153.9337  140.8993  160.1712 H   0  0  0  0  0  0  0  0  0  0  0  0
  153.8177  141.1044  162.8900 H   0  0  0  0  0  0  0  0  0  0  0  0
  152.4938  143.5092  163.2762 H   0  0  0  0  0  0  0  0  0  0  0  0
  150.1742  144.1191  156.8627 H   0  0  0  0  0  0  0  0  0  0  0  0
  151.1593  142.3876  155.3680 H   0  0  0  0  0  0  0  0  0  0  0  0
  151.8686  141.7542  156.8400 H   0  0  0  0  0  0  0  0  0  0  0  0
  149.9146  140.6451  157.2054 H   0  0  0  0  0  0  0  0  0  0  0  0
  149.1629  142.1788  157.5538 H   0  0  0  0  0  0  0  0  0  0  0  0
  146.9178  141.4340  156.3815 H   0  0  0  0  0  0  0  0  0  0  0  0
  147.4571  143.0033  155.7726 H   0  0  0  0  0  0  0  0  0  0  0  0
  146.0867  140.9046  154.2818 H   0  0  0  0  0  0  0  0  0  0  0  0
  146.5978  142.4771  153.6858 H   0  0  0  0  0  0  0  0  0  0  0  0
  147.8359  139.8995  153.1279 H   0  0  0  0  0  0  0  0  0  0  0  0
  148.3761  141.4893  152.5580 H   0  0  0  0  0  0  0  0  0  0  0  0
  1  2  1  0  0  0  0
  1 18  1  0  0  0  0
  1 19  1  0  0  0  0
  1 20  1  0  0  0  0
  2  3  1  0  0  0  0
  2  9  1  0  0  0  0
  2 21  1  0  0  0  0
  3  4  1  0  0  0  0
  3 22  1  0  0  0  0
  3 23  1  0  0  0  0
  4  8  1  0  0  0  0
  4  5  1  0  0  0  0
  5  6  2  0  0  0  0
  5 24  1  0  0  0  0
  6  7  1  0  0  0  0
  6 25  1  0  0  0  0
  7  8  2  0  0  0  0
  7 26  1  0  0  0  0
  9 10  1  0  0  0  0
  9 27  1  0  0  0  0
 10 11  1  0  0  0  0
 10 28  1  0  0  0  0
 10 29  1  0  0  0  0
 11 12  1  0  0  0  0
 11 30  1  0  0  0  0
 11 31  1  0  0  0  0
 12 16  1  0  0  0  0
 12 13  1  0  0  0  0
 13 14  1  0  0  0  0
 13 32  1  0  0  0  0
 13 33  1  0  0  0  0
 14 15  1  0  0  0  0
 14 34  1  0  0  0  0
 14 35  1  0  0  0  0
 15 16  1  0  0  0  0
 15 36  1  0  0  0  0
 15 37  1  0  0  0  0
 16 17  2  0  0  0  0
M  END
> <s_m_source_file>
AV-unprocessed.smi

> <i_m_source_file_index>
3140

> <i_lp_mmshare_version>
43012

> <i_f3d_flags>
0

> <s_epik_input>
bjFbY0hdW2NIXVtjSF1uMVtDSDJdW0NAQEhdKFtDSDNdKVtOSF1bQ0gyXVtDSDJdTjJbQ0gyXVtDSDJdW0NIMl1DMj1P

> <s_epik_cmdline>
J2VwaWtfcHl0aG9uJywgJy1waCcsICc3LjAnLCAnLXRuJywgJzgnLCAnLW1hJywgJzIwMCcsICctbWV0YWxfYmluZGluZycsICctaW1hZScsICc8aW5maWxlLm1hZT4nLCAnLW9tYWUnLCAnPG91dGZpbGUubWFlPic=

> <r_lp_tautomer_probability>
1

> <r_epik_Ionization_Penalty>
2.53587

> <r_epik_Ionization_Penalty_Charging>
0

> <r_epik_Ionization_Penalty_Neutral>
2.53587

> <r_epik_State_Penalty>
2.70334

> <r_epik_Charging_Adjusted_Penalty>
2.70334

> <i_epik_Tot_Q>
0

> <i_epik_Tot_abs_Q>
0

> <r_epik_Metal_State_Penalty>
2.7033

> <b_epik_Metal_Only>
0

> <s_lp_Force_Field>
OPLS_2005

> <r_lp_Energy>
23.3858

> <b_lp_Chiralities_Consistent>
1

> <s_lp_Variant>
AV-unprocessed.smi:3140-3

> <Gold.Version>
5.8.1

> <Gold.Id.Protein>
6NUR|6NUR_protein|mol2

> <Gold.PLP.Fitness>
49.0150

> <Gold.PLP.PLP>
-44.4512

> <Gold.PLP.part.hbond>
-2.0000

> <Gold.PLP.part.metal>
0.0000

> <Gold.PLP.part.buried>
-4.2000

> <Gold.PLP.part.nonpolar>
-38.5714

> <Gold.PLP.part.repulsive>
0.2264

> <Gold.PLP.ligand.clash>
0.0000

> <Gold.PLP.ligand.torsion>
0.7517

> <Gold.PLP.Chemscore.Hbond>
2.0000

> <Gold.PLP.Chemscore.CHOScore>
0.0000

> <Gold.PLP.Chemscore.Metal>
0.0000

> <Gold.Chemscore.Hbonds>
donor molecule, donor type, donor heavy atom, donor atom, acceptor molecule, acceptor atom, score
      L1  H     9    27       P1  8028  1.00
      P1  H  7989  7998       L1    17  0.93

> <Gold.PLP.Chemscore.Internal.Correction>
0.0672

> <Gold.Rescore>
     Score         DG    S(hbond)    S(metal)    S(lipo)     H(rot)  DE(clash)    DE(int)     intcor
     18.00     -18.81       1.96        0.00     101.14       1.97       0.09       0.71       ----

> <Gold.Chemscore.Fitness>
18.0004

> <Gold.Chemscore.DG>
-18.8078

> <Gold.Chemscore.ZeroCoef>
-5.4800

> <Gold.Chemscore.Hbond>
1.9592

> <Gold.Chemscore.Metal>
0.0000

> <Gold.Chemscore.Lipo>
101.1361

> <Gold.Chemscore.Internal_Hbond>
0.0000

> <Gold.Chemscore.DEClash>
0.0930

> <Gold.Chemscore.DEInternal>
0.7144

> <Gold.Chemscore.Rot>
1.9722

> <Gold.Chemscore.Internal.Correction>
   9.000000E+99

> <Gold.Chemscore.Hbonds>
donor molecule, donor type, donor heavy atom, donor atom, acceptor molecule, acceptor atom, score
      L1  H     9    27       P1  8028  0.92
      P1  H  7989  7998       L1    17  0.85

> <Gold.Chemscore.Hbond.Weighted>
-6.5437

> <Gold.Chemscore.Metal.Weighted>
-0.0000

> <Gold.Chemscore.Lipo.Weighted>
-11.8329

> <Gold.Chemscore.Internal_Hbond.Weighted>
0.0000

> <Gold.Chemscore.DEClash.Weighted>
0.0930

> <Gold.Chemscore.DEInternal.Weighted>
0.7144

> <Gold.Chemscore.Rot.Weighted>
5.0487

> <Gold.Chemscore.Internal.Correction.Weighted>
   9.000000E+99

> <Gold.Protein.RotatedTorsions>
[ 6907 6896 6895 6894 ] final  158.54 input  -60.11 | X-H torsion
[ 7974 7965 7964 7962 ] final  -28.36 input  175.53 | X-H torsion
[ 8008 7997 7996 7995 ] final -173.89 input   59.86 | X-H torsion
[ 10167 10162 10161 10158 ] final  121.95 input  -65.29 | X-H torsion
[ 10718 10713 10712 10709 ] final -140.06 input   66.30 | X-H torsion
[ 10763 10752 10751 10750 ] final  150.33 input  -60.55 | X-H torsion
[ 11005 11000 10999 10996 ] final  134.48 input  -57.11 | X-H torsion

> <Gold.Protein.ActiveResidues>
 VAL166  LYS551  ARG553  GLY616  TRP617  ASP618  TYR619  PRO620  LYS621  CYS622 
 ASP623  PHE694  ASN695  SER759  ASP760  ASP761  ALA762  ILE779  LEU786  VAL792 
 PHE793  MET794  SER795  GLU796  ALA797  LYS798  CYS799  TRP800  GLU811  SER814 

> <Gold.Protein.RotatedAtoms>
  151.9989  133.3818  159.4173 H   0  0  0  0  0  0  0  0  0  0  0  0  # atno 6907 bound_to 6896
  150.6912  134.3855  159.5062 H   0  0  0  0  0  0  0  0  0  0  0  0  # atno 6908 bound_to 6896
  152.1600  134.8920  160.0593 H   0  0  0  0  0  0  0  0  0  0  0  0  # atno 6909 bound_to 6896
  146.1294  140.5272  142.8700 H   0  0  0  0  0  0  0  0  0  0  0  0  # atno 7974 bound_to 7965
  155.9632  140.1148  157.0877 H   0  0  0  0  0  0  0  0  0  0  0  0  # atno 8008 bound_to 7997
  154.4137  140.1178  156.5274 H   0  0  0  0  0  0  0  0  0  0  0  0  # atno 8009 bound_to 7997
  155.6693  140.3473  155.4814 H   0  0  0  0  0  0  0  0  0  0  0  0  # atno 8010 bound_to 7997
  139.5888  144.7017  151.3341 H   0  0  0  0  0  0  0  0  0  0  0  0  # atno 10167 bound_to 10162
  156.3179  130.7518  151.1609 H   0  0  0  0  0  0  0  0  0  0  0  0  # atno 10718 bound_to 10713
  154.0858  135.2856  155.3281 H   0  0  0  0  0  0  0  0  0  0  0  0  # atno 10763 bound_to 10752
  154.6653  135.5319  153.8073 H   0  0  0  0  0  0  0  0  0  0  0  0  # atno 10764 bound_to 10752
  153.0432  135.6544  154.1030 H   0  0  0  0  0  0  0  0  0  0  0  0  # atno 10765 bound_to 10752
  139.9917  134.9512  156.9872 H   0  0  0  0  0  0  0  0  0  0  0  0  # atno 11005 bound_to 11000
  144.7675  140.5563  143.6693 LP  0  0  0  0  0  0  0  0  0  0  0  0  # atno 17320 bound_to 7965
  145.5295  139.1475  143.3508 LP  0  0  0  0  0  0  0  0  0  0  0  0  # atno 17321 bound_to 7965
  140.7155  143.7277  150.7647 LP  0  0  0  0  0  0  0  0  0  0  0  0  # atno 17342 bound_to 10162
  140.0828  143.4952  152.2521 LP  0  0  0  0  0  0  0  0  0  0  0  0  # atno 17343 bound_to 10162
  157.7405  131.0515  150.5159 LP  0  0  0  0  0  0  0  0  0  0  0  0  # atno 17370 bound_to 10713
  156.5307  130.4184  149.6203 LP  0  0  0  0  0  0  0  0  0  0  0  0  # atno 17371 bound_to 10713
  140.4895  134.1208  155.7230 LP  0  0  0  0  0  0  0  0  0  0  0  0  # atno 17394 bound_to 11000
  141.1571  133.8861  157.1947 LP  0  0  0  0  0  0  0  0  0  0  0  0  # atno 17395 bound_to 11000

$$$$
