AV-unprocessed.smi:1957|AV-procd|sdf|7904|dock1
  -GOLD-   2272010 63D 1   1.00000     0.00000
 Structure written by MMmdl.
 42 43  0  0  0  0  0  0  0  0  1 V2000
  147.7493  136.7556  162.9761 C   0  0  0  0  0  0  0  0  0  0  0  0
  147.5461  136.9584  161.5891 O   0  0  0  0  0  0  0  0  0  0  0  0
  148.6895  136.6281  160.8172 C   0  0  0  0  0  0  0  0  0  0  0  0
  148.3112  136.6088  159.3274 C   0  0  0  0  0  0  0  0  0  0  0  0
  149.4745  136.8483  158.4662 N   0  0  0  0  0  0  0  0  0  0  0  0
  149.9402  138.1515  158.5006 N   0  0  0  0  0  0  0  0  0  0  0  0
  150.9719  138.4932  157.7987 C   0  0  0  0  0  0  0  0  0  0  0  0
  151.5060  139.8828  157.8157 C   0  0  0  0  0  0  0  0  0  0  0  0
  152.3894  140.2512  157.0397 O   0  0  0  0  0  0  0  0  0  0  0  0
  150.9560  140.6954  158.7362 N   0  0  0  0  0  0  0  0  0  0  0  0
  151.2816  142.1055  158.9453 C   0  0  2  0  0  0  0  0  0  0  0  0
  150.9638  142.9346  157.6736 C   0  0  0  0  0  0  0  0  0  0  0  0
  151.7759  144.2334  157.4879 C   0  0  0  0  0  0  0  0  0  0  0  0
  151.7366  145.2180  158.6743 C   0  0  0  0  0  0  0  0  0  0  0  0
  152.1409  144.6548  160.0576 C   0  0  0  0  0  0  0  0  0  0  0  0
  153.0325  143.4975  159.9979 N   0  0  0  0  0  0  0  0  0  0  0  0
  152.7012  142.2865  159.5179 C   0  0  0  0  0  0  0  0  0  0  0  0
  153.5060  141.3557  159.5145 O   0  0  0  0  0  0  0  0  0  0  0  0
  151.6549  137.5233  156.9592 C   0  0  0  0  0  0  0  0  0  0  0  0
  151.1899  136.2549  156.9368 C   0  0  0  0  0  0  0  0  0  0  0  0
  150.0296  135.8407  157.7277 C   0  0  0  0  0  0  0  0  0  0  0  0
  149.5946  134.6895  157.7323 O   0  0  0  0  0  0  0  0  0  0  0  0
  146.8417  137.0162  163.5203 H   0  0  0  0  0  0  0  0  0  0  0  0
  148.5589  137.3828  163.3515 H   0  0  0  0  0  0  0  0  0  0  0  0
  147.9841  135.7126  163.1924 H   0  0  0  0  0  0  0  0  0  0  0  0
  149.4953  137.3404  161.0017 H   0  0  0  0  0  0  0  0  0  0  0  0
  149.0545  135.6434  161.1121 H   0  0  0  0  0  0  0  0  0  0  0  0
  147.8534  135.6504  159.0769 H   0  0  0  0  0  0  0  0  0  0  0  0
  147.5380  137.3554  159.1371 H   0  0  0  0  0  0  0  0  0  0  0  0
  150.2346  140.3106  159.3298 H   0  0  0  0  0  0  0  0  0  0  0  0
  150.6130  142.4514  159.7348 H   0  0  0  0  0  0  0  0  0  0  0  0
  151.1310  142.3175  156.7897 H   0  0  0  0  0  0  0  0  0  0  0  0
  149.8996  143.1731  157.6657 H   0  0  0  0  0  0  0  0  0  0  0  0
  152.8133  143.9820  157.2632 H   0  0  0  0  0  0  0  0  0  0  0  0
  151.4125  144.7465  156.5971 H   0  0  0  0  0  0  0  0  0  0  0  0
  152.4027  146.0473  158.4336 H   0  0  0  0  0  0  0  0  0  0  0  0
  150.7416  145.6576  158.7505 H   0  0  0  0  0  0  0  0  0  0  0  0
  152.6305  145.4363  160.6392 H   0  0  0  0  0  0  0  0  0  0  0  0
  151.2500  144.3901  160.6279 H   0  0  0  0  0  0  0  0  0  0  0  0
  153.9665  143.6208  160.3613 H   0  0  0  0  0  0  0  0  0  0  0  0
  152.5137  137.8016  156.3657 H   0  0  0  0  0  0  0  0  0  0  0  0
  151.6879  135.5232  156.3177 H   0  0  0  0  0  0  0  0  0  0  0  0
  1  2  1  0  0  0  0
  1 23  1  0  0  0  0
  1 24  1  0  0  0  0
  1 25  1  0  0  0  0
  2  3  1  0  0  0  0
  3  4  1  0  0  0  0
  3 26  1  0  0  0  0
  3 27  1  0  0  0  0
  4  5  1  0  0  0  0
  4 28  1  0  0  0  0
  4 29  1  0  0  0  0
  5 21  1  0  0  0  0
  5  6  1  0  0  0  0
  6  7  2  0  0  0  0
  7  8  1  0  0  0  0
  7 19  1  0  0  0  0
  8  9  2  0  0  0  0
  8 10  1  0  0  0  0
 10 11  1  0  0  0  0
 10 30  1  0  0  0  0
 11 17  1  0  0  0  0
 11 12  1  0  0  0  0
 11 31  1  0  0  0  0
 12 13  1  0  0  0  0
 12 32  1  0  0  0  0
 12 33  1  0  0  0  0
 13 14  1  0  0  0  0
 13 34  1  0  0  0  0
 13 35  1  0  0  0  0
 14 15  1  0  0  0  0
 14 36  1  0  0  0  0
 14 37  1  0  0  0  0
 15 16  1  0  0  0  0
 15 38  1  0  0  0  0
 15 39  1  0  0  0  0
 16 17  1  0  0  0  0
 16 40  1  0  0  0  0
 17 18  2  0  0  0  0
 19 20  2  0  0  0  0
 19 41  1  0  0  0  0
 20 21  1  0  0  0  0
 20 42  1  0  0  0  0
 21 22  2  0  0  0  0
M  END
> <s_m_source_file>
AV-unprocessed.smi

> <i_m_source_file_index>
1957

> <i_lp_mmshare_version>
43012

> <i_f3d_flags>
0

> <s_epik_input>
W0NIM11PW0NIMl1bQ0gyXW4xbmMoW2NIXVtjSF1jMT1PKUMoPU8pW05IXVtDQEBIXTJbQ0gyXVtDSDJdW0NIMl1bQ0gyXVtOSF1DMj1P

> <s_epik_cmdline>
J2VwaWtfcHl0aG9uJywgJy1waCcsICc3LjAnLCAnLXRuJywgJzgnLCAnLW1hJywgJzIwMCcsICctbWV0YWxfYmluZGluZycsICctaW1hZScsICc8aW5maWxlLm1hZT4nLCAnLW9tYWUnLCAnPG91dGZpbGUubWFlPic=

> <r_lp_tautomer_probability>
1

> <r_epik_Ionization_Penalty>
2.17512e-06

> <r_epik_Ionization_Penalty_Charging>
5.0222e-09

> <r_epik_Ionization_Penalty_Neutral>
2.1701e-06

> <r_epik_State_Penalty>
-0

> <r_epik_Charging_Adjusted_Penalty>
5.0222e-09

> <i_epik_Tot_Q>
0

> <i_epik_Tot_abs_Q>
0

> <r_epik_Metal_State_Penalty>
-0

> <b_epik_Metal_Only>
0

> <s_lp_Force_Field>
OPLS_2005

> <r_lp_Energy>
35.215

> <b_lp_Chiralities_Consistent>
1

> <s_lp_Variant>
AV-unprocessed.smi:1957-1

> <Gold.Version>
5.8.1

> <Gold.Id.Protein>
6NUR|6NUR_protein|mol2

> <Gold.PLP.Fitness>
44.7821

> <Gold.PLP.PLP>
-37.0109

> <Gold.PLP.part.hbond>
-3.8754

> <Gold.PLP.part.metal>
0.0000

> <Gold.PLP.part.buried>
-1.9981

> <Gold.PLP.part.nonpolar>
-30.3769

> <Gold.PLP.part.repulsive>
0.2008

> <Gold.PLP.ligand.clash>
0.0000

> <Gold.PLP.ligand.torsion>
0.3634

> <Gold.PLP.Chemscore.Hbond>
2.7956

> <Gold.PLP.Chemscore.CHOScore>
0.0000

> <Gold.PLP.Chemscore.Metal>
0.0000

> <Gold.Chemscore.Hbonds>
donor molecule, donor type, donor heavy atom, donor atom, acceptor molecule, acceptor atom, score
      P1  H  6896  6908       L1    22  0.83
      P1  H  6934  6947       L1     2  0.51
      P1  H  7997  8009       L1     9  1.00

> <Gold.PLP.Chemscore.Internal.Correction>
0.1112

> <Gold.Rescore>
     Score         DG    S(hbond)    S(metal)    S(lipo)     H(rot)  DE(clash)    DE(int)     intcor
     12.21     -14.53       0.99        0.00      87.97       1.78       0.01       2.31       ----

> <Gold.Chemscore.Fitness>
12.2078

> <Gold.Chemscore.DG>
-14.5284

> <Gold.Chemscore.ZeroCoef>
-5.4800

> <Gold.Chemscore.Hbond>
0.9913

> <Gold.Chemscore.Metal>
0.0000

> <Gold.Chemscore.Lipo>
87.9653

> <Gold.Chemscore.Internal_Hbond>
0.0000

> <Gold.Chemscore.DEClash>
0.0081

> <Gold.Chemscore.DEInternal>
2.3125

> <Gold.Chemscore.Rot>
1.7791

> <Gold.Chemscore.Internal.Correction>
   9.000000E+99

> <Gold.Chemscore.Hbonds>
donor molecule, donor type, donor heavy atom, donor atom, acceptor molecule, acceptor atom, score
      P1  H  6896  6908       L1    22  0.15
      P1  H  6934  6947       L1     2  0.14
      P1  H  7997  8009       L1     9  0.91

> <Gold.Chemscore.Hbond.Weighted>
-3.3108

> <Gold.Chemscore.Metal.Weighted>
-0.0000

> <Gold.Chemscore.Lipo.Weighted>
-10.2919

> <Gold.Chemscore.Internal_Hbond.Weighted>
0.0000

> <Gold.Chemscore.DEClash.Weighted>
0.0081

> <Gold.Chemscore.DEInternal.Weighted>
2.3125

> <Gold.Chemscore.Rot.Weighted>
4.5544

> <Gold.Chemscore.Internal.Correction.Weighted>
   9.000000E+99

> <Gold.Protein.RotatedTorsions>
[ 6907 6896 6895 6894 ] final  130.97 input  -60.11 | X-H torsion
[ 7974 7965 7964 7962 ] final -154.42 input  175.53 | X-H torsion
[ 8008 7997 7996 7995 ] final -174.84 input   59.86 | X-H torsion
[ 10167 10162 10161 10158 ] final -134.28 input  -65.29 | X-H torsion
[ 10718 10713 10712 10709 ] final  -52.09 input   66.30 | X-H torsion
[ 10763 10752 10751 10750 ] final -171.37 input  -60.55 | X-H torsion
[ 11005 11000 10999 10996 ] final   27.92 input  -57.11 | X-H torsion

> <Gold.Protein.ActiveResidues>
 VAL166  LYS551  ARG553  GLY616  TRP617  ASP618  TYR619  PRO620  LYS621  CYS622 
 ASP623  PHE694  ASN695  SER759  ASP760  ASP761  ALA762  ILE779  LEU786  VAL792 
 PHE793  MET794  SER795  GLU796  ALA797  LYS798  CYS799  TRP800  GLU811  SER814 

> <Gold.Protein.RotatedAtoms>
  152.3473  133.6137  159.5918 H   0  0  0  0  0  0  0  0  0  0  0  0  # atno 6907 bound_to 6896
  150.7515  133.9629  159.3530 H   0  0  0  0  0  0  0  0  0  0  0  0  # atno 6908 bound_to 6896
  151.7486  135.0839  160.0378 H   0  0  0  0  0  0  0  0  0  0  0  0  # atno 6909 bound_to 6896
  144.7690  140.4390  143.5921 H   0  0  0  0  0  0  0  0  0  0  0  0  # atno 7974 bound_to 7965
  155.9752  140.1170  157.0777 H   0  0  0  0  0  0  0  0  0  0  0  0  # atno 8008 bound_to 7997
  154.4167  140.1155  156.5427 H   0  0  0  0  0  0  0  0  0  0  0  0  # atno 8009 bound_to 7997
  155.6544  140.3473  155.4762 H   0  0  0  0  0  0  0  0  0  0  0  0  # atno 8010 bound_to 7997
  139.8896  143.6738  152.2614 H   0  0  0  0  0  0  0  0  0  0  0  0  # atno 10167 bound_to 10162
  156.1652  130.4149  149.9731 H   0  0  0  0  0  0  0  0  0  0  0  0  # atno 10718 bound_to 10713
  154.6312  135.2887  155.0214 H   0  0  0  0  0  0  0  0  0  0  0  0  # atno 10763 bound_to 10752
  154.1374  135.6524  153.4939 H   0  0  0  0  0  0  0  0  0  0  0  0  # atno 10764 bound_to 10752
  153.0280  135.5325  154.7140 H   0  0  0  0  0  0  0  0  0  0  0  0  # atno 10765 bound_to 10752
  140.3211  134.2542  155.7717 H   0  0  0  0  0  0  0  0  0  0  0  0  # atno 11005 bound_to 11000
  145.6381  139.1546  143.2931 LP  0  0  0  0  0  0  0  0  0  0  0  0  # atno 17320 bound_to 7965
  146.1821  140.6480  142.9184 LP  0  0  0  0  0  0  0  0  0  0  0  0  # atno 17321 bound_to 7965
  139.7121  144.7618  151.1094 LP  0  0  0  0  0  0  0  0  0  0  0  0  # atno 17342 bound_to 10162
  140.7729  143.5317  150.9416 LP  0  0  0  0  0  0  0  0  0  0  0  0  # atno 17343 bound_to 10162
  156.7548  130.9129  151.3639 LP  0  0  0  0  0  0  0  0  0  0  0  0  # atno 17370 bound_to 10713
  157.6763  130.9097  150.0157 LP  0  0  0  0  0  0  0  0  0  0  0  0  # atno 17371 bound_to 10713
  141.2086  133.7772  157.0047 LP  0  0  0  0  0  0  0  0  0  0  0  0  # atno 17394 bound_to 11000
  140.0941  134.9575  157.1822 LP  0  0  0  0  0  0  0  0  0  0  0  0  # atno 17395 bound_to 11000

$$$$
