AV-unprocessed.smi:22|AV-procd|sdf|169|dock1
  -GOLD-   2262015423D 1   1.00000     0.00000
 Structure written by MMmdl.
 56 59  0  0  0  0  0  0  0  0  2 V2000
  147.7146  131.7856  154.9554 C   0  0  0  0  0  0  0  0  0  0  0  0
  147.2119  133.1638  155.1752 N   0  3  2  0  0  0  0  0  0  0  0  0
  146.2749  133.6121  154.1089 C   0  0  0  0  0  0  0  0  0  0  0  0
  146.8982  133.5092  152.7069 C   0  0  0  0  0  0  0  0  0  0  0  0
  146.5884  134.6645  151.9567 O   0  0  0  0  0  0  0  0  0  0  0  0
  148.3059  134.1239  155.5039 C   0  0  0  0  0  0  0  0  0  0  0  0
  147.7613  135.5342  155.8122 C   0  0  0  0  0  0  0  0  0  0  0  0
  148.9020  136.4888  156.2007 C   0  0  0  0  0  0  0  0  0  0  0  0
  149.9426  136.5015  155.1728 N   0  0  0  0  0  0  0  0  0  0  0  0
  150.7858  137.5640  155.2291 C   0  0  0  0  0  0  0  0  0  0  0  0
  152.1010  137.4041  154.9212 N   0  0  0  0  0  0  0  0  0  0  0  0
  152.9395  138.4429  154.9812 C   0  0  0  0  0  0  0  0  0  0  0  0
  152.6785  139.7073  155.3177 N   0  0  0  0  0  0  0  0  0  0  0  0
  151.3602  139.8766  155.6222 C   0  0  0  0  0  0  0  0  0  0  0  0
  150.3549  138.8686  155.6024 C   0  0  0  0  0  0  0  0  0  0  0  0
  149.1279  139.4180  155.9552 N   0  0  0  0  0  0  0  0  0  0  0  0
  149.3948  140.6754  156.1813 C   0  0  0  0  0  0  0  0  0  0  0  0
  150.7124  141.0361  156.0110 N   0  0  0  0  0  0  0  0  0  0  0  0
  151.2816  142.3625  156.1936 C   0  0  0  0  0  0  0  0  0  0  0  0
  151.1331  142.9002  157.6357 C   0  0  1  0  0  0  0  0  0  0  0  0
  149.7581  143.1120  157.9083 O   0  0  0  0  0  0  0  0  0  0  0  0
  151.7037  141.9777  158.7091 C   0  0  0  0  0  0  0  0  0  0  0  0
  152.1731  142.9533  159.7791 C   0  0  0  0  0  0  0  0  0  0  0  0
  152.7190  144.0127  159.0118 O   0  0  0  0  0  0  0  0  0  0  0  0
  151.8867  144.2240  157.8757 C   0  0  0  0  0  0  0  0  0  0  0  0
  150.5137  135.1927  154.8503 C   0  0  0  0  0  0  0  0  0  0  0  0
  149.4141  134.2041  154.4284 C   0  0  0  0  0  0  0  0  0  0  0  0
  148.3271  131.7271  154.0553 H   0  0  0  0  0  0  0  0  0  0  0  0
  146.8948  131.0761  154.8505 H   0  0  0  0  0  0  0  0  0  0  0  0
  148.3185  131.4524  155.7999 H   0  0  0  0  0  0  0  0  0  0  0  0
  145.3613  133.0188  154.1135 H   0  0  0  0  0  0  0  0  0  0  0  0
  145.9651  134.6391  154.3072 H   0  0  0  0  0  0  0  0  0  0  0  0
  147.9828  133.4385  152.7906 H   0  0  0  0  0  0  0  0  0  0  0  0
  146.5644  132.6213  152.1711 H   0  0  0  0  0  0  0  0  0  0  0  0
  147.3947  135.1075  151.7372 H   0  0  0  0  0  0  0  0  0  0  0  0
  148.7696  133.7740  156.4278 H   0  0  0  0  0  0  0  0  0  0  0  0
  147.2399  135.9494  154.9501 H   0  0  0  0  0  0  0  0  0  0  0  0
  147.0314  135.4877  156.6211 H   0  0  0  0  0  0  0  0  0  0  0  0
  148.4949  137.4847  156.3724 H   0  0  0  0  0  0  0  0  0  0  0  0
  149.3481  136.1699  157.1437 H   0  0  0  0  0  0  0  0  0  0  0  0
  153.9666  138.2302  154.7240 H   0  0  0  0  0  0  0  0  0  0  0  0
  148.6332  141.3795  156.4840 H   0  0  0  0  0  0  0  0  0  0  0  0
  152.3358  142.3221  155.9162 H   0  0  0  0  0  0  0  0  0  0  0  0
  150.8058  143.0416  155.4845 H   0  0  0  0  0  0  0  0  0  0  0  0
  149.3733  143.5624  157.1720 H   0  0  0  0  0  0  0  0  0  0  0  0
  150.9935  141.2373  159.0798 H   0  0  0  0  0  0  0  0  0  0  0  0
  152.5716  141.4414  158.3237 H   0  0  0  0  0  0  0  0  0  0  0  0
  151.3345  143.3207  160.3728 H   0  0  0  0  0  0  0  0  0  0  0  0
  152.9124  142.5195  160.4529 H   0  0  0  0  0  0  0  0  0  0  0  0
  152.5104  144.5066  157.0270 H   0  0  0  0  0  0  0  0  0  0  0  0
  151.2071  145.0554  158.0700 H   0  0  0  0  0  0  0  0  0  0  0  0
  151.2412  135.2887  154.0431 H   0  0  0  0  0  0  0  0  0  0  0  0
  151.0472  134.8087  155.7212 H   0  0  0  0  0  0  0  0  0  0  0  0
  149.8570  133.2231  154.2568 H   0  0  0  0  0  0  0  0  0  0  0  0
  149.0029  134.5309  153.4731 H   0  0  0  0  0  0  0  0  0  0  0  0
  146.6544  133.1159  156.0166 H   0  0  0  0  0  0  0  0  0  0  0  0
  1  2  1  0  0  0  0
  1 28  1  0  0  0  0
  1 29  1  0  0  0  0
  1 30  1  0  0  0  0
  2  3  1  0  0  0  0
  2  6  1  0  0  0  0
  2 56  1  0  0  0  0
  3  4  1  0  0  0  0
  3 31  1  0  0  0  0
  3 32  1  0  0  0  0
  4  5  1  0  0  0  0
  4 33  1  0  0  0  0
  4 34  1  0  0  0  0
  5 35  1  0  0  0  0
  6 27  1  0  0  0  0
  6  7  1  0  0  0  0
  6 36  1  0  0  0  0
  7  8  1  0  0  0  0
  7 37  1  0  0  0  0
  7 38  1  0  0  0  0
  8  9  1  0  0  0  0
  8 39  1  0  0  0  0
  8 40  1  0  0  0  0
  9 10  1  0  0  0  0
  9 26  1  0  0  0  0
 10 15  1  0  0  0  0
 10 11  2  0  0  0  0
 11 12  1  0  0  0  0
 12 13  2  0  0  0  0
 12 41  1  0  0  0  0
 13 14  1  0  0  0  0
 14 18  1  0  0  0  0
 14 15  2  0  0  0  0
 15 16  1  0  0  0  0
 16 17  2  0  0  0  0
 17 18  1  0  0  0  0
 17 42  1  0  0  0  0
 18 19  1  0  0  0  0
 19 20  1  0  0  0  0
 19 43  1  0  0  0  0
 19 44  1  0  0  0  0
 20 25  1  0  0  0  0
 20 21  1  0  0  0  0
 20 22  1  0  0  0  0
 21 45  1  0  0  0  0
 22 23  1  0  0  0  0
 22 46  1  0  0  0  0
 22 47  1  0  0  0  0
 23 24  1  0  0  0  0
 23 48  1  0  0  0  0
 23 49  1  0  0  0  0
 24 25  1  0  0  0  0
 25 50  1  0  0  0  0
 25 51  1  0  0  0  0
 26 27  1  0  0  0  0
 26 52  1  0  0  0  0
 26 53  1  0  0  0  0
 27 54  1  0  0  0  0
 27 55  1  0  0  0  0
M  CHG  1   2   1
M  END
> <s_m_source_file>
AV-unprocessed.smi

> <i_m_source_file_index>
22

> <i_lp_mmshare_version>
43012

> <i_f3d_flags>
0

> <s_epik_input>
W09IXVtDSDJdW0NIMl1OKFtDSDNdKVtDSF0xW0NIMl1bQ0gyXU4oW0NIMl1bQ0gyXTEpYyhuW2NIXW4yKWMoYzIzKW5bY0hdbjNbQ0gyXVtDQEBdNChbT0hdKVtDSDJdW0NIMl1PW0NIMl00

> <s_epik_cmdline>
J2VwaWtfcHl0aG9uJywgJy1waCcsICc3LjAnLCAnLXRuJywgJzgnLCAnLW1hJywgJzIwMCcsICctbWV0YWxfYmluZGluZycsICctaW1hZScsICc8aW5maWxlLm1hZT4nLCAnLW9tYWUnLCAnPG91dGZpbGUubWFlPic=

> <r_lp_tautomer_probability>
1

> <r_epik_Ionization_Penalty>
0.00317524

> <r_epik_Ionization_Penalty_Charging>
0.00191487

> <r_epik_Ionization_Penalty_Neutral>
0.00126037

> <r_epik_State_Penalty>
-0

> <r_epik_Charging_Adjusted_Penalty>
0.00191487

> <i_epik_Tot_Q>
1

> <i_epik_Tot_abs_Q>
1

> <r_epik_Metal_State_Penalty>
-0

> <b_epik_Metal_Only>
0

> <s_lp_Force_Field>
OPLS_2005

> <r_lp_Energy>
45.1339

> <b_lp_Chiralities_Consistent>
1

> <s_lp_Variant>
AV-unprocessed.smi:22-1

> <Gold.Version>
5.8.1

> <Gold.Id.Protein>
6NUR|6NUR_protein|mol2

> <Gold.PLP.Fitness>
49.6392

> <Gold.PLP.PLP>
-39.0884

> <Gold.PLP.part.hbond>
-4.7697

> <Gold.PLP.part.metal>
0.0000

> <Gold.PLP.part.buried>
-7.0701

> <Gold.PLP.part.nonpolar>
-29.1560

> <Gold.PLP.part.repulsive>
0.2371

> <Gold.PLP.ligand.clash>
0.0000

> <Gold.PLP.ligand.torsion>
0.8132

> <Gold.PLP.Chemscore.Hbond>
3.8160

> <Gold.PLP.Chemscore.CHOScore>
0.0000

> <Gold.PLP.Chemscore.Metal>
0.0000

> <Gold.Chemscore.Hbonds>
donor molecule, donor type, donor heavy atom, donor atom, acceptor molecule, acceptor atom, score
      L1  H     5    35       P1  7948  1.00
      L1  H    21    45       P1  8028  1.00
      P1  H  7997  8009       L1    13  0.95
      P1  H 10752 10765       L1    11  0.82

> <Gold.PLP.Chemscore.Internal.Correction>
0.7291

> <Gold.Rescore>
     Score         DG    S(hbond)    S(metal)    S(lipo)     H(rot)  DE(clash)    DE(int)     intcor
     13.14     -16.96       3.40        0.00      83.31       3.76       1.84       1.97       ----

> <Gold.Chemscore.Fitness>
13.1436

> <Gold.Chemscore.DG>
-16.9612

> <Gold.Chemscore.ZeroCoef>
-5.4800

> <Gold.Chemscore.Hbond>
3.3996

> <Gold.Chemscore.Metal>
0.0000

> <Gold.Chemscore.Lipo>
83.3147

> <Gold.Chemscore.Internal_Hbond>
0.0000

> <Gold.Chemscore.DEClash>
1.8444

> <Gold.Chemscore.DEInternal>
1.9731

> <Gold.Chemscore.Rot>
3.7583

> <Gold.Chemscore.Internal.Correction>
   9.000000E+99

> <Gold.Chemscore.Hbonds>
donor molecule, donor type, donor heavy atom, donor atom, acceptor molecule, acceptor atom, score
      L1  H     5    35       P1  7948  0.88
      L1  H    21    45       P1  8028  0.78
      P1  H  7997  8009       L1    13  0.21
      P1  H 10752 10765       L1    11  0.71

> <Gold.Chemscore.Hbond.Weighted>
-11.3546

> <Gold.Chemscore.Metal.Weighted>
-0.0000

> <Gold.Chemscore.Lipo.Weighted>
-9.7478

> <Gold.Chemscore.Internal_Hbond.Weighted>
0.0000

> <Gold.Chemscore.DEClash.Weighted>
1.8444

> <Gold.Chemscore.DEInternal.Weighted>
1.9731

> <Gold.Chemscore.Rot.Weighted>
9.6213

> <Gold.Chemscore.Internal.Correction.Weighted>
   9.000000E+99

> <Gold.Protein.RotatedTorsions>
[ 6907 6896 6895 6894 ] final  -57.10 input  -60.11 | X-H torsion
[ 7974 7965 7964 7962 ] final  128.57 input  175.53 | X-H torsion
[ 8008 7997 7996 7995 ] final -151.83 input   59.86 | X-H torsion
[ 10167 10162 10161 10158 ] final -117.91 input  -65.29 | X-H torsion
[ 10718 10713 10712 10709 ] final    3.83 input   66.30 | X-H torsion
[ 10763 10752 10751 10750 ] final  168.97 input  -60.55 | X-H torsion
[ 11005 11000 10999 10996 ] final   45.46 input  -57.11 | X-H torsion

> <Gold.Protein.ActiveResidues>
 VAL166  LYS551  ARG553  GLY616  TRP617  ASP618  TYR619  PRO620  LYS621  CYS622 
 ASP623  PHE694  ASN695  SER759  ASP760  ASP761  ALA762  ILE779  LEU786  VAL792 
 PHE793  MET794  SER795  GLU796  ALA797  LYS798  CYS799  TRP800  GLU811  SER814 

> <Gold.Protein.RotatedAtoms>
  150.8113  134.7270  159.6690 H   0  0  0  0  0  0  0  0  0  0  0  0  # atno 6907 bound_to 6896
  152.4233  134.5911  159.9984 H   0  0  0  0  0  0  0  0  0  0  0  0  # atno 6908 bound_to 6896
  151.6120  133.3309  159.3105 H   0  0  0  0  0  0  0  0  0  0  0  0  # atno 6909 bound_to 6896
  145.0381  139.3987  143.5116 H   0  0  0  0  0  0  0  0  0  0  0  0  # atno 7974 bound_to 7965
  155.6455  140.0706  157.2604 H   0  0  0  0  0  0  0  0  0  0  0  0  # atno 8008 bound_to 7997
  154.4174  140.1742  156.1669 H   0  0  0  0  0  0  0  0  0  0  0  0  # atno 8009 bound_to 7997
  155.9820  140.3353  155.6675 H   0  0  0  0  0  0  0  0  0  0  0  0  # atno 8010 bound_to 7997
  140.0632  143.4947  152.2020 H   0  0  0  0  0  0  0  0  0  0  0  0  # atno 10167 bound_to 10162
  156.8836  130.5662  149.5652 H   0  0  0  0  0  0  0  0  0  0  0  0  # atno 10718 bound_to 10713
  154.3764  135.2753  155.2237 H   0  0  0  0  0  0  0  0  0  0  0  0  # atno 10763 bound_to 10752
  154.4362  135.5965  153.6104 H   0  0  0  0  0  0  0  0  0  0  0  0  # atno 10764 bound_to 10752
  152.9836  135.6007  154.4001 H   0  0  0  0  0  0  0  0  0  0  0  0  # atno 10765 bound_to 10752
  140.1458  134.4525  155.8417 H   0  0  0  0  0  0  0  0  0  0  0  0  # atno 11005 bound_to 11000
  146.3506  139.9966  142.8680 LP  0  0  0  0  0  0  0  0  0  0  0  0  # atno 17320 bound_to 7965
  145.1684  140.9708  143.4336 LP  0  0  0  0  0  0  0  0  0  0  0  0  # atno 17321 bound_to 7965
  139.5881  144.7539  151.3470 LP  0  0  0  0  0  0  0  0  0  0  0  0  # atno 17342 bound_to 10162
  140.7161  143.7261  150.7659 LP  0  0  0  0  0  0  0  0  0  0  0  0  # atno 17343 bound_to 10162
  156.0665  130.5707  150.9298 LP  0  0  0  0  0  0  0  0  0  0  0  0  # atno 17370 bound_to 10713
  157.6126  131.0935  150.8768 LP  0  0  0  0  0  0  0  0  0  0  0  0  # atno 17371 bound_to 10713
  141.2192  133.6852  156.7331 LP  0  0  0  0  0  0  0  0  0  0  0  0  # atno 17394 bound_to 11000
  140.2665  134.8425  157.3808 LP  0  0  0  0  0  0  0  0  0  0  0  0  # atno 17395 bound_to 11000

$$$$
