AV-unprocessed.smi:912|AV-procd|sdf|4144|dock10
  -GOLD-   22720 2 53D 1   1.00000     0.00000
 Structure written by MMmdl.
 27 27  0  0  0  0  0  0  0  0  2 V2000
  152.9514  142.3552  161.9319 C   0  0  0  0  0  0  0  0  0  0  0  0
  152.8735  141.1005  161.1853 N   0  0  0  0  0  0  0  0  0  0  0  0
  153.3658  141.0905  159.7942 C   0  0  1  0  0  0  0  0  0  0  0  0
  154.8380  141.5735  159.8818 C   0  0  0  0  0  0  0  0  0  0  0  0
  153.2755  139.6811  159.1466 C   0  0  0  0  0  0  0  0  0  0  0  0
  152.8424  138.6750  159.9148 N   0  0  0  0  0  0  0  0  0  0  0  0
  153.5862  139.4989  157.9706 O   0  0  0  0  0  0  0  0  0  0  0  0
  152.5594  142.0560  158.8998 C   0  0  0  0  0  0  0  0  0  0  0  0
  152.6049  143.4646  159.0755 C   0  0  0  0  0  0  0  0  0  0  0  0
  151.8451  144.3023  158.2339 C   0  0  0  0  0  0  0  0  0  0  0  0
  151.0731  143.7650  157.2666 N   0  3  0  0  0  0  0  0  0  0  0  0
  150.9867  142.4347  157.0604 C   0  0  0  0  0  0  0  0  0  0  0  0
  151.7240  141.5492  157.8715 C   0  0  0  0  0  0  0  0  0  0  0  0
  152.4353  142.2324  162.8839 H   0  0  0  0  0  0  0  0  0  0  0  0
  152.4704  143.1778  161.4034 H   0  0  0  0  0  0  0  0  0  0  0  0
  153.9779  142.6391  162.1627 H   0  0  0  0  0  0  0  0  0  0  0  0
  151.8925  140.8616  161.1513 H   0  0  0  0  0  0  0  0  0  0  0  0
  155.3269  141.5992  158.9079 H   0  0  0  0  0  0  0  0  0  0  0  0
  155.4504  140.9297  160.5134 H   0  0  0  0  0  0  0  0  0  0  0  0
  154.8972  142.5814  160.2945 H   0  0  0  0  0  0  0  0  0  0  0  0
  152.7493  137.7482  159.5251 H   0  0  0  0  0  0  0  0  0  0  0  0
  152.5898  138.8514  160.8765 H   0  0  0  0  0  0  0  0  0  0  0  0
  153.2087  143.9211  159.8454 H   0  0  0  0  0  0  0  0  0  0  0  0
  151.8311  145.3799  158.3074 H   0  0  0  0  0  0  0  0  0  0  0  0
  150.3325  142.1197  156.2605 H   0  0  0  0  0  0  0  0  0  0  0  0
  151.6374  140.4859  157.7033 H   0  0  0  0  0  0  0  0  0  0  0  0
  150.5304  144.3897  156.6694 H   0  0  0  0  0  0  0  0  0  0  0  0
  1  2  1  0  0  0  0
  1 14  1  0  0  0  0
  1 15  1  0  0  0  0
  1 16  1  0  0  0  0
  2  3  1  0  0  0  0
  2 17  1  0  0  0  0
  3  4  1  0  0  0  0
  3  5  1  0  0  0  0
  3  8  1  0  0  0  0
  4 18  1  0  0  0  0
  4 19  1  0  0  0  0
  4 20  1  0  0  0  0
  5  6  1  0  0  0  0
  5  7  2  0  0  0  0
  6 21  1  0  0  0  0
  6 22  1  0  0  0  0
  8 13  1  0  0  0  0
  8  9  2  0  0  0  0
  9 10  1  0  0  0  0
  9 23  1  0  0  0  0
 10 11  2  0  0  0  0
 10 24  1  0  0  0  0
 11 12  1  0  0  0  0
 11 27  1  0  0  0  0
 12 13  2  0  0  0  0
 12 25  1  0  0  0  0
 13 26  1  0  0  0  0
M  CHG  1  11   1
M  END
> <s_m_source_file>
AV-unprocessed.smi

> <i_m_source_file_index>
912

> <i_lp_mmshare_version>
43012

> <i_f3d_flags>
0

> <s_epik_input>
W0NIM11bTkhdW0NAQF0oW0NIM10pKEMoPU8pW05IMl0pYzFbY0hdW2NIXW5bY0hdW2NIXTE=

> <s_epik_cmdline>
J2VwaWtfcHl0aG9uJywgJy1waCcsICc3LjAnLCAnLXRuJywgJzgnLCAnLW1hJywgJzIwMCcsICctbWV0YWxfYmluZGluZycsICctaW1hZScsICc8aW5maWxlLm1hZT4nLCAnLW9tYWUnLCAnPG91dGZpbGUubWFlPic=

> <r_epik_Ionization_Penalty>
0.562542

> <r_epik_Ionization_Penalty_Charging>
0.554844

> <r_epik_Ionization_Penalty_Neutral>
0.00769834

> <r_epik_State_Penalty>
1.39075

> <r_epik_Charging_Adjusted_Penalty>
1.94559

> <i_epik_Tot_Q>
1

> <i_epik_Tot_abs_Q>
1

> <r_epik_Metal_State_Penalty>
1.55563

> <b_epik_Metal_Only>
0

> <s_lp_Force_Field>
OPLS_2005

> <r_lp_Energy>
17.994

> <b_lp_Chiralities_Consistent>
1

> <s_lp_Variant>
AV-unprocessed.smi:912-5

> <Gold.Version>
5.8.1

> <Gold.Id.Protein>
6NUR|6NUR_protein|mol2

> <Gold.PLP.Fitness>
34.3372

> <Gold.PLP.PLP>
-26.2839

> <Gold.PLP.part.hbond>
-2.0000

> <Gold.PLP.part.metal>
0.0000

> <Gold.PLP.part.buried>
-2.3746

> <Gold.PLP.part.nonpolar>
-22.7838

> <Gold.PLP.part.repulsive>
0.0931

> <Gold.PLP.ligand.clash>
0.2617

> <Gold.PLP.ligand.torsion>
0.3582

> <Gold.PLP.Chemscore.Hbond>
3.0000

> <Gold.PLP.Chemscore.CHOScore>
0.0000

> <Gold.PLP.Chemscore.Metal>
0.0000

> <Gold.Chemscore.Hbonds>
donor molecule, donor type, donor heavy atom, donor atom, acceptor molecule, acceptor atom, score
      L1  H    11    27       P1  8028  1.98
      P1  H  7997  8009       L1     7  0.98

> <Gold.PLP.Chemscore.Internal.Correction>
0.0313

> <Gold.Rescore>
     Score         DG    S(hbond)    S(metal)    S(lipo)     H(rot)  DE(clash)    DE(int)     intcor
     15.37     -17.28       1.98        0.00      84.23       1.82       0.26       1.65       ----

> <Gold.Chemscore.Fitness>
15.3666

> <Gold.Chemscore.DG>
-17.2763

> <Gold.Chemscore.ZeroCoef>
-5.4800

> <Gold.Chemscore.Hbond>
1.9784

> <Gold.Chemscore.Metal>
0.0000

> <Gold.Chemscore.Lipo>
84.2261

> <Gold.Chemscore.Internal_Hbond>
0.0000

> <Gold.Chemscore.DEClash>
0.2607

> <Gold.Chemscore.DEInternal>
1.6490

> <Gold.Chemscore.Rot>
1.8226

> <Gold.Chemscore.Internal.Correction>
   9.000000E+99

> <Gold.Chemscore.Hbonds>
donor molecule, donor type, donor heavy atom, donor atom, acceptor molecule, acceptor atom, score
      L1  H    11    27       P1  8028  0.92
      P1  H  7997  8009       L1     7  0.91

> <Gold.Chemscore.Hbond.Weighted>
-6.6077

> <Gold.Chemscore.Metal.Weighted>
-0.0000

> <Gold.Chemscore.Lipo.Weighted>
-9.8545

> <Gold.Chemscore.Internal_Hbond.Weighted>
0.0000

> <Gold.Chemscore.DEClash.Weighted>
0.2607

> <Gold.Chemscore.DEInternal.Weighted>
1.6490

> <Gold.Chemscore.Rot.Weighted>
4.6659

> <Gold.Chemscore.Internal.Correction.Weighted>
   9.000000E+99

> <Gold.Protein.RotatedTorsions>
[ 6907 6896 6895 6894 ] final   57.02 input  -60.11 | X-H torsion
[ 7974 7965 7964 7962 ] final   13.01 input  175.53 | X-H torsion
[ 8008 7997 7996 7995 ] final  167.15 input   59.86 | X-H torsion
[ 10167 10162 10161 10158 ] final   87.59 input  -65.29 | X-H torsion
[ 10718 10713 10712 10709 ] final  -95.70 input   66.30 | X-H torsion
[ 10763 10752 10751 10750 ] final   -1.31 input  -60.55 | X-H torsion
[ 11005 11000 10999 10996 ] final   95.21 input  -57.11 | X-H torsion

> <Gold.Protein.ActiveResidues>
 VAL166  LYS551  ARG553  GLY616  TRP617  ASP618  TYR619  PRO620  LYS621  CYS622 
 ASP623  PHE694  ASN695  SER759  ASP760  ASP761  ALA762  ILE779  LEU786  VAL792 
 PHE793  MET794  SER795  GLU796  ALA797  LYS798  CYS799  TRP800  GLU811  SER814 

> <Gold.Protein.RotatedAtoms>
  152.3692  134.6759  160.0181 H   0  0  0  0  0  0  0  0  0  0  0  0  # atno 6907 bound_to 6896
  151.7058  133.3306  159.3286 H   0  0  0  0  0  0  0  0  0  0  0  0  # atno 6908 bound_to 6896
  150.7661  134.6511  159.6333 H   0  0  0  0  0  0  0  0  0  0  0  0  # atno 6909 bound_to 6896
  146.2339  139.9252  142.8504 H   0  0  0  0  0  0  0  0  0  0  0  0  # atno 7974 bound_to 7965
  156.1658  140.1624  156.8534 H   0  0  0  0  0  0  0  0  0  0  0  0  # atno 8008 bound_to 7997
  154.5206  140.0779  156.8200 H   0  0  0  0  0  0  0  0  0  0  0  0  # atno 8009 bound_to 7997
  155.3614  140.3395  155.4243 H   0  0  0  0  0  0  0  0  0  0  0  0  # atno 8010 bound_to 7997
  139.8758  144.6467  150.8898 H   0  0  0  0  0  0  0  0  0  0  0  0  # atno 10167 bound_to 10162
  156.0048  130.5120  150.6115 H   0  0  0  0  0  0  0  0  0  0  0  0  # atno 10718 bound_to 10713
  153.3432  135.6982  153.6849 H   0  0  0  0  0  0  0  0  0  0  0  0  # atno 10763 bound_to 10752
  153.5606  135.3535  155.2798 H   0  0  0  0  0  0  0  0  0  0  0  0  # atno 10764 bound_to 10752
  154.8640  135.4248  154.2650 H   0  0  0  0  0  0  0  0  0  0  0  0  # atno 10765 bound_to 10752
  139.8791  134.8887  156.3978 H   0  0  0  0  0  0  0  0  0  0  0  0  # atno 11005 bound_to 11000
  145.2098  140.9890  143.4107 LP  0  0  0  0  0  0  0  0  0  0  0  0  # atno 17320 bound_to 7965
  144.9701  139.3889  143.6313 LP  0  0  0  0  0  0  0  0  0  0  0  0  # atno 17321 bound_to 7965
  140.7753  143.3626  151.1799 LP  0  0  0  0  0  0  0  0  0  0  0  0  # atno 17342 bound_to 10162
  139.7241  143.9176  152.2996 LP  0  0  0  0  0  0  0  0  0  0  0  0  # atno 17343 bound_to 10162
  157.3947  131.0801  151.1362 LP  0  0  0  0  0  0  0  0  0  0  0  0  # atno 17370 bound_to 10713
  157.2043  130.6409  149.5750 LP  0  0  0  0  0  0  0  0  0  0  0  0  # atno 17371 bound_to 10713
  140.9288  133.7593  155.9999 LP  0  0  0  0  0  0  0  0  0  0  0  0  # atno 17394 bound_to 11000
  140.8354  134.3129  157.5333 LP  0  0  0  0  0  0  0  0  0  0  0  0  # atno 17395 bound_to 11000

$$$$
