AV-unprocessed.smi:1764|AV-procd|sdf|7132|dock8
  -GOLD-   22720 8373D 1   1.00000     0.00000
 Structure written by MMmdl.
 31 32  0  0  0  0  0  0  0  0  1 V2000
  151.5914  135.6122  155.5498 O   0  0  0  0  0  0  0  0  0  0  0  0
  150.7828  135.7722  154.6350 C   0  0  0  0  0  0  0  0  0  0  0  0
  150.4803  136.9711  154.1159 N   0  0  0  0  0  0  0  0  0  0  0  0
  151.0414  138.2430  154.5582 C   0  0  0  0  0  0  0  0  0  0  0  0
  149.9391  139.2330  154.9692 C   0  0  2  0  0  0  0  0  0  0  0  0
  148.6165  139.0225  154.2332 C   0  0  0  0  0  0  0  0  0  0  0  0
  147.9656  140.3977  154.2549 C   0  0  0  0  0  0  0  0  0  0  0  0
  149.0902  141.3380  154.6968 C   0  0  0  0  0  0  0  0  0  0  0  0
  150.2753  140.5617  154.6029 O   0  0  0  0  0  0  0  0  0  0  0  0
  150.0917  134.7914  154.0276 N   0  0  0  0  0  0  0  0  0  0  0  0
  150.1447  133.3940  154.2786 C   0  0  0  0  0  0  0  0  0  0  0  0
  149.4285  132.5933  153.3601 C   0  0  0  0  0  0  0  0  0  0  0  0
  149.4199  131.1941  153.5196 C   0  0  0  0  0  0  0  0  0  0  0  0
  150.1293  130.6301  154.5949 C   0  0  0  0  0  0  0  0  0  0  0  0
  150.8165  131.4979  155.4636 C   0  0  0  0  0  0  0  0  0  0  0  0
  150.8258  132.8392  155.3124 N   0  0  0  0  0  0  0  0  0  0  0  0
  149.8068  137.0093  153.3650 H   0  0  0  0  0  0  0  0  0  0  0  0
  151.7528  138.0944  155.3726 H   0  0  0  0  0  0  0  0  0  0  0  0
  151.6098  138.6579  153.7256 H   0  0  0  0  0  0  0  0  0  0  0  0
  149.7715  139.1920  156.0473 H   0  0  0  0  0  0  0  0  0  0  0  0
  148.8021  138.7260  153.1998 H   0  0  0  0  0  0  0  0  0  0  0  0
  147.9983  138.2530  154.6964 H   0  0  0  0  0  0  0  0  0  0  0  0
  147.5890  140.6616  153.2660 H   0  0  0  0  0  0  0  0  0  0  0  0
  147.1300  140.4386  154.9546 H   0  0  0  0  0  0  0  0  0  0  0  0
  149.1560  142.2338  154.0789 H   0  0  0  0  0  0  0  0  0  0  0  0
  148.9463  141.6476  155.7330 H   0  0  0  0  0  0  0  0  0  0  0  0
  149.4569  135.0771  153.2972 H   0  0  0  0  0  0  0  0  0  0  0  0
  148.8892  133.0429  152.5388 H   0  0  0  0  0  0  0  0  0  0  0  0
  148.8784  130.5651  152.8286 H   0  0  0  0  0  0  0  0  0  0  0  0
  150.1467  129.5615  154.7502 H   0  0  0  0  0  0  0  0  0  0  0  0
  151.3739  131.1058  156.3015 H   0  0  0  0  0  0  0  0  0  0  0  0
  1  2  2  0  0  0  0
  2  3  1  0  0  0  0
  2 10  1  0  0  0  0
  3  4  1  0  0  0  0
  3 17  1  0  0  0  0
  4  5  1  0  0  0  0
  4 18  1  0  0  0  0
  4 19  1  0  0  0  0
  5  9  1  0  0  0  0
  5  6  1  0  0  0  0
  5 20  1  0  0  0  0
  6  7  1  0  0  0  0
  6 21  1  0  0  0  0
  6 22  1  0  0  0  0
  7  8  1  0  0  0  0
  7 23  1  0  0  0  0
  7 24  1  0  0  0  0
  8  9  1  0  0  0  0
  8 25  1  0  0  0  0
  8 26  1  0  0  0  0
 10 11  1  0  0  0  0
 10 27  1  0  0  0  0
 11 16  1  0  0  0  0
 11 12  2  0  0  0  0
 12 13  1  0  0  0  0
 12 28  1  0  0  0  0
 13 14  2  0  0  0  0
 13 29  1  0  0  0  0
 14 15  1  0  0  0  0
 14 30  1  0  0  0  0
 15 16  2  0  0  0  0
 15 31  1  0  0  0  0
M  END
> <s_m_source_file>
AV-unprocessed.smi

> <i_m_source_file_index>
1764

> <i_lp_mmshare_version>
43012

> <i_f3d_flags>
0

> <s_epik_input>
bjFbY0hdW2NIXVtjSF1bY0hdYzFbTkhdQyg9TylbTkhdW0NIMl1bQ0BASF0yW0NIMl1bQ0gyXVtDSDJdTzI=

> <s_epik_cmdline>
J2VwaWtfcHl0aG9uJywgJy1waCcsICc3LjAnLCAnLXRuJywgJzgnLCAnLW1hJywgJzIwMCcsICctbWV0YWxfYmluZGluZycsICctaW1hZScsICc8aW5maWxlLm1hZT4nLCAnLW9tYWUnLCAnPG91dGZpbGUubWFlPic=

> <r_lp_tautomer_probability>
1

> <r_epik_Ionization_Penalty>
4.47751e-05

> <r_epik_Ionization_Penalty_Charging>
0

> <r_epik_Ionization_Penalty_Neutral>
4.47751e-05

> <r_epik_State_Penalty>
-0

> <r_epik_Charging_Adjusted_Penalty>
0

> <i_epik_Tot_Q>
0

> <i_epik_Tot_abs_Q>
0

> <r_epik_Metal_State_Penalty>
-0

> <b_epik_Metal_Only>
0

> <s_lp_Force_Field>
OPLS_2005

> <r_lp_Energy>
19.1165

> <b_lp_Chiralities_Consistent>
1

> <s_lp_Variant>
AV-unprocessed.smi:1764-1

> <Gold.Version>
5.8.1

> <Gold.Id.Protein>
6NUR|6NUR_protein|mol2

> <Gold.PLP.Fitness>
40.5361

> <Gold.PLP.PLP>
-30.0601

> <Gold.PLP.part.hbond>
-5.3527

> <Gold.PLP.part.metal>
0.0000

> <Gold.PLP.part.buried>
-1.3652

> <Gold.PLP.part.nonpolar>
-24.0212

> <Gold.PLP.part.repulsive>
0.2789

> <Gold.PLP.ligand.clash>
0.0000

> <Gold.PLP.ligand.torsion>
0.4708

> <Gold.PLP.Chemscore.Hbond>
3.8032

> <Gold.PLP.Chemscore.CHOScore>
0.0000

> <Gold.PLP.Chemscore.Metal>
0.0000

> <Gold.Chemscore.Hbonds>
donor molecule, donor type, donor heavy atom, donor atom, acceptor molecule, acceptor atom, score
      L1  H     3    17       P1  7948  1.00
      L1  H    10    27       P1  7948  0.50
      P1  H  7989  7998       L1     9  0.91
      P1  H 10752 10763       L1     1  1.00

> <Gold.PLP.Chemscore.Internal.Correction>
0.0079

> <Gold.Rescore>
     Score         DG    S(hbond)    S(metal)    S(lipo)     H(rot)  DE(clash)    DE(int)     intcor
     15.91     -17.74       2.79        0.00      52.75       1.27       0.01       1.81       ----

> <Gold.Chemscore.Fitness>
15.9099

> <Gold.Chemscore.DG>
-17.7351

> <Gold.Chemscore.ZeroCoef>
-5.4800

> <Gold.Chemscore.Hbond>
2.7931

> <Gold.Chemscore.Metal>
0.0000

> <Gold.Chemscore.Lipo>
52.7479

> <Gold.Chemscore.Internal_Hbond>
0.0000

> <Gold.Chemscore.DEClash>
0.0115

> <Gold.Chemscore.DEInternal>
1.8137

> <Gold.Chemscore.Rot>
1.2678

> <Gold.Chemscore.Internal.Correction>
   9.000000E+99

> <Gold.Chemscore.Hbonds>
donor molecule, donor type, donor heavy atom, donor atom, acceptor molecule, acceptor atom, score
      L1  H     3    17       P1  7948  0.42
      L1  H    10    27       P1  7948  0.02
      P1  H  7989  7998       L1     9  0.88
      P1  H 10752 10763       L1     1  0.80

> <Gold.Chemscore.Hbond.Weighted>
-9.3291

> <Gold.Chemscore.Metal.Weighted>
-0.0000

> <Gold.Chemscore.Lipo.Weighted>
-6.1715

> <Gold.Chemscore.Internal_Hbond.Weighted>
0.0000

> <Gold.Chemscore.DEClash.Weighted>
0.0115

> <Gold.Chemscore.DEInternal.Weighted>
1.8137

> <Gold.Chemscore.Rot.Weighted>
3.2455

> <Gold.Chemscore.Internal.Correction.Weighted>
   9.000000E+99

> <Gold.Protein.RotatedTorsions>
[ 6907 6896 6895 6894 ] final   51.15 input  -60.11 | X-H torsion
[ 7974 7965 7964 7962 ] final   24.62 input  175.53 | X-H torsion
[ 8008 7997 7996 7995 ] final  145.48 input   59.86 | X-H torsion
[ 10167 10162 10161 10158 ] final  165.48 input  -65.29 | X-H torsion
[ 10718 10713 10712 10709 ] final   19.36 input   66.30 | X-H torsion
[ 10763 10752 10751 10750 ] final   87.01 input  -60.55 | X-H torsion
[ 11005 11000 10999 10996 ] final    3.21 input  -57.11 | X-H torsion

> <Gold.Protein.ActiveResidues>
 VAL166  LYS551  ARG553  GLY616  TRP617  ASP618  TYR619  PRO620  LYS621  CYS622 
 ASP623  PHE694  ASN695  SER759  ASP760  ASP761  ALA762  ILE779  LEU786  VAL792 
 PHE793  MET794  SER795  GLU796  ALA797  LYS798  CYS799  TRP800  GLU811  SER814 

> <Gold.Protein.RotatedAtoms>
  152.3096  134.7513  160.0339 H   0  0  0  0  0  0  0  0  0  0  0  0  # atno 6907 bound_to 6896
  151.7999  133.3363  159.3532 H   0  0  0  0  0  0  0  0  0  0  0  0  # atno 6908 bound_to 6896
  150.7313  134.5694  159.5927 H   0  0  0  0  0  0  0  0  0  0  0  0  # atno 6909 bound_to 6896
  146.1929  139.7580  142.8819 H   0  0  0  0  0  0  0  0  0  0  0  0  # atno 7974 bound_to 7965
  156.2882  140.2208  156.5223 H   0  0  0  0  0  0  0  0  0  0  0  0  # atno 8008 bound_to 7997
  154.7518  140.0480  157.0922 H   0  0  0  0  0  0  0  0  0  0  0  0  # atno 8009 bound_to 7997
  155.0100  140.3112  155.4837 H   0  0  0  0  0  0  0  0  0  0  0  0  # atno 8010 bound_to 7997
  139.4906  144.4128  151.9279 H   0  0  0  0  0  0  0  0  0  0  0  0  # atno 10167 bound_to 10162
  157.1093  130.6502  149.5893 H   0  0  0  0  0  0  0  0  0  0  0  0  # atno 10718 bound_to 10713
  153.1626  135.4559  154.9793 H   0  0  0  0  0  0  0  0  0  0  0  0  # atno 10763 bound_to 10752
  154.7908  135.3220  154.7783 H   0  0  0  0  0  0  0  0  0  0  0  0  # atno 10764 bound_to 10752
  153.8271  135.6942  153.4874 H   0  0  0  0  0  0  0  0  0  0  0  0  # atno 10765 bound_to 10752
  140.5957  133.9882  155.8109 H   0  0  0  0  0  0  0  0  0  0  0  0  # atno 11005 bound_to 11000
  145.3736  141.0347  143.3217 LP  0  0  0  0  0  0  0  0  0  0  0  0  # atno 17320 bound_to 7965
  144.8522  139.5305  143.6851 LP  0  0  0  0  0  0  0  0  0  0  0  0  # atno 17321 bound_to 7965
  140.3570  144.3020  150.5939 LP  0  0  0  0  0  0  0  0  0  0  0  0  # atno 17342 bound_to 10162
  140.5436  143.2219  151.8044 LP  0  0  0  0  0  0  0  0  0  0  0  0  # atno 17343 bound_to 10162
  155.9854  130.4884  150.7030 LP  0  0  0  0  0  0  0  0  0  0  0  0  # atno 17370 bound_to 10713
  157.4573  131.0879  151.0783 LP  0  0  0  0  0  0  0  0  0  0  0  0  # atno 17371 bound_to 10713
  141.0905  133.9923  157.3244 LP  0  0  0  0  0  0  0  0  0  0  0  0  # atno 17394 bound_to 11000
  139.9254  135.0201  156.8216 LP  0  0  0  0  0  0  0  0  0  0  0  0  # atno 17395 bound_to 11000

$$$$
