AV-unprocessed.smi:3034|AV-procd|sdf|11578|dock4
  -GOLD-   2272016543D 1   1.00000     0.00000
 Structure written by MMmdl.
 32 32  0  0  0  0  0  0  0  0  1 V2000
  146.6430  142.5742  154.1174 C   0  0  0  0  0  0  0  0  0  0  0  0
  147.4050  141.2449  154.1329 C   0  0  0  0  0  0  0  0  0  0  0  0
  148.9202  141.4378  154.2862 C   0  0  0  0  0  0  0  0  0  0  0  0
  149.7650  139.8572  154.7211 S   0  0  0  0  0  0  0  0  0  0  0  0
  149.1483  138.7562  153.9646 O   0  0  0  0  0  0  0  0  0  0  0  0
  151.2202  140.0647  154.6792 O   0  0  0  0  0  0  0  0  0  0  0  0
  149.3313  139.6568  156.3764 N   0  0  0  0  0  0  0  0  0  0  0  0
  150.0969  140.3977  157.3790 C   0  0  0  0  0  0  0  0  0  0  0  0
  150.1891  141.8882  157.0076 C   0  0  1  0  0  0  0  0  0  0  0  0
  148.9000  142.4639  157.1083 O   0  0  0  0  0  0  0  0  0  0  0  0
  151.2096  142.6059  157.8825 C   0  0  0  0  0  0  0  0  0  0  0  0
  151.5132  143.9751  157.7001 C   0  0  0  0  0  0  0  0  0  0  0  0
  152.4504  144.5779  158.5611 C   0  0  0  0  0  0  0  0  0  0  0  0
  153.0438  143.7980  159.5717 C   0  0  0  0  0  0  0  0  0  0  0  0
  152.6704  142.4440  159.6778 C   0  0  0  0  0  0  0  0  0  0  0  0
  151.7728  141.8566  158.8579 N   0  0  0  0  0  0  0  0  0  0  0  0
  145.5712  142.4056  154.0109 H   0  0  0  0  0  0  0  0  0  0  0  0
  146.9648  143.2028  153.2868 H   0  0  0  0  0  0  0  0  0  0  0  0
  146.8019  143.1302  155.0415 H   0  0  0  0  0  0  0  0  0  0  0  0
  147.0320  140.6270  154.9502 H   0  0  0  0  0  0  0  0  0  0  0  0
  147.1935  140.7010  153.2120 H   0  0  0  0  0  0  0  0  0  0  0  0
  149.3453  141.7904  153.3463 H   0  0  0  0  0  0  0  0  0  0  0  0
  149.1571  142.1774  155.0512 H   0  0  0  0  0  0  0  0  0  0  0  0
  148.3300  139.7986  156.5082 H   0  0  0  0  0  0  0  0  0  0  0  0
  149.6501  140.2627  158.3649 H   0  0  0  0  0  0  0  0  0  0  0  0
  151.0982  139.9667  157.4203 H   0  0  0  0  0  0  0  0  0  0  0  0
  150.5084  141.9863  155.9686 H   0  0  0  0  0  0  0  0  0  0  0  0
  148.9483  143.3568  156.8030 H   0  0  0  0  0  0  0  0  0  0  0  0
  151.0405  144.5582  156.9237 H   0  0  0  0  0  0  0  0  0  0  0  0
  152.7074  145.6210  158.4497 H   0  0  0  0  0  0  0  0  0  0  0  0
  153.7659  144.2272  160.2504 H   0  0  0  0  0  0  0  0  0  0  0  0
  153.1029  141.8163  160.4428 H   0  0  0  0  0  0  0  0  0  0  0  0
  1  2  1  0  0  0  0
  1 17  1  0  0  0  0
  1 18  1  0  0  0  0
  1 19  1  0  0  0  0
  2  3  1  0  0  0  0
  2 20  1  0  0  0  0
  2 21  1  0  0  0  0
  3  4  1  0  0  0  0
  3 22  1  0  0  0  0
  3 23  1  0  0  0  0
  4  5  2  0  0  0  0
  4  6  2  0  0  0  0
  4  7  1  0  0  0  0
  7  8  1  0  0  0  0
  7 24  1  0  0  0  0
  8  9  1  0  0  0  0
  8 25  1  0  0  0  0
  8 26  1  0  0  0  0
  9 10  1  0  0  0  0
  9 11  1  0  0  0  0
  9 27  1  0  0  0  0
 10 28  1  0  0  0  0
 11 16  1  0  0  0  0
 11 12  2  0  0  0  0
 12 13  1  0  0  0  0
 12 29  1  0  0  0  0
 13 14  2  0  0  0  0
 13 30  1  0  0  0  0
 14 15  1  0  0  0  0
 14 31  1  0  0  0  0
 15 16  2  0  0  0  0
 15 32  1  0  0  0  0
M  END
> <s_m_source_file>
AV-unprocessed.smi

> <i_m_source_file_index>
3034

> <i_lp_mmshare_version>
43012

> <i_f3d_flags>
0

> <s_epik_input>
W0NIM11bQ0gyXVtDSDJdUyg9TykoPU8pW05IXVtDSDJdW0NASF0oW09IXSljMVtjSF1bY0hdW2NIXVtjSF1uMQ==

> <s_epik_cmdline>
J2VwaWtfcHl0aG9uJywgJy1waCcsICc3LjAnLCAnLXRuJywgJzgnLCAnLW1hJywgJzIwMCcsICctbWV0YWxfYmluZGluZycsICctaW1hZScsICc8aW5maWxlLm1hZT4nLCAnLW9tYWUnLCAnPG91dGZpbGUubWFlPic=

> <r_epik_Ionization_Penalty>
0.00187371

> <r_epik_Ionization_Penalty_Charging>
0

> <r_epik_Ionization_Penalty_Neutral>
0.00187371

> <r_epik_State_Penalty>
0.0012608

> <r_epik_Charging_Adjusted_Penalty>
0.0012608

> <i_epik_Tot_Q>
0

> <i_epik_Tot_abs_Q>
0

> <r_epik_Metal_State_Penalty>
0.0168387

> <b_epik_Metal_Only>
0

> <s_lp_Force_Field>
OPLS_2005

> <r_lp_Energy>
4.76334

> <b_lp_Chiralities_Consistent>
1

> <s_lp_Variant>
AV-unprocessed.smi:3034-2

> <Gold.Version>
5.8.1

> <Gold.Id.Protein>
6NUR|6NUR_protein|mol2

> <Gold.PLP.Fitness>
41.6573

> <Gold.PLP.PLP>
-37.1173

> <Gold.PLP.part.hbond>
-2.0000

> <Gold.PLP.part.metal>
0.0000

> <Gold.PLP.part.buried>
-4.8563

> <Gold.PLP.part.nonpolar>
-31.0504

> <Gold.PLP.part.repulsive>
0.3039

> <Gold.PLP.ligand.clash>
0.0000

> <Gold.PLP.ligand.torsion>
0.8281

> <Gold.PLP.Chemscore.Hbond>
2.0000

> <Gold.PLP.Chemscore.CHOScore>
0.0000

> <Gold.PLP.Chemscore.Metal>
0.0000

> <Gold.Chemscore.Hbonds>
donor molecule, donor type, donor heavy atom, donor atom, acceptor molecule, acceptor atom, score
      L1  H    10    28       P1  8028  1.00
      P1  H  7989  7998       L1     6  0.89

> <Gold.PLP.Chemscore.Internal.Correction>
0.1962

> <Gold.Rescore>
     Score         DG    S(hbond)    S(metal)    S(lipo)     H(rot)  DE(clash)    DE(int)     intcor
     15.15     -16.27       1.91        0.00      95.21       2.63       0.16       0.96       ----

> <Gold.Chemscore.Fitness>
15.1473

> <Gold.Chemscore.DG>
-16.2707

> <Gold.Chemscore.ZeroCoef>
-5.4800

> <Gold.Chemscore.Hbond>
1.9096

> <Gold.Chemscore.Metal>
0.0000

> <Gold.Chemscore.Lipo>
95.2068

> <Gold.Chemscore.Internal_Hbond>
0.0000

> <Gold.Chemscore.DEClash>
0.1642

> <Gold.Chemscore.DEInternal>
0.9592

> <Gold.Chemscore.Rot>
2.6275

> <Gold.Chemscore.Internal.Correction>
   9.000000E+99

> <Gold.Chemscore.Hbonds>
donor molecule, donor type, donor heavy atom, donor atom, acceptor molecule, acceptor atom, score
      L1  H    10    28       P1  8028  0.82
      P1  H  7989  7998       L1     6  0.70

> <Gold.Chemscore.Hbond.Weighted>
-6.3780

> <Gold.Chemscore.Metal.Weighted>
-0.0000

> <Gold.Chemscore.Lipo.Weighted>
-11.1392

> <Gold.Chemscore.Internal_Hbond.Weighted>
0.0000

> <Gold.Chemscore.DEClash.Weighted>
0.1642

> <Gold.Chemscore.DEInternal.Weighted>
0.9592

> <Gold.Chemscore.Rot.Weighted>
6.7265

> <Gold.Chemscore.Internal.Correction.Weighted>
   9.000000E+99

> <Gold.Protein.RotatedTorsions>
[ 6907 6896 6895 6894 ] final  138.69 input  -60.11 | X-H torsion
[ 7974 7965 7964 7962 ] final -120.00 input  175.53 | X-H torsion
[ 8008 7997 7996 7995 ] final  -89.68 input   59.86 | X-H torsion
[ 10167 10162 10161 10158 ] final  121.41 input  -65.29 | X-H torsion
[ 10718 10713 10712 10709 ] final -155.07 input   66.30 | X-H torsion
[ 10763 10752 10751 10750 ] final -176.85 input  -60.55 | X-H torsion
[ 11005 11000 10999 10996 ] final   83.56 input  -57.11 | X-H torsion

> <Gold.Protein.ActiveResidues>
 VAL166  LYS551  ARG553  GLY616  TRP617  ASP618  TYR619  PRO620  LYS621  CYS622 
 ASP623  PHE694  ASN695  SER759  ASP760  ASP761  ALA762  ILE779  LEU786  VAL792 
 PHE793  MET794  SER795  GLU796  ALA797  LYS798  CYS799  TRP800  GLU811  SER814 

> <Gold.Protein.RotatedAtoms>
  152.2636  133.5319  159.5396 H   0  0  0  0  0  0  0  0  0  0  0  0  # atno 6907 bound_to 6896
  150.7134  134.0795  159.3902 H   0  0  0  0  0  0  0  0  0  0  0  0  # atno 6908 bound_to 6896
  151.8712  135.0488  160.0530 H   0  0  0  0  0  0  0  0  0  0  0  0  # atno 6909 bound_to 6896
  145.0562  140.8256  143.4179 H   0  0  0  0  0  0  0  0  0  0  0  0  # atno 7974 bound_to 7965
  154.6895  140.0539  157.0349 H   0  0  0  0  0  0  0  0  0  0  0  0  # atno 8008 bound_to 7997
  155.0837  140.3212  155.4575 H   0  0  0  0  0  0  0  0  0  0  0  0  # atno 8009 bound_to 7997
  156.2723  140.2060  156.5964 H   0  0  0  0  0  0  0  0  0  0  0  0  # atno 8010 bound_to 7997
  139.5921  144.7029  151.3264 H   0  0  0  0  0  0  0  0  0  0  0  0  # atno 10167 bound_to 10162
  156.5078  130.8421  151.2634 H   0  0  0  0  0  0  0  0  0  0  0  0  # atno 10718 bound_to 10713
  154.5673  135.2825  155.0861 H   0  0  0  0  0  0  0  0  0  0  0  0  # atno 10763 bound_to 10752
  154.2247  135.6385  153.5159 H   0  0  0  0  0  0  0  0  0  0  0  0  # atno 10764 bound_to 10752
  153.0047  135.5523  154.6286 H   0  0  0  0  0  0  0  0  0  0  0  0  # atno 10765 bound_to 10752
  139.9027  134.8153  156.2326 H   0  0  0  0  0  0  0  0  0  0  0  0  # atno 11005 bound_to 11000
  145.1465  139.2540  143.5463 LP  0  0  0  0  0  0  0  0  0  0  0  0  # atno 17320 bound_to 7965
  146.3521  140.1156  142.8602 LP  0  0  0  0  0  0  0  0  0  0  0  0  # atno 17321 bound_to 7965
  140.7182  143.7209  150.7697 LP  0  0  0  0  0  0  0  0  0  0  0  0  # atno 17342 bound_to 10162
  140.0767  143.5008  152.2552 LP  0  0  0  0  0  0  0  0  0  0  0  0  # atno 17343 bound_to 10162
  157.7454  130.9960  150.2763 LP  0  0  0  0  0  0  0  0  0  0  0  0  # atno 17370 bound_to 10713
  156.3270  130.3794  149.7524 LP  0  0  0  0  0  0  0  0  0  0  0  0  # atno 17371 bound_to 10713
  141.0336  133.6975  156.1473 LP  0  0  0  0  0  0  0  0  0  0  0  0  # atno 17394 bound_to 11000
  140.7060  134.4513  157.5584 LP  0  0  0  0  0  0  0  0  0  0  0  0  # atno 17395 bound_to 11000

$$$$
