AV-unprocessed.smi:2453|AV-procd|sdf|9687|dock5
  -GOLD-   2272013323D 1   1.00000     0.00000
 Structure written by MMmdl.
 40 41  0  0  0  0  0  0  0  0  1 V2000
  150.4534  136.6163  154.8714 C   0  0  0  0  0  0  0  0  0  0  0  0
  150.7264  135.2143  155.3876 C   0  0  0  0  0  0  0  0  0  0  0  0
  151.6930  135.0115  156.3960 C   0  0  0  0  0  0  0  0  0  0  0  0
  151.9918  133.8012  156.9107 N   0  0  0  0  0  0  0  0  0  0  0  0
  151.3221  132.7324  156.4331 C   0  0  0  0  0  0  0  0  0  0  0  0
  150.3386  132.8191  155.4289 C   0  0  0  0  0  0  0  0  0  0  0  0
  150.0360  134.0879  154.8779 C   0  0  0  0  0  0  0  0  0  0  0  0
  149.0424  134.2875  153.8778 N   0  0  0  0  0  0  0  0  0  0  0  0
  147.9757  133.5233  153.5858 C   0  0  0  0  0  0  0  0  0  0  0  0
  147.7018  132.4490  154.1206 O   0  0  0  0  0  0  0  0  0  0  0  0
  147.2397  134.0781  152.6114 N   0  0  0  0  0  0  0  0  0  0  0  0
  146.0051  133.5308  152.0487 C   0  0  2  0  0  0  0  0  0  0  0  0
  146.2031  132.0216  151.8018 C   0  0  0  0  0  0  0  0  0  0  0  0
  144.9703  131.3842  151.1472 C   0  0  0  0  0  0  0  0  0  0  0  0
  144.6108  132.1071  149.8433 C   0  0  0  0  0  0  0  0  0  0  0  0
  144.3897  133.6067  150.0891 C   0  0  0  0  0  0  0  0  0  0  0  0
  145.6175  134.2791  150.7454 C   0  0  1  0  0  0  0  0  0  0  0  0
  145.3583  135.7826  150.9911 C   0  0  0  0  0  0  0  0  0  0  0  0
  145.3721  136.5019  149.7757 O   0  0  0  0  0  0  0  0  0  0  0  0
  151.0885  137.3521  155.3656 H   0  0  0  0  0  0  0  0  0  0  0  0
  149.4144  136.8927  155.0521 H   0  0  0  0  0  0  0  0  0  0  0  0
  150.6453  136.6713  153.7996 H   0  0  0  0  0  0  0  0  0  0  0  0
  152.2440  135.8453  156.8058 H   0  0  0  0  0  0  0  0  0  0  0  0
  151.5717  131.7772  156.8711 H   0  0  0  0  0  0  0  0  0  0  0  0
  149.8311  131.9199  155.1160 H   0  0  0  0  0  0  0  0  0  0  0  0
  149.1859  135.0914  153.2845 H   0  0  0  0  0  0  0  0  0  0  0  0
  147.5511  134.9604  152.2321 H   0  0  0  0  0  0  0  0  0  0  0  0
  145.1832  133.6477  152.7575 H   0  0  0  0  0  0  0  0  0  0  0  0
  147.0720  131.8619  151.1615 H   0  0  0  0  0  0  0  0  0  0  0  0
  146.4183  131.5153  152.7437 H   0  0  0  0  0  0  0  0  0  0  0  0
  145.1576  130.3286  150.9485 H   0  0  0  0  0  0  0  0  0  0  0  0
  144.1254  131.4253  151.8359 H   0  0  0  0  0  0  0  0  0  0  0  0
  145.4095  131.9687  149.1133 H   0  0  0  0  0  0  0  0  0  0  0  0
  143.7136  131.6655  149.4089 H   0  0  0  0  0  0  0  0  0  0  0  0
  144.1563  134.0904  149.1400 H   0  0  0  0  0  0  0  0  0  0  0  0
  143.5136  133.7425  150.7248 H   0  0  0  0  0  0  0  0  0  0  0  0
  146.4565  134.1928  150.0524 H   0  0  0  0  0  0  0  0  0  0  0  0
  144.4005  135.9332  151.4902 H   0  0  0  0  0  0  0  0  0  0  0  0
  146.1235  136.2181  151.6330 H   0  0  0  0  0  0  0  0  0  0  0  0
  145.6775  135.9276  149.0900 H   0  0  0  0  0  0  0  0  0  0  0  0
  1  2  1  0  0  0  0
  1 20  1  0  0  0  0
  1 21  1  0  0  0  0
  1 22  1  0  0  0  0
  2  7  1  0  0  0  0
  2  3  2  0  0  0  0
  3  4  1  0  0  0  0
  3 23  1  0  0  0  0
  4  5  2  0  0  0  0
  5  6  1  0  0  0  0
  5 24  1  0  0  0  0
  6  7  2  0  0  0  0
  6 25  1  0  0  0  0
  7  8  1  0  0  0  0
  8  9  1  0  0  0  0
  8 26  1  0  0  0  0
  9 10  2  0  0  0  0
  9 11  1  0  0  0  0
 11 12  1  0  0  0  0
 11 27  1  0  0  0  0
 12 17  1  0  0  0  0
 12 13  1  0  0  0  0
 12 28  1  0  0  0  0
 13 14  1  0  0  0  0
 13 29  1  0  0  0  0
 13 30  1  0  0  0  0
 14 15  1  0  0  0  0
 14 31  1  0  0  0  0
 14 32  1  0  0  0  0
 15 16  1  0  0  0  0
 15 33  1  0  0  0  0
 15 34  1  0  0  0  0
 16 17  1  0  0  0  0
 16 35  1  0  0  0  0
 16 36  1  0  0  0  0
 17 18  1  0  0  0  0
 17 37  1  0  0  0  0
 18 19  1  0  0  0  0
 18 38  1  0  0  0  0
 18 39  1  0  0  0  0
 19 40  1  0  0  0  0
M  END
> <s_m_source_file>
AV-unprocessed.smi

> <i_m_source_file_index>
2453

> <i_lp_mmshare_version>
43012

> <i_f3d_flags>
0

> <s_epik_input>
W0NIM11jMVtjSF1uW2NIXVtjSF1jMVtOSF1DKD1PKVtOSF1bQ0BASF0yW0NIMl1bQ0gyXVtDSDJdW0NIMl1bQ0BIXTJbQ0gyXVtPSF0=

> <s_epik_cmdline>
J2VwaWtfcHl0aG9uJywgJy1waCcsICc3LjAnLCAnLXRuJywgJzgnLCAnLW1hJywgJzIwMCcsICctbWV0YWxfYmluZGluZycsICctaW1hZScsICc8aW5maWxlLm1hZT4nLCAnLW9tYWUnLCAnPG91dGZpbGUubWFlPic=

> <r_epik_Ionization_Penalty>
0.210691

> <r_epik_Ionization_Penalty_Charging>
0

> <r_epik_Ionization_Penalty_Neutral>
0.210691

> <r_epik_State_Penalty>
0.200732

> <r_epik_Charging_Adjusted_Penalty>
0.200732

> <i_epik_Tot_Q>
0

> <i_epik_Tot_abs_Q>
0

> <r_epik_Metal_State_Penalty>
0.147519

> <b_epik_Metal_Only>
0

> <s_lp_Force_Field>
OPLS_2005

> <r_lp_Energy>
17.5687

> <b_lp_Chiralities_Consistent>
1

> <s_lp_Variant>
AV-unprocessed.smi:2453-1

> <Gold.Version>
5.8.1

> <Gold.Id.Protein>
6NUR|6NUR_protein|mol2

> <Gold.PLP.Fitness>
45.0453

> <Gold.PLP.PLP>
-36.9102

> <Gold.PLP.part.hbond>
-4.8552

> <Gold.PLP.part.metal>
0.0000

> <Gold.PLP.part.buried>
-4.7220

> <Gold.PLP.part.nonpolar>
-27.0663

> <Gold.PLP.part.repulsive>
0.0541

> <Gold.PLP.ligand.clash>
0.0000

> <Gold.PLP.ligand.torsion>
0.4012

> <Gold.PLP.Chemscore.Hbond>
2.9760

> <Gold.PLP.Chemscore.CHOScore>
0.0000

> <Gold.PLP.Chemscore.Metal>
0.0000

> <Gold.Chemscore.Hbonds>
donor molecule, donor type, donor heavy atom, donor atom, acceptor molecule, acceptor atom, score
      L1  H     8    26       P1  7948  0.80
      L1  H    11    27       P1  7948  1.00
      L1  H    19    40       P1  7921  1.00

> <Gold.PLP.Chemscore.Internal.Correction>
0.0095

> <Gold.Rescore>
     Score         DG    S(hbond)    S(metal)    S(lipo)     H(rot)  DE(clash)    DE(int)     intcor
     16.37     -19.06       2.53        0.00      82.07       1.75       0.08       2.60       ----

> <Gold.Chemscore.Fitness>
16.3719

> <Gold.Chemscore.DG>
-19.0600

> <Gold.Chemscore.ZeroCoef>
-5.4800

> <Gold.Chemscore.Hbond>
2.5317

> <Gold.Chemscore.Metal>
0.0000

> <Gold.Chemscore.Lipo>
82.0722

> <Gold.Chemscore.Internal_Hbond>
0.0000

> <Gold.Chemscore.DEClash>
0.0848

> <Gold.Chemscore.DEInternal>
2.6033

> <Gold.Chemscore.Rot>
1.7493

> <Gold.Chemscore.Internal.Correction>
   9.000000E+99

> <Gold.Chemscore.Hbonds>
donor molecule, donor type, donor heavy atom, donor atom, acceptor molecule, acceptor atom, score
      L1  H     8    26       P1  7948  0.12
      L1  H    11    27       P1  7948  0.89
      L1  H    19    40       P1  7921  1.00

> <Gold.Chemscore.Hbond.Weighted>
-8.4557

> <Gold.Chemscore.Metal.Weighted>
-0.0000

> <Gold.Chemscore.Lipo.Weighted>
-9.6024

> <Gold.Chemscore.Internal_Hbond.Weighted>
0.0000

> <Gold.Chemscore.DEClash.Weighted>
0.0848

> <Gold.Chemscore.DEInternal.Weighted>
2.6033

> <Gold.Chemscore.Rot.Weighted>
4.4782

> <Gold.Chemscore.Internal.Correction.Weighted>
   9.000000E+99

> <Gold.Protein.RotatedTorsions>
[ 6907 6896 6895 6894 ] final -114.84 input  -60.11 | X-H torsion
[ 7974 7965 7964 7962 ] final  149.40 input  175.53 | X-H torsion
[ 8008 7997 7996 7995 ] final  -72.76 input   59.86 | X-H torsion
[ 10167 10162 10161 10158 ] final   22.20 input  -65.29 | X-H torsion
[ 10718 10713 10712 10709 ] final  121.34 input   66.30 | X-H torsion
[ 10763 10752 10751 10750 ] final -112.01 input  -60.55 | X-H torsion
[ 11005 11000 10999 10996 ] final  -23.40 input  -57.11 | X-H torsion

> <Gold.Protein.ActiveResidues>
 VAL166  LYS551  ARG553  GLY616  TRP617  ASP618  TYR619  PRO620  LYS621  CYS622 
 ASP623  PHE694  ASN695  SER759  ASP760  ASP761  ALA762  ILE779  LEU786  VAL792 
 PHE793  MET794  SER795  GLU796  ALA797  LYS798  CYS799  TRP800  GLU811  SER814 

> <Gold.Protein.RotatedAtoms>
  150.7932  133.8743  159.3267 H   0  0  0  0  0  0  0  0  0  0  0  0  # atno 6907 bound_to 6896
  151.6576  135.0992  160.0182 H   0  0  0  0  0  0  0  0  0  0  0  0  # atno 6908 bound_to 6896
  152.4010  133.6779  159.6351 H   0  0  0  0  0  0  0  0  0  0  0  0  # atno 6909 bound_to 6896
  144.8441  139.6276  143.6003 H   0  0  0  0  0  0  0  0  0  0  0  0  # atno 7974 bound_to 7965
  154.5192  140.0791  156.8139 H   0  0  0  0  0  0  0  0  0  0  0  0  # atno 8008 bound_to 7997
  155.3613  140.3418  155.4222 H   0  0  0  0  0  0  0  0  0  0  0  0  # atno 8009 bound_to 7997
  156.1662  140.1604  156.8514 H   0  0  0  0  0  0  0  0  0  0  0  0  # atno 8010 bound_to 7997
  140.5367  143.9749  150.6495 H   0  0  0  0  0  0  0  0  0  0  0  0  # atno 10167 bound_to 10162
  157.5825  131.1073  150.8160 H   0  0  0  0  0  0  0  0  0  0  0  0  # atno 10718 bound_to 10713
  154.8329  135.4506  154.1128 H   0  0  0  0  0  0  0  0  0  0  0  0  # atno 10763 bound_to 10752
  153.2385  135.6913  153.7815 H   0  0  0  0  0  0  0  0  0  0  0  0  # atno 10764 bound_to 10752
  153.7172  135.3347  155.3235 H   0  0  0  0  0  0  0  0  0  0  0  0  # atno 10765 bound_to 10752
  140.8748  133.7695  156.0230 H   0  0  0  0  0  0  0  0  0  0  0  0  # atno 11005 bound_to 11000
  146.2728  139.6678  142.9284 LP  0  0  0  0  0  0  0  0  0  0  0  0  # atno 17320 bound_to 7965
  145.4634  141.0433  143.2739 LP  0  0  0  0  0  0  0  0  0  0  0  0  # atno 17321 bound_to 7965
  140.3138  143.3181  152.0852 LP  0  0  0  0  0  0  0  0  0  0  0  0  # atno 17342 bound_to 10162
  139.4973  144.6619  151.6446 LP  0  0  0  0  0  0  0  0  0  0  0  0  # atno 17343 bound_to 10162
  156.8603  130.5110  149.5304 LP  0  0  0  0  0  0  0  0  0  0  0  0  # atno 17370 bound_to 10713
  156.0871  130.5867  150.9668 LP  0  0  0  0  0  0  0  0  0  0  0  0  # atno 17371 bound_to 10713
  140.8530  134.2931  157.5267 LP  0  0  0  0  0  0  0  0  0  0  0  0  # atno 17394 bound_to 11000
  139.8715  134.9478  156.3978 LP  0  0  0  0  0  0  0  0  0  0  0  0  # atno 17395 bound_to 11000

$$$$
