AV-unprocessed.smi:193|AV-procd|sdf|1510|dock9
  -GOLD-   2262019343D 1   1.00000     0.00000
 Structure written by MMmdl.
 62 66  0  0  0  0  0  0  0  0  2 V2000
  152.1912  139.7313  155.4193 C   0  0  0  0  0  0  0  0  0  0  0  0
  150.7893  140.0270  155.9753 C   0  0  2  0  0  0  0  0  0  0  0  0
  149.7729  139.0682  155.3204 C   0  0  0  0  0  0  0  0  0  0  0  0
  148.4533  139.0819  155.9455 N   0  0  0  0  0  0  0  0  0  0  0  0
  147.6615  138.0958  155.4740 C   0  0  0  0  0  0  0  0  0  0  0  0
  147.5380  136.9770  156.2286 N   0  0  0  0  0  0  0  0  0  0  0  0
  146.7664  135.9708  155.8045 C   0  0  0  0  0  0  0  0  0  0  0  0
  146.0492  135.8835  154.6815 N   0  0  0  0  0  0  0  0  0  0  0  0
  146.1754  137.0097  153.9217 C   0  0  0  0  0  0  0  0  0  0  0  0
  146.9556  138.1555  154.2407 C   0  0  0  0  0  0  0  0  0  0  0  0
  146.8449  139.1047  153.2318 N   0  0  0  0  0  0  0  0  0  0  0  0
  146.0423  138.5502  152.3642 C   0  0  0  0  0  0  0  0  0  0  0  0
  145.5864  137.2958  152.7025 N   0  0  0  0  0  0  0  0  0  0  0  0
  144.6830  136.4598  151.9270 C   0  0  0  0  0  0  0  0  0  0  0  0
  145.3748  135.2491  151.2535 C   0  0  0  0  0  0  0  0  0  0  0  0
  146.3804  135.7544  150.3915 O   0  0  0  0  0  0  0  0  0  0  0  0
  146.0475  134.3543  152.3135 C   0  0  0  0  0  0  0  0  0  0  0  0
  146.6054  133.0551  151.7054 C   0  0  0  0  0  0  0  0  0  0  0  0
  145.5743  132.3563  151.0185 O   0  0  0  0  0  0  0  0  0  0  0  0
  145.0476  133.0912  149.9203 C   0  0  0  0  0  0  0  0  0  0  0  0
  144.3972  134.3944  150.4172 C   0  0  0  0  0  0  0  0  0  0  0  0
  147.7544  140.3558  156.0855 C   0  0  0  0  0  0  0  0  0  0  0  0
  148.3866  141.2196  157.1873 C   0  0  0  0  0  0  0  0  0  0  0  0
  149.4840  142.1012  156.7121 N   0  3  1  0  0  0  0  0  0  0  0  0
  150.2023  142.7300  157.8439 C   0  0  1  0  0  0  0  0  0  0  0  0
  151.4971  142.0357  158.1975 C   0  0  0  0  0  0  0  0  0  0  0  0
  151.5250  143.3591  157.4635 C   0  0  2  0  0  0  0  0  0  0  0  0
  152.0129  144.6076  158.1647 C   0  0  0  0  0  0  0  0  0  0  0  0
  150.4188  141.5067  155.7176 C   0  0  0  0  0  0  0  0  0  0  0  0
  152.2371  139.9059  154.3436 H   0  0  0  0  0  0  0  0  0  0  0  0
  152.4770  138.6947  155.6003 H   0  0  0  0  0  0  0  0  0  0  0  0
  152.9449  140.3621  155.8920 H   0  0  0  0  0  0  0  0  0  0  0  0
  150.8335  139.8355  157.0483 H   0  0  0  0  0  0  0  0  0  0  0  0
  149.6788  139.2962  154.2577 H   0  0  0  0  0  0  0  0  0  0  0  0
  150.1608  138.0498  155.3810 H   0  0  0  0  0  0  0  0  0  0  0  0
  146.7164  135.1120  156.4579 H   0  0  0  0  0  0  0  0  0  0  0  0
  145.7522  139.0464  151.4491 H   0  0  0  0  0  0  0  0  0  0  0  0
  143.8816  136.1216  152.5856 H   0  0  0  0  0  0  0  0  0  0  0  0
  144.2080  137.0859  151.1708 H   0  0  0  0  0  0  0  0  0  0  0  0
  147.1463  135.9528  150.9083 H   0  0  0  0  0  0  0  0  0  0  0  0
  146.8410  134.8985  152.8275 H   0  0  0  0  0  0  0  0  0  0  0  0
  145.3160  134.0889  153.0779 H   0  0  0  0  0  0  0  0  0  0  0  0
  147.4353  133.2612  151.0278 H   0  0  0  0  0  0  0  0  0  0  0  0
  146.9968  132.4132  152.4947 H   0  0  0  0  0  0  0  0  0  0  0  0
  145.8361  133.2977  149.1950 H   0  0  0  0  0  0  0  0  0  0  0  0
  144.3053  132.4762  149.4112 H   0  0  0  0  0  0  0  0  0  0  0  0
  143.5319  134.1377  151.0297 H   0  0  0  0  0  0  0  0  0  0  0  0
  144.0133  134.9589  149.5666 H   0  0  0  0  0  0  0  0  0  0  0  0
  147.7160  140.8887  155.1347 H   0  0  0  0  0  0  0  0  0  0  0  0
  146.7187  140.1537  156.3654 H   0  0  0  0  0  0  0  0  0  0  0  0
  147.6161  141.8671  157.6070 H   0  0  0  0  0  0  0  0  0  0  0  0
  148.7266  140.5893  158.0111 H   0  0  0  0  0  0  0  0  0  0  0  0
  149.5820  143.1660  158.6255 H   0  0  0  0  0  0  0  0  0  0  0  0
  151.7937  142.0335  159.2445 H   0  0  0  0  0  0  0  0  0  0  0  0
  151.7755  141.1458  157.6357 H   0  0  0  0  0  0  0  0  0  0  0  0
  151.8103  143.3113  156.4138 H   0  0  0  0  0  0  0  0  0  0  0  0
  151.7013  144.6112  159.2099 H   0  0  0  0  0  0  0  0  0  0  0  0
  151.6048  145.4933  157.6772 H   0  0  0  0  0  0  0  0  0  0  0  0
  153.1011  144.6585  158.1265 H   0  0  0  0  0  0  0  0  0  0  0  0
  151.3195  142.1214  155.6841 H   0  0  0  0  0  0  0  0  0  0  0  0
  149.9781  141.6076  154.7250 H   0  0  0  0  0  0  0  0  0  0  0  0
  149.0338  142.8615  156.2229 H   0  0  0  0  0  0  0  0  0  0  0  0
  1  2  1  0  0  0  0
  1 30  1  0  0  0  0
  1 31  1  0  0  0  0
  1 32  1  0  0  0  0
  2 29  1  0  0  0  0
  2  3  1  0  0  0  0
  2 33  1  0  0  0  0
  3  4  1  0  0  0  0
  3 34  1  0  0  0  0
  3 35  1  0  0  0  0
  4  5  1  0  0  0  0
  4 22  1  0  0  0  0
  5 10  1  0  0  0  0
  5  6  2  0  0  0  0
  6  7  1  0  0  0  0
  7  8  2  0  0  0  0
  7 36  1  0  0  0  0
  8  9  1  0  0  0  0
  9 13  1  0  0  0  0
  9 10  2  0  0  0  0
 10 11  1  0  0  0  0
 11 12  2  0  0  0  0
 12 13  1  0  0  0  0
 12 37  1  0  0  0  0
 13 14  1  0  0  0  0
 14 15  1  0  0  0  0
 14 38  1  0  0  0  0
 14 39  1  0  0  0  0
 15 21  1  0  0  0  0
 15 16  1  0  0  0  0
 15 17  1  0  0  0  0
 16 40  1  0  0  0  0
 17 18  1  0  0  0  0
 17 41  1  0  0  0  0
 17 42  1  0  0  0  0
 18 19  1  0  0  0  0
 18 43  1  0  0  0  0
 18 44  1  0  0  0  0
 19 20  1  0  0  0  0
 20 21  1  0  0  0  0
 20 45  1  0  0  0  0
 20 46  1  0  0  0  0
 21 47  1  0  0  0  0
 21 48  1  0  0  0  0
 22 23  1  0  0  0  0
 22 49  1  0  0  0  0
 22 50  1  0  0  0  0
 23 24  1  0  0  0  0
 23 51  1  0  0  0  0
 23 52  1  0  0  0  0
 24 25  1  0  0  0  0
 24 29  1  0  0  0  0
 24 62  1  0  0  0  0
 25 27  1  0  0  0  0
 25 26  1  0  0  0  0
 25 53  1  0  0  0  0
 26 27  1  0  0  0  0
 26 54  1  0  0  0  0
 26 55  1  0  0  0  0
 27 28  1  0  0  0  0
 27 56  1  0  0  0  0
 28 57  1  0  0  0  0
 28 58  1  0  0  0  0
 28 59  1  0  0  0  0
 29 60  1  0  0  0  0
 29 61  1  0  0  0  0
M  CHG  1  24   1
M  END
> <s_m_source_file>
AV-unprocessed.smi

> <i_m_source_file_index>
193

> <i_lp_mmshare_version>
43012

> <i_f3d_flags>
0

> <s_epik_input>
W0NIM11bQ0BASF0xW0NIMl1bQ0BIXTFOKFtDSDJdMilbQ0gyXVtDSDJdTihbQ0gyXVtDQEhdMltDSDNdKWMobltjSF1uMyljKGMzNCluW2NIXW40W0NIMl1DNShbT0hdKVtDSDJdW0NIMl1PW0NIMl1bQ0gyXTU=

> <s_epik_cmdline>
J2VwaWtfcHl0aG9uJywgJy1waCcsICc3LjAnLCAnLXRuJywgJzgnLCAnLW1hJywgJzIwMCcsICctbWV0YWxfYmluZGluZycsICctaW1hZScsICc8aW5maWxlLm1hZT4nLCAnLW9tYWUnLCAnPG91dGZpbGUubWFlPic=

> <r_lp_tautomer_probability>
1

> <r_epik_Ionization_Penalty>
0.0540825

> <r_epik_Ionization_Penalty_Charging>
0.0538476

> <r_epik_Ionization_Penalty_Neutral>
0.000234891

> <r_epik_State_Penalty>
0.0200719

> <r_epik_Charging_Adjusted_Penalty>
0.0739194

> <i_epik_Tot_Q>
1

> <i_epik_Tot_abs_Q>
1

> <r_epik_Metal_State_Penalty>
0.0199414

> <b_epik_Metal_Only>
0

> <s_lp_Force_Field>
OPLS_2005

> <r_lp_Energy>
55.8923

> <b_lp_Chiralities_Consistent>
1

> <s_lp_Variant>
AV-unprocessed.smi:193-15

> <Gold.Version>
5.8.1

> <Gold.Id.Protein>
6NUR|6NUR_protein|mol2

> <Gold.PLP.Fitness>
49.1686

> <Gold.PLP.PLP>
-36.4985

> <Gold.PLP.part.hbond>
-3.0000

> <Gold.PLP.part.metal>
0.0000

> <Gold.PLP.part.buried>
-0.4732

> <Gold.PLP.part.nonpolar>
-34.0404

> <Gold.PLP.part.repulsive>
0.4163

> <Gold.PLP.ligand.clash>
0.0000

> <Gold.PLP.ligand.torsion>
1.0730

> <Gold.PLP.Chemscore.Hbond>
3.0000

> <Gold.PLP.Chemscore.CHOScore>
1.4142

> <Gold.PLP.Chemscore.Metal>
0.0000

> <Gold.Chemscore.Hbonds>
donor molecule, donor type, donor heavy atom, donor atom, acceptor molecule, acceptor atom, score
      L1  H    16    40       P1  7948  1.00
      L1  H    24    62       P1  8028  2.00
      L1  C    12    37       P1 10171  1.00
      L1  C    12    37       P1 10175  0.22

> <Gold.PLP.Chemscore.Internal.Correction>
1.5736

> <Gold.Rescore>
     Score         DG    S(hbond)    S(metal)    S(lipo)     H(rot)  DE(clash)    DE(int)     intcor
     14.46     -18.75       1.93        0.00     106.43       2.20       1.23       3.05       ----

> <Gold.Chemscore.Fitness>
14.4644

> <Gold.Chemscore.DG>
-18.7490

> <Gold.Chemscore.ZeroCoef>
-5.4800

> <Gold.Chemscore.Hbond>
1.9321

> <Gold.Chemscore.Metal>
0.0000

> <Gold.Chemscore.Lipo>
106.4311

> <Gold.Chemscore.Internal_Hbond>
0.0000

> <Gold.Chemscore.DEClash>
1.2305

> <Gold.Chemscore.DEInternal>
3.0541

> <Gold.Chemscore.Rot>
2.2018

> <Gold.Chemscore.Internal.Correction>
   9.000000E+99

> <Gold.Chemscore.Hbonds>
donor molecule, donor type, donor heavy atom, donor atom, acceptor molecule, acceptor atom, score
      L1  H    16    40       P1  7948  0.87
      L1  H    24    62       P1  8028  0.97

> <Gold.Chemscore.Hbond.Weighted>
-6.4531

> <Gold.Chemscore.Metal.Weighted>
-0.0000

> <Gold.Chemscore.Lipo.Weighted>
-12.4524

> <Gold.Chemscore.Internal_Hbond.Weighted>
0.0000

> <Gold.Chemscore.DEClash.Weighted>
1.2305

> <Gold.Chemscore.DEInternal.Weighted>
3.0541

> <Gold.Chemscore.Rot.Weighted>
5.6366

> <Gold.Chemscore.Internal.Correction.Weighted>
   9.000000E+99

> <Gold.Protein.RotatedTorsions>
[ 6907 6896 6895 6894 ] final   29.01 input  -60.11 | X-H torsion
[ 7974 7965 7964 7962 ] final  -90.66 input  175.53 | X-H torsion
[ 8008 7997 7996 7995 ] final   49.38 input   59.86 | X-H torsion
[ 10167 10162 10161 10158 ] final  161.47 input  -65.29 | X-H torsion
[ 10718 10713 10712 10709 ] final   90.12 input   66.30 | X-H torsion
[ 10763 10752 10751 10750 ] final  -49.86 input  -60.55 | X-H torsion
[ 11005 11000 10999 10996 ] final   -2.24 input  -57.11 | X-H torsion

> <Gold.Protein.ActiveResidues>
 VAL166  LYS551  ARG553  GLY616  TRP617  ASP618  TYR619  PRO620  LYS621  CYS622 
 ASP623  PHE694  ASN695  SER759  ASP760  ASP761  ALA762  ILE779  LEU786  VAL792 
 PHE793  MET794  SER795  GLU796  ALA797  LYS798  CYS799  TRP800  GLU811  SER814 

> <Gold.Protein.RotatedAtoms>
  152.0253  134.9799  160.0571 H   0  0  0  0  0  0  0  0  0  0  0  0  # atno 6907 bound_to 6896
  152.1297  133.4396  159.4723 H   0  0  0  0  0  0  0  0  0  0  0  0  # atno 6908 bound_to 6896
  150.6855  134.2354  159.4494 H   0  0  0  0  0  0  0  0  0  0  0  0  # atno 6909 bound_to 6896
  145.4235  140.9552  143.2168 H   0  0  0  0  0  0  0  0  0  0  0  0  # atno 7974 bound_to 7965
  155.4012  140.3438  155.4257 H   0  0  0  0  0  0  0  0  0  0  0  0  # atno 8008 bound_to 7997
  156.1502  140.1569  156.8813 H   0  0  0  0  0  0  0  0  0  0  0  0  # atno 8009 bound_to 7997
  154.5046  140.0805  156.7849 H   0  0  0  0  0  0  0  0  0  0  0  0  # atno 8010 bound_to 7997
  139.4850  144.4533  151.8801 H   0  0  0  0  0  0  0  0  0  0  0  0  # atno 10167 bound_to 10162
  157.6958  131.0358  150.3529 H   0  0  0  0  0  0  0  0  0  0  0  0  # atno 10718 bound_to 10713
  154.1010  135.6563  153.4868 H   0  0  0  0  0  0  0  0  0  0  0  0  # atno 10763 bound_to 10752
  153.0289  135.5225  154.7286 H   0  0  0  0  0  0  0  0  0  0  0  0  # atno 10764 bound_to 10752
  154.6438  135.2992  155.0040 H   0  0  0  0  0  0  0  0  0  0  0  0  # atno 10765 bound_to 10752
  140.6562  133.9360  155.8409 H   0  0  0  0  0  0  0  0  0  0  0  0  # atno 11005 bound_to 11000
  144.8229  139.5759  143.6978 LP  0  0  0  0  0  0  0  0  0  0  0  0  # atno 17320 bound_to 7965
  146.2644  139.6485  142.9339 LP  0  0  0  0  0  0  0  0  0  0  0  0  # atno 17321 bound_to 7965
  140.3991  144.2516  150.5894 LP  0  0  0  0  0  0  0  0  0  0  0  0  # atno 17342 bound_to 10162
  140.5074  143.2300  151.8587 LP  0  0  0  0  0  0  0  0  0  0  0  0  # atno 17343 bound_to 10162
  156.3975  130.3909  149.6984 LP  0  0  0  0  0  0  0  0  0  0  0  0  # atno 17370 bound_to 10713
  156.4313  130.7816  151.2836 LP  0  0  0  0  0  0  0  0  0  0  0  0  # atno 17371 bound_to 10713
  141.0499  134.0499  157.3796 LP  0  0  0  0  0  0  0  0  0  0  0  0  # atno 17394 bound_to 11000
  139.9028  135.0170  156.7351 LP  0  0  0  0  0  0  0  0  0  0  0  0  # atno 17395 bound_to 11000

$$$$
