AV-unprocessed.smi:821|AV-procd|sdf|3838|dock5
  -GOLD-   22720 1283D 1   1.00000     0.00000
 Structure written by MMmdl.
 44 45  0  0  0  0  0  0  0  0  1 V2000
  152.5273  137.6122  154.6206 C   0  0  0  0  0  0  0  0  0  0  0  0
  151.1147  138.0354  155.0591 C   0  0  2  0  0  0  0  0  0  0  0  0
  150.6537  139.3053  154.3107 C   0  0  0  0  0  0  0  0  0  0  0  0
  149.3066  139.7730  154.6388 N   0  0  0  0  0  0  0  0  0  0  0  0
  149.1366  141.2076  154.4195 C   0  0  0  0  0  0  0  0  0  0  0  0
  147.7048  141.6731  154.7377 C   0  0  0  0  0  0  0  0  0  0  0  0
  146.7738  140.9253  153.9626 O   0  0  0  0  0  0  0  0  0  0  0  0
  146.8744  139.5234  154.1888 C   0  0  0  0  0  0  0  0  0  0  0  0
  148.3021  139.0520  153.8636 C   0  0  0  0  0  0  0  0  0  0  0  0
  151.1134  138.2861  156.4984 N   0  0  0  0  0  0  0  0  0  0  0  0
  151.6855  139.3361  157.1070 C   0  0  0  0  0  0  0  0  0  0  0  0
  152.3068  140.2119  156.5043 O   0  0  0  0  0  0  0  0  0  0  0  0
  151.5477  139.3907  158.6342 C   0  0  0  0  0  0  0  0  0  0  0  0
  152.1040  140.6262  159.2113 N   0  0  0  0  0  0  0  0  0  0  0  0
  153.2094  140.4908  160.0701 C   0  0  0  0  0  0  0  0  0  0  0  0
  153.7909  141.5528  160.6438 C   0  0  0  0  0  0  0  0  0  0  0  0
  153.2536  142.8612  160.3601 C   0  0  0  0  0  0  0  0  0  0  0  0
  152.1924  143.0234  159.5364 C   0  0  0  0  0  0  0  0  0  0  0  0
  151.6133  144.4011  159.2222 C   0  0  0  0  0  0  0  0  0  0  0  0
  151.8351  144.7235  157.9472 F   0  0  0  0  0  0  0  0  0  0  0  0
  150.2964  144.4143  159.4322 F   0  0  0  0  0  0  0  0  0  0  0  0
  152.1570  145.3522  159.9832 F   0  0  0  0  0  0  0  0  0  0  0  0
  151.5595  141.8458  158.9083 C   0  0  0  0  0  0  0  0  0  0  0  0
  150.5921  141.9427  158.1509 O   0  0  0  0  0  0  0  0  0  0  0  0
  152.5596  137.4046  153.5507 H   0  0  0  0  0  0  0  0  0  0  0  0
  152.8495  136.7066  155.1358 H   0  0  0  0  0  0  0  0  0  0  0  0
  153.2592  138.3928  154.8310 H   0  0  0  0  0  0  0  0  0  0  0  0
  150.4321  137.2163  154.8234 H   0  0  0  0  0  0  0  0  0  0  0  0
  151.3782  140.1106  154.4446 H   0  0  0  0  0  0  0  0  0  0  0  0
  150.6706  139.0818  153.2429 H   0  0  0  0  0  0  0  0  0  0  0  0
  149.8303  141.7689  155.0450 H   0  0  0  0  0  0  0  0  0  0  0  0
  149.3758  141.4555  153.3843 H   0  0  0  0  0  0  0  0  0  0  0  0
  147.4862  141.5503  155.7996 H   0  0  0  0  0  0  0  0  0  0  0  0
  147.5905  142.7325  154.5082 H   0  0  0  0  0  0  0  0  0  0  0  0
  146.6175  139.2953  155.2243 H   0  0  0  0  0  0  0  0  0  0  0  0
  146.1513  139.0067  153.5573 H   0  0  0  0  0  0  0  0  0  0  0  0
  148.4903  139.1876  152.7974 H   0  0  0  0  0  0  0  0  0  0  0  0
  148.3799  137.9821  154.0600 H   0  0  0  0  0  0  0  0  0  0  0  0
  150.6307  137.6121  157.0746 H   0  0  0  0  0  0  0  0  0  0  0  0
  150.4986  139.2850  158.9183 H   0  0  0  0  0  0  0  0  0  0  0  0
  152.0439  138.5124  159.0489 H   0  0  0  0  0  0  0  0  0  0  0  0
  153.5546  139.4788  160.2246 H   0  0  0  0  0  0  0  0  0  0  0  0
  154.6416  141.4330  161.2982 H   0  0  0  0  0  0  0  0  0  0  0  0
  153.7207  143.7183  160.8217 H   0  0  0  0  0  0  0  0  0  0  0  0
  1  2  1  0  0  0  0
  1 25  1  0  0  0  0
  1 26  1  0  0  0  0
  1 27  1  0  0  0  0
  2  3  1  0  0  0  0
  2 10  1  0  0  0  0
  2 28  1  0  0  0  0
  3  4  1  0  0  0  0
  3 29  1  0  0  0  0
  3 30  1  0  0  0  0
  4  9  1  0  0  0  0
  4  5  1  0  0  0  0
  5  6  1  0  0  0  0
  5 31  1  0  0  0  0
  5 32  1  0  0  0  0
  6  7  1  0  0  0  0
  6 33  1  0  0  0  0
  6 34  1  0  0  0  0
  7  8  1  0  0  0  0
  8  9  1  0  0  0  0
  8 35  1  0  0  0  0
  8 36  1  0  0  0  0
  9 37  1  0  0  0  0
  9 38  1  0  0  0  0
 10 11  1  0  0  0  0
 10 39  1  0  0  0  0
 11 12  2  0  0  0  0
 11 13  1  0  0  0  0
 13 14  1  0  0  0  0
 13 40  1  0  0  0  0
 13 41  1  0  0  0  0
 14 23  1  0  0  0  0
 14 15  1  0  0  0  0
 15 16  2  0  0  0  0
 15 42  1  0  0  0  0
 16 17  1  0  0  0  0
 16 43  1  0  0  0  0
 17 18  2  0  0  0  0
 17 44  1  0  0  0  0
 18 19  1  0  0  0  0
 18 23  1  0  0  0  0
 19 20  1  0  0  0  0
 19 21  1  0  0  0  0
 19 22  1  0  0  0  0
 23 24  2  0  0  0  0
M  END
> <s_m_source_file>
AV-unprocessed.smi

> <i_m_source_file_index>
821

> <i_lp_mmshare_version>
43012

> <i_f3d_flags>
0

> <s_epik_input>
W0NIMl0xW0NIMl1PW0NIMl1bQ0gyXU4xW0NIMl1bQ0BASF0oW0NIM10pW05IXUMoPU8pW0NIMl1uMltjSF1bY0hdW2NIXWMoQyhGKShGKUYpYzI9Tw==

> <s_epik_cmdline>
J2VwaWtfcHl0aG9uJywgJy1waCcsICc3LjAnLCAnLXRuJywgJzgnLCAnLW1hJywgJzIwMCcsICctbWV0YWxfYmluZGluZycsICctaW1hZScsICc8aW5maWxlLm1hZT4nLCAnLW9tYWUnLCAnPG91dGZpbGUubWFlPic=

> <r_lp_tautomer_probability>
1

> <r_epik_Ionization_Penalty>
0.237382

> <r_epik_Ionization_Penalty_Charging>
1.90699e-09

> <r_epik_Ionization_Penalty_Neutral>
0.237382

> <r_epik_State_Penalty>
0.228245

> <r_epik_Charging_Adjusted_Penalty>
0.228245

> <i_epik_Tot_Q>
0

> <i_epik_Tot_abs_Q>
0

> <r_epik_Metal_State_Penalty>
0.228219

> <b_epik_Metal_Only>
0

> <s_lp_Force_Field>
OPLS_2005

> <r_lp_Energy>
36.3962

> <b_lp_Chiralities_Consistent>
1

> <s_lp_Variant>
AV-unprocessed.smi:821-1

> <Gold.Version>
5.8.1

> <Gold.Id.Protein>
6NUR|6NUR_protein|mol2

> <Gold.PLP.Fitness>
49.9435

> <Gold.PLP.PLP>
-47.9167

> <Gold.PLP.part.hbond>
-1.0000

> <Gold.PLP.part.metal>
0.0000

> <Gold.PLP.part.buried>
-0.6725

> <Gold.PLP.part.nonpolar>
-45.6018

> <Gold.PLP.part.repulsive>
0.3444

> <Gold.PLP.ligand.clash>
0.0849

> <Gold.PLP.ligand.torsion>
0.6299

> <Gold.PLP.Chemscore.Hbond>
1.0000

> <Gold.PLP.Chemscore.CHOScore>
0.0000

> <Gold.PLP.Chemscore.Metal>
0.0000

> <Gold.Chemscore.Hbonds>
donor molecule, donor type, donor heavy atom, donor atom, acceptor molecule, acceptor atom, score
      P1  H  7997  8009       L1    12  1.00

> <Gold.PLP.Chemscore.Internal.Correction>
0.3715

> <Gold.Rescore>
     Score         DG    S(hbond)    S(metal)    S(lipo)     H(rot)  DE(clash)    DE(int)     intcor
     10.38     -15.54       0.99        0.00     103.50       2.09       1.73       3.42       ----

> <Gold.Chemscore.Fitness>
10.3838

> <Gold.Chemscore.DG>
-15.5408

> <Gold.Chemscore.ZeroCoef>
-5.4800

> <Gold.Chemscore.Hbond>
0.9905

> <Gold.Chemscore.Metal>
0.0000

> <Gold.Chemscore.Lipo>
103.4956

> <Gold.Chemscore.Internal_Hbond>
0.0000

> <Gold.Chemscore.DEClash>
1.7342

> <Gold.Chemscore.DEInternal>
3.4228

> <Gold.Chemscore.Rot>
2.0924

> <Gold.Chemscore.Internal.Correction>
   9.000000E+99

> <Gold.Chemscore.Hbonds>
donor molecule, donor type, donor heavy atom, donor atom, acceptor molecule, acceptor atom, score
      P1  H  7997  8009       L1    12  0.90

> <Gold.Chemscore.Hbond.Weighted>
-3.3084

> <Gold.Chemscore.Metal.Weighted>
-0.0000

> <Gold.Chemscore.Lipo.Weighted>
-12.1090

> <Gold.Chemscore.Internal_Hbond.Weighted>
0.0000

> <Gold.Chemscore.DEClash.Weighted>
1.7342

> <Gold.Chemscore.DEInternal.Weighted>
3.4228

> <Gold.Chemscore.Rot.Weighted>
5.3566

> <Gold.Chemscore.Internal.Correction.Weighted>
   9.000000E+99

> <Gold.Protein.RotatedTorsions>
[ 6907 6896 6895 6894 ] final  155.63 input  -60.11 | X-H torsion
[ 7974 7965 7964 7962 ] final -100.41 input  175.53 | X-H torsion
[ 8008 7997 7996 7995 ] final -165.75 input   59.86 | X-H torsion
[ 10167 10162 10161 10158 ] final   97.43 input  -65.29 | X-H torsion
[ 10718 10713 10712 10709 ] final -154.61 input   66.30 | X-H torsion
[ 10763 10752 10751 10750 ] final  -30.33 input  -60.55 | X-H torsion
[ 11005 11000 10999 10996 ] final  104.50 input  -57.11 | X-H torsion

> <Gold.Protein.ActiveResidues>
 VAL166  LYS551  ARG553  GLY616  TRP617  ASP618  TYR619  PRO620  LYS621  CYS622 
 ASP623  PHE694  ASN695  SER759  ASP760  ASP761  ALA762  ILE779  LEU786  VAL792 
 PHE793  MET794  SER795  GLU796  ALA797  LYS798  CYS799  TRP800  GLU811  SER814 

> <Gold.Protein.RotatedAtoms>
  152.0414  133.3979  159.4338 H   0  0  0  0  0  0  0  0  0  0  0  0  # atno 6907 bound_to 6896
  150.6875  134.3410  159.4877 H   0  0  0  0  0  0  0  0  0  0  0  0  # atno 6908 bound_to 6896
  152.1209  134.9205  160.0613 H   0  0  0  0  0  0  0  0  0  0  0  0  # atno 6909 bound_to 6896
  145.2949  140.9362  143.2857 H   0  0  0  0  0  0  0  0  0  0  0  0  # atno 7974 bound_to 7965
  155.8542  140.0968  157.1655 H   0  0  0  0  0  0  0  0  0  0  0  0  # atno 8008 bound_to 7997
  154.3987  140.1377  156.3943 H   0  0  0  0  0  0  0  0  0  0  0  0  # atno 8009 bound_to 7997
  155.7928  140.3455  155.5361 H   0  0  0  0  0  0  0  0  0  0  0  0  # atno 8010 bound_to 7997
  139.7801  144.6891  151.0034 H   0  0  0  0  0  0  0  0  0  0  0  0  # atno 10167 bound_to 10162
  156.5016  130.8394  151.2611 H   0  0  0  0  0  0  0  0  0  0  0  0  # atno 10718 bound_to 10713
  153.7792  135.6906  153.4891 H   0  0  0  0  0  0  0  0  0  0  0  0  # atno 10763 bound_to 10752
  153.1822  135.4502  155.0042 H   0  0  0  0  0  0  0  0  0  0  0  0  # atno 10764 bound_to 10752
  154.8088  135.3368  154.7297 H   0  0  0  0  0  0  0  0  0  0  0  0  # atno 10765 bound_to 10752
  139.8792  134.9302  156.5371 H   0  0  0  0  0  0  0  0  0  0  0  0  # atno 11005 bound_to 11000
  144.9142  139.4491  143.6572 LP  0  0  0  0  0  0  0  0  0  0  0  0  # atno 17320 bound_to 7965
  146.3172  139.7967  142.8974 LP  0  0  0  0  0  0  0  0  0  0  0  0  # atno 17321 bound_to 7965
  140.7818  143.4492  151.0438 LP  0  0  0  0  0  0  0  0  0  0  0  0  # atno 17342 bound_to 10162
  139.8173  143.7869  152.3175 LP  0  0  0  0  0  0  0  0  0  0  0  0  # atno 17343 bound_to 10162
  157.7462  130.9980  150.2836 LP  0  0  0  0  0  0  0  0  0  0  0  0  # atno 17370 bound_to 10713
  156.3327  130.3803  149.7477 LP  0  0  0  0  0  0  0  0  0  0  0  0  # atno 17371 bound_to 10713
  140.8338  133.8258  155.9009 LP  0  0  0  0  0  0  0  0  0  0  0  0  # atno 17394 bound_to 11000
  140.9303  134.2030  157.4868 LP  0  0  0  0  0  0  0  0  0  0  0  0  # atno 17395 bound_to 11000

$$$$
