AV-unprocessed.smi:769|AV-procd|sdf|3678|dock2
  -GOLD-   22720 1 93D 1   1.00000     0.00000
 Structure written by MMmdl.
 50 52  0  0  0  0  0  0  0  0  4 V2000
  147.3054  132.0463  153.5056 O   0  0  0  0  0  0  0  0  0  0  0  0
  148.0115  132.9668  153.0781 C   0  0  0  0  0  0  0  0  0  0  0  0
  149.3148  133.2180  153.3776 N   0  5  0  0  0  0  0  0  0  0  0  0
  149.7769  133.9477  154.5574 C   0  0  0  0  0  0  0  0  0  0  0  0
  148.8780  135.1727  154.8159 C   0  0  0  0  0  0  0  0  0  0  0  0
  149.5208  136.4262  154.3423 N   0  3  0  0  0  0  0  0  0  0  0  0
  148.8009  137.6528  154.7779 C   0  0  0  0  0  0  0  0  0  0  0  0
  149.4658  138.9216  154.2126 C   0  0  0  0  0  0  0  0  0  0  0  0
  150.8796  138.9381  154.6029 N   0  0  0  0  0  0  0  0  0  0  0  0
  151.4010  139.8737  155.4340 C   0  0  0  0  0  0  0  0  0  0  0  0
  152.5717  139.8279  155.8138 O   0  0  0  0  0  0  0  0  0  0  0  0
  150.5121  141.0528  155.8862 C   0  0  0  0  0  0  0  0  0  0  0  0
  151.1686  142.0919  156.8180 C   0  0  0  0  0  0  0  0  0  0  0  0
  150.4729  141.4329  158.0130 C   0  0  0  0  0  0  0  0  0  0  0  0
  149.5470  140.7051  157.0330 C   0  0  0  0  0  0  0  0  0  0  0  0
  151.5975  137.7838  154.0510 C   0  0  0  0  0  0  0  0  0  0  0  0
  150.9842  136.4921  154.6198 C   0  0  0  0  0  0  0  0  0  0  0  0
  147.5142  133.8568  152.2005 N   0  0  0  0  0  0  0  0  0  0  0  0
  146.2181  133.9179  151.6211 C   0  0  0  0  0  0  0  0  0  0  0  0
  145.8411  135.1224  150.9872 C   0  0  0  0  0  0  0  0  0  0  0  0
  144.5582  135.2346  150.4144 C   0  0  0  0  0  0  0  0  0  0  0  0
  143.6966  134.1972  150.4863 N   0  3  0  0  0  0  0  0  0  0  0  0
  144.0050  133.0333  151.0982 C   0  0  0  0  0  0  0  0  0  0  0  0
  145.2732  132.8628  151.6893 C   0  0  0  0  0  0  0  0  0  0  0  0
  149.7963  133.3213  155.4504 H   0  0  0  0  0  0  0  0  0  0  0  0
  150.8033  134.2913  154.4257 H   0  0  0  0  0  0  0  0  0  0  0  0
  147.9325  135.0201  154.2922 H   0  0  0  0  0  0  0  0  0  0  0  0
  148.6240  135.2570  155.8739 H   0  0  0  0  0  0  0  0  0  0  0  0
  147.7638  137.6063  154.4430 H   0  0  0  0  0  0  0  0  0  0  0  0
  148.7839  137.6947  155.8683 H   0  0  0  0  0  0  0  0  0  0  0  0
  149.3957  138.9282  153.1238 H   0  0  0  0  0  0  0  0  0  0  0  0
  148.9180  139.8022  154.5500 H   0  0  0  0  0  0  0  0  0  0  0  0
  150.0257  141.5433  155.0423 H   0  0  0  0  0  0  0  0  0  0  0  0
  152.2574  142.0786  156.8768 H   0  0  0  0  0  0  0  0  0  0  0  0
  150.8054  143.1030  156.6287 H   0  0  0  0  0  0  0  0  0  0  0  0
  151.1284  140.7509  158.5567 H   0  0  0  0  0  0  0  0  0  0  0  0
  149.9678  142.1286  158.6835 H   0  0  0  0  0  0  0  0  0  0  0  0
  148.5764  141.1909  156.9230 H   0  0  0  0  0  0  0  0  0  0  0  0
  149.4344  139.6405  157.2438 H   0  0  0  0  0  0  0  0  0  0  0  0
  151.4966  137.7930  152.9647 H   0  0  0  0  0  0  0  0  0  0  0  0
  152.6698  137.7993  154.2378 H   0  0  0  0  0  0  0  0  0  0  0  0
  151.1527  136.4468  155.6972 H   0  0  0  0  0  0  0  0  0  0  0  0
  151.4861  135.6272  154.1848 H   0  0  0  0  0  0  0  0  0  0  0  0
  148.1844  134.5187  151.8372 H   0  0  0  0  0  0  0  0  0  0  0  0
  146.5316  135.9517  150.9326 H   0  0  0  0  0  0  0  0  0  0  0  0
  144.1978  136.1171  149.9065 H   0  0  0  0  0  0  0  0  0  0  0  0
  143.2311  132.2798  151.1023 H   0  0  0  0  0  0  0  0  0  0  0  0
  145.4951  131.9342  152.1931 H   0  0  0  0  0  0  0  0  0  0  0  0
  149.4265  136.4082  153.3365 H   0  0  0  0  0  0  0  0  0  0  0  0
  142.7724  134.2989  150.0661 H   0  0  0  0  0  0  0  0  0  0  0  0
  1  2  2  0  0  0  0
  2  3  1  0  0  0  0
  2 18  1  0  0  0  0
  3  4  1  0  0  0  0
  4  5  1  0  0  0  0
  4 25  1  0  0  0  0
  4 26  1  0  0  0  0
  5  6  1  0  0  0  0
  5 27  1  0  0  0  0
  5 28  1  0  0  0  0
  6 17  1  0  0  0  0
  6  7  1  0  0  0  0
  6 49  1  0  0  0  0
  7  8  1  0  0  0  0
  7 29  1  0  0  0  0
  7 30  1  0  0  0  0
  8  9  1  0  0  0  0
  8 31  1  0  0  0  0
  8 32  1  0  0  0  0
  9 10  1  0  0  0  0
  9 16  1  0  0  0  0
 10 11  2  0  0  0  0
 10 12  1  0  0  0  0
 12 15  1  0  0  0  0
 12 13  1  0  0  0  0
 12 33  1  0  0  0  0
 13 14  1  0  0  0  0
 13 34  1  0  0  0  0
 13 35  1  0  0  0  0
 14 15  1  0  0  0  0
 14 36  1  0  0  0  0
 14 37  1  0  0  0  0
 15 38  1  0  0  0  0
 15 39  1  0  0  0  0
 16 17  1  0  0  0  0
 16 40  1  0  0  0  0
 16 41  1  0  0  0  0
 17 42  1  0  0  0  0
 17 43  1  0  0  0  0
 18 19  1  0  0  0  0
 18 44  1  0  0  0  0
 19 24  1  0  0  0  0
 19 20  2  0  0  0  0
 20 21  1  0  0  0  0
 20 45  1  0  0  0  0
 21 22  2  0  0  0  0
 21 46  1  0  0  0  0
 22 23  1  0  0  0  0
 22 50  1  0  0  0  0
 23 24  2  0  0  0  0
 23 47  1  0  0  0  0
 24 48  1  0  0  0  0
M  CHG  1   3  -1
M  CHG  1   6   1
M  CHG  1  22   1
M  END
> <s_m_source_file>
AV-unprocessed.smi

> <i_m_source_file_index>
769

> <i_lp_mmshare_version>
43012

> <i_f3d_flags>
0

> <s_epik_input>
W2NIXTFbY0hdbltjSF1bY0hdYzFbTkhdQyg9TylbTkhdW0NIMl1bQ0gyXU4yW0NIMl1bQ0gyXU4oW0NIMl1bQ0gyXTIpQyg9TylbQ0hdM1tDSDJdW0NIMl1bQ0gyXTM=

> <s_epik_cmdline>
J2VwaWtfcHl0aG9uJywgJy1waCcsICc3LjAnLCAnLXRuJywgJzgnLCAnLW1hJywgJzIwMCcsICctbWV0YWxfYmluZGluZycsICctaW1hZScsICc8aW5maWxlLm1hZT4nLCAnLW9tYWUnLCAnPG91dGZpbGUubWFlPic=

> <r_epik_Ionization_Penalty>
8.38098

> <r_epik_Ionization_Penalty_Charging>
8.38098

> <r_epik_Ionization_Penalty_Neutral>
3.42309e-06

> <r_epik_State_Penalty>
8.4985

> <r_epik_Charging_Adjusted_Penalty>
16.8795

> <i_epik_Tot_Q>
1

> <i_epik_Tot_abs_Q>
3

> <r_epik_Metal_State_Penalty>
4.51015

> <b_epik_Metal_Only>
1

> <s_lp_Force_Field>
OPLS_2005

> <r_lp_Energy>
56.008

> <b_lp_Chiralities_Consistent>
1

> <s_lp_Variant>
AV-unprocessed.smi:769-5

> <Gold.Version>
5.8.1

> <Gold.Id.Protein>
6NUR|6NUR_protein|mol2

> <Gold.PLP.Fitness>
59.2681

> <Gold.PLP.PLP>
-44.1764

> <Gold.PLP.part.hbond>
-4.0000

> <Gold.PLP.part.metal>
0.0000

> <Gold.PLP.part.buried>
-5.4267

> <Gold.PLP.part.nonpolar>
-35.0295

> <Gold.PLP.part.repulsive>
0.3276

> <Gold.PLP.ligand.clash>
0.0000

> <Gold.PLP.ligand.torsion>
1.5948

> <Gold.PLP.Chemscore.Hbond>
5.9000

> <Gold.PLP.Chemscore.CHOScore>
0.0000

> <Gold.PLP.Chemscore.Metal>
0.0000

> <Gold.Chemscore.Hbonds>
donor molecule, donor type, donor heavy atom, donor atom, acceptor molecule, acceptor atom, score
      L1  H     6    49       P1  7948  1.98
      L1  H    18    44       P1  7948  0.55
      L1  H    22    50       P1 10186  2.00
      P1  H  7997  8010       L1    11  0.99

> <Gold.PLP.Chemscore.Internal.Correction>
0.5814

> <Gold.Rescore>
     Score         DG    S(hbond)    S(metal)    S(lipo)     H(rot)  DE(clash)    DE(int)     intcor
     17.87     -20.96       2.87        0.00      87.97       1.72       0.06       3.04       ----

> <Gold.Chemscore.Fitness>
17.8715

> <Gold.Chemscore.DG>
-20.9646

> <Gold.Chemscore.ZeroCoef>
-5.4800

> <Gold.Chemscore.Hbond>
2.8725

> <Gold.Chemscore.Metal>
0.0000

> <Gold.Chemscore.Lipo>
87.9679

> <Gold.Chemscore.Internal_Hbond>
0.0000

> <Gold.Chemscore.DEClash>
0.0563

> <Gold.Chemscore.DEInternal>
3.0368

> <Gold.Chemscore.Rot>
1.7195

> <Gold.Chemscore.Internal.Correction>
   9.000000E+99

> <Gold.Chemscore.Hbonds>
donor molecule, donor type, donor heavy atom, donor atom, acceptor molecule, acceptor atom, score
      L1  H     6    49       P1  7948  0.65
      L1  H    18    44       P1  7948  0.03
      L1  H    22    50       P1 10186  0.93
      P1  H  7997  8010       L1    11  0.94

> <Gold.Chemscore.Hbond.Weighted>
-9.5943

> <Gold.Chemscore.Metal.Weighted>
-0.0000

> <Gold.Chemscore.Lipo.Weighted>
-10.2922

> <Gold.Chemscore.Internal_Hbond.Weighted>
0.0000

> <Gold.Chemscore.DEClash.Weighted>
0.0563

> <Gold.Chemscore.DEInternal.Weighted>
3.0368

> <Gold.Chemscore.Rot.Weighted>
4.4020

> <Gold.Chemscore.Internal.Correction.Weighted>
   9.000000E+99

> <Gold.Protein.RotatedTorsions>
[ 6907 6896 6895 6894 ] final  -76.34 input  -60.11 | X-H torsion
[ 7974 7965 7964 7962 ] final  112.00 input  175.53 | X-H torsion
[ 8008 7997 7996 7995 ] final   66.68 input   59.86 | X-H torsion
[ 10167 10162 10161 10158 ] final   63.78 input  -65.29 | X-H torsion
[ 10718 10713 10712 10709 ] final -152.59 input   66.30 | X-H torsion
[ 10763 10752 10751 10750 ] final   55.78 input  -60.55 | X-H torsion
[ 11005 11000 10999 10996 ] final   30.51 input  -57.11 | X-H torsion

> <Gold.Protein.ActiveResidues>
 VAL166  LYS551  ARG553  GLY616  TRP617  ASP618  TYR619  PRO620  LYS621  CYS622 
 ASP623  PHE694  ASN695  SER759  ASP760  ASP761  ALA762  ILE779  LEU786  VAL792 
 PHE793  MET794  SER795  GLU796  ALA797  LYS798  CYS799  TRP800  GLU811  SER814 

> <Gold.Protein.RotatedAtoms>
  150.7030  134.4587  159.5370 H   0  0  0  0  0  0  0  0  0  0  0  0  # atno 6907 bound_to 6896
  152.2266  134.8359  160.0488 H   0  0  0  0  0  0  0  0  0  0  0  0  # atno 6908 bound_to 6896
  151.9191  133.3546  159.3927 H   0  0  0  0  0  0  0  0  0  0  0  0  # atno 6909 bound_to 6896
  145.2351  139.2803  143.4147 H   0  0  0  0  0  0  0  0  0  0  0  0  # atno 7974 bound_to 7965
  155.6811  140.3496  155.4855 H   0  0  0  0  0  0  0  0  0  0  0  0  # atno 8008 bound_to 7997
  155.9606  140.1136  157.0921 H   0  0  0  0  0  0  0  0  0  0  0  0  # atno 8009 bound_to 7997
  154.4142  140.1176  156.5160 H   0  0  0  0  0  0  0  0  0  0  0  0  # atno 8010 bound_to 7997
  140.1293  144.4658  150.6874 H   0  0  0  0  0  0  0  0  0  0  0  0  # atno 10167 bound_to 10162
  156.4745  130.8274  151.2503 H   0  0  0  0  0  0  0  0  0  0  0  0  # atno 10718 bound_to 10713
  152.9822  135.5699  154.5122 H   0  0  0  0  0  0  0  0  0  0  0  0  # atno 10763 bound_to 10752
  154.4624  135.2782  155.1705 H   0  0  0  0  0  0  0  0  0  0  0  0  # atno 10764 bound_to 10752
  154.3287  135.6254  153.5594 H   0  0  0  0  0  0  0  0  0  0  0  0  # atno 10765 bound_to 10752
  140.2936  134.2836  155.7770 H   0  0  0  0  0  0  0  0  0  0  0  0  # atno 11005 bound_to 11000
  146.3343  140.2697  142.8605 LP  0  0  0  0  0  0  0  0  0  0  0  0  # atno 17320 bound_to 7965
  144.9641  140.8304  143.5495 LP  0  0  0  0  0  0  0  0  0  0  0  0  # atno 17321 bound_to 7965
  140.6826  143.2334  151.5344 LP  0  0  0  0  0  0  0  0  0  0  0  0  # atno 17342 bound_to 10162
  139.5528  144.2352  152.1560 LP  0  0  0  0  0  0  0  0  0  0  0  0  # atno 17343 bound_to 10162
  157.7488  131.0065  150.3154 LP  0  0  0  0  0  0  0  0  0  0  0  0  # atno 17370 bound_to 10713
  156.3584  130.3843  149.7271 LP  0  0  0  0  0  0  0  0  0  0  0  0  # atno 17371 bound_to 10713
  141.2141  133.7601  156.9661 LP  0  0  0  0  0  0  0  0  0  0  0  0  # atno 17394 bound_to 11000
  140.1173  134.9439  157.2153 LP  0  0  0  0  0  0  0  0  0  0  0  0  # atno 17395 bound_to 11000

$$$$
