AV-unprocessed.smi:3158|AV-procd|sdf|12047|dock10
  -GOLD-   2272017473D 1   1.00000     0.00000
 Structure written by MMmdl.
 39 39  0  0  0  0  0  0  0  0  1 V2000
  146.0363  141.6520  156.3167 C   0  0  0  0  0  0  0  0  0  0  0  0
  147.2863  141.7597  155.4308 C   0  0  0  0  0  0  0  0  0  0  0  0
  146.9723  142.0324  153.9476 C   0  0  2  0  0  0  0  0  0  0  0  0
  145.9789  143.1934  153.7827 C   0  0  0  0  0  0  0  0  0  0  0  0
  146.4449  140.8245  153.3189 N   0  0  0  0  0  0  0  0  0  0  0  0
  147.0545  139.6288  153.2770 C   0  0  0  0  0  0  0  0  0  0  0  0
  148.1723  139.4254  153.7525 O   0  0  0  0  0  0  0  0  0  0  0  0
  146.2595  138.5002  152.6046 C   0  0  1  0  0  0  0  0  0  0  0  0
  146.2313  138.6402  151.0686 C   0  0  0  0  0  0  0  0  0  0  0  0
  146.8113  137.2018  153.0185 N   0  0  0  0  0  0  0  0  0  0  0  0
  145.7967  136.1692  153.1857 C   0  0  0  0  0  0  0  0  0  0  0  0
  145.0488  135.9495  151.8594 C   0  0  0  0  0  0  0  0  0  0  0  0
  145.0943  134.5655  151.4196 N   0  0  0  0  0  0  0  0  0  0  0  0
  144.0414  133.7220  151.1337 C   0  0  0  0  0  0  0  0  0  0  0  0
  144.5728  132.5229  150.7534 C   0  0  0  0  0  0  0  0  0  0  0  0
  145.9773  132.7331  150.8415 C   0  0  0  0  0  0  0  0  0  0  0  0
  146.2864  133.9555  151.2432 N   0  0  0  0  0  0  0  0  0  0  0  0
  146.3100  141.4239  157.3470 H   0  0  0  0  0  0  0  0  0  0  0  0
  145.3729  140.8615  155.9656 H   0  0  0  0  0  0  0  0  0  0  0  0
  145.4708  142.5837  156.3263 H   0  0  0  0  0  0  0  0  0  0  0  0
  147.9357  142.5446  155.8212 H   0  0  0  0  0  0  0  0  0  0  0  0
  147.8516  140.8305  155.5124 H   0  0  0  0  0  0  0  0  0  0  0  0
  147.9066  142.3094  153.4552 H   0  0  0  0  0  0  0  0  0  0  0  0
  146.3642  144.1057  154.2386 H   0  0  0  0  0  0  0  0  0  0  0  0
  145.0207  142.9663  154.2511 H   0  0  0  0  0  0  0  0  0  0  0  0
  145.7926  143.4080  152.7298 H   0  0  0  0  0  0  0  0  0  0  0  0
  145.5261  140.8937  152.9052 H   0  0  0  0  0  0  0  0  0  0  0  0
  145.2373  138.5889  152.9770 H   0  0  0  0  0  0  0  0  0  0  0  0
  145.8862  139.6305  150.7680 H   0  0  0  0  0  0  0  0  0  0  0  0
  145.5522  137.9199  150.6130 H   0  0  0  0  0  0  0  0  0  0  0  0
  147.2192  138.4854  150.6327 H   0  0  0  0  0  0  0  0  0  0  0  0
  147.5329  136.8829  152.3878 H   0  0  0  0  0  0  0  0  0  0  0  0
  146.2536  135.2345  153.5141 H   0  0  0  0  0  0  0  0  0  0  0  0
  145.0868  136.4706  153.9557 H   0  0  0  0  0  0  0  0  0  0  0  0
  144.0028  136.2379  151.9709 H   0  0  0  0  0  0  0  0  0  0  0  0
  145.4637  136.5833  151.0743 H   0  0  0  0  0  0  0  0  0  0  0  0
  143.0136  134.0430  151.2183 H   0  0  0  0  0  0  0  0  0  0  0  0
  144.0396  131.6325  150.4552 H   0  0  0  0  0  0  0  0  0  0  0  0
  146.7758  132.0381  150.6277 H   0  0  0  0  0  0  0  0  0  0  0  0
  1  2  1  0  0  0  0
  1 18  1  0  0  0  0
  1 19  1  0  0  0  0
  1 20  1  0  0  0  0
  2  3  1  0  0  0  0
  2 21  1  0  0  0  0
  2 22  1  0  0  0  0
  3  4  1  0  0  0  0
  3  5  1  0  0  0  0
  3 23  1  0  0  0  0
  4 24  1  0  0  0  0
  4 25  1  0  0  0  0
  4 26  1  0  0  0  0
  5  6  1  0  0  0  0
  5 27  1  0  0  0  0
  6  7  2  0  0  0  0
  6  8  1  0  0  0  0
  8  9  1  0  0  0  0
  8 10  1  0  0  0  0
  8 28  1  0  0  0  0
  9 29  1  0  0  0  0
  9 30  1  0  0  0  0
  9 31  1  0  0  0  0
 10 11  1  0  0  0  0
 10 32  1  0  0  0  0
 11 12  1  0  0  0  0
 11 33  1  0  0  0  0
 11 34  1  0  0  0  0
 12 13  1  0  0  0  0
 12 35  1  0  0  0  0
 12 36  1  0  0  0  0
 13 17  1  0  0  0  0
 13 14  1  0  0  0  0
 14 15  2  0  0  0  0
 14 37  1  0  0  0  0
 15 16  1  0  0  0  0
 15 38  1  0  0  0  0
 16 17  2  0  0  0  0
 16 39  1  0  0  0  0
M  END
> <s_m_source_file>
AV-unprocessed.smi

> <i_m_source_file_index>
3158

> <i_lp_mmshare_version>
43012

> <i_f3d_flags>
0

> <s_epik_input>
W0NIM11bQ0gyXVtDQEhdKFtDSDNdKVtOSF1DKD1PKVtDQEhdKFtDSDNdKVtOSF1bQ0gyXVtDSDJdbjFbY0hdW2NIXVtjSF1uMQ==

> <s_epik_cmdline>
J2VwaWtfcHl0aG9uJywgJy1waCcsICc3LjAnLCAnLXRuJywgJzgnLCAnLW1hJywgJzIwMCcsICctbWV0YWxfYmluZGluZycsICctaW1hZScsICc8aW5maWxlLm1hZT4nLCAnLW9tYWUnLCAnPG91dGZpbGUubWFlPic=

> <r_lp_tautomer_probability>
1

> <r_epik_Ionization_Penalty>
0.724013

> <r_epik_Ionization_Penalty_Charging>
0

> <r_epik_Ionization_Penalty_Neutral>
0.724013

> <r_epik_State_Penalty>
0.74758

> <r_epik_Charging_Adjusted_Penalty>
0.74758

> <i_epik_Tot_Q>
0

> <i_epik_Tot_abs_Q>
0

> <r_epik_Metal_State_Penalty>
0.746846

> <b_epik_Metal_Only>
0

> <s_lp_Force_Field>
OPLS_2005

> <r_lp_Energy>
5.95419

> <b_lp_Chiralities_Consistent>
1

> <s_lp_Variant>
AV-unprocessed.smi:3158-7

> <Gold.Version>
5.8.1

> <Gold.Id.Protein>
6NUR|6NUR_protein|mol2

> <Gold.PLP.Fitness>
42.0880

> <Gold.PLP.PLP>
-32.6255

> <Gold.PLP.part.hbond>
-2.0000

> <Gold.PLP.part.metal>
0.0000

> <Gold.PLP.part.buried>
-2.1645

> <Gold.PLP.part.nonpolar>
-29.8146

> <Gold.PLP.part.repulsive>
0.4057

> <Gold.PLP.ligand.clash>
0.0000

> <Gold.PLP.ligand.torsion>
1.3434

> <Gold.PLP.Chemscore.Hbond>
2.0000

> <Gold.PLP.Chemscore.CHOScore>
2.0000

> <Gold.PLP.Chemscore.Metal>
0.0000

> <Gold.Chemscore.Hbonds>
donor molecule, donor type, donor heavy atom, donor atom, acceptor molecule, acceptor atom, score
      L1  H     5    27       P1 10175  1.00
      L1  H    10    32       P1  7948  1.00
      L1  C    14    37       P1 10186  0.76
      L1  C    16    39       P1 10747  1.00

> <Gold.PLP.Chemscore.Internal.Correction>
0.1493

> <Gold.Rescore>
     Score         DG    S(hbond)    S(metal)    S(lipo)     H(rot)  DE(clash)    DE(int)     intcor
     12.01     -13.77       1.81        0.00      65.56       2.12       0.08       1.68       ----

> <Gold.Chemscore.Fitness>
12.0135

> <Gold.Chemscore.DG>
-13.7731

> <Gold.Chemscore.ZeroCoef>
-5.4800

> <Gold.Chemscore.Hbond>
1.8139

> <Gold.Chemscore.Metal>
0.0000

> <Gold.Chemscore.Lipo>
65.5610

> <Gold.Chemscore.Internal_Hbond>
0.0000

> <Gold.Chemscore.DEClash>
0.0757

> <Gold.Chemscore.DEInternal>
1.6839

> <Gold.Chemscore.Rot>
2.1234

> <Gold.Chemscore.Internal.Correction>
   9.000000E+99

> <Gold.Chemscore.Hbonds>
donor molecule, donor type, donor heavy atom, donor atom, acceptor molecule, acceptor atom, score
      L1  H     5    27       P1 10175  0.34
      L1  H    10    32       P1  7948  0.99

> <Gold.Chemscore.Hbond.Weighted>
-6.0583

> <Gold.Chemscore.Metal.Weighted>
-0.0000

> <Gold.Chemscore.Lipo.Weighted>
-7.6706

> <Gold.Chemscore.Internal_Hbond.Weighted>
0.0000

> <Gold.Chemscore.DEClash.Weighted>
0.0757

> <Gold.Chemscore.DEInternal.Weighted>
1.6839

> <Gold.Chemscore.Rot.Weighted>
5.4359

> <Gold.Chemscore.Internal.Correction.Weighted>
   9.000000E+99

> <Gold.Protein.RotatedTorsions>
[ 6907 6896 6895 6894 ] final -173.31 input  -60.11 | X-H torsion
[ 7974 7965 7964 7962 ] final   59.95 input  175.53 | X-H torsion
[ 8008 7997 7996 7995 ] final  130.87 input   59.86 | X-H torsion
[ 10167 10162 10161 10158 ] final  -75.12 input  -65.29 | X-H torsion
[ 10718 10713 10712 10709 ] final   77.62 input   66.30 | X-H torsion
[ 10763 10752 10751 10750 ] final -129.54 input  -60.55 | X-H torsion
[ 11005 11000 10999 10996 ] final  -98.75 input  -57.11 | X-H torsion

> <Gold.Protein.ActiveResidues>
 VAL166  LYS551  ARG553  GLY616  TRP617  ASP618  TYR619  PRO620  LYS621  CYS622 
 ASP623  PHE694  ASN695  SER759  ASP760  ASP761  ALA762  ILE779  LEU786  VAL792 
 PHE793  MET794  SER795  GLU796  ALA797  LYS798  CYS799  TRP800  GLU811  SER814 

> <Gold.Protein.RotatedAtoms>
  151.5541  133.3413  159.2958 H   0  0  0  0  0  0  0  0  0  0  0  0  # atno 6907 bound_to 6896
  150.8461  134.7773  159.6983 H   0  0  0  0  0  0  0  0  0  0  0  0  # atno 6908 bound_to 6896
  152.4518  134.5384  159.9883 H   0  0  0  0  0  0  0  0  0  0  0  0  # atno 6909 bound_to 6896
  145.9015  139.3584  143.0590 H   0  0  0  0  0  0  0  0  0  0  0  0  # atno 7974 bound_to 7965
  156.2961  140.2585  156.2833 H   0  0  0  0  0  0  0  0  0  0  0  0  # atno 8008 bound_to 7997
  154.9581  140.0393  157.2195 H   0  0  0  0  0  0  0  0  0  0  0  0  # atno 8009 bound_to 7997
  154.7972  140.2822  155.5952 H   0  0  0  0  0  0  0  0  0  0  0  0  # atno 8010 bound_to 7997
  140.4969  143.2369  151.7815 H   0  0  0  0  0  0  0  0  0  0  0  0  # atno 10167 bound_to 10162
  157.6717  130.9830  150.1668 H   0  0  0  0  0  0  0  0  0  0  0  0  # atno 10718 bound_to 10713
  154.8757  135.3892  154.3937 H   0  0  0  0  0  0  0  0  0  0  0  0  # atno 10763 bound_to 10752
  153.4670  135.7029  153.6021 H   0  0  0  0  0  0  0  0  0  0  0  0  # atno 10764 bound_to 10752
  153.4495  135.3837  155.2244 H   0  0  0  0  0  0  0  0  0  0  0  0  # atno 10765 bound_to 10752
  141.1333  133.8269  157.0881 H   0  0  0  0  0  0  0  0  0  0  0  0  # atno 11005 bound_to 11000
  145.8785  140.9377  143.0613 LP  0  0  0  0  0  0  0  0  0  0  0  0  # atno 17320 bound_to 7965
  144.6736  140.0749  143.7471 LP  0  0  0  0  0  0  0  0  0  0  0  0  # atno 17321 bound_to 7965
  139.4863  144.4574  151.9582 LP  0  0  0  0  0  0  0  0  0  0  0  0  # atno 17342 bound_to 10162
  140.3662  144.2912  150.5926 LP  0  0  0  0  0  0  0  0  0  0  0  0  # atno 17343 bound_to 10162
  156.2431  130.3693  149.8315 LP  0  0  0  0  0  0  0  0  0  0  0  0  # atno 17370 bound_to 10713
  156.6109  130.8586  151.3454 LP  0  0  0  0  0  0  0  0  0  0  0  0  # atno 17371 bound_to 10713
  140.0409  134.9854  157.0960 LP  0  0  0  0  0  0  0  0  0  0  0  0  # atno 17394 bound_to 11000
  140.4136  134.1954  155.7163 LP  0  0  0  0  0  0  0  0  0  0  0  0  # atno 17395 bound_to 11000

$$$$
