AV-unprocessed.smi:843|AV-procd|sdf|3921|dock1
  -GOLD-   22720 1383D 1   1.00000     0.00000
 Structure written by MMmdl.
 46 47  0  0  0  0  0  0  0  0  2 V2000
  144.7104  131.4631  150.6829 C   0  0  0  0  0  0  0  0  0  0  0  0
  145.5300  130.4825  151.5343 C   0  0  0  0  0  0  0  0  0  0  0  0
  146.7336  131.1134  152.1325 N   0  3  2  0  0  0  0  0  0  0  0  0
  147.1845  130.4067  153.3584 C   0  0  0  0  0  0  0  0  0  0  0  0
  148.5072  130.9877  153.8850 C   0  0  0  0  0  0  0  0  0  0  0  0
  148.3972  132.5020  154.1545 C   0  0  1  0  0  0  0  0  0  0  0  0
  149.7238  133.1364  154.6245 C   0  0  0  0  0  0  0  0  0  0  0  0
  149.7549  134.5847  154.4383 N   0  0  0  0  0  0  0  0  0  0  0  0
  150.6285  135.4249  155.0120 C   0  0  0  0  0  0  0  0  0  0  0  0
  151.4985  135.0583  155.8011 O   0  0  0  0  0  0  0  0  0  0  0  0
  150.4078  136.6906  154.6172 N   0  0  0  0  0  0  0  0  0  0  0  0
  151.0796  137.8918  154.9849 C   0  0  0  0  0  0  0  0  0  0  0  0
  152.3512  137.9420  155.6088 C   0  0  0  0  0  0  0  0  0  0  0  0
  152.9123  139.1947  155.9189 C   0  0  0  0  0  0  0  0  0  0  0  0
  152.1867  140.3544  155.5928 C   0  0  0  0  0  0  0  0  0  0  0  0
  150.9791  140.3244  154.9938 N   0  0  0  0  0  0  0  0  0  0  0  0
  150.4358  139.1181  154.6932 C   0  0  0  0  0  0  0  0  0  0  0  0
  149.2000  139.0923  154.0744 O   0  0  0  0  0  0  0  0  0  0  0  0
  148.3685  140.2442  154.1664 C   0  0  0  0  0  0  0  0  0  0  0  0
  147.8857  133.1952  152.8793 C   0  0  0  0  0  0  0  0  0  0  0  0
  146.5732  132.5705  152.3786 C   0  0  0  0  0  0  0  0  0  0  0  0
  143.8918  130.9437  150.1843 H   0  0  0  0  0  0  0  0  0  0  0  0
  145.3260  131.9254  149.9106 H   0  0  0  0  0  0  0  0  0  0  0  0
  144.2682  132.2583  151.2827 H   0  0  0  0  0  0  0  0  0  0  0  0
  144.9107  130.0394  152.3156 H   0  0  0  0  0  0  0  0  0  0  0  0
  145.8409  129.6625  150.8858 H   0  0  0  0  0  0  0  0  0  0  0  0
  146.4111  130.4758  154.1250 H   0  0  0  0  0  0  0  0  0  0  0  0
  147.3235  129.3465  153.1435 H   0  0  0  0  0  0  0  0  0  0  0  0
  148.7834  130.4574  154.7964 H   0  0  0  0  0  0  0  0  0  0  0  0
  149.3035  130.7975  153.1638 H   0  0  0  0  0  0  0  0  0  0  0  0
  147.6548  132.6542  154.9397 H   0  0  0  0  0  0  0  0  0  0  0  0
  149.9254  132.8737  155.6645 H   0  0  0  0  0  0  0  0  0  0  0  0
  150.5498  132.7219  154.0460 H   0  0  0  0  0  0  0  0  0  0  0  0
  149.0712  134.9746  153.8057 H   0  0  0  0  0  0  0  0  0  0  0  0
  149.6354  136.8204  153.9801 H   0  0  0  0  0  0  0  0  0  0  0  0
  152.9161  137.0574  155.8534 H   0  0  0  0  0  0  0  0  0  0  0  0
  153.8797  139.2640  156.3940 H   0  0  0  0  0  0  0  0  0  0  0  0
  152.5881  141.3318  155.8158 H   0  0  0  0  0  0  0  0  0  0  0  0
  147.4437  140.0653  153.6181 H   0  0  0  0  0  0  0  0  0  0  0  0
  148.8482  141.1203  153.7272 H   0  0  0  0  0  0  0  0  0  0  0  0
  148.1028  140.4623  155.2018 H   0  0  0  0  0  0  0  0  0  0  0  0
  147.7324  134.2582  153.0696 H   0  0  0  0  0  0  0  0  0  0  0  0
  148.6405  133.1296  152.0940 H   0  0  0  0  0  0  0  0  0  0  0  0
  146.2721  133.0784  151.4633 H   0  0  0  0  0  0  0  0  0  0  0  0
  145.7777  132.7343  153.1075 H   0  0  0  0  0  0  0  0  0  0  0  0
  147.4774  131.0081  151.4571 H   0  0  0  0  0  0  0  0  0  0  0  0
  1  2  1  0  0  0  0
  1 22  1  0  0  0  0
  1 23  1  0  0  0  0
  1 24  1  0  0  0  0
  2  3  1  0  0  0  0
  2 25  1  0  0  0  0
  2 26  1  0  0  0  0
  3 21  1  0  0  0  0
  3  4  1  0  0  0  0
  3 46  1  0  0  0  0
  4  5  1  0  0  0  0
  4 27  1  0  0  0  0
  4 28  1  0  0  0  0
  5  6  1  0  0  0  0
  5 29  1  0  0  0  0
  5 30  1  0  0  0  0
  6  7  1  0  0  0  0
  6 20  1  0  0  0  0
  6 31  1  0  0  0  0
  7  8  1  0  0  0  0
  7 32  1  0  0  0  0
  7 33  1  0  0  0  0
  8  9  1  0  0  0  0
  8 34  1  0  0  0  0
  9 10  2  0  0  0  0
  9 11  1  0  0  0  0
 11 12  1  0  0  0  0
 11 35  1  0  0  0  0
 12 17  1  0  0  0  0
 12 13  2  0  0  0  0
 13 14  1  0  0  0  0
 13 36  1  0  0  0  0
 14 15  2  0  0  0  0
 14 37  1  0  0  0  0
 15 16  1  0  0  0  0
 15 38  1  0  0  0  0
 16 17  2  0  0  0  0
 17 18  1  0  0  0  0
 18 19  1  0  0  0  0
 19 39  1  0  0  0  0
 19 40  1  0  0  0  0
 19 41  1  0  0  0  0
 20 21  1  0  0  0  0
 20 42  1  0  0  0  0
 20 43  1  0  0  0  0
 21 44  1  0  0  0  0
 21 45  1  0  0  0  0
M  CHG  1   3   1
M  END
> <s_m_source_file>
AV-unprocessed.smi

> <i_m_source_file_index>
843

> <i_lp_mmshare_version>
43012

> <i_f3d_flags>
0

> <s_epik_input>
W0NIM11bQ0gyXU4xW0NIMl1bQ0gyXVtDSF0oW0NIMl1bQ0gyXTEpW0NIMl1bTkhdQyg9TylbTkhdYzJbY0hdW2NIXVtjSF1uYzJPW0NIM10=

> <s_epik_cmdline>
J2VwaWtfcHl0aG9uJywgJy1waCcsICc3LjAnLCAnLXRuJywgJzgnLCAnLW1hJywgJzIwMCcsICctbWV0YWxfYmluZGluZycsICctaW1hZScsICc8aW5maWxlLm1hZT4nLCAnLW9tYWUnLCAnPG91dGZpbGUubWFlPic=

> <r_lp_tautomer_probability>
1

> <r_epik_Ionization_Penalty>
0.00115026

> <r_epik_Ionization_Penalty_Charging>
0.00106265

> <r_epik_Ionization_Penalty_Neutral>
8.76119e-05

> <r_epik_State_Penalty>
0.000695551

> <r_epik_Charging_Adjusted_Penalty>
0.0017582

> <i_epik_Tot_Q>
1

> <i_epik_Tot_abs_Q>
1

> <r_epik_Metal_State_Penalty>
-0

> <b_epik_Metal_Only>
0

> <s_lp_Force_Field>
OPLS_2005

> <r_lp_Energy>
20.0446

> <b_lp_Chiralities_Consistent>
1

> <s_lp_Variant>
AV-unprocessed.smi:843-1

> <Gold.Version>
5.8.1

> <Gold.Id.Protein>
6NUR|6NUR_protein|mol2

> <Gold.PLP.Fitness>
45.6785

> <Gold.PLP.PLP>
-35.6678

> <Gold.PLP.part.hbond>
-5.1615

> <Gold.PLP.part.metal>
0.0000

> <Gold.PLP.part.buried>
0.2404

> <Gold.PLP.part.nonpolar>
-30.8333

> <Gold.PLP.part.repulsive>
1.2240

> <Gold.PLP.ligand.clash>
0.0000

> <Gold.PLP.ligand.torsion>
0.9801

> <Gold.PLP.Chemscore.Hbond>
3.9801

> <Gold.PLP.Chemscore.CHOScore>
0.0000

> <Gold.PLP.Chemscore.Metal>
0.0000

> <Gold.Chemscore.Hbonds>
donor molecule, donor type, donor heavy atom, donor atom, acceptor molecule, acceptor atom, score
      L1  H     3    46       P1 10747  1.00
      L1  H     8    34       P1  7948  0.29
      L1  H    11    35       P1  7948  0.31
      P1  H  7989  7998       L1    16  0.60
      P1  H 10752 10764       L1    10  0.96

> <Gold.PLP.Chemscore.Internal.Correction>
0.0307

> <Gold.Rescore>
     Score         DG    S(hbond)    S(metal)    S(lipo)     H(rot)  DE(clash)    DE(int)     intcor
     17.82     -20.63       2.57        0.00      92.31       1.65       1.11       1.70       ----

> <Gold.Chemscore.Fitness>
17.8215

> <Gold.Chemscore.DG>
-20.6336

> <Gold.Chemscore.ZeroCoef>
-5.4800

> <Gold.Chemscore.Hbond>
2.5675

> <Gold.Chemscore.Metal>
0.0000

> <Gold.Chemscore.Lipo>
92.3081

> <Gold.Chemscore.Internal_Hbond>
0.0000

> <Gold.Chemscore.DEClash>
1.1078

> <Gold.Chemscore.DEInternal>
1.7042

> <Gold.Chemscore.Rot>
1.6492

> <Gold.Chemscore.Internal.Correction>
   9.000000E+99

> <Gold.Chemscore.Hbonds>
donor molecule, donor type, donor heavy atom, donor atom, acceptor molecule, acceptor atom, score
      L1  H     3    46       P1 10747  1.00
      L1  H     8    34       P1  7948  0.11
      L1  H    11    35       P1  7948  0.25
      P1  H  7989  7998       L1    16  0.02
      P1  H 10752 10764       L1    10  0.32

> <Gold.Chemscore.Hbond.Weighted>
-8.5754

> <Gold.Chemscore.Metal.Weighted>
-0.0000

> <Gold.Chemscore.Lipo.Weighted>
-10.8000

> <Gold.Chemscore.Internal_Hbond.Weighted>
0.0000

> <Gold.Chemscore.DEClash.Weighted>
1.1078

> <Gold.Chemscore.DEInternal.Weighted>
1.7042

> <Gold.Chemscore.Rot.Weighted>
4.2219

> <Gold.Chemscore.Internal.Correction.Weighted>
   9.000000E+99

> <Gold.Protein.RotatedTorsions>
[ 6907 6896 6895 6894 ] final  -86.92 input  -60.11 | X-H torsion
[ 7974 7965 7964 7962 ] final   13.09 input  175.53 | X-H torsion
[ 8008 7997 7996 7995 ] final  161.37 input   59.86 | X-H torsion
[ 10167 10162 10161 10158 ] final -153.21 input  -65.29 | X-H torsion
[ 10718 10713 10712 10709 ] final  -48.28 input   66.30 | X-H torsion
[ 10763 10752 10751 10750 ] final  -41.64 input  -60.55 | X-H torsion
[ 11005 11000 10999 10996 ] final  -28.30 input  -57.11 | X-H torsion

> <Gold.Protein.ActiveResidues>
 VAL166  LYS551  ARG553  GLY616  TRP617  ASP618  TYR619  PRO620  LYS621  CYS622 
 ASP623  PHE694  ASN695  SER759  ASP760  ASP761  ALA762  ILE779  LEU786  VAL792 
 PHE793  MET794  SER795  GLU796  ALA797  LYS798  CYS799  TRP800  GLU811  SER814 

> <Gold.Protein.RotatedAtoms>
  150.6866  134.2976  159.4692 H   0  0  0  0  0  0  0  0  0  0  0  0  # atno 6907 bound_to 6896
  152.0875  134.9427  160.0581 H   0  0  0  0  0  0  0  0  0  0  0  0  # atno 6908 bound_to 6896
  152.0756  133.4093  159.4515 H   0  0  0  0  0  0  0  0  0  0  0  0  # atno 6909 bound_to 6896
  146.2337  139.9241  142.8506 H   0  0  0  0  0  0  0  0  0  0  0  0  # atno 7974 bound_to 7965
  156.2108  140.1779  156.7700 H   0  0  0  0  0  0  0  0  0  0  0  0  # atno 8008 bound_to 7997
  154.5719  140.0681  156.9007 H   0  0  0  0  0  0  0  0  0  0  0  0  # atno 8009 bound_to 7997
  155.2657  140.3339  155.4272 H   0  0  0  0  0  0  0  0  0  0  0  0  # atno 8010 bound_to 7997
  139.7116  143.9100  152.2470 H   0  0  0  0  0  0  0  0  0  0  0  0  # atno 10167 bound_to 10162
  156.2003  130.4156  149.9250 H   0  0  0  0  0  0  0  0  0  0  0  0  # atno 10718 bound_to 10713
  153.9659  135.6734  153.4746 H   0  0  0  0  0  0  0  0  0  0  0  0  # atno 10763 bound_to 10752
  153.0816  135.4920  154.8510 H   0  0  0  0  0  0  0  0  0  0  0  0  # atno 10764 bound_to 10752
  154.7246  135.3124  154.8952 H   0  0  0  0  0  0  0  0  0  0  0  0  # atno 10765 bound_to 10752
  140.9196  133.7407  156.0782 H   0  0  0  0  0  0  0  0  0  0  0  0  # atno 11005 bound_to 11000
  145.2108  140.9895  143.4101 LP  0  0  0  0  0  0  0  0  0  0  0  0  # atno 17320 bound_to 7965
  144.9693  139.3897  143.6317 LP  0  0  0  0  0  0  0  0  0  0  0  0  # atno 17321 bound_to 7965
  139.8970  144.6933  150.8706 LP  0  0  0  0  0  0  0  0  0  0  0  0  # atno 17342 bound_to 10162
  140.7734  143.3542  151.1954 LP  0  0  0  0  0  0  0  0  0  0  0  0  # atno 17343 bound_to 10162
  156.6962  130.8915  151.3594 LP  0  0  0  0  0  0  0  0  0  0  0  0  # atno 17370 bound_to 10713
  157.6982  130.9304  150.0705 LP  0  0  0  0  0  0  0  0  0  0  0  0  # atno 17371 bound_to 10713
  140.8005  134.3514  157.5440 LP  0  0  0  0  0  0  0  0  0  0  0  0  # atno 17394 bound_to 11000
  139.8773  134.9195  156.3228 LP  0  0  0  0  0  0  0  0  0  0  0  0  # atno 17395 bound_to 11000

$$$$
