AV-unprocessed.smi:653|AV-procd|sdf|3210|dock5
  -GOLD-   22720 0143D 1   1.00000     0.00000
 Structure written by MMmdl.
 45 46  0  0  0  0  0  0  0  0  2 V2000
  153.2006  142.9980  163.5229 C   0  0  0  0  0  0  0  0  0  0  0  0
  152.8030  143.1549  162.0702 C   0  0  0  0  0  0  0  0  0  0  0  0
  152.1449  144.3081  161.5916 C   0  0  0  0  0  0  0  0  0  0  0  0
  151.8097  144.3926  160.2243 C   0  0  0  0  0  0  0  0  0  0  0  0
  152.1386  143.3230  159.3624 C   0  0  0  0  0  0  0  0  0  0  0  0
  151.7969  143.3864  157.8826 C   0  0  0  0  0  0  0  0  0  0  0  0
  151.1098  142.1028  157.4030 C   0  0  0  0  0  0  0  0  0  0  0  0
  151.5887  140.9974  157.6609 O   0  0  0  0  0  0  0  0  0  0  0  0
  149.9767  142.2671  156.7041 N   0  0  0  0  0  0  0  0  0  0  0  0
  149.1675  141.1854  156.1519 C   0  0  0  0  0  0  0  0  0  0  0  0
  148.9163  141.3552  154.6324 C   0  0  2  0  0  0  0  0  0  0  0  0
  147.9278  142.4728  154.3267 C   0  0  0  0  0  0  0  0  0  0  0  0
  146.5665  141.7755  154.3958 C   0  0  0  0  0  0  0  0  0  0  0  0
  146.8362  140.3772  154.3550 O   0  0  0  0  0  0  0  0  0  0  0  0
  148.1890  140.1725  153.9696 C   0  0  2  0  0  0  0  0  0  0  0  0
  148.6745  138.7485  154.3241 C   0  0  0  0  0  0  0  0  0  0  0  0
  148.1446  138.2918  155.6944 C   0  0  0  0  0  0  0  0  0  0  0  0
  150.2094  138.6678  154.3014 C   0  0  0  0  0  0  0  0  0  0  0  0
  152.7954  142.1938  159.8983 C   0  0  0  0  0  0  0  0  0  0  0  0
  153.1014  142.1524  161.2135 N   0  3  0  0  0  0  0  0  0  0  0  0
  152.5632  143.6049  164.1666 H   0  0  0  0  0  0  0  0  0  0  0  0
  154.2341  143.3138  163.6668 H   0  0  0  0  0  0  0  0  0  0  0  0
  153.1100  141.9587  163.8406 H   0  0  0  0  0  0  0  0  0  0  0  0
  151.9016  145.1202  162.2615 H   0  0  0  0  0  0  0  0  0  0  0  0
  151.3095  145.2709  159.8425 H   0  0  0  0  0  0  0  0  0  0  0  0
  151.1389  144.2347  157.6912 H   0  0  0  0  0  0  0  0  0  0  0  0
  152.7098  143.5581  157.3100 H   0  0  0  0  0  0  0  0  0  0  0  0
  149.6493  143.2084  156.5412 H   0  0  0  0  0  0  0  0  0  0  0  0
  149.6621  140.2373  156.3639 H   0  0  0  0  0  0  0  0  0  0  0  0
  148.2208  141.1612  156.6924 H   0  0  0  0  0  0  0  0  0  0  0  0
  149.8672  141.5399  154.1309 H   0  0  0  0  0  0  0  0  0  0  0  0
  147.9984  143.3284  154.9984 H   0  0  0  0  0  0  0  0  0  0  0  0
  148.0965  142.8406  153.3136 H   0  0  0  0  0  0  0  0  0  0  0  0
  146.0456  142.0099  155.3245 H   0  0  0  0  0  0  0  0  0  0  0  0
  145.9265  142.0698  153.5636 H   0  0  0  0  0  0  0  0  0  0  0  0
  148.2403  140.2985  152.8858 H   0  0  0  0  0  0  0  0  0  0  0  0
  148.3094  138.0525  153.5687 H   0  0  0  0  0  0  0  0  0  0  0  0
  148.4884  138.9532  156.4903 H   0  0  0  0  0  0  0  0  0  0  0  0
  148.4857  137.2835  155.9305 H   0  0  0  0  0  0  0  0  0  0  0  0
  147.0553  138.2785  155.7238 H   0  0  0  0  0  0  0  0  0  0  0  0
  150.6547  139.3532  155.0230 H   0  0  0  0  0  0  0  0  0  0  0  0
  150.6049  138.9181  153.3167 H   0  0  0  0  0  0  0  0  0  0  0  0
  150.5537  137.6616  154.5423 H   0  0  0  0  0  0  0  0  0  0  0  0
  153.0898  141.3313  159.3181 H   0  0  0  0  0  0  0  0  0  0  0  0
  153.5812  141.3281  161.5759 H   0  0  0  0  0  0  0  0  0  0  0  0
  1  2  1  0  0  0  0
  1 21  1  0  0  0  0
  1 22  1  0  0  0  0
  1 23  1  0  0  0  0
  2 20  1  0  0  0  0
  2  3  2  0  0  0  0
  3  4  1  0  0  0  0
  3 24  1  0  0  0  0
  4  5  2  0  0  0  0
  4 25  1  0  0  0  0
  5  6  1  0  0  0  0
  5 19  1  0  0  0  0
  6  7  1  0  0  0  0
  6 26  1  0  0  0  0
  6 27  1  0  0  0  0
  7  8  2  0  0  0  0
  7  9  1  0  0  0  0
  9 10  1  0  0  0  0
  9 28  1  0  0  0  0
 10 11  1  0  0  0  0
 10 29  1  0  0  0  0
 10 30  1  0  0  0  0
 11 15  1  0  0  0  0
 11 12  1  0  0  0  0
 11 31  1  0  0  0  0
 12 13  1  0  0  0  0
 12 32  1  0  0  0  0
 12 33  1  0  0  0  0
 13 14  1  0  0  0  0
 13 34  1  0  0  0  0
 13 35  1  0  0  0  0
 14 15  1  0  0  0  0
 15 16  1  0  0  0  0
 15 36  1  0  0  0  0
 16 17  1  0  0  0  0
 16 18  1  0  0  0  0
 16 37  1  0  0  0  0
 17 38  1  0  0  0  0
 17 39  1  0  0  0  0
 17 40  1  0  0  0  0
 18 41  1  0  0  0  0
 18 42  1  0  0  0  0
 18 43  1  0  0  0  0
 19 20  2  0  0  0  0
 19 44  1  0  0  0  0
 20 45  1  0  0  0  0
M  CHG  1  20   1
M  END
> <s_m_source_file>
AV-unprocessed.smi

> <i_m_source_file_index>
653

> <i_lp_mmshare_version>
43012

> <i_f3d_flags>
0

> <s_epik_input>
W0NIM11jMVtjSF1bY0hdYyhbY0hdbjEpW0NIMl1DKD1PKVtOSF1bQ0gyXVtDQEBIXTJbQ0gyXVtDSDJdT1tDQEhdMltDSF0oW0NIM10pW0NIM10=

> <s_epik_cmdline>
J2VwaWtfcHl0aG9uJywgJy1waCcsICc3LjAnLCAnLXRuJywgJzgnLCAnLW1hJywgJzIwMCcsICctbWV0YWxfYmluZGluZycsICctaW1hZScsICc8aW5maWxlLm1hZT4nLCAnLW9tYWUnLCAnPG91dGZpbGUubWFlPic=

> <r_epik_Ionization_Penalty>
2.12486

> <r_epik_Ionization_Penalty_Charging>
2.12486

> <r_epik_Ionization_Penalty_Neutral>
9.0873e-08

> <r_epik_State_Penalty>
2.26279

> <r_epik_Charging_Adjusted_Penalty>
4.38765

> <i_epik_Tot_Q>
1

> <i_epik_Tot_abs_Q>
1

> <r_epik_Metal_State_Penalty>
2.27914

> <b_epik_Metal_Only>
0

> <s_lp_Force_Field>
OPLS_2005

> <r_lp_Energy>
28.354

> <b_lp_Chiralities_Consistent>
1

> <s_lp_Variant>
AV-unprocessed.smi:653-7

> <Gold.Version>
5.8.1

> <Gold.Id.Protein>
6NUR|6NUR_protein|mol2

> <Gold.PLP.Fitness>
47.1733

> <Gold.PLP.PLP>
-45.2972

> <Gold.PLP.part.hbond>
-1.0000

> <Gold.PLP.part.metal>
0.0000

> <Gold.PLP.part.buried>
-2.9258

> <Gold.PLP.part.nonpolar>
-40.8812

> <Gold.PLP.part.repulsive>
0.1901

> <Gold.PLP.ligand.clash>
0.0000

> <Gold.PLP.ligand.torsion>
0.5911

> <Gold.PLP.Chemscore.Hbond>
1.0000

> <Gold.PLP.Chemscore.CHOScore>
0.0000

> <Gold.PLP.Chemscore.Metal>
0.0000

> <Gold.Chemscore.Hbonds>
donor molecule, donor type, donor heavy atom, donor atom, acceptor molecule, acceptor atom, score
      L1  H     9    28       P1  8028  1.00

> <Gold.PLP.Chemscore.Internal.Correction>
0.0582

> <Gold.Rescore>
     Score         DG    S(hbond)    S(metal)    S(lipo)     H(rot)  DE(clash)    DE(int)     intcor
     17.46     -19.52       0.94        0.00     127.41       1.57       0.11       1.95       ----

> <Gold.Chemscore.Fitness>
17.4584

> <Gold.Chemscore.DG>
-19.5211

> <Gold.Chemscore.ZeroCoef>
-5.4800

> <Gold.Chemscore.Hbond>
0.9443

> <Gold.Chemscore.Metal>
0.0000

> <Gold.Chemscore.Lipo>
127.4075

> <Gold.Chemscore.Internal_Hbond>
0.0000

> <Gold.Chemscore.DEClash>
0.1088

> <Gold.Chemscore.DEInternal>
1.9539

> <Gold.Chemscore.Rot>
1.5701

> <Gold.Chemscore.Internal.Correction>
   9.000000E+99

> <Gold.Chemscore.Hbonds>
donor molecule, donor type, donor heavy atom, donor atom, acceptor molecule, acceptor atom, score
      L1  H     9    28       P1  8028  0.99

> <Gold.Chemscore.Hbond.Weighted>
-3.1540

> <Gold.Chemscore.Metal.Weighted>
-0.0000

> <Gold.Chemscore.Lipo.Weighted>
-14.9067

> <Gold.Chemscore.Internal_Hbond.Weighted>
0.0000

> <Gold.Chemscore.DEClash.Weighted>
0.1088

> <Gold.Chemscore.DEInternal.Weighted>
1.9539

> <Gold.Chemscore.Rot.Weighted>
4.0196

> <Gold.Chemscore.Internal.Correction.Weighted>
   9.000000E+99

> <Gold.Protein.RotatedTorsions>
[ 6907 6896 6895 6894 ] final  -25.77 input  -60.11 | X-H torsion
[ 7974 7965 7964 7962 ] final   56.93 input  175.53 | X-H torsion
[ 8008 7997 7996 7995 ] final  -28.31 input   59.86 | X-H torsion
[ 10167 10162 10161 10158 ] final  109.27 input  -65.29 | X-H torsion
[ 10718 10713 10712 10709 ] final  132.42 input   66.30 | X-H torsion
[ 10763 10752 10751 10750 ] final -169.27 input  -60.55 | X-H torsion
[ 11005 11000 10999 10996 ] final -159.77 input  -57.11 | X-H torsion

> <Gold.Protein.ActiveResidues>
 VAL166  LYS551  ARG553  GLY616  TRP617  ASP618  TYR619  PRO620  LYS621  CYS622 
 ASP623  PHE694  ASN695  SER759  ASP760  ASP761  ALA762  ILE779  LEU786  VAL792 
 PHE793  MET794  SER795  GLU796  ALA797  LYS798  CYS799  TRP800  GLU811  SER814 

> <Gold.Protein.RotatedAtoms>
  151.1704  135.0315  159.8748 H   0  0  0  0  0  0  0  0  0  0  0  0  # atno 6907 bound_to 6896
  152.5449  134.1177  159.8395 H   0  0  0  0  0  0  0  0  0  0  0  0  # atno 6908 bound_to 6896
  151.1282  133.5009  159.2632 H   0  0  0  0  0  0  0  0  0  0  0  0  # atno 6909 bound_to 6896
  145.9346  139.3836  143.0400 H   0  0  0  0  0  0  0  0  0  0  0  0  # atno 7974 bound_to 7965
  154.4338  140.1848  156.1070 H   0  0  0  0  0  0  0  0  0  0  0  0  # atno 8008 bound_to 7997
  156.0248  140.3337  155.7051 H   0  0  0  0  0  0  0  0  0  0  0  0  # atno 8009 bound_to 7997
  155.5925  140.0632  157.2745 H   0  0  0  0  0  0  0  0  0  0  0  0  # atno 8010 bound_to 7997
  139.6780  144.7120  151.1567 H   0  0  0  0  0  0  0  0  0  0  0  0  # atno 10167 bound_to 10162
  157.4873  131.1089  150.9603 H   0  0  0  0  0  0  0  0  0  0  0  0  # atno 10718 bound_to 10713
  154.6540  135.2915  154.9951 H   0  0  0  0  0  0  0  0  0  0  0  0  # atno 10763 bound_to 10752
  154.1034  135.6573  153.4876 H   0  0  0  0  0  0  0  0  0  0  0  0  # atno 10764 bound_to 10752
  153.0392  135.5248  154.7461 H   0  0  0  0  0  0  0  0  0  0  0  0  # atno 10765 bound_to 10752
  140.6388  134.4573  157.5232 H   0  0  0  0  0  0  0  0  0  0  0  0  # atno 11005 bound_to 11000
  145.8381  140.9595  143.0813 LP  0  0  0  0  0  0  0  0  0  0  0  0  # atno 17320 bound_to 7965
  144.6770  140.0249  143.7483 LP  0  0  0  0  0  0  0  0  0  0  0  0  # atno 17321 bound_to 7965
  140.7642  143.5742  150.8963 LP  0  0  0  0  0  0  0  0  0  0  0  0  # atno 17342 bound_to 10162
  139.9412  143.6379  152.3053 LP  0  0  0  0  0  0  0  0  0  0  0  0  # atno 17343 bound_to 10162
  157.0316  130.5713  149.5344 LP  0  0  0  0  0  0  0  0  0  0  0  0  # atno 17370 bound_to 10713
  156.0154  130.5248  150.8118 LP  0  0  0  0  0  0  0  0  0  0  0  0  # atno 17371 bound_to 10713
  139.9088  134.8390  156.1606 LP  0  0  0  0  0  0  0  0  0  0  0  0  # atno 17394 bound_to 11000
  141.0622  133.6836  156.1974 LP  0  0  0  0  0  0  0  0  0  0  0  0  # atno 17395 bound_to 11000

$$$$
