AV-unprocessed.smi:2761|AV-procd|sdf|10634|dock7
  -GOLD-   2272015 83D 1   1.00000     0.00000
 Structure written by MMmdl.
 26 27  0  0  0  0  0  0  0  0  2 V2000
  154.3097  141.5304  161.2002 O   0  0  0  0  0  0  0  0  0  0  0  0
  153.6852  141.8066  160.1738 C   0  0  0  0  0  0  0  0  0  0  0  0
  153.3234  140.9168  159.2239 N   0  0  0  0  0  0  0  0  0  0  0  0
  153.5532  139.5377  159.1952 C   0  0  0  0  0  0  0  0  0  0  0  0
  153.6008  138.9620  160.5149 C   0  0  0  0  0  0  0  0  0  0  0  0
  153.8178  137.6313  160.6079 C   0  0  0  0  0  0  0  0  0  0  0  0
  153.9974  136.8044  159.4119 C   0  0  0  0  0  0  0  0  0  0  0  0
  154.1924  135.5982  159.5438 O   0  0  0  0  0  0  0  0  0  0  0  0
  153.9390  137.4208  158.1885 N   0  5  0  0  0  0  0  0  0  0  0  0
  153.7061  138.8488  158.1054 N   0  0  0  0  0  0  0  0  0  0  0  0
  153.2882  143.2664  159.9011 C   0  0  2  0  0  0  0  0  0  0  0  0
  152.3035  143.8253  160.9544 C   0  0  0  0  0  0  0  0  0  0  0  0
  151.9555  145.1614  160.6141 O   0  0  0  0  0  0  0  0  0  0  0  0
  151.3431  145.2282  159.3343 C   0  0  0  0  0  0  0  0  0  0  0  0
  152.3271  144.6899  158.2839 C   0  0  0  0  0  0  0  0  0  0  0  0
  152.6715  143.3523  158.6172 O   0  0  0  0  0  0  0  0  0  0  0  0
  152.8171  141.3070  158.4429 H   0  0  0  0  0  0  0  0  0  0  0  0
  153.4728  139.5396  161.4186 H   0  0  0  0  0  0  0  0  0  0  0  0
  153.8596  137.1674  161.5823 H   0  0  0  0  0  0  0  0  0  0  0  0
  154.2035  143.8610  159.9006 H   0  0  0  0  0  0  0  0  0  0  0  0
  151.4037  143.2110  161.0195 H   0  0  0  0  0  0  0  0  0  0  0  0
  152.7594  143.8337  161.9449 H   0  0  0  0  0  0  0  0  0  0  0  0
  150.4144  144.6556  159.3287 H   0  0  0  0  0  0  0  0  0  0  0  0
  151.0840  146.2644  159.1162 H   0  0  0  0  0  0  0  0  0  0  0  0
  151.8709  144.7042  157.2942 H   0  0  0  0  0  0  0  0  0  0  0  0
  153.2231  145.3105  158.2355 H   0  0  0  0  0  0  0  0  0  0  0  0
  1  2  2  0  0  0  0
  2  3  1  0  0  0  0
  2 11  1  0  0  0  0
  3 17  1  0  0  0  0
  3  4  1  0  0  0  0
  4  5  1  0  0  0  0
  4 10  2  0  0  0  0
  5  6  2  0  0  0  0
  5 18  1  0  0  0  0
  6  7  1  0  0  0  0
  6 19  1  0  0  0  0
  7  8  2  0  0  0  0
  7  9  1  0  0  0  0
  9 10  1  0  0  0  0
 11 16  1  0  0  0  0
 11 12  1  0  0  0  0
 11 20  1  0  0  0  0
 12 13  1  0  0  0  0
 12 21  1  0  0  0  0
 12 22  1  0  0  0  0
 13 14  1  0  0  0  0
 14 15  1  0  0  0  0
 14 23  1  0  0  0  0
 14 24  1  0  0  0  0
 15 16  1  0  0  0  0
 15 25  1  0  0  0  0
 15 26  1  0  0  0  0
M  CHG  1   9  -1
M  END
> <s_m_source_file>
AV-unprocessed.smi

> <i_m_source_file_index>
2761

> <i_lp_mmshare_version>
43012

> <i_f3d_flags>
0

> <s_epik_input>
TzFbQ0gyXVtDSDJdT1tDSDJdW0NASF0xQyg9TylbTkhdYzJbY0hdW2NIXWMoW09IXSlubjI=

> <s_epik_cmdline>
J2VwaWtfcHl0aG9uJywgJy1waCcsICc3LjAnLCAnLXRuJywgJzgnLCAnLW1hJywgJzIwMCcsICctbWV0YWxfYmluZGluZycsICctaW1hZScsICc8aW5maWxlLm1hZT4nLCAnLW9tYWUnLCAnPG91dGZpbGUubWFlPic=

> <r_lp_tautomer_probability>
1

> <r_epik_Ionization_Penalty>
4.21844

> <r_epik_Ionization_Penalty_Charging>
0.119247

> <r_epik_Ionization_Penalty_Neutral>
4.0992

> <r_epik_State_Penalty>
4.09486

> <r_epik_Charging_Adjusted_Penalty>
4.2141

> <i_epik_Tot_Q>
-1

> <i_epik_Tot_abs_Q>
1

> <r_epik_Metal_State_Penalty>
0.651223

> <b_epik_Metal_Only>
1

> <s_lp_Force_Field>
OPLS_2005

> <r_lp_Energy>
28.3559

> <b_lp_Chiralities_Consistent>
1

> <s_lp_Variant>
AV-unprocessed.smi:2761-3

> <Gold.Version>
5.8.1

> <Gold.Id.Protein>
6NUR|6NUR_protein|mol2

> <Gold.PLP.Fitness>
36.5387

> <Gold.PLP.PLP>
-30.9762

> <Gold.PLP.part.hbond>
-2.5742

> <Gold.PLP.part.metal>
0.0000

> <Gold.PLP.part.buried>
-5.2898

> <Gold.PLP.part.nonpolar>
-23.5866

> <Gold.PLP.part.repulsive>
0.2689

> <Gold.PLP.ligand.clash>
0.0000

> <Gold.PLP.ligand.torsion>
0.2195

> <Gold.PLP.Chemscore.Hbond>
2.0000

> <Gold.PLP.Chemscore.CHOScore>
0.0000

> <Gold.PLP.Chemscore.Metal>
0.0000

> <Gold.Chemscore.Hbonds>
donor molecule, donor type, donor heavy atom, donor atom, acceptor molecule, acceptor atom, score
      P1  H  6896  6908       L1     8  1.00
      P1  H  7997  8008       L1    10  1.00

> <Gold.PLP.Chemscore.Internal.Correction>
0.0016

> <Gold.Rescore>
     Score         DG    S(hbond)    S(metal)    S(lipo)     H(rot)  DE(clash)    DE(int)     intcor
     14.79     -16.45       1.82        0.00      63.69       1.00       0.03       1.63       ----

> <Gold.Chemscore.Fitness>
14.7887

> <Gold.Chemscore.DG>
-16.4505

> <Gold.Chemscore.ZeroCoef>
-5.4800

> <Gold.Chemscore.Hbond>
1.8199

> <Gold.Chemscore.Metal>
0.0000

> <Gold.Chemscore.Lipo>
63.6911

> <Gold.Chemscore.Internal_Hbond>
0.0000

> <Gold.Chemscore.DEClash>
0.0324

> <Gold.Chemscore.DEInternal>
1.6294

> <Gold.Chemscore.Rot>
1.0000

> <Gold.Chemscore.Internal.Correction>
   9.000000E+99

> <Gold.Chemscore.Hbonds>
donor molecule, donor type, donor heavy atom, donor atom, acceptor molecule, acceptor atom, score
      P1  H  6896  6908       L1     8  0.85
      P1  H  7997  8008       L1    10  0.40

> <Gold.Chemscore.Hbond.Weighted>
-6.0786

> <Gold.Chemscore.Metal.Weighted>
-0.0000

> <Gold.Chemscore.Lipo.Weighted>
-7.4519

> <Gold.Chemscore.Internal_Hbond.Weighted>
0.0000

> <Gold.Chemscore.DEClash.Weighted>
0.0324

> <Gold.Chemscore.DEInternal.Weighted>
1.6294

> <Gold.Chemscore.Rot.Weighted>
2.5600

> <Gold.Chemscore.Internal.Correction.Weighted>
   9.000000E+99

> <Gold.Protein.RotatedTorsions>
[ 6907 6896 6895 6894 ] final  -48.04 input  -60.11 | X-H torsion
[ 7974 7965 7964 7962 ] final  -87.73 input  175.53 | X-H torsion
[ 8008 7997 7996 7995 ] final  -83.68 input   59.86 | X-H torsion
[ 10167 10162 10161 10158 ] final -140.45 input  -65.29 | X-H torsion
[ 10718 10713 10712 10709 ] final   80.10 input   66.30 | X-H torsion
[ 10763 10752 10751 10750 ] final  166.01 input  -60.55 | X-H torsion
[ 11005 11000 10999 10996 ] final -120.54 input  -57.11 | X-H torsion

> <Gold.Protein.ActiveResidues>
 VAL166  LYS551  ARG553  GLY616  TRP617  ASP618  TYR619  PRO620  LYS621  CYS622 
 ASP623  PHE694  ASN695  SER759  ASP760  ASP761  ALA762  ILE779  LEU786  VAL792 
 PHE793  MET794  SER795  GLU796  ALA797  LYS798  CYS799  TRP800  GLU811  SER814 

> <Gold.Protein.RotatedAtoms>
  150.8946  134.8353  159.7317 H   0  0  0  0  0  0  0  0  0  0  0  0  # atno 6907 bound_to 6896
  152.4857  134.4595  159.9610 H   0  0  0  0  0  0  0  0  0  0  0  0  # atno 6908 bound_to 6896
  151.4654  133.3543  159.2850 H   0  0  0  0  0  0  0  0  0  0  0  0  # atno 6909 bound_to 6896
  145.4626  140.9561  143.1961 H   0  0  0  0  0  0  0  0  0  0  0  0  # atno 7974 bound_to 7965
  154.6217  140.0615  156.9623 H   0  0  0  0  0  0  0  0  0  0  0  0  # atno 8008 bound_to 7997
  155.1807  140.3299  155.4357 H   0  0  0  0  0  0  0  0  0  0  0  0  # atno 8009 bound_to 7997
  156.2435  140.1898  156.6904 H   0  0  0  0  0  0  0  0  0  0  0  0  # atno 8010 bound_to 7997
  139.8280  143.7485  152.2666 H   0  0  0  0  0  0  0  0  0  0  0  0  # atno 10167 bound_to 10162
  157.6796  130.9944  150.2029 H   0  0  0  0  0  0  0  0  0  0  0  0  # atno 10718 bound_to 10713
  154.3326  135.2754  155.2464 H   0  0  0  0  0  0  0  0  0  0  0  0  # atno 10763 bound_to 10752
  154.4769  135.5868  153.6365 H   0  0  0  0  0  0  0  0  0  0  0  0  # atno 10764 bound_to 10752
  152.9865  135.6102  154.3520 H   0  0  0  0  0  0  0  0  0  0  0  0  # atno 10765 bound_to 10752
  141.0136  134.0229  157.3381 H   0  0  0  0  0  0  0  0  0  0  0  0  # atno 11005 bound_to 11000
  144.7993  139.6171  143.7078 LP  0  0  0  0  0  0  0  0  0  0  0  0  # atno 17320 bound_to 7965
  146.2442  139.6064  142.9471 LP  0  0  0  0  0  0  0  0  0  0  0  0  # atno 17321 bound_to 7965
  139.7683  144.7485  151.0261 LP  0  0  0  0  0  0  0  0  0  0  0  0  # atno 17342 bound_to 10162
  140.7809  143.4673  151.0195 LP  0  0  0  0  0  0  0  0  0  0  0  0  # atno 17343 bound_to 10162
  156.2716  130.3722  149.8026 LP  0  0  0  0  0  0  0  0  0  0  0  0  # atno 17370 bound_to 10713
  156.5741  130.8437  151.3365 LP  0  0  0  0  0  0  0  0  0  0  0  0  # atno 17371 bound_to 10713
  139.9104  135.0189  156.7666 LP  0  0  0  0  0  0  0  0  0  0  0  0  # atno 17394 bound_to 11000
  140.6693  133.9574  155.7847 LP  0  0  0  0  0  0  0  0  0  0  0  0  # atno 17395 bound_to 11000

$$$$
