AV-unprocessed.smi:3226|AV-procd|sdf|12313|dock10
  -GOLD-   2272018163D 1   1.00000     0.00000
 Structure written by MMmdl.
 41 43  0  0  0  0  0  0  0  0  2 V2000
  152.0472  138.3212  158.3788 C   0  0  0  0  0  0  0  0  0  0  0  0
  152.0846  139.3397  157.2339 C   0  0  0  0  0  0  0  0  0  0  0  0
  151.8346  138.7119  155.8974 C   0  0  0  0  0  0  0  0  0  0  0  0
  152.6943  137.8722  155.3082 N   0  0  0  0  0  0  0  0  0  0  0  0
  152.0952  137.4950  154.1234 N   0  0  0  0  0  0  0  0  0  0  0  0
  150.9284  138.1366  154.1192 C   0  0  0  0  0  0  0  0  0  0  0  0
  150.7028  138.9143  155.1898 N   0  0  0  0  0  0  0  0  0  0  0  0
  149.5386  139.7352  155.4784 C   0  0  0  0  0  0  0  0  0  0  0  0
  149.7595  141.2106  155.1070 C   0  0  0  0  0  0  0  0  0  0  0  0
  149.8390  142.0676  156.3069 N   0  3  0  0  0  0  0  0  0  0  0  0
  151.1950  142.1826  156.8777 C   0  0  0  0  0  0  0  0  0  0  0  0
  151.1544  142.8073  158.2845 C   0  0  2  0  0  0  0  0  0  0  0  0
  150.7314  144.3095  158.2777 C   0  0  0  0  0  0  0  0  0  0  0  0
  151.8846  145.0056  159.0369 C   0  0  1  0  0  0  0  0  0  0  0  0
  151.8785  144.5063  160.4663 C   0  0  0  0  0  0  0  0  0  0  0  0
  152.2735  143.2319  160.4428 C   0  0  0  0  0  0  0  0  0  0  0  0
  152.5336  142.8677  158.9956 C   0  0  2  0  0  0  0  0  0  0  0  0
  153.0702  144.2110  158.4832 C   0  0  0  0  0  0  0  0  0  0  0  0
  152.2385  138.8054  159.3365 H   0  0  0  0  0  0  0  0  0  0  0  0
  152.8021  137.5465  158.2407 H   0  0  0  0  0  0  0  0  0  0  0  0
  151.0743  137.8328  158.4407 H   0  0  0  0  0  0  0  0  0  0  0  0
  151.3572  140.1312  157.4125 H   0  0  0  0  0  0  0  0  0  0  0  0
  153.0606  139.8256  157.2111 H   0  0  0  0  0  0  0  0  0  0  0  0
  150.2197  138.0391  153.3098 H   0  0  0  0  0  0  0  0  0  0  0  0
  148.6811  139.3296  154.9398 H   0  0  0  0  0  0  0  0  0  0  0  0
  149.3050  139.6459  156.5396 H   0  0  0  0  0  0  0  0  0  0  0  0
  150.6889  141.3079  154.5445 H   0  0  0  0  0  0  0  0  0  0  0  0
  148.9571  141.5639  154.4582 H   0  0  0  0  0  0  0  0  0  0  0  0
  149.5163  142.9931  156.0631 H   0  0  0  0  0  0  0  0  0  0  0  0
  151.6665  141.1998  156.8997 H   0  0  0  0  0  0  0  0  0  0  0  0
  151.7967  142.8088  156.2177 H   0  0  0  0  0  0  0  0  0  0  0  0
  150.4508  142.2349  158.8925 H   0  0  0  0  0  0  0  0  0  0  0  0
  150.6557  144.6987  157.2612 H   0  0  0  0  0  0  0  0  0  0  0  0
  149.7677  144.4682  158.7637 H   0  0  0  0  0  0  0  0  0  0  0  0
  151.9532  146.0884  158.9282 H   0  0  0  0  0  0  0  0  0  0  0  0
  151.5758  145.0904  161.3228 H   0  0  0  0  0  0  0  0  0  0  0  0
  152.3601  142.5510  161.2767 H   0  0  0  0  0  0  0  0  0  0  0  0
  153.1967  142.0132  158.8584 H   0  0  0  0  0  0  0  0  0  0  0  0
  153.1752  144.2722  157.3989 H   0  0  0  0  0  0  0  0  0  0  0  0
  154.0211  144.4918  158.9410 H   0  0  0  0  0  0  0  0  0  0  0  0
  149.2261  141.6874  157.0141 H   0  0  0  0  0  0  0  0  0  0  0  0
  1  2  1  0  0  0  0
  1 19  1  0  0  0  0
  1 20  1  0  0  0  0
  1 21  1  0  0  0  0
  2  3  1  0  0  0  0
  2 22  1  0  0  0  0
  2 23  1  0  0  0  0
  3  7  1  0  0  0  0
  3  4  2  0  0  0  0
  4  5  1  0  0  0  0
  5  6  2  0  0  0  0
  6  7  1  0  0  0  0
  6 24  1  0  0  0  0
  7  8  1  0  0  0  0
  8  9  1  0  0  0  0
  8 25  1  0  0  0  0
  8 26  1  0  0  0  0
  9 10  1  0  0  0  0
  9 27  1  0  0  0  0
  9 28  1  0  0  0  0
 10 11  1  0  0  0  0
 10 29  1  0  0  0  0
 10 41  1  0  0  0  0
 11 12  1  0  0  0  0
 11 30  1  0  0  0  0
 11 31  1  0  0  0  0
 12 17  1  0  0  0  0
 12 13  1  0  0  0  0
 12 32  1  0  0  0  0
 13 14  1  0  0  0  0
 13 33  1  0  0  0  0
 13 34  1  0  0  0  0
 14 18  1  0  0  0  0
 14 15  1  0  0  0  0
 14 35  1  0  0  0  0
 15 16  2  0  0  0  0
 15 36  1  0  0  0  0
 16 17  1  0  0  0  0
 16 37  1  0  0  0  0
 17 18  1  0  0  0  0
 17 38  1  0  0  0  0
 18 39  1  0  0  0  0
 18 40  1  0  0  0  0
M  CHG  1  10   1
M  END
> <s_m_source_file>
AV-unprocessed.smi

> <i_m_source_file_index>
3226

> <i_lp_mmshare_version>
43012

> <i_f3d_flags>
0

> <s_epik_input>
W0NIM11bQ0gyXWMxbm5bY0hdbjFbQ0gyXVtDSDJdW05IXVtDSDJdW0NASF0oW0NIMl1bQ0BASF0yMylbQ0BASF0oW0NIMl0zKVtDSF09W0NIXTI=

> <s_epik_cmdline>
J2VwaWtfcHl0aG9uJywgJy1waCcsICc3LjAnLCAnLXRuJywgJzgnLCAnLW1hJywgJzIwMCcsICctbWV0YWxfYmluZGluZycsICctaW1hZScsICc8aW5maWxlLm1hZT4nLCAnLW9tYWUnLCAnPG91dGZpbGUubWFlPic=

> <r_lp_tautomer_probability>
1

> <r_epik_Ionization_Penalty>
0.00175008

> <r_epik_Ionization_Penalty_Charging>
0.00173932

> <r_epik_Ionization_Penalty_Neutral>
1.07546e-05

> <r_epik_State_Penalty>
-0

> <r_epik_Charging_Adjusted_Penalty>
0.00173932

> <i_epik_Tot_Q>
1

> <i_epik_Tot_abs_Q>
1

> <r_epik_Metal_State_Penalty>
-0

> <b_epik_Metal_Only>
0

> <s_lp_Force_Field>
OPLS_2005

> <r_lp_Energy>
64.8147

> <b_lp_Chiralities_Consistent>
1

> <s_lp_Variant>
AV-unprocessed.smi:3226-1

> <Gold.Version>
5.8.1

> <Gold.Id.Protein>
6NUR|6NUR_protein|mol2

> <Gold.PLP.Fitness>
51.5673

> <Gold.PLP.PLP>
-42.9206

> <Gold.PLP.part.hbond>
-3.0000

> <Gold.PLP.part.metal>
0.0000

> <Gold.PLP.part.buried>
-5.8323

> <Gold.PLP.part.nonpolar>
-34.8926

> <Gold.PLP.part.repulsive>
0.2659

> <Gold.PLP.ligand.clash>
0.0000

> <Gold.PLP.ligand.torsion>
0.9759

> <Gold.PLP.Chemscore.Hbond>
2.6656

> <Gold.PLP.Chemscore.CHOScore>
0.8566

> <Gold.PLP.Chemscore.Metal>
0.0000

> <Gold.Chemscore.Hbonds>
donor molecule, donor type, donor heavy atom, donor atom, acceptor molecule, acceptor atom, score
      L1  H    10    29       P1  8028  2.00
      P1  H 10752 10765       L1     5  0.67
      L1  C     6    24       P1  7948  0.85
      L1  C     6    24       P1  7949  0.02

> <Gold.PLP.Chemscore.Internal.Correction>
0.0321

> <Gold.Rescore>
     Score         DG    S(hbond)    S(metal)    S(lipo)     H(rot)  DE(clash)    DE(int)     intcor
     17.44     -18.53       1.46        0.00     115.06       2.06       0.10       0.99       ----

> <Gold.Chemscore.Fitness>
17.4383

> <Gold.Chemscore.DG>
-18.5275

> <Gold.Chemscore.ZeroCoef>
-5.4800

> <Gold.Chemscore.Hbond>
1.4565

> <Gold.Chemscore.Metal>
0.0000

> <Gold.Chemscore.Lipo>
115.0649

> <Gold.Chemscore.Internal_Hbond>
0.0000

> <Gold.Chemscore.DEClash>
0.1009

> <Gold.Chemscore.DEInternal>
0.9883

> <Gold.Chemscore.Rot>
2.0623

> <Gold.Chemscore.Internal.Correction>
   9.000000E+99

> <Gold.Chemscore.Hbonds>
donor molecule, donor type, donor heavy atom, donor atom, acceptor molecule, acceptor atom, score
      L1  H    10    29       P1  8028  1.00
      P1  H 10752 10765       L1     5  0.09

> <Gold.Chemscore.Hbond.Weighted>
-4.8646

> <Gold.Chemscore.Metal.Weighted>
-0.0000

> <Gold.Chemscore.Lipo.Weighted>
-13.4626

> <Gold.Chemscore.Internal_Hbond.Weighted>
0.0000

> <Gold.Chemscore.DEClash.Weighted>
0.1009

> <Gold.Chemscore.DEInternal.Weighted>
0.9883

> <Gold.Chemscore.Rot.Weighted>
5.2796

> <Gold.Chemscore.Internal.Correction.Weighted>
   9.000000E+99

> <Gold.Protein.RotatedTorsions>
[ 6907 6896 6895 6894 ] final  126.28 input  -60.11 | X-H torsion
[ 7974 7965 7964 7962 ] final  -26.08 input  175.53 | X-H torsion
[ 8008 7997 7996 7995 ] final   47.47 input   59.86 | X-H torsion
[ 10167 10162 10161 10158 ] final   81.54 input  -65.29 | X-H torsion
[ 10718 10713 10712 10709 ] final   51.22 input   66.30 | X-H torsion
[ 10763 10752 10751 10750 ] final  139.49 input  -60.55 | X-H torsion
[ 11005 11000 10999 10996 ] final   66.41 input  -57.11 | X-H torsion

> <Gold.Protein.ActiveResidues>
 VAL166  LYS551  ARG553  GLY616  TRP617  ASP618  TYR619  PRO620  LYS621  CYS622 
 ASP623  PHE694  ASN695  SER759  ASP760  ASP761  ALA762  ILE779  LEU786  VAL792 
 PHE793  MET794  SER795  GLU796  ALA797  LYS798  CYS799  TRP800  GLU811  SER814 

> <Gold.Protein.RotatedAtoms>
  152.3918  133.6689  159.6243 H   0  0  0  0  0  0  0  0  0  0  0  0  # atno 6907 bound_to 6896
  150.7824  133.8942  159.3331 H   0  0  0  0  0  0  0  0  0  0  0  0  # atno 6908 bound_to 6896
  151.6727  135.0975  160.0252 H   0  0  0  0  0  0  0  0  0  0  0  0  # atno 6909 bound_to 6896
  146.1449  140.4972  142.8636 H   0  0  0  0  0  0  0  0  0  0  0  0  # atno 7974 bound_to 7965
  155.3695  140.3423  155.4243 H   0  0  0  0  0  0  0  0  0  0  0  0  # atno 8008 bound_to 7997
  156.1670  140.1619  156.8548 H   0  0  0  0  0  0  0  0  0  0  0  0  # atno 8009 bound_to 7997
  154.5195  140.0770  156.8127 H   0  0  0  0  0  0  0  0  0  0  0  0  # atno 8010 bound_to 7997
  139.9381  144.6107  150.8278 H   0  0  0  0  0  0  0  0  0  0  0  0  # atno 10167 bound_to 10162
  157.4960  130.8406  149.8258 H   0  0  0  0  0  0  0  0  0  0  0  0  # atno 10718 bound_to 10713
  153.9070  135.3015  155.3448 H   0  0  0  0  0  0  0  0  0  0  0  0  # atno 10763 bound_to 10752
  154.7642  135.4918  153.9526 H   0  0  0  0  0  0  0  0  0  0  0  0  # atno 10764 bound_to 10752
  153.1214  135.6783  153.9431 H   0  0  0  0  0  0  0  0  0  0  0  0  # atno 10765 bound_to 10752
  139.9833  134.6708  156.0222 H   0  0  0  0  0  0  0  0  0  0  0  0  # atno 11005 bound_to 11000
  144.7834  140.5888  143.6590 LP  0  0  0  0  0  0  0  0  0  0  0  0  # atno 17320 bound_to 7965
  145.4961  139.1486  143.3683 LP  0  0  0  0  0  0  0  0  0  0  0  0  # atno 17321 bound_to 7965
  140.7618  143.3184  151.2679 LP  0  0  0  0  0  0  0  0  0  0  0  0  # atno 17342 bound_to 10162
  139.6727  143.9993  152.2762 LP  0  0  0  0  0  0  0  0  0  0  0  0  # atno 17343 bound_to 10162
  156.0200  130.3799  150.1990 LP  0  0  0  0  0  0  0  0  0  0  0  0  # atno 17370 bound_to 10713
  157.0179  130.9970  151.3348 LP  0  0  0  0  0  0  0  0  0  0  0  0  # atno 17371 bound_to 10713
  141.1502  133.6549  156.3990 LP  0  0  0  0  0  0  0  0  0  0  0  0  # atno 17394 bound_to 11000
  140.5052  134.6447  157.5264 LP  0  0  0  0  0  0  0  0  0  0  0  0  # atno 17395 bound_to 11000

$$$$
