AV-unprocessed.smi:703|AV-procd|sdf|3440|dock9
  -GOLD-   22720 0423D 1   1.00000     0.00000
 Structure written by MMmdl.
 37 38  0  0  0  0  0  0  0  0  3 V2000
  145.6167  135.7379  152.2165 C   0  0  0  0  0  0  0  0  0  0  0  0
  145.5917  137.2712  152.2723 C   0  0  0  0  0  0  0  0  0  0  0  0
  146.8468  137.8303  152.8271 N   0  3  1  0  0  0  0  0  0  0  0  0
  146.9628  139.3051  152.7243 C   0  0  0  0  0  0  0  0  0  0  0  0
  147.4447  139.8013  154.0981 C   0  0  2  0  0  0  0  0  0  0  0  0
  148.2894  141.0922  154.0611 C   0  0  0  0  0  0  0  0  0  0  0  0
  148.0644  138.5578  154.7640 C   0  0  2  0  0  0  0  0  0  0  0  0
  149.4343  138.3406  154.3049 N   0  5  0  0  0  0  0  0  0  0  0  0
  150.5038  137.6050  155.2781 S   0  0  0  0  0  0  0  0  0  0  0  0
  150.0830  137.6121  156.6886 O   0  0  0  0  0  0  0  0  0  0  0  0
  150.9757  136.3233  154.7298 O   0  0  0  0  0  0  0  0  0  0  0  0
  151.9297  138.7681  155.1640 C   0  0  0  0  0  0  0  0  0  0  0  0
  151.7017  139.9480  156.0664 C   0  0  0  0  0  0  0  0  0  0  0  0
  150.7870  141.0250  155.9020 C   0  0  0  0  0  0  0  0  0  0  0  0
  151.0014  141.7978  157.0064 C   0  0  0  0  0  0  0  0  0  0  0  0
  151.9713  141.2553  157.7847 O   0  0  0  0  0  0  0  0  0  0  0  0
  152.4150  140.0764  157.1747 N   0  0  0  0  0  0  0  0  0  0  0  0
  147.1404  137.4560  154.2297 C   0  0  0  0  0  0  0  0  0  0  0  0
  144.7105  135.3546  151.7473 H   0  0  0  0  0  0  0  0  0  0  0  0
  145.6789  135.2999  153.2130 H   0  0  0  0  0  0  0  0  0  0  0  0
  146.4677  135.3782  151.6371 H   0  0  0  0  0  0  0  0  0  0  0  0
  145.4572  137.6549  151.2601 H   0  0  0  0  0  0  0  0  0  0  0  0
  144.7385  137.6185  152.8570 H   0  0  0  0  0  0  0  0  0  0  0  0
  147.6798  139.5408  151.9354 H   0  0  0  0  0  0  0  0  0  0  0  0
  146.0163  139.7773  152.4561 H   0  0  0  0  0  0  0  0  0  0  0  0
  146.5489  140.0359  154.6757 H   0  0  0  0  0  0  0  0  0  0  0  0
  149.1896  140.9825  153.4541 H   0  0  0  0  0  0  0  0  0  0  0  0
  148.5951  141.4060  155.0606 H   0  0  0  0  0  0  0  0  0  0  0  0
  147.7122  141.9109  153.6303 H   0  0  0  0  0  0  0  0  0  0  0  0
  148.0010  138.6327  155.8496 H   0  0  0  0  0  0  0  0  0  0  0  0
  152.8356  138.2275  155.4390 H   0  0  0  0  0  0  0  0  0  0  0  0
  152.0329  139.0838  154.1262 H   0  0  0  0  0  0  0  0  0  0  0  0
  150.0801  141.1965  155.1037 H   0  0  0  0  0  0  0  0  0  0  0  0
  150.5663  142.7194  157.3630 H   0  0  0  0  0  0  0  0  0  0  0  0
  146.2140  137.4582  154.8064 H   0  0  0  0  0  0  0  0  0  0  0  0
  147.5605  136.4532  154.3009 H   0  0  0  0  0  0  0  0  0  0  0  0
  147.6104  137.4616  152.2781 H   0  0  0  0  0  0  0  0  0  0  0  0
  1  2  1  0  0  0  0
  1 19  1  0  0  0  0
  1 20  1  0  0  0  0
  1 21  1  0  0  0  0
  2  3  1  0  0  0  0
  2 22  1  0  0  0  0
  2 23  1  0  0  0  0
  3 18  1  0  0  0  0
  3  4  1  0  0  0  0
  3 37  1  0  0  0  0
  4  5  1  0  0  0  0
  4 24  1  0  0  0  0
  4 25  1  0  0  0  0
  5  6  1  0  0  0  0
  5  7  1  0  0  0  0
  5 26  1  0  0  0  0
  6 27  1  0  0  0  0
  6 28  1  0  0  0  0
  6 29  1  0  0  0  0
  7  8  1  0  0  0  0
  7 18  1  0  0  0  0
  7 30  1  0  0  0  0
  8  9  1  0  0  0  0
  9 10  2  0  0  0  0
  9 11  2  0  0  0  0
  9 12  1  0  0  0  0
 12 13  1  0  0  0  0
 12 31  1  0  0  0  0
 12 32  1  0  0  0  0
 13 17  2  0  0  0  0
 13 14  1  0  0  0  0
 14 15  2  0  0  0  0
 14 33  1  0  0  0  0
 15 16  1  0  0  0  0
 15 34  1  0  0  0  0
 16 17  1  0  0  0  0
 18 35  1  0  0  0  0
 18 36  1  0  0  0  0
M  CHG  1   3   1
M  CHG  1   8  -1
M  END
> <s_m_source_file>
AV-unprocessed.smi

> <i_m_source_file_index>
703

> <i_lp_mmshare_version>
43012

> <i_f3d_flags>
0

> <s_epik_input>
W0NIM11bQ0gyXU4xW0NIMl1bQ0BASF0oW0NIM10pW0NASF0oW0NIMl0xKVtOSF1TKD1PKSg9TylbQ0gyXWMyW2NIXVtjSF1vbjI=

> <s_epik_cmdline>
J2VwaWtfcHl0aG9uJywgJy1waCcsICc3LjAnLCAnLXRuJywgJzgnLCAnLW1hJywgJzIwMCcsICctbWV0YWxfYmluZGluZycsICctaW1hZScsICc8aW5maWxlLm1hZT4nLCAnLW9tYWUnLCAnPG91dGZpbGUubWFlPic=

> <r_epik_Ionization_Penalty>
3.62494

> <r_epik_Ionization_Penalty_Charging>
3.62494

> <r_epik_Ionization_Penalty_Neutral>
2.0321e-10

> <r_epik_State_Penalty>
3.62558

> <r_epik_Charging_Adjusted_Penalty>
7.25052

> <i_epik_Tot_Q>
0

> <i_epik_Tot_abs_Q>
2

> <r_epik_Metal_State_Penalty>
0.530836

> <b_epik_Metal_Only>
1

> <s_lp_Force_Field>
OPLS_2005

> <r_lp_Energy>
16.9152

> <b_lp_Chiralities_Consistent>
1

> <s_lp_Variant>
AV-unprocessed.smi:703-15

> <Gold.Version>
5.8.1

> <Gold.Id.Protein>
6NUR|6NUR_protein|mol2

> <Gold.PLP.Fitness>
36.8268

> <Gold.PLP.PLP>
-26.7012

> <Gold.PLP.part.hbond>
-3.0000

> <Gold.PLP.part.metal>
0.0000

> <Gold.PLP.part.buried>
-1.9554

> <Gold.PLP.part.nonpolar>
-23.2313

> <Gold.PLP.part.repulsive>
0.8325

> <Gold.PLP.ligand.clash>
0.0000

> <Gold.PLP.ligand.torsion>
1.4653

> <Gold.PLP.Chemscore.Hbond>
4.0000

> <Gold.PLP.Chemscore.CHOScore>
0.0000

> <Gold.PLP.Chemscore.Metal>
0.0000

> <Gold.Chemscore.Hbonds>
donor molecule, donor type, donor heavy atom, donor atom, acceptor molecule, acceptor atom, score
      L1  H     3    37       P1  7948  2.00
      P1  H  7997  8008       L1    17  0.99
      P1  H 10752 10763       L1    11  0.84

> <Gold.PLP.Chemscore.Internal.Correction>
1.0563

> <Gold.Rescore>
     Score         DG    S(hbond)    S(metal)    S(lipo)     H(rot)  DE(clash)    DE(int)     intcor
     16.24     -18.22       2.79        0.00      65.02       1.63       0.53       1.45       ----

> <Gold.Chemscore.Fitness>
16.2436

> <Gold.Chemscore.DG>
-18.2172

> <Gold.Chemscore.ZeroCoef>
-5.4800

> <Gold.Chemscore.Hbond>
2.7881

> <Gold.Chemscore.Metal>
0.0000

> <Gold.Chemscore.Lipo>
65.0225

> <Gold.Chemscore.Internal_Hbond>
0.0000

> <Gold.Chemscore.DEClash>
0.5264

> <Gold.Chemscore.DEInternal>
1.4472

> <Gold.Chemscore.Rot>
1.6338

> <Gold.Chemscore.Internal.Correction>
   9.000000E+99

> <Gold.Chemscore.Hbonds>
donor molecule, donor type, donor heavy atom, donor atom, acceptor molecule, acceptor atom, score
      L1  H     3    37       P1  7948  0.98
      P1  H  7997  8008       L1    17  0.41
      P1  H 10752 10763       L1    11  0.82

> <Gold.Chemscore.Hbond.Weighted>
-9.3121

> <Gold.Chemscore.Metal.Weighted>
-0.0000

> <Gold.Chemscore.Lipo.Weighted>
-7.6076

> <Gold.Chemscore.Internal_Hbond.Weighted>
0.0000

> <Gold.Chemscore.DEClash.Weighted>
0.5264

> <Gold.Chemscore.DEInternal.Weighted>
1.4472

> <Gold.Chemscore.Rot.Weighted>
4.1825

> <Gold.Chemscore.Internal.Correction.Weighted>
   9.000000E+99

> <Gold.Protein.RotatedTorsions>
[ 6907 6896 6895 6894 ] final  123.99 input  -60.11 | X-H torsion
[ 7974 7965 7964 7962 ] final  143.48 input  175.53 | X-H torsion
[ 8008 7997 7996 7995 ] final  -55.27 input   59.86 | X-H torsion
[ 10167 10162 10161 10158 ] final  133.66 input  -65.29 | X-H torsion
[ 10718 10713 10712 10709 ] final  -86.03 input   66.30 | X-H torsion
[ 10763 10752 10751 10750 ] final   46.12 input  -60.55 | X-H torsion
[ 11005 11000 10999 10996 ] final -144.59 input  -57.11 | X-H torsion

> <Gold.Protein.ActiveResidues>
 VAL166  LYS551  ARG553  GLY616  TRP617  ASP618  TYR619  PRO620  LYS621  CYS622 
 ASP623  PHE694  ASN695  SER759  ASP760  ASP761  ALA762  ILE779  LEU786  VAL792 
 PHE793  MET794  SER795  GLU796  ALA797  LYS798  CYS799  TRP800  GLU811  SER814 

> <Gold.Protein.RotatedAtoms>
  152.4116  133.6972  159.6402 H   0  0  0  0  0  0  0  0  0  0  0  0  # atno 6907 bound_to 6896
  150.7996  133.8614  159.3241 H   0  0  0  0  0  0  0  0  0  0  0  0  # atno 6908 bound_to 6896
  151.6355  135.1020  160.0182 H   0  0  0  0  0  0  0  0  0  0  0  0  # atno 6909 bound_to 6896
  144.8917  139.5549  143.5795 H   0  0  0  0  0  0  0  0  0  0  0  0  # atno 7974 bound_to 7965
  154.4189  140.1157  156.5449 H   0  0  0  0  0  0  0  0  0  0  0  0  # atno 8008 bound_to 7997
  155.6470  140.3496  155.4715 H   0  0  0  0  0  0  0  0  0  0  0  0  # atno 8009 bound_to 7997
  155.9824  140.1163  157.0704 H   0  0  0  0  0  0  0  0  0  0  0  0  # atno 8010 bound_to 7997
  139.5288  144.6605  151.5027 H   0  0  0  0  0  0  0  0  0  0  0  0  # atno 10167 bound_to 10162
  155.9992  130.4751  150.4652 H   0  0  0  0  0  0  0  0  0  0  0  0  # atno 10718 bound_to 10713
  152.9815  135.6018  154.3548 H   0  0  0  0  0  0  0  0  0  0  0  0  # atno 10763 bound_to 10752
  154.3235  135.2769  155.2509 H   0  0  0  0  0  0  0  0  0  0  0  0  # atno 10764 bound_to 10752
  154.4665  135.5952  153.6348 H   0  0  0  0  0  0  0  0  0  0  0  0  # atno 10765 bound_to 10752
  140.8008  134.2859  157.4979 H   0  0  0  0  0  0  0  0  0  0  0  0  # atno 11005 bound_to 11000
  146.3058  139.7574  142.9057 LP  0  0  0  0  0  0  0  0  0  0  0  0  # atno 17320 bound_to 7965
  145.3771  141.0352  143.3198 LP  0  0  0  0  0  0  0  0  0  0  0  0  # atno 17321 bound_to 7965
  140.6451  143.8810  150.6729 LP  0  0  0  0  0  0  0  0  0  0  0  0  # atno 17342 bound_to 10162
  140.2157  143.3848  152.1683 LP  0  0  0  0  0  0  0  0  0  0  0  0  # atno 17343 bound_to 10162
  157.2673  131.0579  151.2282 LP  0  0  0  0  0  0  0  0  0  0  0  0  # atno 17370 bound_to 10713
  157.3376  130.7016  149.6362 LP  0  0  0  0  0  0  0  0  0  0  0  0  # atno 17371 bound_to 10713
  139.8722  134.9428  156.3836 LP  0  0  0  0  0  0  0  0  0  0  0  0  # atno 17394 bound_to 11000
  140.9296  133.7588  156.0008 LP  0  0  0  0  0  0  0  0  0  0  0  0  # atno 17395 bound_to 11000

$$$$
