AV-unprocessed.smi:516|AV-procd|sdf|2785|dock4
  -GOLD-   2262023263D 1   1.00000     0.00000
 Structure written by MMmdl.
 45 47  0  0  0  0  0  0  0  0  2 V2000
  149.5418  140.0792  154.5409 C   0  0  0  0  0  0  0  0  0  0  0  0
  150.8372  139.5292  154.3832 O   0  0  0  0  0  0  0  0  0  0  0  0
  151.7260  139.9184  155.4174 C   0  0  0  0  0  0  0  0  0  0  0  0
  151.3221  139.2395  156.7343 C   0  0  0  0  0  0  0  0  0  0  0  0
  151.7433  140.0094  157.9004 N   0  0  0  0  0  0  0  0  0  0  0  0
  151.3030  141.2359  158.2892 C   0  0  0  0  0  0  0  0  0  0  0  0
  150.2647  142.0242  157.5415 C   0  0  0  0  0  0  0  0  0  0  0  0
  150.5673  143.4436  157.8558 N   0  3  0  0  0  0  0  0  0  0  0  0
  150.1381  143.8194  159.2234 C   0  0  0  0  0  0  0  0  0  0  0  0
  150.4115  145.3104  159.4839 C   0  0  0  0  0  0  0  0  0  0  0  0
  151.7924  145.5838  159.2831 O   0  0  0  0  0  0  0  0  0  0  0  0
  152.1990  145.3126  157.9477 C   0  0  0  0  0  0  0  0  0  0  0  0
  151.9865  143.8219  157.6351 C   0  0  0  0  0  0  0  0  0  0  0  0
  151.8817  141.6982  159.4032 N   0  0  0  0  0  0  0  0  0  0  0  0
  152.7631  140.6848  159.7469 C   0  0  0  0  0  0  0  0  0  0  0  0
  152.6951  139.6617  158.8597 C   0  0  0  0  0  0  0  0  0  0  0  0
  153.5305  138.4591  158.9817 C   0  0  0  0  0  0  0  0  0  0  0  0
  153.4929  137.5221  158.1876 O   0  0  0  0  0  0  0  0  0  0  0  0
  154.3480  138.4890  160.0621 N   0  0  0  0  0  0  0  0  0  0  0  0
  154.4634  139.4856  160.9927 C   0  0  0  0  0  0  0  0  0  0  0  0
  155.2579  139.3608  161.9238 O   0  0  0  0  0  0  0  0  0  0  0  0
  153.6714  140.5965  160.8372 N   0  0  0  0  0  0  0  0  0  0  0  0
  153.7266  141.7247  161.7690 C   0  0  0  0  0  0  0  0  0  0  0  0
  154.9423  137.6837  160.1954 H   0  0  0  0  0  0  0  0  0  0  0  0
  148.9002  139.7442  153.7260 H   0  0  0  0  0  0  0  0  0  0  0  0
  149.5711  141.1693  154.5201 H   0  0  0  0  0  0  0  0  0  0  0  0
  149.0887  139.7582  155.4799 H   0  0  0  0  0  0  0  0  0  0  0  0
  152.7468  139.6403  155.1510 H   0  0  0  0  0  0  0  0  0  0  0  0
  151.7054  141.0022  155.5400 H   0  0  0  0  0  0  0  0  0  0  0  0
  150.2430  139.0939  156.7685 H   0  0  0  0  0  0  0  0  0  0  0  0
  151.7437  138.2374  156.7884 H   0  0  0  0  0  0  0  0  0  0  0  0
  150.3880  141.8279  156.4758 H   0  0  0  0  0  0  0  0  0  0  0  0
  149.2446  141.7534  157.8112 H   0  0  0  0  0  0  0  0  0  0  0  0
  149.0737  143.6156  159.3461 H   0  0  0  0  0  0  0  0  0  0  0  0
  150.6693  143.2079  159.9547 H   0  0  0  0  0  0  0  0  0  0  0  0
  149.8043  145.9387  158.8304 H   0  0  0  0  0  0  0  0  0  0  0  0
  150.1458  145.5677  160.5092 H   0  0  0  0  0  0  0  0  0  0  0  0
  151.6428  145.9400  157.2492 H   0  0  0  0  0  0  0  0  0  0  0  0
  153.2522  145.5725  157.8401 H   0  0  0  0  0  0  0  0  0  0  0  0
  152.6310  143.2125  158.2704 H   0  0  0  0  0  0  0  0  0  0  0  0
  152.2794  143.6284  156.6033 H   0  0  0  0  0  0  0  0  0  0  0  0
  154.4617  141.6084  162.5659 H   0  0  0  0  0  0  0  0  0  0  0  0
  152.7533  141.8664  162.2397 H   0  0  0  0  0  0  0  0  0  0  0  0
  153.9751  142.6397  161.2302 H   0  0  0  0  0  0  0  0  0  0  0  0
  150.0107  143.9990  157.2210 H   0  0  0  0  0  0  0  0  0  0  0  0
  1  2  1  0  0  0  0
  1 25  1  0  0  0  0
  1 26  1  0  0  0  0
  1 27  1  0  0  0  0
  2  3  1  0  0  0  0
  3  4  1  0  0  0  0
  3 28  1  0  0  0  0
  3 29  1  0  0  0  0
  4  5  1  0  0  0  0
  4 30  1  0  0  0  0
  4 31  1  0  0  0  0
  5 16  1  0  0  0  0
  5  6  1  0  0  0  0
  6  7  1  0  0  0  0
  6 14  2  0  0  0  0
  7  8  1  0  0  0  0
  7 32  1  0  0  0  0
  7 33  1  0  0  0  0
  8 13  1  0  0  0  0
  8  9  1  0  0  0  0
  8 45  1  0  0  0  0
  9 10  1  0  0  0  0
  9 34  1  0  0  0  0
  9 35  1  0  0  0  0
 10 11  1  0  0  0  0
 10 36  1  0  0  0  0
 10 37  1  0  0  0  0
 11 12  1  0  0  0  0
 12 13  1  0  0  0  0
 12 38  1  0  0  0  0
 12 39  1  0  0  0  0
 13 40  1  0  0  0  0
 13 41  1  0  0  0  0
 14 15  1  0  0  0  0
 15 22  1  0  0  0  0
 15 16  2  0  0  0  0
 16 17  1  0  0  0  0
 17 18  2  0  0  0  0
 17 19  1  0  0  0  0
 19 24  1  0  0  0  0
 19 20  1  0  0  0  0
 20 21  2  0  0  0  0
 20 22  1  0  0  0  0
 22 23  1  0  0  0  0
 23 42  1  0  0  0  0
 23 43  1  0  0  0  0
 23 44  1  0  0  0  0
M  CHG  1   8   1
M  END
> <s_m_source_file>
AV-unprocessed.smi

> <i_m_source_file_index>
516

> <i_lp_mmshare_version>
43012

> <i_f3d_flags>
0

> <s_epik_input>
W0NIM11uMWMoPU8pW25IXWMoPU8pYyhjMTIpbihbQ0gyXVtDSDJdT1tDSDNdKWMobjIpW0NIMl1OM1tDSDJdW0NIMl1PW0NIMl1bQ0gyXTM=

> <s_epik_cmdline>
J2VwaWtfcHl0aG9uJywgJy1waCcsICc3LjAnLCAnLXRuJywgJzgnLCAnLW1hJywgJzIwMCcsICctbWV0YWxfYmluZGluZycsICctaW1hZScsICc8aW5maWxlLm1hZT4nLCAnLW9tYWUnLCAnPG91dGZpbGUubWFlPic=

> <r_epik_Ionization_Penalty>
1.12077

> <r_epik_Ionization_Penalty_Charging>
1.12077

> <r_epik_Ionization_Penalty_Neutral>
4.43299e-09

> <r_epik_State_Penalty>
1.17893

> <r_epik_Charging_Adjusted_Penalty>
2.29969

> <i_epik_Tot_Q>
1

> <i_epik_Tot_abs_Q>
1

> <r_epik_Metal_State_Penalty>
1.32838

> <b_epik_Metal_Only>
0

> <s_lp_Force_Field>
OPLS_2005

> <r_lp_Energy>
36.1073

> <b_lp_Chiralities_Consistent>
1

> <s_lp_Variant>
AV-unprocessed.smi:516-2

> <Gold.Version>
5.8.1

> <Gold.Id.Protein>
6NUR|6NUR_protein|mol2

> <Gold.PLP.Fitness>
43.4326

> <Gold.PLP.PLP>
-38.2567

> <Gold.PLP.part.hbond>
-2.7252

> <Gold.PLP.part.metal>
0.0000

> <Gold.PLP.part.buried>
-6.5292

> <Gold.PLP.part.nonpolar>
-29.9410

> <Gold.PLP.part.repulsive>
0.3078

> <Gold.PLP.ligand.clash>
0.0000

> <Gold.PLP.ligand.torsion>
0.6664

> <Gold.PLP.Chemscore.Hbond>
2.1500

> <Gold.PLP.Chemscore.CHOScore>
0.0000

> <Gold.PLP.Chemscore.Metal>
0.0000

> <Gold.Chemscore.Hbonds>
donor molecule, donor type, donor heavy atom, donor atom, acceptor molecule, acceptor atom, score
      L1  H     8    45       P1  8028  1.98
      P1  H  7989  7998       L1     2  0.15

> <Gold.PLP.Chemscore.Internal.Correction>
0.0588

> <Gold.Rescore>
     Score         DG    S(hbond)    S(metal)    S(lipo)     H(rot)  DE(clash)    DE(int)     intcor
      7.42     -12.45       0.93        0.00      79.24       2.11       1.55       3.48       ----

> <Gold.Chemscore.Fitness>
7.4213

> <Gold.Chemscore.DG>
-12.4498

> <Gold.Chemscore.ZeroCoef>
-5.4800

> <Gold.Chemscore.Hbond>
0.9259

> <Gold.Chemscore.Metal>
0.0000

> <Gold.Chemscore.Lipo>
79.2368

> <Gold.Chemscore.Internal_Hbond>
0.0000

> <Gold.Chemscore.DEClash>
1.5530

> <Gold.Chemscore.DEInternal>
3.4754

> <Gold.Chemscore.Rot>
2.1069

> <Gold.Chemscore.Internal.Correction>
   9.000000E+99

> <Gold.Chemscore.Hbonds>
donor molecule, donor type, donor heavy atom, donor atom, acceptor molecule, acceptor atom, score
      L1  H     8    45       P1  8028  0.76

> <Gold.Chemscore.Hbond.Weighted>
-3.0926

> <Gold.Chemscore.Metal.Weighted>
-0.0000

> <Gold.Chemscore.Lipo.Weighted>
-9.2707

> <Gold.Chemscore.Internal_Hbond.Weighted>
0.0000

> <Gold.Chemscore.DEClash.Weighted>
1.5530

> <Gold.Chemscore.DEInternal.Weighted>
3.4754

> <Gold.Chemscore.Rot.Weighted>
5.3936

> <Gold.Chemscore.Internal.Correction.Weighted>
   9.000000E+99

> <Gold.Protein.RotatedTorsions>
[ 6907 6896 6895 6894 ] final  -49.74 input  -60.11 | X-H torsion
[ 7974 7965 7964 7962 ] final  -50.01 input  175.53 | X-H torsion
[ 8008 7997 7996 7995 ] final   66.15 input   59.86 | X-H torsion
[ 10167 10162 10161 10158 ] final  -90.76 input  -65.29 | X-H torsion
[ 10718 10713 10712 10709 ] final -146.35 input   66.30 | X-H torsion
[ 10763 10752 10751 10750 ] final  -53.77 input  -60.55 | X-H torsion
[ 11005 11000 10999 10996 ] final  -14.79 input  -57.11 | X-H torsion

> <Gold.Protein.ActiveResidues>
 VAL166  LYS551  ARG553  GLY616  TRP617  ASP618  TYR619  PRO620  LYS621  CYS622 
 ASP623  PHE694  ASN695  SER759  ASP760  ASP761  ALA762  ILE779  LEU786  VAL792 
 PHE793  MET794  SER795  GLU796  ALA797  LYS798  CYS799  TRP800  GLU811  SER814 

> <Gold.Protein.RotatedAtoms>
  150.8775  134.8161  159.7200 H   0  0  0  0  0  0  0  0  0  0  0  0  # atno 6907 bound_to 6896
  152.4756  134.4848  159.9687 H   0  0  0  0  0  0  0  0  0  0  0  0  # atno 6908 bound_to 6896
  151.4928  133.3482  159.2891 H   0  0  0  0  0  0  0  0  0  0  0  0  # atno 6909 bound_to 6896
  145.9344  140.7720  142.9583 H   0  0  0  0  0  0  0  0  0  0  0  0  # atno 7974 bound_to 7965
  155.6728  140.3497  155.4825 H   0  0  0  0  0  0  0  0  0  0  0  0  # atno 8008 bound_to 7997
  155.9673  140.1149  157.0866 H   0  0  0  0  0  0  0  0  0  0  0  0  # atno 8009 bound_to 7997
  154.4157  140.1164  156.5246 H   0  0  0  0  0  0  0  0  0  0  0  0  # atno 8010 bound_to 7997
  140.3517  143.2888  151.9718 H   0  0  0  0  0  0  0  0  0  0  0  0  # atno 10167 bound_to 10162
  156.3938  130.7899  151.2104 H   0  0  0  0  0  0  0  0  0  0  0  0  # atno 10718 bound_to 10713
  154.1642  135.6470  153.4993 H   0  0  0  0  0  0  0  0  0  0  0  0  # atno 10763 bound_to 10752
  153.0102  135.5368  154.6680 H   0  0  0  0  0  0  0  0  0  0  0  0  # atno 10764 bound_to 10752
  154.6001  135.2943  155.0516 H   0  0  0  0  0  0  0  0  0  0  0  0  # atno 10765 bound_to 10752
  140.7900  133.8295  155.9371 H   0  0  0  0  0  0  0  0  0  0  0  0  # atno 11005 bound_to 11000
  144.6769  140.2179  143.7370 LP  0  0  0  0  0  0  0  0  0  0  0  0  # atno 17320 bound_to 7965
  145.8383  139.2118  143.1842 LP  0  0  0  0  0  0  0  0  0  0  0  0  # atno 17321 bound_to 7965
  139.4825  144.6070  151.7503 LP  0  0  0  0  0  0  0  0  0  0  0  0  # atno 17342 bound_to 10162
  140.5213  144.0875  150.6023 LP  0  0  0  0  0  0  0  0  0  0  0  0  # atno 17343 bound_to 10162
  157.7500  131.0307  150.4151 LP  0  0  0  0  0  0  0  0  0  0  0  0  # atno 17370 bound_to 10713
  156.4417  130.3993  149.6693 LP  0  0  0  0  0  0  0  0  0  0  0  0  # atno 17371 bound_to 10713
  140.9399  134.1914  157.4805 LP  0  0  0  0  0  0  0  0  0  0  0  0  # atno 17394 bound_to 11000
  139.8732  134.9867  156.5337 LP  0  0  0  0  0  0  0  0  0  0  0  0  # atno 17395 bound_to 11000

$$$$
