AV-unprocessed.smi:2293|AV-procd|sdf|9215|dock7
  -GOLD-   2272012433D 1   1.00000     0.00000
 Structure written by MMmdl.
 34 35  0  0  0  0  0  0  0  0  1 V2000
  152.0721  144.9748  160.0881 C   0  0  0  0  0  0  0  0  0  0  0  0
  151.8017  143.7075  159.2966 C   0  0  0  0  0  0  0  0  0  0  0  0
  150.8110  143.8084  158.3159 N   0  0  0  0  0  0  0  0  0  0  0  0
  150.5141  142.7794  157.5918 C   0  0  0  0  0  0  0  0  0  0  0  0
  151.1618  141.5441  157.7619 N   0  0  0  0  0  0  0  0  0  0  0  0
  150.7340  140.4537  156.8681 C   0  0  0  0  0  0  0  0  0  0  0  0
  150.6973  140.8886  155.3852 C   0  0  1  0  0  0  0  0  0  0  0  0
  151.6702  140.1571  154.6663 O   0  0  0  0  0  0  0  0  0  0  0  0
  149.3117  140.6848  154.7916 C   0  0  0  0  0  0  0  0  0  0  0  0
  148.8884  139.4019  154.3784 C   0  0  0  0  0  0  0  0  0  0  0  0
  147.6021  139.2192  153.8345 C   0  0  0  0  0  0  0  0  0  0  0  0
  146.7305  140.3171  153.7027 C   0  0  0  0  0  0  0  0  0  0  0  0
  147.1449  141.5973  154.1173 C   0  0  0  0  0  0  0  0  0  0  0  0
  146.3061  142.6530  153.9939 F   0  0  0  0  0  0  0  0  0  0  0  0
  148.4313  141.7806  154.6610 C   0  0  0  0  0  0  0  0  0  0  0  0
  152.1398  141.3597  158.6952 C   0  0  0  0  0  0  0  0  0  0  0  0
  152.7040  140.2734  158.8381 O   0  0  0  0  0  0  0  0  0  0  0  0
  152.4688  142.5405  159.5103 C   0  0  0  0  0  0  0  0  0  0  0  0
  153.5575  142.3726  160.5630 C   0  0  0  0  0  0  0  0  0  0  0  0
  153.1061  145.2940  159.9562 H   0  0  0  0  0  0  0  0  0  0  0  0
  151.8903  144.8082  161.1500 H   0  0  0  0  0  0  0  0  0  0  0  0
  151.4265  145.7917  159.7631 H   0  0  0  0  0  0  0  0  0  0  0  0
  149.7538  142.8064  156.8092 H   0  0  0  0  0  0  0  0  0  0  0  0
  151.3439  139.5568  156.9920 H   0  0  0  0  0  0  0  0  0  0  0  0
  149.7331  140.1373  157.1696 H   0  0  0  0  0  0  0  0  0  0  0  0
  150.9532  141.9457  155.3005 H   0  0  0  0  0  0  0  0  0  0  0  0
  151.9674  139.4409  155.2066 H   0  0  0  0  0  0  0  0  0  0  0  0
  149.5494  138.5533  154.4793 H   0  0  0  0  0  0  0  0  0  0  0  0
  147.2839  138.2363  153.5194 H   0  0  0  0  0  0  0  0  0  0  0  0
  145.7442  140.1771  153.2852 H   0  0  0  0  0  0  0  0  0  0  0  0
  148.7384  142.7667  154.9775 H   0  0  0  0  0  0  0  0  0  0  0  0
  153.2674  141.6081  161.2845 H   0  0  0  0  0  0  0  0  0  0  0  0
  153.7633  143.2860  161.1181 H   0  0  0  0  0  0  0  0  0  0  0  0
  154.4901  142.0587  160.0930 H   0  0  0  0  0  0  0  0  0  0  0  0
  1  2  1  0  0  0  0
  1 20  1  0  0  0  0
  1 21  1  0  0  0  0
  1 22  1  0  0  0  0
  2 18  2  0  0  0  0
  2  3  1  0  0  0  0
  3  4  2  0  0  0  0
  4  5  1  0  0  0  0
  4 23  1  0  0  0  0
  5  6  1  0  0  0  0
  5 16  1  0  0  0  0
  6  7  1  0  0  0  0
  6 24  1  0  0  0  0
  6 25  1  0  0  0  0
  7  8  1  0  0  0  0
  7  9  1  0  0  0  0
  7 26  1  0  0  0  0
  8 27  1  0  0  0  0
  9 15  1  0  0  0  0
  9 10  2  0  0  0  0
 10 11  1  0  0  0  0
 10 28  1  0  0  0  0
 11 12  2  0  0  0  0
 11 29  1  0  0  0  0
 12 13  1  0  0  0  0
 12 30  1  0  0  0  0
 13 14  1  0  0  0  0
 13 15  2  0  0  0  0
 15 31  1  0  0  0  0
 16 17  2  0  0  0  0
 16 18  1  0  0  0  0
 18 19  1  0  0  0  0
 19 32  1  0  0  0  0
 19 33  1  0  0  0  0
 19 34  1  0  0  0  0
M  END
> <s_m_source_file>
AV-unprocessed.smi

> <i_m_source_file_index>
2293

> <i_lp_mmshare_version>
43012

> <i_f3d_flags>
0

> <s_epik_input>
W0NIM11jMW5bY0hdbihjKD1PKWMxW0NIM10pW0NIMl1bQ0BIXShbT0hdKWMyW2NIXVtjSF1bY0hdYyhGKVtjSF0y

> <s_epik_cmdline>
J2VwaWtfcHl0aG9uJywgJy1waCcsICc3LjAnLCAnLXRuJywgJzgnLCAnLW1hJywgJzIwMCcsICctbWV0YWxfYmluZGluZycsICctaW1hZScsICc8aW5maWxlLm1hZT4nLCAnLW9tYWUnLCAnPG91dGZpbGUubWFlPic=

> <r_lp_tautomer_probability>
1

> <r_epik_Ionization_Penalty>
5.08222e-05

> <r_epik_Ionization_Penalty_Charging>
7.56727e-08

> <r_epik_Ionization_Penalty_Neutral>
5.07465e-05

> <r_epik_State_Penalty>
-0

> <r_epik_Charging_Adjusted_Penalty>
7.56727e-08

> <i_epik_Tot_Q>
0

> <i_epik_Tot_abs_Q>
0

> <r_epik_Metal_State_Penalty>
-0

> <b_epik_Metal_Only>
0

> <s_lp_Force_Field>
OPLS_2005

> <r_lp_Energy>
19.6901

> <b_lp_Chiralities_Consistent>
1

> <s_lp_Variant>
AV-unprocessed.smi:2293-2

> <Gold.Version>
5.8.1

> <Gold.Id.Protein>
6NUR|6NUR_protein|mol2

> <Gold.PLP.Fitness>
45.4251

> <Gold.PLP.PLP>
-43.2354

> <Gold.PLP.part.hbond>
-1.0000

> <Gold.PLP.part.metal>
0.0000

> <Gold.PLP.part.buried>
-4.9231

> <Gold.PLP.part.nonpolar>
-38.6260

> <Gold.PLP.part.repulsive>
0.1515

> <Gold.PLP.ligand.clash>
0.0000

> <Gold.PLP.ligand.torsion>
1.3668

> <Gold.PLP.Chemscore.Hbond>
0.7000

> <Gold.PLP.Chemscore.CHOScore>
0.9375

> <Gold.PLP.Chemscore.Metal>
0.0000

> <Gold.Chemscore.Hbonds>
donor molecule, donor type, donor heavy atom, donor atom, acceptor molecule, acceptor atom, score
      P1  H  7989  7998       L1     8  0.54
      L1  C     4    23       P1  8028  0.95

> <Gold.PLP.Chemscore.Internal.Correction>
0.0110

> <Gold.Rescore>
     Score         DG    S(hbond)    S(metal)    S(lipo)     H(rot)  DE(clash)    DE(int)     intcor
     13.30     -14.49       1.07        0.00      90.55       2.02       0.17       1.02       ----

> <Gold.Chemscore.Fitness>
13.2980

> <Gold.Chemscore.DG>
-14.4870

> <Gold.Chemscore.ZeroCoef>
-5.4800

> <Gold.Chemscore.Hbond>
1.0715

> <Gold.Chemscore.Metal>
0.0000

> <Gold.Chemscore.Lipo>
90.5520

> <Gold.Chemscore.Internal_Hbond>
0.0000

> <Gold.Chemscore.DEClash>
0.1706

> <Gold.Chemscore.DEInternal>
1.0183

> <Gold.Chemscore.Rot>
2.0181

> <Gold.Chemscore.Internal.Correction>
   9.000000E+99

> <Gold.Chemscore.Hbonds>
donor molecule, donor type, donor heavy atom, donor atom, acceptor molecule, acceptor atom, score
      P1  H  7989  7998       L1     8  0.12

> <Gold.Chemscore.Hbond.Weighted>
-3.5787

> <Gold.Chemscore.Metal.Weighted>
-0.0000

> <Gold.Chemscore.Lipo.Weighted>
-10.5946

> <Gold.Chemscore.Internal_Hbond.Weighted>
0.0000

> <Gold.Chemscore.DEClash.Weighted>
0.1706

> <Gold.Chemscore.DEInternal.Weighted>
1.0183

> <Gold.Chemscore.Rot.Weighted>
5.1663

> <Gold.Chemscore.Internal.Correction.Weighted>
   9.000000E+99

> <Gold.Protein.RotatedTorsions>
[ 6907 6896 6895 6894 ] final  -91.06 input  -60.11 | X-H torsion
[ 7974 7965 7964 7962 ] final  -64.10 input  175.53 | X-H torsion
[ 8008 7997 7996 7995 ] final  142.61 input   59.86 | X-H torsion
[ 10167 10162 10161 10158 ] final  126.59 input  -65.29 | X-H torsion
[ 10718 10713 10712 10709 ] final  158.86 input   66.30 | X-H torsion
[ 10763 10752 10751 10750 ] final   97.99 input  -60.55 | X-H torsion
[ 11005 11000 10999 10996 ] final -152.06 input  -57.11 | X-H torsion

> <Gold.Protein.ActiveResidues>
 VAL166  LYS551  ARG553  GLY616  TRP617  ASP618  TYR619  PRO620  LYS621  CYS622 
 ASP623  PHE694  ASN695  SER759  ASP760  ASP761  ALA762  ILE779  LEU786  VAL792 
 PHE793  MET794  SER795  GLU796  ALA797  LYS798  CYS799  TRP800  GLU811  SER814 

> <Gold.Protein.RotatedAtoms>
  150.6888  134.2335  159.4443 H   0  0  0  0  0  0  0  0  0  0  0  0  # atno 6907 bound_to 6896
  152.0284  134.9779  160.0581 H   0  0  0  0  0  0  0  0  0  0  0  0  # atno 6908 bound_to 6896
  152.1328  133.4383  159.4766 H   0  0  0  0  0  0  0  0  0  0  0  0  # atno 6909 bound_to 6896
  145.7709  140.8813  143.0380 H   0  0  0  0  0  0  0  0  0  0  0  0  # atno 7974 bound_to 7965
  156.2946  140.2284  156.4755 H   0  0  0  0  0  0  0  0  0  0  0  0  # atno 8008 bound_to 7997
  154.7898  140.0455  157.1213 H   0  0  0  0  0  0  0  0  0  0  0  0  # atno 8009 bound_to 7997
  154.9659  140.3060  155.5013 H   0  0  0  0  0  0  0  0  0  0  0  0  # atno 8010 bound_to 7997
  139.5623  144.6889  151.4008 H   0  0  0  0  0  0  0  0  0  0  0  0  # atno 10167 bound_to 10162
  157.1721  131.0612  151.2177 H   0  0  0  0  0  0  0  0  0  0  0  0  # atno 10718 bound_to 10713
  153.2836  135.4164  155.1101 H   0  0  0  0  0  0  0  0  0  0  0  0  # atno 10763 bound_to 10752
  154.8497  135.3501  154.6078 H   0  0  0  0  0  0  0  0  0  0  0  0  # atno 10764 bound_to 10752
  153.6499  135.7053  153.5270 H   0  0  0  0  0  0  0  0  0  0  0  0  # atno 10765 bound_to 10752
  140.7229  134.3707  157.5180 H   0  0  0  0  0  0  0  0  0  0  0  0  # atno 11005 bound_to 11000
  144.6813  139.9854  143.7484 LP  0  0  0  0  0  0  0  0  0  0  0  0  # atno 17320 bound_to 7965
  146.0171  139.3219  143.0835 LP  0  0  0  0  0  0  0  0  0  0  0  0  # atno 17321 bound_to 7965
  140.6904  143.7875  150.7247 LP  0  0  0  0  0  0  0  0  0  0  0  0  # atno 17342 bound_to 10162
  140.1355  143.4487  152.2227 LP  0  0  0  0  0  0  0  0  0  0  0  0  # atno 17343 bound_to 10162
  157.4033  130.7345  149.6783 LP  0  0  0  0  0  0  0  0  0  0  0  0  # atno 17370 bound_to 10713
  155.9737  130.4115  150.3983 LP  0  0  0  0  0  0  0  0  0  0  0  0  # atno 17371 bound_to 10713
  139.8844  134.8967  156.2707 LP  0  0  0  0  0  0  0  0  0  0  0  0  # atno 17394 bound_to 11000
  140.9987  133.7164  156.0927 LP  0  0  0  0  0  0  0  0  0  0  0  0  # atno 17395 bound_to 11000

$$$$
