AV-unprocessed.smi:3034|AV-procd|sdf|11578|dock8
  -GOLD-   2272016543D 1   1.00000     0.00000
 Structure written by MMmdl.
 32 32  0  0  0  0  0  0  0  0  1 V2000
  149.7040  139.9431  154.7769 C   0  0  0  0  0  0  0  0  0  0  0  0
  150.3762  138.7325  154.1210 C   0  0  0  0  0  0  0  0  0  0  0  0
  151.1489  137.8710  155.1298 C   0  0  0  0  0  0  0  0  0  0  0  0
  152.8629  138.5008  155.3875 S   0  0  0  0  0  0  0  0  0  0  0  0
  153.8196  137.4097  155.1449 O   0  0  0  0  0  0  0  0  0  0  0  0
  153.0100  139.7875  154.6910 O   0  0  0  0  0  0  0  0  0  0  0  0
  152.8762  138.8372  157.0771 N   0  0  0  0  0  0  0  0  0  0  0  0
  151.9684  139.8700  157.5766 C   0  0  0  0  0  0  0  0  0  0  0  0
  152.5184  140.5075  158.8646 C   0  0  1  0  0  0  0  0  0  0  0  0
  153.8854  140.1646  158.9955 O   0  0  0  0  0  0  0  0  0  0  0  0
  152.3014  142.0159  158.8620 C   0  0  0  0  0  0  0  0  0  0  0  0
  152.7440  142.8324  159.9285 C   0  0  0  0  0  0  0  0  0  0  0  0
  152.5290  144.2218  159.8473 C   0  0  0  0  0  0  0  0  0  0  0  0
  151.8884  144.7443  158.7078 C   0  0  0  0  0  0  0  0  0  0  0  0
  151.4910  143.8499  157.6948 C   0  0  0  0  0  0  0  0  0  0  0  0
  151.6927  142.5166  157.7626 N   0  0  0  0  0  0  0  0  0  0  0  0
  149.1613  140.5329  154.0380 H   0  0  0  0  0  0  0  0  0  0  0  0
  150.4402  140.5953  155.2473 H   0  0  0  0  0  0  0  0  0  0  0  0
  148.9923  139.6321  155.5419 H   0  0  0  0  0  0  0  0  0  0  0  0
  149.6174  138.1239  153.6283 H   0  0  0  0  0  0  0  0  0  0  0  0
  151.0514  139.0791  153.3382 H   0  0  0  0  0  0  0  0  0  0  0  0
  150.6430  137.8888  156.0953 H   0  0  0  0  0  0  0  0  0  0  0  0
  151.2080  136.8307  154.8096 H   0  0  0  0  0  0  0  0  0  0  0  0
  152.7796  137.9781  157.6183 H   0  0  0  0  0  0  0  0  0  0  0  0
  151.7973  140.6218  156.8049 H   0  0  0  0  0  0  0  0  0  0  0  0
  151.0064  139.3983  157.7819 H   0  0  0  0  0  0  0  0  0  0  0  0
  151.9955  140.0938  159.7287 H   0  0  0  0  0  0  0  0  0  0  0  0
  154.0007  139.7098  159.8156 H   0  0  0  0  0  0  0  0  0  0  0  0
  153.2410  142.4127  160.7905 H   0  0  0  0  0  0  0  0  0  0  0  0
  152.8524  144.8753  160.6441 H   0  0  0  0  0  0  0  0  0  0  0  0
  151.7079  145.8046  158.6113 H   0  0  0  0  0  0  0  0  0  0  0  0
  150.9996  144.2154  156.8053 H   0  0  0  0  0  0  0  0  0  0  0  0
  1  2  1  0  0  0  0
  1 17  1  0  0  0  0
  1 18  1  0  0  0  0
  1 19  1  0  0  0  0
  2  3  1  0  0  0  0
  2 20  1  0  0  0  0
  2 21  1  0  0  0  0
  3  4  1  0  0  0  0
  3 22  1  0  0  0  0
  3 23  1  0  0  0  0
  4  5  2  0  0  0  0
  4  6  2  0  0  0  0
  4  7  1  0  0  0  0
  7  8  1  0  0  0  0
  7 24  1  0  0  0  0
  8  9  1  0  0  0  0
  8 25  1  0  0  0  0
  8 26  1  0  0  0  0
  9 10  1  0  0  0  0
  9 11  1  0  0  0  0
  9 27  1  0  0  0  0
 10 28  1  0  0  0  0
 11 16  1  0  0  0  0
 11 12  2  0  0  0  0
 12 13  1  0  0  0  0
 12 29  1  0  0  0  0
 13 14  2  0  0  0  0
 13 30  1  0  0  0  0
 14 15  1  0  0  0  0
 14 31  1  0  0  0  0
 15 16  2  0  0  0  0
 15 32  1  0  0  0  0
M  END
> <s_m_source_file>
AV-unprocessed.smi

> <i_m_source_file_index>
3034

> <i_lp_mmshare_version>
43012

> <i_f3d_flags>
0

> <s_epik_input>
W0NIM11bQ0gyXVtDSDJdUyg9TykoPU8pW05IXVtDSDJdW0NASF0oW09IXSljMVtjSF1bY0hdW2NIXVtjSF1uMQ==

> <s_epik_cmdline>
J2VwaWtfcHl0aG9uJywgJy1waCcsICc3LjAnLCAnLXRuJywgJzgnLCAnLW1hJywgJzIwMCcsICctbWV0YWxfYmluZGluZycsICctaW1hZScsICc8aW5maWxlLm1hZT4nLCAnLW9tYWUnLCAnPG91dGZpbGUubWFlPic=

> <r_epik_Ionization_Penalty>
0.00187371

> <r_epik_Ionization_Penalty_Charging>
0

> <r_epik_Ionization_Penalty_Neutral>
0.00187371

> <r_epik_State_Penalty>
0.0012608

> <r_epik_Charging_Adjusted_Penalty>
0.0012608

> <i_epik_Tot_Q>
0

> <i_epik_Tot_abs_Q>
0

> <r_epik_Metal_State_Penalty>
0.0168387

> <b_epik_Metal_Only>
0

> <s_lp_Force_Field>
OPLS_2005

> <r_lp_Energy>
4.76334

> <b_lp_Chiralities_Consistent>
1

> <s_lp_Variant>
AV-unprocessed.smi:3034-2

> <Gold.Version>
5.8.1

> <Gold.Id.Protein>
6NUR|6NUR_protein|mol2

> <Gold.PLP.Fitness>
42.7300

> <Gold.PLP.PLP>
-35.4355

> <Gold.PLP.part.hbond>
-4.3048

> <Gold.PLP.part.metal>
0.0000

> <Gold.PLP.part.buried>
-1.3829

> <Gold.PLP.part.nonpolar>
-29.4664

> <Gold.PLP.part.repulsive>
0.0904

> <Gold.PLP.ligand.clash>
0.0000

> <Gold.PLP.ligand.torsion>
1.0070

> <Gold.PLP.Chemscore.Hbond>
2.0400

> <Gold.PLP.Chemscore.CHOScore>
1.0000

> <Gold.PLP.Chemscore.Metal>
0.0000

> <Gold.Chemscore.Hbonds>
donor molecule, donor type, donor heavy atom, donor atom, acceptor molecule, acceptor atom, score
      P1  H  7989  7998       L1     6  0.29
      P1  H  7997  8009       L1    10  0.94
      P1  H  7997  8010       L1     6  0.74
      L1  C    15    32       P1  8028  1.00

> <Gold.PLP.Chemscore.Internal.Correction>
0.1885

> <Gold.Rescore>
     Score         DG    S(hbond)    S(metal)    S(lipo)     H(rot)  DE(clash)    DE(int)     intcor
     14.78     -16.17       1.91        0.00      94.26       2.63       0.39       1.01       ----

> <Gold.Chemscore.Fitness>
14.7787

> <Gold.Chemscore.DG>
-16.1750

> <Gold.Chemscore.ZeroCoef>
-5.4800

> <Gold.Chemscore.Hbond>
1.9141

> <Gold.Chemscore.Metal>
0.0000

> <Gold.Chemscore.Lipo>
94.2589

> <Gold.Chemscore.Internal_Hbond>
0.0000

> <Gold.Chemscore.DEClash>
0.3910

> <Gold.Chemscore.DEInternal>
1.0053

> <Gold.Chemscore.Rot>
2.6275

> <Gold.Chemscore.Internal.Correction>
   9.000000E+99

> <Gold.Chemscore.Hbonds>
donor molecule, donor type, donor heavy atom, donor atom, acceptor molecule, acceptor atom, score
      P1  H  7989  7998       L1     6  0.29
      P1  H  7997  8009       L1    10  0.79
      P1  H  7997  8010       L1     6  0.08
      P1  H 10752 10765       L1     5  0.01

> <Gold.Chemscore.Hbond.Weighted>
-6.3932

> <Gold.Chemscore.Metal.Weighted>
-0.0000

> <Gold.Chemscore.Lipo.Weighted>
-11.0283

> <Gold.Chemscore.Internal_Hbond.Weighted>
0.0000

> <Gold.Chemscore.DEClash.Weighted>
0.3910

> <Gold.Chemscore.DEInternal.Weighted>
1.0053

> <Gold.Chemscore.Rot.Weighted>
6.7265

> <Gold.Chemscore.Internal.Correction.Weighted>
   9.000000E+99

> <Gold.Protein.RotatedTorsions>
[ 6907 6896 6895 6894 ] final  105.95 input  -60.11 | X-H torsion
[ 7974 7965 7964 7962 ] final   89.67 input  175.53 | X-H torsion
[ 8008 7997 7996 7995 ] final  131.86 input   59.86 | X-H torsion
[ 10167 10162 10161 10158 ] final  139.06 input  -65.29 | X-H torsion
[ 10718 10713 10712 10709 ] final -131.77 input   66.30 | X-H torsion
[ 10763 10752 10751 10750 ] final  176.30 input  -60.55 | X-H torsion
[ 11005 11000 10999 10996 ] final    4.99 input  -57.11 | X-H torsion

> <Gold.Protein.ActiveResidues>
 VAL166  LYS551  ARG553  GLY616  TRP617  ASP618  TYR619  PRO620  LYS621  CYS622 
 ASP623  PHE694  ASN695  SER759  ASP760  ASP761  ALA762  ILE779  LEU786  VAL792 
 PHE793  MET794  SER795  GLU796  ALA797  LYS798  CYS799  TRP800  GLU811  SER814 

> <Gold.Protein.RotatedAtoms>
  152.5212  133.9452  159.7645 H   0  0  0  0  0  0  0  0  0  0  0  0  # atno 6907 bound_to 6896
  150.9774  133.6273  159.2735 H   0  0  0  0  0  0  0  0  0  0  0  0  # atno 6908 bound_to 6896
  151.3462  135.0880  159.9441 H   0  0  0  0  0  0  0  0  0  0  0  0  # atno 6909 bound_to 6896
  145.5293  139.2282  143.2628 H   0  0  0  0  0  0  0  0  0  0  0  0  # atno 7974 bound_to 7965
  156.2975  140.2561  156.2995 H   0  0  0  0  0  0  0  0  0  0  0  0  # atno 8008 bound_to 7997
  154.9431  140.0396  157.2126 H   0  0  0  0  0  0  0  0  0  0  0  0  # atno 8009 bound_to 7997
  154.8107  140.2844  155.5860 H   0  0  0  0  0  0  0  0  0  0  0  0  # atno 8010 bound_to 7997
  139.5091  144.6317  151.5801 H   0  0  0  0  0  0  0  0  0  0  0  0  # atno 10167 bound_to 10162
  156.2278  130.7018  151.0826 H   0  0  0  0  0  0  0  0  0  0  0  0  # atno 10718 bound_to 10713
  154.4793  135.2774  155.1583 H   0  0  0  0  0  0  0  0  0  0  0  0  # atno 10763 bound_to 10752
  154.3299  135.6192  153.5550 H   0  0  0  0  0  0  0  0  0  0  0  0  # atno 10764 bound_to 10752
  152.9873  135.5763  154.5191 H   0  0  0  0  0  0  0  0  0  0  0  0  # atno 10765 bound_to 10752
  140.5757  134.0060  155.8027 H   0  0  0  0  0  0  0  0  0  0  0  0  # atno 11005 bound_to 11000
  146.2055  140.6108  142.9083 LP  0  0  0  0  0  0  0  0  0  0  0  0  # atno 17320 bound_to 7965
  144.7634  140.5475  143.6719 LP  0  0  0  0  0  0  0  0  0  0  0  0  # atno 17321 bound_to 7965
  140.6052  143.9538  150.6413 LP  0  0  0  0  0  0  0  0  0  0  0  0  # atno 17342 bound_to 10162
  140.2762  143.3421  152.1193 LP  0  0  0  0  0  0  0  0  0  0  0  0  # atno 17343 bound_to 10162
  157.7119  131.0730  150.6471 LP  0  0  0  0  0  0  0  0  0  0  0  0  # atno 17370 bound_to 10713
  156.6537  130.4492  149.5711 LP  0  0  0  0  0  0  0  0  0  0  0  0  # atno 17371 bound_to 10713
  141.1028  133.9741  157.3049 LP  0  0  0  0  0  0  0  0  0  0  0  0  # atno 17394 bound_to 11000
  139.9341  135.0198  156.8497 LP  0  0  0  0  0  0  0  0  0  0  0  0  # atno 17395 bound_to 11000

$$$$
