AV-unprocessed.smi:1361|AV-procd|sdf|5557|dock9
  -GOLD-   22720 5153D 1   1.00000     0.00000
 Structure written by MMmdl.
 45 46  0  0  0  0  0  0  0  0  2 V2000
  145.2188  144.4839  153.4548 C   0  0  0  0  0  0  0  0  0  0  0  0
  145.9361  143.4984  154.3522 C   0  0  0  0  0  0  0  0  0  0  0  0
  146.9452  142.8585  153.8978 N   0  0  0  0  0  0  0  0  0  0  0  0
  147.6168  141.9458  154.7285 C   0  0  0  0  0  0  0  0  0  0  0  0
  148.8072  141.2371  154.1054 C   0  0  0  0  0  0  0  0  0  0  0  0
  147.2090  141.7268  156.0118 C   0  0  0  0  0  0  0  0  0  0  0  0
  147.9093  140.7519  156.9571 C   0  0  0  0  0  0  0  0  0  0  0  0
  149.4182  140.9530  157.1047 C   0  0  0  0  0  0  0  0  0  0  0  0
  150.1941  140.0459  156.8049 O   0  0  0  0  0  0  0  0  0  0  0  0
  149.8191  142.1477  157.5669 N   0  0  0  0  0  0  0  0  0  0  0  0
  151.2038  142.5601  157.7831 C   0  0  0  0  0  0  0  0  0  0  0  0
  151.8265  141.7198  158.9212 C   0  0  0  0  0  0  0  0  0  0  0  0
  153.1850  142.2313  159.4357 C   0  0  0  0  0  0  0  0  0  0  0  0
  153.1639  142.7526  160.8847 C   0  0  0  0  0  0  0  0  0  0  0  0
  151.9818  143.6581  161.2896 C   0  0  0  0  0  0  0  0  0  0  0  0
  151.7244  144.8838  160.3958 C   0  0  0  0  0  0  0  0  0  0  0  0
  150.6942  144.6726  159.2651 C   0  0  0  0  0  0  0  0  0  0  0  0
  151.2631  144.0968  157.9544 C   0  0  0  0  0  0  0  0  0  0  0  0
  146.0365  142.4789  156.4944 C   0  0  0  0  0  0  0  0  0  0  0  0
  145.6163  142.3088  157.6382 O   0  0  0  0  0  0  0  0  0  0  0  0
  145.4462  143.3534  155.6305 N   0  5  0  0  0  0  0  0  0  0  0  0
  145.5520  144.3883  152.4206 H   0  0  0  0  0  0  0  0  0  0  0  0
  145.4138  145.5042  153.7863 H   0  0  0  0  0  0  0  0  0  0  0  0
  144.1425  144.3105  153.4829 H   0  0  0  0  0  0  0  0  0  0  0  0
  149.7187  141.4501  154.6638 H   0  0  0  0  0  0  0  0  0  0  0  0
  148.9642  141.5613  153.0760 H   0  0  0  0  0  0  0  0  0  0  0  0
  148.6482  140.1590  154.0938 H   0  0  0  0  0  0  0  0  0  0  0  0
  147.4381  140.8248  157.9377 H   0  0  0  0  0  0  0  0  0  0  0  0
  147.7338  139.7206  156.6501 H   0  0  0  0  0  0  0  0  0  0  0  0
  149.1063  142.8293  157.7822 H   0  0  0  0  0  0  0  0  0  0  0  0
  151.7648  142.3421  156.8721 H   0  0  0  0  0  0  0  0  0  0  0  0
  151.1189  141.6101  159.7420 H   0  0  0  0  0  0  0  0  0  0  0  0
  151.9645  140.7031  158.5505 H   0  0  0  0  0  0  0  0  0  0  0  0
  153.9074  141.4157  159.3858 H   0  0  0  0  0  0  0  0  0  0  0  0
  153.5948  142.9927  158.7742 H   0  0  0  0  0  0  0  0  0  0  0  0
  153.1723  141.8962  161.5599 H   0  0  0  0  0  0  0  0  0  0  0  0
  154.0990  143.2811  161.0735 H   0  0  0  0  0  0  0  0  0  0  0  0
  151.0657  143.0784  161.4004 H   0  0  0  0  0  0  0  0  0  0  0  0
  152.1966  144.0194  162.2962 H   0  0  0  0  0  0  0  0  0  0  0  0
  151.3211  145.6642  161.0423 H   0  0  0  0  0  0  0  0  0  0  0  0
  152.6602  145.2902  160.0104 H   0  0  0  0  0  0  0  0  0  0  0  0
  149.8381  144.0943  159.6132 H   0  0  0  0  0  0  0  0  0  0  0  0
  150.2912  145.6573  159.0247 H   0  0  0  0  0  0  0  0  0  0  0  0
  152.2777  144.4636  157.8018 H   0  0  0  0  0  0  0  0  0  0  0  0
  150.7004  144.5338  157.1277 H   0  0  0  0  0  0  0  0  0  0  0  0
  1  2  1  0  0  0  0
  1 22  1  0  0  0  0
  1 23  1  0  0  0  0
  1 24  1  0  0  0  0
  2 21  1  0  0  0  0
  2  3  2  0  0  0  0
  3  4  1  0  0  0  0
  4  5  1  0  0  0  0
  4  6  2  0  0  0  0
  5 25  1  0  0  0  0
  5 26  1  0  0  0  0
  5 27  1  0  0  0  0
  6  7  1  0  0  0  0
  6 19  1  0  0  0  0
  7  8  1  0  0  0  0
  7 28  1  0  0  0  0
  7 29  1  0  0  0  0
  8  9  2  0  0  0  0
  8 10  1  0  0  0  0
 10 11  1  0  0  0  0
 10 30  1  0  0  0  0
 11 18  1  0  0  0  0
 11 12  1  0  0  0  0
 11 31  1  0  0  0  0
 12 13  1  0  0  0  0
 12 32  1  0  0  0  0
 12 33  1  0  0  0  0
 13 14  1  0  0  0  0
 13 34  1  0  0  0  0
 13 35  1  0  0  0  0
 14 15  1  0  0  0  0
 14 36  1  0  0  0  0
 14 37  1  0  0  0  0
 15 16  1  0  0  0  0
 15 38  1  0  0  0  0
 15 39  1  0  0  0  0
 16 17  1  0  0  0  0
 16 40  1  0  0  0  0
 16 41  1  0  0  0  0
 17 18  1  0  0  0  0
 17 42  1  0  0  0  0
 17 43  1  0  0  0  0
 18 44  1  0  0  0  0
 18 45  1  0  0  0  0
 19 20  2  0  0  0  0
 19 21  1  0  0  0  0
M  CHG  1  21  -1
M  END
> <s_m_source_file>
AV-unprocessed.smi

> <i_m_source_file_index>
1361

> <i_lp_mmshare_version>
43012

> <i_f3d_flags>
0

> <s_epik_input>
W0NIM11jMW5jKFtDSDNdKWMoYyg9TylbbkhdMSlbQ0gyXUMoPU8pW05IXVtDSF0yW0NIMl1bQ0gyXVtDSDJdW0NIMl1bQ0gyXVtDSDJdW0NIMl0y

> <s_epik_cmdline>
J2VwaWtfcHl0aG9uJywgJy1waCcsICc3LjAnLCAnLXRuJywgJzgnLCAnLW1hJywgJzIwMCcsICctbWV0YWxfYmluZGluZycsICctaW1hZScsICc8aW5maWxlLm1hZT4nLCAnLW9tYWUnLCAnPG91dGZpbGUubWFlPic=

> <r_lp_tautomer_probability>
0.839158

> <r_epik_Ionization_Penalty>
6.62804

> <r_epik_Ionization_Penalty_Charging>
7.40585e-08

> <r_epik_Ionization_Penalty_Neutral>
6.62804

> <r_epik_State_Penalty>
4.44437

> <r_epik_Charging_Adjusted_Penalty>
4.44437

> <i_epik_Tot_Q>
-1

> <i_epik_Tot_abs_Q>
1

> <r_epik_Metal_State_Penalty>
0.804717

> <b_epik_Metal_Only>
1

> <s_lp_Force_Field>
OPLS_2005

> <r_lp_Energy>
26.9664

> <b_lp_Chiralities_Consistent>
1

> <s_lp_Variant>
AV-unprocessed.smi:1361-3

> <Gold.Version>
5.8.1

> <Gold.Id.Protein>
6NUR|6NUR_protein|mol2

> <Gold.PLP.Fitness>
42.0183

> <Gold.PLP.PLP>
-42.3078

> <Gold.PLP.part.hbond>
-0.1724

> <Gold.PLP.part.metal>
0.0000

> <Gold.PLP.part.buried>
-4.9722

> <Gold.PLP.part.nonpolar>
-37.7992

> <Gold.PLP.part.repulsive>
0.4855

> <Gold.PLP.ligand.clash>
0.0000

> <Gold.PLP.ligand.torsion>
0.1653

> <Gold.PLP.Chemscore.Hbond>
0.0000

> <Gold.PLP.Chemscore.CHOScore>
0.0000

> <Gold.PLP.Chemscore.Metal>
0.0000

> <Gold.PLP.Chemscore.Internal.Correction>
0.0412

> <Gold.Rescore>
     Score         DG    S(hbond)    S(metal)    S(lipo)     H(rot)  DE(clash)    DE(int)     intcor
     15.12     -15.24       0.00        0.00     114.83       1.43       0.04       0.09       ----

> <Gold.Chemscore.Fitness>
15.1173

> <Gold.Chemscore.DG>
-15.2447

> <Gold.Chemscore.ZeroCoef>
-5.4800

> <Gold.Chemscore.Hbond>
0.0000

> <Gold.Chemscore.Metal>
0.0000

> <Gold.Chemscore.Lipo>
114.8335

> <Gold.Chemscore.Internal_Hbond>
0.0000

> <Gold.Chemscore.DEClash>
0.0423

> <Gold.Chemscore.DEInternal>
0.0851

> <Gold.Chemscore.Rot>
1.4339

> <Gold.Chemscore.Internal.Correction>
   9.000000E+99

> <Gold.Chemscore.Hbond.Weighted>
-0.0000

> <Gold.Chemscore.Metal.Weighted>
-0.0000

> <Gold.Chemscore.Lipo.Weighted>
-13.4355

> <Gold.Chemscore.Internal_Hbond.Weighted>
0.0000

> <Gold.Chemscore.DEClash.Weighted>
0.0423

> <Gold.Chemscore.DEInternal.Weighted>
0.0851

> <Gold.Chemscore.Rot.Weighted>
3.6708

> <Gold.Chemscore.Internal.Correction.Weighted>
   9.000000E+99

> <Gold.Protein.RotatedTorsions>
[ 6907 6896 6895 6894 ] final  119.56 input  -60.11 | X-H torsion
[ 7974 7965 7964 7962 ] final  -31.34 input  175.53 | X-H torsion
[ 8008 7997 7996 7995 ] final  -56.67 input   59.86 | X-H torsion
[ 10167 10162 10161 10158 ] final -101.20 input  -65.29 | X-H torsion
[ 10718 10713 10712 10709 ] final    2.42 input   66.30 | X-H torsion
[ 10763 10752 10751 10750 ] final   81.11 input  -60.55 | X-H torsion
[ 11005 11000 10999 10996 ] final -146.13 input  -57.11 | X-H torsion

> <Gold.Protein.ActiveResidues>
 VAL166  LYS551  ARG553  GLY616  TRP617  ASP618  TYR619  PRO620  LYS621  CYS622 
 ASP623  PHE694  ASN695  SER759  ASP760  ASP761  ALA762  ILE779  LEU786  VAL792 
 PHE793  MET794  SER795  GLU796  ALA797  LYS798  CYS799  TRP800  GLU811  SER814 

> <Gold.Protein.RotatedAtoms>
  152.4463  133.7543  159.6710 H   0  0  0  0  0  0  0  0  0  0  0  0  # atno 6907 bound_to 6896
  150.8364  133.7997  159.3084 H   0  0  0  0  0  0  0  0  0  0  0  0  # atno 6908 bound_to 6896
  151.5635  135.1067  160.0030 H   0  0  0  0  0  0  0  0  0  0  0  0  # atno 6909 bound_to 6896
  146.1074  140.5655  142.8793 H   0  0  0  0  0  0  0  0  0  0  0  0  # atno 7974 bound_to 7965
  154.4239  140.1124  156.5675 H   0  0  0  0  0  0  0  0  0  0  0  0  # atno 8008 bound_to 7997
  155.6247  140.3495  155.4644 H   0  0  0  0  0  0  0  0  0  0  0  0  # atno 8009 bound_to 7997
  155.9996  140.1196  157.0550 H   0  0  0  0  0  0  0  0  0  0  0  0  # atno 8010 bound_to 7997
  140.2438  143.3520  152.0777 H   0  0  0  0  0  0  0  0  0  0  0  0  # atno 10167 bound_to 10162
  156.8628  130.5592  149.5662 H   0  0  0  0  0  0  0  0  0  0  0  0  # atno 10718 bound_to 10713
  153.1089  135.4777  154.9001 H   0  0  0  0  0  0  0  0  0  0  0  0  # atno 10763 bound_to 10752
  154.7460  135.3094  154.8646 H   0  0  0  0  0  0  0  0  0  0  0  0  # atno 10764 bound_to 10752
  153.9241  135.6852  153.4800 H   0  0  0  0  0  0  0  0  0  0  0  0  # atno 10765 bound_to 10752
  140.7852  134.3033  157.5032 H   0  0  0  0  0  0  0  0  0  0  0  0  # atno 11005 bound_to 11000
  144.7483  140.5124  143.6820 LP  0  0  0  0  0  0  0  0  0  0  0  0  # atno 17320 bound_to 7965
  145.5732  139.1484  143.3276 LP  0  0  0  0  0  0  0  0  0  0  0  0  # atno 17321 bound_to 7965
  139.5068  144.6821  151.5982 LP  0  0  0  0  0  0  0  0  0  0  0  0  # atno 17342 bound_to 10162
  140.6093  143.9466  150.6441 LP  0  0  0  0  0  0  0  0  0  0  0  0  # atno 17343 bound_to 10162
  156.0768  130.5788  150.9488 LP  0  0  0  0  0  0  0  0  0  0  0  0  # atno 17370 bound_to 10713
  157.6240  131.0927  150.8568 LP  0  0  0  0  0  0  0  0  0  0  0  0  # atno 17371 bound_to 10713
  139.8737  134.9342  156.3600 LP  0  0  0  0  0  0  0  0  0  0  0  0  # atno 17394 bound_to 11000
  140.9444  133.7493  156.0188 LP  0  0  0  0  0  0  0  0  0  0  0  0  # atno 17395 bound_to 11000

$$$$
