AV-unprocessed.smi:2056|AV-procd|sdf|8338|dock3
  -GOLD-   2272011 03D 1   1.00000     0.00000
 Structure written by MMmdl.
 34 34  0  0  0  0  0  0  0  0  1 V2000
  152.6656  143.2782  160.2344 C   0  0  0  0  0  0  0  0  0  0  0  0
  151.9035  144.2807  159.3415 C   0  0  0  0  0  0  0  0  0  0  0  0
  151.6201  145.5503  160.1680 C   0  0  0  0  0  0  0  0  0  0  0  0
  152.7936  144.6721  158.1427 C   0  0  0  0  0  0  0  0  0  0  0  0
  150.5391  143.6933  158.8794 C   0  0  0  0  0  0  0  0  0  0  0  0
  150.6109  142.3752  158.0946 C   0  0  0  0  0  0  0  0  0  0  0  0
  151.0695  141.3685  158.6348 O   0  0  0  0  0  0  0  0  0  0  0  0
  150.1750  142.4292  156.8220 N   0  0  0  0  0  0  0  0  0  0  0  0
  150.1120  141.3820  155.8665 C   0  0  0  0  0  0  0  0  0  0  0  0
  151.0122  140.3979  155.7635 N   0  0  0  0  0  0  0  0  0  0  0  0
  150.7068  139.5062  154.7295 C   0  0  0  0  0  0  0  0  0  0  0  0
  151.6073  138.3361  154.4578 C   0  0  0  0  0  0  0  0  0  0  0  0
  150.9106  137.0299  154.8441 C   0  0  0  0  0  0  0  0  0  0  0  0
  149.6782  136.8310  154.3684 N   0  0  0  0  0  0  0  0  0  0  0  0
  151.4757  136.2105  155.5652 O   0  0  0  0  0  0  0  0  0  0  0  0
  149.5501  139.8293  154.0608 C   0  0  0  0  0  0  0  0  0  0  0  0
  148.8104  141.2757  154.6922 S   0  0  0  0  0  0  0  0  0  0  0  0
  153.5843  143.7168  160.6258 H   0  0  0  0  0  0  0  0  0  0  0  0
  152.9494  142.3786  159.6871 H   0  0  0  0  0  0  0  0  0  0  0  0
  152.0618  142.9681  161.0878 H   0  0  0  0  0  0  0  0  0  0  0  0
  151.0070  145.3281  161.0422 H   0  0  0  0  0  0  0  0  0  0  0  0
  151.0900  146.2988  159.5777 H   0  0  0  0  0  0  0  0  0  0  0  0
  152.5426  146.0095  160.5255 H   0  0  0  0  0  0  0  0  0  0  0  0
  153.7012  145.1780  158.4738 H   0  0  0  0  0  0  0  0  0  0  0  0
  152.2713  145.3475  157.4643 H   0  0  0  0  0  0  0  0  0  0  0  0
  153.1094  143.8029  157.5656 H   0  0  0  0  0  0  0  0  0  0  0  0
  149.8908  143.5496  159.7455 H   0  0  0  0  0  0  0  0  0  0  0  0
  150.0244  144.4206  158.2498 H   0  0  0  0  0  0  0  0  0  0  0  0
  149.8304  143.3240  156.5069 H   0  0  0  0  0  0  0  0  0  0  0  0
  151.8827  138.2949  153.4029 H   0  0  0  0  0  0  0  0  0  0  0  0
  152.5409  138.4317  155.0138 H   0  0  0  0  0  0  0  0  0  0  0  0
  149.1778  135.9849  154.5985 H   0  0  0  0  0  0  0  0  0  0  0  0
  149.2503  137.5318  153.7807 H   0  0  0  0  0  0  0  0  0  0  0  0
  149.0928  139.3078  153.2333 H   0  0  0  0  0  0  0  0  0  0  0  0
  1  2  1  0  0  0  0
  1 18  1  0  0  0  0
  1 19  1  0  0  0  0
  1 20  1  0  0  0  0
  2  3  1  0  0  0  0
  2  4  1  0  0  0  0
  2  5  1  0  0  0  0
  3 21  1  0  0  0  0
  3 22  1  0  0  0  0
  3 23  1  0  0  0  0
  4 24  1  0  0  0  0
  4 25  1  0  0  0  0
  4 26  1  0  0  0  0
  5  6  1  0  0  0  0
  5 27  1  0  0  0  0
  5 28  1  0  0  0  0
  6  7  2  0  0  0  0
  6  8  1  0  0  0  0
  8  9  1  0  0  0  0
  8 29  1  0  0  0  0
  9 17  1  0  0  0  0
  9 10  2  0  0  0  0
 10 11  1  0  0  0  0
 11 12  1  0  0  0  0
 11 16  2  0  0  0  0
 12 13  1  0  0  0  0
 12 30  1  0  0  0  0
 12 31  1  0  0  0  0
 13 14  1  0  0  0  0
 13 15  2  0  0  0  0
 14 32  1  0  0  0  0
 14 33  1  0  0  0  0
 16 17  1  0  0  0  0
 16 34  1  0  0  0  0
M  END
> <s_m_source_file>
AV-unprocessed.smi

> <i_m_source_file_index>
2056

> <i_lp_mmshare_version>
43012

> <i_f3d_flags>
0

> <s_epik_input>
W0NIM11DKFtDSDNdKShbQ0gzXSlbQ0gyXUMoPU8pW05IXWMxbmMoW2NIXXMxKVtDSDJdQyg9TylbTkgyXQ==

> <s_epik_cmdline>
J2VwaWtfcHl0aG9uJywgJy1waCcsICc3LjAnLCAnLXRuJywgJzgnLCAnLW1hJywgJzIwMCcsICctbWV0YWxfYmluZGluZycsICctaW1hZScsICc8aW5maWxlLm1hZT4nLCAnLW9tYWUnLCAnPG91dGZpbGUubWFlPic=

> <r_lp_tautomer_probability>
1

> <r_epik_Ionization_Penalty>
0.000211791

> <r_epik_Ionization_Penalty_Charging>
0

> <r_epik_Ionization_Penalty_Neutral>
0.000211791

> <r_epik_State_Penalty>
-0

> <r_epik_Charging_Adjusted_Penalty>
0

> <i_epik_Tot_Q>
0

> <i_epik_Tot_abs_Q>
0

> <r_epik_Metal_State_Penalty>
0.129621

> <b_epik_Metal_Only>
0

> <s_lp_Force_Field>
OPLS_2005

> <r_lp_Energy>
3.85365

> <b_lp_Chiralities_Consistent>
1

> <s_lp_Variant>
AV-unprocessed.smi:2056-1

> <Gold.Version>
5.8.1

> <Gold.Id.Protein>
6NUR|6NUR_protein|mol2

> <Gold.PLP.Fitness>
49.2387

> <Gold.PLP.PLP>
-42.0113

> <Gold.PLP.part.hbond>
-3.2268

> <Gold.PLP.part.metal>
0.0000

> <Gold.PLP.part.buried>
-3.3496

> <Gold.PLP.part.nonpolar>
-35.7177

> <Gold.PLP.part.repulsive>
0.1512

> <Gold.PLP.ligand.clash>
0.0000

> <Gold.PLP.ligand.torsion>
0.4412

> <Gold.PLP.Chemscore.Hbond>
2.0000

> <Gold.PLP.Chemscore.CHOScore>
0.6945

> <Gold.PLP.Chemscore.Metal>
0.0000

> <Gold.Chemscore.Hbonds>
donor molecule, donor type, donor heavy atom, donor atom, acceptor molecule, acceptor atom, score
      L1  H     8    29       P1  8028  1.00
      P1  H 10752 10765       L1    15  1.00
      L1  C    16    34       P1  7957  0.74

> <Gold.PLP.Chemscore.Internal.Correction>
0.0262

> <Gold.Rescore>
     Score         DG    S(hbond)    S(metal)    S(lipo)     H(rot)  DE(clash)    DE(int)     intcor
     15.33     -17.30       1.99        0.00      92.23       2.20       0.13       1.84       ----

> <Gold.Chemscore.Fitness>
15.3314

> <Gold.Chemscore.DG>
-17.2997

> <Gold.Chemscore.ZeroCoef>
-5.4800

> <Gold.Chemscore.Hbond>
1.9935

> <Gold.Chemscore.Metal>
0.0000

> <Gold.Chemscore.Lipo>
92.2316

> <Gold.Chemscore.Internal_Hbond>
0.0000

> <Gold.Chemscore.DEClash>
0.1309

> <Gold.Chemscore.DEInternal>
1.8374

> <Gold.Chemscore.Rot>
2.1991

> <Gold.Chemscore.Internal.Correction>
   9.000000E+99

> <Gold.Chemscore.Hbonds>
donor molecule, donor type, donor heavy atom, donor atom, acceptor molecule, acceptor atom, score
      L1  H     8    29       P1  8028  1.00
      L1  H    14    33       P1  7948  0.01
      P1  H 10752 10765       L1    15  0.60

> <Gold.Chemscore.Hbond.Weighted>
-6.6583

> <Gold.Chemscore.Metal.Weighted>
-0.0000

> <Gold.Chemscore.Lipo.Weighted>
-10.7911

> <Gold.Chemscore.Internal_Hbond.Weighted>
0.0000

> <Gold.Chemscore.DEClash.Weighted>
0.1309

> <Gold.Chemscore.DEInternal.Weighted>
1.8374

> <Gold.Chemscore.Rot.Weighted>
5.6297

> <Gold.Chemscore.Internal.Correction.Weighted>
   9.000000E+99

> <Gold.Protein.RotatedTorsions>
[ 6907 6896 6895 6894 ] final   33.91 input  -60.11 | X-H torsion
[ 7974 7965 7964 7962 ] final   69.80 input  175.53 | X-H torsion
[ 8008 7997 7996 7995 ] final  -89.11 input   59.86 | X-H torsion
[ 10167 10162 10161 10158 ] final   15.47 input  -65.29 | X-H torsion
[ 10718 10713 10712 10709 ] final -137.66 input   66.30 | X-H torsion
[ 10763 10752 10751 10750 ] final -179.79 input  -60.55 | X-H torsion
[ 11005 11000 10999 10996 ] final  127.11 input  -57.11 | X-H torsion

> <Gold.Protein.ActiveResidues>
 VAL166  LYS551  ARG553  GLY616  TRP617  ASP618  TYR619  PRO620  LYS621  CYS622 
 ASP623  PHE694  ASN695  SER759  ASP760  ASP761  ALA762  ILE779  LEU786  VAL792 
 PHE793  MET794  SER795  GLU796  ALA797  LYS798  CYS799  TRP800  GLU811  SER814 

> <Gold.Protein.RotatedAtoms>
  152.0950  134.9381  160.0570 H   0  0  0  0  0  0  0  0  0  0  0  0  # atno 6907 bound_to 6896
  152.0617  133.4060  159.4429 H   0  0  0  0  0  0  0  0  0  0  0  0  # atno 6908 bound_to 6896
  150.6838  134.3112  159.4791 H   0  0  0  0  0  0  0  0  0  0  0  0  # atno 6909 bound_to 6896
  145.7859  139.2910  143.1238 H   0  0  0  0  0  0  0  0  0  0  0  0  # atno 7974 bound_to 7965
  154.6827  140.0545  157.0283 H   0  0  0  0  0  0  0  0  0  0  0  0  # atno 8008 bound_to 7997
  155.0928  140.3221  155.4550 H   0  0  0  0  0  0  0  0  0  0  0  0  # atno 8009 bound_to 7997
  156.2700  140.2045  156.6055 H   0  0  0  0  0  0  0  0  0  0  0  0  # atno 8010 bound_to 7997
  140.5865  143.8880  150.6835 H   0  0  0  0  0  0  0  0  0  0  0  0  # atno 10167 bound_to 10162
  156.2906  130.7373  151.1397 H   0  0  0  0  0  0  0  0  0  0  0  0  # atno 10718 bound_to 10713
  154.5306  135.2799  155.1183 H   0  0  0  0  0  0  0  0  0  0  0  0  # atno 10763 bound_to 10752
  154.2705  135.6304  153.5312 H   0  0  0  0  0  0  0  0  0  0  0  0  # atno 10764 bound_to 10752
  152.9956  135.5627  154.5819 H   0  0  0  0  0  0  0  0  0  0  0  0  # atno 10765 bound_to 10752
  139.9490  134.9625  156.8806 H   0  0  0  0  0  0  0  0  0  0  0  0  # atno 11005 bound_to 11000
  146.0026  140.8506  143.0011 LP  0  0  0  0  0  0  0  0  0  0  0  0  # atno 17320 bound_to 7965
  144.6789  140.2374  143.7348 LP  0  0  0  0  0  0  0  0  0  0  0  0  # atno 17321 bound_to 7965
  140.2392  143.3677  152.1501 LP  0  0  0  0  0  0  0  0  0  0  0  0  # atno 17342 bound_to 10162
  139.5201  144.7028  151.5443 LP  0  0  0  0  0  0  0  0  0  0  0  0  # atno 17343 bound_to 10162
  157.7341  131.0584  150.5540 LP  0  0  0  0  0  0  0  0  0  0  0  0  # atno 17370 bound_to 10713
  156.5656  130.4267  149.6043 LP  0  0  0  0  0  0  0  0  0  0  0  0  # atno 17371 bound_to 10713
  140.5763  134.0394  155.7448 LP  0  0  0  0  0  0  0  0  0  0  0  0  # atno 17394 bound_to 11000
  141.1149  133.9557  157.2842 LP  0  0  0  0  0  0  0  0  0  0  0  0  # atno 17395 bound_to 11000

$$$$
