AV-unprocessed.smi:2044|AV-procd|sdf|8306|dock1
  -GOLD-   2272010573D 1   1.00000     0.00000
 Structure written by MMmdl.
 39 40  0  0  0  0  0  0  0  0  3 V2000
  152.4705  142.2908  160.8466 C   0  0  0  0  0  0  0  0  0  0  0  0
  152.4042  141.5131  159.5774 C   0  0  0  0  0  0  0  0  0  0  0  0
  151.5289  141.5173  158.5281 C   0  0  0  0  0  0  0  0  0  0  0  0
  152.0630  140.5283  157.6597 C   0  0  0  0  0  0  0  0  0  0  0  0
  151.4271  140.2297  156.4257 N   0  0  0  0  0  0  0  0  0  0  0  0
  151.9348  139.6124  155.3434 C   0  0  0  0  0  0  0  0  0  0  0  0
  153.1009  139.2008  155.3490 O   0  0  0  0  0  0  0  0  0  0  0  0
  151.0294  139.5239  154.3307 N   0  5  0  0  0  0  0  0  0  0  0  0
  149.8930  138.6022  154.2988 C   0  0  0  0  0  0  0  0  0  0  0  0
  148.7083  139.2281  153.5155 C   0  0  2  0  0  0  0  0  0  0  0  0
  148.0137  140.4057  154.2453 C   0  0  0  0  0  0  0  0  0  0  0  0
  147.7475  138.1671  153.0791 N   0  3  0  0  0  0  0  0  0  0  0  0
  147.0900  137.3763  154.1572 C   0  0  0  0  0  0  0  0  0  0  0  0
  146.2705  136.2298  153.5443 C   0  0  0  0  0  0  0  0  0  0  0  0
  145.3050  136.7651  152.6472 O   0  0  0  0  0  0  0  0  0  0  0  0
  145.9110  137.4658  151.5676 C   0  0  0  0  0  0  0  0  0  0  0  0
  146.7339  138.6478  152.1073 C   0  0  0  0  0  0  0  0  0  0  0  0
  153.1660  139.9713  158.1376 N   0  0  0  0  0  0  0  0  0  0  0  0
  153.3899  140.5991  159.3687 O   0  0  0  0  0  0  0  0  0  0  0  0
  151.6412  142.9950  160.9162 H   0  0  0  0  0  0  0  0  0  0  0  0
  153.4000  142.8570  160.9044 H   0  0  0  0  0  0  0  0  0  0  0  0
  152.4240  141.6264  161.7094 H   0  0  0  0  0  0  0  0  0  0  0  0
  150.6486  142.1298  158.4029 H   0  0  0  0  0  0  0  0  0  0  0  0
  150.4652  140.5250  156.3494 H   0  0  0  0  0  0  0  0  0  0  0  0
  150.1485  137.6533  153.8244 H   0  0  0  0  0  0  0  0  0  0  0  0
  149.5603  138.3413  155.3038 H   0  0  0  0  0  0  0  0  0  0  0  0
  149.1462  139.6404  152.6046 H   0  0  0  0  0  0  0  0  0  0  0  0
  148.6982  141.2387  154.4147 H   0  0  0  0  0  0  0  0  0  0  0  0
  147.6067  140.1193  155.2166 H   0  0  0  0  0  0  0  0  0  0  0  0
  147.1908  140.8001  153.6492 H   0  0  0  0  0  0  0  0  0  0  0  0
  147.8316  136.9658  154.8427 H   0  0  0  0  0  0  0  0  0  0  0  0
  146.4279  138.0142  154.7439 H   0  0  0  0  0  0  0  0  0  0  0  0
  146.9173  135.5205  153.0253 H   0  0  0  0  0  0  0  0  0  0  0  0
  145.7542  135.6762  154.3286 H   0  0  0  0  0  0  0  0  0  0  0  0
  146.5392  136.7882  150.9870 H   0  0  0  0  0  0  0  0  0  0  0  0
  145.1298  137.8267  150.8984 H   0  0  0  0  0  0  0  0  0  0  0  0
  146.0784  139.3754  152.5875 H   0  0  0  0  0  0  0  0  0  0  0  0
  147.2222  139.1543  151.2738 H   0  0  0  0  0  0  0  0  0  0  0  0
  148.3167  137.5123  152.5614 H   0  0  0  0  0  0  0  0  0  0  0  0
  1  2  1  0  0  0  0
  1 20  1  0  0  0  0
  1 21  1  0  0  0  0
  1 22  1  0  0  0  0
  2 19  1  0  0  0  0
  2  3  2  0  0  0  0
  3  4  1  0  0  0  0
  3 23  1  0  0  0  0
  4  5  1  0  0  0  0
  4 18  2  0  0  0  0
  5  6  1  0  0  0  0
  5 24  1  0  0  0  0
  6  7  2  0  0  0  0
  6  8  1  0  0  0  0
  8  9  1  0  0  0  0
  9 10  1  0  0  0  0
  9 25  1  0  0  0  0
  9 26  1  0  0  0  0
 10 11  1  0  0  0  0
 10 12  1  0  0  0  0
 10 27  1  0  0  0  0
 11 28  1  0  0  0  0
 11 29  1  0  0  0  0
 11 30  1  0  0  0  0
 12 17  1  0  0  0  0
 12 13  1  0  0  0  0
 12 39  1  0  0  0  0
 13 14  1  0  0  0  0
 13 31  1  0  0  0  0
 13 32  1  0  0  0  0
 14 15  1  0  0  0  0
 14 33  1  0  0  0  0
 14 34  1  0  0  0  0
 15 16  1  0  0  0  0
 16 17  1  0  0  0  0
 16 35  1  0  0  0  0
 16 36  1  0  0  0  0
 17 37  1  0  0  0  0
 17 38  1  0  0  0  0
 18 19  1  0  0  0  0
M  CHG  1   8  -1
M  CHG  1  12   1
M  END
> <s_m_source_file>
AV-unprocessed.smi

> <i_m_source_file_index>
2044

> <i_lp_mmshare_version>
43012

> <i_f3d_flags>
0

> <s_epik_input>
W0NIM11jMVtjSF1jKG5vMSlbTkhdQyg9TylbTkhdW0NIMl1bQ0BIXShbQ0gzXSlOMltDSDJdW0NIMl1PW0NIMl1bQ0gyXTI=

> <s_epik_cmdline>
J2VwaWtfcHl0aG9uJywgJy1waCcsICc3LjAnLCAnLXRuJywgJzgnLCAnLW1hJywgJzIwMCcsICctbWV0YWxfYmluZGluZycsICctaW1hZScsICc8aW5maWxlLm1hZT4nLCAnLW9tYWUnLCAnPG91dGZpbGUubWFlPic=

> <r_epik_Ionization_Penalty>
6.79272

> <r_epik_Ionization_Penalty_Charging>
6.79272

> <r_epik_Ionization_Penalty_Neutral>
5.6208e-06

> <r_epik_State_Penalty>
7.45901

> <r_epik_Charging_Adjusted_Penalty>
14.2517

> <i_epik_Tot_Q>
0

> <i_epik_Tot_abs_Q>
2

> <r_epik_Metal_State_Penalty>
3.38639

> <b_epik_Metal_Only>
1

> <s_lp_Force_Field>
OPLS_2005

> <r_lp_Energy>
17.6269

> <b_lp_Chiralities_Consistent>
1

> <s_lp_Variant>
AV-unprocessed.smi:2044-9

> <Gold.Version>
5.8.1

> <Gold.Id.Protein>
6NUR|6NUR_protein|mol2

> <Gold.PLP.Fitness>
42.0609

> <Gold.PLP.PLP>
-31.2487

> <Gold.PLP.part.hbond>
-4.6766

> <Gold.PLP.part.metal>
0.0000

> <Gold.PLP.part.buried>
2.4081

> <Gold.PLP.part.nonpolar>
-28.9555

> <Gold.PLP.part.repulsive>
0.4478

> <Gold.PLP.ligand.clash>
0.0000

> <Gold.PLP.ligand.torsion>
1.1246

> <Gold.PLP.Chemscore.Hbond>
4.3120

> <Gold.PLP.Chemscore.CHOScore>
0.0000

> <Gold.PLP.Chemscore.Metal>
0.0000

> <Gold.Chemscore.Hbonds>
donor molecule, donor type, donor heavy atom, donor atom, acceptor molecule, acceptor atom, score
      L1  H    12    39       P1  7948  2.00
      P1  H  7989  7998       L1     8  0.75
      P1  H  7997  8008       L1     7  0.93
      P1  H  7997  8010       L1    18  0.37

> <Gold.PLP.Chemscore.Internal.Correction>
0.1254

> <Gold.Rescore>
     Score         DG    S(hbond)    S(metal)    S(lipo)     H(rot)  DE(clash)    DE(int)     intcor
     14.61     -18.80       2.68        0.00      72.20       1.59       1.86       2.33       ----

> <Gold.Chemscore.Fitness>
14.6145

> <Gold.Chemscore.DG>
-18.8019

> <Gold.Chemscore.ZeroCoef>
-5.4800

> <Gold.Chemscore.Hbond>
2.6804

> <Gold.Chemscore.Metal>
0.0000

> <Gold.Chemscore.Lipo>
72.2008

> <Gold.Chemscore.Internal_Hbond>
0.0000

> <Gold.Chemscore.DEClash>
1.8550

> <Gold.Chemscore.DEInternal>
2.3324

> <Gold.Chemscore.Rot>
1.5930

> <Gold.Chemscore.Internal.Correction>
   9.000000E+99

> <Gold.Chemscore.Hbonds>
donor molecule, donor type, donor heavy atom, donor atom, acceptor molecule, acceptor atom, score
      L1  H    12    39       P1  7948  0.97
      P1  H  7989  7998       L1     8  0.09
      P1  H  7997  8008       L1     7  0.89
      P1  H  7997  8010       L1    18  0.10

> <Gold.Chemscore.Hbond.Weighted>
-8.9525

> <Gold.Chemscore.Metal.Weighted>
-0.0000

> <Gold.Chemscore.Lipo.Weighted>
-8.4475

> <Gold.Chemscore.Internal_Hbond.Weighted>
0.0000

> <Gold.Chemscore.DEClash.Weighted>
1.8550

> <Gold.Chemscore.DEInternal.Weighted>
2.3324

> <Gold.Chemscore.Rot.Weighted>
4.0781

> <Gold.Chemscore.Internal.Correction.Weighted>
   9.000000E+99

> <Gold.Protein.RotatedTorsions>
[ 6907 6896 6895 6894 ] final  -80.14 input  -60.11 | X-H torsion
[ 7974 7965 7964 7962 ] final   50.74 input  175.53 | X-H torsion
[ 8008 7997 7996 7995 ] final   -1.43 input   59.86 | X-H torsion
[ 10167 10162 10161 10158 ] final   94.96 input  -65.29 | X-H torsion
[ 10718 10713 10712 10709 ] final -147.53 input   66.30 | X-H torsion
[ 10763 10752 10751 10750 ] final -105.15 input  -60.55 | X-H torsion
[ 11005 11000 10999 10996 ] final  -74.54 input  -57.11 | X-H torsion

> <Gold.Protein.ActiveResidues>
 VAL166  LYS551  ARG553  GLY616  TRP617  ASP618  TYR619  PRO620  LYS621  CYS622 
 ASP623  PHE694  ASN695  SER759  ASP760  ASP761  ALA762  ILE779  LEU786  VAL792 
 PHE793  MET794  SER795  GLU796  ALA797  LYS798  CYS799  TRP800  GLU811  SER814 

> <Gold.Protein.RotatedAtoms>
  150.6935  134.4014  159.5120 H   0  0  0  0  0  0  0  0  0  0  0  0  # atno 6907 bound_to 6896
  152.1787  134.8769  160.0537 H   0  0  0  0  0  0  0  0  0  0  0  0  # atno 6908 bound_to 6896
  151.9768  133.3709  159.4129 H   0  0  0  0  0  0  0  0  0  0  0  0  # atno 6909 bound_to 6896
  145.9982  139.4411  143.0031 H   0  0  0  0  0  0  0  0  0  0  0  0  # atno 7974 bound_to 7965
  154.6469  140.2559  155.7258 H   0  0  0  0  0  0  0  0  0  0  0  0  # atno 8008 bound_to 7997
  156.2556  140.2876  156.0807 H   0  0  0  0  0  0  0  0  0  0  0  0  # atno 8009 bound_to 7997
  155.1511  140.0382  157.2811 H   0  0  0  0  0  0  0  0  0  0  0  0  # atno 8010 bound_to 7997
  139.8034  144.6804  150.9735 H   0  0  0  0  0  0  0  0  0  0  0  0  # atno 10167 bound_to 10162
  156.4087  130.7970  151.2186 H   0  0  0  0  0  0  0  0  0  0  0  0  # atno 10718 bound_to 10713
  154.7927  135.4759  154.0090 H   0  0  0  0  0  0  0  0  0  0  0  0  # atno 10763 bound_to 10752
  153.1656  135.6816  153.8688 H   0  0  0  0  0  0  0  0  0  0  0  0  # atno 10764 bound_to 10752
  153.8287  135.3194  155.3395 H   0  0  0  0  0  0  0  0  0  0  0  0  # atno 10765 bound_to 10752
  141.1636  133.6915  156.7380 H   0  0  0  0  0  0  0  0  0  0  0  0  # atno 11005 bound_to 11000
  145.7528  140.9966  143.1241 LP  0  0  0  0  0  0  0  0  0  0  0  0  # atno 17320 bound_to 7965
  144.6910  139.9235  143.7469 LP  0  0  0  0  0  0  0  0  0  0  0  0  # atno 17321 bound_to 7965
  140.7820  143.4259  151.0770 LP  0  0  0  0  0  0  0  0  0  0  0  0  # atno 17342 bound_to 10162
  139.7929  143.8192  152.3154 LP  0  0  0  0  0  0  0  0  0  0  0  0  # atno 17343 bound_to 10162
  157.7506  131.0264  150.3961 LP  0  0  0  0  0  0  0  0  0  0  0  0  # atno 17370 bound_to 10713
  156.4255  130.3961  149.6795 LP  0  0  0  0  0  0  0  0  0  0  0  0  # atno 17371 bound_to 10713
  140.2695  134.8403  157.3834 LP  0  0  0  0  0  0  0  0  0  0  0  0  # atno 17394 bound_to 11000
  140.1535  134.4820  155.7944 LP  0  0  0  0  0  0  0  0  0  0  0  0  # atno 17395 bound_to 11000

$$$$
