AV-unprocessed.smi:3055|AV-procd|sdf|11644|dock7
  -GOLD-   2272017 43D 1   1.00000     0.00000
 Structure written by MMmdl.
 47 49  0  0  0  0  0  0  0  0  2 V2000
  149.6347  134.7737  156.6794 O   0  0  0  0  0  0  0  0  0  0  0  0
  149.4616  134.7050  155.4618 C   0  0  0  0  0  0  0  0  0  0  0  0
  148.9642  135.7310  154.7530 N   0  0  0  0  0  0  0  0  0  0  0  0
  148.6031  137.0258  155.3126 C   0  0  0  0  0  0  0  0  0  0  0  0
  149.0495  138.1584  154.3789 C   0  0  0  0  0  0  0  0  0  0  0  0
  150.4228  138.5438  154.6323 N   0  0  0  0  0  0  0  0  0  0  0  0
  151.5672  137.9523  154.1142 C   0  0  0  0  0  0  0  0  0  0  0  0
  152.6370  138.6458  154.6331 C   0  0  0  0  0  0  0  0  0  0  0  0
  152.1768  139.6625  155.4669 N   0  0  0  0  0  0  0  0  0  0  0  0
  150.8566  139.5395  155.4171 C   0  0  0  0  0  0  0  0  0  0  0  0
  149.7235  133.5872  154.7376 N   0  0  0  0  0  0  0  0  0  0  0  0
  150.3851  132.3700  155.2331 C   0  0  0  0  0  0  0  0  0  0  0  0
  149.3059  131.3061  155.4937 C   0  0  0  0  0  0  0  0  0  0  0  0
  148.4652  131.0480  154.2281 C   0  0  0  0  0  0  0  0  0  0  0  0
  147.9265  132.3593  153.5967 C   0  0  2  0  0  0  0  0  0  0  0  0
  147.2393  132.1090  152.2989 N   0  3  0  0  0  0  0  0  0  0  0  0
  145.9910  131.3195  152.3806 C   0  0  0  0  0  0  0  0  0  0  0  0
  145.2374  131.6361  151.0945 C   0  0  0  0  0  0  0  0  0  0  0  0
  145.5376  133.1148  150.8813 C   0  0  0  0  0  0  0  0  0  0  0  0
  146.9223  133.3265  151.5092 C   0  0  0  0  0  0  0  0  0  0  0  0
  149.1014  133.3550  153.4283 C   0  0  0  0  0  0  0  0  0  0  0  0
  148.8308  135.6055  153.7601 H   0  0  0  0  0  0  0  0  0  0  0  0
  147.5231  137.0629  155.4626 H   0  0  0  0  0  0  0  0  0  0  0  0
  149.0700  137.1439  156.2921 H   0  0  0  0  0  0  0  0  0  0  0  0
  148.9650  137.8505  153.3357 H   0  0  0  0  0  0  0  0  0  0  0  0
  148.4114  139.0344  154.5055 H   0  0  0  0  0  0  0  0  0  0  0  0
  151.5268  137.1094  153.4397 H   0  0  0  0  0  0  0  0  0  0  0  0
  153.6939  138.4925  154.4725 H   0  0  0  0  0  0  0  0  0  0  0  0
  150.1898  140.1885  155.9659 H   0  0  0  0  0  0  0  0  0  0  0  0
  151.0893  132.0107  154.4811 H   0  0  0  0  0  0  0  0  0  0  0  0
  150.9802  132.5243  156.1331 H   0  0  0  0  0  0  0  0  0  0  0  0
  149.7679  130.3773  155.8295 H   0  0  0  0  0  0  0  0  0  0  0  0
  148.6550  131.6385  156.3037 H   0  0  0  0  0  0  0  0  0  0  0  0
  149.0825  130.5229  153.4977 H   0  0  0  0  0  0  0  0  0  0  0  0
  147.6481  130.3730  154.4832 H   0  0  0  0  0  0  0  0  0  0  0  0
  147.1960  132.7937  154.2819 H   0  0  0  0  0  0  0  0  0  0  0  0
  146.1885  130.2524  152.4878 H   0  0  0  0  0  0  0  0  0  0  0  0
  145.4034  131.6471  153.2402 H   0  0  0  0  0  0  0  0  0  0  0  0
  145.6462  131.0505  150.2698 H   0  0  0  0  0  0  0  0  0  0  0  0
  144.1700  131.4240  151.1641 H   0  0  0  0  0  0  0  0  0  0  0  0
  145.5041  133.3998  149.8294 H   0  0  0  0  0  0  0  0  0  0  0  0
  144.7988  133.7175  151.4118 H   0  0  0  0  0  0  0  0  0  0  0  0
  146.9107  134.2231  152.1312 H   0  0  0  0  0  0  0  0  0  0  0  0
  147.6869  133.4632  150.7440 H   0  0  0  0  0  0  0  0  0  0  0  0
  148.7727  134.2896  152.9725 H   0  0  0  0  0  0  0  0  0  0  0  0
  149.8452  132.9476  152.7415 H   0  0  0  0  0  0  0  0  0  0  0  0
  147.8706  131.5642  151.7288 H   0  0  0  0  0  0  0  0  0  0  0  0
  1  2  2  0  0  0  0
  2  3  1  0  0  0  0
  2 11  1  0  0  0  0
  3  4  1  0  0  0  0
  3 22  1  0  0  0  0
  4  5  1  0  0  0  0
  4 23  1  0  0  0  0
  4 24  1  0  0  0  0
  5  6  1  0  0  0  0
  5 25  1  0  0  0  0
  5 26  1  0  0  0  0
  6 10  1  0  0  0  0
  6  7  1  0  0  0  0
  7  8  2  0  0  0  0
  7 27  1  0  0  0  0
  8  9  1  0  0  0  0
  8 28  1  0  0  0  0
  9 10  2  0  0  0  0
 10 29  1  0  0  0  0
 11 21  1  0  0  0  0
 11 12  1  0  0  0  0
 12 13  1  0  0  0  0
 12 30  1  0  0  0  0
 12 31  1  0  0  0  0
 13 14  1  0  0  0  0
 13 32  1  0  0  0  0
 13 33  1  0  0  0  0
 14 15  1  0  0  0  0
 14 34  1  0  0  0  0
 14 35  1  0  0  0  0
 15 16  1  0  0  0  0
 15 21  1  0  0  0  0
 15 36  1  0  0  0  0
 16 20  1  0  0  0  0
 16 17  1  0  0  0  0
 16 47  1  0  0  0  0
 17 18  1  0  0  0  0
 17 37  1  0  0  0  0
 17 38  1  0  0  0  0
 18 19  1  0  0  0  0
 18 39  1  0  0  0  0
 18 40  1  0  0  0  0
 19 20  1  0  0  0  0
 19 41  1  0  0  0  0
 19 42  1  0  0  0  0
 20 43  1  0  0  0  0
 20 44  1  0  0  0  0
 21 45  1  0  0  0  0
 21 46  1  0  0  0  0
M  CHG  1  16   1
M  END
> <s_m_source_file>
AV-unprocessed.smi

> <i_m_source_file_index>
3055

> <i_lp_mmshare_version>
43012

> <i_f3d_flags>
0

> <s_epik_input>
W2NIXTFuW2NIXVtjSF1uMVtDSDJdW0NIMl1bTkhdQyg9TylOMltDSDJdW0NIMl1bQ0gyXVtDQEhdKFtDSDJdMilOM1tDSDJdW0NIMl1bQ0gyXVtDSDJdMw==

> <s_epik_cmdline>
J2VwaWtfcHl0aG9uJywgJy1waCcsICc3LjAnLCAnLXRuJywgJzgnLCAnLW1hJywgJzIwMCcsICctbWV0YWxfYmluZGluZycsICctaW1hZScsICc8aW5maWxlLm1hZT4nLCAnLW9tYWUnLCAnPG91dGZpbGUubWFlPic=

> <r_lp_tautomer_probability>
1

> <r_epik_Ionization_Penalty>
0.618392

> <r_epik_Ionization_Penalty_Charging>
0.618355

> <r_epik_Ionization_Penalty_Neutral>
3.68592e-05

> <r_epik_State_Penalty>
0.635579

> <r_epik_Charging_Adjusted_Penalty>
1.25393

> <i_epik_Tot_Q>
1

> <i_epik_Tot_abs_Q>
1

> <r_epik_Metal_State_Penalty>
0.306847

> <b_epik_Metal_Only>
0

> <s_lp_Force_Field>
OPLS_2005

> <r_lp_Energy>
57.1272

> <b_lp_Chiralities_Consistent>
1

> <s_lp_Variant>
AV-unprocessed.smi:3055-4

> <Gold.Version>
5.8.1

> <Gold.Id.Protein>
6NUR|6NUR_protein|mol2

> <Gold.PLP.Fitness>
49.6388

> <Gold.PLP.PLP>
-40.1537

> <Gold.PLP.part.hbond>
-3.0000

> <Gold.PLP.part.metal>
0.0000

> <Gold.PLP.part.buried>
-4.5209

> <Gold.PLP.part.nonpolar>
-33.0443

> <Gold.PLP.part.repulsive>
0.0129

> <Gold.PLP.ligand.clash>
0.9484

> <Gold.PLP.ligand.torsion>
0.8289

> <Gold.PLP.Chemscore.Hbond>
3.0000

> <Gold.PLP.Chemscore.CHOScore>
1.0000

> <Gold.PLP.Chemscore.Metal>
0.0000

> <Gold.Chemscore.Hbonds>
donor molecule, donor type, donor heavy atom, donor atom, acceptor molecule, acceptor atom, score
      L1  H     3    22       P1  7948  1.00
      L1  H    16    47       P1 10747  1.00
      P1  H  7997  8010       L1     9  0.14
      L1  C     7    27       P1  7949  1.00

> <Gold.PLP.Chemscore.Internal.Correction>
0.0913

> <Gold.Rescore>
     Score         DG    S(hbond)    S(metal)    S(lipo)     H(rot)  DE(clash)    DE(int)     intcor
     16.87     -17.19       1.91        0.00      85.07       1.81       0.02       0.29       ----

> <Gold.Chemscore.Fitness>
16.8742

> <Gold.Chemscore.DG>
-17.1868

> <Gold.Chemscore.ZeroCoef>
-5.4800

> <Gold.Chemscore.Hbond>
1.9099

> <Gold.Chemscore.Metal>
0.0000

> <Gold.Chemscore.Lipo>
85.0657

> <Gold.Chemscore.Internal_Hbond>
0.0000

> <Gold.Chemscore.DEClash>
0.0207

> <Gold.Chemscore.DEInternal>
0.2919

> <Gold.Chemscore.Rot>
1.8066

> <Gold.Chemscore.Internal.Correction>
   9.000000E+99

> <Gold.Chemscore.Hbonds>
donor molecule, donor type, donor heavy atom, donor atom, acceptor molecule, acceptor atom, score
      L1  H     3    22       P1  7948  0.89
      L1  H    16    47       P1 10747  0.99
      P1  H  7997  8010       L1     9  0.01

> <Gold.Chemscore.Hbond.Weighted>
-6.3791

> <Gold.Chemscore.Metal.Weighted>
-0.0000

> <Gold.Chemscore.Lipo.Weighted>
-9.9527

> <Gold.Chemscore.Internal_Hbond.Weighted>
0.0000

> <Gold.Chemscore.DEClash.Weighted>
0.0207

> <Gold.Chemscore.DEInternal.Weighted>
0.2919

> <Gold.Chemscore.Rot.Weighted>
4.6249

> <Gold.Chemscore.Internal.Correction.Weighted>
   9.000000E+99

> <Gold.Protein.RotatedTorsions>
[ 6907 6896 6895 6894 ] final  107.62 input  -60.11 | X-H torsion
[ 7974 7965 7964 7962 ] final  -71.88 input  175.53 | X-H torsion
[ 8008 7997 7996 7995 ] final   84.74 input   59.86 | X-H torsion
[ 10167 10162 10161 10158 ] final  -43.19 input  -65.29 | X-H torsion
[ 10718 10713 10712 10709 ] final -111.49 input   66.30 | X-H torsion
[ 10763 10752 10751 10750 ] final  106.79 input  -60.55 | X-H torsion
[ 11005 11000 10999 10996 ] final   57.75 input  -57.11 | X-H torsion

> <Gold.Protein.ActiveResidues>
 VAL166  LYS551  ARG553  GLY616  TRP617  ASP618  TYR619  PRO620  LYS621  CYS622 
 ASP623  PHE694  ASN695  SER759  ASP760  ASP761  ALA762  ILE779  LEU786  VAL792 
 PHE793  MET794  SER795  GLU796  ALA797  LYS798  CYS799  TRP800  GLU811  SER814 

> <Gold.Protein.RotatedAtoms>
  152.5147  133.9208  159.7533 H   0  0  0  0  0  0  0  0  0  0  0  0  # atno 6907 bound_to 6896
  150.9580  133.6468  159.2766 H   0  0  0  0  0  0  0  0  0  0  0  0  # atno 6908 bound_to 6896
  151.3723  135.0930  159.9522 H   0  0  0  0  0  0  0  0  0  0  0  0  # atno 6909 bound_to 6896
  145.6724  140.9216  143.0876 H   0  0  0  0  0  0  0  0  0  0  0  0  # atno 7974 bound_to 7965
  155.9410  140.3408  155.6327 H   0  0  0  0  0  0  0  0  0  0  0  0  # atno 8008 bound_to 7997
  155.7039  140.0763  157.2417 H   0  0  0  0  0  0  0  0  0  0  0  0  # atno 8009 bound_to 7997
  154.4102  140.1635  156.2209 H   0  0  0  0  0  0  0  0  0  0  0  0  # atno 8010 bound_to 7997
  140.6943  143.2996  151.3316 H   0  0  0  0  0  0  0  0  0  0  0  0  # atno 10167 bound_to 10162
  156.0650  130.5870  150.8380 H   0  0  0  0  0  0  0  0  0  0  0  0  # atno 10718 bound_to 10713
  153.3978  135.3865  155.1967 H   0  0  0  0  0  0  0  0  0  0  0  0  # atno 10763 bound_to 10752
  154.8726  135.3764  154.4657 H   0  0  0  0  0  0  0  0  0  0  0  0  # atno 10764 bound_to 10752
  153.5151  135.7087  153.5822 H   0  0  0  0  0  0  0  0  0  0  0  0  # atno 10765 bound_to 10752
  140.0429  134.5848  155.9359 H   0  0  0  0  0  0  0  0  0  0  0  0  # atno 11005 bound_to 11000
  144.7052  139.8590  143.7432 LP  0  0  0  0  0  0  0  0  0  0  0  0  # atno 17320 bound_to 7965
  146.1034  139.4031  143.0333 LP  0  0  0  0  0  0  0  0  0  0  0  0  # atno 17321 bound_to 7965
  139.6379  144.0595  152.2531 LP  0  0  0  0  0  0  0  0  0  0  0  0  # atno 17342 bound_to 10162
  140.0091  144.6237  150.7663 LP  0  0  0  0  0  0  0  0  0  0  0  0  # atno 17343 bound_to 10162
  157.5685  131.0946  150.9453 LP  0  0  0  0  0  0  0  0  0  0  0  0  # atno 17370 bound_to 10713
  156.9674  130.5478  149.5289 LP  0  0  0  0  0  0  0  0  0  0  0  0  # atno 17371 bound_to 10713
  141.1892  133.6564  156.5358 LP  0  0  0  0  0  0  0  0  0  0  0  0  # atno 17394 bound_to 11000
  140.4040  134.7331  157.4797 LP  0  0  0  0  0  0  0  0  0  0  0  0  # atno 17395 bound_to 11000

$$$$
