AV-unprocessed.smi:2782|AV-procd|sdf|10721|dock4
  -GOLD-   2272015163D 1   1.00000     0.00000
 Structure written by MMmdl.
 38 39  0  0  0  0  0  0  0  0  1 V2000
  151.5681  145.1741  159.2928 C   0  0  0  0  0  0  0  0  0  0  0  0
  151.8362  143.6913  159.1367 C   0  0  0  0  0  0  0  0  0  0  0  0
  152.5716  142.9939  160.1150 C   0  0  0  0  0  0  0  0  0  0  0  0
  152.8141  141.6170  159.9611 C   0  0  0  0  0  0  0  0  0  0  0  0
  152.3232  140.9329  158.8320 C   0  0  0  0  0  0  0  0  0  0  0  0
  152.6338  139.2415  158.6689 Cl  0  0  0  0  0  0  0  0  0  0  0  0
  151.5851  141.6181  157.8415 C   0  0  0  0  0  0  0  0  0  0  0  0
  151.1360  140.8825  156.7650 O   0  0  0  0  0  0  0  0  0  0  0  0
  150.3326  141.5289  155.7851 C   0  0  0  0  0  0  0  0  0  0  0  0
  149.7848  140.4905  154.7913 C   0  0  2  0  0  0  0  0  0  0  0  0
  149.3530  141.1808  153.6356 O   0  0  0  0  0  0  0  0  0  0  0  0
  148.6315  139.6444  155.3738 C   0  0  0  0  0  0  0  0  0  0  0  0
  147.4685  140.4659  155.7287 N   0  0  0  0  0  0  0  0  0  0  0  0
  147.0360  141.2988  154.7108 N   0  0  0  0  0  0  0  0  0  0  0  0
  146.0203  142.0813  154.8758 C   0  0  0  0  0  0  0  0  0  0  0  0
  145.6181  142.9508  153.7214 C   0  0  0  0  0  0  0  0  0  0  0  0
  145.3233  142.0881  156.1479 C   0  0  0  0  0  0  0  0  0  0  0  0
  145.7455  141.2725  157.1378 C   0  0  0  0  0  0  0  0  0  0  0  0
  146.8896  140.3803  156.9625 C   0  0  0  0  0  0  0  0  0  0  0  0
  147.2927  139.6185  157.8412 O   0  0  0  0  0  0  0  0  0  0  0  0
  151.3476  143.0067  158.0050 C   0  0  0  0  0  0  0  0  0  0  0  0
  151.9253  145.5449  160.2540 H   0  0  0  0  0  0  0  0  0  0  0  0
  150.4982  145.3745  159.2281 H   0  0  0  0  0  0  0  0  0  0  0  0
  152.0709  145.7329  158.5032 H   0  0  0  0  0  0  0  0  0  0  0  0
  152.9518  143.5097  160.9847 H   0  0  0  0  0  0  0  0  0  0  0  0
  153.3780  141.0841  160.7126 H   0  0  0  0  0  0  0  0  0  0  0  0
  149.5138  142.0829  156.2473 H   0  0  0  0  0  0  0  0  0  0  0  0
  150.9496  142.2439  155.2383 H   0  0  0  0  0  0  0  0  0  0  0  0
  150.6131  139.8468  154.4930 H   0  0  0  0  0  0  0  0  0  0  0  0
  149.2416  140.5535  152.9377 H   0  0  0  0  0  0  0  0  0  0  0  0
  148.3217  138.8951  154.6427 H   0  0  0  0  0  0  0  0  0  0  0  0
  148.9777  139.0691  156.2349 H   0  0  0  0  0  0  0  0  0  0  0  0
  144.6956  143.4904  153.9367 H   0  0  0  0  0  0  0  0  0  0  0  0
  145.4533  142.3548  152.8231 H   0  0  0  0  0  0  0  0  0  0  0  0
  146.3927  143.6863  153.5027 H   0  0  0  0  0  0  0  0  0  0  0  0
  144.4760  142.7417  156.2935 H   0  0  0  0  0  0  0  0  0  0  0  0
  145.2257  141.2778  158.0845 H   0  0  0  0  0  0  0  0  0  0  0  0
  150.7898  143.5705  157.2729 H   0  0  0  0  0  0  0  0  0  0  0  0
  1  2  1  0  0  0  0
  1 22  1  0  0  0  0
  1 23  1  0  0  0  0
  1 24  1  0  0  0  0
  2 21  1  0  0  0  0
  2  3  2  0  0  0  0
  3  4  1  0  0  0  0
  3 25  1  0  0  0  0
  4  5  2  0  0  0  0
  4 26  1  0  0  0  0
  5  6  1  0  0  0  0
  5  7  1  0  0  0  0
  7  8  1  0  0  0  0
  7 21  2  0  0  0  0
  8  9  1  0  0  0  0
  9 10  1  0  0  0  0
  9 27  1  0  0  0  0
  9 28  1  0  0  0  0
 10 11  1  0  0  0  0
 10 12  1  0  0  0  0
 10 29  1  0  0  0  0
 11 30  1  0  0  0  0
 12 13  1  0  0  0  0
 12 31  1  0  0  0  0
 12 32  1  0  0  0  0
 13 19  1  0  0  0  0
 13 14  1  0  0  0  0
 14 15  2  0  0  0  0
 15 16  1  0  0  0  0
 15 17  1  0  0  0  0
 16 33  1  0  0  0  0
 16 34  1  0  0  0  0
 16 35  1  0  0  0  0
 17 18  2  0  0  0  0
 17 36  1  0  0  0  0
 18 19  1  0  0  0  0
 18 37  1  0  0  0  0
 19 20  2  0  0  0  0
 21 38  1  0  0  0  0
M  END
> <s_m_source_file>
AV-unprocessed.smi

> <i_m_source_file_index>
2782

> <i_lp_mmshare_version>
43012

> <i_f3d_flags>
0

> <s_epik_input>
W0NIM11jMVtjSF1bY0hdYyhDbCljKFtjSF0xKU9bQ0gyXVtDQEhdKFtPSF0pW0NIMl1uMm5jKFtDSDNdKVtjSF1bY0hdYzI9Tw==

> <s_epik_cmdline>
J2VwaWtfcHl0aG9uJywgJy1waCcsICc3LjAnLCAnLXRuJywgJzgnLCAnLW1hJywgJzIwMCcsICctbWV0YWxfYmluZGluZycsICctaW1hZScsICc8aW5maWxlLm1hZT4nLCAnLW9tYWUnLCAnPG91dGZpbGUubWFlPic=

> <r_lp_tautomer_probability>
1

> <r_epik_Ionization_Penalty>
2.96353e-07

> <r_epik_Ionization_Penalty_Charging>
1.79179e-07

> <r_epik_Ionization_Penalty_Neutral>
1.17174e-07

> <r_epik_State_Penalty>
-0

> <r_epik_Charging_Adjusted_Penalty>
1.79179e-07

> <i_epik_Tot_Q>
0

> <i_epik_Tot_abs_Q>
0

> <r_epik_Metal_State_Penalty>
-0

> <b_epik_Metal_Only>
0

> <s_lp_Force_Field>
OPLS_2005

> <r_lp_Energy>
32.0669

> <b_lp_Chiralities_Consistent>
1

> <s_lp_Variant>
AV-unprocessed.smi:2782-1

> <Gold.Version>
5.8.1

> <Gold.Id.Protein>
6NUR|6NUR_protein|mol2

> <Gold.PLP.Fitness>
49.1345

> <Gold.PLP.PLP>
-45.2431

> <Gold.PLP.part.hbond>
-3.7787

> <Gold.PLP.part.metal>
0.0000

> <Gold.PLP.part.buried>
-7.0879

> <Gold.PLP.part.nonpolar>
-33.9728

> <Gold.PLP.part.repulsive>
0.1514

> <Gold.PLP.ligand.clash>
0.0000

> <Gold.PLP.ligand.torsion>
0.2305

> <Gold.PLP.Chemscore.Hbond>
1.4352

> <Gold.PLP.Chemscore.CHOScore>
0.0000

> <Gold.PLP.Chemscore.Metal>
0.0000

> <Gold.Chemscore.Hbonds>
donor molecule, donor type, donor heavy atom, donor atom, acceptor molecule, acceptor atom, score
      L1  H    11    30       P1  7957  0.96
      P1  H  8011  8017       L1    11  0.34

> <Gold.PLP.Chemscore.Internal.Correction>
0.0468

> <Gold.Rescore>
     Score         DG    S(hbond)    S(metal)    S(lipo)     H(rot)  DE(clash)    DE(int)     intcor
     14.76     -16.86       0.98        0.00     117.99       2.22       0.18       1.93       ----

> <Gold.Chemscore.Fitness>
14.7555

> <Gold.Chemscore.DG>
-16.8616

> <Gold.Chemscore.ZeroCoef>
-5.4800

> <Gold.Chemscore.Hbond>
0.9758

> <Gold.Chemscore.Metal>
0.0000

> <Gold.Chemscore.Lipo>
117.9950

> <Gold.Chemscore.Internal_Hbond>
0.0000

> <Gold.Chemscore.DEClash>
0.1786

> <Gold.Chemscore.DEInternal>
1.9275

> <Gold.Chemscore.Rot>
2.2199

> <Gold.Chemscore.Internal.Correction>
   9.000000E+99

> <Gold.Chemscore.Hbonds>
donor molecule, donor type, donor heavy atom, donor atom, acceptor molecule, acceptor atom, score
      L1  H    11    30       P1  7957  0.92
      P1  H  8011  8017       L1    11  0.01

> <Gold.Chemscore.Hbond.Weighted>
-3.2590

> <Gold.Chemscore.Metal.Weighted>
-0.0000

> <Gold.Chemscore.Lipo.Weighted>
-13.8054

> <Gold.Chemscore.Internal_Hbond.Weighted>
0.0000

> <Gold.Chemscore.DEClash.Weighted>
0.1786

> <Gold.Chemscore.DEInternal.Weighted>
1.9275

> <Gold.Chemscore.Rot.Weighted>
5.6829

> <Gold.Chemscore.Internal.Correction.Weighted>
   9.000000E+99

> <Gold.Protein.RotatedTorsions>
[ 6907 6896 6895 6894 ] final  -69.01 input  -60.11 | X-H torsion
[ 7974 7965 7964 7962 ] final -165.64 input  175.53 | X-H torsion
[ 8008 7997 7996 7995 ] final -127.37 input   59.86 | X-H torsion
[ 10167 10162 10161 10158 ] final  -27.85 input  -65.29 | X-H torsion
[ 10718 10713 10712 10709 ] final -174.60 input   66.30 | X-H torsion
[ 10763 10752 10751 10750 ] final  -51.82 input  -60.55 | X-H torsion
[ 11005 11000 10999 10996 ] final -154.46 input  -57.11 | X-H torsion

> <Gold.Protein.ActiveResidues>
 VAL166  LYS551  ARG553  GLY616  TRP617  ASP618  TYR619  PRO620  LYS621  CYS622 
 ASP623  PHE694  ASN695  SER759  ASP760  ASP761  ALA762  ILE779  LEU786  VAL792 
 PHE793  MET794  SER795  GLU796  ALA797  LYS798  CYS799  TRP800  GLU811  SER814 

> <Gold.Protein.RotatedAtoms>
  150.7327  134.5657  159.5864 H   0  0  0  0  0  0  0  0  0  0  0  0  # atno 6907 bound_to 6896
  152.3109  134.7495  160.0345 H   0  0  0  0  0  0  0  0  0  0  0  0  # atno 6908 bound_to 6896
  151.8043  133.3338  159.3573 H   0  0  0  0  0  0  0  0  0  0  0  0  # atno 6909 bound_to 6896
  144.7265  140.2784  143.6239 H   0  0  0  0  0  0  0  0  0  0  0  0  # atno 7974 bound_to 7965
  155.2451  140.0430  157.2980 H   0  0  0  0  0  0  0  0  0  0  0  0  # atno 8008 bound_to 7997
  154.5804  140.2399  155.8032 H   0  0  0  0  0  0  0  0  0  0  0  0  # atno 8009 bound_to 7997
  156.2189  140.2976  155.9912 H   0  0  0  0  0  0  0  0  0  0  0  0  # atno 8010 bound_to 7997
  140.7274  143.4059  151.1187 H   0  0  0  0  0  0  0  0  0  0  0  0  # atno 10167 bound_to 10162
  156.7875  130.9506  151.3120 H   0  0  0  0  0  0  0  0  0  0  0  0  # atno 10718 bound_to 10713
  154.1327  135.6517  153.4925 H   0  0  0  0  0  0  0  0  0  0  0  0  # atno 10763 bound_to 10752
  153.0190  135.5296  154.6985 H   0  0  0  0  0  0  0  0  0  0  0  0  # atno 10764 bound_to 10752
  154.6224  135.2966  155.0281 H   0  0  0  0  0  0  0  0  0  0  0  0  # atno 10765 bound_to 10752
  140.6971  134.3978  157.5213 H   0  0  0  0  0  0  0  0  0  0  0  0  # atno 11005 bound_to 11000
  145.7973  139.1950  143.2068 LP  0  0  0  0  0  0  0  0  0  0  0  0  # atno 17320 bound_to 7965
  146.0706  140.7873  142.9690 LP  0  0  0  0  0  0  0  0  0  0  0  0  # atno 17321 bound_to 7965
  139.7685  143.8529  152.3115 LP  0  0  0  0  0  0  0  0  0  0  0  0  # atno 17342 bound_to 10162
  139.8440  144.7196  150.9296 LP  0  0  0  0  0  0  0  0  0  0  0  0  # atno 17343 bound_to 10162
  157.6617  130.8971  149.9843 LP  0  0  0  0  0  0  0  0  0  0  0  0  # atno 17370 bound_to 10713
  156.1180  130.3647  149.9936 LP  0  0  0  0  0  0  0  0  0  0  0  0  # atno 17371 bound_to 10713
  139.8907  134.8798  156.2356 LP  0  0  0  0  0  0  0  0  0  0  0  0  # atno 17394 bound_to 11000
  141.0194  133.7050  156.1243 LP  0  0  0  0  0  0  0  0  0  0  0  0  # atno 17395 bound_to 11000

$$$$
