AV-unprocessed.smi:1784|AV-procd|sdf|7197|dock1
  -GOLD-   22720 8433D 1   1.00000     0.00000
 Structure written by MMmdl.
 43 45  0  0  0  0  0  0  0  0  1 V2000
  149.8699  135.2083  157.7363 O   0  0  0  0  0  0  0  0  0  0  0  0
  149.6484  136.3128  158.2330 C   0  0  0  0  0  0  0  0  0  0  0  0
  148.8009  136.5100  159.2519 N   0  0  0  0  0  0  0  0  0  0  0  0
  147.9992  135.4700  159.8858 C   0  0  0  0  0  0  0  0  0  0  0  0
  147.4171  135.9549  161.2231 C   0  0  1  0  0  0  0  0  0  0  0  0
  146.9951  134.8280  162.1628 C   0  0  0  0  0  0  0  0  0  0  0  0
  147.0844  135.4649  163.5415 C   0  0  0  0  0  0  0  0  0  0  0  0
  147.9148  136.7325  163.3165 C   0  0  0  0  0  0  0  0  0  0  0  0
  148.4054  136.6268  161.9876 O   0  0  0  0  0  0  0  0  0  0  0  0
  150.1898  137.4713  157.8220 N   0  0  0  0  0  0  0  0  0  0  0  0
  151.1082  137.6869  156.7551 C   0  0  0  0  0  0  0  0  0  0  0  0
  151.0832  136.9200  155.5648 C   0  0  0  0  0  0  0  0  0  0  0  0
  152.0321  137.1803  154.5600 C   0  0  0  0  0  0  0  0  0  0  0  0
  152.9798  138.1939  154.7838 C   0  0  0  0  0  0  0  0  0  0  0  0
  153.0278  138.9210  155.9182 N   0  0  0  0  0  0  0  0  0  0  0  0
  152.1151  138.6803  156.8913 C   0  0  0  0  0  0  0  0  0  0  0  0
  152.2132  139.4317  158.0814 N   0  0  0  0  0  0  0  0  0  0  0  0
  153.4671  139.2147  158.7992 C   0  0  0  0  0  0  0  0  0  0  0  0
  153.9233  140.5839  159.3108 C   0  0  0  0  0  0  0  0  0  0  0  0
  153.2670  141.5564  158.3386 C   0  0  0  0  0  0  0  0  0  0  0  0
  151.9393  140.8666  158.0356 C   0  0  0  0  0  0  0  0  0  0  0  0
  148.6741  137.4519  159.5920 H   0  0  0  0  0  0  0  0  0  0  0  0
  147.1973  135.1565  159.2154 H   0  0  0  0  0  0  0  0  0  0  0  0
  148.6301  134.5950  160.0441 H   0  0  0  0  0  0  0  0  0  0  0  0
  146.5736  136.6282  161.0569 H   0  0  0  0  0  0  0  0  0  0  0  0
  146.0009  134.4424  161.9354 H   0  0  0  0  0  0  0  0  0  0  0  0
  147.7008  133.9988  162.0985 H   0  0  0  0  0  0  0  0  0  0  0  0
  146.0970  135.7183  163.9290 H   0  0  0  0  0  0  0  0  0  0  0  0
  147.5611  134.7894  164.2524 H   0  0  0  0  0  0  0  0  0  0  0  0
  147.2874  137.6215  163.3967 H   0  0  0  0  0  0  0  0  0  0  0  0
  148.7342  136.8288  164.0293 H   0  0  0  0  0  0  0  0  0  0  0  0
  149.8314  138.3081  158.2582 H   0  0  0  0  0  0  0  0  0  0  0  0
  150.3648  136.1297  155.4112 H   0  0  0  0  0  0  0  0  0  0  0  0
  152.0358  136.6123  153.6418 H   0  0  0  0  0  0  0  0  0  0  0  0
  153.7255  138.4214  154.0365 H   0  0  0  0  0  0  0  0  0  0  0  0
  153.3289  138.5116  159.6207 H   0  0  0  0  0  0  0  0  0  0  0  0
  154.2215  138.7982  158.1296 H   0  0  0  0  0  0  0  0  0  0  0  0
  153.5354  140.7515  160.3164 H   0  0  0  0  0  0  0  0  0  0  0  0
  155.0085  140.6828  159.3464 H   0  0  0  0  0  0  0  0  0  0  0  0
  153.1418  142.5576  158.7516 H   0  0  0  0  0  0  0  0  0  0  0  0
  153.8634  141.6338  157.4285 H   0  0  0  0  0  0  0  0  0  0  0  0
  151.5049  141.2112  157.0969 H   0  0  0  0  0  0  0  0  0  0  0  0
  151.2157  141.0916  158.8197 H   0  0  0  0  0  0  0  0  0  0  0  0
  1  2  2  0  0  0  0
  2  3  1  0  0  0  0
  2 10  1  0  0  0  0
  3  4  1  0  0  0  0
  3 22  1  0  0  0  0
  4  5  1  0  0  0  0
  4 23  1  0  0  0  0
  4 24  1  0  0  0  0
  5  9  1  0  0  0  0
  5  6  1  0  0  0  0
  5 25  1  0  0  0  0
  6  7  1  0  0  0  0
  6 26  1  0  0  0  0
  6 27  1  0  0  0  0
  7  8  1  0  0  0  0
  7 28  1  0  0  0  0
  7 29  1  0  0  0  0
  8  9  1  0  0  0  0
  8 30  1  0  0  0  0
  8 31  1  0  0  0  0
 10 11  1  0  0  0  0
 10 32  1  0  0  0  0
 11 16  1  0  0  0  0
 11 12  2  0  0  0  0
 12 13  1  0  0  0  0
 12 33  1  0  0  0  0
 13 14  2  0  0  0  0
 13 34  1  0  0  0  0
 14 15  1  0  0  0  0
 14 35  1  0  0  0  0
 15 16  2  0  0  0  0
 16 17  1  0  0  0  0
 17 21  1  0  0  0  0
 17 18  1  0  0  0  0
 18 19  1  0  0  0  0
 18 36  1  0  0  0  0
 18 37  1  0  0  0  0
 19 20  1  0  0  0  0
 19 38  1  0  0  0  0
 19 39  1  0  0  0  0
 20 21  1  0  0  0  0
 20 40  1  0  0  0  0
 20 41  1  0  0  0  0
 21 42  1  0  0  0  0
 21 43  1  0  0  0  0
M  END
> <s_m_source_file>
AV-unprocessed.smi

> <i_m_source_file_index>
1784

> <i_lp_mmshare_version>
43012

> <i_f3d_flags>
0

> <s_epik_input>
TzFbQ0gyXVtDSDJdW0NIMl1bQ0BIXTFbQ0gyXVtOSF1DKD1PKVtOSF1jMltjSF1bY0hdW2NIXW5jMk4zW0NIMl1bQ0gyXVtDSDJdW0NIMl0z

> <s_epik_cmdline>
J2VwaWtfcHl0aG9uJywgJy1waCcsICc3LjAnLCAnLXRuJywgJzgnLCAnLW1hJywgJzIwMCcsICctbWV0YWxfYmluZGluZycsICctaW1hZScsICc8aW5maWxlLm1hZT4nLCAnLW9tYWUnLCAnPG91dGZpbGUubWFlPic=

> <r_lp_tautomer_probability>
1

> <r_epik_Ionization_Penalty>
0.0982482

> <r_epik_Ionization_Penalty_Charging>
0

> <r_epik_Ionization_Penalty_Neutral>
0.0982482

> <r_epik_State_Penalty>
0.0877864

> <r_epik_Charging_Adjusted_Penalty>
0.0877864

> <i_epik_Tot_Q>
0

> <i_epik_Tot_abs_Q>
0

> <r_epik_Metal_State_Penalty>
0.0752567

> <b_epik_Metal_Only>
0

> <s_lp_Force_Field>
OPLS_2005

> <r_lp_Energy>
44.9043

> <b_lp_Chiralities_Consistent>
1

> <s_lp_Variant>
AV-unprocessed.smi:1784-2

> <Gold.Version>
5.8.1

> <Gold.Id.Protein>
6NUR|6NUR_protein|mol2

> <Gold.PLP.Fitness>
42.1414

> <Gold.PLP.PLP>
-34.8909

> <Gold.PLP.part.hbond>
-3.0157

> <Gold.PLP.part.metal>
0.0000

> <Gold.PLP.part.buried>
-3.3398

> <Gold.PLP.part.nonpolar>
-30.0693

> <Gold.PLP.part.repulsive>
0.2682

> <Gold.PLP.ligand.clash>
0.0000

> <Gold.PLP.ligand.torsion>
0.5346

> <Gold.PLP.Chemscore.Hbond>
2.7293

> <Gold.PLP.Chemscore.CHOScore>
0.0000

> <Gold.PLP.Chemscore.Metal>
0.0000

> <Gold.Chemscore.Hbonds>
donor molecule, donor type, donor heavy atom, donor atom, acceptor molecule, acceptor atom, score
      P1  H  6896  6907       L1     1  0.37
      P1  H  6931  6943       L1     9  0.75
      P1  H  7997  8009       L1    15  1.00

> <Gold.PLP.Chemscore.Internal.Correction>
0.1319

> <Gold.Rescore>
     Score         DG    S(hbond)    S(metal)    S(lipo)     H(rot)  DE(clash)    DE(int)     intcor
     18.87     -21.91       2.33        0.00     104.00       1.38       1.84       1.20       ----

> <Gold.Chemscore.Fitness>
18.8705

> <Gold.Chemscore.DG>
-21.9114

> <Gold.Chemscore.ZeroCoef>
-5.4800

> <Gold.Chemscore.Hbond>
2.3337

> <Gold.Chemscore.Metal>
0.0000

> <Gold.Chemscore.Lipo>
104.0046

> <Gold.Chemscore.Internal_Hbond>
0.0000

> <Gold.Chemscore.DEClash>
1.8365

> <Gold.Chemscore.DEInternal>
1.2044

> <Gold.Chemscore.Rot>
1.3796

> <Gold.Chemscore.Internal.Correction>
   9.000000E+99

> <Gold.Chemscore.Hbonds>
donor molecule, donor type, donor heavy atom, donor atom, acceptor molecule, acceptor atom, score
      P1  H  6896  6907       L1     1  0.02
      P1  H  6931  6943       L1     9  0.09
      P1  H  7997  8009       L1    15  0.78

> <Gold.Chemscore.Hbond.Weighted>
-7.7945

> <Gold.Chemscore.Metal.Weighted>
-0.0000

> <Gold.Chemscore.Lipo.Weighted>
-12.1685

> <Gold.Chemscore.Internal_Hbond.Weighted>
0.0000

> <Gold.Chemscore.DEClash.Weighted>
1.8365

> <Gold.Chemscore.DEInternal.Weighted>
1.2044

> <Gold.Chemscore.Rot.Weighted>
3.5317

> <Gold.Chemscore.Internal.Correction.Weighted>
   9.000000E+99

> <Gold.Protein.RotatedTorsions>
[ 6907 6896 6895 6894 ] final  -69.03 input  -60.11 | X-H torsion
[ 7974 7965 7964 7962 ] final  114.29 input  175.53 | X-H torsion
[ 8008 7997 7996 7995 ] final -173.59 input   59.86 | X-H torsion
[ 10167 10162 10161 10158 ] final   -2.14 input  -65.29 | X-H torsion
[ 10718 10713 10712 10709 ] final  -43.23 input   66.30 | X-H torsion
[ 10763 10752 10751 10750 ] final   49.56 input  -60.55 | X-H torsion
[ 11005 11000 10999 10996 ] final  148.57 input  -57.11 | X-H torsion

> <Gold.Protein.ActiveResidues>
 VAL166  LYS551  ARG553  GLY616  TRP617  ASP618  TYR619  PRO620  LYS621  CYS622 
 ASP623  PHE694  ASN695  SER759  ASP760  ASP761  ALA762  ILE779  LEU786  VAL792 
 PHE793  MET794  SER795  GLU796  ALA797  LYS798  CYS799  TRP800  GLU811  SER814 

> <Gold.Protein.RotatedAtoms>
  150.7326  134.5655  159.5863 H   0  0  0  0  0  0  0  0  0  0  0  0  # atno 6907 bound_to 6896
  152.3107  134.7497  160.0346 H   0  0  0  0  0  0  0  0  0  0  0  0  # atno 6908 bound_to 6896
  151.8046  133.3338  159.3574 H   0  0  0  0  0  0  0  0  0  0  0  0  # atno 6909 bound_to 6896
  145.2062  139.2928  143.4292 H   0  0  0  0  0  0  0  0  0  0  0  0  # atno 7974 bound_to 7965
  155.9594  140.1141  157.0909 H   0  0  0  0  0  0  0  0  0  0  0  0  # atno 8008 bound_to 7997
  154.4128  140.1185  156.5225 H   0  0  0  0  0  0  0  0  0  0  0  0  # atno 8009 bound_to 7997
  155.6740  140.3473  155.4831 H   0  0  0  0  0  0  0  0  0  0  0  0  # atno 8010 bound_to 7997
  140.6839  143.6693  150.8199 H   0  0  0  0  0  0  0  0  0  0  0  0  # atno 10167 bound_to 10162
  156.2512  130.4188  149.8648 H   0  0  0  0  0  0  0  0  0  0  0  0  # atno 10718 bound_to 10713
  152.9786  135.5908  154.4109 H   0  0  0  0  0  0  0  0  0  0  0  0  # atno 10763 bound_to 10752
  154.3744  135.2767  155.2249 H   0  0  0  0  0  0  0  0  0  0  0  0  # atno 10764 bound_to 10752
  154.4191  135.6063  153.6053 H   0  0  0  0  0  0  0  0  0  0  0  0  # atno 10765 bound_to 10752
  140.0971  134.9006  157.1739 H   0  0  0  0  0  0  0  0  0  0  0  0  # atno 11005 bound_to 11000
  146.3407  140.2323  142.8593 LP  0  0  0  0  0  0  0  0  0  0  0  0  # atno 17320 bound_to 7965
  144.9899  140.8537  143.5345 LP  0  0  0  0  0  0  0  0  0  0  0  0  # atno 17321 bound_to 7965
  140.0397  143.5359  152.2723 LP  0  0  0  0  0  0  0  0  0  0  0  0  # atno 17342 bound_to 10162
  139.6182  144.7624  151.2800 LP  0  0  0  0  0  0  0  0  0  0  0  0  # atno 17343 bound_to 10162
  156.6196  130.8620  151.3472 LP  0  0  0  0  0  0  0  0  0  0  0  0  # atno 17370 bound_to 10713
  157.7215  130.9565  150.1458 LP  0  0  0  0  0  0  0  0  0  0  0  0  # atno 17371 bound_to 10713
  140.3271  134.2851  155.7235 LP  0  0  0  0  0  0  0  0  0  0  0  0  # atno 17394 bound_to 11000
  141.2095  133.7747  156.9992 LP  0  0  0  0  0  0  0  0  0  0  0  0  # atno 17395 bound_to 11000

$$$$
