AV-unprocessed.smi:3347|AV-procd|sdf|12914|dock2
  -GOLD-   2272019333D 1   1.00000     0.00000
 Structure written by MMmdl.
 40 42  0  0  0  0  0  0  0  0  2 V2000
  150.6396  140.9824  157.0692 O   0  0  0  0  0  0  0  0  0  0  0  0
  150.1231  142.0279  156.6758 C   0  0  0  0  0  0  0  0  0  0  0  0
  149.3564  142.1041  155.5786 N   0  0  0  0  0  0  0  0  0  0  0  0
  149.0465  140.9940  154.6824 C   0  0  0  0  0  0  0  0  0  0  0  0
  147.5287  140.7965  154.5022 C   0  0  1  0  0  0  0  0  0  0  0  0
  146.8445  140.1592  155.7099 C   0  0  0  0  0  0  0  0  0  0  0  0
  145.3684  140.5443  155.5554 C   0  0  0  0  0  0  0  0  0  0  0  0
  145.3252  141.7176  154.6519 N   0  3  1  0  0  0  0  0  0  0  0  0
  144.5119  142.8435  155.1586 C   0  0  0  0  0  0  0  0  0  0  0  0
  144.9210  144.1842  154.5975 C   0  0  0  0  0  0  0  0  0  0  0  0
  145.2889  143.8118  156.0177 C   0  0  0  0  0  0  0  0  0  0  0  0
  146.7189  142.0841  154.3287 C   0  0  0  0  0  0  0  0  0  0  0  0
  150.2230  143.2235  157.2814 N   0  0  0  0  0  0  0  0  0  0  0  0
  150.9317  143.5652  158.4653 C   0  0  0  0  0  0  0  0  0  0  0  0
  151.7156  142.6594  159.2210 C   0  0  0  0  0  0  0  0  0  0  0  0
  152.3809  143.1306  160.3692 C   0  0  0  0  0  0  0  0  0  0  0  0
  152.2457  144.4887  160.7161 C   0  0  0  0  0  0  0  0  0  0  0  0
  151.5127  145.3658  159.9989 N   0  0  0  0  0  0  0  0  0  0  0  0
  150.8782  144.9072  158.8991 C   0  0  0  0  0  0  0  0  0  0  0  0
  148.9700  143.0044  155.3340 H   0  0  0  0  0  0  0  0  0  0  0  0
  149.4997  141.2184  153.7165 H   0  0  0  0  0  0  0  0  0  0  0  0
  149.5182  140.0738  155.0318 H   0  0  0  0  0  0  0  0  0  0  0  0
  147.3522  140.1568  153.6356 H   0  0  0  0  0  0  0  0  0  0  0  0
  146.9938  139.0801  155.7588 H   0  0  0  0  0  0  0  0  0  0  0  0
  147.2371  140.5908  156.6320 H   0  0  0  0  0  0  0  0  0  0  0  0
  144.8048  139.7344  155.0914 H   0  0  0  0  0  0  0  0  0  0  0  0
  144.9132  140.7489  156.5257 H   0  0  0  0  0  0  0  0  0  0  0  0
  143.4661  142.6295  155.3735 H   0  0  0  0  0  0  0  0  0  0  0  0
  145.7221  144.2117  153.8610 H   0  0  0  0  0  0  0  0  0  0  0  0
  144.1418  144.9318  154.4646 H   0  0  0  0  0  0  0  0  0  0  0  0
  144.7516  144.3147  156.8192 H   0  0  0  0  0  0  0  0  0  0  0  0
  146.3346  143.5919  156.2256 H   0  0  0  0  0  0  0  0  0  0  0  0
  147.0704  142.8406  155.0330 H   0  0  0  0  0  0  0  0  0  0  0  0
  146.7955  142.4985  153.3231 H   0  0  0  0  0  0  0  0  0  0  0  0
  149.6835  143.9727  156.8730 H   0  0  0  0  0  0  0  0  0  0  0  0
  151.8327  141.6243  158.9416 H   0  0  0  0  0  0  0  0  0  0  0  0
  152.9862  142.4662  160.9678 H   0  0  0  0  0  0  0  0  0  0  0  0
  152.7439  144.8817  161.5900 H   0  0  0  0  0  0  0  0  0  0  0  0
  150.3027  145.6377  158.3492 H   0  0  0  0  0  0  0  0  0  0  0  0
  144.9031  141.3993  153.7912 H   0  0  0  0  0  0  0  0  0  0  0  0
  1  2  2  0  0  0  0
  2  3  1  0  0  0  0
  2 13  1  0  0  0  0
  3  4  1  0  0  0  0
  3 20  1  0  0  0  0
  4  5  1  0  0  0  0
  4 21  1  0  0  0  0
  4 22  1  0  0  0  0
  5 12  1  0  0  0  0
  5  6  1  0  0  0  0
  5 23  1  0  0  0  0
  6  7  1  0  0  0  0
  6 24  1  0  0  0  0
  6 25  1  0  0  0  0
  7  8  1  0  0  0  0
  7 26  1  0  0  0  0
  7 27  1  0  0  0  0
  8  9  1  0  0  0  0
  8 12  1  0  0  0  0
  8 40  1  0  0  0  0
  9 11  1  0  0  0  0
  9 10  1  0  0  0  0
  9 28  1  0  0  0  0
 10 11  1  0  0  0  0
 10 29  1  0  0  0  0
 10 30  1  0  0  0  0
 11 31  1  0  0  0  0
 11 32  1  0  0  0  0
 12 33  1  0  0  0  0
 12 34  1  0  0  0  0
 13 14  1  0  0  0  0
 13 35  1  0  0  0  0
 14 19  1  0  0  0  0
 14 15  2  0  0  0  0
 15 16  1  0  0  0  0
 15 36  1  0  0  0  0
 16 17  2  0  0  0  0
 16 37  1  0  0  0  0
 17 18  1  0  0  0  0
 17 38  1  0  0  0  0
 18 19  2  0  0  0  0
 19 39  1  0  0  0  0
M  CHG  1   8   1
M  END
> <s_m_source_file>
AV-unprocessed.smi

> <i_m_source_file_index>
3347

> <i_lp_mmshare_version>
43012

> <i_f3d_flags>
0

> <s_epik_input>
W2NIXTFuW2NIXVtjSF1bY0hdYzFbTkhdQyg9TylbTkhdW0NIMl1bQ0BASF0yW0NIMl1bQ0gyXU4oW0NIMl0yKVtDSF0zW0NIMl1bQ0gyXTM=

> <s_epik_cmdline>
J2VwaWtfcHl0aG9uJywgJy1waCcsICc3LjAnLCAnLXRuJywgJzgnLCAnLW1hJywgJzIwMCcsICctbWV0YWxfYmluZGluZycsICctaW1hZScsICc8aW5maWxlLm1hZT4nLCAnLW9tYWUnLCAnPG91dGZpbGUubWFlPic=

> <r_epik_Ionization_Penalty>
0.00442629

> <r_epik_Ionization_Penalty_Charging>
0.000203384

> <r_epik_Ionization_Penalty_Neutral>
0.00422291

> <r_epik_State_Penalty>
0.00301008

> <r_epik_Charging_Adjusted_Penalty>
0.00321347

> <i_epik_Tot_Q>
1

> <i_epik_Tot_abs_Q>
1

> <r_epik_Metal_State_Penalty>
-0

> <b_epik_Metal_Only>
0

> <s_lp_Force_Field>
OPLS_2005

> <r_lp_Energy>
39.1383

> <b_lp_Chiralities_Consistent>
1

> <s_lp_Variant>
AV-unprocessed.smi:3347-4

> <Gold.Version>
5.8.1

> <Gold.Id.Protein>
6NUR|6NUR_protein|mol2

> <Gold.PLP.Fitness>
51.0150

> <Gold.PLP.PLP>
-36.5541

> <Gold.PLP.part.hbond>
-3.0000

> <Gold.PLP.part.metal>
0.0000

> <Gold.PLP.part.buried>
-6.3397

> <Gold.PLP.part.nonpolar>
-28.3225

> <Gold.PLP.part.repulsive>
0.3833

> <Gold.PLP.ligand.clash>
0.0000

> <Gold.PLP.ligand.torsion>
0.7671

> <Gold.PLP.Chemscore.Hbond>
3.9760

> <Gold.PLP.Chemscore.CHOScore>
0.9342

> <Gold.PLP.Chemscore.Metal>
0.0000

> <Gold.Chemscore.Hbonds>
donor molecule, donor type, donor heavy atom, donor atom, acceptor molecule, acceptor atom, score
      L1  H     3    20       P1  8028  0.98
      L1  H     8    40       P1 10175  2.00
      L1  H    13    35       P1  8028  1.00
      L1  C    19    39       P1  8029  0.75

> <Gold.PLP.Chemscore.Internal.Correction>
1.2646

> <Gold.Rescore>
     Score         DG    S(hbond)    S(metal)    S(lipo)     H(rot)  DE(clash)    DE(int)     intcor
     19.91     -21.93       2.74        0.00      93.44       1.42       0.12       1.89       ----

> <Gold.Chemscore.Fitness>
19.9142

> <Gold.Chemscore.DG>
-21.9260

> <Gold.Chemscore.ZeroCoef>
-5.4800

> <Gold.Chemscore.Hbond>
2.7406

> <Gold.Chemscore.Metal>
0.0000

> <Gold.Chemscore.Lipo>
93.4392

> <Gold.Chemscore.Internal_Hbond>
0.0000

> <Gold.Chemscore.DEClash>
0.1201

> <Gold.Chemscore.DEInternal>
1.8916

> <Gold.Chemscore.Rot>
1.4219

> <Gold.Chemscore.Internal.Correction>
   9.000000E+99

> <Gold.Chemscore.Hbonds>
donor molecule, donor type, donor heavy atom, donor atom, acceptor molecule, acceptor atom, score
      L1  H     3    20       P1  8028  0.93
      L1  H     8    40       P1 10175  0.29
      L1  H    13    35       P1  8028  0.89

> <Gold.Chemscore.Hbond.Weighted>
-9.1537

> <Gold.Chemscore.Metal.Weighted>
-0.0000

> <Gold.Chemscore.Lipo.Weighted>
-10.9324

> <Gold.Chemscore.Internal_Hbond.Weighted>
0.0000

> <Gold.Chemscore.DEClash.Weighted>
0.1201

> <Gold.Chemscore.DEInternal.Weighted>
1.8916

> <Gold.Chemscore.Rot.Weighted>
3.6401

> <Gold.Chemscore.Internal.Correction.Weighted>
   9.000000E+99

> <Gold.Protein.RotatedTorsions>
[ 6907 6896 6895 6894 ] final -149.65 input  -60.11 | X-H torsion
[ 7974 7965 7964 7962 ] final -170.70 input  175.53 | X-H torsion
[ 8008 7997 7996 7995 ] final  103.03 input   59.86 | X-H torsion
[ 10167 10162 10161 10158 ] final  -50.73 input  -65.29 | X-H torsion
[ 10718 10713 10712 10709 ] final -140.90 input   66.30 | X-H torsion
[ 10763 10752 10751 10750 ] final -176.19 input  -60.55 | X-H torsion
[ 11005 11000 10999 10996 ] final  -47.53 input  -57.11 | X-H torsion

> <Gold.Protein.ActiveResidues>
 VAL166  LYS551  ARG553  GLY616  TRP617  ASP618  TYR619  PRO620  LYS621  CYS622 
 ASP623  PHE694  ASN695  SER759  ASP760  ASP761  ALA762  ILE779  LEU786  VAL792 
 PHE793  MET794  SER795  GLU796  ALA797  LYS798  CYS799  TRP800  GLU811  SER814 

> <Gold.Protein.RotatedAtoms>
  151.1872  133.4689  159.2594 H   0  0  0  0  0  0  0  0  0  0  0  0  # atno 6907 bound_to 6896
  151.1200  135.0074  159.8544 H   0  0  0  0  0  0  0  0  0  0  0  0  # atno 6908 bound_to 6896
  152.5455  134.1784  159.8678 H   0  0  0  0  0  0  0  0  0  0  0  0  # atno 6909 bound_to 6896
  144.7166  140.2032  143.6336 H   0  0  0  0  0  0  0  0  0  0  0  0  # atno 7974 bound_to 7965
  156.1447  140.3171  155.8552 H   0  0  0  0  0  0  0  0  0  0  0  0  # atno 8008 bound_to 7997
  155.4086  140.0504  157.3050 H   0  0  0  0  0  0  0  0  0  0  0  0  # atno 8009 bound_to 7997
  154.5006  140.2128  155.9366 H   0  0  0  0  0  0  0  0  0  0  0  0  # atno 8010 bound_to 7997
  140.6623  143.2646  151.4402 H   0  0  0  0  0  0  0  0  0  0  0  0  # atno 10167 bound_to 10162
  156.3277  130.7569  151.1681 H   0  0  0  0  0  0  0  0  0  0  0  0  # atno 10718 bound_to 10713
  154.5754  135.2831  155.0786 H   0  0  0  0  0  0  0  0  0  0  0  0  # atno 10763 bound_to 10752
  154.2143  135.6402  153.5128 H   0  0  0  0  0  0  0  0  0  0  0  0  # atno 10764 bound_to 10752
  153.0071  135.5499  154.6390 H   0  0  0  0  0  0  0  0  0  0  0  0  # atno 10765 bound_to 10752
  141.0646  133.6698  156.3311 H   0  0  0  0  0  0  0  0  0  0  0  0  # atno 11005 bound_to 11000
  145.8660  139.2247  143.1689 LP  0  0  0  0  0  0  0  0  0  0  0  0  # atno 17320 bound_to 7965
  146.0129  140.8419  142.9962 LP  0  0  0  0  0  0  0  0  0  0  0  0  # atno 17321 bound_to 7965
  139.5861  144.1602  152.2030 LP  0  0  0  0  0  0  0  0  0  0  0  0  # atno 17342 bound_to 10162
  140.0942  144.5595  150.7033 LP  0  0  0  0  0  0  0  0  0  0  0  0  # atno 17343 bound_to 10162
  157.7424  131.0490  150.5023 LP  0  0  0  0  0  0  0  0  0  0  0  0  # atno 17370 bound_to 10713
  156.5185  130.4156  149.6263 LP  0  0  0  0  0  0  0  0  0  0  0  0  # atno 17371 bound_to 10713
  140.5799  134.5756  157.5477 LP  0  0  0  0  0  0  0  0  0  0  0  0  # atno 17394 bound_to 11000
  139.9464  134.7694  156.0551 LP  0  0  0  0  0  0  0  0  0  0  0  0  # atno 17395 bound_to 11000

$$$$
