AV-unprocessed.smi:2262|AV-procd|sdf|9138|dock1
  -GOLD-   2272012343D 1   1.00000     0.00000
 Structure written by MMmdl.
 43 44  0  0  0  0  0  0  0  0  2 V2000
  143.8772  132.5395  148.6009 C   0  0  0  0  0  0  0  0  0  0  0  0
  144.8256  133.2019  149.5219 N   0  3  2  0  0  0  0  0  0  0  0  0
  145.3433  132.2766  150.5602 C   0  0  0  0  0  0  0  0  0  0  0  0
  146.4173  132.9588  151.4235 C   0  0  0  0  0  0  0  0  0  0  0  0
  145.8780  134.2531  152.0610 C   0  0  1  0  0  0  0  0  0  0  0  0
  146.9275  134.9450  152.8033 N   0  0  0  0  0  0  0  0  0  0  0  0
  146.9960  135.0281  154.1401 C   0  0  0  0  0  0  0  0  0  0  0  0
  146.1676  134.5145  154.8929 O   0  0  0  0  0  0  0  0  0  0  0  0
  148.0740  135.7309  154.5307 N   0  0  0  0  0  0  0  0  0  0  0  0
  148.4802  136.0453  155.8548 C   0  0  0  0  0  0  0  0  0  0  0  0
  149.8135  136.4924  155.9855 C   0  0  0  0  0  0  0  0  0  0  0  0
  150.3064  136.8324  157.2597 C   0  0  0  0  0  0  0  0  0  0  0  0
  149.4525  136.7177  158.3711 C   0  0  0  0  0  0  0  0  0  0  0  0
  148.1359  136.2649  158.1628 C   0  0  0  0  0  0  0  0  0  0  0  0
  147.2931  136.1532  159.2496 O   0  0  0  0  0  0  0  0  0  0  0  0
  147.6862  136.7584  160.4784 C   0  0  0  0  0  0  0  0  0  0  0  0
  146.9488  136.0647  161.6280 C   0  0  0  0  0  0  0  0  0  0  0  0
  147.3178  134.7869  161.7132 F   0  0  0  0  0  0  0  0  0  0  0  0
  147.2194  136.6760  162.7806 F   0  0  0  0  0  0  0  0  0  0  0  0
  147.6673  135.9367  156.9339 N   0  0  0  0  0  0  0  0  0  0  0  0
  145.3184  135.1733  150.9638 C   0  0  0  0  0  0  0  0  0  0  0  0
  144.2660  134.4433  150.1123 C   0  0  0  0  0  0  0  0  0  0  0  0
  142.9857  132.2035  149.1322 H   0  0  0  0  0  0  0  0  0  0  0  0
  144.3414  131.6737  148.1280 H   0  0  0  0  0  0  0  0  0  0  0  0
  143.5673  133.2232  147.8096 H   0  0  0  0  0  0  0  0  0  0  0  0
  144.5198  131.9334  151.1888 H   0  0  0  0  0  0  0  0  0  0  0  0
  145.7686  131.3928  150.0830 H   0  0  0  0  0  0  0  0  0  0  0  0
  146.7559  132.2684  152.1971 H   0  0  0  0  0  0  0  0  0  0  0  0
  147.2892  133.1841  150.8073 H   0  0  0  0  0  0  0  0  0  0  0  0
  145.0642  134.0024  152.7448 H   0  0  0  0  0  0  0  0  0  0  0  0
  147.6500  135.3960  152.2611 H   0  0  0  0  0  0  0  0  0  0  0  0
  148.6698  136.0870  153.7983 H   0  0  0  0  0  0  0  0  0  0  0  0
  150.4561  136.5766  155.1210 H   0  0  0  0  0  0  0  0  0  0  0  0
  151.3227  137.1769  157.3817 H   0  0  0  0  0  0  0  0  0  0  0  0
  149.7993  136.9721  159.3618 H   0  0  0  0  0  0  0  0  0  0  0  0
  148.7648  136.6854  160.6294 H   0  0  0  0  0  0  0  0  0  0  0  0
  147.4196  137.8165  160.4624 H   0  0  0  0  0  0  0  0  0  0  0  0
  145.8677  136.0948  161.4909 H   0  0  0  0  0  0  0  0  0  0  0  0
  144.8760  136.0640  151.4118 H   0  0  0  0  0  0  0  0  0  0  0  0
  146.1279  135.5199  150.3192 H   0  0  0  0  0  0  0  0  0  0  0  0
  143.9209  135.1041  149.3160 H   0  0  0  0  0  0  0  0  0  0  0  0
  143.3941  134.1981  150.7213 H   0  0  0  0  0  0  0  0  0  0  0  0
  145.6195  133.4808  148.9631 H   0  0  0  0  0  0  0  0  0  0  0  0
  1  2  1  0  0  0  0
  1 23  1  0  0  0  0
  1 24  1  0  0  0  0
  1 25  1  0  0  0  0
  2 22  1  0  0  0  0
  2  3  1  0  0  0  0
  2 43  1  0  0  0  0
  3  4  1  0  0  0  0
  3 26  1  0  0  0  0
  3 27  1  0  0  0  0
  4  5  1  0  0  0  0
  4 28  1  0  0  0  0
  4 29  1  0  0  0  0
  5  6  1  0  0  0  0
  5 21  1  0  0  0  0
  5 30  1  0  0  0  0
  6  7  1  0  0  0  0
  6 31  1  0  0  0  0
  7  8  2  0  0  0  0
  7  9  1  0  0  0  0
  9 10  1  0  0  0  0
  9 32  1  0  0  0  0
 10 20  1  0  0  0  0
 10 11  2  0  0  0  0
 11 12  1  0  0  0  0
 11 33  1  0  0  0  0
 12 13  2  0  0  0  0
 12 34  1  0  0  0  0
 13 14  1  0  0  0  0
 13 35  1  0  0  0  0
 14 15  1  0  0  0  0
 14 20  2  0  0  0  0
 15 16  1  0  0  0  0
 16 17  1  0  0  0  0
 16 36  1  0  0  0  0
 16 37  1  0  0  0  0
 17 18  1  0  0  0  0
 17 19  1  0  0  0  0
 17 38  1  0  0  0  0
 21 22  1  0  0  0  0
 21 39  1  0  0  0  0
 21 40  1  0  0  0  0
 22 41  1  0  0  0  0
 22 42  1  0  0  0  0
M  CHG  1   2   1
M  END
> <s_m_source_file>
AV-unprocessed.smi

> <i_m_source_file_index>
2262

> <i_lp_mmshare_version>
43012

> <i_f3d_flags>
0

> <s_epik_input>
W0NIM11OMVtDSDJdW0NIMl1bQ0hdKFtDSDJdW0NIMl0xKVtOSF1DKD1PKVtOSF1jMltjSF1bY0hdW2NIXWMobjIpT1tDSDJdW0NIXShGKUY=

> <s_epik_cmdline>
J2VwaWtfcHl0aG9uJywgJy1waCcsICc3LjAnLCAnLXRuJywgJzgnLCAnLW1hJywgJzIwMCcsICctbWV0YWxfYmluZGluZycsICctaW1hZScsICc8aW5maWxlLm1hZT4nLCAnLW9tYWUnLCAnPG91dGZpbGUubWFlPic=

> <r_lp_tautomer_probability>
1

> <r_epik_Ionization_Penalty>
0.00369782

> <r_epik_Ionization_Penalty_Charging>
0.00366825

> <r_epik_Ionization_Penalty_Neutral>
2.95729e-05

> <r_epik_State_Penalty>
0.00261101

> <r_epik_Charging_Adjusted_Penalty>
0.00627926

> <i_epik_Tot_Q>
1

> <i_epik_Tot_abs_Q>
1

> <r_epik_Metal_State_Penalty>
-0

> <b_epik_Metal_Only>
0

> <s_lp_Force_Field>
OPLS_2005

> <r_lp_Energy>
16.1111

> <b_lp_Chiralities_Consistent>
1

> <s_lp_Variant>
AV-unprocessed.smi:2262-1

> <Gold.Version>
5.8.1

> <Gold.Id.Protein>
6NUR|6NUR_protein|mol2

> <Gold.PLP.Fitness>
44.3709

> <Gold.PLP.PLP>
-36.4847

> <Gold.PLP.part.hbond>
-3.0000

> <Gold.PLP.part.metal>
0.0000

> <Gold.PLP.part.buried>
-4.1825

> <Gold.PLP.part.nonpolar>
-29.3494

> <Gold.PLP.part.repulsive>
0.1916

> <Gold.PLP.ligand.clash>
0.0038

> <Gold.PLP.ligand.torsion>
0.4425

> <Gold.PLP.Chemscore.Hbond>
2.9040

> <Gold.PLP.Chemscore.CHOScore>
0.0000

> <Gold.PLP.Chemscore.Metal>
0.0000

> <Gold.Chemscore.Hbonds>
donor molecule, donor type, donor heavy atom, donor atom, acceptor molecule, acceptor atom, score
      L1  H     2    43       P1  7921  0.75
      L1  H     6    31       P1  7948  1.00
      L1  H     9    32       P1  7948  0.93

> <Gold.PLP.Chemscore.Internal.Correction>
0.0628

> <Gold.Rescore>
     Score         DG    S(hbond)    S(metal)    S(lipo)     H(rot)  DE(clash)    DE(int)     intcor
     17.00     -19.15       2.84        0.00      71.77       1.64       0.53       1.62       ----

> <Gold.Chemscore.Fitness>
17.0045

> <Gold.Chemscore.DG>
-19.1536

> <Gold.Chemscore.ZeroCoef>
-5.4800

> <Gold.Chemscore.Hbond>
2.8394

> <Gold.Chemscore.Metal>
0.0000

> <Gold.Chemscore.Lipo>
71.7699

> <Gold.Chemscore.Internal_Hbond>
0.0000

> <Gold.Chemscore.DEClash>
0.5286

> <Gold.Chemscore.DEInternal>
1.6205

> <Gold.Chemscore.Rot>
1.6434

> <Gold.Chemscore.Internal.Correction>
   9.000000E+99

> <Gold.Chemscore.Hbonds>
donor molecule, donor type, donor heavy atom, donor atom, acceptor molecule, acceptor atom, score
      L1  H     2    43       P1  7921  0.14
      L1  H     6    31       P1  7948  0.97
      L1  H     9    32       P1  7948  0.89

> <Gold.Chemscore.Hbond.Weighted>
-9.4835

> <Gold.Chemscore.Metal.Weighted>
-0.0000

> <Gold.Chemscore.Lipo.Weighted>
-8.3971

> <Gold.Chemscore.Internal_Hbond.Weighted>
0.0000

> <Gold.Chemscore.DEClash.Weighted>
0.5286

> <Gold.Chemscore.DEInternal.Weighted>
1.6205

> <Gold.Chemscore.Rot.Weighted>
4.2070

> <Gold.Chemscore.Internal.Correction.Weighted>
   9.000000E+99

> <Gold.Protein.RotatedTorsions>
[ 6907 6896 6895 6894 ] final   15.49 input  -60.11 | X-H torsion
[ 7974 7965 7964 7962 ] final  103.53 input  175.53 | X-H torsion
[ 8008 7997 7996 7995 ] final  173.38 input   59.86 | X-H torsion
[ 10167 10162 10161 10158 ] final   47.79 input  -65.29 | X-H torsion
[ 10718 10713 10712 10709 ] final  166.19 input   66.30 | X-H torsion
[ 10763 10752 10751 10750 ] final -169.69 input  -60.55 | X-H torsion
[ 11005 11000 10999 10996 ] final   69.56 input  -57.11 | X-H torsion

> <Gold.Protein.ActiveResidues>
 VAL166  LYS551  ARG553  GLY616  TRP617  ASP618  TYR619  PRO620  LYS621  CYS622 
 ASP623  PHE694  ASN695  SER759  ASP760  ASP761  ALA762  ILE779  LEU786  VAL792 
 PHE793  MET794  SER795  GLU796  ALA797  LYS798  CYS799  TRP800  GLU811  SER814 

> <Gold.Protein.RotatedAtoms>
  151.8189  135.0658  160.0422 H   0  0  0  0  0  0  0  0  0  0  0  0  # atno 6907 bound_to 6896
  152.2966  133.5609  159.5600 H   0  0  0  0  0  0  0  0  0  0  0  0  # atno 6908 bound_to 6896
  150.7254  134.0268  159.3762 H   0  0  0  0  0  0  0  0  0  0  0  0  # atno 6909 bound_to 6896
  145.3447  139.2454  143.3591 H   0  0  0  0  0  0  0  0  0  0  0  0  # atno 7974 bound_to 7965
  156.1081  140.1461  156.9376 H   0  0  0  0  0  0  0  0  0  0  0  0  # atno 8008 bound_to 7997
  154.4748  140.0898  156.7278 H   0  0  0  0  0  0  0  0  0  0  0  0  # atno 8009 bound_to 7997
  155.4644  140.3439  155.4319 H   0  0  0  0  0  0  0  0  0  0  0  0  # atno 8010 bound_to 7997
  140.3000  144.2945  150.6221 H   0  0  0  0  0  0  0  0  0  0  0  0  # atno 10167 bound_to 10162
  157.0695  131.0362  151.2617 H   0  0  0  0  0  0  0  0  0  0  0  0  # atno 10718 bound_to 10713
  154.6495  135.2909  155.0004 H   0  0  0  0  0  0  0  0  0  0  0  0  # atno 10763 bound_to 10752
  154.1102  135.6563  153.4887 H   0  0  0  0  0  0  0  0  0  0  0  0  # atno 10764 bound_to 10752
  153.0369  135.5263  154.7397 H   0  0  0  0  0  0  0  0  0  0  0  0  # atno 10765 bound_to 10752
  139.9647  134.7001  156.0571 H   0  0  0  0  0  0  0  0  0  0  0  0  # atno 11005 bound_to 11000
  146.2993  140.4051  142.8710 LP  0  0  0  0  0  0  0  0  0  0  0  0  # atno 17320 bound_to 7965
  144.8763  140.7341  143.6014 LP  0  0  0  0  0  0  0  0  0  0  0  0  # atno 17321 bound_to 7965
  140.5659  143.2186  151.7684 LP  0  0  0  0  0  0  0  0  0  0  0  0  # atno 17342 bound_to 10162
  139.4917  144.4284  151.9899 LP  0  0  0  0  0  0  0  0  0  0  0  0  # atno 17343 bound_to 10162
  157.4890  130.7810  149.7488 LP  0  0  0  0  0  0  0  0  0  0  0  0  # atno 17370 bound_to 10713
  155.9955  130.3912  150.2818 LP  0  0  0  0  0  0  0  0  0  0  0  0  # atno 17371 bound_to 10713
  141.1326  133.6583  156.3506 LP  0  0  0  0  0  0  0  0  0  0  0  0  # atno 17394 bound_to 11000
  140.5423  134.6108  157.5383 LP  0  0  0  0  0  0  0  0  0  0  0  0  # atno 17395 bound_to 11000

$$$$
