AV-unprocessed.smi:3048|AV-procd|sdf|11627|dock8
  -GOLD-   2272017 13D 1   1.00000     0.00000
 Structure written by MMmdl.
 37 38  0  0  0  0  0  0  0  0  1 V2000
  145.4308  137.4956  152.4242 C   0  0  0  0  0  0  0  0  0  0  0  0
  146.2579  138.3573  153.3338 C   0  0  0  0  0  0  0  0  0  0  0  0
  145.8912  138.8951  154.6003 C   0  0  0  0  0  0  0  0  0  0  0  0
  146.8537  139.6153  155.1517 N   0  0  0  0  0  0  0  0  0  0  0  0
  147.8651  139.5668  154.2589 N   0  0  0  0  0  0  0  0  0  0  0  0
  149.1106  140.2588  154.5390 C   0  0  0  0  0  0  0  0  0  0  0  0
  148.9119  141.7716  154.7242 C   0  0  0  0  0  0  0  0  0  0  0  0
  150.0128  142.3747  155.4700 N   0  0  0  0  0  0  0  0  0  0  0  0
  150.2351  141.7628  156.7754 C   0  0  0  0  0  0  0  0  0  0  0  0
  151.3667  142.4733  157.5316 C   0  0  2  0  0  0  0  0  0  0  0  0
  151.6914  141.7685  158.8631 C   0  0  0  0  0  0  0  0  0  0  0  0
  152.7551  142.5500  159.6431 C   0  0  0  0  0  0  0  0  0  0  0  0
  152.3162  144.0101  159.7968 C   0  0  0  0  0  0  0  0  0  0  0  0
  151.9473  144.6039  158.4283 C   0  0  0  0  0  0  0  0  0  0  0  0
  150.9418  143.8063  157.8108 O   0  0  0  0  0  0  0  0  0  0  0  0
  147.5336  138.8121  153.1537 C   0  0  0  0  0  0  0  0  0  0  0  0
  144.3833  137.4778  152.7258 H   0  0  0  0  0  0  0  0  0  0  0  0
  145.7815  136.4634  152.4205 H   0  0  0  0  0  0  0  0  0  0  0  0
  145.4613  137.8510  151.3940 H   0  0  0  0  0  0  0  0  0  0  0  0
  144.9587  138.7820  155.1331 H   0  0  0  0  0  0  0  0  0  0  0  0
  149.5793  139.8224  155.4228 H   0  0  0  0  0  0  0  0  0  0  0  0
  149.7896  140.0765  153.7055 H   0  0  0  0  0  0  0  0  0  0  0  0
  148.8378  142.2379  153.7412 H   0  0  0  0  0  0  0  0  0  0  0  0
  147.9644  141.9627  155.2295 H   0  0  0  0  0  0  0  0  0  0  0  0
  149.8482  143.3702  155.5833 H   0  0  0  0  0  0  0  0  0  0  0  0
  149.3214  141.7869  157.3705 H   0  0  0  0  0  0  0  0  0  0  0  0
  150.4926  140.7116  156.6399 H   0  0  0  0  0  0  0  0  0  0  0  0
  152.2623  142.4938  156.9074 H   0  0  0  0  0  0  0  0  0  0  0  0
  150.7860  141.6849  159.4656 H   0  0  0  0  0  0  0  0  0  0  0  0
  152.0391  140.7516  158.6790 H   0  0  0  0  0  0  0  0  0  0  0  0
  152.9202  142.0971  160.6210 H   0  0  0  0  0  0  0  0  0  0  0  0
  153.7064  142.5065  159.1114 H   0  0  0  0  0  0  0  0  0  0  0  0
  151.4533  144.0656  160.4615 H   0  0  0  0  0  0  0  0  0  0  0  0
  153.1088  144.5960  160.2627 H   0  0  0  0  0  0  0  0  0  0  0  0
  151.5661  145.6178  158.5502 H   0  0  0  0  0  0  0  0  0  0  0  0
  152.8238  144.6689  157.7821 H   0  0  0  0  0  0  0  0  0  0  0  0
  148.2258  138.6644  152.3379 H   0  0  0  0  0  0  0  0  0  0  0  0
  1  2  1  0  0  0  0
  1 17  1  0  0  0  0
  1 18  1  0  0  0  0
  1 19  1  0  0  0  0
  2 16  2  0  0  0  0
  2  3  1  0  0  0  0
  3  4  2  0  0  0  0
  3 20  1  0  0  0  0
  4  5  1  0  0  0  0
  5  6  1  0  0  0  0
  5 16  1  0  0  0  0
  6  7  1  0  0  0  0
  6 21  1  0  0  0  0
  6 22  1  0  0  0  0
  7  8  1  0  0  0  0
  7 23  1  0  0  0  0
  7 24  1  0  0  0  0
  8  9  1  0  0  0  0
  8 25  1  0  0  0  0
  9 10  1  0  0  0  0
  9 26  1  0  0  0  0
  9 27  1  0  0  0  0
 10 15  1  0  0  0  0
 10 11  1  0  0  0  0
 10 28  1  0  0  0  0
 11 12  1  0  0  0  0
 11 29  1  0  0  0  0
 11 30  1  0  0  0  0
 12 13  1  0  0  0  0
 12 31  1  0  0  0  0
 12 32  1  0  0  0  0
 13 14  1  0  0  0  0
 13 33  1  0  0  0  0
 13 34  1  0  0  0  0
 14 15  1  0  0  0  0
 14 35  1  0  0  0  0
 14 36  1  0  0  0  0
 16 37  1  0  0  0  0
M  END
> <s_m_source_file>
AV-unprocessed.smi

> <i_m_source_file_index>
3048

> <i_lp_mmshare_version>
43012

> <i_f3d_flags>
0

> <s_epik_input>
W0NIM11jMVtjSF1ubihbY0hdMSlbQ0gyXVtDSDJdW05IXVtDSDJdW0NAQEhdMltDSDJdW0NIMl1bQ0gyXVtDSDJdTzI=

> <s_epik_cmdline>
J2VwaWtfcHl0aG9uJywgJy1waCcsICc3LjAnLCAnLXRuJywgJzgnLCAnLW1hJywgJzIwMCcsICctbWV0YWxfYmluZGluZycsICctaW1hZScsICc8aW5maWxlLm1hZT4nLCAnLW9tYWUnLCAnPG91dGZpbGUubWFlPic=

> <r_lp_tautomer_probability>
1

> <r_epik_Ionization_Penalty>
2.52229

> <r_epik_Ionization_Penalty_Charging>
0

> <r_epik_Ionization_Penalty_Neutral>
2.52229

> <r_epik_State_Penalty>
2.68614

> <r_epik_Charging_Adjusted_Penalty>
2.68614

> <i_epik_Tot_Q>
0

> <i_epik_Tot_abs_Q>
0

> <r_epik_Metal_State_Penalty>
2.68365

> <b_epik_Metal_Only>
0

> <s_lp_Force_Field>
OPLS_2005

> <r_lp_Energy>
12.7025

> <b_lp_Chiralities_Consistent>
1

> <s_lp_Variant>
AV-unprocessed.smi:3048-3

> <Gold.Version>
5.8.1

> <Gold.Id.Protein>
6NUR|6NUR_protein|mol2

> <Gold.PLP.Fitness>
38.6065

> <Gold.PLP.PLP>
-29.9537

> <Gold.PLP.part.hbond>
-1.0811

> <Gold.PLP.part.metal>
0.0000

> <Gold.PLP.part.buried>
-1.5080

> <Gold.PLP.part.nonpolar>
-27.8086

> <Gold.PLP.part.repulsive>
0.3249

> <Gold.PLP.ligand.clash>
0.0000

> <Gold.PLP.ligand.torsion>
0.1199

> <Gold.PLP.Chemscore.Hbond>
0.9920

> <Gold.PLP.Chemscore.CHOScore>
1.9561

> <Gold.PLP.Chemscore.Metal>
0.0000

> <Gold.Chemscore.Hbonds>
donor molecule, donor type, donor heavy atom, donor atom, acceptor molecule, acceptor atom, score
      L1  H     8    25       P1  8028  1.00
      L1  C    16    37       P1  7948  0.72
      L1  C    16    37       P1  7957  1.00

> <Gold.PLP.Chemscore.Internal.Correction>
0.0482

> <Gold.Rescore>
     Score         DG    S(hbond)    S(metal)    S(lipo)     H(rot)  DE(clash)    DE(int)     intcor
     15.59     -15.95       0.98        0.00      95.37       1.54       0.25       0.11       ----

> <Gold.Chemscore.Fitness>
15.5860

> <Gold.Chemscore.DG>
-15.9512

> <Gold.Chemscore.ZeroCoef>
-5.4800

> <Gold.Chemscore.Hbond>
0.9755

> <Gold.Chemscore.Metal>
0.0000

> <Gold.Chemscore.Lipo>
95.3699

> <Gold.Chemscore.Internal_Hbond>
0.0000

> <Gold.Chemscore.DEClash>
0.2514

> <Gold.Chemscore.DEInternal>
0.1139

> <Gold.Chemscore.Rot>
1.5411

> <Gold.Chemscore.Internal.Correction>
   9.000000E+99

> <Gold.Chemscore.Hbonds>
donor molecule, donor type, donor heavy atom, donor atom, acceptor molecule, acceptor atom, score
      L1  H     8    25       P1  8028  0.97

> <Gold.Chemscore.Hbond.Weighted>
-3.2581

> <Gold.Chemscore.Metal.Weighted>
-0.0000

> <Gold.Chemscore.Lipo.Weighted>
-11.1583

> <Gold.Chemscore.Internal_Hbond.Weighted>
0.0000

> <Gold.Chemscore.DEClash.Weighted>
0.2514

> <Gold.Chemscore.DEInternal.Weighted>
0.1139

> <Gold.Chemscore.Rot.Weighted>
3.9452

> <Gold.Chemscore.Internal.Correction.Weighted>
   9.000000E+99

> <Gold.Protein.RotatedTorsions>
[ 6907 6896 6895 6894 ] final    0.42 input  -60.11 | X-H torsion
[ 7974 7965 7964 7962 ] final  163.92 input  175.53 | X-H torsion
[ 8008 7997 7996 7995 ] final   64.88 input   59.86 | X-H torsion
[ 10167 10162 10161 10158 ] final  -12.88 input  -65.29 | X-H torsion
[ 10718 10713 10712 10709 ] final  116.68 input   66.30 | X-H torsion
[ 10763 10752 10751 10750 ] final   -0.57 input  -60.55 | X-H torsion
[ 11005 11000 10999 10996 ] final   33.61 input  -57.11 | X-H torsion

> <Gold.Protein.ActiveResidues>
 VAL166  LYS551  ARG553  GLY616  TRP617  ASP618  TYR619  PRO620  LYS621  CYS622 
 ASP623  PHE694  ASN695  SER759  ASP760  ASP761  ALA762  ILE779  LEU786  VAL792 
 PHE793  MET794  SER795  GLU796  ALA797  LYS798  CYS799  TRP800  GLU811  SER814 

> <Gold.Protein.RotatedAtoms>
  151.5761  135.1060  160.0006 H   0  0  0  0  0  0  0  0  0  0  0  0  # atno 6907 bound_to 6896
  152.4377  133.7386  159.6639 H   0  0  0  0  0  0  0  0  0  0  0  0  # atno 6908 bound_to 6896
  150.8277  133.8074  159.3135 H   0  0  0  0  0  0  0  0  0  0  0  0  # atno 6909 bound_to 6896
  144.7568  139.8252  143.6347 H   0  0  0  0  0  0  0  0  0  0  0  0  # atno 7974 bound_to 7965
  155.6529  140.3497  155.4755 H   0  0  0  0  0  0  0  0  0  0  0  0  # atno 8008 bound_to 7997
  155.9832  140.1179  157.0730 H   0  0  0  0  0  0  0  0  0  0  0  0  # atno 8009 bound_to 7997
  154.4197  140.1134  156.5450 H   0  0  0  0  0  0  0  0  0  0  0  0  # atno 8010 bound_to 7997
  140.7171  143.5485  150.9328 H   0  0  0  0  0  0  0  0  0  0  0  0  # atno 10167 bound_to 10162
  157.6145  131.1028  150.7508 H   0  0  0  0  0  0  0  0  0  0  0  0  # atno 10718 bound_to 10713
  153.3336  135.6976  153.6927 H   0  0  0  0  0  0  0  0  0  0  0  0  # atno 10763 bound_to 10752
  153.5720  135.3514  155.2842 H   0  0  0  0  0  0  0  0  0  0  0  0  # atno 10764 bound_to 10752
  154.8623  135.4274  154.2531 H   0  0  0  0  0  0  0  0  0  0  0  0  # atno 10765 bound_to 10752
  140.2613  134.3188  155.7857 H   0  0  0  0  0  0  0  0  0  0  0  0  # atno 11005 bound_to 11000
  146.1587  139.4694  143.0002 LP  0  0  0  0  0  0  0  0  0  0  0  0  # atno 17320 bound_to 7965
  145.6753  141.0206  143.1636 LP  0  0  0  0  0  0  0  0  0  0  0  0  # atno 17321 bound_to 7965
  139.9209  143.6607  152.3097 LP  0  0  0  0  0  0  0  0  0  0  0  0  # atno 17342 bound_to 10162
  139.7024  144.7633  151.1251 LP  0  0  0  0  0  0  0  0  0  0  0  0  # atno 17343 bound_to 10162
  156.7878  130.4880  149.5390 LP  0  0  0  0  0  0  0  0  0  0  0  0  # atno 17370 bound_to 10713
  156.1261  130.6144  151.0265 LP  0  0  0  0  0  0  0  0  0  0  0  0  # atno 17371 bound_to 10713
  141.2190  133.7411  156.9192 LP  0  0  0  0  0  0  0  0  0  0  0  0  # atno 17394 bound_to 11000
  140.1462  134.9261  157.2532 LP  0  0  0  0  0  0  0  0  0  0  0  0  # atno 17395 bound_to 11000

$$$$
