AV-unprocessed.smi:3112|AV-procd|sdf|11840|dock4
  -GOLD-   2272017213D 1   1.00000     0.00000
 Structure written by MMmdl.
 37 37  0  0  0  0  0  0  0  0  2 V2000
  147.1769  140.3597  152.5373 C   0  0  0  0  0  0  0  0  0  0  0  0
  147.4470  140.4059  154.0473 C   0  0  0  0  0  0  0  0  0  0  0  0
  148.6149  141.3312  154.4340 C   0  0  2  0  0  0  0  0  0  0  0  0
  149.7719  140.9318  153.7251 O   0  0  0  0  0  0  0  0  0  0  0  0
  148.9218  141.2710  155.9388 C   0  0  0  0  0  0  0  0  0  0  0  0
  149.9926  142.2217  156.3042 N   0  3  0  0  0  0  0  0  0  0  0  0
  150.3903  142.1990  157.7316 C   0  0  2  0  0  0  0  0  0  0  0  0
  149.2572  142.8239  158.5622 C   0  0  0  0  0  0  0  0  0  0  0  0
  151.7491  142.9224  157.9309 C   0  0  1  0  0  0  0  0  0  0  0  0
  151.7173  144.4062  157.5180 C   0  0  0  0  0  0  0  0  0  0  0  0
  152.2145  142.7995  159.3084 N   0  0  0  0  0  0  0  0  0  0  0  0
  153.3571  142.1901  159.7895 C   0  0  0  0  0  0  0  0  0  0  0  0
  153.3799  142.3739  161.1422 C   0  0  0  0  0  0  0  0  0  0  0  0
  152.1997  143.1241  161.4017 C   0  0  0  0  0  0  0  0  0  0  0  0
  151.5112  143.3851  160.3030 N   0  0  0  0  0  0  0  0  0  0  0  0
  146.3242  139.7171  152.3172 H   0  0  0  0  0  0  0  0  0  0  0  0
  148.0344  139.9683  151.9897 H   0  0  0  0  0  0  0  0  0  0  0  0
  146.9533  141.3524  152.1459 H   0  0  0  0  0  0  0  0  0  0  0  0
  146.5390  140.7502  154.5440 H   0  0  0  0  0  0  0  0  0  0  0  0
  147.6304  139.3965  154.4181 H   0  0  0  0  0  0  0  0  0  0  0  0
  148.3686  142.3565  154.1541 H   0  0  0  0  0  0  0  0  0  0  0  0
  149.5513  140.1984  153.1708 H   0  0  0  0  0  0  0  0  0  0  0  0
  148.0298  141.5300  156.5109 H   0  0  0  0  0  0  0  0  0  0  0  0
  149.2022  140.2571  156.2273 H   0  0  0  0  0  0  0  0  0  0  0  0
  150.8081  142.0114  155.7450 H   0  0  0  0  0  0  0  0  0  0  0  0
  150.4965  141.1617  158.0547 H   0  0  0  0  0  0  0  0  0  0  0  0
  149.4360  142.7204  159.6320 H   0  0  0  0  0  0  0  0  0  0  0  0
  148.3046  142.3359  158.3523 H   0  0  0  0  0  0  0  0  0  0  0  0
  149.1408  143.8856  158.3419 H   0  0  0  0  0  0  0  0  0  0  0  0
  152.4892  142.4330  157.2942 H   0  0  0  0  0  0  0  0  0  0  0  0
  151.5587  144.5222  156.4462 H   0  0  0  0  0  0  0  0  0  0  0  0
  152.6625  144.8972  157.7521 H   0  0  0  0  0  0  0  0  0  0  0  0
  150.9242  144.9499  158.0321 H   0  0  0  0  0  0  0  0  0  0  0  0
  154.0535  141.6833  159.1377 H   0  0  0  0  0  0  0  0  0  0  0  0
  154.1270  142.0273  161.8407 H   0  0  0  0  0  0  0  0  0  0  0  0
  151.8283  143.4896  162.3479 H   0  0  0  0  0  0  0  0  0  0  0  0
  149.6786  143.1529  156.0722 H   0  0  0  0  0  0  0  0  0  0  0  0
  1  2  1  0  0  0  0
  1 16  1  0  0  0  0
  1 17  1  0  0  0  0
  1 18  1  0  0  0  0
  2  3  1  0  0  0  0
  2 19  1  0  0  0  0
  2 20  1  0  0  0  0
  3  4  1  0  0  0  0
  3  5  1  0  0  0  0
  3 21  1  0  0  0  0
  4 22  1  0  0  0  0
  5  6  1  0  0  0  0
  5 23  1  0  0  0  0
  5 24  1  0  0  0  0
  6  7  1  0  0  0  0
  6 25  1  0  0  0  0
  6 37  1  0  0  0  0
  7  8  1  0  0  0  0
  7  9  1  0  0  0  0
  7 26  1  0  0  0  0
  8 27  1  0  0  0  0
  8 28  1  0  0  0  0
  8 29  1  0  0  0  0
  9 10  1  0  0  0  0
  9 11  1  0  0  0  0
  9 30  1  0  0  0  0
 10 31  1  0  0  0  0
 10 32  1  0  0  0  0
 10 33  1  0  0  0  0
 11 15  1  0  0  0  0
 11 12  1  0  0  0  0
 12 13  2  0  0  0  0
 12 34  1  0  0  0  0
 13 14  1  0  0  0  0
 13 35  1  0  0  0  0
 14 15  2  0  0  0  0
 14 36  1  0  0  0  0
M  CHG  1   6   1
M  END
> <s_m_source_file>
AV-unprocessed.smi

> <i_m_source_file_index>
3112

> <i_lp_mmshare_version>
43012

> <i_f3d_flags>
0

> <s_epik_input>
W0NIM11bQ0gyXVtDQEhdKFtPSF0pW0NIMl1bTkhdW0NASF0oW0NIM10pW0NASF0oW0NIM10pbjFbY0hdW2NIXVtjSF1uMQ==

> <s_epik_cmdline>
J2VwaWtfcHl0aG9uJywgJy1waCcsICc3LjAnLCAnLXRuJywgJzgnLCAnLW1hJywgJzIwMCcsICctbWV0YWxfYmluZGluZycsICctaW1hZScsICc8aW5maWxlLm1hZT4nLCAnLW9tYWUnLCAnPG91dGZpbGUubWFlPic=

> <r_lp_tautomer_probability>
1

> <r_epik_Ionization_Penalty>
0.0154842

> <r_epik_Ionization_Penalty_Charging>
0.0154724

> <r_epik_Ionization_Penalty_Neutral>
1.17979e-05

> <r_epik_State_Penalty>
0.0121607

> <r_epik_Charging_Adjusted_Penalty>
0.0276331

> <i_epik_Tot_Q>
1

> <i_epik_Tot_abs_Q>
1

> <r_epik_Metal_State_Penalty>
0.0121863

> <b_epik_Metal_Only>
0

> <s_lp_Force_Field>
OPLS_2005

> <r_lp_Energy>
12.9231

> <b_lp_Chiralities_Consistent>
1

> <s_lp_Variant>
AV-unprocessed.smi:3112-5

> <Gold.Version>
5.8.1

> <Gold.Id.Protein>
6NUR|6NUR_protein|mol2

> <Gold.PLP.Fitness>
48.1220

> <Gold.PLP.PLP>
-36.8440

> <Gold.PLP.part.hbond>
-4.0000

> <Gold.PLP.part.metal>
0.0000

> <Gold.PLP.part.buried>
-3.4758

> <Gold.PLP.part.nonpolar>
-28.8478

> <Gold.PLP.part.repulsive>
0.1437

> <Gold.PLP.ligand.clash>
0.0000

> <Gold.PLP.ligand.torsion>
0.1446

> <Gold.PLP.Chemscore.Hbond>
3.8109

> <Gold.PLP.Chemscore.CHOScore>
0.0000

> <Gold.PLP.Chemscore.Metal>
0.0000

> <Gold.Chemscore.Hbonds>
donor molecule, donor type, donor heavy atom, donor atom, acceptor molecule, acceptor atom, score
      L1  H     4    22       P1  7957  0.59
      L1  H     6    37       P1  8028  2.00
      P1  H  7989  7998       L1     4  0.35
      P1  H  8011  8017       L1     4  0.92

> <Gold.PLP.Chemscore.Internal.Correction>
0.1345

> <Gold.Rescore>
     Score         DG    S(hbond)    S(metal)    S(lipo)     H(rot)  DE(clash)    DE(int)     intcor
     16.42     -17.39       2.18        0.00      92.25       2.41       0.47       0.49       ----

> <Gold.Chemscore.Fitness>
16.4235

> <Gold.Chemscore.DG>
-17.3912

> <Gold.Chemscore.ZeroCoef>
-5.4800

> <Gold.Chemscore.Hbond>
2.1812

> <Gold.Chemscore.Metal>
0.0000

> <Gold.Chemscore.Lipo>
92.2456

> <Gold.Chemscore.Internal_Hbond>
0.0000

> <Gold.Chemscore.DEClash>
0.4742

> <Gold.Chemscore.DEInternal>
0.4934

> <Gold.Chemscore.Rot>
2.4089

> <Gold.Chemscore.Internal.Correction>
   9.000000E+99

> <Gold.Chemscore.Hbonds>
donor molecule, donor type, donor heavy atom, donor atom, acceptor molecule, acceptor atom, score
      L1  H     4    22       P1  7957  0.55
      L1  H     6    37       P1  8028  1.00
      P1  H  7989  7998       L1     4  0.07
      P1  H  8011  8017       L1     4  0.05

> <Gold.Chemscore.Hbond.Weighted>
-7.2851

> <Gold.Chemscore.Metal.Weighted>
-0.0000

> <Gold.Chemscore.Lipo.Weighted>
-10.7927

> <Gold.Chemscore.Internal_Hbond.Weighted>
0.0000

> <Gold.Chemscore.DEClash.Weighted>
0.4742

> <Gold.Chemscore.DEInternal.Weighted>
0.4934

> <Gold.Chemscore.Rot.Weighted>
6.1667

> <Gold.Chemscore.Internal.Correction.Weighted>
   9.000000E+99

> <Gold.Protein.RotatedTorsions>
[ 6907 6896 6895 6894 ] final    1.67 input  -60.11 | X-H torsion
[ 7974 7965 7964 7962 ] final  134.33 input  175.53 | X-H torsion
[ 8008 7997 7996 7995 ] final  -87.02 input   59.86 | X-H torsion
[ 10167 10162 10161 10158 ] final  -39.27 input  -65.29 | X-H torsion
[ 10718 10713 10712 10709 ] final   10.91 input   66.30 | X-H torsion
[ 10763 10752 10751 10750 ] final   48.99 input  -60.55 | X-H torsion
[ 11005 11000 10999 10996 ] final -144.18 input  -57.11 | X-H torsion

> <Gold.Protein.ActiveResidues>
 VAL166  LYS551  ARG553  GLY616  TRP617  ASP618  TYR619  PRO620  LYS621  CYS622 
 ASP623  PHE694  ASN695  SER759  ASP760  ASP761  ALA762  ILE779  LEU786  VAL792 
 PHE793  MET794  SER795  GLU796  ALA797  LYS798  CYS799  TRP800  GLU811  SER814 

> <Gold.Protein.RotatedAtoms>
  151.5964  135.1050  160.0050 H   0  0  0  0  0  0  0  0  0  0  0  0  # atno 6907 bound_to 6896
  152.4280  133.7224  159.6551 H   0  0  0  0  0  0  0  0  0  0  0  0  # atno 6908 bound_to 6896
  150.8170  133.8248  159.3178 H   0  0  0  0  0  0  0  0  0  0  0  0  # atno 6909 bound_to 6896
  144.9774  139.4540  143.5403 H   0  0  0  0  0  0  0  0  0  0  0  0  # atno 7974 bound_to 7965
  154.6584  140.0571  157.0035 H   0  0  0  0  0  0  0  0  0  0  0  0  # atno 8008 bound_to 7997
  155.1265  140.3252  155.4466 H   0  0  0  0  0  0  0  0  0  0  0  0  # atno 8009 bound_to 7997
  156.2607  140.1988  156.6385 H   0  0  0  0  0  0  0  0  0  0  0  0  # atno 8010 bound_to 7997
  140.7069  143.3225  151.2759 H   0  0  0  0  0  0  0  0  0  0  0  0  # atno 10167 bound_to 10162
  156.9879  130.6031  149.5683 H   0  0  0  0  0  0  0  0  0  0  0  0  # atno 10718 bound_to 10713
  152.9789  135.5926  154.4016 H   0  0  0  0  0  0  0  0  0  0  0  0  # atno 10763 bound_to 10752
  154.3661  135.2767  155.2295 H   0  0  0  0  0  0  0  0  0  0  0  0  # atno 10764 bound_to 10752
  154.4271  135.6045  153.6100 H   0  0  0  0  0  0  0  0  0  0  0  0  # atno 10765 bound_to 10752
  140.8050  134.2812  157.4964 H   0  0  0  0  0  0  0  0  0  0  0  0  # atno 11005 bound_to 11000
  146.3399  139.9025  142.8792 LP  0  0  0  0  0  0  0  0  0  0  0  0  # atno 17320 bound_to 7965
  145.2470  141.0030  143.3903 LP  0  0  0  0  0  0  0  0  0  0  0  0  # atno 17321 bound_to 7965
  139.6683  144.0066  152.2737 LP  0  0  0  0  0  0  0  0  0  0  0  0  # atno 17342 bound_to 10162
  139.9656  144.6528  150.8038 LP  0  0  0  0  0  0  0  0  0  0  0  0  # atno 17343 bound_to 10162
  156.0219  130.5313  150.8298 LP  0  0  0  0  0  0  0  0  0  0  0  0  # atno 17370 bound_to 10713
  157.5480  131.0943  150.9736 LP  0  0  0  0  0  0  0  0  0  0  0  0  # atno 17371 bound_to 10713
  139.8718  134.9451  156.3900 LP  0  0  0  0  0  0  0  0  0  0  0  0  # atno 17394 bound_to 11000
  140.9256  133.7615  155.9960 LP  0  0  0  0  0  0  0  0  0  0  0  0  # atno 17395 bound_to 11000

$$$$
