AV-unprocessed.smi:1672|AV-procd|sdf|6705|dock7
  -GOLD-   22720 7443D 1   1.00000     0.00000
 Structure written by MMmdl.
 49 51  0  0  0  0  0  0  0  0  3 V2000
  146.4399  134.0862  154.0542 C   0  0  0  0  0  0  0  0  0  0  0  0
  147.6125  134.8109  154.7294 C   0  0  2  0  0  0  0  0  0  0  0  0
  147.5800  136.3239  154.4554 C   0  0  0  0  0  0  0  0  0  0  0  0
  148.7762  137.0354  155.1090 C   0  0  0  0  0  0  0  0  0  0  0  0
  150.0641  136.4546  154.6443 N   0  3  1  0  0  0  0  0  0  0  0  0
  151.2522  137.1901  155.1477 C   0  0  0  0  0  0  0  0  0  0  0  0
  151.0181  138.7151  155.2326 C   0  0  2  0  0  0  0  0  0  0  0  0
  152.1899  139.3861  154.8162 O   0  0  0  0  0  0  0  0  0  0  0  0
  150.6917  139.2073  156.6574 C   0  0  0  0  0  0  0  0  0  0  0  0
  150.5489  140.6693  156.7442 N   0  0  0  0  0  0  0  0  0  0  0  0
  149.8937  141.5549  155.9360 C   0  0  0  0  0  0  0  0  0  0  0  0
  149.1234  141.2526  154.6903 C   0  0  0  0  0  0  0  0  0  0  0  0
  148.4864  142.3934  154.1581 O   0  0  0  0  0  0  0  0  0  0  0  0
  150.0723  142.7956  156.4727 N   0  3  0  0  0  0  0  0  0  0  0  0
  150.8432  142.7060  157.6315 C   0  0  0  0  0  0  0  0  0  0  0  0
  151.2832  143.6893  158.5123 C   0  0  0  0  0  0  0  0  0  0  0  0
  152.0576  143.2561  159.6084 C   0  0  0  0  0  0  0  0  0  0  0  0
  152.3668  141.8933  159.7959 C   0  0  0  0  0  0  0  0  0  0  0  0
  151.9159  140.9057  158.8953 C   0  0  0  0  0  0  0  0  0  0  0  0
  151.1509  141.3427  157.8139 C   0  0  0  0  0  0  0  0  0  0  0  0
  150.1377  134.9992  154.9324 C   0  0  0  0  0  0  0  0  0  0  0  0
  148.9687  134.2439  154.2776 C   0  0  0  0  0  0  0  0  0  0  0  0
  146.4722  134.2013  152.9702 H   0  0  0  0  0  0  0  0  0  0  0  0
  145.4838  134.4785  154.4019 H   0  0  0  0  0  0  0  0  0  0  0  0
  146.4579  133.0188  154.2764 H   0  0  0  0  0  0  0  0  0  0  0  0
  147.5214  134.6578  155.8058 H   0  0  0  0  0  0  0  0  0  0  0  0
  147.5908  136.5070  153.3799 H   0  0  0  0  0  0  0  0  0  0  0  0
  146.6497  136.7511  154.8315 H   0  0  0  0  0  0  0  0  0  0  0  0
  148.7279  138.0973  154.8711 H   0  0  0  0  0  0  0  0  0  0  0  0
  148.7097  136.9548  156.1952 H   0  0  0  0  0  0  0  0  0  0  0  0
  151.5244  136.7777  156.1198 H   0  0  0  0  0  0  0  0  0  0  0  0
  152.1087  137.0104  154.4960 H   0  0  0  0  0  0  0  0  0  0  0  0
  150.2088  139.0168  154.5693 H   0  0  0  0  0  0  0  0  0  0  0  0
  152.9335  139.0218  155.2709 H   0  0  0  0  0  0  0  0  0  0  0  0
  149.7665  138.7558  157.0163 H   0  0  0  0  0  0  0  0  0  0  0  0
  151.4662  138.8989  157.3612 H   0  0  0  0  0  0  0  0  0  0  0  0
  149.7834  140.8431  153.9266 H   0  0  0  0  0  0  0  0  0  0  0  0
  148.3726  140.4938  154.9110 H   0  0  0  0  0  0  0  0  0  0  0  0
  148.5613  143.0988  154.7832 H   0  0  0  0  0  0  0  0  0  0  0  0
  151.0460  144.7338  158.3721 H   0  0  0  0  0  0  0  0  0  0  0  0
  152.4203  143.9833  160.3207 H   0  0  0  0  0  0  0  0  0  0  0  0
  152.9610  141.5993  160.6492 H   0  0  0  0  0  0  0  0  0  0  0  0
  152.1568  139.8644  159.0506 H   0  0  0  0  0  0  0  0  0  0  0  0
  151.0776  134.5955  154.5538 H   0  0  0  0  0  0  0  0  0  0  0  0
  150.1346  134.8386  156.0118 H   0  0  0  0  0  0  0  0  0  0  0  0
  149.0321  133.1840  154.5267 H   0  0  0  0  0  0  0  0  0  0  0  0
  149.0554  134.3109  153.1921 H   0  0  0  0  0  0  0  0  0  0  0  0
  150.0822  136.5379  153.6380 H   0  0  0  0  0  0  0  0  0  0  0  0
  149.6916  143.6419  156.0686 H   0  0  0  0  0  0  0  0  0  0  0  0
  1  2  1  0  0  0  0
  1 23  1  0  0  0  0
  1 24  1  0  0  0  0
  1 25  1  0  0  0  0
  2 22  1  0  0  0  0
  2  3  1  0  0  0  0
  2 26  1  0  0  0  0
  3  4  1  0  0  0  0
  3 27  1  0  0  0  0
  3 28  1  0  0  0  0
  4  5  1  0  0  0  0
  4 29  1  0  0  0  0
  4 30  1  0  0  0  0
  5  6  1  0  0  0  0
  5 21  1  0  0  0  0
  5 48  1  0  0  0  0
  6  7  1  0  0  0  0
  6 31  1  0  0  0  0
  6 32  1  0  0  0  0
  7  8  1  0  0  0  0
  7  9  1  0  0  0  0
  7 33  1  0  0  0  0
  8 34  1  0  0  0  0
  9 10  1  0  0  0  0
  9 35  1  0  0  0  0
  9 36  1  0  0  0  0
 10 20  1  0  0  0  0
 10 11  1  0  0  0  0
 11 12  1  0  0  0  0
 11 14  2  0  0  0  0
 12 13  1  0  0  0  0
 12 37  1  0  0  0  0
 12 38  1  0  0  0  0
 13 39  1  0  0  0  0
 14 15  1  0  0  0  0
 14 49  1  0  0  0  0
 15 20  2  0  0  0  0
 15 16  1  0  0  0  0
 16 17  2  0  0  0  0
 16 40  1  0  0  0  0
 17 18  1  0  0  0  0
 17 41  1  0  0  0  0
 18 19  2  0  0  0  0
 18 42  1  0  0  0  0
 19 20  1  0  0  0  0
 19 43  1  0  0  0  0
 21 22  1  0  0  0  0
 21 44  1  0  0  0  0
 21 45  1  0  0  0  0
 22 46  1  0  0  0  0
 22 47  1  0  0  0  0
M  CHG  1   5   1
M  CHG  1  14   1
M  END
> <s_m_source_file>
AV-unprocessed.smi

> <i_m_source_file_index>
1672

> <i_lp_mmshare_version>
43012

> <i_f3d_flags>
0

> <s_epik_input>
W0NIM11bQ0hdMVtDSDJdW0NIMl1OKFtDSDJdW0NIMl0xKVtDSDJdW0NASF0oW09IXSlbQ0gyXW4oYyhuMilbQ0gyXVtPSF0pYyhjMjMpW2NIXVtjSF1bY0hdW2NIXTM=

> <s_epik_cmdline>
J2VwaWtfcHl0aG9uJywgJy1waCcsICc3LjAnLCAnLXRuJywgJzgnLCAnLW1hJywgJzIwMCcsICctbWV0YWxfYmluZGluZycsICctaW1hZScsICc8aW5maWxlLm1hZT4nLCAnLW9tYWUnLCAnPG91dGZpbGUubWFlPic=

> <r_epik_Ionization_Penalty>
1.51642

> <r_epik_Ionization_Penalty_Charging>
1.51557

> <r_epik_Ionization_Penalty_Neutral>
0.000856474

> <r_epik_State_Penalty>
1.6048

> <r_epik_Charging_Adjusted_Penalty>
3.12037

> <i_epik_Tot_Q>
2

> <i_epik_Tot_abs_Q>
2

> <r_epik_Metal_State_Penalty>
5.65673

> <b_epik_Metal_Only>
0

> <s_lp_Force_Field>
OPLS_2005

> <r_lp_Energy>
31.4563

> <b_lp_Chiralities_Consistent>
1

> <s_lp_Variant>
AV-unprocessed.smi:1672-5

> <Gold.Version>
5.8.1

> <Gold.Id.Protein>
6NUR|6NUR_protein|mol2

> <Gold.PLP.Fitness>
57.8197

> <Gold.PLP.PLP>
-42.3102

> <Gold.PLP.part.hbond>
-5.1714

> <Gold.PLP.part.metal>
0.0000

> <Gold.PLP.part.buried>
-4.2806

> <Gold.PLP.part.nonpolar>
-33.6121

> <Gold.PLP.part.repulsive>
0.1350

> <Gold.PLP.ligand.clash>
0.0000

> <Gold.PLP.ligand.torsion>
0.9900

> <Gold.PLP.Chemscore.Hbond>
5.8140

> <Gold.PLP.Chemscore.CHOScore>
0.0000

> <Gold.PLP.Chemscore.Metal>
0.0000

> <Gold.Chemscore.Hbonds>
donor molecule, donor type, donor heavy atom, donor atom, acceptor molecule, acceptor atom, score
      L1  H     5    48       P1  7948  1.28
      L1  H    13    39       P1  8028  1.00
      L1  H    14    49       P1  8028  1.37
      P1  H  7989  7998       L1     8  0.81
      P1  H  8011  8017       L1    13  0.07

> <Gold.PLP.Chemscore.Internal.Correction>
0.0475

> <Gold.Rescore>
     Score         DG    S(hbond)    S(metal)    S(lipo)     H(rot)  DE(clash)    DE(int)     intcor
     19.90     -21.93       3.77        0.00      97.49       2.96       0.92       1.11       ----

> <Gold.Chemscore.Fitness>
19.8975

> <Gold.Chemscore.DG>
-21.9270

> <Gold.Chemscore.ZeroCoef>
-5.4800

> <Gold.Chemscore.Hbond>
3.7744

> <Gold.Chemscore.Metal>
0.0000

> <Gold.Chemscore.Lipo>
97.4919

> <Gold.Chemscore.Internal_Hbond>
0.0000

> <Gold.Chemscore.DEClash>
0.9226

> <Gold.Chemscore.DEInternal>
1.1068

> <Gold.Chemscore.Rot>
2.9555

> <Gold.Chemscore.Internal.Correction>
   9.000000E+99

> <Gold.Chemscore.Hbonds>
donor molecule, donor type, donor heavy atom, donor atom, acceptor molecule, acceptor atom, score
      L1  H     5    48       P1  7948  0.09
      L1  H    13    39       P1  8028  1.00
      L1  H    14    49       P1  8028  0.69
      P1  H  7989  7998       L1     8  0.52
      P1  H  8011  8017       L1    13  0.01

> <Gold.Chemscore.Hbond.Weighted>
-12.6064

> <Gold.Chemscore.Metal.Weighted>
-0.0000

> <Gold.Chemscore.Lipo.Weighted>
-11.4066

> <Gold.Chemscore.Internal_Hbond.Weighted>
0.0000

> <Gold.Chemscore.DEClash.Weighted>
0.9226

> <Gold.Chemscore.DEInternal.Weighted>
1.1068

> <Gold.Chemscore.Rot.Weighted>
7.5660

> <Gold.Chemscore.Internal.Correction.Weighted>
   9.000000E+99

> <Gold.Protein.RotatedTorsions>
[ 6907 6896 6895 6894 ] final -172.68 input  -60.11 | X-H torsion
[ 7974 7965 7964 7962 ] final   74.73 input  175.53 | X-H torsion
[ 8008 7997 7996 7995 ] final -171.58 input   59.86 | X-H torsion
[ 10167 10162 10161 10158 ] final -148.52 input  -65.29 | X-H torsion
[ 10718 10713 10712 10709 ] final  -41.33 input   66.30 | X-H torsion
[ 10763 10752 10751 10750 ] final  -57.66 input  -60.55 | X-H torsion
[ 11005 11000 10999 10996 ] final    2.07 input  -57.11 | X-H torsion

> <Gold.Protein.ActiveResidues>
 VAL166  LYS551  ARG553  GLY616  TRP617  ASP618  TYR619  PRO620  LYS621  CYS622 
 ASP623  PHE694  ASN695  SER759  ASP760  ASP761  ALA762  ILE779  LEU786  VAL792 
 PHE793  MET794  SER795  GLU796  ALA797  LYS798  CYS799  TRP800  GLU811  SER814 

> <Gold.Protein.RotatedAtoms>
  151.5439  133.3428  159.2940 H   0  0  0  0  0  0  0  0  0  0  0  0  # atno 6907 bound_to 6896
  150.8519  134.7849  159.7026 H   0  0  0  0  0  0  0  0  0  0  0  0  # atno 6908 bound_to 6896
  152.4563  134.5293  159.9858 H   0  0  0  0  0  0  0  0  0  0  0  0  # atno 6909 bound_to 6896
  145.7246  139.2661  143.1576 H   0  0  0  0  0  0  0  0  0  0  0  0  # atno 7974 bound_to 7965
  155.9334  140.1095  157.1114 H   0  0  0  0  0  0  0  0  0  0  0  0  # atno 8008 bound_to 7997
  154.4075  140.1233  156.4898 H   0  0  0  0  0  0  0  0  0  0  0  0  # atno 8009 bound_to 7997
  155.7052  140.3471  155.4952 H   0  0  0  0  0  0  0  0  0  0  0  0  # atno 8010 bound_to 7997
  139.7524  143.8499  152.2589 H   0  0  0  0  0  0  0  0  0  0  0  0  # atno 10167 bound_to 10162
  156.2716  130.4207  149.8432 H   0  0  0  0  0  0  0  0  0  0  0  0  # atno 10718 bound_to 10713
  154.2260  135.6369  153.5160 H   0  0  0  0  0  0  0  0  0  0  0  0  # atno 10763 bound_to 10752
  152.9959  135.5508  154.6064 H   0  0  0  0  0  0  0  0  0  0  0  0  # atno 10764 bound_to 10752
  154.5535  135.2903  155.0960 H   0  0  0  0  0  0  0  0  0  0  0  0  # atno 10765 bound_to 10752
  140.6084  133.9771  155.8165 H   0  0  0  0  0  0  0  0  0  0  0  0  # atno 11005 bound_to 11000
  146.0594  140.7986  142.9742 LP  0  0  0  0  0  0  0  0  0  0  0  0  # atno 17320 bound_to 7965
  144.6908  140.3173  143.7238 LP  0  0  0  0  0  0  0  0  0  0  0  0  # atno 17321 bound_to 7965
  139.8481  144.7178  150.9248 LP  0  0  0  0  0  0  0  0  0  0  0  0  # atno 17342 bound_to 10162
  140.7799  143.3924  151.1288 LP  0  0  0  0  0  0  0  0  0  0  0  0  # atno 17343 bound_to 10162
  156.5912  130.8507  151.3408 LP  0  0  0  0  0  0  0  0  0  0  0  0  # atno 17370 bound_to 10713
  157.7285  130.9658  150.1747 LP  0  0  0  0  0  0  0  0  0  0  0  0  # atno 17371 bound_to 10713
  141.0825  134.0041  157.3364 LP  0  0  0  0  0  0  0  0  0  0  0  0  # atno 17394 bound_to 11000
  139.9202  135.0200  156.8037 LP  0  0  0  0  0  0  0  0  0  0  0  0  # atno 17395 bound_to 11000

$$$$
