AV-unprocessed.smi:37|AV-procd|sdf|330|dock1
  -GOLD-   2262016163D 1   1.00000     0.00000
 Structure written by MMmdl.
 43 44  0  0  0  0  0  0  0  0  2 V2000
  152.6979  142.4431  162.2613 C   0  0  0  0  0  0  0  0  0  0  0  0
  153.8381  141.7424  163.0124 C   0  0  0  0  0  0  0  0  0  0  0  0
  154.3982  140.5567  162.2305 C   0  0  0  0  0  0  0  0  0  0  0  0
  155.3212  139.8727  162.6732 O   0  0  0  0  0  0  0  0  0  0  0  0
  153.7789  140.3770  161.0552 O   0  0  0  0  0  0  0  0  0  0  0  0
  153.8504  139.1209  160.4033 C   0  0  0  0  0  0  0  0  0  0  0  0
  152.9205  139.0939  159.1821 C   0  0  1  0  0  0  0  0  0  0  0  0
  153.6905  139.1365  157.9788 O   0  0  0  0  0  0  0  0  0  0  0  0
  153.1126  138.3153  157.0073 C   0  0  2  0  0  0  0  0  0  0  0  0
  152.0901  139.0950  156.1907 N   0  0  0  0  0  0  0  0  0  0  0  0
  151.6698  140.3630  156.5644 C   0  0  0  0  0  0  0  0  0  0  0  0
  150.7674  141.0492  155.8341 C   0  0  0  0  0  0  0  0  0  0  0  0
  150.3793  142.2740  156.2287 F   0  0  0  0  0  0  0  0  0  0  0  0
  150.2259  140.4581  154.6132 C   0  0  0  0  0  0  0  0  0  0  0  0
  149.3747  141.0713  153.9713 O   0  0  0  0  0  0  0  0  0  0  0  0
  150.7004  139.2373  154.2337 N   0  5  0  0  0  0  0  0  0  0  0  0
  151.6273  138.5478  154.9606 C   0  0  0  0  0  0  0  0  0  0  0  0
  152.0921  137.4676  154.5970 O   0  0  0  0  0  0  0  0  0  0  0  0
  152.4530  137.1744  157.7962 C   0  0  1  0  0  0  0  0  0  0  0  0
  153.8172  135.7828  158.2072 Br  0  0  0  0  0  0  0  0  0  0  0  0
  152.0085  137.8582  159.0856 C   0  0  2  0  0  0  0  0  0  0  0  0
  150.6626  138.3046  158.9584 O   0  0  0  0  0  0  0  0  0  0  0  0
  149.6629  137.4251  158.7677 C   0  0  0  0  0  0  0  0  0  0  0  0
  149.6679  136.2415  159.1060 O   0  0  0  0  0  0  0  0  0  0  0  0
  148.4626  138.0452  158.0563 C   0  0  0  0  0  0  0  0  0  0  0  0
  148.7443  139.4806  157.5889 C   0  0  0  0  0  0  0  0  0  0  0  0
  152.3128  143.2798  162.8440 H   0  0  0  0  0  0  0  0  0  0  0  0
  151.8681  141.7607  162.0744 H   0  0  0  0  0  0  0  0  0  0  0  0
  153.0316  142.8374  161.3007 H   0  0  0  0  0  0  0  0  0  0  0  0
  154.6462  142.4484  163.2054 H   0  0  0  0  0  0  0  0  0  0  0  0
  153.4845  141.3927  163.9827 H   0  0  0  0  0  0  0  0  0  0  0  0
  154.8787  138.9362  160.0896 H   0  0  0  0  0  0  0  0  0  0  0  0
  153.5735  138.3256  161.0969 H   0  0  0  0  0  0  0  0  0  0  0  0
  152.3099  139.9962  159.2246 H   0  0  0  0  0  0  0  0  0  0  0  0
  153.8528  137.9866  156.2761 H   0  0  0  0  0  0  0  0  0  0  0  0
  152.0657  140.8373  157.4480 H   0  0  0  0  0  0  0  0  0  0  0  0
  151.6462  136.6817  157.2552 H   0  0  0  0  0  0  0  0  0  0  0  0
  152.1086  137.2033  159.9525 H   0  0  0  0  0  0  0  0  0  0  0  0
  148.2077  137.4229  157.1980 H   0  0  0  0  0  0  0  0  0  0  0  0
  147.6028  138.0292  158.7262 H   0  0  0  0  0  0  0  0  0  0  0  0
  147.9177  139.8591  156.9882 H   0  0  0  0  0  0  0  0  0  0  0  0
  149.6475  139.5341  156.9797 H   0  0  0  0  0  0  0  0  0  0  0  0
  148.8705  140.1566  158.4349 H   0  0  0  0  0  0  0  0  0  0  0  0
  1  2  1  0  0  0  0
  1 27  1  0  0  0  0
  1 28  1  0  0  0  0
  1 29  1  0  0  0  0
  2  3  1  0  0  0  0
  2 30  1  0  0  0  0
  2 31  1  0  0  0  0
  3  4  2  0  0  0  0
  3  5  1  0  0  0  0
  5  6  1  0  0  0  0
  6  7  1  0  0  0  0
  6 32  1  0  0  0  0
  6 33  1  0  0  0  0
  7 21  1  0  0  0  0
  7  8  1  0  0  0  0
  7 34  1  0  0  0  0
  8  9  1  0  0  0  0
  9 10  1  0  0  0  0
  9 19  1  0  0  0  0
  9 35  1  0  0  0  0
 10 17  1  0  0  0  0
 10 11  1  0  0  0  0
 11 12  2  0  0  0  0
 11 36  1  0  0  0  0
 12 13  1  0  0  0  0
 12 14  1  0  0  0  0
 14 15  2  0  0  0  0
 14 16  1  0  0  0  0
 16 17  1  0  0  0  0
 17 18  2  0  0  0  0
 19 20  1  0  0  0  0
 19 21  1  0  0  0  0
 19 37  1  0  0  0  0
 21 22  1  0  0  0  0
 21 38  1  0  0  0  0
 22 23  1  0  0  0  0
 23 24  2  0  0  0  0
 23 25  1  0  0  0  0
 25 26  1  0  0  0  0
 25 39  1  0  0  0  0
 25 40  1  0  0  0  0
 26 41  1  0  0  0  0
 26 42  1  0  0  0  0
 26 43  1  0  0  0  0
M  CHG  1  16  -1
M  END
> <s_m_source_file>
AV-unprocessed.smi

> <i_m_source_file_index>
37

> <i_lp_mmshare_version>
43012

> <i_f3d_flags>
0

> <s_epik_input>
W0NIM11bQ0gyXUMoPU8pT1tDSDJdW0NAQEhdMU9bQ0BASF0objJbY0hdYyhGKWMoPU8pW25IXWMyPU8pW0NAQEhdKEJyKVtDQEhdMU9DKD1PKVtDSDJdW0NIM10=

> <s_epik_cmdline>
J2VwaWtfcHl0aG9uJywgJy1waCcsICc3LjAnLCAnLXRuJywgJzgnLCAnLW1hJywgJzIwMCcsICctbWV0YWxfYmluZGluZycsICctaW1hZScsICc8aW5maWxlLm1hZT4nLCAnLW9tYWUnLCAnPG91dGZpbGUubWFlPic=

> <r_epik_Ionization_Penalty>
1.08158

> <r_epik_Ionization_Penalty_Charging>
9.05154e-09

> <r_epik_Ionization_Penalty_Neutral>
1.08158

> <r_epik_State_Penalty>
1.13706

> <r_epik_Charging_Adjusted_Penalty>
1.13706

> <i_epik_Tot_Q>
-1

> <i_epik_Tot_abs_Q>
1

> <r_epik_Metal_State_Penalty>
0.00343535

> <b_epik_Metal_Only>
0

> <s_epik_Chemistry_Notes>
This compound has an ester and may undergo hydrolysis at high or low pH. This compound contains an acetal/aminal-like group ( X-CH(R)-Y where X, Y are N, S, or O) that may be acid/base labile, releasing an aldehyde.

> <s_lp_Force_Field>
OPLS_2005

> <r_lp_Energy>
28.0261

> <b_lp_Chiralities_Consistent>
1

> <s_lp_Variant>
AV-unprocessed.smi:37-28

> <Gold.Version>
5.8.1

> <Gold.Id.Protein>
6NUR|6NUR_protein|mol2

> <Gold.PLP.Fitness>
44.6645

> <Gold.PLP.PLP>
-37.8887

> <Gold.PLP.part.hbond>
-6.2249

> <Gold.PLP.part.metal>
0.0000

> <Gold.PLP.part.buried>
1.4150

> <Gold.PLP.part.nonpolar>
-33.3962

> <Gold.PLP.part.repulsive>
1.1229

> <Gold.PLP.ligand.clash>
0.0000

> <Gold.PLP.ligand.torsion>
1.7400

> <Gold.PLP.Chemscore.Hbond>
3.3611

> <Gold.PLP.Chemscore.CHOScore>
0.0000

> <Gold.PLP.Chemscore.Metal>
0.0000

> <Gold.Chemscore.Hbonds>
donor molecule, donor type, donor heavy atom, donor atom, acceptor molecule, acceptor atom, score
      P1  H  6896  6909       L1    24  1.00
      P1  H  7997  8009       L1     8  1.00
      P1  H  8011  8017       L1    15  0.60
      P1  H 10752 10765       L1    18  0.83

> <Gold.PLP.Chemscore.Internal.Correction>
0.1726

> <Gold.Rescore>
     Score         DG    S(hbond)    S(metal)    S(lipo)     H(rot)  DE(clash)    DE(int)     intcor
     11.94     -13.89       2.90        0.00      60.50       3.27       0.33       1.61       ----

> <Gold.Chemscore.Fitness>
11.9412

> <Gold.Chemscore.DG>
-13.8872

> <Gold.Chemscore.ZeroCoef>
-5.4800

> <Gold.Chemscore.Hbond>
2.9017

> <Gold.Chemscore.Metal>
0.0000

> <Gold.Chemscore.Lipo>
60.5039

> <Gold.Chemscore.Internal_Hbond>
0.0000

> <Gold.Chemscore.DEClash>
0.3321

> <Gold.Chemscore.DEInternal>
1.6139

> <Gold.Chemscore.Rot>
3.2669

> <Gold.Chemscore.Internal.Correction>
   9.000000E+99

> <Gold.Chemscore.Hbonds>
donor molecule, donor type, donor heavy atom, donor atom, acceptor molecule, acceptor atom, score
      P1  H  6896  6909       L1    24  0.99
      P1  H  7997  8009       L1     8  0.58
      P1  H  8011  8017       L1    15  0.58
      P1  H 10752 10765       L1    18  0.78

> <Gold.Chemscore.Hbond.Weighted>
-9.6916

> <Gold.Chemscore.Metal.Weighted>
-0.0000

> <Gold.Chemscore.Lipo.Weighted>
-7.0790

> <Gold.Chemscore.Internal_Hbond.Weighted>
0.0000

> <Gold.Chemscore.DEClash.Weighted>
0.3321

> <Gold.Chemscore.DEInternal.Weighted>
1.6139

> <Gold.Chemscore.Rot.Weighted>
8.3634

> <Gold.Chemscore.Internal.Correction.Weighted>
   9.000000E+99

> <Gold.Protein.RotatedTorsions>
[ 6907 6896 6895 6894 ] final   57.74 input  -60.11 | X-H torsion
[ 7974 7965 7964 7962 ] final  -66.11 input  175.53 | X-H torsion
[ 8008 7997 7996 7995 ] final  132.72 input   59.86 | X-H torsion
[ 10167 10162 10161 10158 ] final   -5.57 input  -65.29 | X-H torsion
[ 10718 10713 10712 10709 ] final  -85.44 input   66.30 | X-H torsion
[ 10763 10752 10751 10750 ] final  167.79 input  -60.55 | X-H torsion
[ 11005 11000 10999 10996 ] final  -18.32 input  -57.11 | X-H torsion

> <Gold.Protein.ActiveResidues>
 VAL166  LYS551  ARG553  GLY616  TRP617  ASP618  TYR619  PRO620  LYS621  CYS622 
 ASP623  PHE694  ASN695  SER759  ASP760  ASP761  ALA762  ILE779  LEU786  VAL792 
 PHE793  MET794  SER795  GLU796  ALA797  LYS798  CYS799  TRP800  GLU811  SER814 

> <Gold.Protein.RotatedAtoms>
  152.3760  134.6663  160.0159 H   0  0  0  0  0  0  0  0  0  0  0  0  # atno 6907 bound_to 6896
  151.6941  133.3305  159.3258 H   0  0  0  0  0  0  0  0  0  0  0  0  # atno 6908 bound_to 6896
  150.7709  134.6608  159.6383 H   0  0  0  0  0  0  0  0  0  0  0  0  # atno 6909 bound_to 6896
  145.7459  140.8931  143.0505 H   0  0  0  0  0  0  0  0  0  0  0  0  # atno 7974 bound_to 7965
  156.2985  140.2539  156.3135 H   0  0  0  0  0  0  0  0  0  0  0  0  # atno 8008 bound_to 7997
  154.9303  140.0398  157.2063 H   0  0  0  0  0  0  0  0  0  0  0  0  # atno 8009 bound_to 7997
  154.8224  140.2862  155.5782 H   0  0  0  0  0  0  0  0  0  0  0  0  # atno 8010 bound_to 7997
  140.6967  143.6293  150.8538 H   0  0  0  0  0  0  0  0  0  0  0  0  # atno 10167 bound_to 10162
  155.9997  130.4731  150.4562 H   0  0  0  0  0  0  0  0  0  0  0  0  # atno 10718 bound_to 10713
  154.3591  135.2753  155.2330 H   0  0  0  0  0  0  0  0  0  0  0  0  # atno 10763 bound_to 10752
  154.4526  135.5927  153.6205 H   0  0  0  0  0  0  0  0  0  0  0  0  # atno 10764 bound_to 10752
  152.9844  135.6045  154.3809 H   0  0  0  0  0  0  0  0  0  0  0  0  # atno 10765 bound_to 10752
  140.8257  133.8035  155.9705 H   0  0  0  0  0  0  0  0  0  0  0  0  # atno 11005 bound_to 11000
  144.6860  139.9524  143.7478 LP  0  0  0  0  0  0  0  0  0  0  0  0  # atno 17320 bound_to 7965
  146.0403  139.3416  143.0701 LP  0  0  0  0  0  0  0  0  0  0  0  0  # atno 17321 bound_to 7965
  140.0012  143.5742  152.2875 LP  0  0  0  0  0  0  0  0  0  0  0  0  # atno 17342 bound_to 10162
  139.6432  144.7656  151.2296 LP  0  0  0  0  0  0  0  0  0  0  0  0  # atno 17343 bound_to 10162
  157.2590  131.0563  151.2332 LP  0  0  0  0  0  0  0  0  0  0  0  0  # atno 17370 bound_to 10713
  157.3453  130.7054  149.6407 LP  0  0  0  0  0  0  0  0  0  0  0  0  # atno 17371 bound_to 10713
  140.9052  134.2329  157.5018 LP  0  0  0  0  0  0  0  0  0  0  0  0  # atno 17394 bound_to 11000
  139.8706  134.9725  156.4775 LP  0  0  0  0  0  0  0  0  0  0  0  0  # atno 17395 bound_to 11000

$$$$
