AV-unprocessed.smi:3240|AV-procd|sdf|12384|dock9
  -GOLD-   2272018253D 1   1.00000     0.00000
 Structure written by MMmdl.
 43 44  0  0  0  0  0  0  0  0  1 V2000
  145.0757  131.9756  150.5043 C   0  0  0  0  0  0  0  0  0  0  0  0
  146.1185  132.3274  151.5258 C   0  0  0  0  0  0  0  0  0  0  0  0
  145.9356  132.5449  152.9210 C   0  0  0  0  0  0  0  0  0  0  0  0
  147.0623  132.8420  153.5474 N   0  0  0  0  0  0  0  0  0  0  0  0
  148.0009  132.8314  152.5769 N   0  0  0  0  0  0  0  0  0  0  0  0
  149.3863  133.1224  152.9031 C   0  0  0  0  0  0  0  0  0  0  0  0
  149.5481  133.8446  154.2573 C   0  0  1  0  0  0  0  0  0  0  0  0
  150.1861  132.9442  155.3360 C   0  0  0  0  0  0  0  0  0  0  0  0
  150.3150  135.0775  154.0527 N   0  0  0  0  0  0  0  0  0  0  0  0
  150.6400  135.8322  155.2670 C   0  0  0  0  0  0  0  0  0  0  0  0
  150.8030  137.3454  154.9980 C   0  0  0  0  0  0  0  0  0  0  0  0
  151.7145  137.4753  153.9218 O   0  0  0  0  0  0  0  0  0  0  0  0
  149.4627  138.0385  154.6418 C   0  0  0  0  0  0  0  0  0  0  0  0
  149.5930  139.5672  154.5115 C   0  0  0  0  0  0  0  0  0  0  0  0
  150.2074  140.1892  155.7729 C   0  0  0  0  0  0  0  0  0  0  0  0
  151.5646  139.5489  156.0931 C   0  0  0  0  0  0  0  0  0  0  0  0
  151.4418  138.0212  156.2348 C   0  0  0  0  0  0  0  0  0  0  0  0
  147.4595  132.5189  151.3482 C   0  0  0  0  0  0  0  0  0  0  0  0
  144.2906  131.3494  150.9282 H   0  0  0  0  0  0  0  0  0  0  0  0
  145.5013  131.4295  149.6622 H   0  0  0  0  0  0  0  0  0  0  0  0
  144.5942  132.8663  150.1004 H   0  0  0  0  0  0  0  0  0  0  0  0
  145.0214  132.4949  153.4941 H   0  0  0  0  0  0  0  0  0  0  0  0
  149.9544  132.1902  152.9007 H   0  0  0  0  0  0  0  0  0  0  0  0
  149.7955  133.7361  152.0993 H   0  0  0  0  0  0  0  0  0  0  0  0
  148.5484  134.1129  154.6010 H   0  0  0  0  0  0  0  0  0  0  0  0
  149.6190  132.0239  155.4755 H   0  0  0  0  0  0  0  0  0  0  0  0
  150.2184  133.4313  156.3097 H   0  0  0  0  0  0  0  0  0  0  0  0
  151.2051  132.6656  155.0654 H   0  0  0  0  0  0  0  0  0  0  0  0
  149.8202  135.6805  153.4032 H   0  0  0  0  0  0  0  0  0  0  0  0
  149.8456  135.6870  156.0002 H   0  0  0  0  0  0  0  0  0  0  0  0
  151.5530  135.4513  155.7240 H   0  0  0  0  0  0  0  0  0  0  0  0
  151.2701  137.2275  153.1252 H   0  0  0  0  0  0  0  0  0  0  0  0
  149.0549  137.6377  153.7133 H   0  0  0  0  0  0  0  0  0  0  0  0
  148.7281  137.8149  155.4166 H   0  0  0  0  0  0  0  0  0  0  0  0
  150.2096  139.8122  153.6459 H   0  0  0  0  0  0  0  0  0  0  0  0
  148.6133  140.0067  154.3232 H   0  0  0  0  0  0  0  0  0  0  0  0
  150.3260  141.2647  155.6378 H   0  0  0  0  0  0  0  0  0  0  0  0
  149.5294  140.0547  156.6165 H   0  0  0  0  0  0  0  0  0  0  0  0
  152.2792  139.7919  155.3058 H   0  0  0  0  0  0  0  0  0  0  0  0
  151.9662  139.9739  157.0131 H   0  0  0  0  0  0  0  0  0  0  0  0
  150.8356  137.8042  157.1156 H   0  0  0  0  0  0  0  0  0  0  0  0
  152.4247  137.5924  156.4350 H   0  0  0  0  0  0  0  0  0  0  0  0
  148.0676  132.4622  150.4576 H   0  0  0  0  0  0  0  0  0  0  0  0
  1  2  1  0  0  0  0
  1 19  1  0  0  0  0
  1 20  1  0  0  0  0
  1 21  1  0  0  0  0
  2 18  2  0  0  0  0
  2  3  1  0  0  0  0
  3  4  2  0  0  0  0
  3 22  1  0  0  0  0
  4  5  1  0  0  0  0
  5  6  1  0  0  0  0
  5 18  1  0  0  0  0
  6  7  1  0  0  0  0
  6 23  1  0  0  0  0
  6 24  1  0  0  0  0
  7  8  1  0  0  0  0
  7  9  1  0  0  0  0
  7 25  1  0  0  0  0
  8 26  1  0  0  0  0
  8 27  1  0  0  0  0
  8 28  1  0  0  0  0
  9 10  1  0  0  0  0
  9 29  1  0  0  0  0
 10 11  1  0  0  0  0
 10 30  1  0  0  0  0
 10 31  1  0  0  0  0
 11 17  1  0  0  0  0
 11 12  1  0  0  0  0
 11 13  1  0  0  0  0
 12 32  1  0  0  0  0
 13 14  1  0  0  0  0
 13 33  1  0  0  0  0
 13 34  1  0  0  0  0
 14 15  1  0  0  0  0
 14 35  1  0  0  0  0
 14 36  1  0  0  0  0
 15 16  1  0  0  0  0
 15 37  1  0  0  0  0
 15 38  1  0  0  0  0
 16 17  1  0  0  0  0
 16 39  1  0  0  0  0
 16 40  1  0  0  0  0
 17 41  1  0  0  0  0
 17 42  1  0  0  0  0
 18 43  1  0  0  0  0
M  END
> <s_m_source_file>
AV-unprocessed.smi

> <i_m_source_file_index>
3240

> <i_lp_mmshare_version>
43012

> <i_f3d_flags>
0

> <s_epik_input>
W0NIM11jMVtjSF1ubihbY0hdMSlbQ0gyXVtDQEhdKFtDSDNdKVtOSF1bQ0gyXUMyKFtPSF0pW0NIMl1bQ0gyXVtDSDJdW0NIMl1bQ0gyXTI=

> <s_epik_cmdline>
J2VwaWtfcHl0aG9uJywgJy1waCcsICc3LjAnLCAnLXRuJywgJzgnLCAnLW1hJywgJzIwMCcsICctbWV0YWxfYmluZGluZycsICctaW1hZScsICc8aW5maWxlLm1hZT4nLCAnLW9tYWUnLCAnPG91dGZpbGUubWFlPic=

> <r_lp_tautomer_probability>
1

> <r_epik_Ionization_Penalty>
2.35969

> <r_epik_Ionization_Penalty_Charging>
0

> <r_epik_Ionization_Penalty_Neutral>
2.35969

> <r_epik_State_Penalty>
2.51455

> <r_epik_Charging_Adjusted_Penalty>
2.51455

> <i_epik_Tot_Q>
0

> <i_epik_Tot_abs_Q>
0

> <r_epik_Metal_State_Penalty>
2.51446

> <b_epik_Metal_Only>
0

> <s_lp_Force_Field>
OPLS_2005

> <r_lp_Energy>
22.6589

> <b_lp_Chiralities_Consistent>
1

> <s_lp_Variant>
AV-unprocessed.smi:3240-4

> <Gold.Version>
5.8.1

> <Gold.Id.Protein>
6NUR|6NUR_protein|mol2

> <Gold.PLP.Fitness>
45.4800

> <Gold.PLP.PLP>
-33.9525

> <Gold.PLP.part.hbond>
-4.0000

> <Gold.PLP.part.metal>
0.0000

> <Gold.PLP.part.buried>
-0.4221

> <Gold.PLP.part.nonpolar>
-29.6866

> <Gold.PLP.part.repulsive>
0.0732

> <Gold.PLP.ligand.clash>
0.0000

> <Gold.PLP.ligand.torsion>
1.2313

> <Gold.PLP.Chemscore.Hbond>
2.6420

> <Gold.PLP.Chemscore.CHOScore>
2.0000

> <Gold.PLP.Chemscore.Metal>
0.0000

> <Gold.Chemscore.Hbonds>
donor molecule, donor type, donor heavy atom, donor atom, acceptor molecule, acceptor atom, score
      L1  H     9    29       P1  7948  0.50
      L1  H    12    32       P1  7949  0.92
      P1  H 10752 10764       L1    12  0.53
      L1  C     3    22       P1 10957  0.39
      L1  C    18    43       P1 10747  0.36

> <Gold.PLP.Chemscore.Internal.Correction>
0.0640

> <Gold.Rescore>
     Score         DG    S(hbond)    S(metal)    S(lipo)     H(rot)  DE(clash)    DE(int)     intcor
     13.96     -15.33       1.59        0.00      83.45       2.04       0.10       1.26       ----

> <Gold.Chemscore.Fitness>
13.9648

> <Gold.Chemscore.DG>
-15.3302

> <Gold.Chemscore.ZeroCoef>
-5.4800

> <Gold.Chemscore.Hbond>
1.5931

> <Gold.Chemscore.Metal>
0.0000

> <Gold.Chemscore.Lipo>
83.4512

> <Gold.Chemscore.Internal_Hbond>
0.0000

> <Gold.Chemscore.DEClash>
0.1027

> <Gold.Chemscore.DEInternal>
1.2627

> <Gold.Chemscore.Rot>
2.0447

> <Gold.Chemscore.Internal.Correction>
   9.000000E+99

> <Gold.Chemscore.Hbonds>
donor molecule, donor type, donor heavy atom, donor atom, acceptor molecule, acceptor atom, score
      L1  H     9    29       P1  7948  0.02
      L1  H    12    32       P1  7949  0.55
      P1  H 10752 10764       L1    12  0.04

> <Gold.Chemscore.Hbond.Weighted>
-5.3208

> <Gold.Chemscore.Metal.Weighted>
-0.0000

> <Gold.Chemscore.Lipo.Weighted>
-9.7638

> <Gold.Chemscore.Internal_Hbond.Weighted>
0.0000

> <Gold.Chemscore.DEClash.Weighted>
0.1027

> <Gold.Chemscore.DEInternal.Weighted>
1.2627

> <Gold.Chemscore.Rot.Weighted>
5.2344

> <Gold.Chemscore.Internal.Correction.Weighted>
   9.000000E+99

> <Gold.Protein.RotatedTorsions>
[ 6907 6896 6895 6894 ] final -168.67 input  -60.11 | X-H torsion
[ 7974 7965 7964 7962 ] final   42.65 input  175.53 | X-H torsion
[ 8008 7997 7996 7995 ] final  -16.60 input   59.86 | X-H torsion
[ 10167 10162 10161 10158 ] final   -6.28 input  -65.29 | X-H torsion
[ 10718 10713 10712 10709 ] final  170.85 input   66.30 | X-H torsion
[ 10763 10752 10751 10750 ] final  -87.58 input  -60.55 | X-H torsion
[ 11005 11000 10999 10996 ] final   36.85 input  -57.11 | X-H torsion

> <Gold.Protein.ActiveResidues>
 VAL166  LYS551  ARG553  GLY616  TRP617  ASP618  TYR619  PRO620  LYS621  CYS622 
 ASP623  PHE694  ASN695  SER759  ASP760  ASP761  ALA762  ILE779  LEU786  VAL792 
 PHE793  MET794  SER795  GLU796  ALA797  LYS798  CYS799  TRP800  GLU811  SER814 

> <Gold.Protein.RotatedAtoms>
  151.4792  133.3550  159.2835 H   0  0  0  0  0  0  0  0  0  0  0  0  # atno 6907 bound_to 6896
  150.8908  134.8314  159.7303 H   0  0  0  0  0  0  0  0  0  0  0  0  # atno 6908 bound_to 6896
  152.4822  134.4702  159.9685 H   0  0  0  0  0  0  0  0  0  0  0  0  # atno 6909 bound_to 6896
  146.0722  139.5276  142.9590 H   0  0  0  0  0  0  0  0  0  0  0  0  # atno 7974 bound_to 7965
  154.5040  140.2165  155.9288 H   0  0  0  0  0  0  0  0  0  0  0  0  # atno 8008 bound_to 7997
  156.1471  140.3168  155.8554 H   0  0  0  0  0  0  0  0  0  0  0  0  # atno 8009 bound_to 7997
  155.4011  140.0484  157.3027 H   0  0  0  0  0  0  0  0  0  0  0  0  # atno 8010 bound_to 7997
  140.6991  143.6212  150.8610 H   0  0  0  0  0  0  0  0  0  0  0  0  # atno 10167 bound_to 10162
  157.0020  131.0179  151.2828 H   0  0  0  0  0  0  0  0  0  0  0  0  # atno 10718 bound_to 10713
  154.6352  135.5408  153.7726 H   0  0  0  0  0  0  0  0  0  0  0  0  # atno 10763 bound_to 10752
  153.0305  135.6445  154.1242 H   0  0  0  0  0  0  0  0  0  0  0  0  # atno 10764 bound_to 10752
  154.1170  135.2923  155.3197 H   0  0  0  0  0  0  0  0  0  0  0  0  # atno 10765 bound_to 10752
  140.2284  134.3557  155.7974 H   0  0  0  0  0  0  0  0  0  0  0  0  # atno 11005 bound_to 11000
  145.6370  141.0292  143.1832 LP  0  0  0  0  0  0  0  0  0  0  0  0  # atno 17320 bound_to 7965
  144.7239  139.7940  143.7372 LP  0  0  0  0  0  0  0  0  0  0  0  0  # atno 17321 bound_to 7965
  139.9933  143.5823  152.2902 LP  0  0  0  0  0  0  0  0  0  0  0  0  # atno 17342 bound_to 10162
  139.6486  144.7659  151.2193 LP  0  0  0  0  0  0  0  0  0  0  0  0  # atno 17343 bound_to 10162
  157.5383  130.8103  149.7998 LP  0  0  0  0  0  0  0  0  0  0  0  0  # atno 17370 bound_to 10713
  156.0167  130.3811  150.2088 LP  0  0  0  0  0  0  0  0  0  0  0  0  # atno 17371 bound_to 10713
  141.2219  133.7232  156.8691 LP  0  0  0  0  0  0  0  0  0  0  0  0  # atno 17394 bound_to 11000
  140.1776  134.9056  157.2910 LP  0  0  0  0  0  0  0  0  0  0  0  0  # atno 17395 bound_to 11000

$$$$
