AV-unprocessed.smi:421|AV-procd|sdf|2535|dock10
  -GOLD-   2262022493D 1   1.00000     0.00000
 Structure written by MMmdl.
 43 45  0  0  0  0  0  0  0  0  1 V2000
  153.9013  141.2270  160.8152 C   0  0  0  0  0  0  0  0  0  0  0  0
  153.0422  141.7205  159.7456 N   0  0  0  0  0  0  0  0  0  0  0  0
  152.7086  141.0708  158.6063 C   0  0  0  0  0  0  0  0  0  0  0  0
  153.0748  139.9412  158.2821 O   0  0  0  0  0  0  0  0  0  0  0  0
  151.8960  141.8788  157.8849 N   0  0  0  0  0  0  0  0  0  0  0  0
  151.2830  141.5670  156.5948 C   0  0  0  0  0  0  0  0  0  0  0  0
  150.1720  140.5066  156.7346 C   0  0  1  0  0  0  0  0  0  0  0  0
  149.3428  140.8051  157.8391 O   0  0  0  0  0  0  0  0  0  0  0  0
  149.2746  140.4015  155.4907 C   0  0  0  0  0  0  0  0  0  0  0  0
  148.7779  141.6828  155.1358 O   0  0  0  0  0  0  0  0  0  0  0  0
  147.7880  141.6261  154.1234 C   0  0  0  0  0  0  0  0  0  0  0  0
  146.5342  142.3685  154.5382 C   0  0  0  0  0  0  0  0  0  0  0  0
  145.9712  143.3448  153.6895 C   0  0  0  0  0  0  0  0  0  0  0  0
  144.8047  144.0317  154.0786 C   0  0  0  0  0  0  0  0  0  0  0  0
  144.1971  143.7443  155.3163 C   0  0  0  0  0  0  0  0  0  0  0  0
  144.7556  142.7686  156.1646 C   0  0  0  0  0  0  0  0  0  0  0  0
  145.9221  142.0812  155.7760 C   0  0  0  0  0  0  0  0  0  0  0  0
  151.7021  143.0786  158.5853 C   0  0  0  0  0  0  0  0  0  0  0  0
  150.9464  144.2229  158.2745 C   0  0  0  0  0  0  0  0  0  0  0  0
  150.9591  145.2809  159.2137 C   0  0  0  0  0  0  0  0  0  0  0  0
  151.7073  145.1782  160.4152 C   0  0  0  0  0  0  0  0  0  0  0  0
  152.4578  144.0145  160.7041 C   0  0  0  0  0  0  0  0  0  0  0  0
  152.4263  142.9785  159.7548 C   0  0  0  0  0  0  0  0  0  0  0  0
  154.0460  140.1475  160.7542 H   0  0  0  0  0  0  0  0  0  0  0  0
  153.4648  141.4483  161.7896 H   0  0  0  0  0  0  0  0  0  0  0  0
  154.8792  141.7054  160.7611 H   0  0  0  0  0  0  0  0  0  0  0  0
  150.9086  142.4702  156.1122 H   0  0  0  0  0  0  0  0  0  0  0  0
  152.0659  141.1864  155.9366 H   0  0  0  0  0  0  0  0  0  0  0  0
  150.6121  139.5243  156.9118 H   0  0  0  0  0  0  0  0  0  0  0  0
  149.8932  141.0623  158.5630 H   0  0  0  0  0  0  0  0  0  0  0  0
  149.8625  140.0095  154.6591 H   0  0  0  0  0  0  0  0  0  0  0  0
  148.4568  139.6994  155.6630 H   0  0  0  0  0  0  0  0  0  0  0  0
  148.1705  142.0666  153.2010 H   0  0  0  0  0  0  0  0  0  0  0  0
  147.5383  140.5870  153.9024 H   0  0  0  0  0  0  0  0  0  0  0  0
  146.4310  143.5689  152.7380 H   0  0  0  0  0  0  0  0  0  0  0  0
  144.3759  144.7791  153.4273 H   0  0  0  0  0  0  0  0  0  0  0  0
  143.3028  144.2715  155.6144 H   0  0  0  0  0  0  0  0  0  0  0  0
  144.2895  142.5474  157.1134 H   0  0  0  0  0  0  0  0  0  0  0  0
  146.3461  141.3326  156.4292 H   0  0  0  0  0  0  0  0  0  0  0  0
  150.3766  144.2963  157.3603 H   0  0  0  0  0  0  0  0  0  0  0  0
  150.3917  146.1779  159.0137 H   0  0  0  0  0  0  0  0  0  0  0  0
  151.7028  145.9979  161.1184 H   0  0  0  0  0  0  0  0  0  0  0  0
  153.0284  143.9284  161.6170 H   0  0  0  0  0  0  0  0  0  0  0  0
  1  2  1  0  0  0  0
  1 24  1  0  0  0  0
  1 25  1  0  0  0  0
  1 26  1  0  0  0  0
  2 23  1  0  0  0  0
  2  3  1  0  0  0  0
  3  4  2  0  0  0  0
  3  5  1  0  0  0  0
  5  6  1  0  0  0  0
  5 18  1  0  0  0  0
  6  7  1  0  0  0  0
  6 27  1  0  0  0  0
  6 28  1  0  0  0  0
  7  8  1  0  0  0  0
  7  9  1  0  0  0  0
  7 29  1  0  0  0  0
  8 30  1  0  0  0  0
  9 10  1  0  0  0  0
  9 31  1  0  0  0  0
  9 32  1  0  0  0  0
 10 11  1  0  0  0  0
 11 12  1  0  0  0  0
 11 33  1  0  0  0  0
 11 34  1  0  0  0  0
 12 17  1  0  0  0  0
 12 13  2  0  0  0  0
 13 14  1  0  0  0  0
 13 35  1  0  0  0  0
 14 15  2  0  0  0  0
 14 36  1  0  0  0  0
 15 16  1  0  0  0  0
 15 37  1  0  0  0  0
 16 17  2  0  0  0  0
 16 38  1  0  0  0  0
 17 39  1  0  0  0  0
 18 23  2  0  0  0  0
 18 19  1  0  0  0  0
 19 20  2  0  0  0  0
 19 40  1  0  0  0  0
 20 21  1  0  0  0  0
 20 41  1  0  0  0  0
 21 22  2  0  0  0  0
 21 42  1  0  0  0  0
 22 23  1  0  0  0  0
 22 43  1  0  0  0  0
M  END
> <s_m_source_file>
AV-unprocessed.smi

> <i_m_source_file_index>
421

> <i_lp_mmshare_version>
43012

> <i_f3d_flags>
0

> <s_epik_input>
W2NIXTFbY0hdW2NIXVtjSF1jKGMxMiluKFtDSDNdKWMoPU8pbjJbQ0gyXVtDQEhdKFtPSF0pW0NIMl1PW0NIMl1jM1tjSF1bY0hdW2NIXVtjSF1bY0hdMw==

> <s_epik_cmdline>
J2VwaWtfcHl0aG9uJywgJy1waCcsICc3LjAnLCAnLXRuJywgJzgnLCAnLW1hJywgJzIwMCcsICctbWV0YWxfYmluZGluZycsICctaW1hZScsICc8aW5maWxlLm1hZT4nLCAnLW9tYWUnLCAnPG91dGZpbGUubWFlPic=

> <r_lp_tautomer_probability>
1

> <r_epik_Ionization_Penalty>
1.0795e-06

> <r_epik_Ionization_Penalty_Charging>
2.82452e-09

> <r_epik_Ionization_Penalty_Neutral>
1.07667e-06

> <r_epik_State_Penalty>
-0

> <r_epik_Charging_Adjusted_Penalty>
2.82452e-09

> <i_epik_Tot_Q>
0

> <i_epik_Tot_abs_Q>
0

> <r_epik_Metal_State_Penalty>
-0

> <b_epik_Metal_Only>
0

> <s_lp_Force_Field>
OPLS_2005

> <r_lp_Energy>
47.6123

> <b_lp_Chiralities_Consistent>
1

> <s_lp_Variant>
AV-unprocessed.smi:421-2

> <Gold.Version>
5.8.1

> <Gold.Id.Protein>
6NUR|6NUR_protein|mol2

> <Gold.PLP.Fitness>
54.7446

> <Gold.PLP.PLP>
-53.0487

> <Gold.PLP.part.hbond>
-1.0000

> <Gold.PLP.part.metal>
0.0000

> <Gold.PLP.part.buried>
-8.6252

> <Gold.PLP.part.nonpolar>
-43.3942

> <Gold.PLP.part.repulsive>
0.5954

> <Gold.PLP.ligand.clash>
0.0000

> <Gold.PLP.ligand.torsion>
0.7102

> <Gold.PLP.Chemscore.Hbond>
1.0000

> <Gold.PLP.Chemscore.CHOScore>
0.0000

> <Gold.PLP.Chemscore.Metal>
0.0000

> <Gold.Chemscore.Hbonds>
donor molecule, donor type, donor heavy atom, donor atom, acceptor molecule, acceptor atom, score
      P1  H  7997  8008       L1     4  1.00

> <Gold.PLP.Chemscore.Internal.Correction>
0.1163

> <Gold.Rescore>
     Score         DG    S(hbond)    S(metal)    S(lipo)     H(rot)  DE(clash)    DE(int)     intcor
     17.31     -18.50       0.89        0.00     134.28       2.21       0.52       0.67       ----

> <Gold.Chemscore.Fitness>
17.3063

> <Gold.Chemscore.DG>
-18.4979

> <Gold.Chemscore.ZeroCoef>
-5.4800

> <Gold.Chemscore.Hbond>
0.8890

> <Gold.Chemscore.Metal>
0.0000

> <Gold.Chemscore.Lipo>
134.2822

> <Gold.Chemscore.Internal_Hbond>
0.0000

> <Gold.Chemscore.DEClash>
0.5212

> <Gold.Chemscore.DEInternal>
0.6704

> <Gold.Chemscore.Rot>
2.2119

> <Gold.Chemscore.Internal.Correction>
   9.000000E+99

> <Gold.Chemscore.Hbonds>
donor molecule, donor type, donor heavy atom, donor atom, acceptor molecule, acceptor atom, score
      P1  H  7997  8008       L1     4  0.72

> <Gold.Chemscore.Hbond.Weighted>
-2.9693

> <Gold.Chemscore.Metal.Weighted>
-0.0000

> <Gold.Chemscore.Lipo.Weighted>
-15.7110

> <Gold.Chemscore.Internal_Hbond.Weighted>
0.0000

> <Gold.Chemscore.DEClash.Weighted>
0.5212

> <Gold.Chemscore.DEInternal.Weighted>
0.6704

> <Gold.Chemscore.Rot.Weighted>
5.6623

> <Gold.Chemscore.Internal.Correction.Weighted>
   9.000000E+99

> <Gold.Protein.RotatedTorsions>
[ 6907 6896 6895 6894 ] final -177.24 input  -60.11 | X-H torsion
[ 7974 7965 7964 7962 ] final   20.87 input  175.53 | X-H torsion
[ 8008 7997 7996 7995 ] final  -81.18 input   59.86 | X-H torsion
[ 10167 10162 10161 10158 ] final  -85.45 input  -65.29 | X-H torsion
[ 10718 10713 10712 10709 ] final -137.51 input   66.30 | X-H torsion
[ 10763 10752 10751 10750 ] final -167.54 input  -60.55 | X-H torsion
[ 11005 11000 10999 10996 ] final  175.78 input  -57.11 | X-H torsion

> <Gold.Protein.ActiveResidues>
 VAL166  LYS551  ARG553  GLY616  TRP617  ASP618  TYR619  PRO620  LYS621  CYS622 
 ASP623  PHE694  ASN695  SER759  ASP760  ASP761  ALA762  ILE779  LEU786  VAL792 
 PHE793  MET794  SER795  GLU796  ALA797  LYS798  CYS799  TRP800  GLU811  SER814 

> <Gold.Protein.RotatedAtoms>
  151.6177  133.3341  159.3080 H   0  0  0  0  0  0  0  0  0  0  0  0  # atno 6907 bound_to 6896
  150.8122  134.7287  159.6710 H   0  0  0  0  0  0  0  0  0  0  0  0  # atno 6908 bound_to 6896
  152.4219  134.5945  160.0034 H   0  0  0  0  0  0  0  0  0  0  0  0  # atno 6909 bound_to 6896
  146.2094  139.8108  142.8700 H   0  0  0  0  0  0  0  0  0  0  0  0  # atno 7974 bound_to 7965
  154.5957  140.0652  156.9300 H   0  0  0  0  0  0  0  0  0  0  0  0  # atno 8008 bound_to 7997
  155.2218  140.3331  155.4296 H   0  0  0  0  0  0  0  0  0  0  0  0  # atno 8009 bound_to 7997
  156.2285  140.1830  156.7285 H   0  0  0  0  0  0  0  0  0  0  0  0  # atno 8010 bound_to 7997
  140.4036  143.2652  151.9110 H   0  0  0  0  0  0  0  0  0  0  0  0  # atno 10167 bound_to 10162
  156.2890  130.7364  151.1384 H   0  0  0  0  0  0  0  0  0  0  0  0  # atno 10718 bound_to 10713
  154.6721  135.2941  154.9727 H   0  0  0  0  0  0  0  0  0  0  0  0  # atno 10763 bound_to 10752
  154.0751  135.6612  153.4833 H   0  0  0  0  0  0  0  0  0  0  0  0  # atno 10764 bound_to 10752
  153.0493  135.5184  154.7722 H   0  0  0  0  0  0  0  0  0  0  0  0  # atno 10765 bound_to 10752
  140.3660  134.7072  157.4362 H   0  0  0  0  0  0  0  0  0  0  0  0  # atno 11005 bound_to 11000
  145.3198  141.0241  143.3507 LP  0  0  0  0  0  0  0  0  0  0  0  0  # atno 17320 bound_to 7965
  144.8875  139.4819  143.6693 LP  0  0  0  0  0  0  0  0  0  0  0  0  # atno 17321 bound_to 7965
  139.4784  144.5608  151.8241 LP  0  0  0  0  0  0  0  0  0  0  0  0  # atno 17342 bound_to 10162
  140.4713  144.1582  150.5918 LP  0  0  0  0  0  0  0  0  0  0  0  0  # atno 17343 bound_to 10162
  157.7337  131.0589  150.5564 LP  0  0  0  0  0  0  0  0  0  0  0  0  # atno 17370 bound_to 10713
  156.5678  130.4272  149.6033 LP  0  0  0  0  0  0  0  0  0  0  0  0  # atno 17371 bound_to 10713
  140.0589  134.6024  155.8772 LP  0  0  0  0  0  0  0  0  0  0  0  0  # atno 17394 bound_to 11000
  141.1969  133.6594  156.5717 LP  0  0  0  0  0  0  0  0  0  0  0  0  # atno 17395 bound_to 11000

$$$$
