AV-unprocessed.smi:3031|AV-procd|sdf|11551|dock3
  -GOLD-   2272016513D 1   1.00000     0.00000
 Structure written by MMmdl.
 48 49  0  0  0  0  0  0  0  0  3 V2000
  143.9947  132.1831  149.8921 C   0  0  0  0  0  0  0  0  0  0  0  0
  144.2584  133.4029  150.7274 C   0  0  0  0  0  0  0  0  0  0  0  0
  144.0396  133.5650  152.1243 C   0  0  0  0  0  0  0  0  0  0  0  0
  144.3694  134.7700  152.5586 N   0  0  0  0  0  0  0  0  0  0  0  0
  144.8196  135.4172  151.4608 N   0  0  0  0  0  0  0  0  0  0  0  0
  145.2482  136.8059  151.5472 C   0  0  0  0  0  0  0  0  0  0  0  0
  145.0961  137.4112  152.9588 C   0  0  2  0  0  0  0  0  0  0  0  0
  143.6514  137.2785  153.4649 C   0  0  0  0  0  0  0  0  0  0  0  0
  145.5187  138.8298  152.9526 N   0  3  0  0  0  0  0  0  0  0  0  0
  146.8014  139.0961  152.2685 C   0  0  0  0  0  0  0  0  0  0  0  0
  147.8624  139.6153  153.2562 C   0  0  1  0  0  0  0  0  0  0  0  0
  147.4233  140.8640  153.7514 O   0  0  0  0  0  0  0  0  0  0  0  0
  148.0682  138.6764  154.4645 C   0  0  0  0  0  0  0  0  0  0  0  0
  149.3373  137.9051  154.3989 N   0  3  0  0  0  0  0  0  0  0  0  0
  150.5547  138.7450  154.5279 C   0  0  0  0  0  0  0  0  0  0  0  0
  151.8217  137.8789  154.4224 C   0  0  0  0  0  0  0  0  0  0  0  0
  151.7888  136.8605  155.4139 O   0  0  0  0  0  0  0  0  0  0  0  0
  150.6763  135.9914  155.2461 C   0  0  0  0  0  0  0  0  0  0  0  0
  149.3709  136.7940  155.3802 C   0  0  0  0  0  0  0  0  0  0  0  0
  144.7490  134.6176  150.3393 C   0  0  0  0  0  0  0  0  0  0  0  0
  142.9951  131.7852  150.0672 H   0  0  0  0  0  0  0  0  0  0  0  0
  144.7024  131.3841  150.1133 H   0  0  0  0  0  0  0  0  0  0  0  0
  144.0721  132.3957  148.8256 H   0  0  0  0  0  0  0  0  0  0  0  0
  143.6493  132.8468  152.8307 H   0  0  0  0  0  0  0  0  0  0  0  0
  146.2884  136.8657  151.2231 H   0  0  0  0  0  0  0  0  0  0  0  0
  144.6639  137.3801  150.8270 H   0  0  0  0  0  0  0  0  0  0  0  0
  145.7433  136.8539  153.6381 H   0  0  0  0  0  0  0  0  0  0  0  0
  143.3362  136.2347  153.4739 H   0  0  0  0  0  0  0  0  0  0  0  0
  142.9556  137.8280  152.8300 H   0  0  0  0  0  0  0  0  0  0  0  0
  143.5447  137.6576  154.4813 H   0  0  0  0  0  0  0  0  0  0  0  0
  144.8063  139.3543  152.4649 H   0  0  0  0  0  0  0  0  0  0  0  0
  147.1550  138.1972  151.7620 H   0  0  0  0  0  0  0  0  0  0  0  0
  146.6205  139.8457  151.4973 H   0  0  0  0  0  0  0  0  0  0  0  0
  148.8069  139.7828  152.7392 H   0  0  0  0  0  0  0  0  0  0  0  0
  146.4855  140.8336  153.8712 H   0  0  0  0  0  0  0  0  0  0  0  0
  148.0477  139.2417  155.3978 H   0  0  0  0  0  0  0  0  0  0  0  0
  147.2258  137.9840  154.5107 H   0  0  0  0  0  0  0  0  0  0  0  0
  150.5801  139.5082  153.7511 H   0  0  0  0  0  0  0  0  0  0  0  0
  150.5408  139.2651  155.4870 H   0  0  0  0  0  0  0  0  0  0  0  0
  151.9089  137.4352  153.4292 H   0  0  0  0  0  0  0  0  0  0  0  0
  152.7097  138.4922  154.5760 H   0  0  0  0  0  0  0  0  0  0  0  0
  150.7303  135.4925  154.2771 H   0  0  0  0  0  0  0  0  0  0  0  0
  150.7190  135.2128  156.0081 H   0  0  0  0  0  0  0  0  0  0  0  0
  149.2820  137.1947  156.3914 H   0  0  0  0  0  0  0  0  0  0  0  0
  148.5185  136.1322  155.2214 H   0  0  0  0  0  0  0  0  0  0  0  0
  145.0502  134.9751  149.3652 H   0  0  0  0  0  0  0  0  0  0  0  0
  145.5673  139.1653  153.9043 H   0  0  0  0  0  0  0  0  0  0  0  0
  149.3714  137.4724  153.4869 H   0  0  0  0  0  0  0  0  0  0  0  0
  1  2  1  0  0  0  0
  1 21  1  0  0  0  0
  1 22  1  0  0  0  0
  1 23  1  0  0  0  0
  2 20  2  0  0  0  0
  2  3  1  0  0  0  0
  3  4  2  0  0  0  0
  3 24  1  0  0  0  0
  4  5  1  0  0  0  0
  5  6  1  0  0  0  0
  5 20  1  0  0  0  0
  6  7  1  0  0  0  0
  6 25  1  0  0  0  0
  6 26  1  0  0  0  0
  7  8  1  0  0  0  0
  7  9  1  0  0  0  0
  7 27  1  0  0  0  0
  8 28  1  0  0  0  0
  8 29  1  0  0  0  0
  8 30  1  0  0  0  0
  9 10  1  0  0  0  0
  9 31  1  0  0  0  0
  9 47  1  0  0  0  0
 10 11  1  0  0  0  0
 10 32  1  0  0  0  0
 10 33  1  0  0  0  0
 11 12  1  0  0  0  0
 11 13  1  0  0  0  0
 11 34  1  0  0  0  0
 12 35  1  0  0  0  0
 13 14  1  0  0  0  0
 13 36  1  0  0  0  0
 13 37  1  0  0  0  0
 14 19  1  0  0  0  0
 14 15  1  0  0  0  0
 14 48  1  0  0  0  0
 15 16  1  0  0  0  0
 15 38  1  0  0  0  0
 15 39  1  0  0  0  0
 16 17  1  0  0  0  0
 16 40  1  0  0  0  0
 16 41  1  0  0  0  0
 17 18  1  0  0  0  0
 18 19  1  0  0  0  0
 18 42  1  0  0  0  0
 18 43  1  0  0  0  0
 19 44  1  0  0  0  0
 19 45  1  0  0  0  0
 20 46  1  0  0  0  0
M  CHG  1   9   1
M  CHG  1  14   1
M  END
> <s_m_source_file>
AV-unprocessed.smi

> <i_m_source_file_index>
3031

> <i_lp_mmshare_version>
43012

> <i_f3d_flags>
0

> <s_epik_input>
W0NIM11jMVtjSF1ubihbY0hdMSlbQ0gyXVtDQEhdKFtDSDNdKVtOSF1bQ0gyXVtDQEhdKFtPSF0pW0NIMl1OMltDSDJdW0NIMl1PW0NIMl1bQ0gyXTI=

> <s_epik_cmdline>
J2VwaWtfcHl0aG9uJywgJy1waCcsICc3LjAnLCAnLXRuJywgJzgnLCAnLW1hJywgJzIwMCcsICctbWV0YWxfYmluZGluZycsICctaW1hZScsICc8aW5maWxlLm1hZT4nLCAnLW9tYWUnLCAnPG91dGZpbGUubWFlPic=

> <r_lp_tautomer_probability>
1

> <r_epik_Ionization_Penalty>
1.76542

> <r_epik_Ionization_Penalty_Charging>
1.76348

> <r_epik_Ionization_Penalty_Neutral>
0.00194017

> <r_epik_State_Penalty>
1.49348

> <r_epik_Charging_Adjusted_Penalty>
3.25696

> <i_epik_Tot_Q>
2

> <i_epik_Tot_abs_Q>
2

> <r_epik_Metal_State_Penalty>
1.49349

> <b_epik_Metal_Only>
0

> <s_lp_Force_Field>
OPLS_2005

> <r_lp_Energy>
28.4562

> <b_lp_Chiralities_Consistent>
1

> <s_lp_Variant>
AV-unprocessed.smi:3031-11

> <Gold.Version>
5.8.1

> <Gold.Id.Protein>
6NUR|6NUR_protein|mol2

> <Gold.PLP.Fitness>
51.2595

> <Gold.PLP.PLP>
-32.4523

> <Gold.PLP.part.hbond>
-2.8568

> <Gold.PLP.part.metal>
0.0000

> <Gold.PLP.part.buried>
3.2944

> <Gold.PLP.part.nonpolar>
-33.0537

> <Gold.PLP.part.repulsive>
0.1813

> <Gold.PLP.ligand.clash>
0.0000

> <Gold.PLP.ligand.torsion>
1.1709

> <Gold.PLP.Chemscore.Hbond>
5.0000

> <Gold.PLP.Chemscore.CHOScore>
2.0000

> <Gold.PLP.Chemscore.Metal>
0.0000

> <Gold.Chemscore.Hbonds>
donor molecule, donor type, donor heavy atom, donor atom, acceptor molecule, acceptor atom, score
      L1  H     9    31       P1 10175  2.00
      L1  H    14    48       P1  7948  1.85
      P1  H 10752 10763       L1    17  0.65
      L1  C     3    24       P1 10957  1.00
      L1  C    20    46       P1  7921  1.00

> <Gold.PLP.Chemscore.Internal.Correction>
0.1490

> <Gold.Rescore>
     Score         DG    S(hbond)    S(metal)    S(lipo)     H(rot)  DE(clash)    DE(int)     intcor
     12.82     -17.26       2.54        0.00      88.19       2.74       1.86       2.57       ----

> <Gold.Chemscore.Fitness>
12.8241

> <Gold.Chemscore.DG>
-17.2574

> <Gold.Chemscore.ZeroCoef>
-5.4800

> <Gold.Chemscore.Hbond>
2.5395

> <Gold.Chemscore.Metal>
0.0000

> <Gold.Chemscore.Lipo>
88.1920

> <Gold.Chemscore.Internal_Hbond>
0.0000

> <Gold.Chemscore.DEClash>
1.8616

> <Gold.Chemscore.DEInternal>
2.5717

> <Gold.Chemscore.Rot>
2.7434

> <Gold.Chemscore.Internal.Correction>
   9.000000E+99

> <Gold.Chemscore.Hbonds>
donor molecule, donor type, donor heavy atom, donor atom, acceptor molecule, acceptor atom, score
      L1  H     9    31       P1 10175  0.93
      L1  H    14    48       P1  7948  0.86
      P1  H 10752 10763       L1    17  0.03

> <Gold.Chemscore.Hbond.Weighted>
-8.4820

> <Gold.Chemscore.Metal.Weighted>
-0.0000

> <Gold.Chemscore.Lipo.Weighted>
-10.3185

> <Gold.Chemscore.Internal_Hbond.Weighted>
0.0000

> <Gold.Chemscore.DEClash.Weighted>
1.8616

> <Gold.Chemscore.DEInternal.Weighted>
2.5717

> <Gold.Chemscore.Rot.Weighted>
7.0231

> <Gold.Chemscore.Internal.Correction.Weighted>
   9.000000E+99

> <Gold.Protein.RotatedTorsions>
[ 6907 6896 6895 6894 ] final  -10.67 input  -60.11 | X-H torsion
[ 7974 7965 7964 7962 ] final -103.55 input  175.53 | X-H torsion
[ 8008 7997 7996 7995 ] final  162.83 input   59.86 | X-H torsion
[ 10167 10162 10161 10158 ] final   75.83 input  -65.29 | X-H torsion
[ 10718 10713 10712 10709 ] final   88.48 input   66.30 | X-H torsion
[ 10763 10752 10751 10750 ] final   73.64 input  -60.55 | X-H torsion
[ 11005 11000 10999 10996 ] final  -30.62 input  -57.11 | X-H torsion

> <Gold.Protein.ActiveResidues>
 VAL166  LYS551  ARG553  GLY616  TRP617  ASP618  TYR619  PRO620  LYS621  CYS622 
 ASP623  PHE694  ASN695  SER759  ASP760  ASP761  ALA762  ILE779  LEU786  VAL792 
 PHE793  MET794  SER795  GLU796  ALA797  LYS798  CYS799  TRP800  GLU811  SER814 

> <Gold.Protein.RotatedAtoms>
  151.3982  135.0967  159.9547 H   0  0  0  0  0  0  0  0  0  0  0  0  # atno 6907 bound_to 6896
  152.5058  133.8914  159.7406 H   0  0  0  0  0  0  0  0  0  0  0  0  # atno 6908 bound_to 6896
  150.9382  133.6631  159.2825 H   0  0  0  0  0  0  0  0  0  0  0  0  # atno 6909 bound_to 6896
  145.2545  140.9249  143.3076 H   0  0  0  0  0  0  0  0  0  0  0  0  # atno 7974 bound_to 7965
  156.2003  140.1740  156.7914 H   0  0  0  0  0  0  0  0  0  0  0  0  # atno 8008 bound_to 7997
  154.5582  140.0704  156.8808 H   0  0  0  0  0  0  0  0  0  0  0  0  # atno 8009 bound_to 7997
  155.2898  140.3354  155.4255 H   0  0  0  0  0  0  0  0  0  0  0  0  # atno 8010 bound_to 7997
  139.9987  144.5702  150.7755 H   0  0  0  0  0  0  0  0  0  0  0  0  # atno 10167 bound_to 10162
  157.6949  131.0296  150.3281 H   0  0  0  0  0  0  0  0  0  0  0  0  # atno 10718 bound_to 10713
  153.0535  135.5055  154.7924 H   0  0  0  0  0  0  0  0  0  0  0  0  # atno 10763 bound_to 10752
  154.6768  135.2962  154.9670 H   0  0  0  0  0  0  0  0  0  0  0  0  # atno 10764 bound_to 10752
  154.0469  135.6709  153.4849 H   0  0  0  0  0  0  0  0  0  0  0  0  # atno 10765 bound_to 10752
  140.9399  133.7285  156.1060 H   0  0  0  0  0  0  0  0  0  0  0  0  # atno 11005 bound_to 11000
  144.9473  139.4121  143.6419 LP  0  0  0  0  0  0  0  0  0  0  0  0  # atno 17320 bound_to 7965
  146.3293  139.8463  142.8881 LP  0  0  0  0  0  0  0  0  0  0  0  0  # atno 17321 bound_to 7965
  140.7427  143.2836  151.3528 LP  0  0  0  0  0  0  0  0  0  0  0  0  # atno 17342 bound_to 10162
  139.6287  144.0763  152.2457 LP  0  0  0  0  0  0  0  0  0  0  0  0  # atno 17343 bound_to 10162
  156.3759  130.3872  149.7139 LP  0  0  0  0  0  0  0  0  0  0  0  0  # atno 17370 bound_to 10713
  156.4538  130.7919  151.2940 LP  0  0  0  0  0  0  0  0  0  0  0  0  # atno 17371 bound_to 10713
  140.7749  134.3791  157.5500 LP  0  0  0  0  0  0  0  0  0  0  0  0  # atno 17394 bound_to 11000
  139.8817  134.9045  156.2879 LP  0  0  0  0  0  0  0  0  0  0  0  0  # atno 17395 bound_to 11000

$$$$
