AV-unprocessed.smi:3165|AV-procd|sdf|12087|dock10
  -GOLD-   2272017523D 1   1.00000     0.00000
 Structure written by MMmdl.
 38 39  0  0  0  0  0  0  0  0  2 V2000
  149.6992  140.1470  157.5094 C   0  0  0  0  0  0  0  0  0  0  0  0
  149.2160  141.3823  156.7378 C   0  0  2  0  0  0  0  0  0  0  0  0
  149.5275  141.2423  155.2328 C   0  0  0  0  0  0  0  0  0  0  0  0
  150.3286  140.0706  154.9277 N   0  0  0  0  0  0  0  0  0  0  0  0
  151.6466  139.8249  155.2500 C   0  0  0  0  0  0  0  0  0  0  0  0
  151.9594  138.5884  154.7624 C   0  0  0  0  0  0  0  0  0  0  0  0
  150.7529  138.1514  154.1474 C   0  0  0  0  0  0  0  0  0  0  0  0
  149.7782  139.0406  154.2484 N   0  0  0  0  0  0  0  0  0  0  0  0
  149.8493  142.5941  157.3058 N   0  3  0  0  0  0  0  0  0  0  0  0
  151.3111  142.6863  157.1066 C   0  0  0  0  0  0  0  0  0  0  0  0
  151.9796  143.4231  158.2744 C   0  0  1  0  0  0  0  0  0  0  0  0
  151.2251  144.7151  158.6446 C   0  0  0  0  0  0  0  0  0  0  0  0
  151.8577  145.3760  159.8745 C   0  0  0  0  0  0  0  0  0  0  0  0
  151.9564  144.3574  161.0149 C   0  0  0  0  0  0  0  0  0  0  0  0
  152.6663  143.0830  160.5315 C   0  0  0  0  0  0  0  0  0  0  0  0
  151.9846  142.5481  159.4008 O   0  0  0  0  0  0  0  0  0  0  0  0
  149.2212  139.2399  157.1382 H   0  0  0  0  0  0  0  0  0  0  0  0
  149.4635  140.2295  158.5710 H   0  0  0  0  0  0  0  0  0  0  0  0
  150.7781  140.0160  157.4166 H   0  0  0  0  0  0  0  0  0  0  0  0
  148.1346  141.4450  156.8717 H   0  0  0  0  0  0  0  0  0  0  0  0
  148.6051  141.2036  154.6506 H   0  0  0  0  0  0  0  0  0  0  0  0
  150.0752  142.1187  154.8840 H   0  0  0  0  0  0  0  0  0  0  0  0
  152.2447  140.5409  155.7943 H   0  0  0  0  0  0  0  0  0  0  0  0
  152.9069  138.0746  154.8324 H   0  0  0  0  0  0  0  0  0  0  0  0
  150.5578  137.2208  153.6348 H   0  0  0  0  0  0  0  0  0  0  0  0
  149.4334  143.4034  156.8674 H   0  0  0  0  0  0  0  0  0  0  0  0
  151.7265  141.6818  157.0249 H   0  0  0  0  0  0  0  0  0  0  0  0
  151.5215  143.1954  156.1650 H   0  0  0  0  0  0  0  0  0  0  0  0
  153.0067  143.6704  157.9991 H   0  0  0  0  0  0  0  0  0  0  0  0
  151.2304  145.4112  157.8053 H   0  0  0  0  0  0  0  0  0  0  0  0
  150.1794  144.4846  158.8530 H   0  0  0  0  0  0  0  0  0  0  0  0
  152.8530  145.7443  159.6230 H   0  0  0  0  0  0  0  0  0  0  0  0
  151.2720  146.2411  160.1864 H   0  0  0  0  0  0  0  0  0  0  0  0
  152.4888  144.7897  161.8627 H   0  0  0  0  0  0  0  0  0  0  0  0
  150.9562  144.1048  161.3691 H   0  0  0  0  0  0  0  0  0  0  0  0
  153.7074  143.2886  160.2779 H   0  0  0  0  0  0  0  0  0  0  0  0
  152.6743  142.3347  161.3243 H   0  0  0  0  0  0  0  0  0  0  0  0
  149.6470  142.6273  158.2952 H   0  0  0  0  0  0  0  0  0  0  0  0
  1  2  1  0  0  0  0
  1 17  1  0  0  0  0
  1 18  1  0  0  0  0
  1 19  1  0  0  0  0
  2  3  1  0  0  0  0
  2  9  1  0  0  0  0
  2 20  1  0  0  0  0
  3  4  1  0  0  0  0
  3 21  1  0  0  0  0
  3 22  1  0  0  0  0
  4  8  1  0  0  0  0
  4  5  1  0  0  0  0
  5  6  2  0  0  0  0
  5 23  1  0  0  0  0
  6  7  1  0  0  0  0
  6 24  1  0  0  0  0
  7  8  2  0  0  0  0
  7 25  1  0  0  0  0
  9 10  1  0  0  0  0
  9 26  1  0  0  0  0
  9 38  1  0  0  0  0
 10 11  1  0  0  0  0
 10 27  1  0  0  0  0
 10 28  1  0  0  0  0
 11 16  1  0  0  0  0
 11 12  1  0  0  0  0
 11 29  1  0  0  0  0
 12 13  1  0  0  0  0
 12 30  1  0  0  0  0
 12 31  1  0  0  0  0
 13 14  1  0  0  0  0
 13 32  1  0  0  0  0
 13 33  1  0  0  0  0
 14 15  1  0  0  0  0
 14 34  1  0  0  0  0
 14 35  1  0  0  0  0
 15 16  1  0  0  0  0
 15 36  1  0  0  0  0
 15 37  1  0  0  0  0
M  CHG  1   9   1
M  END
> <s_m_source_file>
AV-unprocessed.smi

> <i_m_source_file_index>
3165

> <i_lp_mmshare_version>
43012

> <i_f3d_flags>
0

> <s_epik_input>
bjFbY0hdW2NIXVtjSF1uMVtDSDJdW0NAQEhdKFtDSDNdKVtOSF1bQ0gyXVtDQEBIXTJbQ0gyXVtDSDJdW0NIMl1bQ0gyXU8y

> <s_epik_cmdline>
J2VwaWtfcHl0aG9uJywgJy1waCcsICc3LjAnLCAnLXRuJywgJzgnLCAnLW1hJywgJzIwMCcsICctbWV0YWxfYmluZGluZycsICctaW1hZScsICc8aW5maWxlLm1hZT4nLCAnLW9tYWUnLCAnPG91dGZpbGUubWFlPic=

> <r_lp_tautomer_probability>
1

> <r_epik_Ionization_Penalty>
0.00849196

> <r_epik_Ionization_Penalty_Charging>
0.00848754

> <r_epik_Ionization_Penalty_Neutral>
4.42049e-06

> <r_epik_State_Penalty>
0.00639836

> <r_epik_Charging_Adjusted_Penalty>
0.0148859

> <i_epik_Tot_Q>
1

> <i_epik_Tot_abs_Q>
1

> <r_epik_Metal_State_Penalty>
0.00639878

> <b_epik_Metal_Only>
0

> <s_lp_Force_Field>
OPLS_2005

> <r_lp_Energy>
13.1527

> <b_lp_Chiralities_Consistent>
1

> <s_lp_Variant>
AV-unprocessed.smi:3165-3

> <Gold.Version>
5.8.1

> <Gold.Id.Protein>
6NUR|6NUR_protein|mol2

> <Gold.PLP.Fitness>
47.3524

> <Gold.PLP.PLP>
-40.0727

> <Gold.PLP.part.hbond>
-1.0000

> <Gold.PLP.part.metal>
0.0000

> <Gold.PLP.part.buried>
-3.6208

> <Gold.PLP.part.nonpolar>
-35.5385

> <Gold.PLP.part.repulsive>
0.2098

> <Gold.PLP.ligand.clash>
0.0000

> <Gold.PLP.ligand.torsion>
1.1201

> <Gold.PLP.Chemscore.Hbond>
2.0000

> <Gold.PLP.Chemscore.CHOScore>
1.1636

> <Gold.PLP.Chemscore.Metal>
0.0000

> <Gold.Chemscore.Hbonds>
donor molecule, donor type, donor heavy atom, donor atom, acceptor molecule, acceptor atom, score
      L1  H     9    26       P1  8028  2.00
      L1  C     7    25       P1  7948  0.61
      L1  C     7    25       P1  7949  0.57

> <Gold.PLP.Chemscore.Internal.Correction>
0.0290

> <Gold.Rescore>
     Score         DG    S(hbond)    S(metal)    S(lipo)     H(rot)  DE(clash)    DE(int)     intcor
     15.47     -17.55       1.00        0.00     110.62       1.64       0.26       1.82       ----

> <Gold.Chemscore.Fitness>
15.4676

> <Gold.Chemscore.DG>
-17.5476

> <Gold.Chemscore.ZeroCoef>
-5.4800

> <Gold.Chemscore.Hbond>
0.9985

> <Gold.Chemscore.Metal>
0.0000

> <Gold.Chemscore.Lipo>
110.6195

> <Gold.Chemscore.Internal_Hbond>
0.0000

> <Gold.Chemscore.DEClash>
0.2616

> <Gold.Chemscore.DEInternal>
1.8184

> <Gold.Chemscore.Rot>
1.6444

> <Gold.Chemscore.Internal.Correction>
   9.000000E+99

> <Gold.Chemscore.Hbonds>
donor molecule, donor type, donor heavy atom, donor atom, acceptor molecule, acceptor atom, score
      L1  H     9    26       P1  8028  0.98

> <Gold.Chemscore.Hbond.Weighted>
-3.3348

> <Gold.Chemscore.Metal.Weighted>
-0.0000

> <Gold.Chemscore.Lipo.Weighted>
-12.9425

> <Gold.Chemscore.Internal_Hbond.Weighted>
0.0000

> <Gold.Chemscore.DEClash.Weighted>
0.2616

> <Gold.Chemscore.DEInternal.Weighted>
1.8184

> <Gold.Chemscore.Rot.Weighted>
4.2097

> <Gold.Chemscore.Internal.Correction.Weighted>
   9.000000E+99

> <Gold.Protein.RotatedTorsions>
[ 6907 6896 6895 6894 ] final -160.10 input  -60.11 | X-H torsion
[ 7974 7965 7964 7962 ] final -168.45 input  175.53 | X-H torsion
[ 8008 7997 7996 7995 ] final  -91.42 input   59.86 | X-H torsion
[ 10167 10162 10161 10158 ] final  -85.14 input  -65.29 | X-H torsion
[ 10718 10713 10712 10709 ] final  -45.64 input   66.30 | X-H torsion
[ 10763 10752 10751 10750 ] final   69.19 input  -60.55 | X-H torsion
[ 11005 11000 10999 10996 ] final  151.90 input  -57.11 | X-H torsion

> <Gold.Protein.ActiveResidues>
 VAL166  LYS551  ARG553  GLY616  TRP617  ASP618  TYR619  PRO620  LYS621  CYS622 
 ASP623  PHE694  ASN695  SER759  ASP760  ASP761  ALA762  ILE779  LEU786  VAL792 
 PHE793  MET794  SER795  GLU796  ALA797  LYS798  CYS799  TRP800  GLU811  SER814 

> <Gold.Protein.RotatedAtoms>
  151.3438  133.3952  159.2673 H   0  0  0  0  0  0  0  0  0  0  0  0  # atno 6907 bound_to 6896
  150.9856  134.9203  159.7880 H   0  0  0  0  0  0  0  0  0  0  0  0  # atno 6908 bound_to 6896
  152.5231  134.3402  159.9267 H   0  0  0  0  0  0  0  0  0  0  0  0  # atno 6909 bound_to 6896
  144.7203  140.2368  143.6297 H   0  0  0  0  0  0  0  0  0  0  0  0  # atno 7974 bound_to 7965
  154.7105  140.0519  157.0545 H   0  0  0  0  0  0  0  0  0  0  0  0  # atno 8008 bound_to 7997
  155.0561  140.3184  155.4657 H   0  0  0  0  0  0  0  0  0  0  0  0  # atno 8009 bound_to 7997
  156.2788  140.2107  156.5687 H   0  0  0  0  0  0  0  0  0  0  0  0  # atno 8010 bound_to 7997
  140.4065  143.2640  151.9074 H   0  0  0  0  0  0  0  0  0  0  0  0  # atno 10167 bound_to 10162
  156.2263  130.4169  149.8930 H   0  0  0  0  0  0  0  0  0  0  0  0  # atno 10718 bound_to 10713
  153.0274  135.5220  154.7250 H   0  0  0  0  0  0  0  0  0  0  0  0  # atno 10763 bound_to 10752
  154.6294  135.2898  155.0236 H   0  0  0  0  0  0  0  0  0  0  0  0  # atno 10764 bound_to 10752
  154.1194  135.6610  153.4952 H   0  0  0  0  0  0  0  0  0  0  0  0  # atno 10765 bound_to 10752
  140.1260  134.8833  157.2138 H   0  0  0  0  0  0  0  0  0  0  0  0  # atno 11005 bound_to 11000
  145.8358  139.2107  143.1856 LP  0  0  0  0  0  0  0  0  0  0  0  0  # atno 17320 bound_to 7965
  146.0390  140.8183  142.9838 LP  0  0  0  0  0  0  0  0  0  0  0  0  # atno 17321 bound_to 7965
  139.4783  144.5580  151.8283 LP  0  0  0  0  0  0  0  0  0  0  0  0  # atno 17342 bound_to 10162
  140.4684  144.1623  150.5914 LP  0  0  0  0  0  0  0  0  0  0  0  0  # atno 17343 bound_to 10162
  156.6559  130.8762  151.3539 LP  0  0  0  0  0  0  0  0  0  0  0  0  # atno 17370 bound_to 10713
  157.7112  130.9442  150.1096 LP  0  0  0  0  0  0  0  0  0  0  0  0  # atno 17371 bound_to 10713
  140.2903  134.3248  155.7317 LP  0  0  0  0  0  0  0  0  0  0  0  0  # atno 17394 bound_to 11000
  141.2161  133.7531  156.9494 LP  0  0  0  0  0  0  0  0  0  0  0  0  # atno 17395 bound_to 11000

$$$$
