AV-unprocessed.smi:811|AV-procd|sdf|3813|dock1
  -GOLD-   22720 1253D 1   1.00000     0.00000
 Structure written by MMmdl.
 46 48  0  0  0  0  0  0  0  0  2 V2000
  148.8765  130.8853  155.9796 C   0  0  0  0  0  0  0  0  0  0  0  0
  149.3586  131.6899  154.8360 N   0  3  1  0  0  0  0  0  0  0  0  0
  148.3772  131.8056  153.7274 C   0  0  0  0  0  0  0  0  0  0  0  0
  148.3244  133.2882  153.3393 C   0  0  0  0  0  0  0  0  0  0  0  0
  148.6986  133.9829  154.6421 C   0  0  2  0  0  0  0  0  0  0  0  0
  149.1796  135.3501  154.4633 N   0  0  0  0  0  0  0  0  0  0  0  0
  149.6827  136.1320  155.4295 C   0  0  0  0  0  0  0  0  0  0  0  0
  149.8135  135.7700  156.5983 O   0  0  0  0  0  0  0  0  0  0  0  0
  149.9978  137.3483  154.9519 N   0  0  0  0  0  0  0  0  0  0  0  0
  150.5357  138.4633  155.6503 C   0  0  0  0  0  0  0  0  0  0  0  0
  150.7668  139.7342  155.0715 C   0  0  0  0  0  0  0  0  0  0  0  0
  151.2910  140.7635  155.8764 C   0  0  0  0  0  0  0  0  0  0  0  0
  151.5613  140.4962  157.2338 C   0  0  0  0  0  0  0  0  0  0  0  0
  152.0853  141.5185  158.0374 N   0  0  0  0  0  0  0  0  0  0  0  0
  152.0520  141.2110  159.4619 C   0  0  0  0  0  0  0  0  0  0  0  0
  152.7573  142.3239  160.2560 C   0  0  0  0  0  0  0  0  0  0  0  0
  152.1543  143.5803  159.9578 O   0  0  0  0  0  0  0  0  0  0  0  0
  152.2538  143.9071  158.5745 C   0  0  0  0  0  0  0  0  0  0  0  0
  151.5353  142.8347  157.7377 C   0  0  0  0  0  0  0  0  0  0  0  0
  151.3308  139.2870  157.7979 N   0  0  0  0  0  0  0  0  0  0  0  0
  150.8274  138.3051  157.0211 C   0  0  0  0  0  0  0  0  0  0  0  0
  149.7808  133.0605  155.2022 C   0  0  0  0  0  0  0  0  0  0  0  0
  148.0049  131.3475  156.4452 H   0  0  0  0  0  0  0  0  0  0  0  0
  149.6570  130.7875  156.7348 H   0  0  0  0  0  0  0  0  0  0  0  0
  148.5997  129.8828  155.6520 H   0  0  0  0  0  0  0  0  0  0  0  0
  148.6586  131.1726  152.8855 H   0  0  0  0  0  0  0  0  0  0  0  0
  147.3889  131.4855  154.0621 H   0  0  0  0  0  0  0  0  0  0  0  0
  149.0681  133.4985  152.5688 H   0  0  0  0  0  0  0  0  0  0  0  0
  147.3483  133.5926  152.9602 H   0  0  0  0  0  0  0  0  0  0  0  0
  147.8354  133.9500  155.3104 H   0  0  0  0  0  0  0  0  0  0  0  0
  149.1092  135.7380  153.5338 H   0  0  0  0  0  0  0  0  0  0  0  0
  149.7637  137.5194  153.9851 H   0  0  0  0  0  0  0  0  0  0  0  0
  150.5424  139.9460  154.0380 H   0  0  0  0  0  0  0  0  0  0  0  0
  151.4772  141.7417  155.4575 H   0  0  0  0  0  0  0  0  0  0  0  0
  151.0178  141.1175  159.7962 H   0  0  0  0  0  0  0  0  0  0  0  0
  152.5395  140.2526  159.6450 H   0  0  0  0  0  0  0  0  0  0  0  0
  152.6729  142.1332  161.3258 H   0  0  0  0  0  0  0  0  0  0  0  0
  153.8223  142.3550  160.0201 H   0  0  0  0  0  0  0  0  0  0  0  0
  151.7985  144.8828  158.4054 H   0  0  0  0  0  0  0  0  0  0  0  0
  153.3023  143.9892  158.2840 H   0  0  0  0  0  0  0  0  0  0  0  0
  151.6492  143.0498  156.6743 H   0  0  0  0  0  0  0  0  0  0  0  0
  150.4669  142.8493  157.9584 H   0  0  0  0  0  0  0  0  0  0  0  0
  150.6570  137.3582  157.5127 H   0  0  0  0  0  0  0  0  0  0  0  0
  149.9254  133.1917  156.2756 H   0  0  0  0  0  0  0  0  0  0  0  0
  150.7378  133.2577  154.7163 H   0  0  0  0  0  0  0  0  0  0  0  0
  150.1760  131.2206  154.4726 H   0  0  0  0  0  0  0  0  0  0  0  0
  1  2  1  0  0  0  0
  1 23  1  0  0  0  0
  1 24  1  0  0  0  0
  1 25  1  0  0  0  0
  2 22  1  0  0  0  0
  2  3  1  0  0  0  0
  2 46  1  0  0  0  0
  3  4  1  0  0  0  0
  3 26  1  0  0  0  0
  3 27  1  0  0  0  0
  4  5  1  0  0  0  0
  4 28  1  0  0  0  0
  4 29  1  0  0  0  0
  5  6  1  0  0  0  0
  5 22  1  0  0  0  0
  5 30  1  0  0  0  0
  6  7  1  0  0  0  0
  6 31  1  0  0  0  0
  7  8  2  0  0  0  0
  7  9  1  0  0  0  0
  9 10  1  0  0  0  0
  9 32  1  0  0  0  0
 10 21  1  0  0  0  0
 10 11  2  0  0  0  0
 11 12  1  0  0  0  0
 11 33  1  0  0  0  0
 12 13  2  0  0  0  0
 12 34  1  0  0  0  0
 13 14  1  0  0  0  0
 13 20  1  0  0  0  0
 14 19  1  0  0  0  0
 14 15  1  0  0  0  0
 15 16  1  0  0  0  0
 15 35  1  0  0  0  0
 15 36  1  0  0  0  0
 16 17  1  0  0  0  0
 16 37  1  0  0  0  0
 16 38  1  0  0  0  0
 17 18  1  0  0  0  0
 18 19  1  0  0  0  0
 18 39  1  0  0  0  0
 18 40  1  0  0  0  0
 19 41  1  0  0  0  0
 19 42  1  0  0  0  0
 20 21  2  0  0  0  0
 21 43  1  0  0  0  0
 22 44  1  0  0  0  0
 22 45  1  0  0  0  0
M  CHG  1   2   1
M  END
> <s_m_source_file>
AV-unprocessed.smi

> <i_m_source_file_index>
811

> <i_lp_mmshare_version>
43012

> <i_f3d_flags>
0

> <s_epik_input>
W0NIM11OMVtDSDJdW0NIMl1bQ0BIXShbQ0gyXTEpW05IXUMoPU8pW05IXWMyW2NIXVtjSF1jKG5bY0hdMilOM1tDSDJdW0NIMl1PW0NIMl1bQ0gyXTM=

> <s_epik_cmdline>
J2VwaWtfcHl0aG9uJywgJy1waCcsICc3LjAnLCAnLXRuJywgJzgnLCAnLW1hJywgJzIwMCcsICctbWV0YWxfYmluZGluZycsICctaW1hZScsICc8aW5maWxlLm1hZT4nLCAnLW9tYWUnLCAnPG91dGZpbGUubWFlPic=

> <r_lp_tautomer_probability>
1

> <r_epik_Ionization_Penalty>
0.00503422

> <r_epik_Ionization_Penalty_Charging>
0.00366104

> <r_epik_Ionization_Penalty_Neutral>
0.00137318

> <r_epik_State_Penalty>
-0

> <r_epik_Charging_Adjusted_Penalty>
0.00366104

> <i_epik_Tot_Q>
1

> <i_epik_Tot_abs_Q>
1

> <r_epik_Metal_State_Penalty>
-0

> <b_epik_Metal_Only>
0

> <s_lp_Force_Field>
OPLS_2005

> <r_lp_Energy>
46.7377

> <b_lp_Chiralities_Consistent>
1

> <s_lp_Variant>
AV-unprocessed.smi:811-3

> <Gold.Version>
5.8.1

> <Gold.Id.Protein>
6NUR|6NUR_protein|mol2

> <Gold.PLP.Fitness>
39.0895

> <Gold.PLP.PLP>
-36.9300

> <Gold.PLP.part.hbond>
-1.0000

> <Gold.PLP.part.metal>
0.0000

> <Gold.PLP.part.buried>
-3.3867

> <Gold.PLP.part.nonpolar>
-30.7404

> <Gold.PLP.part.repulsive>
0.0957

> <Gold.PLP.ligand.clash>
0.0000

> <Gold.PLP.ligand.torsion>
0.4794

> <Gold.PLP.Chemscore.Hbond>
1.0000

> <Gold.PLP.Chemscore.CHOScore>
0.0000

> <Gold.PLP.Chemscore.Metal>
0.0000

> <Gold.Chemscore.Hbonds>
donor molecule, donor type, donor heavy atom, donor atom, acceptor molecule, acceptor atom, score
      L1  H     6    31       P1  7948  1.00

> <Gold.PLP.Chemscore.Internal.Correction>
0.1182

> <Gold.Rescore>
     Score         DG    S(hbond)    S(metal)    S(lipo)     H(rot)  DE(clash)    DE(int)     intcor
     14.63     -16.76       1.17        0.00      89.86       1.23       0.09       2.05       ----

> <Gold.Chemscore.Fitness>
14.6274

> <Gold.Chemscore.DG>
-16.7648

> <Gold.Chemscore.ZeroCoef>
-5.4800

> <Gold.Chemscore.Hbond>
1.1731

> <Gold.Chemscore.Metal>
0.0000

> <Gold.Chemscore.Lipo>
89.8629

> <Gold.Chemscore.Internal_Hbond>
0.0000

> <Gold.Chemscore.DEClash>
0.0859

> <Gold.Chemscore.DEInternal>
2.0515

> <Gold.Chemscore.Rot>
1.2295

> <Gold.Chemscore.Internal.Correction>
   9.000000E+99

> <Gold.Chemscore.Hbonds>
donor molecule, donor type, donor heavy atom, donor atom, acceptor molecule, acceptor atom, score
      L1  H     6    31       P1  7948  0.78

> <Gold.Chemscore.Hbond.Weighted>
-3.9183

> <Gold.Chemscore.Metal.Weighted>
-0.0000

> <Gold.Chemscore.Lipo.Weighted>
-10.5140

> <Gold.Chemscore.Internal_Hbond.Weighted>
0.0000

> <Gold.Chemscore.DEClash.Weighted>
0.0859

> <Gold.Chemscore.DEInternal.Weighted>
2.0515

> <Gold.Chemscore.Rot.Weighted>
3.1474

> <Gold.Chemscore.Internal.Correction.Weighted>
   9.000000E+99

> <Gold.Protein.RotatedTorsions>
[ 6907 6896 6895 6894 ] final  102.66 input  -60.11 | X-H torsion
[ 7974 7965 7964 7962 ] final  -20.41 input  175.53 | X-H torsion
[ 8008 7997 7996 7995 ] final   30.41 input   59.86 | X-H torsion
[ 10167 10162 10161 10158 ] final  -62.49 input  -65.29 | X-H torsion
[ 10718 10713 10712 10709 ] final   68.30 input   66.30 | X-H torsion
[ 10763 10752 10751 10750 ] final   40.72 input  -60.55 | X-H torsion
[ 11005 11000 10999 10996 ] final  -73.82 input  -57.11 | X-H torsion

> <Gold.Protein.ActiveResidues>
 VAL166  LYS551  ARG553  GLY616  TRP617  ASP618  TYR619  PRO620  LYS621  CYS622 
 ASP623  PHE694  ASN695  SER759  ASP760  ASP761  ALA762  ILE779  LEU786  VAL792 
 PHE793  MET794  SER795  GLU796  ALA797  LYS798  CYS799  TRP800  GLU811  SER814 

> <Gold.Protein.RotatedAtoms>
  152.5318  133.9942  159.7864 H   0  0  0  0  0  0  0  0  0  0  0  0  # atno 6907 bound_to 6896
  151.0173  133.5901  159.2682 H   0  0  0  0  0  0  0  0  0  0  0  0  # atno 6908 bound_to 6896
  151.2954  135.0760  159.9273 H   0  0  0  0  0  0  0  0  0  0  0  0  # atno 6909 bound_to 6896
  146.1789  140.4198  142.8502 H   0  0  0  0  0  0  0  0  0  0  0  0  # atno 7974 bound_to 7965
  155.0900  140.3219  155.4576 H   0  0  0  0  0  0  0  0  0  0  0  0  # atno 8008 bound_to 7997
  156.2745  140.2079  156.5973 H   0  0  0  0  0  0  0  0  0  0  0  0  # atno 8009 bound_to 7997
  154.6911  140.0516  157.0351 H   0  0  0  0  0  0  0  0  0  0  0  0  # atno 8010 bound_to 7997
  140.5936  143.2346  151.6086 H   0  0  0  0  0  0  0  0  0  0  0  0  # atno 10167 bound_to 10162
  157.6281  130.9366  150.0359 H   0  0  0  0  0  0  0  0  0  0  0  0  # atno 10718 bound_to 10713
  152.9928  135.6183  154.2672 H   0  0  0  0  0  0  0  0  0  0  0  0  # atno 10763 bound_to 10752
  154.2406  135.2789  155.2857 H   0  0  0  0  0  0  0  0  0  0  0  0  # atno 10764 bound_to 10752
  154.5372  135.5771  153.6866 H   0  0  0  0  0  0  0  0  0  0  0  0  # atno 10765 bound_to 10752
  141.1627  133.6891  156.7270 H   0  0  0  0  0  0  0  0  0  0  0  0  # atno 11005 bound_to 11000
  144.8282  140.6664  143.6308 LP  0  0  0  0  0  0  0  0  0  0  0  0  # atno 17320 bound_to 7965
  145.4132  139.1576  143.4115 LP  0  0  0  0  0  0  0  0  0  0  0  0  # atno 17321 bound_to 7965
  139.5243  144.3107  152.0995 LP  0  0  0  0  0  0  0  0  0  0  0  0  # atno 17342 bound_to 10162
  140.2276  144.4402  150.6314 LP  0  0  0  0  0  0  0  0  0  0  0  0  # atno 17343 bound_to 10162
  156.1466  130.3642  149.9501 LP  0  0  0  0  0  0  0  0  0  0  0  0  # atno 17370 bound_to 10713
  156.7530  130.9122  151.3638 LP  0  0  0  0  0  0  0  0  0  0  0  0  # atno 17371 bound_to 10713
  140.2773  134.8345  157.3901 LP  0  0  0  0  0  0  0  0  0  0  0  0  # atno 17394 bound_to 11000
  140.1466  134.4904  155.7992 LP  0  0  0  0  0  0  0  0  0  0  0  0  # atno 17395 bound_to 11000

$$$$
