AV-unprocessed.smi:838|AV-procd|sdf|3908|dock1
  -GOLD-   22720 1373D 1   1.00000     0.00000
 Structure written by MMmdl.
 45 46  0  0  0  0  0  0  0  0  1 V2000
  151.0699  141.8346  157.4727 C   0  0  0  0  0  0  0  0  0  0  0  0
  151.2503  140.6531  156.5172 C   0  0  0  0  0  0  0  0  0  0  0  0
  152.0464  139.7690  156.8341 O   0  0  0  0  0  0  0  0  0  0  0  0
  150.5393  140.6189  155.3652 N   0  0  0  0  0  0  0  0  0  0  0  0
  150.6180  139.5158  154.4034 C   0  0  0  0  0  0  0  0  0  0  0  0
  149.2445  138.8220  154.3230 C   0  0  0  0  0  0  0  0  0  0  0  0
  148.2152  139.7817  153.9142 N   0  0  0  0  0  0  0  0  0  0  0  0
  146.9280  139.0946  153.8066 C   0  0  0  0  0  0  0  0  0  0  0  0
  146.5249  138.7801  152.3511 C   0  0  0  0  0  0  0  0  0  0  0  0
  146.7295  137.3717  152.0254 N   0  0  0  0  0  0  0  0  0  0  0  0
  145.7553  136.4676  151.8448 C   0  0  0  0  0  0  0  0  0  0  0  0
  144.5568  136.7263  151.9601 O   0  0  0  0  0  0  0  0  0  0  0  0
  146.2645  135.2658  151.5215 N   0  0  0  0  0  0  0  0  0  0  0  0
  145.5706  134.0524  151.2531 C   0  0  0  0  0  0  0  0  0  0  0  0
  144.4438  134.0045  150.4987 N   0  0  0  0  0  0  0  0  0  0  0  0
  143.8348  132.8203  150.2865 C   0  0  0  0  0  0  0  0  0  0  0  0
  144.3106  131.6074  150.8135 C   0  0  0  0  0  0  0  0  0  0  0  0
  145.4769  131.6388  151.5967 C   0  0  0  0  0  0  0  0  0  0  0  0
  146.1212  132.8735  151.8239 C   0  0  0  0  0  0  0  0  0  0  0  0
  147.3849  132.9092  152.6681 C   0  0  0  0  0  0  0  0  0  0  0  0
  148.1578  140.8906  154.8746 C   0  0  0  0  0  0  0  0  0  0  0  0
  149.5264  141.5941  154.9495 C   0  0  0  0  0  0  0  0  0  0  0  0
  150.0396  141.8940  157.8244 H   0  0  0  0  0  0  0  0  0  0  0  0
  151.3324  142.7719  156.9818 H   0  0  0  0  0  0  0  0  0  0  0  0
  151.7141  141.7247  158.3455 H   0  0  0  0  0  0  0  0  0  0  0  0
  150.9032  139.9077  153.4259 H   0  0  0  0  0  0  0  0  0  0  0  0
  151.3804  138.7817  154.6659 H   0  0  0  0  0  0  0  0  0  0  0  0
  149.2933  138.0070  153.6000 H   0  0  0  0  0  0  0  0  0  0  0  0
  148.9861  138.3819  155.2876 H   0  0  0  0  0  0  0  0  0  0  0  0
  146.9816  138.1509  154.3516 H   0  0  0  0  0  0  0  0  0  0  0  0
  146.1519  139.6871  154.2933 H   0  0  0  0  0  0  0  0  0  0  0  0
  145.4611  138.9854  152.2317 H   0  0  0  0  0  0  0  0  0  0  0  0
  147.0274  139.4341  151.6383 H   0  0  0  0  0  0  0  0  0  0  0  0
  147.6853  137.0690  151.9086 H   0  0  0  0  0  0  0  0  0  0  0  0
  147.2699  135.2103  151.4554 H   0  0  0  0  0  0  0  0  0  0  0  0
  142.9425  132.8413  149.6787 H   0  0  0  0  0  0  0  0  0  0  0  0
  143.7948  130.6784  150.6209 H   0  0  0  0  0  0  0  0  0  0  0  0
  145.8698  130.7244  152.0164 H   0  0  0  0  0  0  0  0  0  0  0  0
  147.6546  131.9141  153.0224 H   0  0  0  0  0  0  0  0  0  0  0  0
  147.2442  133.5484  153.5404 H   0  0  0  0  0  0  0  0  0  0  0  0
  148.2215  133.2959  152.0854 H   0  0  0  0  0  0  0  0  0  0  0  0
  147.4070  141.6189  154.5720 H   0  0  0  0  0  0  0  0  0  0  0  0
  147.8677  140.5215  155.8597 H   0  0  0  0  0  0  0  0  0  0  0  0
  149.4523  142.4550  155.6116 H   0  0  0  0  0  0  0  0  0  0  0  0
  149.7951  141.9975  153.9718 H   0  0  0  0  0  0  0  0  0  0  0  0
  1  2  1  0  0  0  0
  1 23  1  0  0  0  0
  1 24  1  0  0  0  0
  1 25  1  0  0  0  0
  2  3  2  0  0  0  0
  2  4  1  0  0  0  0
  4 22  1  0  0  0  0
  4  5  1  0  0  0  0
  5  6  1  0  0  0  0
  5 26  1  0  0  0  0
  5 27  1  0  0  0  0
  6  7  1  0  0  0  0
  6 28  1  0  0  0  0
  6 29  1  0  0  0  0
  7  8  1  0  0  0  0
  7 21  1  0  0  0  0
  8  9  1  0  0  0  0
  8 30  1  0  0  0  0
  8 31  1  0  0  0  0
  9 10  1  0  0  0  0
  9 32  1  0  0  0  0
  9 33  1  0  0  0  0
 10 11  1  0  0  0  0
 10 34  1  0  0  0  0
 11 12  2  0  0  0  0
 11 13  1  0  0  0  0
 13 14  1  0  0  0  0
 13 35  1  0  0  0  0
 14 19  1  0  0  0  0
 14 15  2  0  0  0  0
 15 16  1  0  0  0  0
 16 17  2  0  0  0  0
 16 36  1  0  0  0  0
 17 18  1  0  0  0  0
 17 37  1  0  0  0  0
 18 19  2  0  0  0  0
 18 38  1  0  0  0  0
 19 20  1  0  0  0  0
 20 39  1  0  0  0  0
 20 40  1  0  0  0  0
 20 41  1  0  0  0  0
 21 22  1  0  0  0  0
 21 42  1  0  0  0  0
 21 43  1  0  0  0  0
 22 44  1  0  0  0  0
 22 45  1  0  0  0  0
M  END
> <s_m_source_file>
AV-unprocessed.smi

> <i_m_source_file_index>
838

> <i_lp_mmshare_version>
43012

> <i_f3d_flags>
0

> <s_epik_input>
W0NIM11DKD1PKU4xW0NIMl1bQ0gyXU4oW0NIMl1bQ0gyXTEpW0NIMl1bQ0gyXVtOSF1DKD1PKVtOSF1jMm5bY0hdW2NIXVtjSF1jMltDSDNd

> <s_epik_cmdline>
J2VwaWtfcHl0aG9uJywgJy1waCcsICc3LjAnLCAnLXRuJywgJzgnLCAnLW1hJywgJzIwMCcsICctbWV0YWxfYmluZGluZycsICctaW1hZScsICc8aW5maWxlLm1hZT4nLCAnLW9tYWUnLCAnPG91dGZpbGUubWFlPic=

> <r_epik_Ionization_Penalty>
0.25102

> <r_epik_Ionization_Penalty_Charging>
0

> <r_epik_Ionization_Penalty_Neutral>
0.25102

> <r_epik_State_Penalty>
0.242297

> <r_epik_Charging_Adjusted_Penalty>
0.242297

> <i_epik_Tot_Q>
0

> <i_epik_Tot_abs_Q>
0

> <r_epik_Metal_State_Penalty>
0.242294

> <b_epik_Metal_Only>
0

> <s_lp_Force_Field>
OPLS_2005

> <r_lp_Energy>
40.132

> <b_lp_Chiralities_Consistent>
1

> <s_lp_Variant>
AV-unprocessed.smi:838-1

> <Gold.Version>
5.8.1

> <Gold.Id.Protein>
6NUR|6NUR_protein|mol2

> <Gold.PLP.Fitness>
47.1615

> <Gold.PLP.PLP>
-38.9286

> <Gold.PLP.part.hbond>
-2.5983

> <Gold.PLP.part.metal>
0.0000

> <Gold.PLP.part.buried>
-3.1707

> <Gold.PLP.part.nonpolar>
-34.7401

> <Gold.PLP.part.repulsive>
0.6376

> <Gold.PLP.ligand.clash>
0.0000

> <Gold.PLP.ligand.torsion>
1.3252

> <Gold.PLP.Chemscore.Hbond>
2.6190

> <Gold.PLP.Chemscore.CHOScore>
1.0000

> <Gold.PLP.Chemscore.Metal>
0.0000

> <Gold.Chemscore.Hbonds>
donor molecule, donor type, donor heavy atom, donor atom, acceptor molecule, acceptor atom, score
      L1  H    10    34       P1  7948  0.91
      L1  H    13    35       P1  7948  0.88
      P1  H  7997  8009       L1     3  0.21
      L1  C    16    36       P1 10186  1.00

> <Gold.PLP.Chemscore.Internal.Correction>
0.0264

> <Gold.Rescore>
     Score         DG    S(hbond)    S(metal)    S(lipo)     H(rot)  DE(clash)    DE(int)     intcor
     17.30     -20.60       2.69        0.00      86.28       1.54       1.97       1.33       ----

> <Gold.Chemscore.Fitness>
17.2988

> <Gold.Chemscore.DG>
-20.5994

> <Gold.Chemscore.ZeroCoef>
-5.4800

> <Gold.Chemscore.Hbond>
2.6881

> <Gold.Chemscore.Metal>
0.0000

> <Gold.Chemscore.Lipo>
86.2755

> <Gold.Chemscore.Internal_Hbond>
0.0000

> <Gold.Chemscore.DEClash>
1.9696

> <Gold.Chemscore.DEInternal>
1.3310

> <Gold.Chemscore.Rot>
1.5441

> <Gold.Chemscore.Internal.Correction>
   9.000000E+99

> <Gold.Chemscore.Hbonds>
donor molecule, donor type, donor heavy atom, donor atom, acceptor molecule, acceptor atom, score
      L1  H    10    34       P1  7948  0.88
      L1  H    13    35       P1  7948  0.73
      P1  H  7997  8009       L1     3  0.22

> <Gold.Chemscore.Hbond.Weighted>
-8.9782

> <Gold.Chemscore.Metal.Weighted>
-0.0000

> <Gold.Chemscore.Lipo.Weighted>
-10.0942

> <Gold.Chemscore.Internal_Hbond.Weighted>
0.0000

> <Gold.Chemscore.DEClash.Weighted>
1.9696

> <Gold.Chemscore.DEInternal.Weighted>
1.3310

> <Gold.Chemscore.Rot.Weighted>
3.9530

> <Gold.Chemscore.Internal.Correction.Weighted>
   9.000000E+99

> <Gold.Protein.RotatedTorsions>
[ 6907 6896 6895 6894 ] final  125.54 input  -60.11 | X-H torsion
[ 7974 7965 7964 7962 ] final   28.05 input  175.53 | X-H torsion
[ 8008 7997 7996 7995 ] final -170.84 input   59.86 | X-H torsion
[ 10167 10162 10161 10158 ] final  -79.34 input  -65.29 | X-H torsion
[ 10718 10713 10712 10709 ] final -109.88 input   66.30 | X-H torsion
[ 10763 10752 10751 10750 ] final   -1.70 input  -60.55 | X-H torsion
[ 11005 11000 10999 10996 ] final  -80.81 input  -57.11 | X-H torsion

> <Gold.Protein.ActiveResidues>
 VAL166  LYS551  ARG553  GLY616  TRP617  ASP618  TYR619  PRO620  LYS621  CYS622 
 ASP623  PHE694  ASN695  SER759  ASP760  ASP761  ALA762  ILE779  LEU786  VAL792 
 PHE793  MET794  SER795  GLU796  ALA797  LYS798  CYS799  TRP800  GLU811  SER814 

> <Gold.Protein.RotatedAtoms>
  152.3983  133.6779  159.6294 H   0  0  0  0  0  0  0  0  0  0  0  0  # atno 6907 bound_to 6896
  150.7878  133.8836  159.3302 H   0  0  0  0  0  0  0  0  0  0  0  0  # atno 6908 bound_to 6896
  151.6607  135.0991  160.0230 H   0  0  0  0  0  0  0  0  0  0  0  0  # atno 6909 bound_to 6896
  146.1750  139.7108  142.8941 H   0  0  0  0  0  0  0  0  0  0  0  0  # atno 7974 bound_to 7965
  155.9237  140.1078  157.1187 H   0  0  0  0  0  0  0  0  0  0  0  0  # atno 8008 bound_to 7997
  154.4058  140.1251  156.4777 H   0  0  0  0  0  0  0  0  0  0  0  0  # atno 8009 bound_to 7997
  155.7165  140.3470  155.4999 H   0  0  0  0  0  0  0  0  0  0  0  0  # atno 8010 bound_to 7997
  140.4602  143.2456  151.8360 H   0  0  0  0  0  0  0  0  0  0  0  0  # atno 10167 bound_to 10162
  156.0560  130.5786  150.8160 H   0  0  0  0  0  0  0  0  0  0  0  0  # atno 10718 bound_to 10713
  153.3483  135.6984  153.6809 H   0  0  0  0  0  0  0  0  0  0  0  0  # atno 10763 bound_to 10752
  153.5546  135.3547  155.2774 H   0  0  0  0  0  0  0  0  0  0  0  0  # atno 10764 bound_to 10752
  154.8649  135.4235  154.2713 H   0  0  0  0  0  0  0  0  0  0  0  0  # atno 10765 bound_to 10752
  141.1667  133.7167  156.8329 H   0  0  0  0  0  0  0  0  0  0  0  0  # atno 11005 bound_to 11000
  145.4236  141.0409  143.2950 LP  0  0  0  0  0  0  0  0  0  0  0  0  # atno 17320 bound_to 7965
  144.8222  139.5771  143.6981 LP  0  0  0  0  0  0  0  0  0  0  0  0  # atno 17321 bound_to 7965
  139.4805  144.5017  151.9052 LP  0  0  0  0  0  0  0  0  0  0  0  0  # atno 17342 bound_to 10162
  140.4103  144.2378  150.5889 LP  0  0  0  0  0  0  0  0  0  0  0  0  # atno 17343 bound_to 10162
  157.5530  131.0944  150.9668 LP  0  0  0  0  0  0  0  0  0  0  0  0  # atno 17370 bound_to 10713
  156.9923  130.5568  149.5304 LP  0  0  0  0  0  0  0  0  0  0  0  0  # atno 17371 bound_to 10713
  140.2038  134.8877  157.3199 LP  0  0  0  0  0  0  0  0  0  0  0  0  # atno 17394 bound_to 11000
  140.2159  134.4082  155.7589 LP  0  0  0  0  0  0  0  0  0  0  0  0  # atno 17395 bound_to 11000

$$$$
