AV-unprocessed.smi:2955|AV-procd|sdf|11302|dock3
  -GOLD-   2272016203D 1   1.00000     0.00000
 Structure written by MMmdl.
 45 47  0  0  0  0  0  0  0  0  1 V2000
  154.0375  136.8303  164.4193 C   0  0  0  0  0  0  0  0  0  0  0  0
  154.3586  136.4280  162.9943 C   0  0  0  0  0  0  0  0  0  0  0  0
  155.2283  135.3486  162.7409 C   0  0  0  0  0  0  0  0  0  0  0  0
  155.5189  134.9774  161.4154 C   0  0  0  0  0  0  0  0  0  0  0  0
  154.9407  135.6829  160.3435 C   0  0  0  0  0  0  0  0  0  0  0  0
  154.0668  136.7643  160.5783 C   0  0  0  0  0  0  0  0  0  0  0  0
  153.5430  137.3975  159.4715 O   0  0  0  0  0  0  0  0  0  0  0  0
  153.1920  138.7701  159.5854 C   0  0  0  0  0  0  0  0  0  0  0  0
  153.1315  139.4139  158.1934 C   0  0  0  0  0  0  0  0  0  0  0  0
  152.3987  140.6735  158.1952 N   0  0  0  0  0  0  0  0  0  0  0  0
  151.5260  141.1647  157.2744 C   0  0  0  0  0  0  0  0  0  0  0  0
  151.1491  140.4218  156.0168 C   0  0  1  0  0  0  0  0  0  0  0  0
  150.4711  139.0771  156.3165 C   0  0  0  0  0  0  0  0  0  0  0  0
  150.2645  141.2731  155.2284 N   0  0  0  0  0  0  0  0  0  0  0  0
  148.9787  141.5000  155.5248 C   0  0  0  0  0  0  0  0  0  0  0  0
  148.4157  141.0065  156.4986 O   0  0  0  0  0  0  0  0  0  0  0  0
  151.0399  142.3810  157.5372 N   0  0  0  0  0  0  0  0  0  0  0  0
  151.6204  142.6916  158.7494 C   0  0  0  0  0  0  0  0  0  0  0  0
  151.4920  143.8412  159.5615 C   0  0  0  0  0  0  0  0  0  0  0  0
  152.1942  143.9356  160.7809 C   0  0  0  0  0  0  0  0  0  0  0  0
  153.0323  142.8841  161.2044 C   0  0  0  0  0  0  0  0  0  0  0  0
  153.1754  141.7312  160.4087 C   0  0  0  0  0  0  0  0  0  0  0  0
  152.4730  141.6423  159.1916 C   0  0  0  0  0  0  0  0  0  0  0  0
  153.7803  137.1321  161.9179 C   0  0  0  0  0  0  0  0  0  0  0  0
  154.7670  136.4218  165.1193 H   0  0  0  0  0  0  0  0  0  0  0  0
  153.0500  136.4627  164.6993 H   0  0  0  0  0  0  0  0  0  0  0  0
  154.0417  137.9158  164.5220 H   0  0  0  0  0  0  0  0  0  0  0  0
  155.6737  134.8028  163.5599 H   0  0  0  0  0  0  0  0  0  0  0  0
  156.1857  134.1504  161.2206 H   0  0  0  0  0  0  0  0  0  0  0  0
  155.1726  135.3904  159.3302 H   0  0  0  0  0  0  0  0  0  0  0  0
  152.2223  138.8727  160.0755 H   0  0  0  0  0  0  0  0  0  0  0  0
  153.9325  139.2952  160.1906 H   0  0  0  0  0  0  0  0  0  0  0  0
  154.1449  139.6105  157.8426 H   0  0  0  0  0  0  0  0  0  0  0  0
  152.7000  138.7316  157.4622 H   0  0  0  0  0  0  0  0  0  0  0  0
  152.0350  140.1984  155.4250 H   0  0  0  0  0  0  0  0  0  0  0  0
  151.1147  138.4452  156.9280 H   0  0  0  0  0  0  0  0  0  0  0  0
  150.2510  138.5350  155.3965 H   0  0  0  0  0  0  0  0  0  0  0  0
  149.5329  139.2112  156.8563 H   0  0  0  0  0  0  0  0  0  0  0  0
  150.6491  141.6966  154.3964 H   0  0  0  0  0  0  0  0  0  0  0  0
  148.5006  142.1727  154.7953 H   0  0  0  0  0  0  0  0  0  0  0  0
  150.8514  144.6517  159.2460 H   0  0  0  0  0  0  0  0  0  0  0  0
  152.0886  144.8187  161.3938 H   0  0  0  0  0  0  0  0  0  0  0  0
  153.5660  142.9634  162.1401 H   0  0  0  0  0  0  0  0  0  0  0  0
  153.8167  140.9245  160.7313 H   0  0  0  0  0  0  0  0  0  0  0  0
  153.1163  137.9524  162.1451 H   0  0  0  0  0  0  0  0  0  0  0  0
  1  2  1  0  0  0  0
  1 25  1  0  0  0  0
  1 26  1  0  0  0  0
  1 27  1  0  0  0  0
  2 24  1  0  0  0  0
  2  3  2  0  0  0  0
  3  4  1  0  0  0  0
  3 28  1  0  0  0  0
  4  5  2  0  0  0  0
  4 29  1  0  0  0  0
  5  6  1  0  0  0  0
  5 30  1  0  0  0  0
  6  7  1  0  0  0  0
  6 24  2  0  0  0  0
  7  8  1  0  0  0  0
  8  9  1  0  0  0  0
  8 31  1  0  0  0  0
  8 32  1  0  0  0  0
  9 10  1  0  0  0  0
  9 33  1  0  0  0  0
  9 34  1  0  0  0  0
 10 23  1  0  0  0  0
 10 11  1  0  0  0  0
 11 12  1  0  0  0  0
 11 17  2  0  0  0  0
 12 13  1  0  0  0  0
 12 14  1  0  0  0  0
 12 35  1  0  0  0  0
 13 36  1  0  0  0  0
 13 37  1  0  0  0  0
 13 38  1  0  0  0  0
 14 15  1  0  0  0  0
 14 39  1  0  0  0  0
 15 16  2  0  0  0  0
 15 40  1  0  0  0  0
 17 18  1  0  0  0  0
 18 23  2  0  0  0  0
 18 19  1  0  0  0  0
 19 20  2  0  0  0  0
 19 41  1  0  0  0  0
 20 21  1  0  0  0  0
 20 42  1  0  0  0  0
 21 22  2  0  0  0  0
 21 43  1  0  0  0  0
 22 23  1  0  0  0  0
 22 44  1  0  0  0  0
 24 45  1  0  0  0  0
M  END
> <s_m_source_file>
AV-unprocessed.smi

> <i_m_source_file_index>
2955

> <i_lp_mmshare_version>
43012

> <i_f3d_flags>
0

> <s_epik_input>
W0NIM11jMVtjSF1bY0hdW2NIXWMoW2NIXTEpT1tDSDJdW0NIMl1uKGMobjIpW0NASF0oW0NIM10pW05IXVtDSF09TyljKGMyMylbY0hdW2NIXVtjSF1bY0hdMw==

> <s_epik_cmdline>
J2VwaWtfcHl0aG9uJywgJy1waCcsICc3LjAnLCAnLXRuJywgJzgnLCAnLW1hJywgJzIwMCcsICctbWV0YWxfYmluZGluZycsICctaW1hZScsICc8aW5maWxlLm1hZT4nLCAnLW9tYWUnLCAnPG91dGZpbGUubWFlPic=

> <r_lp_tautomer_probability>
1

> <r_epik_Ionization_Penalty>
0.0917757

> <r_epik_Ionization_Penalty_Charging>
0

> <r_epik_Ionization_Penalty_Neutral>
0.0917757

> <r_epik_State_Penalty>
0.0820948

> <r_epik_Charging_Adjusted_Penalty>
0.0820948

> <i_epik_Tot_Q>
0

> <i_epik_Tot_abs_Q>
0

> <r_epik_Metal_State_Penalty>
0.0709956

> <b_epik_Metal_Only>
0

> <s_lp_Force_Field>
OPLS_2005

> <r_lp_Energy>
12.9149

> <b_lp_Chiralities_Consistent>
1

> <s_lp_Variant>
AV-unprocessed.smi:2955-2

> <Gold.Version>
5.8.1

> <Gold.Id.Protein>
6NUR|6NUR_protein|mol2

> <Gold.PLP.Fitness>
43.5346

> <Gold.PLP.PLP>
-45.4207

> <Gold.PLP.part.hbond>
0.0000

> <Gold.PLP.part.metal>
0.0000

> <Gold.PLP.part.buried>
-5.2640

> <Gold.PLP.part.nonpolar>
-40.1173

> <Gold.PLP.part.repulsive>
0.3297

> <Gold.PLP.ligand.clash>
0.0000

> <Gold.PLP.ligand.torsion>
0.9898

> <Gold.PLP.Chemscore.Hbond>
0.0000

> <Gold.PLP.Chemscore.CHOScore>
0.0000

> <Gold.PLP.Chemscore.Metal>
0.0000

> <Gold.PLP.Chemscore.Internal.Correction>
0.0935

> <Gold.Rescore>
     Score         DG    S(hbond)    S(metal)    S(lipo)     H(rot)  DE(clash)    DE(int)     intcor
     11.93     -15.24       0.00        0.00     132.91       2.26       0.02       3.29       ----

> <Gold.Chemscore.Fitness>
11.9285

> <Gold.Chemscore.DG>
-15.2401

> <Gold.Chemscore.ZeroCoef>
-5.4800

> <Gold.Chemscore.Hbond>
0.0000

> <Gold.Chemscore.Metal>
0.0000

> <Gold.Chemscore.Lipo>
132.9114

> <Gold.Chemscore.Internal_Hbond>
0.0000

> <Gold.Chemscore.DEClash>
0.0166

> <Gold.Chemscore.DEInternal>
3.2950

> <Gold.Chemscore.Rot>
2.2619

> <Gold.Chemscore.Internal.Correction>
   9.000000E+99

> <Gold.Chemscore.Hbond.Weighted>
-0.0000

> <Gold.Chemscore.Metal.Weighted>
-0.0000

> <Gold.Chemscore.Lipo.Weighted>
-15.5506

> <Gold.Chemscore.Internal_Hbond.Weighted>
0.0000

> <Gold.Chemscore.DEClash.Weighted>
0.0166

> <Gold.Chemscore.DEInternal.Weighted>
3.2950

> <Gold.Chemscore.Rot.Weighted>
5.7906

> <Gold.Chemscore.Internal.Correction.Weighted>
   9.000000E+99

> <Gold.Protein.RotatedTorsions>
[ 6907 6896 6895 6894 ] final  -58.42 input  -60.11 | X-H torsion
[ 7974 7965 7964 7962 ] final   92.20 input  175.53 | X-H torsion
[ 8008 7997 7996 7995 ] final   23.65 input   59.86 | X-H torsion
[ 10167 10162 10161 10158 ] final  -84.82 input  -65.29 | X-H torsion
[ 10718 10713 10712 10709 ] final   14.35 input   66.30 | X-H torsion
[ 10763 10752 10751 10750 ] final -158.89 input  -60.55 | X-H torsion
[ 11005 11000 10999 10996 ] final    4.58 input  -57.11 | X-H torsion

> <Gold.Protein.ActiveResidues>
 VAL166  LYS551  ARG553  GLY616  TRP617  ASP618  TYR619  PRO620  LYS621  CYS622 
 ASP623  PHE694  ASN695  SER759  ASP760  ASP761  ALA762  ILE779  LEU786  VAL792 
 PHE793  MET794  SER795  GLU796  ALA797  LYS798  CYS799  TRP800  GLU811  SER814 

> <Gold.Protein.RotatedAtoms>
  150.8009  134.7101  159.6598 H   0  0  0  0  0  0  0  0  0  0  0  0  # atno 6907 bound_to 6896
  152.4125  134.6096  160.0032 H   0  0  0  0  0  0  0  0  0  0  0  0  # atno 6908 bound_to 6896
  151.6335  133.3293  159.3150 H   0  0  0  0  0  0  0  0  0  0  0  0  # atno 6909 bound_to 6896
  145.4954  139.2276  143.2806 H   0  0  0  0  0  0  0  0  0  0  0  0  # atno 7974 bound_to 7965
  154.9843  140.3106  155.4933 H   0  0  0  0  0  0  0  0  0  0  0  0  # atno 8008 bound_to 7997
  156.2949  140.2261  156.4883 H   0  0  0  0  0  0  0  0  0  0  0  0  # atno 8009 bound_to 7997
  154.7761  140.0449  157.1078 H   0  0  0  0  0  0  0  0  0  0  0  0  # atno 8010 bound_to 7997
  140.4096  143.2628  151.9035 H   0  0  0  0  0  0  0  0  0  0  0  0  # atno 10167 bound_to 10162
  157.0379  130.6219  149.5746 H   0  0  0  0  0  0  0  0  0  0  0  0  # atno 10718 bound_to 10713
  154.7520  135.3095  154.8540 H   0  0  0  0  0  0  0  0  0  0  0  0  # atno 10763 bound_to 10752
  153.9324  135.6784  153.4749 H   0  0  0  0  0  0  0  0  0  0  0  0  # atno 10764 bound_to 10752
  153.1116  135.4863  154.8974 H   0  0  0  0  0  0  0  0  0  0  0  0  # atno 10765 bound_to 10752
  140.5804  134.0019  155.8045 H   0  0  0  0  0  0  0  0  0  0  0  0  # atno 11005 bound_to 11000
  146.2258  140.5751  142.8997 LP  0  0  0  0  0  0  0  0  0  0  0  0  # atno 17320 bound_to 7965
  144.7810  140.5840  143.6605 LP  0  0  0  0  0  0  0  0  0  0  0  0  # atno 17321 bound_to 7965
  139.4783  144.5550  151.8327 LP  0  0  0  0  0  0  0  0  0  0  0  0  # atno 17342 bound_to 10162
  140.4652  144.1665  150.5911 LP  0  0  0  0  0  0  0  0  0  0  0  0  # atno 17343 bound_to 10162
  156.0048  130.5133  150.7790 LP  0  0  0  0  0  0  0  0  0  0  0  0  # atno 17370 bound_to 10713
  157.5127  131.0926  151.0177 LP  0  0  0  0  0  0  0  0  0  0  0  0  # atno 17371 bound_to 10713
  141.1000  133.9783  157.3095 LP  0  0  0  0  0  0  0  0  0  0  0  0  # atno 17394 bound_to 11000
  139.9320  135.0199  156.8432 LP  0  0  0  0  0  0  0  0  0  0  0  0  # atno 17395 bound_to 11000

$$$$
