AV-unprocessed.smi:670|AV-procd|sdf|3266|dock2
  -GOLD-   22720 0223D 1   1.00000     0.00000
 Structure written by MMmdl.
 44 45  0  0  0  0  0  0  0  0  2 V2000
  151.5320  144.2772  157.9137 C   0  0  0  0  0  0  0  0  0  0  0  0
  152.3709  143.8590  159.1314 C   0  0  1  0  0  0  0  0  0  0  0  0
  151.6430  144.1612  160.4582 C   0  0  0  0  0  0  0  0  0  0  0  0
  152.4995  143.7763  161.6748 C   0  0  0  0  0  0  0  0  0  0  0  0
  152.9449  142.3089  161.6012 C   0  0  0  0  0  0  0  0  0  0  0  0
  153.6731  142.0117  160.2814 C   0  0  0  0  0  0  0  0  0  0  0  0
  152.8014  142.3764  159.0597 C   0  0  1  0  0  0  0  0  0  0  0  0
  151.6206  141.5841  159.0209 O   0  0  0  0  0  0  0  0  0  0  0  0
  151.8196  140.1790  159.0242 C   0  0  0  0  0  0  0  0  0  0  0  0
  151.3286  139.6063  157.6859 C   0  0  0  0  0  0  0  0  0  0  0  0
  150.1253  138.7988  157.8571 N   0  0  0  0  0  0  0  0  0  0  0  0
  149.9761  137.8087  158.7509 C   0  0  0  0  0  0  0  0  0  0  0  0
  150.8421  137.5032  159.5715 O   0  0  0  0  0  0  0  0  0  0  0  0
  148.6301  137.0724  158.7342 C   0  0  0  0  0  0  0  0  0  0  0  0
  148.5115  136.0981  159.8274 N   0  0  0  0  0  0  0  0  0  0  0  0
  148.1816  136.7069  161.1140 N   0  5  0  0  0  0  0  0  0  0  0  0
  147.9902  135.9074  162.1966 C   0  0  0  0  0  0  0  0  0  0  0  0
  147.6811  136.3458  163.3020 O   0  0  0  0  0  0  0  0  0  0  0  0
  148.1621  134.4743  162.0274 C   0  0  0  0  0  0  0  0  0  0  0  0
  148.5003  133.9426  160.8363 C   0  0  0  0  0  0  0  0  0  0  0  0
  148.7048  134.7599  159.6467 C   0  0  0  0  0  0  0  0  0  0  0  0
  149.0223  134.2782  158.5595 O   0  0  0  0  0  0  0  0  0  0  0  0
  150.5860  143.7362  157.8756 H   0  0  0  0  0  0  0  0  0  0  0  0
  152.0655  144.0821  156.9832 H   0  0  0  0  0  0  0  0  0  0  0  0
  151.3021  145.3424  157.9448 H   0  0  0  0  0  0  0  0  0  0  0  0
  153.2789  144.4636  159.1119 H   0  0  0  0  0  0  0  0  0  0  0  0
  151.3905  145.2205  160.5127 H   0  0  0  0  0  0  0  0  0  0  0  0
  150.6969  143.6191  160.4955 H   0  0  0  0  0  0  0  0  0  0  0  0
  153.3769  144.4221  161.7235 H   0  0  0  0  0  0  0  0  0  0  0  0
  151.9376  143.9474  162.5932 H   0  0  0  0  0  0  0  0  0  0  0  0
  153.5910  142.0728  162.4467 H   0  0  0  0  0  0  0  0  0  0  0  0
  152.0736  141.6600  161.6876 H   0  0  0  0  0  0  0  0  0  0  0  0
  154.5979  142.5888  160.2462 H   0  0  0  0  0  0  0  0  0  0  0  0
  153.9771  140.9664  160.2535 H   0  0  0  0  0  0  0  0  0  0  0  0
  153.3727  142.2208  158.1429 H   0  0  0  0  0  0  0  0  0  0  0  0
  152.8820  139.9667  159.1500 H   0  0  0  0  0  0  0  0  0  0  0  0
  151.2917  139.6981  159.8472 H   0  0  0  0  0  0  0  0  0  0  0  0
  151.1624  140.4052  156.9614 H   0  0  0  0  0  0  0  0  0  0  0  0
  152.0993  138.9617  157.2634 H   0  0  0  0  0  0  0  0  0  0  0  0
  149.3594  138.9786  157.2241 H   0  0  0  0  0  0  0  0  0  0  0  0
  147.8285  137.8098  158.7985 H   0  0  0  0  0  0  0  0  0  0  0  0
  148.4900  136.5803  157.7694 H   0  0  0  0  0  0  0  0  0  0  0  0
  148.0186  133.8222  162.8761 H   0  0  0  0  0  0  0  0  0  0  0  0
  148.6197  132.8725  160.7565 H   0  0  0  0  0  0  0  0  0  0  0  0
  1  2  1  0  0  0  0
  1 23  1  0  0  0  0
  1 24  1  0  0  0  0
  1 25  1  0  0  0  0
  2  7  1  0  0  0  0
  2  3  1  0  0  0  0
  2 26  1  0  0  0  0
  3  4  1  0  0  0  0
  3 27  1  0  0  0  0
  3 28  1  0  0  0  0
  4  5  1  0  0  0  0
  4 29  1  0  0  0  0
  4 30  1  0  0  0  0
  5  6  1  0  0  0  0
  5 31  1  0  0  0  0
  5 32  1  0  0  0  0
  6  7  1  0  0  0  0
  6 33  1  0  0  0  0
  6 34  1  0  0  0  0
  7  8  1  0  0  0  0
  7 35  1  0  0  0  0
  8  9  1  0  0  0  0
  9 10  1  0  0  0  0
  9 36  1  0  0  0  0
  9 37  1  0  0  0  0
 10 11  1  0  0  0  0
 10 38  1  0  0  0  0
 10 39  1  0  0  0  0
 11 12  1  0  0  0  0
 11 40  1  0  0  0  0
 12 13  2  0  0  0  0
 12 14  1  0  0  0  0
 14 41  1  0  0  0  0
 14 42  1  0  0  0  0
 14 15  1  0  0  0  0
 15 16  1  0  0  0  0
 15 21  1  0  0  0  0
 16 17  1  0  0  0  0
 17 18  2  0  0  0  0
 17 19  1  0  0  0  0
 19 43  1  0  0  0  0
 19 20  2  0  0  0  0
 20 44  1  0  0  0  0
 20 21  1  0  0  0  0
 21 22  2  0  0  0  0
M  CHG  1  16  -1
M  END
> <s_m_source_file>
AV-unprocessed.smi

> <i_m_source_file_index>
670

> <i_lp_mmshare_version>
43012

> <i_f3d_flags>
0

> <s_epik_input>
W0NIM11bQ0BASF0xW0NIMl1bQ0gyXVtDSDJdW0NIMl1bQ0BIXTFPW0NIMl1bQ0gyXVtOSF1DKD1PKVtDSDJdbjJbbkhdYyg9TylbY0hdW2NIXWMyPU8=

> <s_epik_cmdline>
J2VwaWtfcHl0aG9uJywgJy1waCcsICc3LjAnLCAnLXRuJywgJzgnLCAnLW1hJywgJzIwMCcsICctbWV0YWxfYmluZGluZycsICctaW1hZScsICc8aW5maWxlLm1hZT4nLCAnLW9tYWUnLCAnPG91dGZpbGUubWFlPic=

> <r_lp_tautomer_probability>
1

> <r_epik_Ionization_Penalty>
0.0975638

> <r_epik_Ionization_Penalty_Charging>
0.0975637

> <r_epik_Ionization_Penalty_Neutral>
2.78599e-08

> <r_epik_State_Penalty>
0.0343507

> <r_epik_Charging_Adjusted_Penalty>
0.131914

> <i_epik_Tot_Q>
-1

> <i_epik_Tot_abs_Q>
1

> <r_epik_Metal_State_Penalty>
0.0343507

> <b_epik_Metal_Only>
0

> <s_lp_Force_Field>
OPLS_2005

> <r_lp_Energy>
24.4617

> <b_lp_Chiralities_Consistent>
1

> <s_lp_Variant>
AV-unprocessed.smi:670-2

> <Gold.Version>
5.8.1

> <Gold.Id.Protein>
6NUR|6NUR_protein|mol2

> <Gold.PLP.Fitness>
59.6491

> <Gold.PLP.PLP>
-48.7878

> <Gold.PLP.part.hbond>
-4.0000

> <Gold.PLP.part.metal>
0.0000

> <Gold.PLP.part.buried>
-4.8928

> <Gold.PLP.part.nonpolar>
-41.0796

> <Gold.PLP.part.repulsive>
0.0876

> <Gold.PLP.ligand.clash>
0.0000

> <Gold.PLP.ligand.torsion>
1.0607

> <Gold.PLP.Chemscore.Hbond>
4.2640

> <Gold.PLP.Chemscore.CHOScore>
0.0000

> <Gold.PLP.Chemscore.Metal>
0.0000

> <Gold.Chemscore.Hbonds>
donor molecule, donor type, donor heavy atom, donor atom, acceptor molecule, acceptor atom, score
      P1  H  6896  6909       L1    22  0.05
      P1  H  6931  6943       L1    16  2.00

> <Gold.PLP.Chemscore.Internal.Correction>
0.1906

> <Gold.Rescore>
     Score         DG    S(hbond)    S(metal)    S(lipo)     H(rot)  DE(clash)    DE(int)     intcor
     15.96     -18.67       1.83        0.00     114.19       2.45       0.15       2.57       ----

> <Gold.Chemscore.Fitness>
15.9554

> <Gold.Chemscore.DG>
-18.6745

> <Gold.Chemscore.ZeroCoef>
-5.4800

> <Gold.Chemscore.Hbond>
1.8273

> <Gold.Chemscore.Metal>
0.0000

> <Gold.Chemscore.Lipo>
114.1936

> <Gold.Chemscore.Internal_Hbond>
0.0000

> <Gold.Chemscore.DEClash>
0.1490

> <Gold.Chemscore.DEInternal>
2.5701

> <Gold.Chemscore.Rot>
2.4490

> <Gold.Chemscore.Internal.Correction>
   9.000000E+99

> <Gold.Chemscore.Hbonds>
donor molecule, donor type, donor heavy atom, donor atom, acceptor molecule, acceptor atom, score
      P1  H  6931  6943       L1    16  0.34
      P1  H  6934  6947       L1    16  0.01

> <Gold.Chemscore.Hbond.Weighted>
-6.1032

> <Gold.Chemscore.Metal.Weighted>
-0.0000

> <Gold.Chemscore.Lipo.Weighted>
-13.3606

> <Gold.Chemscore.Internal_Hbond.Weighted>
0.0000

> <Gold.Chemscore.DEClash.Weighted>
0.1490

> <Gold.Chemscore.DEInternal.Weighted>
2.5701

> <Gold.Chemscore.Rot.Weighted>
6.2694

> <Gold.Chemscore.Internal.Correction.Weighted>
   9.000000E+99

> <Gold.Protein.RotatedTorsions>
[ 6907 6896 6895 6894 ] final   24.45 input  -60.11 | X-H torsion
[ 7974 7965 7964 7962 ] final  -33.48 input  175.53 | X-H torsion
[ 8008 7997 7996 7995 ] final  156.32 input   59.86 | X-H torsion
[ 10167 10162 10161 10158 ] final  -62.54 input  -65.29 | X-H torsion
[ 10718 10713 10712 10709 ] final    4.22 input   66.30 | X-H torsion
[ 10763 10752 10751 10750 ] final  -89.97 input  -60.55 | X-H torsion
[ 11005 11000 10999 10996 ] final -103.92 input  -57.11 | X-H torsion

> <Gold.Protein.ActiveResidues>
 VAL166  LYS551  ARG553  GLY616  TRP617  ASP618  TYR619  PRO620  LYS621  CYS622 
 ASP623  PHE694  ASN695  SER759  ASP760  ASP761  ALA762  ILE779  LEU786  VAL792 
 PHE793  MET794  SER795  GLU796  ALA797  LYS798  CYS799  TRP800  GLU811  SER814 

> <Gold.Protein.RotatedAtoms>
  151.9577  135.0139  160.0545 H   0  0  0  0  0  0  0  0  0  0  0  0  # atno 6907 bound_to 6896
  152.1896  133.4759  159.5009 H   0  0  0  0  0  0  0  0  0  0  0  0  # atno 6908 bound_to 6896
  150.6932  134.1646  159.4232 H   0  0  0  0  0  0  0  0  0  0  0  0  # atno 6909 bound_to 6896
  146.0907  140.5921  142.8866 H   0  0  0  0  0  0  0  0  0  0  0  0  # atno 7974 bound_to 7965
  156.2429  140.1915  156.6937 H   0  0  0  0  0  0  0  0  0  0  0  0  # atno 8008 bound_to 7997
  154.6233  140.0605  156.9668 H   0  0  0  0  0  0  0  0  0  0  0  0  # atno 8009 bound_to 7997
  155.1827  140.3278  155.4375 H   0  0  0  0  0  0  0  0  0  0  0  0  # atno 8010 bound_to 7997
  140.5932  143.2345  151.6093 H   0  0  0  0  0  0  0  0  0  0  0  0  # atno 10167 bound_to 10162
  156.8894  130.5682  149.5650 H   0  0  0  0  0  0  0  0  0  0  0  0  # atno 10718 bound_to 10713
  154.6609  135.5321  153.8017 H   0  0  0  0  0  0  0  0  0  0  0  0  # atno 10763 bound_to 10752
  153.0441  135.6505  154.0873 H   0  0  0  0  0  0  0  0  0  0  0  0  # atno 10764 bound_to 10752
  154.0781  135.2949  155.3275 H   0  0  0  0  0  0  0  0  0  0  0  0  # atno 10765 bound_to 10752
  141.1124  133.8680  157.1547 H   0  0  0  0  0  0  0  0  0  0  0  0  # atno 11005 bound_to 11000
  144.7358  140.4804  143.6905 LP  0  0  0  0  0  0  0  0  0  0  0  0  # atno 17320 bound_to 7965
  145.6044  139.1507  143.3111 LP  0  0  0  0  0  0  0  0  0  0  0  0  # atno 17321 bound_to 7965
  139.5241  144.3114  152.0990 LP  0  0  0  0  0  0  0  0  0  0  0  0  # atno 17342 bound_to 10162
  140.2282  144.4396  150.6312 LP  0  0  0  0  0  0  0  0  0  0  0  0  # atno 17343 bound_to 10162
  156.0637  130.5684  150.9245 LP  0  0  0  0  0  0  0  0  0  0  0  0  # atno 17370 bound_to 10713
  157.6093  131.0937  150.8823 LP  0  0  0  0  0  0  0  0  0  0  0  0  # atno 17371 bound_to 10713
  140.0025  135.0022  157.0221 LP  0  0  0  0  0  0  0  0  0  0  0  0  # atno 17394 bound_to 11000
  140.4740  134.1358  155.7207 LP  0  0  0  0  0  0  0  0  0  0  0  0  # atno 17395 bound_to 11000

$$$$
