AV-unprocessed.smi:837|AV-procd|sdf|3895|dock5
  -GOLD-   22720 1353D 1   1.00000     0.00000
 Structure written by MMmdl.
 49 51  0  0  0  0  0  0  0  0  1 V2000
  146.2918  137.1057  159.2110 C   0  0  0  0  0  0  0  0  0  0  0  0
  146.9991  136.0625  160.1026 C   0  0  1  0  0  0  0  0  0  0  0  0
  146.6920  136.3398  161.5905 C   0  0  0  0  0  0  0  0  0  0  0  0
  147.4305  135.3658  162.5219 C   0  0  0  0  0  0  0  0  0  0  0  0
  147.1037  133.9066  162.1756 C   0  0  0  0  0  0  0  0  0  0  0  0
  147.4200  133.6094  160.7012 C   0  0  0  0  0  0  0  0  0  0  0  0
  146.6836  134.5770  159.7437 C   0  0  1  0  0  0  0  0  0  0  0  0
  145.2558  134.3039  159.7254 N   0  0  0  0  0  0  0  0  0  0  0  0
  144.8221  133.8700  158.5349 C   0  0  0  0  0  0  0  0  0  0  0  0
  143.6610  133.5587  158.2748 O   0  0  0  0  0  0  0  0  0  0  0  0
  145.8688  133.8367  157.6902 N   0  0  0  0  0  0  0  0  0  0  0  0
  145.8012  133.3821  156.2960 C   0  0  0  0  0  0  0  0  0  0  0  0
  145.3580  134.4940  155.3362 C   0  0  0  0  0  0  0  0  0  0  0  0
  145.8047  135.6363  155.4484 O   0  0  0  0  0  0  0  0  0  0  0  0
  144.4787  134.1392  154.3880 N   0  0  0  0  0  0  0  0  0  0  0  0
  143.8999  135.0413  153.3968 C   0  0  0  0  0  0  0  0  0  0  0  0
  143.1538  134.2997  152.2684 C   0  0  0  0  0  0  0  0  0  0  0  0
  144.0698  133.5033  151.3546 C   0  0  0  0  0  0  0  0  0  0  0  0
  145.4721  133.6043  151.4672 C   0  0  0  0  0  0  0  0  0  0  0  0
  146.2788  132.8569  150.5882 C   0  0  0  0  0  0  0  0  0  0  0  0
  145.6470  132.0371  149.6320 C   0  0  0  0  0  0  0  0  0  0  0  0
  144.3055  131.9303  149.5164 N   0  0  0  0  0  0  0  0  0  0  0  0
  143.5392  132.6506  150.3637 C   0  0  0  0  0  0  0  0  0  0  0  0
  146.9986  134.2297  158.2945 C   0  0  0  0  0  0  0  0  0  0  0  0
  148.1210  134.3073  157.7944 O   0  0  0  0  0  0  0  0  0  0  0  0
  145.2068  137.0352  159.2910 H   0  0  0  0  0  0  0  0  0  0  0  0
  146.5574  136.9899  158.1601 H   0  0  0  0  0  0  0  0  0  0  0  0
  146.5744  138.1181  159.5001 H   0  0  0  0  0  0  0  0  0  0  0  0
  148.0721  136.2103  159.9670 H   0  0  0  0  0  0  0  0  0  0  0  0
  146.9751  137.3619  161.8441 H   0  0  0  0  0  0  0  0  0  0  0  0
  145.6181  136.2682  161.7677 H   0  0  0  0  0  0  0  0  0  0  0  0
  148.5060  135.5280  162.4418 H   0  0  0  0  0  0  0  0  0  0  0  0
  147.1639  135.5698  163.5593 H   0  0  0  0  0  0  0  0  0  0  0  0
  147.6738  133.2362  162.8193 H   0  0  0  0  0  0  0  0  0  0  0  0
  146.0508  133.7066  162.3780 H   0  0  0  0  0  0  0  0  0  0  0  0
  148.4976  133.6920  160.5497 H   0  0  0  0  0  0  0  0  0  0  0  0
  147.1623  132.5734  160.4741 H   0  0  0  0  0  0  0  0  0  0  0  0
  144.6671  134.4194  160.5376 H   0  0  0  0  0  0  0  0  0  0  0  0
  146.7727  133.0091  155.9680 H   0  0  0  0  0  0  0  0  0  0  0  0
  145.1171  132.5344  156.2207 H   0  0  0  0  0  0  0  0  0  0  0  0
  144.1671  133.1790  154.3661 H   0  0  0  0  0  0  0  0  0  0  0  0
  143.2403  135.7624  153.8814 H   0  0  0  0  0  0  0  0  0  0  0  0
  144.7213  135.6157  152.9680 H   0  0  0  0  0  0  0  0  0  0  0  0
  142.4120  133.6256  152.6989 H   0  0  0  0  0  0  0  0  0  0  0  0
  142.5928  135.0159  151.6672 H   0  0  0  0  0  0  0  0  0  0  0  0
  145.9244  134.2497  152.2063 H   0  0  0  0  0  0  0  0  0  0  0  0
  147.3556  132.9154  150.6422 H   0  0  0  0  0  0  0  0  0  0  0  0
  146.2353  131.4525  148.9402 H   0  0  0  0  0  0  0  0  0  0  0  0
  142.4708  132.5477  150.2434 H   0  0  0  0  0  0  0  0  0  0  0  0
  1  2  1  0  0  0  0
  1 26  1  0  0  0  0
  1 27  1  0  0  0  0
  1 28  1  0  0  0  0
  2  7  1  0  0  0  0
  2  3  1  0  0  0  0
  2 29  1  0  0  0  0
  3  4  1  0  0  0  0
  3 30  1  0  0  0  0
  3 31  1  0  0  0  0
  4  5  1  0  0  0  0
  4 32  1  0  0  0  0
  4 33  1  0  0  0  0
  5  6  1  0  0  0  0
  5 34  1  0  0  0  0
  5 35  1  0  0  0  0
  6  7  1  0  0  0  0
  6 36  1  0  0  0  0
  6 37  1  0  0  0  0
  7 24  1  0  0  0  0
  7  8  1  0  0  0  0
  8  9  1  0  0  0  0
  8 38  1  0  0  0  0
  9 10  2  0  0  0  0
  9 11  1  0  0  0  0
 11 12  1  0  0  0  0
 11 24  1  0  0  0  0
 12 13  1  0  0  0  0
 12 39  1  0  0  0  0
 12 40  1  0  0  0  0
 13 14  2  0  0  0  0
 13 15  1  0  0  0  0
 15 16  1  0  0  0  0
 15 41  1  0  0  0  0
 16 17  1  0  0  0  0
 16 42  1  0  0  0  0
 16 43  1  0  0  0  0
 17 18  1  0  0  0  0
 17 44  1  0  0  0  0
 17 45  1  0  0  0  0
 18 23  1  0  0  0  0
 18 19  2  0  0  0  0
 19 20  1  0  0  0  0
 19 46  1  0  0  0  0
 20 21  2  0  0  0  0
 20 47  1  0  0  0  0
 21 22  1  0  0  0  0
 21 48  1  0  0  0  0
 22 23  2  0  0  0  0
 23 49  1  0  0  0  0
 24 25  2  0  0  0  0
M  END
> <s_m_source_file>
AV-unprocessed.smi

> <i_m_source_file_index>
837

> <i_lp_mmshare_version>
43012

> <i_f3d_flags>
0

> <s_epik_input>
W0NIMl0xW0NIMl1bQ0gyXVtDSDJdW0NAQEhdKFtDSDNdKVtDQEBdMTJbTkhdQyg9TylOKEMyPU8pW0NIMl1DKD1PKVtOSF1bQ0gyXVtDSDJdYzNbY0hdW2NIXVtjSF1uW2NIXTM=

> <s_epik_cmdline>
J2VwaWtfcHl0aG9uJywgJy1waCcsICc3LjAnLCAnLXRuJywgJzgnLCAnLW1hJywgJzIwMCcsICctbWV0YWxfYmluZGluZycsICctaW1hZScsICc8aW5maWxlLm1hZT4nLCAnLW9tYWUnLCAnPG91dGZpbGUubWFlPic=

> <r_lp_tautomer_probability>
1

> <r_epik_Ionization_Penalty>
0.0127837

> <r_epik_Ionization_Penalty_Charging>
0

> <r_epik_Ionization_Penalty_Neutral>
0.0127837

> <r_epik_State_Penalty>
0.00987657

> <r_epik_Charging_Adjusted_Penalty>
0.00987657

> <i_epik_Tot_Q>
0

> <i_epik_Tot_abs_Q>
0

> <r_epik_Metal_State_Penalty>
0.0309865

> <b_epik_Metal_Only>
0

> <s_lp_Force_Field>
OPLS_2005

> <r_lp_Energy>
22.8196

> <b_lp_Chiralities_Consistent>
1

> <s_lp_Variant>
AV-unprocessed.smi:837-4

> <Gold.Version>
5.8.1

> <Gold.Id.Protein>
6NUR|6NUR_protein|mol2

> <Gold.PLP.Fitness>
42.4060

> <Gold.PLP.PLP>
-34.8592

> <Gold.PLP.part.hbond>
-2.0000

> <Gold.PLP.part.metal>
0.0000

> <Gold.PLP.part.buried>
-5.7011

> <Gold.PLP.part.nonpolar>
-28.2890

> <Gold.PLP.part.repulsive>
0.2168

> <Gold.PLP.ligand.clash>
0.0000

> <Gold.PLP.ligand.torsion>
0.7095

> <Gold.PLP.Chemscore.Hbond>
1.5543

> <Gold.PLP.Chemscore.CHOScore>
1.4225

> <Gold.PLP.Chemscore.Metal>
0.0000

> <Gold.Chemscore.Hbonds>
donor molecule, donor type, donor heavy atom, donor atom, acceptor molecule, acceptor atom, score
      L1  H    15    41       P1 10957  0.82
      P1  H 10785 10796       L1    22  0.30
      L1  C    23    49       P1 10186  0.87
      L1  C    23    49       P1 10952  0.27

> <Gold.PLP.Chemscore.Internal.Correction>
0.0353

> <Gold.Rescore>
     Score         DG    S(hbond)    S(metal)    S(lipo)     H(rot)  DE(clash)    DE(int)     intcor
     16.46     -17.24       1.68        0.00      93.09       1.86       0.01       0.77       ----

> <Gold.Chemscore.Fitness>
16.4634

> <Gold.Chemscore.DG>
-17.2411

> <Gold.Chemscore.ZeroCoef>
-5.4800

> <Gold.Chemscore.Hbond>
1.6824

> <Gold.Chemscore.Metal>
0.0000

> <Gold.Chemscore.Lipo>
93.0912

> <Gold.Chemscore.Internal_Hbond>
0.0000

> <Gold.Chemscore.DEClash>
0.0126

> <Gold.Chemscore.DEInternal>
0.7650

> <Gold.Chemscore.Rot>
1.8553

> <Gold.Chemscore.Internal.Correction>
   9.000000E+99

> <Gold.Chemscore.Hbonds>
donor molecule, donor type, donor heavy atom, donor atom, acceptor molecule, acceptor atom, score
      L1  H    15    41       P1 10957  0.75
      P1  H 10785 10796       L1    22  0.25

> <Gold.Chemscore.Hbond.Weighted>
-5.6191

> <Gold.Chemscore.Metal.Weighted>
-0.0000

> <Gold.Chemscore.Lipo.Weighted>
-10.8917

> <Gold.Chemscore.Internal_Hbond.Weighted>
0.0000

> <Gold.Chemscore.DEClash.Weighted>
0.0126

> <Gold.Chemscore.DEInternal.Weighted>
0.7650

> <Gold.Chemscore.Rot.Weighted>
4.7497

> <Gold.Chemscore.Internal.Correction.Weighted>
   9.000000E+99

> <Gold.Protein.RotatedTorsions>
[ 6907 6896 6895 6894 ] final -145.58 input  -60.11 | X-H torsion
[ 7974 7965 7964 7962 ] final -123.72 input  175.53 | X-H torsion
[ 8008 7997 7996 7995 ] final    0.19 input   59.86 | X-H torsion
[ 10167 10162 10161 10158 ] final   50.18 input  -65.29 | X-H torsion
[ 10718 10713 10712 10709 ] final   82.95 input   66.30 | X-H torsion
[ 10763 10752 10751 10750 ] final -104.78 input  -60.55 | X-H torsion
[ 11005 11000 10999 10996 ] final  -36.99 input  -57.11 | X-H torsion

> <Gold.Protein.ActiveResidues>
 VAL166  LYS551  ARG553  GLY616  TRP617  ASP618  TYR619  PRO620  LYS621  CYS622 
 ASP623  PHE694  ASN695  SER759  ASP760  ASP761  ALA762  ILE779  LEU786  VAL792 
 PHE793  MET794  SER795  GLU796  ALA797  LYS798  CYS799  TRP800  GLU811  SER814 

> <Gold.Protein.RotatedAtoms>
  151.1298  133.5045  159.2599 H   0  0  0  0  0  0  0  0  0  0  0  0  # atno 6907 bound_to 6896
  151.1770  135.0343  159.8786 H   0  0  0  0  0  0  0  0  0  0  0  0  # atno 6908 bound_to 6896
  152.5459  134.1154  159.8430 H   0  0  0  0  0  0  0  0  0  0  0  0  # atno 6909 bound_to 6896
  145.0157  140.7944  143.4411 H   0  0  0  0  0  0  0  0  0  0  0  0  # atno 7974 bound_to 7965
  154.6653  140.2599  155.7065 H   0  0  0  0  0  0  0  0  0  0  0  0  # atno 8008 bound_to 7997
  156.2636  140.2840  156.1062 H   0  0  0  0  0  0  0  0  0  0  0  0  # atno 8009 bound_to 7997
  155.1249  140.0377  157.2750 H   0  0  0  0  0  0  0  0  0  0  0  0  # atno 8010 bound_to 7997
  140.2751  144.3221  150.6279 H   0  0  0  0  0  0  0  0  0  0  0  0  # atno 10167 bound_to 10162
  157.6868  131.0070  150.2451 H   0  0  0  0  0  0  0  0  0  0  0  0  # atno 10718 bound_to 10713
  154.7901  135.4773  154.0034 H   0  0  0  0  0  0  0  0  0  0  0  0  # atno 10763 bound_to 10752
  153.1619  135.6810  153.8738 H   0  0  0  0  0  0  0  0  0  0  0  0  # atno 10764 bound_to 10752
  153.8348  135.3187  155.3399 H   0  0  0  0  0  0  0  0  0  0  0  0  # atno 10765 bound_to 10752
  140.9917  133.7001  156.1862 H   0  0  0  0  0  0  0  0  0  0  0  0  # atno 11005 bound_to 11000
  145.1963  139.2275  143.5216 LP  0  0  0  0  0  0  0  0  0  0  0  0  # atno 17320 bound_to 7965
  146.3477  140.1770  142.8589 LP  0  0  0  0  0  0  0  0  0  0  0  0  # atno 17321 bound_to 7965
  140.5858  143.2170  151.7345 LP  0  0  0  0  0  0  0  0  0  0  0  0  # atno 17342 bound_to 10162
  139.4978  144.4013  152.0178 LP  0  0  0  0  0  0  0  0  0  0  0  0  # atno 17343 bound_to 10162
  156.3058  130.3765  149.7707 LP  0  0  0  0  0  0  0  0  0  0  0  0  # atno 17370 bound_to 10713
  156.5323  130.8263  151.3241 LP  0  0  0  0  0  0  0  0  0  0  0  0  # atno 17371 bound_to 10713
  140.7029  134.4544  157.5585 LP  0  0  0  0  0  0  0  0  0  0  0  0  # atno 17394 bound_to 11000
  139.8995  134.8589  156.1956 LP  0  0  0  0  0  0  0  0  0  0  0  0  # atno 17395 bound_to 11000

$$$$
