AV-unprocessed.smi:1594|AV-procd|sdf|6414|dock4
  -GOLD-   22720 7 53D 1   1.00000     0.00000
 Structure written by MMmdl.
 35 36  0  0  0  0  0  0  0  0  1 V2000
  144.6261  143.7853  162.2780 C   0  0  0  0  0  0  0  0  0  0  0  0
  145.1528  143.1122  161.0434 C   0  0  0  0  0  0  0  0  0  0  0  0
  144.7261  141.9016  160.7251 N   0  0  0  0  0  0  0  0  0  0  0  0
  145.3887  141.5611  159.5418 O   0  0  0  0  0  0  0  0  0  0  0  0
  146.1984  142.5923  159.1908 C   0  0  0  0  0  0  0  0  0  0  0  0
  146.9955  142.4234  157.9420 C   0  0  0  0  0  0  0  0  0  0  0  0
  146.1011  143.6069  160.1027 C   0  0  0  0  0  0  0  0  0  0  0  0
  146.8171  144.9354  160.1159 C   0  0  0  0  0  0  0  0  0  0  0  0
  148.2993  144.7813  160.4789 C   0  0  0  0  0  0  0  0  0  0  0  0
  148.6481  144.4001  161.5977 O   0  0  0  0  0  0  0  0  0  0  0  0
  149.1706  145.0853  159.5051 N   0  0  0  0  0  0  0  0  0  0  0  0
  150.6238  145.0027  159.6194 C   0  0  0  0  0  0  0  0  0  0  0  0
  151.2571  144.9582  158.2208 C   0  0  0  0  0  0  0  0  0  0  0  0
  152.7736  144.7241  158.3183 C   0  0  0  0  0  0  0  0  0  0  0  0
  153.0359  143.5277  159.0439 O   0  0  0  0  0  0  0  0  0  0  0  0
  152.5696  143.5807  160.3878 C   0  0  0  0  0  0  0  0  0  0  0  0
  151.0420  143.7503  160.4090 C   0  0  0  0  0  0  0  0  0  0  0  0
  144.3756  144.8271  162.0773 H   0  0  0  0  0  0  0  0  0  0  0  0
  145.3689  143.7703  163.0757 H   0  0  0  0  0  0  0  0  0  0  0  0
  143.7257  143.2960  162.6519 H   0  0  0  0  0  0  0  0  0  0  0  0
  147.0937  143.3722  157.4142 H   0  0  0  0  0  0  0  0  0  0  0  0
  146.5201  141.7112  157.2676 H   0  0  0  0  0  0  0  0  0  0  0  0
  147.9966  142.0581  158.1710 H   0  0  0  0  0  0  0  0  0  0  0  0
  146.7459  145.4218  159.1421 H   0  0  0  0  0  0  0  0  0  0  0  0
  146.3596  145.6204  160.8306 H   0  0  0  0  0  0  0  0  0  0  0  0
  148.8005  145.3927  158.6173 H   0  0  0  0  0  0  0  0  0  0  0  0
  150.9965  145.8902  160.1347 H   0  0  0  0  0  0  0  0  0  0  0  0
  150.8089  144.1547  157.6344 H   0  0  0  0  0  0  0  0  0  0  0  0
  151.0564  145.8863  157.6844 H   0  0  0  0  0  0  0  0  0  0  0  0
  153.2025  144.6312  157.3205 H   0  0  0  0  0  0  0  0  0  0  0  0
  153.2680  145.5694  158.7993 H   0  0  0  0  0  0  0  0  0  0  0  0
  152.8501  142.6574  160.8948 H   0  0  0  0  0  0  0  0  0  0  0  0
  153.0583  144.3972  160.9216 H   0  0  0  0  0  0  0  0  0  0  0  0
  150.6903  143.8129  161.4394 H   0  0  0  0  0  0  0  0  0  0  0  0
  150.5774  142.8643  159.9737 H   0  0  0  0  0  0  0  0  0  0  0  0
  1  2  1  0  0  0  0
  1 18  1  0  0  0  0
  1 19  1  0  0  0  0
  1 20  1  0  0  0  0
  2  7  1  0  0  0  0
  2  3  2  0  0  0  0
  3  4  1  0  0  0  0
  4  5  1  0  0  0  0
  5  6  1  0  0  0  0
  5  7  2  0  0  0  0
  6 21  1  0  0  0  0
  6 22  1  0  0  0  0
  6 23  1  0  0  0  0
  7  8  1  0  0  0  0
  8  9  1  0  0  0  0
  8 24  1  0  0  0  0
  8 25  1  0  0  0  0
  9 10  2  0  0  0  0
  9 11  1  0  0  0  0
 11 12  1  0  0  0  0
 11 26  1  0  0  0  0
 12 17  1  0  0  0  0
 12 13  1  0  0  0  0
 12 27  1  0  0  0  0
 13 14  1  0  0  0  0
 13 28  1  0  0  0  0
 13 29  1  0  0  0  0
 14 15  1  0  0  0  0
 14 30  1  0  0  0  0
 14 31  1  0  0  0  0
 15 16  1  0  0  0  0
 16 17  1  0  0  0  0
 16 32  1  0  0  0  0
 16 33  1  0  0  0  0
 17 34  1  0  0  0  0
 17 35  1  0  0  0  0
M  END
> <s_m_source_file>
AV-unprocessed.smi

> <i_m_source_file_index>
1594

> <i_lp_mmshare_version>
43012

> <i_f3d_flags>
0

> <s_epik_input>
W0NIM11jMW5vYyhbQ0gzXSljMVtDSDJdQyg9TylbTkhdW0NIXTJbQ0gyXVtDSDJdT1tDSDJdW0NIMl0y

> <s_epik_cmdline>
J2VwaWtfcHl0aG9uJywgJy1waCcsICc3LjAnLCAnLXRuJywgJzgnLCAnLW1hJywgJzIwMCcsICctbWV0YWxfYmluZGluZycsICctaW1hZScsICc8aW5maWxlLm1hZT4nLCAnLW9tYWUnLCAnPG91dGZpbGUubWFlPic=

> <r_lp_tautomer_probability>
1

> <r_epik_Ionization_Penalty>
2.34123e-08

> <r_epik_Ionization_Penalty_Charging>
0

> <r_epik_Ionization_Penalty_Neutral>
2.34123e-08

> <r_epik_State_Penalty>
-0

> <r_epik_Charging_Adjusted_Penalty>
0

> <i_epik_Tot_Q>
0

> <i_epik_Tot_abs_Q>
0

> <r_epik_Metal_State_Penalty>
-0

> <b_epik_Metal_Only>
0

> <s_lp_Force_Field>
OPLS_2005

> <r_lp_Energy>
1.65601

> <b_lp_Chiralities_Consistent>
1

> <s_lp_Variant>
AV-unprocessed.smi:1594-1

> <Gold.Version>
5.8.1

> <Gold.Id.Protein>
6NUR|6NUR_protein|mol2

> <Gold.PLP.Fitness>
39.8241

> <Gold.PLP.PLP>
-35.0275

> <Gold.PLP.part.hbond>
-3.0569

> <Gold.PLP.part.metal>
0.0000

> <Gold.PLP.part.buried>
-6.8843

> <Gold.PLP.part.nonpolar>
-25.4805

> <Gold.PLP.part.repulsive>
0.4428

> <Gold.PLP.ligand.clash>
0.0000

> <Gold.PLP.ligand.torsion>
0.4461

> <Gold.PLP.Chemscore.Hbond>
1.8955

> <Gold.PLP.Chemscore.CHOScore>
0.0000

> <Gold.PLP.Chemscore.Metal>
0.0000

> <Gold.Chemscore.Hbonds>
donor molecule, donor type, donor heavy atom, donor atom, acceptor molecule, acceptor atom, score
      L1  H    11    26       P1  8029  1.00
      P1  H  6933  6944       L1    10  0.70
      P1  H  6934  6946       L1     4  0.16

> <Gold.PLP.Chemscore.Internal.Correction>
0.0023

> <Gold.Rescore>
     Score         DG    S(hbond)    S(metal)    S(lipo)     H(rot)  DE(clash)    DE(int)     intcor
     14.89     -16.57       1.62        0.00      78.54       1.38       0.04       1.63       ----

> <Gold.Chemscore.Fitness>
14.8913

> <Gold.Chemscore.DG>
-16.5661

> <Gold.Chemscore.ZeroCoef>
-5.4800

> <Gold.Chemscore.Hbond>
1.6245

> <Gold.Chemscore.Metal>
0.0000

> <Gold.Chemscore.Lipo>
78.5445

> <Gold.Chemscore.Internal_Hbond>
0.0000

> <Gold.Chemscore.DEClash>
0.0439

> <Gold.Chemscore.DEInternal>
1.6309

> <Gold.Chemscore.Rot>
1.3786

> <Gold.Chemscore.Internal.Correction>
   9.000000E+99

> <Gold.Chemscore.Hbonds>
donor molecule, donor type, donor heavy atom, donor atom, acceptor molecule, acceptor atom, score
      L1  H    11    26       P1  8029  1.00
      P1  H  6933  6944       L1    10  0.30

> <Gold.Chemscore.Hbond.Weighted>
-5.4257

> <Gold.Chemscore.Metal.Weighted>
-0.0000

> <Gold.Chemscore.Lipo.Weighted>
-9.1897

> <Gold.Chemscore.Internal_Hbond.Weighted>
0.0000

> <Gold.Chemscore.DEClash.Weighted>
0.0439

> <Gold.Chemscore.DEInternal.Weighted>
1.6309

> <Gold.Chemscore.Rot.Weighted>
3.5293

> <Gold.Chemscore.Internal.Correction.Weighted>
   9.000000E+99

> <Gold.Protein.RotatedTorsions>
[ 6907 6896 6895 6894 ] final  -46.51 input  -60.11 | X-H torsion
[ 7974 7965 7964 7962 ] final   15.30 input  175.53 | X-H torsion
[ 8008 7997 7996 7995 ] final -128.41 input   59.86 | X-H torsion
[ 10167 10162 10161 10158 ] final   -7.07 input  -65.29 | X-H torsion
[ 10718 10713 10712 10709 ] final   95.57 input   66.30 | X-H torsion
[ 10763 10752 10751 10750 ] final  -54.38 input  -60.55 | X-H torsion
[ 11005 11000 10999 10996 ] final  118.63 input  -57.11 | X-H torsion

> <Gold.Protein.ActiveResidues>
 VAL166  LYS551  ARG553  GLY616  TRP617  ASP618  TYR619  PRO620  LYS621  CYS622 
 ASP623  PHE694  ASN695  SER759  ASP760  ASP761  ALA762  ILE779  LEU786  VAL792 
 PHE793  MET794  SER795  GLU796  ALA797  LYS798  CYS799  TRP800  GLU811  SER814 

> <Gold.Protein.RotatedAtoms>
  150.9104  134.8521  159.7421 H   0  0  0  0  0  0  0  0  0  0  0  0  # atno 6907 bound_to 6896
  152.4941  134.4367  159.9540 H   0  0  0  0  0  0  0  0  0  0  0  0  # atno 6908 bound_to 6896
  151.4410  133.3604  159.2817 H   0  0  0  0  0  0  0  0  0  0  0  0  # atno 6909 bound_to 6896
  146.2282  139.8914  142.8554 H   0  0  0  0  0  0  0  0  0  0  0  0  # atno 7974 bound_to 7965
  155.2623  140.0436  157.2998 H   0  0  0  0  0  0  0  0  0  0  0  0  # atno 8008 bound_to 7997
  154.5703  140.2372  155.8170 H   0  0  0  0  0  0  0  0  0  0  0  0  # atno 8009 bound_to 7997
  156.2117  140.2997  155.9756 H   0  0  0  0  0  0  0  0  0  0  0  0  # atno 8010 bound_to 7997
  140.7017  143.6122  150.8693 H   0  0  0  0  0  0  0  0  0  0  0  0  # atno 10167 bound_to 10162
  157.6937  131.0550  150.4359 H   0  0  0  0  0  0  0  0  0  0  0  0  # atno 10718 bound_to 10713
  154.1739  135.6454  153.5016 H   0  0  0  0  0  0  0  0  0  0  0  0  # atno 10763 bound_to 10752
  153.0077  135.5390  154.6584 H   0  0  0  0  0  0  0  0  0  0  0  0  # atno 10764 bound_to 10752
  154.5931  135.2936  155.0587 H   0  0  0  0  0  0  0  0  0  0  0  0  # atno 10765 bound_to 10752
  139.9116  134.9622  156.7533 H   0  0  0  0  0  0  0  0  0  0  0  0  # atno 11005 bound_to 11000
  145.2413  141.0010  143.3934 LP  0  0  0  0  0  0  0  0  0  0  0  0  # atno 17320 bound_to 7965
  144.9449  139.4147  143.6430 LP  0  0  0  0  0  0  0  0  0  0  0  0  # atno 17321 bound_to 7965
  139.9845  143.5915  152.2931 LP  0  0  0  0  0  0  0  0  0  0  0  0  # atno 17342 bound_to 10162
  139.6547  144.7662  151.2078 LP  0  0  0  0  0  0  0  0  0  0  0  0  # atno 17343 bound_to 10162
  156.4721  130.4055  149.6511 LP  0  0  0  0  0  0  0  0  0  0  0  0  # atno 17370 bound_to 10713
  156.3588  130.7470  151.2440 LP  0  0  0  0  0  0  0  0  0  0  0  0  # atno 17371 bound_to 10713
  140.6756  133.9520  155.7881 LP  0  0  0  0  0  0  0  0  0  0  0  0  # atno 17394 bound_to 11000
  141.0546  134.0434  157.3739 LP  0  0  0  0  0  0  0  0  0  0  0  0  # atno 17395 bound_to 11000

$$$$
