AV-unprocessed.smi:253|AV-procd|sdf|1944|dock9
  -GOLD-   2262021 73D 1   1.00000     0.00000
 Structure written by MMmdl.
 52 54  0  0  0  0  0  0  0  0  1 V2000
  152.3622  144.1166  158.9462 C   0  0  0  0  0  0  0  0  0  0  0  0
  151.9175  144.1261  157.4782 C   0  0  0  0  0  0  0  0  0  0  0  0
  150.8586  143.1546  157.2351 N   0  0  0  0  0  0  0  0  0  0  0  0
  150.9370  141.8378  157.4923 C   0  0  0  0  0  0  0  0  0  0  0  0
  151.9410  141.3109  157.9702 O   0  0  0  0  0  0  0  0  0  0  0  0
  149.7181  140.9607  157.1674 C   0  0  0  0  0  0  0  0  0  0  0  0
  149.6559  140.5143  155.7681 N   0  0  0  0  0  0  0  0  0  0  0  0
  149.4838  141.5270  154.7256 C   0  0  0  0  0  0  0  0  0  0  0  0
  148.0114  141.8095  154.3835 C   0  0  0  0  0  0  0  0  0  0  0  0
  150.3495  139.3787  155.4998 C   0  0  0  0  0  0  0  0  0  0  0  0
  151.4230  139.4906  154.6760 N   0  0  0  0  0  0  0  0  0  0  0  0
  152.1527  138.4151  154.3684 C   0  0  0  0  0  0  0  0  0  0  0  0
  151.9829  137.1520  154.7620 N   0  0  0  0  0  0  0  0  0  0  0  0
  150.8958  137.0292  155.5761 C   0  0  0  0  0  0  0  0  0  0  0  0
  150.0291  138.0799  155.9929 C   0  0  0  0  0  0  0  0  0  0  0  0
  149.0270  137.5634  156.8070 N   0  0  0  0  0  0  0  0  0  0  0  0
  149.2917  136.2876  156.8752 C   0  0  0  0  0  0  0  0  0  0  0  0
  150.3939  135.8793  156.1601 N   0  0  0  0  0  0  0  0  0  0  0  0
  150.9106  134.5231  156.0540 C   0  0  0  0  0  0  0  0  0  0  0  0
  149.8677  133.4914  155.5572 C   0  0  0  0  0  0  0  0  0  0  0  0
  148.9077  133.3224  156.5863 O   0  0  0  0  0  0  0  0  0  0  0  0
  149.1354  133.9520  154.2776 C   0  0  0  0  0  0  0  0  0  0  0  0
  148.2565  132.8386  153.6804 C   0  0  0  0  0  0  0  0  0  0  0  0
  149.0363  131.6728  153.4435 O   0  0  0  0  0  0  0  0  0  0  0  0
  149.5799  131.1229  154.6372 C   0  0  0  0  0  0  0  0  0  0  0  0
  150.5422  132.1307  155.2907 C   0  0  0  0  0  0  0  0  0  0  0  0
  153.1796  144.8196  159.1074 H   0  0  0  0  0  0  0  0  0  0  0  0
  152.7100  143.1278  159.2461 H   0  0  0  0  0  0  0  0  0  0  0  0
  151.5453  144.4010  159.6099 H   0  0  0  0  0  0  0  0  0  0  0  0
  151.5912  145.1251  157.1854 H   0  0  0  0  0  0  0  0  0  0  0  0
  152.7618  143.8751  156.8360 H   0  0  0  0  0  0  0  0  0  0  0  0
  149.9951  143.5071  156.8471 H   0  0  0  0  0  0  0  0  0  0  0  0
  149.7406  140.0905  157.8249 H   0  0  0  0  0  0  0  0  0  0  0  0
  148.8159  141.5115  157.4410 H   0  0  0  0  0  0  0  0  0  0  0  0
  149.9344  142.4564  155.0759 H   0  0  0  0  0  0  0  0  0  0  0  0
  150.0408  141.2460  153.8322 H   0  0  0  0  0  0  0  0  0  0  0  0
  147.9357  142.6196  153.6582 H   0  0  0  0  0  0  0  0  0  0  0  0
  147.4550  142.1088  155.2721 H   0  0  0  0  0  0  0  0  0  0  0  0
  147.5127  140.9417  153.9529 H   0  0  0  0  0  0  0  0  0  0  0  0
  152.9926  138.5919  153.7127 H   0  0  0  0  0  0  0  0  0  0  0  0
  148.6818  135.6027  157.4462 H   0  0  0  0  0  0  0  0  0  0  0  0
  151.7688  134.5406  155.3809 H   0  0  0  0  0  0  0  0  0  0  0  0
  151.2996  134.2292  157.0300 H   0  0  0  0  0  0  0  0  0  0  0  0
  149.1887  132.6140  157.1451 H   0  0  0  0  0  0  0  0  0  0  0  0
  148.5245  134.8342  154.4733 H   0  0  0  0  0  0  0  0  0  0  0  0
  149.8718  134.2494  153.5301 H   0  0  0  0  0  0  0  0  0  0  0  0
  147.4193  132.6022  154.3386 H   0  0  0  0  0  0  0  0  0  0  0  0
  147.8279  133.1713  152.7349 H   0  0  0  0  0  0  0  0  0  0  0  0
  148.7775  130.8431  155.3212 H   0  0  0  0  0  0  0  0  0  0  0  0
  150.1148  130.2062  154.3880 H   0  0  0  0  0  0  0  0  0  0  0  0
  151.3926  132.2753  154.6231 H   0  0  0  0  0  0  0  0  0  0  0  0
  150.9476  131.7160  156.2146 H   0  0  0  0  0  0  0  0  0  0  0  0
  1  2  1  0  0  0  0
  1 27  1  0  0  0  0
  1 28  1  0  0  0  0
  1 29  1  0  0  0  0
  2  3  1  0  0  0  0
  2 30  1  0  0  0  0
  2 31  1  0  0  0  0
  3  4  1  0  0  0  0
  3 32  1  0  0  0  0
  4  5  2  0  0  0  0
  4  6  1  0  0  0  0
  6  7  1  0  0  0  0
  6 33  1  0  0  0  0
  6 34  1  0  0  0  0
  7  8  1  0  0  0  0
  7 10  1  0  0  0  0
  8  9  1  0  0  0  0
  8 35  1  0  0  0  0
  8 36  1  0  0  0  0
  9 37  1  0  0  0  0
  9 38  1  0  0  0  0
  9 39  1  0  0  0  0
 10 15  1  0  0  0  0
 10 11  2  0  0  0  0
 11 12  1  0  0  0  0
 12 13  2  0  0  0  0
 12 40  1  0  0  0  0
 13 14  1  0  0  0  0
 14 18  1  0  0  0  0
 14 15  2  0  0  0  0
 15 16  1  0  0  0  0
 16 17  2  0  0  0  0
 17 18  1  0  0  0  0
 17 41  1  0  0  0  0
 18 19  1  0  0  0  0
 19 20  1  0  0  0  0
 19 42  1  0  0  0  0
 19 43  1  0  0  0  0
 20 26  1  0  0  0  0
 20 21  1  0  0  0  0
 20 22  1  0  0  0  0
 21 44  1  0  0  0  0
 22 23  1  0  0  0  0
 22 45  1  0  0  0  0
 22 46  1  0  0  0  0
 23 24  1  0  0  0  0
 23 47  1  0  0  0  0
 23 48  1  0  0  0  0
 24 25  1  0  0  0  0
 25 26  1  0  0  0  0
 25 49  1  0  0  0  0
 25 50  1  0  0  0  0
 26 51  1  0  0  0  0
 26 52  1  0  0  0  0
M  END
> <s_m_source_file>
AV-unprocessed.smi

> <i_m_source_file_index>
253

> <i_lp_mmshare_version>
43012

> <i_f3d_flags>
0

> <s_epik_input>
W0NIM11bQ0gyXVtOSF1DKD1PKVtDSDJdTihbQ0gyXVtDSDNdKWMobltjSF1uMSljKGMxMiluW2NIXW4yW0NIMl1DMyhbT0hdKVtDSDJdW0NIMl1PW0NIMl1bQ0gyXTM=

> <s_epik_cmdline>
J2VwaWtfcHl0aG9uJywgJy1waCcsICc3LjAnLCAnLXRuJywgJzgnLCAnLW1hJywgJzIwMCcsICctbWV0YWxfYmluZGluZycsICctaW1hZScsICc8aW5maWxlLm1hZT4nLCAnLW9tYWUnLCAnPG91dGZpbGUubWFlPic=

> <r_lp_tautomer_probability>
1

> <r_epik_Ionization_Penalty>
0.000710585

> <r_epik_Ionization_Penalty_Charging>
0

> <r_epik_Ionization_Penalty_Neutral>
0.000710585

> <r_epik_State_Penalty>
0.000343566

> <r_epik_Charging_Adjusted_Penalty>
0.000343566

> <i_epik_Tot_Q>
0

> <i_epik_Tot_abs_Q>
0

> <r_epik_Metal_State_Penalty>
-0

> <b_epik_Metal_Only>
0

> <s_lp_Force_Field>
OPLS_2005

> <r_lp_Energy>
18.5015

> <b_lp_Chiralities_Consistent>
1

> <s_lp_Variant>
AV-unprocessed.smi:253-1

> <Gold.Version>
5.8.1

> <Gold.Id.Protein>
6NUR|6NUR_protein|mol2

> <Gold.PLP.Fitness>
51.2578

> <Gold.PLP.PLP>
-45.0804

> <Gold.PLP.part.hbond>
-3.0000

> <Gold.PLP.part.metal>
0.0000

> <Gold.PLP.part.buried>
-6.2434

> <Gold.PLP.part.nonpolar>
-35.7059

> <Gold.PLP.part.repulsive>
0.2817

> <Gold.PLP.ligand.clash>
0.0000

> <Gold.PLP.ligand.torsion>
1.7175

> <Gold.PLP.Chemscore.Hbond>
2.8800

> <Gold.PLP.Chemscore.CHOScore>
0.0000

> <Gold.PLP.Chemscore.Metal>
0.0000

> <Gold.Chemscore.Hbonds>
donor molecule, donor type, donor heavy atom, donor atom, acceptor molecule, acceptor atom, score
      L1  H     3    32       P1  8028  1.00
      P1  H  7989  7998       L1    11  1.00
      P1  H 10752 10764       L1    13  0.93

> <Gold.PLP.Chemscore.Internal.Correction>
0.9724

> <Gold.Rescore>
     Score         DG    S(hbond)    S(metal)    S(lipo)     H(rot)  DE(clash)    DE(int)     intcor
     14.02     -16.82       2.82        0.00      82.38       3.01       0.12       2.68       ----

> <Gold.Chemscore.Fitness>
14.0232

> <Gold.Chemscore.DG>
-16.8229

> <Gold.Chemscore.ZeroCoef>
-5.4800

> <Gold.Chemscore.Hbond>
2.8191

> <Gold.Chemscore.Metal>
0.0000

> <Gold.Chemscore.Lipo>
82.3845

> <Gold.Chemscore.Internal_Hbond>
0.0000

> <Gold.Chemscore.DEClash>
0.1213

> <Gold.Chemscore.DEInternal>
2.6784

> <Gold.Chemscore.Rot>
3.0125

> <Gold.Chemscore.Internal.Correction>
   9.000000E+99

> <Gold.Chemscore.Hbonds>
donor molecule, donor type, donor heavy atom, donor atom, acceptor molecule, acceptor atom, score
      L1  H     3    32       P1  8028  0.92
      P1  H  7989  7998       L1    11  0.85
      P1  H 10752 10764       L1    13  0.87

> <Gold.Chemscore.Hbond.Weighted>
-9.4159

> <Gold.Chemscore.Metal.Weighted>
-0.0000

> <Gold.Chemscore.Lipo.Weighted>
-9.6390

> <Gold.Chemscore.Internal_Hbond.Weighted>
0.0000

> <Gold.Chemscore.DEClash.Weighted>
0.1213

> <Gold.Chemscore.DEInternal.Weighted>
2.6784

> <Gold.Chemscore.Rot.Weighted>
7.7120

> <Gold.Chemscore.Internal.Correction.Weighted>
   9.000000E+99

> <Gold.Protein.RotatedTorsions>
[ 6907 6896 6895 6894 ] final   12.63 input  -60.11 | X-H torsion
[ 7974 7965 7964 7962 ] final -135.61 input  175.53 | X-H torsion
[ 8008 7997 7996 7995 ] final   27.76 input   59.86 | X-H torsion
[ 10167 10162 10161 10158 ] final -169.98 input  -65.29 | X-H torsion
[ 10718 10713 10712 10709 ] final -145.92 input   66.30 | X-H torsion
[ 10763 10752 10751 10750 ] final  -74.15 input  -60.55 | X-H torsion
[ 11005 11000 10999 10996 ] final  172.59 input  -57.11 | X-H torsion

> <Gold.Protein.ActiveResidues>
 VAL166  LYS551  ARG553  GLY616  TRP617  ASP618  TYR619  PRO620  LYS621  CYS622 
 ASP623  PHE694  ASN695  SER759  ASP760  ASP761  ALA762  ILE779  LEU786  VAL792 
 PHE793  MET794  SER795  GLU796  ALA797  LYS798  CYS799  TRP800  GLU811  SER814 

> <Gold.Protein.RotatedAtoms>
  151.7734  135.0780  160.0362 H   0  0  0  0  0  0  0  0  0  0  0  0  # atno 6907 bound_to 6896
  152.3273  133.5915  159.5794 H   0  0  0  0  0  0  0  0  0  0  0  0  # atno 6908 bound_to 6896
  150.7403  133.9837  159.3626 H   0  0  0  0  0  0  0  0  0  0  0  0  # atno 6909 bound_to 6896
  144.8999  140.6757  143.5091 H   0  0  0  0  0  0  0  0  0  0  0  0  # atno 7974 bound_to 7965
  155.0479  140.3176  155.4702 H   0  0  0  0  0  0  0  0  0  0  0  0  # atno 8008 bound_to 7997
  156.2841  140.2151  156.5548 H   0  0  0  0  0  0  0  0  0  0  0  0  # atno 8009 bound_to 7997
  154.7235  140.0487  157.0649 H   0  0  0  0  0  0  0  0  0  0  0  0  # atno 8010 bound_to 7997
  139.5889  144.1256  152.1610 H   0  0  0  0  0  0  0  0  0  0  0  0  # atno 10167 bound_to 10162
  156.3885  130.7873  151.2073 H   0  0  0  0  0  0  0  0  0  0  0  0  # atno 10718 bound_to 10713
  154.4692  135.5874  153.6310 H   0  0  0  0  0  0  0  0  0  0  0  0  # atno 10763 bound_to 10752
  152.9832  135.6063  154.3388 H   0  0  0  0  0  0  0  0  0  0  0  0  # atno 10764 bound_to 10752
  154.3268  135.2843  155.2471 H   0  0  0  0  0  0  0  0  0  0  0  0  # atno 10765 bound_to 10752
  140.3313  134.7354  157.4136 H   0  0  0  0  0  0  0  0  0  0  0  0  # atno 11005 bound_to 11000
  145.3634  139.1676  143.4371 LP  0  0  0  0  0  0  0  0  0  0  0  0  # atno 17320 bound_to 7965
  146.3102  140.3699  142.8673 LP  0  0  0  0  0  0  0  0  0  0  0  0  # atno 17321 bound_to 7965
  140.0826  144.5688  150.7111 LP  0  0  0  0  0  0  0  0  0  0  0  0  # atno 17342 bound_to 10162
  140.7156  143.2542  151.4444 LP  0  0  0  0  0  0  0  0  0  0  0  0  # atno 17343 bound_to 10162
  157.7497  131.0323  150.4219 LP  0  0  0  0  0  0  0  0  0  0  0  0  # atno 17370 bound_to 10713
  156.4476  130.4005  149.6657 LP  0  0  0  0  0  0  0  0  0  0  0  0  # atno 17371 bound_to 10713
  140.0858  134.5669  155.8494 LP  0  0  0  0  0  0  0  0  0  0  0  0  # atno 17394 bound_to 11000
  141.2062  133.6653  156.6230 LP  0  0  0  0  0  0  0  0  0  0  0  0  # atno 17395 bound_to 11000

$$$$
