AV-unprocessed.smi:1308|AV-procd|sdf|5442|dock1
  -GOLD-   22720 5 13D 1   1.00000     0.00000
 Structure written by MMmdl.
 44 44  0  0  0  0  0  0  0  0  2 V2000
  147.9976  134.2908  158.6527 C   0  0  0  0  0  0  0  0  0  0  0  0
  148.8021  135.1413  157.6929 C   0  0  0  0  0  0  0  0  0  0  0  0
  148.1895  135.8883  156.8555 N   0  0  0  0  0  0  0  0  0  0  0  0
  148.9315  136.6758  155.9592 C   0  0  0  0  0  0  0  0  0  0  0  0
  148.1225  137.5236  154.9931 C   0  0  0  0  0  0  0  0  0  0  0  0
  150.2949  136.6608  155.9687 C   0  0  0  0  0  0  0  0  0  0  0  0
  151.1479  137.4871  155.0043 C   0  0  0  0  0  0  0  0  0  0  0  0
  151.1555  138.9986  155.2459 C   0  0  0  0  0  0  0  0  0  0  0  0
  152.0221  139.6985  154.7225 O   0  0  0  0  0  0  0  0  0  0  0  0
  150.1787  139.4856  156.0283 N   0  0  0  0  0  0  0  0  0  0  0  0
  149.9940  140.8814  156.4161 C   0  0  2  0  0  0  0  0  0  0  0  0
  149.5809  141.6896  155.1785 C   0  0  0  0  0  0  0  0  0  0  0  0
  151.2782  141.4413  157.0583 C   0  0  0  0  0  0  0  0  0  0  0  0
  151.1657  142.9184  157.4827 C   0  0  0  0  0  0  0  0  0  0  0  0
  152.4268  143.4741  158.1744 C   0  0  0  0  0  0  0  0  0  0  0  0
  152.7922  142.6900  159.4462 C   0  0  0  0  0  0  0  0  0  0  0  0
  152.2541  144.9662  158.4959 C   0  0  0  0  0  0  0  0  0  0  0  0
  150.9627  135.7847  156.9481 C   0  0  0  0  0  0  0  0  0  0  0  0
  152.1908  135.7190  156.9854 O   0  0  0  0  0  0  0  0  0  0  0  0
  150.1731  135.0539  157.7852 N   0  5  0  0  0  0  0  0  0  0  0  0
  146.9353  134.3182  158.4065 H   0  0  0  0  0  0  0  0  0  0  0  0
  148.1227  134.6535  159.6734 H   0  0  0  0  0  0  0  0  0  0  0  0
  148.3298  133.2529  158.6105 H   0  0  0  0  0  0  0  0  0  0  0  0
  148.3008  138.5834  155.1752 H   0  0  0  0  0  0  0  0  0  0  0  0
  147.0534  137.3392  155.1055 H   0  0  0  0  0  0  0  0  0  0  0  0
  148.3935  137.2971  153.9619 H   0  0  0  0  0  0  0  0  0  0  0  0
  152.1761  137.1285  155.0585 H   0  0  0  0  0  0  0  0  0  0  0  0
  150.8489  137.3070  153.9714 H   0  0  0  0  0  0  0  0  0  0  0  0
  149.5114  138.8240  156.3997 H   0  0  0  0  0  0  0  0  0  0  0  0
  149.1844  140.9654  157.1430 H   0  0  0  0  0  0  0  0  0  0  0  0
  149.4089  142.7359  155.4316 H   0  0  0  0  0  0  0  0  0  0  0  0
  148.6587  141.2995  154.7465 H   0  0  0  0  0  0  0  0  0  0  0  0
  150.3504  141.6552  154.4063 H   0  0  0  0  0  0  0  0  0  0  0  0
  151.5440  140.8270  157.9190 H   0  0  0  0  0  0  0  0  0  0  0  0
  152.0990  141.3408  156.3474 H   0  0  0  0  0  0  0  0  0  0  0  0
  150.9616  143.5145  156.5922 H   0  0  0  0  0  0  0  0  0  0  0  0
  150.3051  143.0538  158.1387 H   0  0  0  0  0  0  0  0  0  0  0  0
  153.2610  143.3891  157.4768 H   0  0  0  0  0  0  0  0  0  0  0  0
  151.9731  142.6985  160.1660 H   0  0  0  0  0  0  0  0  0  0  0  0
  153.6662  143.1220  159.9341 H   0  0  0  0  0  0  0  0  0  0  0  0
  153.0314  141.6504  159.2244 H   0  0  0  0  0  0  0  0  0  0  0  0
  151.4289  145.1282  159.1902 H   0  0  0  0  0  0  0  0  0  0  0  0
  152.0477  145.5431  157.5939 H   0  0  0  0  0  0  0  0  0  0  0  0
  153.1562  145.3790  158.9482 H   0  0  0  0  0  0  0  0  0  0  0  0
  1  2  1  0  0  0  0
  1 21  1  0  0  0  0
  1 22  1  0  0  0  0
  1 23  1  0  0  0  0
  2 20  1  0  0  0  0
  2  3  2  0  0  0  0
  3  4  1  0  0  0  0
  4  5  1  0  0  0  0
  4  6  2  0  0  0  0
  5 24  1  0  0  0  0
  5 25  1  0  0  0  0
  5 26  1  0  0  0  0
  6  7  1  0  0  0  0
  6 18  1  0  0  0  0
  7  8  1  0  0  0  0
  7 27  1  0  0  0  0
  7 28  1  0  0  0  0
  8  9  2  0  0  0  0
  8 10  1  0  0  0  0
 10 11  1  0  0  0  0
 10 29  1  0  0  0  0
 11 12  1  0  0  0  0
 11 13  1  0  0  0  0
 11 30  1  0  0  0  0
 12 31  1  0  0  0  0
 12 32  1  0  0  0  0
 12 33  1  0  0  0  0
 13 14  1  0  0  0  0
 13 34  1  0  0  0  0
 13 35  1  0  0  0  0
 14 15  1  0  0  0  0
 14 36  1  0  0  0  0
 14 37  1  0  0  0  0
 15 16  1  0  0  0  0
 15 17  1  0  0  0  0
 15 38  1  0  0  0  0
 16 39  1  0  0  0  0
 16 40  1  0  0  0  0
 16 41  1  0  0  0  0
 17 42  1  0  0  0  0
 17 43  1  0  0  0  0
 17 44  1  0  0  0  0
 18 19  2  0  0  0  0
 18 20  1  0  0  0  0
M  CHG  1  20  -1
M  END
> <s_m_source_file>
AV-unprocessed.smi

> <i_m_source_file_index>
1308

> <i_lp_mmshare_version>
43012

> <i_f3d_flags>
0

> <s_epik_input>
W0NIM11jMW5jKFtDSDNdKWMoYyg9TylbbkhdMSlbQ0gyXUMoPU8pW05IXVtDQEhdKFtDSDNdKVtDSDJdW0NIMl1bQ0hdKFtDSDNdKVtDSDNd

> <s_epik_cmdline>
J2VwaWtfcHl0aG9uJywgJy1waCcsICc3LjAnLCAnLXRuJywgJzgnLCAnLW1hJywgJzIwMCcsICctbWV0YWxfYmluZGluZycsICctaW1hZScsICc8aW5maWxlLm1hZT4nLCAnLW9tYWUnLCAnPG91dGZpbGUubWFlPic=

> <r_lp_tautomer_probability>
0.839158

> <r_epik_Ionization_Penalty>
6.61719

> <r_epik_Ionization_Penalty_Charging>
7.20681e-08

> <r_epik_Ionization_Penalty_Neutral>
6.61719

> <r_epik_State_Penalty>
4.43758

> <r_epik_Charging_Adjusted_Penalty>
4.43758

> <i_epik_Tot_Q>
-1

> <i_epik_Tot_abs_Q>
1

> <r_epik_Metal_State_Penalty>
0.801586

> <b_epik_Metal_Only>
1

> <s_lp_Force_Field>
OPLS_2005

> <r_lp_Energy>
8.43775

> <b_lp_Chiralities_Consistent>
1

> <s_lp_Variant>
AV-unprocessed.smi:1308-5

> <Gold.Version>
5.8.1

> <Gold.Id.Protein>
6NUR|6NUR_protein|mol2

> <Gold.PLP.Fitness>
42.9825

> <Gold.PLP.PLP>
-33.6780

> <Gold.PLP.part.hbond>
-3.0000

> <Gold.PLP.part.metal>
0.0000

> <Gold.PLP.part.buried>
-4.2330

> <Gold.PLP.part.nonpolar>
-27.5487

> <Gold.PLP.part.repulsive>
0.1040

> <Gold.PLP.ligand.clash>
0.0000

> <Gold.PLP.ligand.torsion>
0.3726

> <Gold.PLP.Chemscore.Hbond>
3.3040

> <Gold.PLP.Chemscore.CHOScore>
0.0000

> <Gold.PLP.Chemscore.Metal>
0.0000

> <Gold.Chemscore.Hbonds>
donor molecule, donor type, donor heavy atom, donor atom, acceptor molecule, acceptor atom, score
      P1  H  6896  6907       L1    20  1.50
      P1  H  7989  7998       L1     9  0.88
      P1  H 10752 10764       L1    19  0.80

> <Gold.PLP.Chemscore.Internal.Correction>
0.1378

> <Gold.Rescore>
     Score         DG    S(hbond)    S(metal)    S(lipo)     H(rot)  DE(clash)    DE(int)     intcor
     16.38     -18.04       2.50        0.00      77.78       1.91       0.03       1.63       ----

> <Gold.Chemscore.Fitness>
16.3816

> <Gold.Chemscore.DG>
-18.0420

> <Gold.Chemscore.ZeroCoef>
-5.4800

> <Gold.Chemscore.Hbond>
2.5018

> <Gold.Chemscore.Metal>
0.0000

> <Gold.Chemscore.Lipo>
77.7815

> <Gold.Chemscore.Internal_Hbond>
0.0000

> <Gold.Chemscore.DEClash>
0.0291

> <Gold.Chemscore.DEInternal>
1.6313

> <Gold.Chemscore.Rot>
1.9118

> <Gold.Chemscore.Internal.Correction>
   9.000000E+99

> <Gold.Chemscore.Hbonds>
donor molecule, donor type, donor heavy atom, donor atom, acceptor molecule, acceptor atom, score
      P1  H  6896  6907       L1    20  0.58
      P1  H  7989  7998       L1     9  0.86
      P1  H 10752 10764       L1    19  0.77

> <Gold.Chemscore.Hbond.Weighted>
-8.3559

> <Gold.Chemscore.Metal.Weighted>
-0.0000

> <Gold.Chemscore.Lipo.Weighted>
-9.1004

> <Gold.Chemscore.Internal_Hbond.Weighted>
0.0000

> <Gold.Chemscore.DEClash.Weighted>
0.0291

> <Gold.Chemscore.DEInternal.Weighted>
1.6313

> <Gold.Chemscore.Rot.Weighted>
4.8943

> <Gold.Chemscore.Internal.Correction.Weighted>
   9.000000E+99

> <Gold.Protein.RotatedTorsions>
[ 6907 6896 6895 6894 ] final  -88.05 input  -60.11 | X-H torsion
[ 7974 7965 7964 7962 ] final -103.31 input  175.53 | X-H torsion
[ 8008 7997 7996 7995 ] final   86.05 input   59.86 | X-H torsion
[ 10167 10162 10161 10158 ] final  104.25 input  -65.29 | X-H torsion
[ 10718 10713 10712 10709 ] final -177.20 input   66.30 | X-H torsion
[ 10763 10752 10751 10750 ] final  -15.11 input  -60.55 | X-H torsion
[ 11005 11000 10999 10996 ] final    2.97 input  -57.11 | X-H torsion

> <Gold.Protein.ActiveResidues>
 VAL166  LYS551  ARG553  GLY616  TRP617  ASP618  TYR619  PRO620  LYS621  CYS622 
 ASP623  PHE694  ASN695  SER759  ASP760  ASP761  ALA762  ILE779  LEU786  VAL792 
 PHE793  MET794  SER795  GLU796  ALA797  LYS798  CYS799  TRP800  GLU811  SER814 

> <Gold.Protein.RotatedAtoms>
  150.6867  134.2802  159.4623 H   0  0  0  0  0  0  0  0  0  0  0  0  # atno 6907 bound_to 6896
  152.0716  134.9527  160.0583 H   0  0  0  0  0  0  0  0  0  0  0  0  # atno 6908 bound_to 6896
  152.0914  133.4168  159.4582 H   0  0  0  0  0  0  0  0  0  0  0  0  # atno 6909 bound_to 6896
  145.2576  140.9258  143.3059 H   0  0  0  0  0  0  0  0  0  0  0  0  # atno 7974 bound_to 7965
  155.9579  140.3396  155.6464 H   0  0  0  0  0  0  0  0  0  0  0  0  # atno 8008 bound_to 7997
  155.6836  140.0740  157.2493 H   0  0  0  0  0  0  0  0  0  0  0  0  # atno 8009 bound_to 7997
  154.4136  140.1670  156.1997 H   0  0  0  0  0  0  0  0  0  0  0  0  # atno 8010 bound_to 7997
  139.7193  144.7061  151.0899 H   0  0  0  0  0  0  0  0  0  0  0  0  # atno 10167 bound_to 10162
  156.8260  130.9636  151.3109 H   0  0  0  0  0  0  0  0  0  0  0  0  # atno 10718 bound_to 10713
  153.5384  135.7013  153.5649 H   0  0  0  0  0  0  0  0  0  0  0  0  # atno 10763 bound_to 10752
  153.3625  135.3966  155.1729 H   0  0  0  0  0  0  0  0  0  0  0  0  # atno 10764 bound_to 10752
  154.8676  135.3792  154.4886 H   0  0  0  0  0  0  0  0  0  0  0  0  # atno 10765 bound_to 10752
  140.5983  133.9860  155.8120 H   0  0  0  0  0  0  0  0  0  0  0  0  # atno 11005 bound_to 11000
  144.9447  139.4149  143.6431 LP  0  0  0  0  0  0  0  0  0  0  0  0  # atno 17320 bound_to 7965
  146.3285  139.8425  142.8888 LP  0  0  0  0  0  0  0  0  0  0  0  0  # atno 17321 bound_to 7965
  140.7750  143.5188  150.9562 LP  0  0  0  0  0  0  0  0  0  0  0  0  # atno 17342 bound_to 10162
  139.8874  143.6995  152.3149 LP  0  0  0  0  0  0  0  0  0  0  0  0  # atno 17343 bound_to 10162
  157.6432  130.8822  149.9487 LP  0  0  0  0  0  0  0  0  0  0  0  0  # atno 17370 bound_to 10713
  156.0961  130.3659  150.0303 LP  0  0  0  0  0  0  0  0  0  0  0  0  # atno 17371 bound_to 10713
  141.0889  133.9947  157.3269 LP  0  0  0  0  0  0  0  0  0  0  0  0  # atno 17394 bound_to 11000
  139.9243  135.0201  156.8180 LP  0  0  0  0  0  0  0  0  0  0  0  0  # atno 17395 bound_to 11000

$$$$
