AV-unprocessed.smi:1889|AV-procd|sdf|7662|dock1
  -GOLD-   22720 9393D 1   1.00000     0.00000
 Structure written by MMmdl.
 35 36  0  0  0  0  0  0  0  0  2 V2000
  151.5672  145.2970  159.9685 C   0  0  0  0  0  0  0  0  0  0  0  0
  152.3548  144.1974  159.2480 C   0  0  0  0  0  0  0  0  0  0  0  0
  151.4775  142.9960  158.8694 C   0  0  0  0  0  0  0  0  0  0  0  0
  152.2407  141.7139  158.8490 C   0  0  0  0  0  0  0  0  0  0  0  0
  152.3403  140.9474  157.7599 N   0  0  0  0  0  0  0  0  0  0  0  0
  153.0744  139.7946  157.9974 N   0  0  0  0  0  0  0  0  0  0  0  0
  153.4986  139.6928  159.2650 C   0  0  0  0  0  0  0  0  0  0  0  0
  154.2267  138.6503  159.6977 N   0  5  0  0  0  0  0  0  0  0  0  0
  153.6207  137.6158  160.3237 C   0  0  0  0  0  0  0  0  0  0  0  0
  153.1172  136.6275  159.7842 O   0  0  0  0  0  0  0  0  0  0  0  0
  153.5946  137.7326  161.6579 N   0  0  0  0  0  0  0  0  0  0  0  0
  153.0081  136.7626  162.5746 C   0  0  0  0  0  0  0  0  0  0  0  0
  154.0320  135.6859  162.9709 C   0  0  1  0  0  0  0  0  0  0  0  0
  153.4954  134.6546  163.9569 C   0  0  0  0  0  0  0  0  0  0  0  0
  154.1119  133.3290  163.4971 C   0  0  0  0  0  0  0  0  0  0  0  0
  155.0343  133.6732  162.4731 O   0  0  0  0  0  0  0  0  0  0  0  0
  154.5240  134.8187  161.8128 C   0  0  0  0  0  0  0  0  0  0  0  0
  153.0262  141.0588  160.2756 S   0  0  0  0  0  0  0  0  0  0  0  0
  152.2169  146.1330  160.2283 H   0  0  0  0  0  0  0  0  0  0  0  0
  151.1217  144.9223  160.8903 H   0  0  0  0  0  0  0  0  0  0  0  0
  150.7643  145.6824  159.3396 H   0  0  0  0  0  0  0  0  0  0  0  0
  152.8127  144.6134  158.3497 H   0  0  0  0  0  0  0  0  0  0  0  0
  153.1741  143.8647  159.8864 H   0  0  0  0  0  0  0  0  0  0  0  0
  150.6486  142.8997  159.5717 H   0  0  0  0  0  0  0  0  0  0  0  0
  151.0354  143.1508  157.8846 H   0  0  0  0  0  0  0  0  0  0  0  0
  154.0163  138.5549  162.0638 H   0  0  0  0  0  0  0  0  0  0  0  0
  152.6541  137.2847  163.4645 H   0  0  0  0  0  0  0  0  0  0  0  0
  152.1379  136.2990  162.1068 H   0  0  0  0  0  0  0  0  0  0  0  0
  154.9004  136.1658  163.4250 H   0  0  0  0  0  0  0  0  0  0  0  0
  153.7840  134.9040  164.9784 H   0  0  0  0  0  0  0  0  0  0  0  0
  152.4067  134.5910  163.9266 H   0  0  0  0  0  0  0  0  0  0  0  0
  154.6108  132.7962  164.3068 H   0  0  0  0  0  0  0  0  0  0  0  0
  153.3438  132.6745  163.0824 H   0  0  0  0  0  0  0  0  0  0  0  0
  153.7029  134.5287  161.1547 H   0  0  0  0  0  0  0  0  0  0  0  0
  155.2909  135.3099  161.2134 H   0  0  0  0  0  0  0  0  0  0  0  0
  1  2  1  0  0  0  0
  1 19  1  0  0  0  0
  1 20  1  0  0  0  0
  1 21  1  0  0  0  0
  2  3  1  0  0  0  0
  2 22  1  0  0  0  0
  2 23  1  0  0  0  0
  3  4  1  0  0  0  0
  3 24  1  0  0  0  0
  3 25  1  0  0  0  0
  4 18  1  0  0  0  0
  4  5  2  0  0  0  0
  5  6  1  0  0  0  0
  6  7  2  0  0  0  0
  7  8  1  0  0  0  0
  7 18  1  0  0  0  0
  8  9  1  0  0  0  0
  9 10  2  0  0  0  0
  9 11  1  0  0  0  0
 11 12  1  0  0  0  0
 11 26  1  0  0  0  0
 12 13  1  0  0  0  0
 12 27  1  0  0  0  0
 12 28  1  0  0  0  0
 13 17  1  0  0  0  0
 13 14  1  0  0  0  0
 13 29  1  0  0  0  0
 14 15  1  0  0  0  0
 14 30  1  0  0  0  0
 14 31  1  0  0  0  0
 15 16  1  0  0  0  0
 15 32  1  0  0  0  0
 15 33  1  0  0  0  0
 16 17  1  0  0  0  0
 17 34  1  0  0  0  0
 17 35  1  0  0  0  0
M  CHG  1   8  -1
M  END
> <s_m_source_file>
AV-unprocessed.smi

> <i_m_source_file_index>
1889

> <i_lp_mmshare_version>
43012

> <i_f3d_flags>
0

> <s_epik_input>
W0NIM11bQ0gyXVtDSDJdYzFubmMoczEpW05IXUMoPU8pW05IXVtDSDJdW0NAQEhdMltDSDJdW0NIMl1PW0NIMl0y

> <s_epik_cmdline>
J2VwaWtfcHl0aG9uJywgJy1waCcsICc3LjAnLCAnLXRuJywgJzgnLCAnLW1hJywgJzIwMCcsICctbWV0YWxfYmluZGluZycsICctaW1hZScsICc8aW5maWxlLm1hZT4nLCAnLW9tYWUnLCAnPG91dGZpbGUubWFlPic=

> <r_lp_tautomer_probability>
1

> <r_epik_Ionization_Penalty>
4.29669

> <r_epik_Ionization_Penalty_Charging>
4.28522

> <r_epik_Ionization_Penalty_Neutral>
0.0114689

> <r_epik_State_Penalty>
4.28479

> <r_epik_Charging_Adjusted_Penalty>
8.57002

> <i_epik_Tot_Q>
-1

> <i_epik_Tot_abs_Q>
1

> <r_epik_Metal_State_Penalty>
0.72177

> <b_epik_Metal_Only>
1

> <s_lp_Force_Field>
OPLS_2005

> <r_lp_Energy>
12.2609

> <b_lp_Chiralities_Consistent>
1

> <s_lp_Variant>
AV-unprocessed.smi:1889-4

> <Gold.Version>
5.8.1

> <Gold.Id.Protein>
6NUR|6NUR_protein|mol2

> <Gold.PLP.Fitness>
37.2108

> <Gold.PLP.PLP>
-34.8492

> <Gold.PLP.part.hbond>
-1.8659

> <Gold.PLP.part.metal>
0.0000

> <Gold.PLP.part.buried>
-4.8624

> <Gold.PLP.part.nonpolar>
-28.8432

> <Gold.PLP.part.repulsive>
0.0165

> <Gold.PLP.ligand.clash>
0.0000

> <Gold.PLP.ligand.torsion>
1.8676

> <Gold.PLP.Chemscore.Hbond>
1.9263

> <Gold.PLP.Chemscore.CHOScore>
0.0000

> <Gold.PLP.Chemscore.Metal>
0.0000

> <Gold.Chemscore.Hbonds>
donor molecule, donor type, donor heavy atom, donor atom, acceptor molecule, acceptor atom, score
      P1  H  6896  6909       L1    10  1.00
      P1  H  7997  8010       L1     6  1.00

> <Gold.PLP.Chemscore.Internal.Correction>
0.3181

> <Gold.Rescore>
     Score         DG    S(hbond)    S(metal)    S(lipo)     H(rot)  DE(clash)    DE(int)     intcor
     14.48     -16.40       1.25        0.00      92.48       1.59       0.04       1.88       ----

> <Gold.Chemscore.Fitness>
14.4792

> <Gold.Chemscore.DG>
-16.3969

> <Gold.Chemscore.ZeroCoef>
-5.4800

> <Gold.Chemscore.Hbond>
1.2495

> <Gold.Chemscore.Metal>
0.0000

> <Gold.Chemscore.Lipo>
92.4752

> <Gold.Chemscore.Internal_Hbond>
0.0000

> <Gold.Chemscore.DEClash>
0.0383

> <Gold.Chemscore.DEInternal>
1.8794

> <Gold.Chemscore.Rot>
1.5922

> <Gold.Chemscore.Internal.Correction>
   9.000000E+99

> <Gold.Chemscore.Hbonds>
donor molecule, donor type, donor heavy atom, donor atom, acceptor molecule, acceptor atom, score
      P1  H  6896  6909       L1    10  1.00
      P1  H  7997  8010       L1     6  0.20

> <Gold.Chemscore.Hbond.Weighted>
-4.1734

> <Gold.Chemscore.Metal.Weighted>
-0.0000

> <Gold.Chemscore.Lipo.Weighted>
-10.8196

> <Gold.Chemscore.Internal_Hbond.Weighted>
0.0000

> <Gold.Chemscore.DEClash.Weighted>
0.0383

> <Gold.Chemscore.DEInternal.Weighted>
1.8794

> <Gold.Chemscore.Rot.Weighted>
4.0761

> <Gold.Chemscore.Internal.Correction.Weighted>
   9.000000E+99

> <Gold.Protein.RotatedTorsions>
[ 6907 6896 6895 6894 ] final  152.05 input  -60.11 | X-H torsion
[ 7974 7965 7964 7962 ] final  138.89 input  175.53 | X-H torsion
[ 8008 7997 7996 7995 ] final   46.33 input   59.86 | X-H torsion
[ 10167 10162 10161 10158 ] final   -7.26 input  -65.29 | X-H torsion
[ 10718 10713 10712 10709 ] final  -92.42 input   66.30 | X-H torsion
[ 10763 10752 10751 10750 ] final -148.11 input  -60.55 | X-H torsion
[ 11005 11000 10999 10996 ] final  155.90 input  -57.11 | X-H torsion

> <Gold.Protein.ActiveResidues>
 VAL166  LYS551  ARG553  GLY616  TRP617  ASP618  TYR619  PRO620  LYS621  CYS622 
 ASP623  PHE694  ASN695  SER759  ASP760  ASP761  ALA762  ILE779  LEU786  VAL792 
 PHE793  MET794  SER795  GLU796  ALA797  LYS798  CYS799  TRP800  GLU811  SER814 

> <Gold.Protein.RotatedAtoms>
  152.0922  133.4206  159.4548 H   0  0  0  0  0  0  0  0  0  0  0  0  # atno 6907 bound_to 6896
  150.6862  134.2859  159.4655 H   0  0  0  0  0  0  0  0  0  0  0  0  # atno 6908 bound_to 6896
  152.0711  134.9532  160.0625 H   0  0  0  0  0  0  0  0  0  0  0  0  # atno 6909 bound_to 6896
  144.9330  139.5024  143.5609 H   0  0  0  0  0  0  0  0  0  0  0  0  # atno 7974 bound_to 7965
  155.3506  140.3413  155.4239 H   0  0  0  0  0  0  0  0  0  0  0  0  # atno 8008 bound_to 7997
  156.1766  140.1649  156.8387 H   0  0  0  0  0  0  0  0  0  0  0  0  # atno 8009 bound_to 7997
  154.5288  140.0750  156.8290 H   0  0  0  0  0  0  0  0  0  0  0  0  # atno 8010 bound_to 7997
  140.7023  143.6100  150.8713 H   0  0  0  0  0  0  0  0  0  0  0  0  # atno 10167 bound_to 10162
  156.0002  130.4986  150.5623 H   0  0  0  0  0  0  0  0  0  0  0  0  # atno 10718 bound_to 10713
  154.8250  135.3343  154.6922 H   0  0  0  0  0  0  0  0  0  0  0  0  # atno 10763 bound_to 10752
  153.7550  135.6936  153.4942 H   0  0  0  0  0  0  0  0  0  0  0  0  # atno 10764 bound_to 10752
  153.2150  135.4469  155.0374 H   0  0  0  0  0  0  0  0  0  0  0  0  # atno 10765 bound_to 10752
  140.1625  134.8600  157.2591 H   0  0  0  0  0  0  0  0  0  0  0  0  # atno 11005 bound_to 11000
  146.3255  139.8294  142.8911 LP  0  0  0  0  0  0  0  0  0  0  0  0  # atno 17320 bound_to 7965
  145.3112  141.0220  143.3553 LP  0  0  0  0  0  0  0  0  0  0  0  0  # atno 17321 bound_to 7965
  139.9823  143.5937  152.2938 LP  0  0  0  0  0  0  0  0  0  0  0  0  # atno 17342 bound_to 10162
  139.6563  144.7662  151.2050 LP  0  0  0  0  0  0  0  0  0  0  0  0  # atno 17343 bound_to 10162
  157.3531  131.0737  151.1697 LP  0  0  0  0  0  0  0  0  0  0  0  0  # atno 17370 bound_to 10713
  157.2507  130.6613  149.5930 LP  0  0  0  0  0  0  0  0  0  0  0  0  # atno 17371 bound_to 10713
  140.2473  134.3724  155.7456 LP  0  0  0  0  0  0  0  0  0  0  0  0  # atno 17394 bound_to 11000
  141.2210  133.7297  156.8882 LP  0  0  0  0  0  0  0  0  0  0  0  0  # atno 17395 bound_to 11000

$$$$
