AV-unprocessed.smi:1512|AV-procd|sdf|6102|dock4
  -GOLD-   22720 6233D 1   1.00000     0.00000
 Structure written by MMmdl.
 44 46  0  0  0  0  0  0  0  0  3 V2000
  150.6033  141.7231  157.1095 C   0  0  0  0  0  0  0  0  0  0  0  0
  149.7883  142.5568  158.1137 C   0  0  2  0  0  0  0  0  0  0  0  0
  148.4571  142.8206  157.5712 N   0  0  0  0  0  0  0  0  0  0  0  0
  147.2951  142.4847  158.1518 C   0  0  0  0  0  0  0  0  0  0  0  0
  147.2256  141.8855  159.2259 O   0  0  0  0  0  0  0  0  0  0  0  0
  146.0268  142.8829  157.3823 C   0  0  0  0  0  0  0  0  0  0  0  0
  145.0055  143.5322  158.2226 N   0  0  0  0  0  0  0  0  0  0  0  0
  144.8331  144.9186  158.0535 C   0  0  0  0  0  0  0  0  0  0  0  0
  143.9274  145.6112  158.7583 C   0  0  0  0  0  0  0  0  0  0  0  0
  143.1173  144.8987  159.7156 C   0  0  0  0  0  0  0  0  0  0  0  0
  143.2630  143.5654  159.8943 C   0  0  0  0  0  0  0  0  0  0  0  0
  142.4210  142.9151  160.8723 N   0  3  0  0  0  0  0  0  0  0  0  0
  142.5437  141.7071  161.0511 O   0  0  0  0  0  0  0  0  0  0  0  0
  141.6188  143.5985  161.5020 O   0  5  0  0  0  0  0  0  0  0  0  0
  144.2558  142.8038  159.1076 C   0  0  0  0  0  0  0  0  0  0  0  0
  144.4073  141.5859  159.2202 O   0  0  0  0  0  0  0  0  0  0  0  0
  150.4730  143.9012  158.4560 C   0  0  1  0  0  0  0  0  0  0  0  0
  149.9999  144.5515  159.7768 C   0  0  0  0  0  0  0  0  0  0  0  0
  151.3221  144.8916  160.4896 C   0  0  1  0  0  0  0  0  0  0  0  0
  151.9520  143.5940  161.0274 C   0  0  0  0  0  0  0  0  0  0  0  0
  152.4527  142.9055  159.7448 C   0  0  0  0  0  0  0  0  0  0  0  0
  152.0117  143.8833  158.6359 C   0  0  2  0  0  0  0  0  0  0  0  0
  152.2419  145.2269  159.3213 C   0  0  0  0  0  0  0  0  0  0  0  0
  151.5849  141.4693  157.5094 H   0  0  0  0  0  0  0  0  0  0  0  0
  150.7534  142.2637  156.1746 H   0  0  0  0  0  0  0  0  0  0  0  0
  150.1007  140.7844  156.8740 H   0  0  0  0  0  0  0  0  0  0  0  0
  149.6686  141.9783  159.0303 H   0  0  0  0  0  0  0  0  0  0  0  0
  148.4185  143.3083  156.6877 H   0  0  0  0  0  0  0  0  0  0  0  0
  146.3043  143.5361  156.5528 H   0  0  0  0  0  0  0  0  0  0  0  0
  145.6188  141.9868  156.9124 H   0  0  0  0  0  0  0  0  0  0  0  0
  145.4733  145.3762  157.3130 H   0  0  0  0  0  0  0  0  0  0  0  0
  143.8052  146.6744  158.6115 H   0  0  0  0  0  0  0  0  0  0  0  0
  142.3934  145.4514  160.2969 H   0  0  0  0  0  0  0  0  0  0  0  0
  150.2524  144.5972  157.6440 H   0  0  0  0  0  0  0  0  0  0  0  0
  149.4214  145.4532  159.5722 H   0  0  0  0  0  0  0  0  0  0  0  0
  149.3765  143.8902  160.3802 H   0  0  0  0  0  0  0  0  0  0  0  0
  151.2248  145.6747  161.2422 H   0  0  0  0  0  0  0  0  0  0  0  0
  152.7862  143.8130  161.6949 H   0  0  0  0  0  0  0  0  0  0  0  0
  151.2358  142.9817  161.5766 H   0  0  0  0  0  0  0  0  0  0  0  0
  153.5402  142.8216  159.7641 H   0  0  0  0  0  0  0  0  0  0  0  0
  152.0564  141.8986  159.6211 H   0  0  0  0  0  0  0  0  0  0  0  0
  152.5594  143.7581  157.7016 H   0  0  0  0  0  0  0  0  0  0  0  0
  151.9016  146.0808  158.7329 H   0  0  0  0  0  0  0  0  0  0  0  0
  153.2790  145.3903  159.6205 H   0  0  0  0  0  0  0  0  0  0  0  0
  1  2  1  0  0  0  0
  1 24  1  0  0  0  0
  1 25  1  0  0  0  0
  1 26  1  0  0  0  0
  2  3  1  0  0  0  0
  2 17  1  0  0  0  0
  2 27  1  0  0  0  0
  3  4  1  0  0  0  0
  3 28  1  0  0  0  0
  4  5  2  0  0  0  0
  4  6  1  0  0  0  0
  6  7  1  0  0  0  0
  6 29  1  0  0  0  0
  6 30  1  0  0  0  0
  7 15  1  0  0  0  0
  7  8  1  0  0  0  0
  8  9  2  0  0  0  0
  8 31  1  0  0  0  0
  9 10  1  0  0  0  0
  9 32  1  0  0  0  0
 10 11  2  0  0  0  0
 10 33  1  0  0  0  0
 11 12  1  0  0  0  0
 11 15  1  0  0  0  0
 12 13  2  0  0  0  0
 12 14  1  0  0  0  0
 15 16  2  0  0  0  0
 17 22  1  0  0  0  0
 17 18  1  0  0  0  0
 17 34  1  0  0  0  0
 18 19  1  0  0  0  0
 18 35  1  0  0  0  0
 18 36  1  0  0  0  0
 19 23  1  0  0  0  0
 19 20  1  0  0  0  0
 19 37  1  0  0  0  0
 20 21  1  0  0  0  0
 20 38  1  0  0  0  0
 20 39  1  0  0  0  0
 21 22  1  0  0  0  0
 21 40  1  0  0  0  0
 21 41  1  0  0  0  0
 22 23  1  0  0  0  0
 22 42  1  0  0  0  0
 23 43  1  0  0  0  0
 23 44  1  0  0  0  0
M  CHG  1  12   1
M  CHG  1  14  -1
M  END
> <s_m_source_file>
AV-unprocessed.smi

> <i_m_source_file_index>
1512

> <i_lp_mmshare_version>
43012

> <i_f3d_flags>
0

> <s_epik_input>
W0NIMl0xW0NIMl1bQ0BIXShbQ0gyXTIpW0NAQEhdKFtDSDJdW0NAQEhdMTIpW0NASF0oW0NIM10pW05IXUMoPU8pW0NIMl1uM1tjSF1bY0hdW2NIXWMoW04rXSg9TylbTy1dKWMzPU8=

> <s_epik_cmdline>
J2VwaWtfcHl0aG9uJywgJy1waCcsICc3LjAnLCAnLXRuJywgJzgnLCAnLW1hJywgJzIwMCcsICctbWV0YWxfYmluZGluZycsICctaW1hZScsICc8aW5maWxlLm1hZT4nLCAnLW9tYWUnLCAnPG91dGZpbGUubWFlPic=

> <r_lp_tautomer_probability>
1

> <r_epik_Ionization_Penalty>
2.17697e-08

> <r_epik_Ionization_Penalty_Charging>
1.42735e-10

> <r_epik_Ionization_Penalty_Neutral>
2.16269e-08

> <r_epik_State_Penalty>
-0

> <r_epik_Charging_Adjusted_Penalty>
1.42735e-10

> <i_epik_Tot_Q>
0

> <i_epik_Tot_abs_Q>
2

> <r_epik_Metal_State_Penalty>
-0

> <b_epik_Metal_Only>
0

> <s_lp_Force_Field>
OPLS_2005

> <r_lp_Energy>
64.3295

> <b_lp_Chiralities_Consistent>
1

> <s_lp_Variant>
AV-unprocessed.smi:1512-3

> <Gold.Version>
5.8.1

> <Gold.Id.Protein>
6NUR|6NUR_protein|mol2

> <Gold.PLP.Fitness>
45.4174

> <Gold.PLP.PLP>
-38.9472

> <Gold.PLP.part.hbond>
-5.8014

> <Gold.PLP.part.metal>
0.0000

> <Gold.PLP.part.buried>
-2.9932

> <Gold.PLP.part.nonpolar>
-30.3564

> <Gold.PLP.part.repulsive>
0.1521

> <Gold.PLP.ligand.clash>
0.0000

> <Gold.PLP.ligand.torsion>
0.6678

> <Gold.PLP.Chemscore.Hbond>
1.5957

> <Gold.PLP.Chemscore.CHOScore>
0.9980

> <Gold.PLP.Chemscore.Metal>
0.0000

> <Gold.Chemscore.Hbonds>
donor molecule, donor type, donor heavy atom, donor atom, acceptor molecule, acceptor atom, score
      L1  H     3    28       P1  8028  0.99
      P1  H  6934  6946       L1     5  0.54
      L1  C     8    31       P1  8029  0.83

> <Gold.PLP.Chemscore.Internal.Correction>
0.0247

> <Gold.Rescore>
     Score         DG    S(hbond)    S(metal)    S(lipo)     H(rot)  DE(clash)    DE(int)     intcor
     13.75     -17.00       1.27        0.00     100.36       1.75       0.30       2.95       ----

> <Gold.Chemscore.Fitness>
13.7510

> <Gold.Chemscore.DG>
-17.0034

> <Gold.Chemscore.ZeroCoef>
-5.4800

> <Gold.Chemscore.Hbond>
1.2739

> <Gold.Chemscore.Metal>
0.0000

> <Gold.Chemscore.Lipo>
100.3572

> <Gold.Chemscore.Internal_Hbond>
0.0000

> <Gold.Chemscore.DEClash>
0.3044

> <Gold.Chemscore.DEInternal>
2.9479

> <Gold.Chemscore.Rot>
1.7474

> <Gold.Chemscore.Internal.Correction>
   9.000000E+99

> <Gold.Chemscore.Hbonds>
donor molecule, donor type, donor heavy atom, donor atom, acceptor molecule, acceptor atom, score
      L1  H     3    28       P1  8028  0.37
      P1  H  6934  6946       L1     5  0.56

> <Gold.Chemscore.Hbond.Weighted>
-4.2549

> <Gold.Chemscore.Metal.Weighted>
-0.0000

> <Gold.Chemscore.Lipo.Weighted>
-11.7418

> <Gold.Chemscore.Internal_Hbond.Weighted>
0.0000

> <Gold.Chemscore.DEClash.Weighted>
0.3044

> <Gold.Chemscore.DEInternal.Weighted>
2.9479

> <Gold.Chemscore.Rot.Weighted>
4.4733

> <Gold.Chemscore.Internal.Correction.Weighted>
   9.000000E+99

> <Gold.Protein.RotatedTorsions>
[ 6907 6896 6895 6894 ] final   96.58 input  -60.11 | X-H torsion
[ 7974 7965 7964 7962 ] final  -49.04 input  175.53 | X-H torsion
[ 8008 7997 7996 7995 ] final  -35.60 input   59.86 | X-H torsion
[ 10167 10162 10161 10158 ] final -137.63 input  -65.29 | X-H torsion
[ 10718 10713 10712 10709 ] final   37.35 input   66.30 | X-H torsion
[ 10763 10752 10751 10750 ] final  -50.31 input  -60.55 | X-H torsion
[ 11005 11000 10999 10996 ] final  -42.91 input  -57.11 | X-H torsion

> <Gold.Protein.ActiveResidues>
 VAL166  LYS551  ARG553  GLY616  TRP617  ASP618  TYR619  PRO620  LYS621  CYS622 
 ASP623  PHE694  ASN695  SER759  ASP760  ASP761  ALA762  ILE779  LEU786  VAL792 
 PHE793  MET794  SER795  GLU796  ALA797  LYS798  CYS799  TRP800  GLU811  SER814 

> <Gold.Protein.RotatedAtoms>
  152.5433  134.0864  159.8257 H   0  0  0  0  0  0  0  0  0  0  0  0  # atno 6907 bound_to 6896
  151.0959  133.5273  159.2620 H   0  0  0  0  0  0  0  0  0  0  0  0  # atno 6908 bound_to 6896
  151.2046  135.0465  159.8940 H   0  0  0  0  0  0  0  0  0  0  0  0  # atno 6909 bound_to 6896
  145.9448  140.7628  142.9534 H   0  0  0  0  0  0  0  0  0  0  0  0  # atno 7974 bound_to 7965
  154.4092  140.1653  156.2238 H   0  0  0  0  0  0  0  0  0  0  0  0  # atno 8008 bound_to 7997
  155.9341  140.3412  155.6250 H   0  0  0  0  0  0  0  0  0  0  0  0  # atno 8009 bound_to 7997
  155.7070  140.0752  157.2377 H   0  0  0  0  0  0  0  0  0  0  0  0  # atno 8010 bound_to 7997
  139.8558  143.7140  152.2654 H   0  0  0  0  0  0  0  0  0  0  0  0  # atno 10167 bound_to 10162
  157.3459  130.7572  149.6944 H   0  0  0  0  0  0  0  0  0  0  0  0  # atno 10718 bound_to 10713
  154.1083  135.6553  153.4880 H   0  0  0  0  0  0  0  0  0  0  0  0  # atno 10763 bound_to 10752
  153.0265  135.5241  154.7218 H   0  0  0  0  0  0  0  0  0  0  0  0  # atno 10764 bound_to 10752
  154.6390  135.2986  155.0096 H   0  0  0  0  0  0  0  0  0  0  0  0  # atno 10765 bound_to 10752
  141.0348  133.6805  156.2659 H   0  0  0  0  0  0  0  0  0  0  0  0  # atno 11005 bound_to 11000
  144.6785  140.2339  143.7352 LP  0  0  0  0  0  0  0  0  0  0  0  0  # atno 17320 bound_to 7965
  145.8251  139.2061  143.1915 LP  0  0  0  0  0  0  0  0  0  0  0  0  # atno 17321 bound_to 7965
  139.7421  144.7557  151.0636 LP  0  0  0  0  0  0  0  0  0  0  0  0  # atno 17342 bound_to 10162
  140.7781  143.4960  150.9832 LP  0  0  0  0  0  0  0  0  0  0  0  0  # atno 17343 bound_to 10162
  155.9714  130.4154  150.4181 LP  0  0  0  0  0  0  0  0  0  0  0  0  # atno 17370 bound_to 10713
  157.2236  131.0488  151.2532 LP  0  0  0  0  0  0  0  0  0  0  0  0  # atno 17371 bound_to 10713
  140.6342  134.5232  157.5563 LP  0  0  0  0  0  0  0  0  0  0  0  0  # atno 17394 bound_to 11000
  139.9233  134.8106  156.1146 LP  0  0  0  0  0  0  0  0  0  0  0  0  # atno 17395 bound_to 11000

$$$$
