AV-unprocessed.smi:1452|AV-procd|sdf|5903|dock5
  -GOLD-   22720 5593D 1   1.00000     0.00000
 Structure written by MMmdl.
 40 42  0  0  0  0  0  0  0  0  2 V2000
  148.4022  140.7279  157.2368 O   0  0  0  0  0  0  0  0  0  0  0  0
  148.5587  141.8064  156.6672 C   0  0  0  0  0  0  0  0  0  0  0  0
  149.6377  142.5780  156.9194 N   0  0  0  0  0  0  0  0  0  0  0  0
  150.7503  142.3934  157.7932 C   0  0  0  0  0  0  0  0  0  0  0  0
  151.4377  143.5834  158.1231 C   0  0  0  0  0  0  0  0  0  0  0  0
  152.5568  143.5282  158.9761 C   0  0  0  0  0  0  0  0  0  0  0  0
  152.9635  142.2804  159.4803 C   0  0  0  0  0  0  0  0  0  0  0  0
  152.2272  141.1426  159.1042 C   0  0  0  0  0  0  0  0  0  0  0  0
  151.1548  141.1941  158.2857 N   0  0  0  0  0  0  0  0  0  0  0  0
  147.6816  142.2848  155.7699 N   0  0  0  0  0  0  0  0  0  0  0  0
  146.4465  141.6297  155.3531 C   0  0  2  0  0  0  0  0  0  0  0  0
  145.5687  141.2005  156.5424 C   0  0  0  0  0  0  0  0  0  0  0  0
  144.9701  139.8386  156.1388 C   0  0  0  0  0  0  0  0  0  0  0  0
  145.4188  139.6102  154.7522 N   0  3  2  0  0  0  0  0  0  0  0  0
  145.4747  138.2081  154.2845 C   0  0  0  0  0  0  0  0  0  0  0  0
  145.8812  138.1844  152.7976 C   0  0  0  0  0  0  0  0  0  0  0  0
  147.1852  138.9694  152.5487 C   0  0  0  0  0  0  0  0  0  0  0  0
  147.1014  140.3897  153.1403 C   0  0  0  0  0  0  0  0  0  0  0  0
  146.7070  140.3083  154.6249 C   0  0  1  0  0  0  0  0  0  0  0  0
  149.6725  143.4313  156.3806 H   0  0  0  0  0  0  0  0  0  0  0  0
  151.1131  144.5356  157.7282 H   0  0  0  0  0  0  0  0  0  0  0  0
  153.0928  144.4283  159.2388 H   0  0  0  0  0  0  0  0  0  0  0  0
  153.8165  142.1980  160.1376 H   0  0  0  0  0  0  0  0  0  0  0  0
  152.5050  140.1652  159.4698 H   0  0  0  0  0  0  0  0  0  0  0  0
  147.8902  143.1790  155.3473 H   0  0  0  0  0  0  0  0  0  0  0  0
  145.8579  142.2904  154.7129 H   0  0  0  0  0  0  0  0  0  0  0  0
  146.1573  141.0881  157.4544 H   0  0  0  0  0  0  0  0  0  0  0  0
  144.7933  141.9405  156.7439 H   0  0  0  0  0  0  0  0  0  0  0  0
  145.3547  139.0536  156.7919 H   0  0  0  0  0  0  0  0  0  0  0  0
  143.8816  139.8272  156.1995 H   0  0  0  0  0  0  0  0  0  0  0  0
  146.1892  137.6433  154.8853 H   0  0  0  0  0  0  0  0  0  0  0  0
  144.4991  137.7388  154.4159 H   0  0  0  0  0  0  0  0  0  0  0  0
  145.9940  137.1550  152.4567 H   0  0  0  0  0  0  0  0  0  0  0  0
  145.0808  138.6202  152.1983 H   0  0  0  0  0  0  0  0  0  0  0  0
  148.0209  138.4362  153.0035 H   0  0  0  0  0  0  0  0  0  0  0  0
  147.3958  139.0191  151.4799 H   0  0  0  0  0  0  0  0  0  0  0  0
  148.0615  140.8938  153.0287 H   0  0  0  0  0  0  0  0  0  0  0  0
  146.3700  140.9809  152.5878 H   0  0  0  0  0  0  0  0  0  0  0  0
  147.4648  139.7418  155.1714 H   0  0  0  0  0  0  0  0  0  0  0  0
  144.7693  140.1021  154.1554 H   0  0  0  0  0  0  0  0  0  0  0  0
  1  2  2  0  0  0  0
  2  3  1  0  0  0  0
  2 10  1  0  0  0  0
  3  4  1  0  0  0  0
  3 20  1  0  0  0  0
  4  9  1  0  0  0  0
  4  5  2  0  0  0  0
  5  6  1  0  0  0  0
  5 21  1  0  0  0  0
  6  7  2  0  0  0  0
  6 22  1  0  0  0  0
  7  8  1  0  0  0  0
  7 23  1  0  0  0  0
  8  9  2  0  0  0  0
  8 24  1  0  0  0  0
 10 11  1  0  0  0  0
 10 25  1  0  0  0  0
 11 19  1  0  0  0  0
 11 12  1  0  0  0  0
 11 26  1  0  0  0  0
 12 13  1  0  0  0  0
 12 27  1  0  0  0  0
 12 28  1  0  0  0  0
 13 14  1  0  0  0  0
 13 29  1  0  0  0  0
 13 30  1  0  0  0  0
 14 19  1  0  0  0  0
 14 15  1  0  0  0  0
 14 40  1  0  0  0  0
 15 16  1  0  0  0  0
 15 31  1  0  0  0  0
 15 32  1  0  0  0  0
 16 17  1  0  0  0  0
 16 33  1  0  0  0  0
 16 34  1  0  0  0  0
 17 18  1  0  0  0  0
 17 35  1  0  0  0  0
 17 36  1  0  0  0  0
 18 19  1  0  0  0  0
 18 37  1  0  0  0  0
 18 38  1  0  0  0  0
 19 39  1  0  0  0  0
M  CHG  1  14   1
M  END
> <s_m_source_file>
AV-unprocessed.smi

> <i_m_source_file_index>
1452

> <i_lp_mmshare_version>
43012

> <i_f3d_flags>
0

> <s_epik_input>
W0NIMl0xW0NIMl1bQ0gyXVtDSDJdW0NASF0oTjEyKVtDQEBIXShbQ0gyXVtDSDJdMilbTkhdQyg9TylbTkhdYzNbY0hdW2NIXVtjSF1bY0hdbjM=

> <s_epik_cmdline>
J2VwaWtfcHl0aG9uJywgJy1waCcsICc3LjAnLCAnLXRuJywgJzgnLCAnLW1hJywgJzIwMCcsICctbWV0YWxfYmluZGluZycsICctaW1hZScsICc8aW5maWxlLm1hZT4nLCAnLW9tYWUnLCAnPG91dGZpbGUubWFlPic=

> <r_epik_Ionization_Penalty>
0.00100813

> <r_epik_Ionization_Penalty_Charging>
0.000974069

> <r_epik_Ionization_Penalty_Neutral>
3.40643e-05

> <r_epik_State_Penalty>
0.000633842

> <r_epik_Charging_Adjusted_Penalty>
0.00160791

> <i_epik_Tot_Q>
1

> <i_epik_Tot_abs_Q>
1

> <r_epik_Metal_State_Penalty>
-0

> <b_epik_Metal_Only>
0

> <s_lp_Force_Field>
OPLS_2005

> <r_lp_Energy>
38.1413

> <b_lp_Chiralities_Consistent>
1

> <s_lp_Variant>
AV-unprocessed.smi:1452-1

> <Gold.Version>
5.8.1

> <Gold.Id.Protein>
6NUR|6NUR_protein|mol2

> <Gold.PLP.Fitness>
38.9736

> <Gold.PLP.PLP>
-27.6953

> <Gold.PLP.part.hbond>
-3.0000

> <Gold.PLP.part.metal>
0.0000

> <Gold.PLP.part.buried>
-0.3244

> <Gold.PLP.part.nonpolar>
-24.8812

> <Gold.PLP.part.repulsive>
0.1006

> <Gold.PLP.ligand.clash>
0.0000

> <Gold.PLP.ligand.torsion>
0.1375

> <Gold.PLP.Chemscore.Hbond>
3.8480

> <Gold.PLP.Chemscore.CHOScore>
0.0000

> <Gold.PLP.Chemscore.Metal>
0.0000

> <Gold.Chemscore.Hbonds>
donor molecule, donor type, donor heavy atom, donor atom, acceptor molecule, acceptor atom, score
      L1  H     3    20       P1  8028  1.00
      L1  H    10    25       P1  8028  0.83
      L1  H    14    40       P1 10175  2.00

> <Gold.PLP.Chemscore.Internal.Correction>
0.0093

> <Gold.Rescore>
     Score         DG    S(hbond)    S(metal)    S(lipo)     H(rot)  DE(clash)    DE(int)     intcor
     17.32     -20.27       2.64        0.00      72.95       1.00       0.47       2.48       ----

> <Gold.Chemscore.Fitness>
17.3248

> <Gold.Chemscore.DG>
-20.2665

> <Gold.Chemscore.ZeroCoef>
-5.4800

> <Gold.Chemscore.Hbond>
2.6382

> <Gold.Chemscore.Metal>
0.0000

> <Gold.Chemscore.Lipo>
72.9488

> <Gold.Chemscore.Internal_Hbond>
0.0000

> <Gold.Chemscore.DEClash>
0.4656

> <Gold.Chemscore.DEInternal>
2.4762

> <Gold.Chemscore.Rot>
1.0000

> <Gold.Chemscore.Internal.Correction>
   9.000000E+99

> <Gold.Chemscore.Hbonds>
donor molecule, donor type, donor heavy atom, donor atom, acceptor molecule, acceptor atom, score
      L1  H     3    20       P1  8028  0.94
      L1  H    10    25       P1  8028  0.54
      L1  H    14    40       P1 10175  0.93

> <Gold.Chemscore.Hbond.Weighted>
-8.8115

> <Gold.Chemscore.Metal.Weighted>
-0.0000

> <Gold.Chemscore.Lipo.Weighted>
-8.5350

> <Gold.Chemscore.Internal_Hbond.Weighted>
0.0000

> <Gold.Chemscore.DEClash.Weighted>
0.4656

> <Gold.Chemscore.DEInternal.Weighted>
2.4762

> <Gold.Chemscore.Rot.Weighted>
2.5600

> <Gold.Chemscore.Internal.Correction.Weighted>
   9.000000E+99

> <Gold.Protein.RotatedTorsions>
[ 6907 6896 6895 6894 ] final   87.60 input  -60.11 | X-H torsion
[ 7974 7965 7964 7962 ] final  175.96 input  175.53 | X-H torsion
[ 8008 7997 7996 7995 ] final   91.11 input   59.86 | X-H torsion
[ 10167 10162 10161 10158 ] final   35.93 input  -65.29 | X-H torsion
[ 10718 10713 10712 10709 ] final -158.52 input   66.30 | X-H torsion
[ 10763 10752 10751 10750 ] final -142.46 input  -60.55 | X-H torsion
[ 11005 11000 10999 10996 ] final   80.23 input  -57.11 | X-H torsion

> <Gold.Protein.ActiveResidues>
 VAL166  LYS551  ARG553  GLY616  TRP617  ASP618  TYR619  PRO620  LYS621  CYS622 
 ASP623  PHE694  ASN695  SER759  ASP760  ASP761  ALA762  ILE779  LEU786  VAL792 
 PHE793  MET794  SER795  GLU796  ALA797  LYS798  CYS799  TRP800  GLU811  SER814 

> <Gold.Protein.RotatedAtoms>
  152.5413  134.2252  159.8802 H   0  0  0  0  0  0  0  0  0  0  0  0  # atno 6907 bound_to 6896
  151.2227  133.4487  159.2609 H   0  0  0  0  0  0  0  0  0  0  0  0  # atno 6908 bound_to 6896
  151.0790  134.9860  159.8403 H   0  0  0  0  0  0  0  0  0  0  0  0  # atno 6909 bound_to 6896
  144.7192  140.0026  143.6440 H   0  0  0  0  0  0  0  0  0  0  0  0  # atno 7974 bound_to 7965
  156.0199  140.3341  155.7027 H   0  0  0  0  0  0  0  0  0  0  0  0  # atno 8008 bound_to 7997
  155.6038  140.0658  157.2743 H   0  0  0  0  0  0  0  0  0  0  0  0  # atno 8009 bound_to 7997
  154.4312  140.1805  156.1188 H   0  0  0  0  0  0  0  0  0  0  0  0  # atno 8010 bound_to 7997
  140.4175  144.1506  150.6144 H   0  0  0  0  0  0  0  0  0  0  0  0  # atno 10167 bound_to 10162
  156.5553  130.8623  151.2793 H   0  0  0  0  0  0  0  0  0  0  0  0  # atno 10718 bound_to 10713
  154.8508  135.3495  154.6032 H   0  0  0  0  0  0  0  0  0  0  0  0  # atno 10763 bound_to 10752
  153.6640  135.6988  153.5173 H   0  0  0  0  0  0  0  0  0  0  0  0  # atno 10764 bound_to 10752
  153.2795  135.4268  155.1022 H   0  0  0  0  0  0  0  0  0  0  0  0  # atno 10765 bound_to 10752
  139.9142  134.7904  156.1882 H   0  0  0  0  0  0  0  0  0  0  0  0  # atno 11005 bound_to 11000
  146.0323  139.3346  143.0747 LP  0  0  0  0  0  0  0  0  0  0  0  0  # atno 17320 bound_to 7965
  145.8437  140.9567  143.0786 LP  0  0  0  0  0  0  0  0  0  0  0  0  # atno 17321 bound_to 7965
  140.4570  143.2464  151.9271 LP  0  0  0  0  0  0  0  0  0  0  0  0  # atno 17342 bound_to 10162
  139.4782  144.5506  151.8392 LP  0  0  0  0  0  0  0  0  0  0  0  0  # atno 17343 bound_to 10162
  157.7379  130.9804  150.2223 LP  0  0  0  0  0  0  0  0  0  0  0  0  # atno 17370 bound_to 10713
  156.2848  130.3738  149.7900 LP  0  0  0  0  0  0  0  0  0  0  0  0  # atno 17371 bound_to 10713
  141.0600  133.6846  156.1934 LP  0  0  0  0  0  0  0  0  0  0  0  0  # atno 17394 bound_to 11000
  140.6676  134.4902  157.5586 LP  0  0  0  0  0  0  0  0  0  0  0  0  # atno 17395 bound_to 11000

$$$$
