AV-unprocessed.smi:1175|AV-procd|sdf|4951|dock6
  -GOLD-   22720 3543D 1   1.00000     0.00000
 Structure written by MMmdl.
 36 37  0  0  0  0  0  0  0  0  1 V2000
  155.8629  135.7767  156.1532 O   0  0  0  0  0  0  0  0  0  0  0  0
  156.3132  136.7082  156.8218 C   0  0  0  0  0  0  0  0  0  0  0  0
  157.1818  137.7954  156.1726 C   0  0  0  0  0  0  0  0  0  0  0  0
  157.3653  137.6080  154.7235 N   0  0  0  0  0  0  0  0  0  0  0  0
  158.2141  136.5605  154.3141 C   0  0  0  0  0  0  0  0  0  0  0  0
  158.4717  136.2890  153.0201 C   0  0  0  0  0  0  0  0  0  0  0  0
  159.3446  135.1140  152.6071 C   0  0  0  0  0  0  0  0  0  0  0  0
  159.4659  135.0492  151.2811 F   0  0  0  0  0  0  0  0  0  0  0  0
  160.5629  135.2500  153.1285 F   0  0  0  0  0  0  0  0  0  0  0  0
  158.8351  133.9594  153.0381 F   0  0  0  0  0  0  0  0  0  0  0  0
  157.7981  137.1187  152.0406 C   0  0  0  0  0  0  0  0  0  0  0  0
  156.9741  138.1168  152.4149 C   0  0  0  0  0  0  0  0  0  0  0  0
  156.7194  138.4121  153.8266 C   0  0  0  0  0  0  0  0  0  0  0  0
  155.9715  139.3239  154.1808 O   0  0  0  0  0  0  0  0  0  0  0  0
  156.1048  136.8350  158.1412 N   0  0  0  0  0  0  0  0  0  0  0  0
  155.3180  135.9243  158.9668 C   0  0  0  0  0  0  0  0  0  0  0  0
  155.3676  136.3101  160.4572 C   0  0  1  0  0  0  0  0  0  0  0  0
  154.4275  137.4391  160.8276 C   0  0  0  0  0  0  0  0  0  0  0  0
  154.3303  137.2934  162.3442 C   0  0  0  0  0  0  0  0  0  0  0  0
  154.5382  135.9107  162.6214 O   0  0  0  0  0  0  0  0  0  0  0  0
  154.9039  135.2240  161.4290 C   0  0  0  0  0  0  0  0  0  0  0  0
  156.7433  138.7752  156.3707 H   0  0  0  0  0  0  0  0  0  0  0  0
  158.1467  137.8080  156.6817 H   0  0  0  0  0  0  0  0  0  0  0  0
  158.6362  135.9825  155.1233 H   0  0  0  0  0  0  0  0  0  0  0  0
  157.9589  136.9394  150.9877 H   0  0  0  0  0  0  0  0  0  0  0  0
  156.4897  138.7152  151.6572 H   0  0  0  0  0  0  0  0  0  0  0  0
  156.5177  137.6287  158.6095 H   0  0  0  0  0  0  0  0  0  0  0  0
  154.2871  135.9701  158.6151 H   0  0  0  0  0  0  0  0  0  0  0  0
  155.6409  134.8917  158.8237 H   0  0  0  0  0  0  0  0  0  0  0  0
  156.3840  136.6073  160.7215 H   0  0  0  0  0  0  0  0  0  0  0  0
  154.7908  138.4197  160.5185 H   0  0  0  0  0  0  0  0  0  0  0  0
  153.4472  137.2811  160.3758 H   0  0  0  0  0  0  0  0  0  0  0  0
  155.1183  137.8663  162.8341 H   0  0  0  0  0  0  0  0  0  0  0  0
  153.3710  137.6371  162.7321 H   0  0  0  0  0  0  0  0  0  0  0  0
  154.0215  134.7114  161.0435 H   0  0  0  0  0  0  0  0  0  0  0  0
  155.6726  134.4754  161.6218 H   0  0  0  0  0  0  0  0  0  0  0  0
  1  2  2  0  0  0  0
  2  3  1  0  0  0  0
  2 15  1  0  0  0  0
  3  4  1  0  0  0  0
  3 22  1  0  0  0  0
  3 23  1  0  0  0  0
  4 13  1  0  0  0  0
  4  5  1  0  0  0  0
  5  6  2  0  0  0  0
  5 24  1  0  0  0  0
  6  7  1  0  0  0  0
  6 11  1  0  0  0  0
  7  8  1  0  0  0  0
  7  9  1  0  0  0  0
  7 10  1  0  0  0  0
 11 12  2  0  0  0  0
 11 25  1  0  0  0  0
 12 13  1  0  0  0  0
 12 26  1  0  0  0  0
 13 14  2  0  0  0  0
 15 16  1  0  0  0  0
 15 27  1  0  0  0  0
 16 17  1  0  0  0  0
 16 28  1  0  0  0  0
 16 29  1  0  0  0  0
 17 21  1  0  0  0  0
 17 18  1  0  0  0  0
 17 30  1  0  0  0  0
 18 19  1  0  0  0  0
 18 31  1  0  0  0  0
 18 32  1  0  0  0  0
 19 20  1  0  0  0  0
 19 33  1  0  0  0  0
 19 34  1  0  0  0  0
 20 21  1  0  0  0  0
 21 35  1  0  0  0  0
 21 36  1  0  0  0  0
M  END
> <s_m_source_file>
AV-unprocessed.smi

> <i_m_source_file_index>
1175

> <i_lp_mmshare_version>
43012

> <i_f3d_flags>
0

> <s_epik_input>
W0NIMl0xT1tDSDJdW0NIMl1bQ0BIXTFbQ0gyXVtOSF1DKD1PKVtDSDJdbjJbY0hdYyhDKEYpKEYpRilbY0hdW2NIXWMyPU8=

> <s_epik_cmdline>
J2VwaWtfcHl0aG9uJywgJy1waCcsICc3LjAnLCAnLXRuJywgJzgnLCAnLW1hJywgJzIwMCcsICctbWV0YWxfYmluZGluZycsICctaW1hZScsICc8aW5maWxlLm1hZT4nLCAnLW9tYWUnLCAnPG91dGZpbGUubWFlPic=

> <r_lp_tautomer_probability>
1

> <r_epik_Ionization_Penalty>
3.67963e-08

> <r_epik_Ionization_Penalty_Charging>
1.809e-08

> <r_epik_Ionization_Penalty_Neutral>
1.87063e-08

> <r_epik_State_Penalty>
-0

> <r_epik_Charging_Adjusted_Penalty>
1.809e-08

> <i_epik_Tot_Q>
0

> <i_epik_Tot_abs_Q>
0

> <r_epik_Metal_State_Penalty>
-0

> <b_epik_Metal_Only>
0

> <s_lp_Force_Field>
OPLS_2005

> <r_lp_Energy>
29.657

> <b_lp_Chiralities_Consistent>
1

> <s_lp_Variant>
AV-unprocessed.smi:1175-2

> <Gold.Version>
5.8.1

> <Gold.Id.Protein>
6NUR|6NUR_protein|mol2

> <Gold.PLP.Fitness>
41.4738

> <Gold.PLP.PLP>
-36.1383

> <Gold.PLP.part.hbond>
-2.0000

> <Gold.PLP.part.metal>
0.0000

> <Gold.PLP.part.buried>
-3.9152

> <Gold.PLP.part.nonpolar>
-30.5517

> <Gold.PLP.part.repulsive>
0.0697

> <Gold.PLP.ligand.clash>
0.0000

> <Gold.PLP.ligand.torsion>
0.3489

> <Gold.PLP.Chemscore.Hbond>
1.9920

> <Gold.PLP.Chemscore.CHOScore>
0.0000

> <Gold.PLP.Chemscore.Metal>
0.0000

> <Gold.Chemscore.Hbonds>
donor molecule, donor type, donor heavy atom, donor atom, acceptor molecule, acceptor atom, score
      P1  H  7997  8008       L1    14  0.98
      P1  H 10752 10764       L1     1  1.00

> <Gold.PLP.Chemscore.Internal.Correction>
0.0573

> <Gold.Rescore>
     Score         DG    S(hbond)    S(metal)    S(lipo)     H(rot)  DE(clash)    DE(int)     intcor
     16.32     -16.66       1.90        0.00      82.14       1.87       0.00       0.34       ----

> <Gold.Chemscore.Fitness>
16.3194

> <Gold.Chemscore.DG>
-16.6597

> <Gold.Chemscore.ZeroCoef>
-5.4800

> <Gold.Chemscore.Hbond>
1.9016

> <Gold.Chemscore.Metal>
0.0000

> <Gold.Chemscore.Lipo>
82.1417

> <Gold.Chemscore.Internal_Hbond>
0.0000

> <Gold.Chemscore.DEClash>
0.0037

> <Gold.Chemscore.DEInternal>
0.3366

> <Gold.Chemscore.Rot>
1.8681

> <Gold.Chemscore.Internal.Correction>
   9.000000E+99

> <Gold.Chemscore.Hbonds>
donor molecule, donor type, donor heavy atom, donor atom, acceptor molecule, acceptor atom, score
      P1  H  7997  8008       L1    14  0.93
      P1  H 10752 10764       L1     1  1.00

> <Gold.Chemscore.Hbond.Weighted>
-6.3513

> <Gold.Chemscore.Metal.Weighted>
-0.0000

> <Gold.Chemscore.Lipo.Weighted>
-9.6106

> <Gold.Chemscore.Internal_Hbond.Weighted>
0.0000

> <Gold.Chemscore.DEClash.Weighted>
0.0037

> <Gold.Chemscore.DEInternal.Weighted>
0.3366

> <Gold.Chemscore.Rot.Weighted>
4.7822

> <Gold.Chemscore.Internal.Correction.Weighted>
   9.000000E+99

> <Gold.Protein.RotatedTorsions>
[ 6907 6896 6895 6894 ] final  134.84 input  -60.11 | X-H torsion
[ 7974 7965 7964 7962 ] final   37.84 input  175.53 | X-H torsion
[ 8008 7997 7996 7995 ] final   50.99 input   59.86 | X-H torsion
[ 10167 10162 10161 10158 ] final -102.70 input  -65.29 | X-H torsion
[ 10718 10713 10712 10709 ] final  -74.81 input   66.30 | X-H torsion
[ 10763 10752 10751 10750 ] final   73.10 input  -60.55 | X-H torsion
[ 11005 11000 10999 10996 ] final -158.04 input  -57.11 | X-H torsion

> <Gold.Protein.ActiveResidues>
 VAL166  LYS551  ARG553  GLY616  TRP617  ASP618  TYR619  PRO620  LYS621  CYS622 
 ASP623  PHE694  ASN695  SER759  ASP760  ASP761  ALA762  ILE779  LEU786  VAL792 
 PHE793  MET794  SER795  GLU796  ALA797  LYS798  CYS799  TRP800  GLU811  SER814 

> <Gold.Protein.RotatedAtoms>
  152.3070  133.5713  159.5655 H   0  0  0  0  0  0  0  0  0  0  0  0  # atno 6907 bound_to 6896
  150.7304  134.0208  159.3710 H   0  0  0  0  0  0  0  0  0  0  0  0  # atno 6908 bound_to 6896
  151.8104  135.0683  160.0463 H   0  0  0  0  0  0  0  0  0  0  0  0  # atno 6909 bound_to 6896
  146.1107  139.5845  142.9354 H   0  0  0  0  0  0  0  0  0  0  0  0  # atno 7974 bound_to 7965
  155.4278  140.3449  155.4277 H   0  0  0  0  0  0  0  0  0  0  0  0  # atno 8008 bound_to 7997
  156.1354  140.1526  156.9033 H   0  0  0  0  0  0  0  0  0  0  0  0  # atno 8009 bound_to 7997
  154.4928  140.0836  156.7611 H   0  0  0  0  0  0  0  0  0  0  0  0  # atno 8010 bound_to 7997
  140.2278  143.3628  152.0913 H   0  0  0  0  0  0  0  0  0  0  0  0  # atno 10167 bound_to 10162
  156.0229  130.4426  150.2948 H   0  0  0  0  0  0  0  0  0  0  0  0  # atno 10718 bound_to 10713
  153.0500  135.5075  154.7843 H   0  0  0  0  0  0  0  0  0  0  0  0  # atno 10763 bound_to 10752
  154.6713  135.2953  154.9741 H   0  0  0  0  0  0  0  0  0  0  0  0  # atno 10764 bound_to 10752
  154.0558  135.6697  153.4858 H   0  0  0  0  0  0  0  0  0  0  0  0  # atno 10765 bound_to 10752
  140.6580  134.4379  157.5235 H   0  0  0  0  0  0  0  0  0  0  0  0  # atno 11005 bound_to 11000
  145.5668  141.0398  143.2196 LP  0  0  0  0  0  0  0  0  0  0  0  0  # atno 17320 bound_to 7965
  144.7509  139.7196  143.7273 LP  0  0  0  0  0  0  0  0  0  0  0  0  # atno 17321 bound_to 7965
  139.5121  144.6911  151.5757 LP  0  0  0  0  0  0  0  0  0  0  0  0  # atno 17342 bound_to 10162
  140.6207  143.9263  150.6524 LP  0  0  0  0  0  0  0  0  0  0  0  0  # atno 17343 bound_to 10162
  157.1051  131.0206  151.3070 LP  0  0  0  0  0  0  0  0  0  0  0  0  # atno 17370 bound_to 10713
  157.4749  130.7730  149.7358 LP  0  0  0  0  0  0  0  0  0  0  0  0  # atno 17371 bound_to 10713
  139.9022  134.8529  156.1847 LP  0  0  0  0  0  0  0  0  0  0  0  0  # atno 17394 bound_to 11000
  141.0487  133.6900  156.1730 LP  0  0  0  0  0  0  0  0  0  0  0  0  # atno 17395 bound_to 11000

$$$$
