AV-unprocessed.smi:1701|AV-procd|sdf|6833|dock10
  -GOLD-   22720 8 13D 1   1.00000     0.00000
 Structure written by MMmdl.
 54 56  0  0  0  0  0  0  0  0  2 V2000
  152.8656  141.2208  159.1063 C   0  0  0  0  0  0  0  0  0  0  0  0
  151.4721  140.8499  158.5751 C   0  0  0  0  0  0  0  0  0  0  0  0
  151.3189  141.1090  157.1441 N   0  0  0  0  0  0  0  0  0  0  0  0
  150.9885  142.4789  156.7452 C   0  0  0  0  0  0  0  0  0  0  0  0
  151.5924  143.5402  157.6789 C   0  0  0  0  0  0  0  0  0  0  0  0
  150.7503  140.0401  156.4180 C   0  0  0  0  0  0  0  0  0  0  0  0
  150.0249  139.0364  157.0986 C   0  0  0  0  0  0  0  0  0  0  0  0
  149.4517  137.9864  156.3582 C   0  0  0  0  0  0  0  0  0  0  0  0
  149.6136  137.9587  154.9594 C   0  0  0  0  0  0  0  0  0  0  0  0
  149.0020  136.8909  154.2483 N   0  0  0  0  0  0  0  0  0  0  0  0
  148.1983  135.9089  154.7022 C   0  0  0  0  0  0  0  0  0  0  0  0
  147.7866  135.8119  155.8552 O   0  0  0  0  0  0  0  0  0  0  0  0
  147.8589  135.0005  153.7691 N   0  0  0  0  0  0  0  0  0  0  0  0
  147.0089  133.8143  153.9128 C   0  0  2  0  0  0  0  0  0  0  0  0
  147.8089  132.4994  153.8386 C   0  0  0  0  0  0  0  0  0  0  0  0
  146.9289  131.5541  153.0153 C   0  0  0  0  0  0  0  0  0  0  0  0
  146.2650  132.4624  152.0737 N   0  3  1  0  0  0  0  0  0  0  0  0
  145.1427  131.9447  151.2652 C   0  0  0  0  0  0  0  0  0  0  0  0
  144.7509  133.0217  150.2310 C   0  0  0  0  0  0  0  0  0  0  0  0
  144.4856  134.3952  150.8883 C   0  0  0  0  0  0  0  0  0  0  0  0
  145.6385  134.8176  151.8247 C   0  0  0  0  0  0  0  0  0  0  0  0
  145.9142  133.6801  152.8253 C   0  0  2  0  0  0  0  0  0  0  0  0
  150.3481  139.0128  154.3646 C   0  0  0  0  0  0  0  0  0  0  0  0
  150.9003  140.0212  155.0716 N   0  0  0  0  0  0  0  0  0  0  0  0
  152.9407  141.0041  160.1718 H   0  0  0  0  0  0  0  0  0  0  0  0
  153.0751  142.2822  158.9711 H   0  0  0  0  0  0  0  0  0  0  0  0
  153.6489  140.6570  158.5991 H   0  0  0  0  0  0  0  0  0  0  0  0
  151.2878  139.7904  158.7552 H   0  0  0  0  0  0  0  0  0  0  0  0
  150.7097  141.3811  159.1447 H   0  0  0  0  0  0  0  0  0  0  0  0
  151.3108  142.6548  155.7183 H   0  0  0  0  0  0  0  0  0  0  0  0
  149.9039  142.5915  156.7441 H   0  0  0  0  0  0  0  0  0  0  0  0
  151.2822  144.5394  157.3734 H   0  0  0  0  0  0  0  0  0  0  0  0
  152.6819  143.5214  157.6721 H   0  0  0  0  0  0  0  0  0  0  0  0
  151.2617  143.3913  158.7070 H   0  0  0  0  0  0  0  0  0  0  0  0
  149.9132  139.0592  158.1726 H   0  0  0  0  0  0  0  0  0  0  0  0
  148.8945  137.2109  156.8636 H   0  0  0  0  0  0  0  0  0  0  0  0
  149.1969  136.8733  153.2584 H   0  0  0  0  0  0  0  0  0  0  0  0
  148.2605  135.1397  152.8529 H   0  0  0  0  0  0  0  0  0  0  0  0
  146.5223  133.8364  154.8898 H   0  0  0  0  0  0  0  0  0  0  0  0
  148.7521  132.6586  153.3130 H   0  0  0  0  0  0  0  0  0  0  0  0
  148.0465  132.0949  154.8232 H   0  0  0  0  0  0  0  0  0  0  0  0
  147.5044  130.7827  152.5024 H   0  0  0  0  0  0  0  0  0  0  0  0
  146.1848  131.0697  153.6496 H   0  0  0  0  0  0  0  0  0  0  0  0
  145.4454  131.0280  150.7582 H   0  0  0  0  0  0  0  0  0  0  0  0
  144.2975  131.6962  151.9093 H   0  0  0  0  0  0  0  0  0  0  0  0
  145.5568  133.1272  149.5033 H   0  0  0  0  0  0  0  0  0  0  0  0
  143.8731  132.6999  149.6697 H   0  0  0  0  0  0  0  0  0  0  0  0
  144.3299  135.1539  150.1206 H   0  0  0  0  0  0  0  0  0  0  0  0
  143.5587  134.3439  151.4610 H   0  0  0  0  0  0  0  0  0  0  0  0
  146.5337  135.0377  151.2415 H   0  0  0  0  0  0  0  0  0  0  0  0
  145.3645  135.7342  152.3468 H   0  0  0  0  0  0  0  0  0  0  0  0
  144.9828  133.4771  153.3586 H   0  0  0  0  0  0  0  0  0  0  0  0
  150.4970  139.0853  153.2996 H   0  0  0  0  0  0  0  0  0  0  0  0
  146.9833  132.7390  151.4197 H   0  0  0  0  0  0  0  0  0  0  0  0
  1  2  1  0  0  0  0
  1 25  1  0  0  0  0
  1 26  1  0  0  0  0
  1 27  1  0  0  0  0
  2  3  1  0  0  0  0
  2 28  1  0  0  0  0
  2 29  1  0  0  0  0
  3  4  1  0  0  0  0
  3  6  1  0  0  0  0
  4  5  1  0  0  0  0
  4 30  1  0  0  0  0
  4 31  1  0  0  0  0
  5 32  1  0  0  0  0
  5 33  1  0  0  0  0
  5 34  1  0  0  0  0
  6 24  1  0  0  0  0
  6  7  2  0  0  0  0
  7  8  1  0  0  0  0
  7 35  1  0  0  0  0
  8  9  2  0  0  0  0
  8 36  1  0  0  0  0
  9 10  1  0  0  0  0
  9 23  1  0  0  0  0
 10 11  1  0  0  0  0
 10 37  1  0  0  0  0
 11 12  2  0  0  0  0
 11 13  1  0  0  0  0
 13 14  1  0  0  0  0
 13 38  1  0  0  0  0
 14 22  1  0  0  0  0
 14 15  1  0  0  0  0
 14 39  1  0  0  0  0
 15 16  1  0  0  0  0
 15 40  1  0  0  0  0
 15 41  1  0  0  0  0
 16 17  1  0  0  0  0
 16 42  1  0  0  0  0
 16 43  1  0  0  0  0
 17 22  1  0  0  0  0
 17 18  1  0  0  0  0
 17 54  1  0  0  0  0
 18 19  1  0  0  0  0
 18 44  1  0  0  0  0
 18 45  1  0  0  0  0
 19 20  1  0  0  0  0
 19 46  1  0  0  0  0
 19 47  1  0  0  0  0
 20 21  1  0  0  0  0
 20 48  1  0  0  0  0
 20 49  1  0  0  0  0
 21 22  1  0  0  0  0
 21 50  1  0  0  0  0
 21 51  1  0  0  0  0
 22 52  1  0  0  0  0
 23 24  2  0  0  0  0
 23 53  1  0  0  0  0
M  CHG  1  17   1
M  END
> <s_m_source_file>
AV-unprocessed.smi

> <i_m_source_file_index>
1701

> <i_lp_mmshare_version>
43012

> <i_f3d_flags>
0

> <s_epik_input>
W0NIM11bQ0gyXU4oW0NIMl1bQ0gzXSljMVtjSF1bY0hdYyhbY0hdbjEpW05IXUMoPU8pW05IXVtDQEhdKFtDSDJdW0NIMl0yKVtDQEBIXShOMjMpW0NIMl1bQ0gyXVtDSDJdW0NIMl0z

> <s_epik_cmdline>
J2VwaWtfcHl0aG9uJywgJy1waCcsICc3LjAnLCAnLXRuJywgJzgnLCAnLW1hJywgJzIwMCcsICctbWV0YWxfYmluZGluZycsICctaW1hZScsICc8aW5maWxlLm1hZT4nLCAnLW9tYWUnLCAnPG91dGZpbGUubWFlPic=

> <r_lp_tautomer_probability>
1

> <r_epik_Ionization_Penalty>
0.56662

> <r_epik_Ionization_Penalty_Charging>
0.000974069

> <r_epik_Ionization_Penalty_Neutral>
0.565646

> <r_epik_State_Penalty>
2.0247

> <r_epik_Charging_Adjusted_Penalty>
2.02568

> <i_epik_Tot_Q>
1

> <i_epik_Tot_abs_Q>
1

> <r_epik_Metal_State_Penalty>
1.51504

> <b_epik_Metal_Only>
0

> <s_lp_Force_Field>
OPLS_2005

> <r_lp_Energy>
60.4427

> <b_lp_Chiralities_Consistent>
1

> <s_lp_Variant>
AV-unprocessed.smi:1701-13

> <Gold.Version>
5.8.1

> <Gold.Id.Protein>
6NUR|6NUR_protein|mol2

> <Gold.PLP.Fitness>
42.8934

> <Gold.PLP.PLP>
-33.2134

> <Gold.PLP.part.hbond>
-2.6609

> <Gold.PLP.part.metal>
0.0000

> <Gold.PLP.part.buried>
-5.1307

> <Gold.PLP.part.nonpolar>
-26.4530

> <Gold.PLP.part.repulsive>
0.1063

> <Gold.PLP.ligand.clash>
0.0000

> <Gold.PLP.ligand.torsion>
1.0278

> <Gold.PLP.Chemscore.Hbond>
2.6280

> <Gold.PLP.Chemscore.CHOScore>
1.0000

> <Gold.PLP.Chemscore.Metal>
0.0000

> <Gold.Chemscore.Hbonds>
donor molecule, donor type, donor heavy atom, donor atom, acceptor molecule, acceptor atom, score
      L1  H    10    37       P1  7948  1.00
      L1  H    13    38       P1  7948  0.93
      P1  H  7989  7998       L1    24  0.65
      L1  C    23    53       P1  7957  1.00

> <Gold.PLP.Chemscore.Internal.Correction>
0.8517

> <Gold.Rescore>
     Score         DG    S(hbond)    S(metal)    S(lipo)     H(rot)  DE(clash)    DE(int)     intcor
     16.64     -19.21       2.06        0.00      89.93       1.44       0.04       2.53       ----

> <Gold.Chemscore.Fitness>
16.6413

> <Gold.Chemscore.DG>
-19.2107

> <Gold.Chemscore.ZeroCoef>
-5.4800

> <Gold.Chemscore.Hbond>
2.0647

> <Gold.Chemscore.Metal>
0.0000

> <Gold.Chemscore.Lipo>
89.9336

> <Gold.Chemscore.Internal_Hbond>
0.0000

> <Gold.Chemscore.DEClash>
0.0402

> <Gold.Chemscore.DEInternal>
2.5292

> <Gold.Chemscore.Rot>
1.4404

> <Gold.Chemscore.Internal.Correction>
   9.000000E+99

> <Gold.Chemscore.Hbonds>
donor molecule, donor type, donor heavy atom, donor atom, acceptor molecule, acceptor atom, score
      L1  H    10    37       P1  7948  0.87
      L1  H    13    38       P1  7948  0.80
      P1  H  7989  7998       L1    24  0.06

> <Gold.Chemscore.Hbond.Weighted>
-6.8960

> <Gold.Chemscore.Metal.Weighted>
-0.0000

> <Gold.Chemscore.Lipo.Weighted>
-10.5222

> <Gold.Chemscore.Internal_Hbond.Weighted>
0.0000

> <Gold.Chemscore.DEClash.Weighted>
0.0402

> <Gold.Chemscore.DEInternal.Weighted>
2.5292

> <Gold.Chemscore.Rot.Weighted>
3.6875

> <Gold.Chemscore.Internal.Correction.Weighted>
   9.000000E+99

> <Gold.Protein.RotatedTorsions>
[ 6907 6896 6895 6894 ] final   75.68 input  -60.11 | X-H torsion
[ 7974 7965 7964 7962 ] final   19.80 input  175.53 | X-H torsion
[ 8008 7997 7996 7995 ] final  126.34 input   59.86 | X-H torsion
[ 10167 10162 10161 10158 ] final  165.74 input  -65.29 | X-H torsion
[ 10718 10713 10712 10709 ] final   19.60 input   66.30 | X-H torsion
[ 10763 10752 10751 10750 ] final  -91.39 input  -60.55 | X-H torsion
[ 11005 11000 10999 10996 ] final -132.00 input  -57.11 | X-H torsion

> <Gold.Protein.ActiveResidues>
 VAL166  LYS551  ARG553  GLY616  TRP617  ASP618  TYR619  PRO620  LYS621  CYS622 
 ASP623  PHE694  ASN695  SER759  ASP760  ASP761  ALA762  ILE779  LEU786  VAL792 
 PHE793  MET794  SER795  GLU796  ALA797  LYS798  CYS799  TRP800  GLU811  SER814 

> <Gold.Protein.RotatedAtoms>
  152.5037  134.4083  159.9439 H   0  0  0  0  0  0  0  0  0  0  0  0  # atno 6907 bound_to 6896
  151.4050  133.3739  159.2744 H   0  0  0  0  0  0  0  0  0  0  0  0  # atno 6908 bound_to 6896
  150.9333  134.8769  159.7625 H   0  0  0  0  0  0  0  0  0  0  0  0  # atno 6909 bound_to 6896
  146.2136  139.8261  142.8670 H   0  0  0  0  0  0  0  0  0  0  0  0  # atno 7974 bound_to 7965
  156.2861  140.2695  156.2095 H   0  0  0  0  0  0  0  0  0  0  0  0  # atno 8008 bound_to 7997
  155.0278  140.0386  157.2480 H   0  0  0  0  0  0  0  0  0  0  0  0  # atno 8009 bound_to 7997
  154.7380  140.2719  155.6403 H   0  0  0  0  0  0  0  0  0  0  0  0  # atno 8010 bound_to 7997
  139.4911  144.4100  151.9310 H   0  0  0  0  0  0  0  0  0  0  0  0  # atno 10167 bound_to 10162
  157.1127  130.6516  149.5902 H   0  0  0  0  0  0  0  0  0  0  0  0  # atno 10718 bound_to 10713
  154.6756  135.5269  153.8195 H   0  0  0  0  0  0  0  0  0  0  0  0  # atno 10763 bound_to 10752
  153.0530  135.6540  154.0656 H   0  0  0  0  0  0  0  0  0  0  0  0  # atno 10764 bound_to 10752
  154.0550  135.2966  155.3314 H   0  0  0  0  0  0  0  0  0  0  0  0  # atno 10765 bound_to 10752
  140.9209  134.1446  157.4315 H   0  0  0  0  0  0  0  0  0  0  0  0  # atno 11005 bound_to 11000
  145.3046  141.0203  143.3589 LP  0  0  0  0  0  0  0  0  0  0  0  0  # atno 17320 bound_to 7965
  144.8981  139.4686  143.6646 LP  0  0  0  0  0  0  0  0  0  0  0  0  # atno 17321 bound_to 7965
  140.3542  144.3052  150.5944 LP  0  0  0  0  0  0  0  0  0  0  0  0  # atno 17342 bound_to 10162
  140.5459  143.2215  151.8007 LP  0  0  0  0  0  0  0  0  0  0  0  0  # atno 17343 bound_to 10162
  155.9846  130.4872  150.6993 LP  0  0  0  0  0  0  0  0  0  0  0  0  # atno 17370 bound_to 10713
  157.4545  131.0876  151.0811 LP  0  0  0  0  0  0  0  0  0  0  0  0  # atno 17371 bound_to 10713
  139.8775  134.9971  156.5828 LP  0  0  0  0  0  0  0  0  0  0  0  0  # atno 17394 bound_to 11000
  140.7989  133.8521  155.8710 LP  0  0  0  0  0  0  0  0  0  0  0  0  # atno 17395 bound_to 11000

$$$$
