AV-unprocessed.smi:3258|AV-procd|sdf|12471|dock8
  -GOLD-   2272018373D 1   1.00000     0.00000
 Structure written by MMmdl.
 38 39  0  0  0  0  0  0  0  0  1 V2000
  144.9962  135.9439  150.8986 C   0  0  0  0  0  0  0  0  0  0  0  0
  145.5295  135.3484  152.2114 C   0  0  1  0  0  0  0  0  0  0  0  0
  145.9912  133.8772  152.0676 C   0  0  0  0  0  0  0  0  0  0  0  0
  145.2208  133.1121  151.1002 N   0  0  0  0  0  0  0  0  0  0  0  0
  145.6786  132.2407  150.1341 C   0  0  0  0  0  0  0  0  0  0  0  0
  144.5875  131.7663  149.4639 C   0  0  0  0  0  0  0  0  0  0  0  0
  143.4924  132.4182  150.0967 C   0  0  0  0  0  0  0  0  0  0  0  0
  143.8744  133.2238  151.0739 N   0  0  0  0  0  0  0  0  0  0  0  0
  146.6001  136.1999  152.7261 N   0  0  0  0  0  0  0  0  0  0  0  0
  146.5257  136.9642  153.8243 C   0  0  0  0  0  0  0  0  0  0  0  0
  145.5151  137.0798  154.5180 O   0  0  0  0  0  0  0  0  0  0  0  0
  147.6940  137.5659  154.0876 N   0  0  0  0  0  0  0  0  0  0  0  0
  147.9690  138.4000  155.2527 C   0  0  0  0  0  0  0  0  0  0  0  0
  149.0705  139.4359  154.9600 C   0  0  1  0  0  0  0  0  0  0  0  0
  149.5712  140.1634  156.1908 C   0  0  0  0  0  0  0  0  0  0  0  0
  150.8959  140.7408  155.7005 C   0  0  0  0  0  0  0  0  0  0  0  0
  151.3789  139.8306  154.7160 O   0  0  0  0  0  0  0  0  0  0  0  0
  150.3792  138.8626  154.4126 C   0  0  0  0  0  0  0  0  0  0  0  0
  144.1935  135.3305  150.4889 H   0  0  0  0  0  0  0  0  0  0  0  0
  145.7770  136.0206  150.1412 H   0  0  0  0  0  0  0  0  0  0  0  0
  144.5948  136.9451  151.0591 H   0  0  0  0  0  0  0  0  0  0  0  0
  144.7107  135.3704  152.9327 H   0  0  0  0  0  0  0  0  0  0  0  0
  147.0462  133.8252  151.7939 H   0  0  0  0  0  0  0  0  0  0  0  0
  145.9094  133.3757  153.0325 H   0  0  0  0  0  0  0  0  0  0  0  0
  146.7306  132.0314  150.0075 H   0  0  0  0  0  0  0  0  0  0  0  0
  144.5735  131.0628  148.6450 H   0  0  0  0  0  0  0  0  0  0  0  0
  142.4387  132.3315  149.8761 H   0  0  0  0  0  0  0  0  0  0  0  0
  147.4787  136.1707  152.2298 H   0  0  0  0  0  0  0  0  0  0  0  0
  148.4633  137.4039  153.4542 H   0  0  0  0  0  0  0  0  0  0  0  0
  147.0458  138.9161  155.5166 H   0  0  0  0  0  0  0  0  0  0  0  0
  148.2341  137.7888  156.1173 H   0  0  0  0  0  0  0  0  0  0  0  0
  148.6919  140.1765  154.2532 H   0  0  0  0  0  0  0  0  0  0  0  0
  148.8818  140.9287  156.5483 H   0  0  0  0  0  0  0  0  0  0  0  0
  149.7503  139.4580  157.0037 H   0  0  0  0  0  0  0  0  0  0  0  0
  150.7363  141.7100  155.2265 H   0  0  0  0  0  0  0  0  0  0  0  0
  151.6156  140.8737  156.5085 H   0  0  0  0  0  0  0  0  0  0  0  0
  150.6363  137.9326  154.9219 H   0  0  0  0  0  0  0  0  0  0  0  0
  150.3343  138.6601  153.3421 H   0  0  0  0  0  0  0  0  0  0  0  0
  1  2  1  0  0  0  0
  1 19  1  0  0  0  0
  1 20  1  0  0  0  0
  1 21  1  0  0  0  0
  2  3  1  0  0  0  0
  2  9  1  0  0  0  0
  2 22  1  0  0  0  0
  3  4  1  0  0  0  0
  3 23  1  0  0  0  0
  3 24  1  0  0  0  0
  4  8  1  0  0  0  0
  4  5  1  0  0  0  0
  5  6  2  0  0  0  0
  5 25  1  0  0  0  0
  6  7  1  0  0  0  0
  6 26  1  0  0  0  0
  7  8  2  0  0  0  0
  7 27  1  0  0  0  0
  9 10  1  0  0  0  0
  9 28  1  0  0  0  0
 10 11  2  0  0  0  0
 10 12  1  0  0  0  0
 12 13  1  0  0  0  0
 12 29  1  0  0  0  0
 13 14  1  0  0  0  0
 13 30  1  0  0  0  0
 13 31  1  0  0  0  0
 14 18  1  0  0  0  0
 14 15  1  0  0  0  0
 14 32  1  0  0  0  0
 15 16  1  0  0  0  0
 15 33  1  0  0  0  0
 15 34  1  0  0  0  0
 16 17  1  0  0  0  0
 16 35  1  0  0  0  0
 16 36  1  0  0  0  0
 17 18  1  0  0  0  0
 18 37  1  0  0  0  0
 18 38  1  0  0  0  0
M  END
> <s_m_source_file>
AV-unprocessed.smi

> <i_m_source_file_index>
3258

> <i_lp_mmshare_version>
43012

> <i_f3d_flags>
0

> <s_epik_input>
bjFbY0hdW2NIXVtjSF1uMVtDSDJdW0NAQEhdKFtDSDNdKVtOSF1DKD1PKVtOSF1bQ0gyXVtDQEBIXTJbQ0gyXVtDSDJdT1tDSDJdMg==

> <s_epik_cmdline>
J2VwaWtfcHl0aG9uJywgJy1waCcsICc3LjAnLCAnLXRuJywgJzgnLCAnLW1hJywgJzIwMCcsICctbWV0YWxfYmluZGluZycsICctaW1hZScsICc8aW5maWxlLm1hZT4nLCAnLW9tYWUnLCAnPG91dGZpbGUubWFlPic=

> <r_lp_tautomer_probability>
1

> <r_epik_Ionization_Penalty>
6.85079e-05

> <r_epik_Ionization_Penalty_Charging>
0

> <r_epik_Ionization_Penalty_Neutral>
6.85079e-05

> <r_epik_State_Penalty>
-0

> <r_epik_Charging_Adjusted_Penalty>
0

> <i_epik_Tot_Q>
0

> <i_epik_Tot_abs_Q>
0

> <r_epik_Metal_State_Penalty>
-0

> <b_epik_Metal_Only>
0

> <s_lp_Force_Field>
OPLS_2005

> <r_lp_Energy>
16.3591

> <b_lp_Chiralities_Consistent>
1

> <s_lp_Variant>
AV-unprocessed.smi:3258-4

> <Gold.Version>
5.8.1

> <Gold.Id.Protein>
6NUR|6NUR_protein|mol2

> <Gold.PLP.Fitness>
41.2920

> <Gold.PLP.PLP>
-26.4408

> <Gold.PLP.part.hbond>
-2.8809

> <Gold.PLP.part.metal>
0.0000

> <Gold.PLP.part.buried>
-1.0383

> <Gold.PLP.part.nonpolar>
-23.4446

> <Gold.PLP.part.repulsive>
0.3305

> <Gold.PLP.ligand.clash>
0.0000

> <Gold.PLP.ligand.torsion>
0.7575

> <Gold.PLP.Chemscore.Hbond>
2.7585

> <Gold.PLP.Chemscore.CHOScore>
2.6833

> <Gold.PLP.Chemscore.Metal>
0.0000

> <Gold.Chemscore.Hbonds>
donor molecule, donor type, donor heavy atom, donor atom, acceptor molecule, acceptor atom, score
      L1  H     9    28       P1  7948  0.94
      L1  H    12    29       P1  7948  0.82
      P1  H  7989  7998       L1    17  1.00
      L1  C     5    25       P1 10747  0.98
      L1  C     7    27       P1 10186  0.79
      L1  C     7    27       P1 10952  0.90

> <Gold.PLP.Chemscore.Internal.Correction>
0.0410

> <Gold.Rescore>
     Score         DG    S(hbond)    S(metal)    S(lipo)     H(rot)  DE(clash)    DE(int)     intcor
     15.41     -17.71       2.52        0.00      73.60       1.87       0.67       1.63       ----

> <Gold.Chemscore.Fitness>
15.4061

> <Gold.Chemscore.DG>
-17.7067

> <Gold.Chemscore.ZeroCoef>
-5.4800

> <Gold.Chemscore.Hbond>
2.5175

> <Gold.Chemscore.Metal>
0.0000

> <Gold.Chemscore.Lipo>
73.6033

> <Gold.Chemscore.Internal_Hbond>
0.0000

> <Gold.Chemscore.DEClash>
0.6671

> <Gold.Chemscore.DEInternal>
1.6335

> <Gold.Chemscore.Rot>
1.8724

> <Gold.Chemscore.Internal.Correction>
   9.000000E+99

> <Gold.Chemscore.Hbonds>
donor molecule, donor type, donor heavy atom, donor atom, acceptor molecule, acceptor atom, score
      L1  H     9    28       P1  7948  0.90
      L1  H    12    29       P1  7948  0.76
      P1  H  7989  7998       L1    17  0.22

> <Gold.Chemscore.Hbond.Weighted>
-8.4084

> <Gold.Chemscore.Metal.Weighted>
-0.0000

> <Gold.Chemscore.Lipo.Weighted>
-8.6116

> <Gold.Chemscore.Internal_Hbond.Weighted>
0.0000

> <Gold.Chemscore.DEClash.Weighted>
0.6671

> <Gold.Chemscore.DEInternal.Weighted>
1.6335

> <Gold.Chemscore.Rot.Weighted>
4.7933

> <Gold.Chemscore.Internal.Correction.Weighted>
   9.000000E+99

> <Gold.Protein.RotatedTorsions>
[ 6907 6896 6895 6894 ] final  167.58 input  -60.11 | X-H torsion
[ 7974 7965 7964 7962 ] final    1.81 input  175.53 | X-H torsion
[ 8008 7997 7996 7995 ] final  151.70 input   59.86 | X-H torsion
[ 10167 10162 10161 10158 ] final  124.68 input  -65.29 | X-H torsion
[ 10718 10713 10712 10709 ] final   90.19 input   66.30 | X-H torsion
[ 10763 10752 10751 10750 ] final -113.81 input  -60.55 | X-H torsion
[ 11005 11000 10999 10996 ] final  104.27 input  -57.11 | X-H torsion

> <Gold.Protein.ActiveResidues>
 VAL166  LYS551  ARG553  GLY616  TRP617  ASP618  TYR619  PRO620  LYS621  CYS622 
 ASP623  PHE694  ASN695  SER759  ASP760  ASP761  ALA762  ILE779  LEU786  VAL792 
 PHE793  MET794  SER795  GLU796  ALA797  LYS798  CYS799  TRP800  GLU811  SER814 

> <Gold.Protein.RotatedAtoms>
  151.8611  133.3457  159.3703 H   0  0  0  0  0  0  0  0  0  0  0  0  # atno 6907 bound_to 6896
  150.7179  134.5205  159.5661 H   0  0  0  0  0  0  0  0  0  0  0  0  # atno 6908 bound_to 6896
  152.2719  134.7924  160.0463 H   0  0  0  0  0  0  0  0  0  0  0  0  # atno 6909 bound_to 6896
  146.2442  140.0931  142.8351 H   0  0  0  0  0  0  0  0  0  0  0  0  # atno 7974 bound_to 7965
  156.2662  140.2041  156.6217 H   0  0  0  0  0  0  0  0  0  0  0  0  # atno 8008 bound_to 7997
  154.6752  140.0546  157.0232 H   0  0  0  0  0  0  0  0  0  0  0  0  # atno 8009 bound_to 7997
  155.1079  140.3212  155.4532 H   0  0  0  0  0  0  0  0  0  0  0  0  # atno 8010 bound_to 7997
  139.5728  144.6948  151.3733 H   0  0  0  0  0  0  0  0  0  0  0  0  # atno 10167 bound_to 10162
  157.6958  131.0361  150.3541 H   0  0  0  0  0  0  0  0  0  0  0  0  # atno 10718 bound_to 10713
  154.8413  135.4440  154.1408 H   0  0  0  0  0  0  0  0  0  0  0  0  # atno 10763 bound_to 10752
  153.2594  135.6934  153.7601 H   0  0  0  0  0  0  0  0  0  0  0  0  # atno 10764 bound_to 10752
  153.6883  135.3391  155.3171 H   0  0  0  0  0  0  0  0  0  0  0  0  # atno 10765 bound_to 10752
  139.8790  134.9294  156.5336 H   0  0  0  0  0  0  0  0  0  0  0  0  # atno 11005 bound_to 11000
  145.0633  140.9103  143.4925 LP  0  0  0  0  0  0  0  0  0  0  0  0  # atno 17320 bound_to 7965
  145.1051  139.2796  143.5666 LP  0  0  0  0  0  0  0  0  0  0  0  0  # atno 17321 bound_to 7965
  140.7012  143.7627  150.7406 LP  0  0  0  0  0  0  0  0  0  0  0  0  # atno 17342 bound_to 10162
  140.1138  143.4674  152.2354 LP  0  0  0  0  0  0  0  0  0  0  0  0  # atno 17343 bound_to 10162
  156.3985  130.3911  149.6977 LP  0  0  0  0  0  0  0  0  0  0  0  0  # atno 17370 bound_to 10713
  156.4302  130.7811  151.2831 LP  0  0  0  0  0  0  0  0  0  0  0  0  # atno 17371 bound_to 10713
  140.8362  133.8240  155.9031 LP  0  0  0  0  0  0  0  0  0  0  0  0  # atno 17394 bound_to 11000
  140.9281  134.2056  157.4882 LP  0  0  0  0  0  0  0  0  0  0  0  0  # atno 17395 bound_to 11000

$$$$
