AV-unprocessed.smi:1603|AV-procd|sdf|6443|dock5
  -GOLD-   22720 7 93D 1   1.00000     0.00000
 Structure written by MMmdl.
 45 47  0  0  0  0  0  0  0  0  2 V2000
  153.0396  139.6451  157.8936 O   0  0  0  0  0  0  0  0  0  0  0  0
  152.7372  140.6755  158.4964 C   0  0  0  0  0  0  0  0  0  0  0  0
  153.2767  141.0315  159.8174 C   0  0  0  0  0  0  0  0  0  0  0  0
  154.2291  140.0466  160.4903 C   0  0  0  0  0  0  0  0  0  0  0  0
  155.3663  139.9134  159.8061 F   0  0  0  0  0  0  0  0  0  0  0  0
  154.5397  140.4594  161.7200 F   0  0  0  0  0  0  0  0  0  0  0  0
  153.6647  138.8424  160.5849 F   0  0  0  0  0  0  0  0  0  0  0  0
  152.9125  142.1954  160.4085 C   0  0  0  0  0  0  0  0  0  0  0  0
  151.9963  143.0993  159.7423 C   0  0  0  0  0  0  0  0  0  0  0  0
  151.5726  144.4159  160.3275 C   0  0  0  0  0  0  0  0  0  0  0  0
  150.4828  145.2516  159.6982 C   0  0  0  0  0  0  0  0  0  0  0  0
  151.9145  145.7339  159.6712 C   0  0  0  0  0  0  0  0  0  0  0  0
  151.5092  142.7753  158.5920 N   0  0  0  0  0  0  0  0  0  0  0  0
  151.8560  141.5844  157.9839 N   0  0  0  0  0  0  0  0  0  0  0  0
  151.1993  141.3621  156.6883 C   0  0  0  0  0  0  0  0  0  0  0  0
  149.6618  141.2600  156.8048 C   0  0  2  0  0  0  0  0  0  0  0  0
  149.3637  140.0356  157.4459 O   0  0  0  0  0  0  0  0  0  0  0  0
  148.9428  141.2974  155.4377 C   0  0  0  0  0  0  0  0  0  0  0  0
  147.7716  142.2101  155.4321 N   0  3  0  0  0  0  0  0  0  0  0  0
  147.0869  142.2848  154.1168 C   0  0  0  0  0  0  0  0  0  0  0  0
  145.9116  143.2748  154.1785 C   0  0  0  0  0  0  0  0  0  0  0  0
  145.0113  142.8831  155.2072 O   0  0  0  0  0  0  0  0  0  0  0  0
  145.6307  142.8902  156.4873 C   0  0  0  0  0  0  0  0  0  0  0  0
  146.7975  141.8879  156.5017 C   0  0  0  0  0  0  0  0  0  0  0  0
  153.2929  142.4716  161.3806 H   0  0  0  0  0  0  0  0  0  0  0  0
  151.6068  144.3833  161.4149 H   0  0  0  0  0  0  0  0  0  0  0  0
  150.0531  144.9087  158.7585 H   0  0  0  0  0  0  0  0  0  0  0  0
  149.7928  145.7615  160.3674 H   0  0  0  0  0  0  0  0  0  0  0  0
  152.1769  146.5657  160.3217 H   0  0  0  0  0  0  0  0  0  0  0  0
  152.4255  145.7158  158.7101 H   0  0  0  0  0  0  0  0  0  0  0  0
  151.4589  142.1638  155.9935 H   0  0  0  0  0  0  0  0  0  0  0  0
  151.6000  140.4519  156.2376 H   0  0  0  0  0  0  0  0  0  0  0  0
  149.3039  142.0605  157.4503 H   0  0  0  0  0  0  0  0  0  0  0  0
  149.3386  139.3475  156.7993 H   0  0  0  0  0  0  0  0  0  0  0  0
  149.6211  141.6108  154.6434 H   0  0  0  0  0  0  0  0  0  0  0  0
  148.6300  140.2838  155.1808 H   0  0  0  0  0  0  0  0  0  0  0  0
  147.7813  142.5982  153.3380 H   0  0  0  0  0  0  0  0  0  0  0  0
  146.7216  141.2956  153.8363 H   0  0  0  0  0  0  0  0  0  0  0  0
  146.2664  144.2916  154.3550 H   0  0  0  0  0  0  0  0  0  0  0  0
  145.3782  143.2843  153.2278 H   0  0  0  0  0  0  0  0  0  0  0  0
  145.9770  143.8956  156.7326 H   0  0  0  0  0  0  0  0  0  0  0  0
  144.8905  142.6159  157.2392 H   0  0  0  0  0  0  0  0  0  0  0  0
  146.4211  140.8732  156.3615 H   0  0  0  0  0  0  0  0  0  0  0  0
  147.2917  141.9163  157.4735 H   0  0  0  0  0  0  0  0  0  0  0  0
  148.1227  143.1337  155.6405 H   0  0  0  0  0  0  0  0  0  0  0  0
  1  2  2  0  0  0  0
  2 14  1  0  0  0  0
  2  3  1  0  0  0  0
  3  4  1  0  0  0  0
  3  8  2  0  0  0  0
  4  5  1  0  0  0  0
  4  6  1  0  0  0  0
  4  7  1  0  0  0  0
  8  9  1  0  0  0  0
  8 25  1  0  0  0  0
  9 10  1  0  0  0  0
  9 13  2  0  0  0  0
 10 12  1  0  0  0  0
 10 11  1  0  0  0  0
 10 26  1  0  0  0  0
 11 12  1  0  0  0  0
 11 27  1  0  0  0  0
 11 28  1  0  0  0  0
 12 29  1  0  0  0  0
 12 30  1  0  0  0  0
 13 14  1  0  0  0  0
 14 15  1  0  0  0  0
 15 16  1  0  0  0  0
 15 31  1  0  0  0  0
 15 32  1  0  0  0  0
 16 17  1  0  0  0  0
 16 18  1  0  0  0  0
 16 33  1  0  0  0  0
 17 34  1  0  0  0  0
 18 19  1  0  0  0  0
 18 35  1  0  0  0  0
 18 36  1  0  0  0  0
 19 24  1  0  0  0  0
 19 20  1  0  0  0  0
 19 45  1  0  0  0  0
 20 21  1  0  0  0  0
 20 37  1  0  0  0  0
 20 38  1  0  0  0  0
 21 22  1  0  0  0  0
 21 39  1  0  0  0  0
 21 40  1  0  0  0  0
 22 23  1  0  0  0  0
 23 24  1  0  0  0  0
 23 41  1  0  0  0  0
 23 42  1  0  0  0  0
 24 43  1  0  0  0  0
 24 44  1  0  0  0  0
M  CHG  1  19   1
M  END
> <s_m_source_file>
AV-unprocessed.smi

> <i_m_source_file_index>
1603

> <i_lp_mmshare_version>
43012

> <i_f3d_flags>
0

> <s_epik_input>
Tz1jMWMoQyhGKShGKUYpW2NIXWMoW0NIXTJbQ0gyXVtDSDJdMilubjFbQ0gyXVtDQEhdKFtPSF0pW0NIMl1OM1tDSDJdW0NIMl1PW0NIMl1bQ0gyXTM=

> <s_epik_cmdline>
J2VwaWtfcHl0aG9uJywgJy1waCcsICc3LjAnLCAnLXRuJywgJzgnLCAnLW1hJywgJzIwMCcsICctbWV0YWxfYmluZGluZycsICctaW1hZScsICc8aW5maWxlLm1hZT4nLCAnLW9tYWUnLCAnPG91dGZpbGUubWFlPic=

> <r_lp_tautomer_probability>
1

> <r_epik_Ionization_Penalty>
0.373533

> <r_epik_Ionization_Penalty_Charging>
0.373533

> <r_epik_Ionization_Penalty_Neutral>
6.58334e-07

> <r_epik_State_Penalty>
0.37113

> <r_epik_Charging_Adjusted_Penalty>
0.744662

> <i_epik_Tot_Q>
1

> <i_epik_Tot_abs_Q>
1

> <r_epik_Metal_State_Penalty>
0.37113

> <b_epik_Metal_Only>
0

> <s_lp_Force_Field>
OPLS_2005

> <r_lp_Energy>
41.4102

> <b_lp_Chiralities_Consistent>
1

> <s_lp_Variant>
AV-unprocessed.smi:1603-1

> <Gold.Version>
5.8.1

> <Gold.Id.Protein>
6NUR|6NUR_protein|mol2

> <Gold.PLP.Fitness>
56.9263

> <Gold.PLP.PLP>
-50.1690

> <Gold.PLP.part.hbond>
-2.0000

> <Gold.PLP.part.metal>
0.0000

> <Gold.PLP.part.buried>
-6.9664

> <Gold.PLP.part.nonpolar>
-41.6276

> <Gold.PLP.part.repulsive>
0.2948

> <Gold.PLP.ligand.clash>
1.1957

> <Gold.PLP.ligand.torsion>
0.8672

> <Gold.PLP.Chemscore.Hbond>
3.0000

> <Gold.PLP.Chemscore.CHOScore>
0.0000

> <Gold.PLP.Chemscore.Metal>
0.0000

> <Gold.Chemscore.Hbonds>
donor molecule, donor type, donor heavy atom, donor atom, acceptor molecule, acceptor atom, score
      L1  H    19    45       P1  8028  2.00
      P1  H  7997  8010       L1     1  1.00

> <Gold.PLP.Chemscore.Internal.Correction>
0.6874

> <Gold.Rescore>
     Score         DG    S(hbond)    S(metal)    S(lipo)     H(rot)  DE(clash)    DE(int)     intcor
     14.39     -17.77       1.81        0.00     108.38       2.52       0.15       3.24       ----

> <Gold.Chemscore.Fitness>
14.3879

> <Gold.Chemscore.DG>
-17.7696

> <Gold.Chemscore.ZeroCoef>
-5.4800

> <Gold.Chemscore.Hbond>
1.8114

> <Gold.Chemscore.Metal>
0.0000

> <Gold.Chemscore.Lipo>
108.3816

> <Gold.Chemscore.Internal_Hbond>
0.0000

> <Gold.Chemscore.DEClash>
0.1461

> <Gold.Chemscore.DEInternal>
3.2355

> <Gold.Chemscore.Rot>
2.5160

> <Gold.Chemscore.Internal.Correction>
   9.000000E+99

> <Gold.Chemscore.Hbonds>
donor molecule, donor type, donor heavy atom, donor atom, acceptor molecule, acceptor atom, score
      L1  H    19    45       P1  8028  0.82
      P1  H  7997  8010       L1     1  0.59

> <Gold.Chemscore.Hbond.Weighted>
-6.0500

> <Gold.Chemscore.Metal.Weighted>
-0.0000

> <Gold.Chemscore.Lipo.Weighted>
-12.6806

> <Gold.Chemscore.Internal_Hbond.Weighted>
0.0000

> <Gold.Chemscore.DEClash.Weighted>
0.1461

> <Gold.Chemscore.DEInternal.Weighted>
3.2355

> <Gold.Chemscore.Rot.Weighted>
6.4411

> <Gold.Chemscore.Internal.Correction.Weighted>
   9.000000E+99

> <Gold.Protein.RotatedTorsions>
[ 6907 6896 6895 6894 ] final  -36.23 input  -60.11 | X-H torsion
[ 7974 7965 7964 7962 ] final -125.77 input  175.53 | X-H torsion
[ 8008 7997 7996 7995 ] final   54.98 input   59.86 | X-H torsion
[ 10167 10162 10161 10158 ] final  150.48 input  -65.29 | X-H torsion
[ 10718 10713 10712 10709 ] final  -55.01 input   66.30 | X-H torsion
[ 10763 10752 10751 10750 ] final  147.60 input  -60.55 | X-H torsion
[ 11005 11000 10999 10996 ] final -176.92 input  -57.11 | X-H torsion

> <Gold.Protein.ActiveResidues>
 VAL166  LYS551  ARG553  GLY616  TRP617  ASP618  TYR619  PRO620  LYS621  CYS622 
 ASP623  PHE694  ASN695  SER759  ASP760  ASP761  ALA762  ILE779  LEU786  VAL792 
 PHE793  MET794  SER795  GLU796  ALA797  LYS798  CYS799  TRP800  GLU811  SER814 

> <Gold.Protein.RotatedAtoms>
  151.0298  134.9530  159.8104 H   0  0  0  0  0  0  0  0  0  0  0  0  # atno 6907 bound_to 6896
  152.5343  134.2796  159.9012 H   0  0  0  0  0  0  0  0  0  0  0  0  # atno 6908 bound_to 6896
  151.2805  133.4170  159.2660 H   0  0  0  0  0  0  0  0  0  0  0  0  # atno 6909 bound_to 6896
  144.9941  140.7759  143.4536 H   0  0  0  0  0  0  0  0  0  0  0  0  # atno 7974 bound_to 7965
  155.4935  140.3472  155.4359 H   0  0  0  0  0  0  0  0  0  0  0  0  # atno 8008 bound_to 7997
  156.0961  140.1423  156.9557 H   0  0  0  0  0  0  0  0  0  0  0  0  # atno 8009 bound_to 7997
  154.4664  140.0916  156.7009 H   0  0  0  0  0  0  0  0  0  0  0  0  # atno 8010 bound_to 7997
  139.4850  144.5519  151.7386 H   0  0  0  0  0  0  0  0  0  0  0  0  # atno 10167 bound_to 10162
  156.1404  130.4155  150.0114 H   0  0  0  0  0  0  0  0  0  0  0  0  # atno 10718 bound_to 10713
  154.0410  135.2889  155.3355 H   0  0  0  0  0  0  0  0  0  0  0  0  # atno 10763 bound_to 10752
  154.6929  135.5219  153.8420 H   0  0  0  0  0  0  0  0  0  0  0  0  # atno 10764 bound_to 10752
  153.0600  135.6610  154.0614 H   0  0  0  0  0  0  0  0  0  0  0  0  # atno 10765 bound_to 10752
  140.4468  134.6381  157.4783 H   0  0  0  0  0  0  0  0  0  0  0  0  # atno 11005 bound_to 11000
  145.2244  139.2144  143.5076 LP  0  0  0  0  0  0  0  0  0  0  0  0  # atno 17320 bound_to 7965
  146.3438  140.2109  142.8590 LP  0  0  0  0  0  0  0  0  0  0  0  0  # atno 17321 bound_to 7965
  140.5074  144.1077  150.5986 LP  0  0  0  0  0  0  0  0  0  0  0  0  # atno 17342 bound_to 10162
  140.3991  143.2713  151.9969 LP  0  0  0  0  0  0  0  0  0  0  0  0  # atno 17343 bound_to 10162
  156.8001  130.9287  151.3646 LP  0  0  0  0  0  0  0  0  0  0  0  0  # atno 17370 bound_to 10713
  157.6570  130.8933  149.9750 LP  0  0  0  0  0  0  0  0  0  0  0  0  # atno 17371 bound_to 10713
  140.0033  134.6802  155.9495 LP  0  0  0  0  0  0  0  0  0  0  0  0  # atno 17394 bound_to 11000
  141.1682  133.6537  156.4554 LP  0  0  0  0  0  0  0  0  0  0  0  0  # atno 17395 bound_to 11000

$$$$
