AV-unprocessed.smi:1489|AV-procd|sdf|6028|dock8
  -GOLD-   22720 6133D 1   1.00000     0.00000
 Structure written by MMmdl.
 47 49  0  0  0  0  0  0  0  0  2 V2000
  146.7762  137.7548  154.3025 O   0  0  0  0  0  0  0  0  0  0  0  0
  146.7798  138.4852  153.3123 C   0  0  0  0  0  0  0  0  0  0  0  0
  147.5455  139.5802  153.1656 N   0  0  0  0  0  0  0  0  0  0  0  0
  148.4593  140.1456  154.0952 C   0  0  0  0  0  0  0  0  0  0  0  0
  149.2911  139.2663  154.8210 C   0  0  0  0  0  0  0  0  0  0  0  0
  150.2239  139.7856  155.7420 C   0  0  0  0  0  0  0  0  0  0  0  0
  150.3207  141.1858  155.9168 C   0  0  0  0  0  0  0  0  0  0  0  0
  151.2191  141.8021  156.7993 N   0  0  0  0  0  0  0  0  0  0  0  0
  150.6310  142.7907  157.6878 C   0  0  0  0  0  0  0  0  0  0  0  0
  151.6618  143.0062  158.7976 C   0  0  0  0  0  0  0  0  0  0  0  0
  152.5118  141.7302  158.7978 C   0  0  0  0  0  0  0  0  0  0  0  0
  151.9539  140.8816  157.6513 C   0  0  0  0  0  0  0  0  0  0  0  0
  149.5180  141.9949  155.1917 N   0  3  0  0  0  0  0  0  0  0  0  0
  148.6088  141.5386  154.3031 C   0  0  0  0  0  0  0  0  0  0  0  0
  146.0272  138.2728  152.2205 N   0  0  0  0  0  0  0  0  0  0  0  0
  145.0936  137.1699  151.9821 C   0  0  2  0  0  0  0  0  0  0  0  0
  143.9041  137.1699  152.9654 C   0  0  0  0  0  0  0  0  0  0  0  0
  142.9056  136.0489  152.6244 C   0  0  0  0  0  0  0  0  0  0  0  0
  143.5818  134.6654  152.5474 C   0  0  2  0  0  0  0  0  0  0  0  0
  143.9765  134.2456  153.8386 O   0  0  0  0  0  0  0  0  0  0  0  0
  144.8007  134.6754  151.6039 C   0  0  0  0  0  0  0  0  0  0  0  0
  145.7959  135.7963  151.9514 C   0  0  0  0  0  0  0  0  0  0  0  0
  147.5071  140.0308  152.2631 H   0  0  0  0  0  0  0  0  0  0  0  0
  149.2142  138.1981  154.6792 H   0  0  0  0  0  0  0  0  0  0  0  0
  150.8569  139.1115  156.3007 H   0  0  0  0  0  0  0  0  0  0  0  0
  150.4173  143.7182  157.1556 H   0  0  0  0  0  0  0  0  0  0  0  0
  149.6960  142.4232  158.1122 H   0  0  0  0  0  0  0  0  0  0  0  0
  152.2890  143.8682  158.5672 H   0  0  0  0  0  0  0  0  0  0  0  0
  151.1853  143.1904  159.7609 H   0  0  0  0  0  0  0  0  0  0  0  0
  153.5581  141.9789  158.6158 H   0  0  0  0  0  0  0  0  0  0  0  0
  152.4580  141.1984  159.7482 H   0  0  0  0  0  0  0  0  0  0  0  0
  151.2914  140.1090  158.0443 H   0  0  0  0  0  0  0  0  0  0  0  0
  152.7521  140.3881  157.0959 H   0  0  0  0  0  0  0  0  0  0  0  0
  148.0518  142.3076  153.7892 H   0  0  0  0  0  0  0  0  0  0  0  0
  146.1138  138.9391  151.4672 H   0  0  0  0  0  0  0  0  0  0  0  0
  144.6913  137.3523  150.9847 H   0  0  0  0  0  0  0  0  0  0  0  0
  144.2527  137.0372  153.9897 H   0  0  0  0  0  0  0  0  0  0  0  0
  143.3949  138.1338  152.9360 H   0  0  0  0  0  0  0  0  0  0  0  0
  142.0958  136.0339  153.3548 H   0  0  0  0  0  0  0  0  0  0  0  0
  142.4411  136.2701  151.6625 H   0  0  0  0  0  0  0  0  0  0  0  0
  142.8579  133.9350  152.1846 H   0  0  0  0  0  0  0  0  0  0  0  0
  143.5437  133.4290  154.0352 H   0  0  0  0  0  0  0  0  0  0  0  0
  145.3035  133.7078  151.6252 H   0  0  0  0  0  0  0  0  0  0  0  0
  144.4552  134.8144  150.5788 H   0  0  0  0  0  0  0  0  0  0  0  0
  146.6051  135.8057  151.2206 H   0  0  0  0  0  0  0  0  0  0  0  0
  146.2562  135.5794  152.9157 H   0  0  0  0  0  0  0  0  0  0  0  0
  149.6034  143.0037  155.3195 H   0  0  0  0  0  0  0  0  0  0  0  0
  1  2  2  0  0  0  0
  2  3  1  0  0  0  0
  2 15  1  0  0  0  0
  3  4  1  0  0  0  0
  3 23  1  0  0  0  0
  4 14  1  0  0  0  0
  4  5  2  0  0  0  0
  5  6  1  0  0  0  0
  5 24  1  0  0  0  0
  6  7  2  0  0  0  0
  6 25  1  0  0  0  0
  7  8  1  0  0  0  0
  7 13  1  0  0  0  0
  8 12  1  0  0  0  0
  8  9  1  0  0  0  0
  9 10  1  0  0  0  0
  9 26  1  0  0  0  0
  9 27  1  0  0  0  0
 10 11  1  0  0  0  0
 10 28  1  0  0  0  0
 10 29  1  0  0  0  0
 11 12  1  0  0  0  0
 11 30  1  0  0  0  0
 11 31  1  0  0  0  0
 12 32  1  0  0  0  0
 12 33  1  0  0  0  0
 13 14  2  0  0  0  0
 13 47  1  0  0  0  0
 14 34  1  0  0  0  0
 15 16  1  0  0  0  0
 15 35  1  0  0  0  0
 16 22  1  0  0  0  0
 16 17  1  0  0  0  0
 16 36  1  0  0  0  0
 17 18  1  0  0  0  0
 17 37  1  0  0  0  0
 17 38  1  0  0  0  0
 18 19  1  0  0  0  0
 18 39  1  0  0  0  0
 18 40  1  0  0  0  0
 19 20  1  0  0  0  0
 19 21  1  0  0  0  0
 19 41  1  0  0  0  0
 20 42  1  0  0  0  0
 21 22  1  0  0  0  0
 21 43  1  0  0  0  0
 21 44  1  0  0  0  0
 22 45  1  0  0  0  0
 22 46  1  0  0  0  0
M  CHG  1  13   1
M  END
> <s_m_source_file>
AV-unprocessed.smi

> <i_m_source_file_index>
1489

> <i_lp_mmshare_version>
43012

> <i_f3d_flags>
0

> <s_epik_input>
W0NIMl0xW0NIMl1bQ0BIXShbT0hdKVtDSDJdW0NIMl1bQ0BIXTFbTkhdQyg9TylbTkhdYzJbY0hdW2NIXWMobltjSF0yKU4zW0NIMl1bQ0gyXVtDSDJdW0NIMl0z

> <s_epik_cmdline>
J2VwaWtfcHl0aG9uJywgJy1waCcsICc3LjAnLCAnLXRuJywgJzgnLCAnLW1hJywgJzIwMCcsICctbWV0YWxfYmluZGluZycsICctaW1hZScsICc8aW5maWxlLm1hZT4nLCAnLW9tYWUnLCAnPG91dGZpbGUubWFlPic=

> <r_lp_tautomer_probability>
0.999994

> <r_epik_Ionization_Penalty>
1.08454

> <r_epik_Ionization_Penalty_Charging>
1.08452

> <r_epik_Ionization_Penalty_Neutral>
2.18252e-05

> <r_epik_State_Penalty>
1.14025

> <r_epik_Charging_Adjusted_Penalty>
2.22477

> <i_epik_Tot_Q>
1

> <i_epik_Tot_abs_Q>
1

> <r_epik_Metal_State_Penalty>
1.22975

> <b_epik_Metal_Only>
0

> <s_lp_Force_Field>
OPLS_2005

> <r_lp_Energy>
45.8336

> <b_lp_Chiralities_Consistent>
1

> <s_lp_Variant>
AV-unprocessed.smi:1489-4

> <Gold.Version>
5.8.1

> <Gold.Id.Protein>
6NUR|6NUR_protein|mol2

> <Gold.PLP.Fitness>
42.6382

> <Gold.PLP.PLP>
-34.3957

> <Gold.PLP.part.hbond>
-3.7001

> <Gold.PLP.part.metal>
0.0000

> <Gold.PLP.part.buried>
-1.8883

> <Gold.PLP.part.nonpolar>
-29.2809

> <Gold.PLP.part.repulsive>
0.4453

> <Gold.PLP.ligand.clash>
0.0000

> <Gold.PLP.ligand.torsion>
0.4665

> <Gold.PLP.Chemscore.Hbond>
3.0458

> <Gold.PLP.Chemscore.CHOScore>
0.0000

> <Gold.PLP.Chemscore.Metal>
0.0000

> <Gold.Chemscore.Hbonds>
donor molecule, donor type, donor heavy atom, donor atom, acceptor molecule, acceptor atom, score
      L1  H     3    23       P1  7957  0.06
      L1  H    13    47       P1  8028  2.00
      L1  H    20    42       P1 10957  1.00

> <Gold.PLP.Chemscore.Internal.Correction>
0.0381

> <Gold.Rescore>
     Score         DG    S(hbond)    S(metal)    S(lipo)     H(rot)  DE(clash)    DE(int)     intcor
     16.21     -17.78       2.00        0.00      85.10       1.69       0.07       1.50       ----

> <Gold.Chemscore.Fitness>
16.2120

> <Gold.Chemscore.DG>
-17.7753

> <Gold.Chemscore.ZeroCoef>
-5.4800

> <Gold.Chemscore.Hbond>
1.9978

> <Gold.Chemscore.Metal>
0.0000

> <Gold.Chemscore.Lipo>
85.0970

> <Gold.Chemscore.Internal_Hbond>
0.0000

> <Gold.Chemscore.DEClash>
0.0657

> <Gold.Chemscore.DEInternal>
1.4976

> <Gold.Chemscore.Rot>
1.6929

> <Gold.Chemscore.Internal.Correction>
   9.000000E+99

> <Gold.Chemscore.Hbonds>
donor molecule, donor type, donor heavy atom, donor atom, acceptor molecule, acceptor atom, score
      L1  H     3    23       P1  7957  0.06
      L1  H    13    47       P1  8028  0.97
      L1  H    20    42       P1 10957  0.93

> <Gold.Chemscore.Hbond.Weighted>
-6.6727

> <Gold.Chemscore.Metal.Weighted>
-0.0000

> <Gold.Chemscore.Lipo.Weighted>
-9.9563

> <Gold.Chemscore.Internal_Hbond.Weighted>
0.0000

> <Gold.Chemscore.DEClash.Weighted>
0.0657

> <Gold.Chemscore.DEInternal.Weighted>
1.4976

> <Gold.Chemscore.Rot.Weighted>
4.3338

> <Gold.Chemscore.Internal.Correction.Weighted>
   9.000000E+99

> <Gold.Protein.RotatedTorsions>
[ 6907 6896 6895 6894 ] final -155.76 input  -60.11 | X-H torsion
[ 7974 7965 7964 7962 ] final -133.37 input  175.53 | X-H torsion
[ 8008 7997 7996 7995 ] final -109.02 input   59.86 | X-H torsion
[ 10167 10162 10161 10158 ] final  127.32 input  -65.29 | X-H torsion
[ 10718 10713 10712 10709 ] final  133.35 input   66.30 | X-H torsion
[ 10763 10752 10751 10750 ] final   -8.92 input  -60.55 | X-H torsion
[ 11005 11000 10999 10996 ] final -168.17 input  -57.11 | X-H torsion

> <Gold.Protein.ActiveResidues>
 VAL166  LYS551  ARG553  GLY616  TRP617  ASP618  TYR619  PRO620  LYS621  CYS622 
 ASP623  PHE694  ASN695  SER759  ASP760  ASP761  ALA762  ILE779  LEU786  VAL792 
 PHE793  MET794  SER795  GLU796  ALA797  LYS798  CYS799  TRP800  GLU811  SER814 

> <Gold.Protein.RotatedAtoms>
  151.2773  133.4226  159.2624 H   0  0  0  0  0  0  0  0  0  0  0  0  # atno 6907 bound_to 6896
  151.0391  134.9595  159.8162 H   0  0  0  0  0  0  0  0  0  0  0  0  # atno 6908 bound_to 6896
  152.5361  134.2732  159.9032 H   0  0  0  0  0  0  0  0  0  0  0  0  # atno 6909 bound_to 6896
  144.9199  140.7001  143.4972 H   0  0  0  0  0  0  0  0  0  0  0  0  # atno 7974 bound_to 7965
  154.9531  140.0400  157.2153 H   0  0  0  0  0  0  0  0  0  0  0  0  # atno 8008 bound_to 7997
  154.7960  140.2843  155.5934 H   0  0  0  0  0  0  0  0  0  0  0  0  # atno 8009 bound_to 7997
  156.2955  140.2564  156.2817 H   0  0  0  0  0  0  0  0  0  0  0  0  # atno 8010 bound_to 7997
  139.5584  144.6865  151.4114 H   0  0  0  0  0  0  0  0  0  0  0  0  # atno 10167 bound_to 10162
  157.4782  131.1084  150.9716 H   0  0  0  0  0  0  0  0  0  0  0  0  # atno 10718 bound_to 10713
  153.4474  135.7014  153.6130 H   0  0  0  0  0  0  0  0  0  0  0  0  # atno 10763 bound_to 10752
  153.4480  135.3765  155.2267 H   0  0  0  0  0  0  0  0  0  0  0  0  # atno 10764 bound_to 10752
  154.8728  135.3990  154.3881 H   0  0  0  0  0  0  0  0  0  0  0  0  # atno 10765 bound_to 10752
  140.5450  134.5484  157.5109 H   0  0  0  0  0  0  0  0  0  0  0  0  # atno 11005 bound_to 11000
  145.3313  139.1759  143.4535 LP  0  0  0  0  0  0  0  0  0  0  0  0  # atno 17320 bound_to 7965
  146.3200  140.3343  142.8643 LP  0  0  0  0  0  0  0  0  0  0  0  0  # atno 17321 bound_to 7965
  140.6861  143.7971  150.7188 LP  0  0  0  0  0  0  0  0  0  0  0  0  # atno 17342 bound_to 10162
  140.1439  143.4417  152.2175 LP  0  0  0  0  0  0  0  0  0  0  0  0  # atno 17343 bound_to 10162
  157.0458  130.5767  149.5363 LP  0  0  0  0  0  0  0  0  0  0  0  0  # atno 17370 bound_to 10713
  156.0107  130.5199  150.7980 LP  0  0  0  0  0  0  0  0  0  0  0  0  # atno 17371 bound_to 10713
  139.9484  134.7661  156.0507 LP  0  0  0  0  0  0  0  0  0  0  0  0  # atno 17394 bound_to 11000
  141.1205  133.6614  156.3202 LP  0  0  0  0  0  0  0  0  0  0  0  0  # atno 17395 bound_to 11000

$$$$
