AV-unprocessed.smi:1128|AV-procd|sdf|4844|dock8
  -GOLD-   22720 3413D 1   1.00000     0.00000
 Structure written by MMmdl.
 37 38  0  0  0  0  0  0  0  0  2 V2000
  155.1552  139.1771  160.8066 O   0  0  0  0  0  0  0  0  0  0  0  0
  154.4685  139.4033  159.8110 C   0  0  0  0  0  0  0  0  0  0  0  0
  153.8454  140.5717  159.5991 N   0  0  0  0  0  0  0  0  0  0  0  0
  153.8709  141.7273  160.4918 C   0  0  0  0  0  0  0  0  0  0  0  0
  152.7240  142.7165  160.2000 C   0  0  2  0  0  0  0  0  0  0  0  0
  152.9477  143.5239  158.8989 C   0  0  0  0  0  0  0  0  0  0  0  0
  151.9821  144.6866  158.7550 C   0  0  0  0  0  0  0  0  0  0  0  0
  151.2345  145.1580  159.7665 C   0  0  0  0  0  0  0  0  0  0  0  0
  151.2774  144.5859  161.1709 C   0  0  0  0  0  0  0  0  0  0  0  0
  152.4956  143.6692  161.3897 C   0  0  0  0  0  0  0  0  0  0  0  0
  154.2272  138.5485  158.7999 N   0  0  0  0  0  0  0  0  0  0  0  0
  154.6651  137.2260  158.6056 C   0  0  0  0  0  0  0  0  0  0  0  0
  154.9563  136.3389  159.5980 C   0  0  0  0  0  0  0  0  0  0  0  0
  155.4047  134.9792  159.3231 C   0  0  0  0  0  0  0  0  0  0  0  0
  155.8126  133.9918  160.4023 C   0  0  0  0  0  0  0  0  0  0  0  0
  157.0993  133.6615  160.2897 F   0  0  0  0  0  0  0  0  0  0  0  0
  155.6148  134.5032  161.6175 F   0  0  0  0  0  0  0  0  0  0  0  0
  155.0877  132.8790  160.2963 F   0  0  0  0  0  0  0  0  0  0  0  0
  155.5178  134.7273  157.9699 C   0  0  0  0  0  0  0  0  0  0  0  0
  155.2400  135.5402  156.9276 N   0  5  0  0  0  0  0  0  0  0  0  0
  154.8126  136.8063  157.1958 C   0  0  0  0  0  0  0  0  0  0  0  0
  154.5489  137.6002  156.2918 O   0  0  0  0  0  0  0  0  0  0  0  0
  153.3032  140.6674  158.7528 H   0  0  0  0  0  0  0  0  0  0  0  0
  153.7772  141.3492  161.5102 H   0  0  0  0  0  0  0  0  0  0  0  0
  154.8342  142.2386  160.4485 H   0  0  0  0  0  0  0  0  0  0  0  0
  151.8095  142.1337  160.0762 H   0  0  0  0  0  0  0  0  0  0  0  0
  153.9611  143.9257  158.8686 H   0  0  0  0  0  0  0  0  0  0  0  0
  152.8391  142.8739  158.0303 H   0  0  0  0  0  0  0  0  0  0  0  0
  151.9181  145.1476  157.7802 H   0  0  0  0  0  0  0  0  0  0  0  0
  150.5532  145.9787  159.5943 H   0  0  0  0  0  0  0  0  0  0  0  0
  151.2940  145.4031  161.8924 H   0  0  0  0  0  0  0  0  0  0  0  0
  150.3531  144.0326  161.3388 H   0  0  0  0  0  0  0  0  0  0  0  0
  152.3609  143.1038  162.3124 H   0  0  0  0  0  0  0  0  0  0  0  0
  153.3870  144.2814  161.5339 H   0  0  0  0  0  0  0  0  0  0  0  0
  153.6253  138.8900  158.0649 H   0  0  0  0  0  0  0  0  0  0  0  0
  154.8683  136.6127  160.6353 H   0  0  0  0  0  0  0  0  0  0  0  0
  155.8920  133.7220  157.6808 H   0  0  0  0  0  0  0  0  0  0  0  0
  1  2  2  0  0  0  0
  2  3  1  0  0  0  0
  2 11  1  0  0  0  0
  3  4  1  0  0  0  0
  3 23  1  0  0  0  0
  4  5  1  0  0  0  0
  4 24  1  0  0  0  0
  4 25  1  0  0  0  0
  5 10  1  0  0  0  0
  5  6  1  0  0  0  0
  5 26  1  0  0  0  0
  6  7  1  0  0  0  0
  6 27  1  0  0  0  0
  6 28  1  0  0  0  0
  7  8  2  0  0  0  0
  7 29  1  0  0  0  0
  8  9  1  0  0  0  0
  8 30  1  0  0  0  0
  9 10  1  0  0  0  0
  9 31  1  0  0  0  0
  9 32  1  0  0  0  0
 10 33  1  0  0  0  0
 10 34  1  0  0  0  0
 11 12  1  0  0  0  0
 11 35  1  0  0  0  0
 12 21  1  0  0  0  0
 12 13  2  0  0  0  0
 13 14  1  0  0  0  0
 13 36  1  0  0  0  0
 14 15  1  0  0  0  0
 14 19  2  0  0  0  0
 15 16  1  0  0  0  0
 15 17  1  0  0  0  0
 15 18  1  0  0  0  0
 19 20  1  0  0  0  0
 19 37  1  0  0  0  0
 20 21  1  0  0  0  0
 21 22  2  0  0  0  0
M  CHG  1  20  -1
M  END
> <s_m_source_file>
AV-unprocessed.smi

> <i_m_source_file_index>
1128

> <i_lp_mmshare_version>
43012

> <i_f3d_flags>
0

> <s_epik_input>
Tz1jMVtuSF1bY0hdYyhDKEYpKEYpRilbY0hdYzFbTkhdQyg9TylbTkhdW0NIMl1bQ0BASF0yW0NIMl1bQ0hdPVtDSF1bQ0gyXVtDSDJdMg==

> <s_epik_cmdline>
J2VwaWtfcHl0aG9uJywgJy1waCcsICc3LjAnLCAnLXRuJywgJzgnLCAnLW1hJywgJzIwMCcsICctbWV0YWxfYmluZGluZycsICctaW1hZScsICc8aW5maWxlLm1hZT4nLCAnLW9tYWUnLCAnPG91dGZpbGUubWFlPic=

> <r_lp_tautomer_probability>
1

> <r_epik_Ionization_Penalty>
3.16664

> <r_epik_Ionization_Penalty_Charging>
0.172425

> <r_epik_Ionization_Penalty_Neutral>
2.99422

> <r_epik_State_Penalty>
2.99038

> <r_epik_Charging_Adjusted_Penalty>
3.16281

> <i_epik_Tot_Q>
-1

> <i_epik_Tot_abs_Q>
1

> <r_epik_Metal_State_Penalty>
0.453031

> <b_epik_Metal_Only>
1

> <s_lp_Force_Field>
OPLS_2005

> <r_lp_Energy>
22.3955

> <b_lp_Chiralities_Consistent>
1

> <s_lp_Variant>
AV-unprocessed.smi:1128-3

> <Gold.Version>
5.8.1

> <Gold.Id.Protein>
6NUR|6NUR_protein|mol2

> <Gold.PLP.Fitness>
42.0122

> <Gold.PLP.PLP>
-36.7962

> <Gold.PLP.part.hbond>
-2.3977

> <Gold.PLP.part.metal>
0.0000

> <Gold.PLP.part.buried>
-3.6462

> <Gold.PLP.part.nonpolar>
-30.4823

> <Gold.PLP.part.repulsive>
0.2689

> <Gold.PLP.ligand.clash>
0.0000

> <Gold.PLP.ligand.torsion>
0.4509

> <Gold.PLP.Chemscore.Hbond>
2.0140

> <Gold.PLP.Chemscore.CHOScore>
0.0000

> <Gold.PLP.Chemscore.Metal>
0.0000

> <Gold.Chemscore.Hbonds>
donor molecule, donor type, donor heavy atom, donor atom, acceptor molecule, acceptor atom, score
      P1  H 10752 10763       L1    20  2.00

> <Gold.PLP.Chemscore.Internal.Correction>
0.0756

> <Gold.Rescore>
     Score         DG    S(hbond)    S(metal)    S(lipo)     H(rot)  DE(clash)    DE(int)     intcor
     14.65     -15.90       0.62        0.00      99.78       1.29       0.80       0.45       ----

> <Gold.Chemscore.Fitness>
14.6545

> <Gold.Chemscore.DG>
-15.9009

> <Gold.Chemscore.ZeroCoef>
-5.4800

> <Gold.Chemscore.Hbond>
0.6168

> <Gold.Chemscore.Metal>
0.0000

> <Gold.Chemscore.Lipo>
99.7801

> <Gold.Chemscore.Internal_Hbond>
0.0000

> <Gold.Chemscore.DEClash>
0.7961

> <Gold.Chemscore.DEInternal>
0.4504

> <Gold.Chemscore.Rot>
1.2943

> <Gold.Chemscore.Internal.Correction>
   9.000000E+99

> <Gold.Chemscore.Hbonds>
donor molecule, donor type, donor heavy atom, donor atom, acceptor molecule, acceptor atom, score
      P1  H  7997  8008       L1    22  0.01
      P1  H 10752 10763       L1    20  0.34

> <Gold.Chemscore.Hbond.Weighted>
-2.0600

> <Gold.Chemscore.Metal.Weighted>
-0.0000

> <Gold.Chemscore.Lipo.Weighted>
-11.6743

> <Gold.Chemscore.Internal_Hbond.Weighted>
0.0000

> <Gold.Chemscore.DEClash.Weighted>
0.7961

> <Gold.Chemscore.DEInternal.Weighted>
0.4504

> <Gold.Chemscore.Rot.Weighted>
3.3133

> <Gold.Chemscore.Internal.Correction.Weighted>
   9.000000E+99

> <Gold.Protein.RotatedTorsions>
[ 6907 6896 6895 6894 ] final   68.32 input  -60.11 | X-H torsion
[ 7974 7965 7964 7962 ] final   82.89 input  175.53 | X-H torsion
[ 8008 7997 7996 7995 ] final  -73.96 input   59.86 | X-H torsion
[ 10167 10162 10161 10158 ] final   65.39 input  -65.29 | X-H torsion
[ 10718 10713 10712 10709 ] final  -20.78 input   66.30 | X-H torsion
[ 10763 10752 10751 10750 ] final -175.70 input  -60.55 | X-H torsion
[ 11005 11000 10999 10996 ] final   77.29 input  -57.11 | X-H torsion

> <Gold.Protein.ActiveResidues>
 VAL166  LYS551  ARG553  GLY616  TRP617  ASP618  TYR619  PRO620  LYS621  CYS622 
 ASP623  PHE694  ASN695  SER759  ASP760  ASP761  ALA762  ILE779  LEU786  VAL792 
 PHE793  MET794  SER795  GLU796  ALA797  LYS798  CYS799  TRP800  GLU811  SER814 

> <Gold.Protein.RotatedAtoms>
  152.4612  134.5179  159.9773 H   0  0  0  0  0  0  0  0  0  0  0  0  # atno 6907 bound_to 6896
  151.5228  133.3457  159.2912 H   0  0  0  0  0  0  0  0  0  0  0  0  # atno 6908 bound_to 6896
  150.8576  134.7949  159.7120 H   0  0  0  0  0  0  0  0  0  0  0  0  # atno 6909 bound_to 6896
  145.6192  139.2382  143.2148 H   0  0  0  0  0  0  0  0  0  0  0  0  # atno 7974 bound_to 7965
  154.5291  140.0770  156.8312 H   0  0  0  0  0  0  0  0  0  0  0  0  # atno 8008 bound_to 7997
  155.3413  140.3407  155.4221 H   0  0  0  0  0  0  0  0  0  0  0  0  # atno 8009 bound_to 7997
  156.1762  140.1636  156.8344 H   0  0  0  0  0  0  0  0  0  0  0  0  # atno 8010 bound_to 7997
  140.1119  144.4811  150.6973 H   0  0  0  0  0  0  0  0  0  0  0  0  # atno 10167 bound_to 10162
  156.5272  130.4646  149.6566 H   0  0  0  0  0  0  0  0  0  0  0  0  # atno 10718 bound_to 10713
  154.5812  135.2836  155.0730 H   0  0  0  0  0  0  0  0  0  0  0  0  # atno 10763 bound_to 10752
  154.2066  135.6415  153.5106 H   0  0  0  0  0  0  0  0  0  0  0  0  # atno 10764 bound_to 10752
  153.0089  135.5481  154.6467 H   0  0  0  0  0  0  0  0  0  0  0  0  # atno 10765 bound_to 10752
  139.9261  134.7671  156.1503 H   0  0  0  0  0  0  0  0  0  0  0  0  # atno 11005 bound_to 11000
  146.1444  140.7012  142.9351 LP  0  0  0  0  0  0  0  0  0  0  0  0  # atno 17320 bound_to 7965
  144.7238  140.4459  143.6988 LP  0  0  0  0  0  0  0  0  0  0  0  0  # atno 17321 bound_to 7965
  140.6921  143.2382  151.5102 LP  0  0  0  0  0  0  0  0  0  0  0  0  # atno 17342 bound_to 10162
  139.5615  144.2145  152.1698 LP  0  0  0  0  0  0  0  0  0  0  0  0  # atno 17343 bound_to 10162
  156.3094  130.7220  151.2110 LP  0  0  0  0  0  0  0  0  0  0  0  0  # atno 17370 bound_to 10713
  157.7427  131.0485  150.5000 LP  0  0  0  0  0  0  0  0  0  0  0  0  # atno 17371 bound_to 10713
  141.0819  133.6750  156.2354 LP  0  0  0  0  0  0  0  0  0  0  0  0  # atno 17394 bound_to 11000
  140.6333  134.5241  157.5562 LP  0  0  0  0  0  0  0  0  0  0  0  0  # atno 17395 bound_to 11000

$$$$
