AV-unprocessed.smi:1897|AV-procd|sdf|7693|dock8
  -GOLD-   22720 9433D 1   1.00000     0.00000
 Structure written by MMmdl.
 38 40  0  0  0  0  0  0  0  0  3 V2000
  152.0775  144.1336  160.4336 C   0  0  0  0  0  0  0  0  0  0  0  0
  152.0900  142.9967  159.4701 C   0  0  0  0  0  0  0  0  0  0  0  0
  150.9805  142.5222  158.8983 N   0  0  0  0  0  0  0  0  0  0  0  0
  151.2457  141.4639  158.0419 N   0  0  0  0  0  0  0  0  0  0  0  0
  152.5467  141.1430  157.9897 C   0  0  0  0  0  0  0  0  0  0  0  0
  153.0128  140.1339  157.2303 N   0  5  0  0  0  0  0  0  0  0  0  0
  152.1925  139.2315  156.6321 C   0  0  0  0  0  0  0  0  0  0  0  0
  152.1239  138.0502  156.9693 O   0  0  0  0  0  0  0  0  0  0  0  0
  151.4280  139.6606  155.6099 N   0  0  0  0  0  0  0  0  0  0  0  0
  150.5497  138.8306  154.7923 C   0  0  1  0  0  0  0  0  0  0  0  0
  149.5827  137.9762  155.6224 C   0  0  0  0  0  0  0  0  0  0  0  0
  148.3073  137.8703  154.7678 C   0  0  0  0  0  0  0  0  0  0  0  0
  148.5681  138.6541  153.5398 N   0  3  1  0  0  0  0  0  0  0  0  0
  147.3779  139.1902  152.8314 C   0  0  0  0  0  0  0  0  0  0  0  0
  146.8055  140.4508  153.5010 C   0  0  0  0  0  0  0  0  0  0  0  0
  147.8973  141.5099  153.6824 C   0  0  0  0  0  0  0  0  0  0  0  0
  149.0473  140.9260  154.5093 C   0  0  0  0  0  0  0  0  0  0  0  0
  149.6239  139.6372  153.8667 C   0  0  1  0  0  0  0  0  0  0  0  0
  153.5641  142.1656  159.0023 S   0  0  0  0  0  0  0  0  0  0  0  0
  151.8165  143.7740  161.4289 H   0  0  0  0  0  0  0  0  0  0  0  0
  151.3469  144.8825  160.1265 H   0  0  0  0  0  0  0  0  0  0  0  0
  153.0601  144.6034  160.4769 H   0  0  0  0  0  0  0  0  0  0  0  0
  151.5003  140.6352  155.3561 H   0  0  0  0  0  0  0  0  0  0  0  0
  151.1542  138.1549  154.1837 H   0  0  0  0  0  0  0  0  0  0  0  0
  150.0076  136.9984  155.8510 H   0  0  0  0  0  0  0  0  0  0  0  0
  149.3486  138.4617  156.5713 H   0  0  0  0  0  0  0  0  0  0  0  0
  148.0724  136.8374  154.5095 H   0  0  0  0  0  0  0  0  0  0  0  0
  147.4579  138.2770  155.3180 H   0  0  0  0  0  0  0  0  0  0  0  0
  147.6788  139.4332  151.8115 H   0  0  0  0  0  0  0  0  0  0  0  0
  146.6154  138.4147  152.7526 H   0  0  0  0  0  0  0  0  0  0  0  0
  145.9934  140.8545  152.8955 H   0  0  0  0  0  0  0  0  0  0  0  0
  146.3698  140.1996  154.4686 H   0  0  0  0  0  0  0  0  0  0  0  0
  148.2666  141.8385  152.7102 H   0  0  0  0  0  0  0  0  0  0  0  0
  147.4883  142.3910  154.1776 H   0  0  0  0  0  0  0  0  0  0  0  0
  149.8323  141.6755  154.6164 H   0  0  0  0  0  0  0  0  0  0  0  0
  148.6876  140.7175  155.5176 H   0  0  0  0  0  0  0  0  0  0  0  0
  150.1485  139.9083  152.9492 H   0  0  0  0  0  0  0  0  0  0  0  0
  149.0035  137.9995  152.9056 H   0  0  0  0  0  0  0  0  0  0  0  0
  1  2  1  0  0  0  0
  1 20  1  0  0  0  0
  1 21  1  0  0  0  0
  1 22  1  0  0  0  0
  2 19  1  0  0  0  0
  2  3  2  0  0  0  0
  3  4  1  0  0  0  0
  4  5  2  0  0  0  0
  5  6  1  0  0  0  0
  5 19  1  0  0  0  0
  6  7  1  0  0  0  0
  7  8  2  0  0  0  0
  7  9  1  0  0  0  0
  9 10  1  0  0  0  0
  9 23  1  0  0  0  0
 10 18  1  0  0  0  0
 10 11  1  0  0  0  0
 10 24  1  0  0  0  0
 11 12  1  0  0  0  0
 11 25  1  0  0  0  0
 11 26  1  0  0  0  0
 12 13  1  0  0  0  0
 12 27  1  0  0  0  0
 12 28  1  0  0  0  0
 13 18  1  0  0  0  0
 13 14  1  0  0  0  0
 13 38  1  0  0  0  0
 14 15  1  0  0  0  0
 14 29  1  0  0  0  0
 14 30  1  0  0  0  0
 15 16  1  0  0  0  0
 15 31  1  0  0  0  0
 15 32  1  0  0  0  0
 16 17  1  0  0  0  0
 16 33  1  0  0  0  0
 16 34  1  0  0  0  0
 17 18  1  0  0  0  0
 17 35  1  0  0  0  0
 17 36  1  0  0  0  0
 18 37  1  0  0  0  0
M  CHG  1   6  -1
M  CHG  1  13   1
M  END
> <s_m_source_file>
AV-unprocessed.smi

> <i_m_source_file_index>
1897

> <i_lp_mmshare_version>
43012

> <i_f3d_flags>
0

> <s_epik_input>
W0NIM11jMW5uYyhzMSlbTkhdQyg9TylbTkhdW0NASF0oW0NIMl1bQ0gyXTIpW0NAQEhdKE4yMylbQ0gyXVtDSDJdW0NIMl1bQ0gyXTM=

> <s_epik_cmdline>
J2VwaWtfcHl0aG9uJywgJy1waCcsICc3LjAnLCAnLXRuJywgJzgnLCAnLW1hJywgJzIwMCcsICctbWV0YWxfYmluZGluZycsICctaW1hZScsICc8aW5maWxlLm1hZT4nLCAnLW9tYWUnLCAnPG91dGZpbGUubWFlPic=

> <r_lp_tautomer_probability>
1

> <r_epik_Ionization_Penalty>
3.77712

> <r_epik_Ionization_Penalty_Charging>
3.67739

> <r_epik_Ionization_Penalty_Neutral>
0.0997294

> <r_epik_State_Penalty>
3.67514

> <r_epik_Charging_Adjusted_Penalty>
7.35254

> <i_epik_Tot_Q>
0

> <i_epik_Tot_abs_Q>
2

> <r_epik_Metal_State_Penalty>
0.540795

> <b_epik_Metal_Only>
1

> <s_lp_Force_Field>
OPLS_2005

> <r_lp_Energy>
30.11

> <b_lp_Chiralities_Consistent>
1

> <s_lp_Variant>
AV-unprocessed.smi:1897-10

> <Gold.Version>
5.8.1

> <Gold.Id.Protein>
6NUR|6NUR_protein|mol2

> <Gold.PLP.Fitness>
40.5021

> <Gold.PLP.PLP>
-30.0276

> <Gold.PLP.part.hbond>
-3.6685

> <Gold.PLP.part.metal>
0.0000

> <Gold.PLP.part.buried>
0.5330

> <Gold.PLP.part.nonpolar>
-26.7897

> <Gold.PLP.part.repulsive>
0.1683

> <Gold.PLP.ligand.clash>
0.0000

> <Gold.PLP.ligand.torsion>
0.7647

> <Gold.PLP.Chemscore.Hbond>
4.0000

> <Gold.PLP.Chemscore.CHOScore>
0.0000

> <Gold.PLP.Chemscore.Metal>
0.0000

> <Gold.Chemscore.Hbonds>
donor molecule, donor type, donor heavy atom, donor atom, acceptor molecule, acceptor atom, score
      L1  H    13    38       P1  7948  2.00
      P1  H  7997  8010       L1     6  1.78

> <Gold.PLP.Chemscore.Internal.Correction>
0.0040

> <Gold.Rescore>
     Score         DG    S(hbond)    S(metal)    S(lipo)     H(rot)  DE(clash)    DE(int)     intcor
     14.93     -17.33       1.70        0.00      74.52       1.00       0.03       2.36       ----

> <Gold.Chemscore.Fitness>
14.9300

> <Gold.Chemscore.DG>
-17.3278

> <Gold.Chemscore.ZeroCoef>
-5.4800

> <Gold.Chemscore.Hbond>
1.7032

> <Gold.Chemscore.Metal>
0.0000

> <Gold.Chemscore.Lipo>
74.5240

> <Gold.Chemscore.Internal_Hbond>
0.0000

> <Gold.Chemscore.DEClash>
0.0339

> <Gold.Chemscore.DEInternal>
2.3639

> <Gold.Chemscore.Rot>
1.0000

> <Gold.Chemscore.Internal.Correction>
   9.000000E+99

> <Gold.Chemscore.Hbonds>
donor molecule, donor type, donor heavy atom, donor atom, acceptor molecule, acceptor atom, score
      L1  H    13    38       P1  7948  0.90
      P1  H  7997  8010       L1     6  0.57

> <Gold.Chemscore.Hbond.Weighted>
-5.6885

> <Gold.Chemscore.Metal.Weighted>
-0.0000

> <Gold.Chemscore.Lipo.Weighted>
-8.7193

> <Gold.Chemscore.Internal_Hbond.Weighted>
0.0000

> <Gold.Chemscore.DEClash.Weighted>
0.0339

> <Gold.Chemscore.DEInternal.Weighted>
2.3639

> <Gold.Chemscore.Rot.Weighted>
2.5600

> <Gold.Chemscore.Internal.Correction.Weighted>
   9.000000E+99

> <Gold.Protein.RotatedTorsions>
[ 6907 6896 6895 6894 ] final  112.59 input  -60.11 | X-H torsion
[ 7974 7965 7964 7962 ] final  -27.20 input  175.53 | X-H torsion
[ 8008 7997 7996 7995 ] final   67.94 input   59.86 | X-H torsion
[ 10167 10162 10161 10158 ] final -153.34 input  -65.29 | X-H torsion
[ 10718 10713 10712 10709 ] final   68.36 input   66.30 | X-H torsion
[ 10763 10752 10751 10750 ] final   64.84 input  -60.55 | X-H torsion
[ 11005 11000 10999 10996 ] final   31.50 input  -57.11 | X-H torsion

> <Gold.Protein.ActiveResidues>
 VAL166  LYS551  ARG553  GLY616  TRP617  ASP618  TYR619  PRO620  LYS621  CYS622 
 ASP623  PHE694  ASN695  SER759  ASP760  ASP761  ALA762  ILE779  LEU786  VAL792 
 PHE793  MET794  SER795  GLU796  ALA797  LYS798  CYS799  TRP800  GLU811  SER814 

> <Gold.Protein.RotatedAtoms>
  152.4908  133.8495  159.7193 H   0  0  0  0  0  0  0  0  0  0  0  0  # atno 6907 bound_to 6896
  150.9036  133.7077  159.2879 H   0  0  0  0  0  0  0  0  0  0  0  0  # atno 6908 bound_to 6896
  151.4510  135.1034  159.9750 H   0  0  0  0  0  0  0  0  0  0  0  0  # atno 6909 bound_to 6896
  146.1374  140.5120  142.8667 H   0  0  0  0  0  0  0  0  0  0  0  0  # atno 7974 bound_to 7965
  155.7007  140.3495  155.4932 H   0  0  0  0  0  0  0  0  0  0  0  0  # atno 8008 bound_to 7997
  155.9443  140.1107  157.1052 H   0  0  0  0  0  0  0  0  0  0  0  0  # atno 8009 bound_to 7997
  154.4109  140.1206  156.4954 H   0  0  0  0  0  0  0  0  0  0  0  0  # atno 8010 bound_to 7997
  139.7105  143.9116  152.2466 H   0  0  0  0  0  0  0  0  0  0  0  0  # atno 10167 bound_to 10162
  157.6285  130.9369  150.0367 H   0  0  0  0  0  0  0  0  0  0  0  0  # atno 10718 bound_to 10713
  153.0072  135.5378  154.6574 H   0  0  0  0  0  0  0  0  0  0  0  0  # atno 10763 bound_to 10752
  154.5791  135.2848  155.0753 H   0  0  0  0  0  0  0  0  0  0  0  0  # atno 10764 bound_to 10752
  154.1889  135.6503  153.5107 H   0  0  0  0  0  0  0  0  0  0  0  0  # atno 10765 bound_to 10752
  140.2833  134.2948  155.7795 H   0  0  0  0  0  0  0  0  0  0  0  0  # atno 11005 bound_to 11000
  144.7755  140.5729  143.6641 LP  0  0  0  0  0  0  0  0  0  0  0  0  # atno 17320 bound_to 7965
  145.5124  139.1479  143.3597 LP  0  0  0  0  0  0  0  0  0  0  0  0  # atno 17321 bound_to 7965
  139.8984  144.6926  150.8693 LP  0  0  0  0  0  0  0  0  0  0  0  0  # atno 17342 bound_to 10162
  140.7732  143.3533  151.1972 LP  0  0  0  0  0  0  0  0  0  0  0  0  # atno 17343 bound_to 10162
  156.1472  130.3642  149.9493 LP  0  0  0  0  0  0  0  0  0  0  0  0  # atno 17370 bound_to 10713
  156.7521  130.9119  151.3638 LP  0  0  0  0  0  0  0  0  0  0  0  0  # atno 17371 bound_to 10713
  141.2159  133.7539  156.9513 LP  0  0  0  0  0  0  0  0  0  0  0  0  # atno 17394 bound_to 11000
  140.1263  134.9384  157.2275 LP  0  0  0  0  0  0  0  0  0  0  0  0  # atno 17395 bound_to 11000

$$$$
