AV-unprocessed.smi:3176|AV-procd|sdf|12127|dock4
  -GOLD-   2272017563D 1   1.00000     0.00000
 Structure written by MMmdl.
 33 34  0  0  0  0  0  0  0  0  2 V2000
  149.9607  140.0435  154.2140 O   0  0  0  0  0  0  0  0  0  0  0  0
  149.3819  141.1177  154.3772 C   0  0  0  0  0  0  0  0  0  0  0  0
  149.8007  142.0436  155.2539 N   0  0  0  0  0  0  0  0  0  0  0  0
  150.9248  141.8895  156.1723 C   0  0  0  0  0  0  0  0  0  0  0  0
  150.4851  141.8343  157.6501 C   0  0  0  0  0  0  0  0  0  0  0  0
  151.0358  142.9742  158.4902 C   0  0  0  0  0  0  0  0  0  0  0  0
  151.8780  142.7486  159.6011 C   0  0  0  0  0  0  0  0  0  0  0  0
  152.3381  143.8495  160.3525 C   0  0  0  0  0  0  0  0  0  0  0  0
  151.9494  145.1519  159.9763 C   0  0  0  0  0  0  0  0  0  0  0  0
  151.1097  145.3203  158.8562 C   0  0  0  0  0  0  0  0  0  0  0  0
  150.6887  144.2397  158.1624 N   0  3  0  0  0  0  0  0  0  0  0  0
  148.1137  141.4655  153.5789 C   0  0  1  0  0  0  0  0  0  0  0  0
  146.8886  140.6028  153.9231 C   0  0  0  0  0  0  0  0  0  0  0  0
  146.2200  141.3995  155.0217 C   0  0  0  0  0  0  0  0  0  0  0  0
  146.4535  142.8251  154.5390 C   0  0  0  0  0  0  0  0  0  0  0  0
  147.7268  142.8055  153.9001 O   0  0  0  0  0  0  0  0  0  0  0  0
  149.2737  142.9032  155.3145 H   0  0  0  0  0  0  0  0  0  0  0  0
  151.5089  141.0052  155.9133 H   0  0  0  0  0  0  0  0  0  0  0  0
  151.5815  142.7467  156.0225 H   0  0  0  0  0  0  0  0  0  0  0  0
  149.3960  141.8527  157.7086 H   0  0  0  0  0  0  0  0  0  0  0  0
  150.7916  140.8848  158.0906 H   0  0  0  0  0  0  0  0  0  0  0  0
  152.1609  141.7439  159.8804 H   0  0  0  0  0  0  0  0  0  0  0  0
  152.9788  143.6959  161.2085 H   0  0  0  0  0  0  0  0  0  0  0  0
  152.2900  146.0090  160.5389 H   0  0  0  0  0  0  0  0  0  0  0  0
  150.7627  146.2787  158.4983 H   0  0  0  0  0  0  0  0  0  0  0  0
  148.3476  141.3922  152.5163 H   0  0  0  0  0  0  0  0  0  0  0  0
  146.2288  140.5420  153.0567 H   0  0  0  0  0  0  0  0  0  0  0  0
  147.1194  139.5805  154.2246 H   0  0  0  0  0  0  0  0  0  0  0  0
  145.1640  141.1587  155.1457 H   0  0  0  0  0  0  0  0  0  0  0  0
  146.7254  141.2311  155.9732 H   0  0  0  0  0  0  0  0  0  0  0  0
  145.6987  143.1048  153.8030 H   0  0  0  0  0  0  0  0  0  0  0  0
  146.4239  143.5530  155.3498 H   0  0  0  0  0  0  0  0  0  0  0  0
  150.0789  144.3849  157.3575 H   0  0  0  0  0  0  0  0  0  0  0  0
  1  2  2  0  0  0  0
  2  3  1  0  0  0  0
  2 12  1  0  0  0  0
  3  4  1  0  0  0  0
  3 17  1  0  0  0  0
  4  5  1  0  0  0  0
  4 18  1  0  0  0  0
  4 19  1  0  0  0  0
  5  6  1  0  0  0  0
  5 20  1  0  0  0  0
  5 21  1  0  0  0  0
  6 11  1  0  0  0  0
  6  7  2  0  0  0  0
  7  8  1  0  0  0  0
  7 22  1  0  0  0  0
  8  9  2  0  0  0  0
  8 23  1  0  0  0  0
  9 10  1  0  0  0  0
  9 24  1  0  0  0  0
 10 11  2  0  0  0  0
 10 25  1  0  0  0  0
 11 33  1  0  0  0  0
 12 16  1  0  0  0  0
 12 13  1  0  0  0  0
 12 26  1  0  0  0  0
 13 14  1  0  0  0  0
 13 27  1  0  0  0  0
 13 28  1  0  0  0  0
 14 15  1  0  0  0  0
 14 29  1  0  0  0  0
 14 30  1  0  0  0  0
 15 16  1  0  0  0  0
 15 31  1  0  0  0  0
 15 32  1  0  0  0  0
M  CHG  1  11   1
M  END
> <s_m_source_file>
AV-unprocessed.smi

> <i_m_source_file_index>
3176

> <i_lp_mmshare_version>
43012

> <i_f3d_flags>
0

> <s_epik_input>
TzFbQ0gyXVtDSDJdW0NIMl1bQ0BIXTFDKD1PKVtOSF1bQ0gyXVtDSDJdYzJbY0hdW2NIXVtjSF1bY0hdbjI=

> <s_epik_cmdline>
J2VwaWtfcHl0aG9uJywgJy1waCcsICc3LjAnLCAnLXRuJywgJzgnLCAnLW1hJywgJzIwMCcsICctbWV0YWxfYmluZGluZycsICctaW1hZScsICc8aW5maWxlLm1hZT4nLCAnLW9tYWUnLCAnPG91dGZpbGUubWFlPic=

> <r_epik_Ionization_Penalty>
1.81664

> <r_epik_Ionization_Penalty_Charging>
1.81664

> <r_epik_Ionization_Penalty_Neutral>
5.71603e-08

> <r_epik_State_Penalty>
1.93152

> <r_epik_Charging_Adjusted_Penalty>
3.74817

> <i_epik_Tot_Q>
1

> <i_epik_Tot_abs_Q>
1

> <r_epik_Metal_State_Penalty>
1.95876

> <b_epik_Metal_Only>
0

> <s_lp_Force_Field>
OPLS_2005

> <r_lp_Energy>
22.6844

> <b_lp_Chiralities_Consistent>
1

> <s_lp_Variant>
AV-unprocessed.smi:3176-4

> <Gold.Version>
5.8.1

> <Gold.Id.Protein>
6NUR|6NUR_protein|mol2

> <Gold.PLP.Fitness>
46.6545

> <Gold.PLP.PLP>
-35.4538

> <Gold.PLP.part.hbond>
-4.0774

> <Gold.PLP.part.metal>
0.0000

> <Gold.PLP.part.buried>
-3.6756

> <Gold.PLP.part.nonpolar>
-28.7693

> <Gold.PLP.part.repulsive>
2.5409

> <Gold.PLP.ligand.clash>
0.0000

> <Gold.PLP.ligand.torsion>
0.4797

> <Gold.PLP.Chemscore.Hbond>
4.0431

> <Gold.PLP.Chemscore.CHOScore>
0.0000

> <Gold.PLP.Chemscore.Metal>
0.0000

> <Gold.Chemscore.Hbonds>
donor molecule, donor type, donor heavy atom, donor atom, acceptor molecule, acceptor atom, score
      L1  H     3    17       P1  8028  1.00
      L1  H    11    33       P1  8028  1.79
      P1  H  7989  7998       L1     1  0.67
      P1  H  8022  8030       L1    16  0.53

> <Gold.PLP.Chemscore.Internal.Correction>
0.0308

> <Gold.Rescore>
     Score         DG    S(hbond)    S(metal)    S(lipo)     H(rot)  DE(clash)    DE(int)     intcor
     17.12     -19.15       2.06        0.00      93.06       1.61       1.45       0.57       ----

> <Gold.Chemscore.Fitness>
17.1234

> <Gold.Chemscore.DG>
-19.1462

> <Gold.Chemscore.ZeroCoef>
-5.4800

> <Gold.Chemscore.Hbond>
2.0622

> <Gold.Chemscore.Metal>
0.0000

> <Gold.Chemscore.Lipo>
93.0624

> <Gold.Chemscore.Internal_Hbond>
0.0000

> <Gold.Chemscore.DEClash>
1.4528

> <Gold.Chemscore.DEInternal>
0.5699

> <Gold.Chemscore.Rot>
1.6054

> <Gold.Chemscore.Internal.Correction>
   9.000000E+99

> <Gold.Chemscore.Hbonds>
donor molecule, donor type, donor heavy atom, donor atom, acceptor molecule, acceptor atom, score
      L1  H     3    17       P1  8028  0.99
      L1  H    11    33       P1  8028  0.39
      P1  H  7989  7998       L1     1  0.07
      P1  H  8022  8030       L1    16  0.46

> <Gold.Chemscore.Hbond.Weighted>
-6.8876

> <Gold.Chemscore.Metal.Weighted>
-0.0000

> <Gold.Chemscore.Lipo.Weighted>
-10.8883

> <Gold.Chemscore.Internal_Hbond.Weighted>
0.0000

> <Gold.Chemscore.DEClash.Weighted>
1.4528

> <Gold.Chemscore.DEInternal.Weighted>
0.5699

> <Gold.Chemscore.Rot.Weighted>
4.1097

> <Gold.Chemscore.Internal.Correction.Weighted>
   9.000000E+99

> <Gold.Protein.RotatedTorsions>
[ 6907 6896 6895 6894 ] final  116.51 input  -60.11 | X-H torsion
[ 7974 7965 7964 7962 ] final  175.06 input  175.53 | X-H torsion
[ 8008 7997 7996 7995 ] final   98.70 input   59.86 | X-H torsion
[ 10167 10162 10161 10158 ] final   75.16 input  -65.29 | X-H torsion
[ 10718 10713 10712 10709 ] final  -25.92 input   66.30 | X-H torsion
[ 10763 10752 10751 10750 ] final  137.28 input  -60.55 | X-H torsion
[ 11005 11000 10999 10996 ] final   87.95 input  -57.11 | X-H torsion

> <Gold.Protein.ActiveResidues>
 VAL166  LYS551  ARG553  GLY616  TRP617  ASP618  TYR619  PRO620  LYS621  CYS622 
 ASP623  PHE694  ASN695  SER759  ASP760  ASP761  ALA762  ILE779  LEU786  VAL792 
 PHE793  MET794  SER795  GLU796  ALA797  LYS798  CYS799  TRP800  GLU811  SER814 

> <Gold.Protein.RotatedAtoms>
  152.4673  133.7951  159.6922 H   0  0  0  0  0  0  0  0  0  0  0  0  # atno 6907 bound_to 6896
  150.8643  133.7587  159.2988 H   0  0  0  0  0  0  0  0  0  0  0  0  # atno 6908 bound_to 6896
  151.5142  135.1069  159.9914 H   0  0  0  0  0  0  0  0  0  0  0  0  # atno 6909 bound_to 6896
  144.7209  139.9891  143.6439 H   0  0  0  0  0  0  0  0  0  0  0  0  # atno 7974 bound_to 7965
  156.1031  140.3240  155.7969 H   0  0  0  0  0  0  0  0  0  0  0  0  # atno 8008 bound_to 7997
  155.4802  140.0553  157.2985 H   0  0  0  0  0  0  0  0  0  0  0  0  # atno 8009 bound_to 7997
  154.4710  140.2011  156.0010 H   0  0  0  0  0  0  0  0  0  0  0  0  # atno 8010 bound_to 7997
  140.0059  144.5651  150.7698 H   0  0  0  0  0  0  0  0  0  0  0  0  # atno 10167 bound_to 10162
  156.4580  130.4498  149.6947 H   0  0  0  0  0  0  0  0  0  0  0  0  # atno 10718 bound_to 10713
  153.8705  135.3056  155.3442 H   0  0  0  0  0  0  0  0  0  0  0  0  # atno 10763 bound_to 10752
  154.7808  135.4836  153.9843 H   0  0  0  0  0  0  0  0  0  0  0  0  # atno 10764 bound_to 10752
  153.1409  135.6824  153.9124 H   0  0  0  0  0  0  0  0  0  0  0  0  # atno 10765 bound_to 10752
  139.8907  134.8456  156.2931 H   0  0  0  0  0  0  0  0  0  0  0  0  # atno 11005 bound_to 11000
  146.0426  139.3436  143.0688 LP  0  0  0  0  0  0  0  0  0  0  0  0  # atno 17320 bound_to 7965
  145.8315  140.9628  143.0846 LP  0  0  0  0  0  0  0  0  0  0  0  0  # atno 17321 bound_to 7965
  140.7400  143.2799  151.3629 LP  0  0  0  0  0  0  0  0  0  0  0  0  # atno 17342 bound_to 10162
  139.6239  144.0853  152.2416 LP  0  0  0  0  0  0  0  0  0  0  0  0  # atno 17343 bound_to 10162
  156.3746  130.7548  151.2535 LP  0  0  0  0  0  0  0  0  0  0  0  0  # atno 17370 bound_to 10713
  157.7499  131.0313  150.4176 LP  0  0  0  0  0  0  0  0  0  0  0  0  # atno 17371 bound_to 10713
  140.9963  133.7178  156.0891 LP  0  0  0  0  0  0  0  0  0  0  0  0  # atno 17394 bound_to 11000
  140.7558  134.3994  157.5534 LP  0  0  0  0  0  0  0  0  0  0  0  0  # atno 17395 bound_to 11000

$$$$
