AV-unprocessed.smi:48|AV-procd|sdf|458|dock2
  -GOLD-   2262016323D 1   1.00000     0.00000
 Structure written by MMmdl.
 30 32  0  0  0  0  0  0  0  0  1 V2000
  149.2622  137.2824  154.1773 O   0  0  0  0  0  0  0  0  0  0  0  0
  150.4942  137.7475  154.6854 C   0  0  0  0  0  0  0  0  0  0  0  0
  150.5985  139.2697  154.5074 C   0  0  2  0  0  0  0  0  0  0  0  0
  151.6163  139.7832  155.3551 O   0  0  0  0  0  0  0  0  0  0  0  0
  151.3560  141.1177  155.6574 C   0  0  2  0  0  0  0  0  0  0  0  0
  151.6557  141.3139  157.1115 N   0  0  0  0  0  0  0  0  0  0  0  0
  151.8466  140.3619  158.0472 C   0  0  0  0  0  0  0  0  0  0  0  0
  152.1038  140.7660  159.2906 N   0  0  0  0  0  0  0  0  0  0  0  0
  152.0711  142.1435  159.1460 C   0  0  0  0  0  0  0  0  0  0  0  0
  152.2587  143.2094  160.0591 C   0  0  0  0  0  0  0  0  0  0  0  0
  152.6064  142.9046  161.7217 Cl  0  0  0  0  0  0  0  0  0  0  0  0
  152.1589  144.4792  159.5983 N   0  0  0  0  0  0  0  0  0  0  0  0
  151.8896  144.6875  158.3036 C   0  0  0  0  0  0  0  0  0  0  0  0
  151.6913  143.7901  157.3315 N   0  0  0  0  0  0  0  0  0  0  0  0
  151.7910  142.5101  157.7988 C   0  0  0  0  0  0  0  0  0  0  0  0
  149.8801  141.4069  155.3013 C   0  0  2  0  0  0  0  0  0  0  0  0
  149.1260  142.0007  156.3435 O   0  0  0  0  0  0  0  0  0  0  0  0
  149.3444  140.0222  154.9616 C   0  0  1  0  0  0  0  0  0  0  0  0
  148.4044  140.0914  153.9076 O   0  0  0  0  0  0  0  0  0  0  0  0
  150.8348  139.5353  153.4746 H   0  0  0  0  0  0  0  0  0  0  0  0
  152.0553  141.7737  155.1373 H   0  0  0  0  0  0  0  0  0  0  0  0
  149.8735  142.0550  154.4235 H   0  0  0  0  0  0  0  0  0  0  0  0
  148.9070  139.5436  155.8393 H   0  0  0  0  0  0  0  0  0  0  0  0
  149.3877  137.0239  153.2769 H   0  0  0  0  0  0  0  0  0  0  0  0
  150.5285  137.4902  155.7443 H   0  0  0  0  0  0  0  0  0  0  0  0
  151.3247  137.2334  154.2006 H   0  0  0  0  0  0  0  0  0  0  0  0
  151.7987  139.3113  157.8009 H   0  0  0  0  0  0  0  0  0  0  0  0
  151.8224  145.7223  158.0019 H   0  0  0  0  0  0  0  0  0  0  0  0
  149.1949  142.9399  156.2683 H   0  0  0  0  0  0  0  0  0  0  0  0
  148.8549  139.9353  153.0919 H   0  0  0  0  0  0  0  0  0  0  0  0
  1  2  1  0  0  0  0
  1 24  1  0  0  0  0
  2  3  1  0  0  0  0
  2 25  1  0  0  0  0
  2 26  1  0  0  0  0
  3 20  1  0  0  0  0
  3 18  1  0  0  0  0
  3  4  1  0  0  0  0
  4  5  1  0  0  0  0
  5 21  1  0  0  0  0
  5  6  1  0  0  0  0
  5 16  1  0  0  0  0
  6 15  1  0  0  0  0
  6  7  1  0  0  0  0
  7  8  2  0  0  0  0
  7 27  1  0  0  0  0
  8  9  1  0  0  0  0
  9 15  2  0  0  0  0
  9 10  1  0  0  0  0
 10 11  1  0  0  0  0
 10 12  2  0  0  0  0
 12 13  1  0  0  0  0
 13 14  2  0  0  0  0
 13 28  1  0  0  0  0
 14 15  1  0  0  0  0
 16 22  1  0  0  0  0
 16 17  1  0  0  0  0
 16 18  1  0  0  0  0
 17 29  1  0  0  0  0
 18 23  1  0  0  0  0
 18 19  1  0  0  0  0
 19 30  1  0  0  0  0
M  END
> <s_m_source_file>
AV-unprocessed.smi

> <i_m_source_file_index>
48

> <i_lp_mmshare_version>
43012

> <i_f3d_flags>
0

> <s_epik_input>
W09IXVtDSDJdW0NASF0xT1tDQEhdKFtDQEhdKFtPSF0pW0NAQEhdMVtPSF0pbihbY0hdbjIpYyhjMjMpbltjSF1uYzNDbA==

> <s_epik_cmdline>
J2VwaWtfcHl0aG9uJywgJy1waCcsICc3LjAnLCAnLXRuJywgJzgnLCAnLW1hJywgJzIwMCcsICctbWV0YWxfYmluZGluZycsICctaW1hZScsICc8aW5maWxlLm1hZT4nLCAnLW9tYWUnLCAnPG91dGZpbGUubWFlPic=

> <r_lp_tautomer_probability>
1

> <r_epik_Ionization_Penalty>
3.45505e-06

> <r_epik_Ionization_Penalty_Charging>
0

> <r_epik_Ionization_Penalty_Neutral>
3.45505e-06

> <r_epik_State_Penalty>
-0

> <r_epik_Charging_Adjusted_Penalty>
0

> <i_epik_Tot_Q>
0

> <i_epik_Tot_abs_Q>
0

> <r_epik_Metal_State_Penalty>
-0

> <b_epik_Metal_Only>
0

> <s_epik_Chemistry_Notes>
This compound contains an acetal/aminal-like group ( X-CH(R)-Y where X, Y are N, S, or O) that may be acid/base labile, releasing an aldehyde.

> <s_lp_Force_Field>
OPLS_2005

> <r_lp_Energy>
37.188

> <b_lp_Chiralities_Consistent>
1

> <s_lp_Variant>
AV-unprocessed.smi:48-12

> <Gold.Version>
5.8.1

> <Gold.Id.Protein>
6NUR|6NUR_protein|mol2

> <Gold.PLP.Fitness>
44.6322

> <Gold.PLP.PLP>
-36.5682

> <Gold.PLP.part.hbond>
-3.7617

> <Gold.PLP.part.metal>
0.0000

> <Gold.PLP.part.buried>
-4.7191

> <Gold.PLP.part.nonpolar>
-26.1650

> <Gold.PLP.part.repulsive>
0.1727

> <Gold.PLP.ligand.clash>
0.0000

> <Gold.PLP.ligand.torsion>
0.4593

> <Gold.PLP.Chemscore.Hbond>
2.9913

> <Gold.PLP.Chemscore.CHOScore>
0.0000

> <Gold.PLP.Chemscore.Metal>
0.0000

> <Gold.Chemscore.Hbonds>
donor molecule, donor type, donor heavy atom, donor atom, acceptor molecule, acceptor atom, score
      L1  H     1    24       P1  7948  1.00
      L1  H    17    29       P1  8028  1.00
      L1  H    19    30       P1  7957  0.89

> <Gold.PLP.Chemscore.Internal.Correction>
0.0088

> <Gold.Rescore>
     Score         DG    S(hbond)    S(metal)    S(lipo)     H(rot)  DE(clash)    DE(int)     intcor
     11.16     -12.41       2.86        0.00      60.78       3.80       0.64       0.61       ----

> <Gold.Chemscore.Fitness>
11.1643

> <Gold.Chemscore.DG>
-12.4138

> <Gold.Chemscore.ZeroCoef>
-5.4800

> <Gold.Chemscore.Hbond>
2.8608

> <Gold.Chemscore.Metal>
0.0000

> <Gold.Chemscore.Lipo>
60.7776

> <Gold.Chemscore.Internal_Hbond>
0.0000

> <Gold.Chemscore.DEClash>
0.6442

> <Gold.Chemscore.DEInternal>
0.6053

> <Gold.Chemscore.Rot>
3.8017

> <Gold.Chemscore.Internal.Correction>
   9.000000E+99

> <Gold.Chemscore.Hbonds>
donor molecule, donor type, donor heavy atom, donor atom, acceptor molecule, acceptor atom, score
      L1  H     1    24       P1  7948  0.91
      L1  H    17    29       P1  8028  0.99
      L1  H    19    30       P1  7957  0.86

> <Gold.Chemscore.Hbond.Weighted>
-9.5552

> <Gold.Chemscore.Metal.Weighted>
-0.0000

> <Gold.Chemscore.Lipo.Weighted>
-7.1110

> <Gold.Chemscore.Internal_Hbond.Weighted>
0.0000

> <Gold.Chemscore.DEClash.Weighted>
0.6442

> <Gold.Chemscore.DEInternal.Weighted>
0.6053

> <Gold.Chemscore.Rot.Weighted>
9.7324

> <Gold.Chemscore.Internal.Correction.Weighted>
   9.000000E+99

> <Gold.Protein.RotatedTorsions>
[ 6907 6896 6895 6894 ] final   12.45 input  -60.11 | X-H torsion
[ 7974 7965 7964 7962 ] final  150.65 input  175.53 | X-H torsion
[ 8008 7997 7996 7995 ] final -104.62 input   59.86 | X-H torsion
[ 10167 10162 10161 10158 ] final   57.97 input  -65.29 | X-H torsion
[ 10718 10713 10712 10709 ] final  -69.95 input   66.30 | X-H torsion
[ 10763 10752 10751 10750 ] final   57.65 input  -60.55 | X-H torsion
[ 11005 11000 10999 10996 ] final  -76.58 input  -57.11 | X-H torsion

> <Gold.Protein.ActiveResidues>
 VAL166  LYS551  ARG553  GLY616  TRP617  ASP618  TYR619  PRO620  LYS621  CYS622 
 ASP623  PHE694  ASN695  SER759  ASP760  ASP761  ALA762  ILE779  LEU786  VAL792 
 PHE793  MET794  SER795  GLU796  ALA797  LYS798  CYS799  TRP800  GLU811  SER814 

> <Gold.Protein.RotatedAtoms>
  151.7706  135.0787  160.0358 H   0  0  0  0  0  0  0  0  0  0  0  0  # atno 6907 bound_to 6896
  152.3291  133.5934  159.5806 H   0  0  0  0  0  0  0  0  0  0  0  0  # atno 6908 bound_to 6896
  150.7412  133.9811  159.3618 H   0  0  0  0  0  0  0  0  0  0  0  0  # atno 6909 bound_to 6896
  144.8349  139.6435  143.6042 H   0  0  0  0  0  0  0  0  0  0  0  0  # atno 7974 bound_to 7965
  154.8879  140.0417  157.1821 H   0  0  0  0  0  0  0  0  0  0  0  0  # atno 8008 bound_to 7997
  154.8571  140.2938  155.5541 H   0  0  0  0  0  0  0  0  0  0  0  0  # atno 8009 bound_to 7997
  156.2997  140.2454  156.3539 H   0  0  0  0  0  0  0  0  0  0  0  0  # atno 8010 bound_to 7997
  140.1923  144.4073  150.6566 H   0  0  0  0  0  0  0  0  0  0  0  0  # atno 10167 bound_to 10162
  156.0431  130.4322  150.2223 H   0  0  0  0  0  0  0  0  0  0  0  0  # atno 10718 bound_to 10713
  152.9854  135.5634  154.5426 H   0  0  0  0  0  0  0  0  0  0  0  0  # atno 10763 bound_to 10752
  154.4877  135.2791  155.1523 H   0  0  0  0  0  0  0  0  0  0  0  0  # atno 10764 bound_to 10752
  154.3005  135.6308  153.5476 H   0  0  0  0  0  0  0  0  0  0  0  0  # atno 10765 bound_to 10752
  141.1655  133.6989  156.7691 H   0  0  0  0  0  0  0  0  0  0  0  0  # atno 11005 bound_to 11000
  146.2649  139.6496  142.9336 LP  0  0  0  0  0  0  0  0  0  0  0  0  # atno 17320 bound_to 7965
  145.4816  141.0438  143.2642 LP  0  0  0  0  0  0  0  0  0  0  0  0  # atno 17321 bound_to 7965
  140.6447  143.2211  151.6212 LP  0  0  0  0  0  0  0  0  0  0  0  0  # atno 17342 bound_to 10162
  139.5251  144.3085  152.1013 LP  0  0  0  0  0  0  0  0  0  0  0  0  # atno 17343 bound_to 10162
  157.0315  131.0009  151.3310 LP  0  0  0  0  0  0  0  0  0  0  0  0  # atno 17370 bound_to 10713
  157.5274  130.8036  149.7877 LP  0  0  0  0  0  0  0  0  0  0  0  0  # atno 17371 bound_to 10713
  140.2477  134.8564  157.3637 LP  0  0  0  0  0  0  0  0  0  0  0  0  # atno 17394 bound_to 11000
  140.1733  134.4581  155.7818 LP  0  0  0  0  0  0  0  0  0  0  0  0  # atno 17395 bound_to 11000

$$$$
