AV-unprocessed.smi:1703|AV-procd|sdf|6867|dock7
  -GOLD-   22720 8 63D 1   1.00000     0.00000
 Structure written by MMmdl.
 49 51  0  0  0  0  0  0  0  0  2 V2000
  147.2419  141.9687  155.4494 C   0  0  0  0  0  0  0  0  0  0  0  0
  147.9940  141.7406  154.1272 C   0  0  2  0  0  0  0  0  0  0  0  0
  147.1874  140.9181  153.1024 C   0  0  0  0  0  0  0  0  0  0  0  0
  147.1122  139.5004  153.4515 N   0  0  0  0  0  0  0  0  0  0  0  0
  146.3675  138.7126  152.4681 C   0  0  0  0  0  0  0  0  0  0  0  0
  145.7595  137.3950  152.9908 C   0  0  2  0  0  0  0  0  0  0  0  0
  146.7831  136.4228  153.0749 O   0  0  0  0  0  0  0  0  0  0  0  0
  144.6421  136.8843  152.0613 C   0  0  0  0  0  0  0  0  0  0  0  0
  144.2725  135.4845  152.3293 N   0  0  0  0  0  0  0  0  0  0  0  0
  143.2978  134.9797  153.1393 C   0  0  0  0  0  0  0  0  0  0  0  0
  142.3451  135.7681  153.9809 C   0  0  0  0  0  0  0  0  0  0  0  0
  141.0481  135.2113  154.0281 O   0  0  0  0  0  0  0  0  0  0  0  0
  143.3575  133.6208  153.0413 N   0  3  0  0  0  0  0  0  0  0  0  0
  144.3784  133.2528  152.1650 C   0  0  0  0  0  0  0  0  0  0  0  0
  144.8150  131.9977  151.7523 C   0  0  0  0  0  0  0  0  0  0  0  0
  145.8947  131.9701  150.8457 C   0  0  0  0  0  0  0  0  0  0  0  0
  146.4969  133.1589  150.3855 C   0  0  0  0  0  0  0  0  0  0  0  0
  146.0437  134.4256  150.8093 C   0  0  0  0  0  0  0  0  0  0  0  0
  144.9740  134.4454  151.7048 C   0  0  0  0  0  0  0  0  0  0  0  0
  148.4652  138.9842  153.6150 C   0  0  0  0  0  0  0  0  0  0  0  0
  149.2552  139.7627  154.6824 C   0  0  1  0  0  0  0  0  0  0  0  0
  150.7047  139.2785  154.7929 C   0  0  0  0  0  0  0  0  0  0  0  0
  149.2757  141.1473  154.3403 O   0  0  0  0  0  0  0  0  0  0  0  0
  146.3162  142.5185  155.2785 H   0  0  0  0  0  0  0  0  0  0  0  0
  147.8472  142.5491  156.1457 H   0  0  0  0  0  0  0  0  0  0  0  0
  146.9764  141.0311  155.9373 H   0  0  0  0  0  0  0  0  0  0  0  0
  148.1806  142.7240  153.6946 H   0  0  0  0  0  0  0  0  0  0  0  0
  146.1914  141.3500  153.0175 H   0  0  0  0  0  0  0  0  0  0  0  0
  147.6534  141.0242  152.1215 H   0  0  0  0  0  0  0  0  0  0  0  0
  145.5729  139.3315  152.0485 H   0  0  0  0  0  0  0  0  0  0  0  0
  147.0234  138.4701  151.6306 H   0  0  0  0  0  0  0  0  0  0  0  0
  145.3373  137.5312  153.9851 H   0  0  0  0  0  0  0  0  0  0  0  0
  147.4392  136.6208  152.4246 H   0  0  0  0  0  0  0  0  0  0  0  0
  143.7429  137.4847  152.2019 H   0  0  0  0  0  0  0  0  0  0  0  0
  144.9150  136.9957  151.0120 H   0  0  0  0  0  0  0  0  0  0  0  0
  142.7364  135.8348  154.9962 H   0  0  0  0  0  0  0  0  0  0  0  0
  142.2770  136.7838  153.5911 H   0  0  0  0  0  0  0  0  0  0  0  0
  140.6864  135.2178  153.1549 H   0  0  0  0  0  0  0  0  0  0  0  0
  144.3561  131.0859  152.1055 H   0  0  0  0  0  0  0  0  0  0  0  0
  146.2696  131.0182  150.4979 H   0  0  0  0  0  0  0  0  0  0  0  0
  147.3245  133.0986  149.6937 H   0  0  0  0  0  0  0  0  0  0  0  0
  146.5171  135.3275  150.4518 H   0  0  0  0  0  0  0  0  0  0  0  0
  148.4259  137.9316  153.8980 H   0  0  0  0  0  0  0  0  0  0  0  0
  148.9950  139.0302  152.6621 H   0  0  0  0  0  0  0  0  0  0  0  0
  148.7767  139.6361  155.6538 H   0  0  0  0  0  0  0  0  0  0  0  0
  150.7461  138.2235  155.0641 H   0  0  0  0  0  0  0  0  0  0  0  0
  151.2457  139.8393  155.5554 H   0  0  0  0  0  0  0  0  0  0  0  0
  151.2351  139.4026  153.8483 H   0  0  0  0  0  0  0  0  0  0  0  0
  142.7398  132.9957  153.5432 H   0  0  0  0  0  0  0  0  0  0  0  0
  1  2  1  0  0  0  0
  1 24  1  0  0  0  0
  1 25  1  0  0  0  0
  1 26  1  0  0  0  0
  2 23  1  0  0  0  0
  2  3  1  0  0  0  0
  2 27  1  0  0  0  0
  3  4  1  0  0  0  0
  3 28  1  0  0  0  0
  3 29  1  0  0  0  0
  4  5  1  0  0  0  0
  4 20  1  0  0  0  0
  5  6  1  0  0  0  0
  5 30  1  0  0  0  0
  5 31  1  0  0  0  0
  6  7  1  0  0  0  0
  6  8  1  0  0  0  0
  6 32  1  0  0  0  0
  7 33  1  0  0  0  0
  8  9  1  0  0  0  0
  8 34  1  0  0  0  0
  8 35  1  0  0  0  0
  9 19  1  0  0  0  0
  9 10  1  0  0  0  0
 10 11  1  0  0  0  0
 10 13  2  0  0  0  0
 11 12  1  0  0  0  0
 11 36  1  0  0  0  0
 11 37  1  0  0  0  0
 12 38  1  0  0  0  0
 13 14  1  0  0  0  0
 13 49  1  0  0  0  0
 14 19  2  0  0  0  0
 14 15  1  0  0  0  0
 15 16  2  0  0  0  0
 15 39  1  0  0  0  0
 16 17  1  0  0  0  0
 16 40  1  0  0  0  0
 17 18  2  0  0  0  0
 17 41  1  0  0  0  0
 18 19  1  0  0  0  0
 18 42  1  0  0  0  0
 20 21  1  0  0  0  0
 20 43  1  0  0  0  0
 20 44  1  0  0  0  0
 21 22  1  0  0  0  0
 21 23  1  0  0  0  0
 21 45  1  0  0  0  0
 22 46  1  0  0  0  0
 22 47  1  0  0  0  0
 22 48  1  0  0  0  0
M  CHG  1  13   1
M  END
> <s_m_source_file>
AV-unprocessed.smi

> <i_m_source_file_index>
1703

> <i_lp_mmshare_version>
43012

> <i_f3d_flags>
0

> <s_epik_input>
W0NIM11bQ0BASF0xW0NIMl1OKFtDSDJdW0NASF0oTzEpW0NIM10pW0NIMl1bQ0BIXShbT0hdKVtDSDJdbihjKG4yKVtDSDJdW09IXSljKGMyMylbY0hdW2NIXVtjSF1bY0hdMw==

> <s_epik_cmdline>
J2VwaWtfcHl0aG9uJywgJy1waCcsICc3LjAnLCAnLXRuJywgJzgnLCAnLW1hJywgJzIwMCcsICctbWV0YWxfYmluZGluZycsICctaW1hZScsICc8aW5maWxlLm1hZT4nLCAnLW9tYWUnLCAnPG91dGZpbGUubWFlPic=

> <r_epik_Ionization_Penalty>
1.7682

> <r_epik_Ionization_Penalty_Charging>
1.55298

> <r_epik_Ionization_Penalty_Neutral>
0.215215

> <r_epik_State_Penalty>
1.83821

> <r_epik_Charging_Adjusted_Penalty>
3.39119

> <i_epik_Tot_Q>
1

> <i_epik_Tot_abs_Q>
1

> <r_epik_Metal_State_Penalty>
5.89206

> <b_epik_Metal_Only>
0

> <s_lp_Force_Field>
OPLS_2005

> <r_lp_Energy>
34.6201

> <b_lp_Chiralities_Consistent>
1

> <s_lp_Variant>
AV-unprocessed.smi:1703-15

> <Gold.Version>
5.8.1

> <Gold.Id.Protein>
6NUR|6NUR_protein|mol2

> <Gold.PLP.Fitness>
47.2851

> <Gold.PLP.PLP>
-38.2089

> <Gold.PLP.part.hbond>
-3.8593

> <Gold.PLP.part.metal>
0.0000

> <Gold.PLP.part.buried>
0.3359

> <Gold.PLP.part.nonpolar>
-34.0346

> <Gold.PLP.part.repulsive>
0.3541

> <Gold.PLP.ligand.clash>
0.0000

> <Gold.PLP.ligand.torsion>
1.1806

> <Gold.PLP.Chemscore.Hbond>
3.7913

> <Gold.PLP.Chemscore.CHOScore>
0.0000

> <Gold.PLP.Chemscore.Metal>
0.0000

> <Gold.Chemscore.Hbonds>
donor molecule, donor type, donor heavy atom, donor atom, acceptor molecule, acceptor atom, score
      L1  H     7    33       P1  7948  0.91
      L1  H    13    49       P1 10957  1.82
      P1  H 11000 11005       L1    12  0.94

> <Gold.PLP.Chemscore.Internal.Correction>
0.0634

> <Gold.Rescore>
     Score         DG    S(hbond)    S(metal)    S(lipo)     H(rot)  DE(clash)    DE(int)     intcor
     16.17     -18.49       2.69        0.00      98.97       2.96       0.24       2.08       ----

> <Gold.Chemscore.Fitness>
16.1671

> <Gold.Chemscore.DG>
-18.4863

> <Gold.Chemscore.ZeroCoef>
-5.4800

> <Gold.Chemscore.Hbond>
2.6925

> <Gold.Chemscore.Metal>
0.0000

> <Gold.Chemscore.Lipo>
98.9683

> <Gold.Chemscore.Internal_Hbond>
0.0000

> <Gold.Chemscore.DEClash>
0.2367

> <Gold.Chemscore.DEInternal>
2.0825

> <Gold.Chemscore.Rot>
2.9555

> <Gold.Chemscore.Internal.Correction>
   9.000000E+99

> <Gold.Chemscore.Hbonds>
donor molecule, donor type, donor heavy atom, donor atom, acceptor molecule, acceptor atom, score
      L1  H     7    33       P1  7948  0.89
      L1  H    13    49       P1 10957  0.80
      P1  H 11000 11005       L1    12  0.86

> <Gold.Chemscore.Hbond.Weighted>
-8.9930

> <Gold.Chemscore.Metal.Weighted>
-0.0000

> <Gold.Chemscore.Lipo.Weighted>
-11.5793

> <Gold.Chemscore.Internal_Hbond.Weighted>
0.0000

> <Gold.Chemscore.DEClash.Weighted>
0.2367

> <Gold.Chemscore.DEInternal.Weighted>
2.0825

> <Gold.Chemscore.Rot.Weighted>
7.5660

> <Gold.Chemscore.Internal.Correction.Weighted>
   9.000000E+99

> <Gold.Protein.RotatedTorsions>
[ 6907 6896 6895 6894 ] final -119.37 input  -60.11 | X-H torsion
[ 7974 7965 7964 7962 ] final    9.55 input  175.53 | X-H torsion
[ 8008 7997 7996 7995 ] final  176.31 input   59.86 | X-H torsion
[ 10167 10162 10161 10158 ] final -169.31 input  -65.29 | X-H torsion
[ 10718 10713 10712 10709 ] final -157.33 input   66.30 | X-H torsion
[ 10763 10752 10751 10750 ] final   17.15 input  -60.55 | X-H torsion
[ 11005 11000 10999 10996 ] final   31.84 input  -57.11 | X-H torsion

> <Gold.Protein.ActiveResidues>
 VAL166  LYS551  ARG553  GLY616  TRP617  ASP618  TYR619  PRO620  LYS621  CYS622 
 ASP623  PHE694  ASN695  SER759  ASP760  ASP761  ALA762  ILE779  LEU786  VAL792 
 PHE793  MET794  SER795  GLU796  ALA797  LYS798  CYS799  TRP800  GLU811  SER814 

> <Gold.Protein.RotatedAtoms>
  150.8300  133.8107  159.3102 H   0  0  0  0  0  0  0  0  0  0  0  0  # atno 6907 bound_to 6896
  151.5840  135.1055  160.0033 H   0  0  0  0  0  0  0  0  0  0  0  0  # atno 6908 bound_to 6896
  152.4380  133.7355  159.6668 H   0  0  0  0  0  0  0  0  0  0  0  0  # atno 6909 bound_to 6896
  146.2402  139.9767  142.8441 H   0  0  0  0  0  0  0  0  0  0  0  0  # atno 7974 bound_to 7965
  156.0778  140.1387  156.9749 H   0  0  0  0  0  0  0  0  0  0  0  0  # atno 8008 bound_to 7997
  154.4568  140.0958  156.6829 H   0  0  0  0  0  0  0  0  0  0  0  0  # atno 8009 bound_to 7997
  155.5124  140.3454  155.4393 H   0  0  0  0  0  0  0  0  0  0  0  0  # atno 8010 bound_to 7997
  139.5930  144.1172  152.1657 H   0  0  0  0  0  0  0  0  0  0  0  0  # atno 10167 bound_to 10162
  156.5388  130.8554  151.2742 H   0  0  0  0  0  0  0  0  0  0  0  0  # atno 10718 bound_to 10713
  153.1365  135.6751  153.9095 H   0  0  0  0  0  0  0  0  0  0  0  0  # atno 10763 bound_to 10752
  153.8565  135.3086  155.3436 H   0  0  0  0  0  0  0  0  0  0  0  0  # atno 10764 bound_to 10752
  154.7752  135.4918  153.9812 H   0  0  0  0  0  0  0  0  0  0  0  0  # atno 10765 bound_to 10752
  140.2797  134.2987  155.7804 H   0  0  0  0  0  0  0  0  0  0  0  0  # atno 11005 bound_to 11000
  145.1630  140.9682  143.4366 LP  0  0  0  0  0  0  0  0  0  0  0  0  # atno 17320 bound_to 7965
  145.0098  139.3520  143.6125 LP  0  0  0  0  0  0  0  0  0  0  0  0  # atno 17321 bound_to 7965
  140.0750  144.5748  150.7163 LP  0  0  0  0  0  0  0  0  0  0  0  0  # atno 17342 bound_to 10162
  140.7189  143.2570  151.4344 LP  0  0  0  0  0  0  0  0  0  0  0  0  # atno 17343 bound_to 10162
  157.7409  130.9859  150.2408 LP  0  0  0  0  0  0  0  0  0  0  0  0  # atno 17370 bound_to 10713
  156.2991  130.3756  149.7768 LP  0  0  0  0  0  0  0  0  0  0  0  0  # atno 17371 bound_to 10713
  141.2165  133.7517  156.9461 LP  0  0  0  0  0  0  0  0  0  0  0  0  # atno 17394 bound_to 11000
  140.1295  134.9365  157.2317 LP  0  0  0  0  0  0  0  0  0  0  0  0  # atno 17395 bound_to 11000

$$$$
