AV-unprocessed.smi:3132|AV-procd|sdf|11932|dock4
  -GOLD-   2272017323D 1   1.00000     0.00000
 Structure written by MMmdl.
 34 35  0  0  0  0  0  0  0  0  2 V2000
  152.7895  139.6339  159.6205 C   0  0  0  0  0  0  0  0  0  0  0  0
  151.8647  140.8317  159.3661 C   0  0  1  0  0  0  0  0  0  0  0  0
  152.6739  142.1279  159.1414 C   0  0  0  0  0  0  0  0  0  0  0  0
  151.8412  143.3353  159.1638 N   0  0  0  0  0  0  0  0  0  0  0  0
  151.9452  144.4024  160.0195 C   0  0  0  0  0  0  0  0  0  0  0  0
  150.9733  145.2960  159.6497 C   0  0  0  0  0  0  0  0  0  0  0  0
  150.3138  144.7344  158.5893 N   0  3  0  0  0  0  0  0  0  0  0  0
  150.8410  143.5410  158.2972 C   0  0  0  0  0  0  0  0  0  0  0  0
  151.0153  140.5407  158.2116 N   0  0  0  0  0  0  0  0  0  0  0  0
  151.4313  140.0264  157.0430 C   0  0  0  0  0  0  0  0  0  0  0  0
  152.6098  139.7599  156.8030 O   0  0  0  0  0  0  0  0  0  0  0  0
  150.3383  139.7295  156.0110 C   0  0  1  0  0  0  0  0  0  0  0  0
  148.9086  140.0473  156.4882 C   0  0  0  0  0  0  0  0  0  0  0  0
  148.5526  141.3068  155.7243 C   0  0  0  0  0  0  0  0  0  0  0  0
  149.3379  141.1145  154.4347 C   0  0  0  0  0  0  0  0  0  0  0  0
  150.5707  140.5691  154.8803 O   0  0  0  0  0  0  0  0  0  0  0  0
  153.4190  139.8028  160.4947 H   0  0  0  0  0  0  0  0  0  0  0  0
  153.4460  139.4493  158.7692 H   0  0  0  0  0  0  0  0  0  0  0  0
  152.2147  138.7249  159.8015 H   0  0  0  0  0  0  0  0  0  0  0  0
  151.2460  140.9532  160.2571 H   0  0  0  0  0  0  0  0  0  0  0  0
  153.4347  142.2416  159.9152 H   0  0  0  0  0  0  0  0  0  0  0  0
  153.1986  142.0961  158.1853 H   0  0  0  0  0  0  0  0  0  0  0  0
  152.6902  144.4500  160.8006 H   0  0  0  0  0  0  0  0  0  0  0  0
  150.7100  146.2642  160.0498 H   0  0  0  0  0  0  0  0  0  0  0  0
  150.5284  142.8797  157.5088 H   0  0  0  0  0  0  0  0  0  0  0  0
  150.0273  140.7212  158.3179 H   0  0  0  0  0  0  0  0  0  0  0  0
  150.3964  138.6844  155.7017 H   0  0  0  0  0  0  0  0  0  0  0  0
  148.2381  139.2368  156.1991 H   0  0  0  0  0  0  0  0  0  0  0  0
  148.8119  140.1767  157.5672 H   0  0  0  0  0  0  0  0  0  0  0  0
  147.4807  141.4212  155.5600 H   0  0  0  0  0  0  0  0  0  0  0  0
  148.9153  142.1868  156.2575 H   0  0  0  0  0  0  0  0  0  0  0  0
  148.8390  140.3988  153.7793 H   0  0  0  0  0  0  0  0  0  0  0  0
  149.4845  142.0444  153.8849 H   0  0  0  0  0  0  0  0  0  0  0  0
  149.5409  145.1605  158.0934 H   0  0  0  0  0  0  0  0  0  0  0  0
  1  2  1  0  0  0  0
  1 17  1  0  0  0  0
  1 18  1  0  0  0  0
  1 19  1  0  0  0  0
  2  3  1  0  0  0  0
  2  9  1  0  0  0  0
  2 20  1  0  0  0  0
  3  4  1  0  0  0  0
  3 21  1  0  0  0  0
  3 22  1  0  0  0  0
  4  8  1  0  0  0  0
  4  5  1  0  0  0  0
  5  6  2  0  0  0  0
  5 23  1  0  0  0  0
  6  7  1  0  0  0  0
  6 24  1  0  0  0  0
  7  8  2  0  0  0  0
  7 34  1  0  0  0  0
  8 25  1  0  0  0  0
  9 10  1  0  0  0  0
  9 26  1  0  0  0  0
 10 11  2  0  0  0  0
 10 12  1  0  0  0  0
 12 16  1  0  0  0  0
 12 13  1  0  0  0  0
 12 27  1  0  0  0  0
 13 14  1  0  0  0  0
 13 28  1  0  0  0  0
 13 29  1  0  0  0  0
 14 15  1  0  0  0  0
 14 30  1  0  0  0  0
 14 31  1  0  0  0  0
 15 16  1  0  0  0  0
 15 32  1  0  0  0  0
 15 33  1  0  0  0  0
M  CHG  1   7   1
M  END
> <s_m_source_file>
AV-unprocessed.smi

> <i_m_source_file_index>
3132

> <i_lp_mmshare_version>
43012

> <i_f3d_flags>
0

> <s_epik_input>
W2NIXTFuW2NIXVtjSF1uMVtDSDJdW0NAQEhdKFtDSDNdKVtOSF1DKD1PKVtDQEBIXTJbQ0gyXVtDSDJdW0NIMl1PMg==

> <s_epik_cmdline>
J2VwaWtfcHl0aG9uJywgJy1waCcsICc3LjAnLCAnLXRuJywgJzgnLCAnLW1hJywgJzIwMCcsICctbWV0YWxfYmluZGluZycsICctaW1hZScsICc8aW5maWxlLm1hZT4nLCAnLW9tYWUnLCAnPG91dGZpbGUubWFlPic=

> <r_lp_tautomer_probability>
1

> <r_epik_Ionization_Penalty>
0.250802

> <r_epik_Ionization_Penalty_Charging>
0

> <r_epik_Ionization_Penalty_Neutral>
0.250802

> <r_epik_State_Penalty>
0.242139

> <r_epik_Charging_Adjusted_Penalty>
0.242139

> <i_epik_Tot_Q>
1

> <i_epik_Tot_abs_Q>
1

> <r_epik_Metal_State_Penalty>
0.533361

> <b_epik_Metal_Only>
0

> <s_lp_Force_Field>
OPLS_2005

> <r_lp_Energy>
20.1872

> <b_lp_Chiralities_Consistent>
1

> <s_lp_Variant>
AV-unprocessed.smi:3132-4

> <Gold.Version>
5.8.1

> <Gold.Id.Protein>
6NUR|6NUR_protein|mol2

> <Gold.PLP.Fitness>
43.1358

> <Gold.PLP.PLP>
-31.6900

> <Gold.PLP.part.hbond>
-3.3938

> <Gold.PLP.part.metal>
0.0000

> <Gold.PLP.part.buried>
-4.1963

> <Gold.PLP.part.nonpolar>
-25.3889

> <Gold.PLP.part.repulsive>
0.3598

> <Gold.PLP.ligand.clash>
0.0000

> <Gold.PLP.ligand.torsion>
0.2817

> <Gold.PLP.Chemscore.Hbond>
3.9920

> <Gold.PLP.Chemscore.CHOScore>
0.0000

> <Gold.PLP.Chemscore.Metal>
0.0000

> <Gold.Chemscore.Hbonds>
donor molecule, donor type, donor heavy atom, donor atom, acceptor molecule, acceptor atom, score
      L1  H     7    34       P1  8029  2.00
      P1  H  7989  7998       L1    16  0.98
      P1  H  7997  8009       L1    11  1.00

> <Gold.PLP.Chemscore.Internal.Correction>
0.0332

> <Gold.Rescore>
     Score         DG    S(hbond)    S(metal)    S(lipo)     H(rot)  DE(clash)    DE(int)     intcor
     15.11     -17.04       2.68        0.00      64.47       1.93       0.00       1.93       ----

> <Gold.Chemscore.Fitness>
15.1093

> <Gold.Chemscore.DG>
-17.0391

> <Gold.Chemscore.ZeroCoef>
-5.4800

> <Gold.Chemscore.Hbond>
2.6824

> <Gold.Chemscore.Metal>
0.0000

> <Gold.Chemscore.Lipo>
64.4670

> <Gold.Chemscore.Internal_Hbond>
0.0000

> <Gold.Chemscore.DEClash>
0.0000

> <Gold.Chemscore.DEInternal>
1.9298

> <Gold.Chemscore.Rot>
1.9308

> <Gold.Chemscore.Internal.Correction>
   9.000000E+99

> <Gold.Chemscore.Hbonds>
donor molecule, donor type, donor heavy atom, donor atom, acceptor molecule, acceptor atom, score
      L1  H     7    34       P1  8029  0.25
      P1  H  7989  7998       L1    16  0.32
      P1  H  7997  8009       L1    11  1.00

> <Gold.Chemscore.Hbond.Weighted>
-8.9593

> <Gold.Chemscore.Metal.Weighted>
-0.0000

> <Gold.Chemscore.Lipo.Weighted>
-7.5426

> <Gold.Chemscore.Internal_Hbond.Weighted>
0.0000

> <Gold.Chemscore.DEClash.Weighted>
0.0000

> <Gold.Chemscore.DEInternal.Weighted>
1.9298

> <Gold.Chemscore.Rot.Weighted>
4.9429

> <Gold.Chemscore.Internal.Correction.Weighted>
   9.000000E+99

> <Gold.Protein.RotatedTorsions>
[ 6907 6896 6895 6894 ] final  -24.24 input  -60.11 | X-H torsion
[ 7974 7965 7964 7962 ] final   62.17 input  175.53 | X-H torsion
[ 8008 7997 7996 7995 ] final -166.42 input   59.86 | X-H torsion
[ 10167 10162 10161 10158 ] final  139.95 input  -65.29 | X-H torsion
[ 10718 10713 10712 10709 ] final -162.92 input   66.30 | X-H torsion
[ 10763 10752 10751 10750 ] final   75.96 input  -60.55 | X-H torsion
[ 11005 11000 10999 10996 ] final  -36.70 input  -57.11 | X-H torsion

> <Gold.Protein.ActiveResidues>
 VAL166  LYS551  ARG553  GLY616  TRP617  ASP618  TYR619  PRO620  LYS621  CYS622 
 ASP623  PHE694  ASN695  SER759  ASP760  ASP761  ALA762  ILE779  LEU786  VAL792 
 PHE793  MET794  SER795  GLU796  ALA797  LYS798  CYS799  TRP800  GLU811  SER814 

> <Gold.Protein.RotatedAtoms>
  151.1924  135.0408  159.8837 H   0  0  0  0  0  0  0  0  0  0  0  0  # atno 6907 bound_to 6896
  152.5438  134.0941  159.8300 H   0  0  0  0  0  0  0  0  0  0  0  0  # atno 6908 bound_to 6896
  151.1071  133.5153  159.2639 H   0  0  0  0  0  0  0  0  0  0  0  0  # atno 6909 bound_to 6896
  145.8764  139.3413  143.0732 H   0  0  0  0  0  0  0  0  0  0  0  0  # atno 7974 bound_to 7965
  155.8635  140.0982  157.1598 H   0  0  0  0  0  0  0  0  0  0  0  0  # atno 8008 bound_to 7997
  154.3992  140.1360  156.4052 H   0  0  0  0  0  0  0  0  0  0  0  0  # atno 8009 bound_to 7997
  155.7830  140.3458  155.5310 H   0  0  0  0  0  0  0  0  0  0  0  0  # atno 8010 bound_to 7997
  139.5063  144.6264  151.5927 H   0  0  0  0  0  0  0  0  0  0  0  0  # atno 10167 bound_to 10162
  156.6172  130.8875  151.2950 H   0  0  0  0  0  0  0  0  0  0  0  0  # atno 10718 bound_to 10713
  153.0692  135.4969  154.8266 H   0  0  0  0  0  0  0  0  0  0  0  0  # atno 10763 bound_to 10752
  154.6997  135.2999  154.9361 H   0  0  0  0  0  0  0  0  0  0  0  0  # atno 10764 bound_to 10752
  154.0089  135.6757  153.4817 H   0  0  0  0  0  0  0  0  0  0  0  0  # atno 10765 bound_to 10752
  140.9895  133.7012  156.1825 H   0  0  0  0  0  0  0  0  0  0  0  0  # atno 11005 bound_to 11000
  145.9076  140.9202  143.0471 LP  0  0  0  0  0  0  0  0  0  0  0  0  # atno 17320 bound_to 7965
  144.6726  140.1116  143.7455 LP  0  0  0  0  0  0  0  0  0  0  0  0  # atno 17321 bound_to 7965
  140.5982  143.9657  150.6368 LP  0  0  0  0  0  0  0  0  0  0  0  0  # atno 17342 bound_to 10162
  140.2860  143.3356  152.1107 LP  0  0  0  0  0  0  0  0  0  0  0  0  # atno 17343 bound_to 10162
  157.7238  130.9594  150.1547 LP  0  0  0  0  0  0  0  0  0  0  0  0  # atno 17370 bound_to 10713
  156.2341  130.3685  149.8411 LP  0  0  0  0  0  0  0  0  0  0  0  0  # atno 17371 bound_to 10713
  140.7062  134.4511  157.5584 LP  0  0  0  0  0  0  0  0  0  0  0  0  # atno 17394 bound_to 11000
  139.8986  134.8610  156.1996 LP  0  0  0  0  0  0  0  0  0  0  0  0  # atno 17395 bound_to 11000

$$$$
