AV-unprocessed.smi:55|AV-procd|sdf|568|dock10
  -GOLD-   2262016473D 1   1.00000     0.00000
 Structure written by MMmdl.
 31 32  0  0  0  0  0  0  0  0  1 V2000
  150.7383  144.6443  158.9944 C   0  0  0  0  0  0  0  0  0  0  0  0
  151.3182  143.2730  158.6901 C   0  0  0  0  0  0  0  0  0  0  0  0
  151.0783  142.6247  157.5218 C   0  0  0  0  0  0  0  0  0  0  0  0
  151.5900  141.3716  157.2152 N   0  0  0  0  0  0  0  0  0  0  0  0
  151.2794  140.7118  155.8903 C   0  0  1  0  0  0  0  0  0  0  0  0
  150.6192  139.3455  156.1021 C   0  0  0  0  0  0  0  0  0  0  0  0
  149.1705  139.6263  155.7494 C   0  0  2  0  0  0  0  0  0  0  0  0
  148.5410  138.4713  155.2336 O   0  0  0  0  0  0  0  0  0  0  0  0
  149.2957  140.7391  154.7058 C   0  0  1  0  0  0  0  0  0  0  0  0
  148.0381  141.6128  154.5846 C   0  0  0  0  0  0  0  0  0  0  0  0
  148.3844  142.8909  154.0956 O   0  0  0  0  0  0  0  0  0  0  0  0
  150.3825  141.5218  155.1913 O   0  0  0  0  0  0  0  0  0  0  0  0
  152.4022  140.7077  158.1588 C   0  0  0  0  0  0  0  0  0  0  0  0
  152.8764  139.5881  157.9707 O   0  0  0  0  0  0  0  0  0  0  0  0
  152.6526  141.3749  159.3569 N   0  0  0  0  0  0  0  0  0  0  0  0
  152.1634  142.6365  159.7039 C   0  0  0  0  0  0  0  0  0  0  0  0
  152.4554  143.1220  160.7955 O   0  0  0  0  0  0  0  0  0  0  0  0
  152.2070  140.6523  155.3195 H   0  0  0  0  0  0  0  0  0  0  0  0
  148.6319  139.9793  156.6297 H   0  0  0  0  0  0  0  0  0  0  0  0
  149.5736  140.3067  153.7422 H   0  0  0  0  0  0  0  0  0  0  0  0
  153.2356  140.9043  160.0335 H   0  0  0  0  0  0  0  0  0  0  0  0
  150.1397  145.0233  158.1658 H   0  0  0  0  0  0  0  0  0  0  0  0
  151.5364  145.3621  159.1859 H   0  0  0  0  0  0  0  0  0  0  0  0
  150.0984  144.5998  159.8763 H   0  0  0  0  0  0  0  0  0  0  0  0
  150.4524  143.1150  156.7912 H   0  0  0  0  0  0  0  0  0  0  0  0
  151.0671  138.6400  155.4006 H   0  0  0  0  0  0  0  0  0  0  0  0
  150.7597  138.9690  157.1165 H   0  0  0  0  0  0  0  0  0  0  0  0
  147.6895  138.7139  154.9028 H   0  0  0  0  0  0  0  0  0  0  0  0
  147.3399  141.1698  153.8739 H   0  0  0  0  0  0  0  0  0  0  0  0
  147.5190  141.6968  155.5399 H   0  0  0  0  0  0  0  0  0  0  0  0
  148.3631  143.5041  154.8144 H   0  0  0  0  0  0  0  0  0  0  0  0
  1  2  1  0  0  0  0
  1 22  1  0  0  0  0
  1 23  1  0  0  0  0
  1 24  1  0  0  0  0
  2 16  1  0  0  0  0
  2  3  2  0  0  0  0
  3  4  1  0  0  0  0
  3 25  1  0  0  0  0
  4  5  1  0  0  0  0
  4 13  1  0  0  0  0
  5 18  1  0  0  0  0
  5 12  1  0  0  0  0
  5  6  1  0  0  0  0
  6  7  1  0  0  0  0
  6 26  1  0  0  0  0
  6 27  1  0  0  0  0
  7 19  1  0  0  0  0
  7  8  1  0  0  0  0
  7  9  1  0  0  0  0
  8 28  1  0  0  0  0
  9 20  1  0  0  0  0
  9 10  1  0  0  0  0
  9 12  1  0  0  0  0
 10 11  1  0  0  0  0
 10 29  1  0  0  0  0
 10 30  1  0  0  0  0
 11 31  1  0  0  0  0
 13 14  2  0  0  0  0
 13 15  1  0  0  0  0
 15 21  1  0  0  0  0
 15 16  1  0  0  0  0
 16 17  2  0  0  0  0
M  END
> <s_m_source_file>
AV-unprocessed.smi

> <i_m_source_file_index>
55

> <i_lp_mmshare_version>
43012

> <i_f3d_flags>
0

> <s_epik_input>
Tz1jMVtuSF1jKD1PKW4oW2NIXWMxW0NIM10pW0NAQEhdMltDSDJdW0NAQEhdKFtPSF0pW0NAQEhdKE8yKVtDSDJdW09IXQ==

> <s_epik_cmdline>
J2VwaWtfcHl0aG9uJywgJy1waCcsICc3LjAnLCAnLXRuJywgJzgnLCAnLW1hJywgJzIwMCcsICctbWV0YWxfYmluZGluZycsICctaW1hZScsICc8aW5maWxlLm1hZT4nLCAnLW9tYWUnLCAnPG91dGZpbGUubWFlPic=

> <r_lp_tautomer_probability>
0.999537

> <r_epik_Ionization_Penalty>
0.00121888

> <r_epik_Ionization_Penalty_Charging>
0.00121876

> <r_epik_Ionization_Penalty_Neutral>
1.19946e-07

> <r_epik_State_Penalty>
0.000805124

> <r_epik_Charging_Adjusted_Penalty>
0.00202389

> <i_epik_Tot_Q>
0

> <i_epik_Tot_abs_Q>
0

> <r_epik_Metal_State_Penalty>
0.662472

> <b_epik_Metal_Only>
0

> <s_epik_Chemistry_Notes>
This compound contains an acetal/aminal-like group ( X-CH(R)-Y where X, Y are N, S, or O) that may be acid/base labile, releasing an aldehyde.

> <s_lp_Force_Field>
OPLS_2005

> <r_lp_Energy>
24.9253

> <b_lp_Chiralities_Consistent>
1

> <s_lp_Variant>
AV-unprocessed.smi:55-8

> <Gold.Version>
5.8.1

> <Gold.Id.Protein>
6NUR|6NUR_protein|mol2

> <Gold.PLP.Fitness>
37.2494

> <Gold.PLP.PLP>
-28.7093

> <Gold.PLP.part.hbond>
-4.6529

> <Gold.PLP.part.metal>
0.0000

> <Gold.PLP.part.buried>
-1.8345

> <Gold.PLP.part.nonpolar>
-20.9978

> <Gold.PLP.part.repulsive>
0.2839

> <Gold.PLP.ligand.clash>
0.0000

> <Gold.PLP.ligand.torsion>
0.2698

> <Gold.PLP.Chemscore.Hbond>
2.0236

> <Gold.PLP.Chemscore.CHOScore>
1.0000

> <Gold.PLP.Chemscore.Metal>
0.0000

> <Gold.Chemscore.Hbonds>
donor molecule, donor type, donor heavy atom, donor atom, acceptor molecule, acceptor atom, score
      L1  H    11    31       P1  8028  1.00
      P1  H  7989  7998       L1    12  0.02
      P1  H  7997  8010       L1    14  1.00
      L1  C     3    25       P1  8028  1.00

> <Gold.PLP.Chemscore.Internal.Correction>
0.0087

> <Gold.Rescore>
     Score         DG    S(hbond)    S(metal)    S(lipo)     H(rot)  DE(clash)    DE(int)     intcor
      9.38     -10.79       1.99        0.00      48.25       2.73       0.30       1.11       ----

> <Gold.Chemscore.Fitness>
9.3825

> <Gold.Chemscore.DG>
-10.7906

> <Gold.Chemscore.ZeroCoef>
-5.4800

> <Gold.Chemscore.Hbond>
1.9886

> <Gold.Chemscore.Metal>
0.0000

> <Gold.Chemscore.Lipo>
48.2517

> <Gold.Chemscore.Internal_Hbond>
0.0000

> <Gold.Chemscore.DEClash>
0.2982

> <Gold.Chemscore.DEInternal>
1.1099

> <Gold.Chemscore.Rot>
2.7253

> <Gold.Chemscore.Internal.Correction>
   9.000000E+99

> <Gold.Chemscore.Hbonds>
donor molecule, donor type, donor heavy atom, donor atom, acceptor molecule, acceptor atom, score
      L1  H    11    31       P1  8028  0.90
      P1  H  7997  8010       L1    14  0.29
      P1  H  8011  8017       L1    11  0.01

> <Gold.Chemscore.Hbond.Weighted>
-6.6421

> <Gold.Chemscore.Metal.Weighted>
-0.0000

> <Gold.Chemscore.Lipo.Weighted>
-5.6454

> <Gold.Chemscore.Internal_Hbond.Weighted>
0.0000

> <Gold.Chemscore.DEClash.Weighted>
0.2982

> <Gold.Chemscore.DEInternal.Weighted>
1.1099

> <Gold.Chemscore.Rot.Weighted>
6.9769

> <Gold.Chemscore.Internal.Correction.Weighted>
   9.000000E+99

> <Gold.Protein.RotatedTorsions>
[ 6907 6896 6895 6894 ] final -140.60 input  -60.11 | X-H torsion
[ 7974 7965 7964 7962 ] final -171.64 input  175.53 | X-H torsion
[ 8008 7997 7996 7995 ] final   41.19 input   59.86 | X-H torsion
[ 10167 10162 10161 10158 ] final -114.69 input  -65.29 | X-H torsion
[ 10718 10713 10712 10709 ] final   42.77 input   66.30 | X-H torsion
[ 10763 10752 10751 10750 ] final -105.03 input  -60.55 | X-H torsion
[ 11005 11000 10999 10996 ] final   84.39 input  -57.11 | X-H torsion

> <Gold.Protein.ActiveResidues>
 VAL166  LYS551  ARG553  GLY616  TRP617  ASP618  TYR619  PRO620  LYS621  CYS622 
 ASP623  PHE694  ASN695  SER759  ASP760  ASP761  ALA762  ILE779  LEU786  VAL792 
 PHE793  MET794  SER795  GLU796  ALA797  LYS798  CYS799  TRP800  GLU811  SER814 

> <Gold.Protein.RotatedAtoms>
  151.0628  133.5530  159.2632 H   0  0  0  0  0  0  0  0  0  0  0  0  # atno 6907 bound_to 6896
  151.2498  135.0617  159.9067 H   0  0  0  0  0  0  0  0  0  0  0  0  # atno 6908 bound_to 6896
  152.5400  134.0390  159.8113 H   0  0  0  0  0  0  0  0  0  0  0  0  # atno 6909 bound_to 6896
  144.7155  140.1891  143.6350 H   0  0  0  0  0  0  0  0  0  0  0  0  # atno 7974 bound_to 7965
  155.2655  140.3362  155.4269 H   0  0  0  0  0  0  0  0  0  0  0  0  # atno 8008 bound_to 7997
  156.2156  140.1787  156.7639 H   0  0  0  0  0  0  0  0  0  0  0  0  # atno 8009 bound_to 7997
  154.5748  140.0663  156.9003 H   0  0  0  0  0  0  0  0  0  0  0  0  # atno 8010 bound_to 7997
  140.0983  143.4637  152.1828 H   0  0  0  0  0  0  0  0  0  0  0  0  # atno 10167 bound_to 10162
  157.4085  130.7901  149.7410 H   0  0  0  0  0  0  0  0  0  0  0  0  # atno 10718 bound_to 10713
  154.7919  135.4764  154.0072 H   0  0  0  0  0  0  0  0  0  0  0  0  # atno 10763 bound_to 10752
  153.1644  135.6814  153.8704 H   0  0  0  0  0  0  0  0  0  0  0  0  # atno 10764 bound_to 10752
  153.8307  135.3192  155.3396 H   0  0  0  0  0  0  0  0  0  0  0  0  # atno 10765 bound_to 10752
  139.9002  134.8213  156.2438 H   0  0  0  0  0  0  0  0  0  0  0  0  # atno 11005 bound_to 11000
  145.8785  139.2310  143.1619 LP  0  0  0  0  0  0  0  0  0  0  0  0  # atno 17320 bound_to 7965
  146.0017  140.8514  143.0015 LP  0  0  0  0  0  0  0  0  0  0  0  0  # atno 17321 bound_to 7965
  139.5686  144.7449  151.3954 LP  0  0  0  0  0  0  0  0  0  0  0  0  # atno 17342 bound_to 10162
  140.6992  143.7674  150.7375 LP  0  0  0  0  0  0  0  0  0  0  0  0  # atno 17343 bound_to 10162
  155.9843  130.3992  150.3316 LP  0  0  0  0  0  0  0  0  0  0  0  0  # atno 17370 bound_to 10713
  157.1451  131.0306  151.2910 LP  0  0  0  0  0  0  0  0  0  0  0  0  # atno 17371 bound_to 10713
  141.0268  133.7011  156.1361 LP  0  0  0  0  0  0  0  0  0  0  0  0  # atno 17394 bound_to 11000
  140.7155  134.4415  157.5579 LP  0  0  0  0  0  0  0  0  0  0  0  0  # atno 17395 bound_to 11000

$$$$
