AV-unprocessed.smi:213|AV-procd|sdf|1636|dock6
  -GOLD-   2262019593D 1   1.00000     0.00000
 Structure written by MMmdl.
 59 62  0  0  0  0  0  0  0  0  2 V2000
  150.8743  143.0535  157.1544 C   0  0  0  0  0  0  0  0  0  0  0  0
  151.2307  141.5583  157.2551 C   0  0  1  0  0  0  0  0  0  0  0  0
  151.2110  141.0480  158.7155 C   0  0  0  0  0  0  0  0  0  0  0  0
  152.3155  141.6078  159.5344 N   0  3  0  0  0  0  0  0  0  0  0  0
  151.8225  142.4528  160.6482 C   0  0  0  0  0  0  0  0  0  0  0  0
  153.0012  143.0501  161.4351 C   0  0  0  0  0  0  0  0  0  0  0  0
  153.8347  142.0022  161.9137 O   0  0  0  0  0  0  0  0  0  0  0  0
  154.3875  141.2352  160.8512 C   0  0  0  0  0  0  0  0  0  0  0  0
  153.2559  140.5780  160.0430 C   0  0  0  0  0  0  0  0  0  0  0  0
  150.3580  140.7511  156.3918 N   0  0  0  0  0  0  0  0  0  0  0  0
  148.9069  140.8146  156.5535 C   0  0  0  0  0  0  0  0  0  0  0  0
  150.8557  139.6481  155.7641 C   0  0  0  0  0  0  0  0  0  0  0  0
  152.0472  139.7304  155.1115 N   0  0  0  0  0  0  0  0  0  0  0  0
  152.5640  138.6630  154.4963 C   0  0  0  0  0  0  0  0  0  0  0  0
  152.0637  137.4307  154.4045 N   0  0  0  0  0  0  0  0  0  0  0  0
  150.8652  137.3373  155.0467 C   0  0  0  0  0  0  0  0  0  0  0  0
  150.1951  138.3831  155.7452 C   0  0  0  0  0  0  0  0  0  0  0  0
  148.9927  137.9050  156.2562 N   0  0  0  0  0  0  0  0  0  0  0  0
  148.9595  136.6527  155.8906 C   0  0  0  0  0  0  0  0  0  0  0  0
  150.0456  136.2292  155.1603 N   0  0  0  0  0  0  0  0  0  0  0  0
  150.2708  134.8986  154.6234 C   0  0  0  0  0  0  0  0  0  0  0  0
  149.0340  133.9888  154.7610 C   0  0  1  0  0  0  0  0  0  0  0  0
  147.9777  134.5164  153.9807 O   0  0  0  0  0  0  0  0  0  0  0  0
  149.3202  132.5466  154.3028 C   0  0  2  0  0  0  0  0  0  0  0  0
  148.1054  131.6207  154.3207 C   0  0  0  0  0  0  0  0  0  0  0  0
  148.7511  130.2506  154.3328 C   0  0  0  0  0  0  0  0  0  0  0  0
  150.0644  130.4874  155.0823 C   0  0  0  0  0  0  0  0  0  0  0  0
  150.2040  131.9000  155.2085 O   0  0  0  0  0  0  0  0  0  0  0  0
  151.5943  143.6677  157.6954 H   0  0  0  0  0  0  0  0  0  0  0  0
  149.8877  143.2690  157.5651 H   0  0  0  0  0  0  0  0  0  0  0  0
  150.8823  143.3864  156.1160 H   0  0  0  0  0  0  0  0  0  0  0  0
  152.2434  141.4765  156.8623 H   0  0  0  0  0  0  0  0  0  0  0  0
  150.2562  141.3184  159.1680 H   0  0  0  0  0  0  0  0  0  0  0  0
  151.2616  139.9588  158.7507 H   0  0  0  0  0  0  0  0  0  0  0  0
  151.2001  143.2581  160.2563 H   0  0  0  0  0  0  0  0  0  0  0  0
  151.1950  141.8549  161.3112 H   0  0  0  0  0  0  0  0  0  0  0  0
  153.5783  143.7364  160.8129 H   0  0  0  0  0  0  0  0  0  0  0  0
  152.6331  143.6245  162.2854 H   0  0  0  0  0  0  0  0  0  0  0  0
  155.0065  141.8678  160.2127 H   0  0  0  0  0  0  0  0  0  0  0  0
  155.0414  140.4707  161.2713 H   0  0  0  0  0  0  0  0  0  0  0  0
  152.7164  139.8668  160.6706 H   0  0  0  0  0  0  0  0  0  0  0  0
  153.6875  140.0102  159.2194 H   0  0  0  0  0  0  0  0  0  0  0  0
  148.4709  139.8180  156.6352 H   0  0  0  0  0  0  0  0  0  0  0  0
  148.4562  141.3203  155.6994 H   0  0  0  0  0  0  0  0  0  0  0  0
  148.6245  141.3638  157.4508 H   0  0  0  0  0  0  0  0  0  0  0  0
  153.5143  138.8182  154.0071 H   0  0  0  0  0  0  0  0  0  0  0  0
  148.1376  135.9997  156.1460 H   0  0  0  0  0  0  0  0  0  0  0  0
  150.5650  134.9899  153.5768 H   0  0  0  0  0  0  0  0  0  0  0  0
  151.1215  134.4626  155.1483 H   0  0  0  0  0  0  0  0  0  0  0  0
  148.7081  133.9782  155.8021 H   0  0  0  0  0  0  0  0  0  0  0  0
  148.3413  135.1253  153.3565 H   0  0  0  0  0  0  0  0  0  0  0  0
  149.7741  132.5418  153.3099 H   0  0  0  0  0  0  0  0  0  0  0  0
  147.5272  131.7683  155.2338 H   0  0  0  0  0  0  0  0  0  0  0  0
  147.4422  131.7693  153.4681 H   0  0  0  0  0  0  0  0  0  0  0  0
  148.1236  129.4944  154.8055 H   0  0  0  0  0  0  0  0  0  0  0  0
  148.9587  129.9277  153.3119 H   0  0  0  0  0  0  0  0  0  0  0  0
  150.0490  130.0367  156.0748 H   0  0  0  0  0  0  0  0  0  0  0  0
  150.9098  130.0704  154.5338 H   0  0  0  0  0  0  0  0  0  0  0  0
  152.8430  142.2193  158.9276 H   0  0  0  0  0  0  0  0  0  0  0  0
  1  2  1  0  0  0  0
  1 29  1  0  0  0  0
  1 30  1  0  0  0  0
  1 31  1  0  0  0  0
  2  3  1  0  0  0  0
  2 10  1  0  0  0  0
  2 32  1  0  0  0  0
  3  4  1  0  0  0  0
  3 33  1  0  0  0  0
  3 34  1  0  0  0  0
  4  9  1  0  0  0  0
  4  5  1  0  0  0  0
  4 59  1  0  0  0  0
  5  6  1  0  0  0  0
  5 35  1  0  0  0  0
  5 36  1  0  0  0  0
  6  7  1  0  0  0  0
  6 37  1  0  0  0  0
  6 38  1  0  0  0  0
  7  8  1  0  0  0  0
  8  9  1  0  0  0  0
  8 39  1  0  0  0  0
  8 40  1  0  0  0  0
  9 41  1  0  0  0  0
  9 42  1  0  0  0  0
 10 11  1  0  0  0  0
 10 12  1  0  0  0  0
 11 43  1  0  0  0  0
 11 44  1  0  0  0  0
 11 45  1  0  0  0  0
 12 17  1  0  0  0  0
 12 13  2  0  0  0  0
 13 14  1  0  0  0  0
 14 15  2  0  0  0  0
 14 46  1  0  0  0  0
 15 16  1  0  0  0  0
 16 20  1  0  0  0  0
 16 17  2  0  0  0  0
 17 18  1  0  0  0  0
 18 19  2  0  0  0  0
 19 20  1  0  0  0  0
 19 47  1  0  0  0  0
 20 21  1  0  0  0  0
 21 22  1  0  0  0  0
 21 48  1  0  0  0  0
 21 49  1  0  0  0  0
 22 23  1  0  0  0  0
 22 24  1  0  0  0  0
 22 50  1  0  0  0  0
 23 51  1  0  0  0  0
 24 28  1  0  0  0  0
 24 25  1  0  0  0  0
 24 52  1  0  0  0  0
 25 26  1  0  0  0  0
 25 53  1  0  0  0  0
 25 54  1  0  0  0  0
 26 27  1  0  0  0  0
 26 55  1  0  0  0  0
 26 56  1  0  0  0  0
 27 28  1  0  0  0  0
 27 57  1  0  0  0  0
 27 58  1  0  0  0  0
M  CHG  1   4   1
M  END
> <s_m_source_file>
AV-unprocessed.smi

> <i_m_source_file_index>
213

> <i_lp_mmshare_version>
43012

> <i_f3d_flags>
0

> <s_epik_input>
W0NIMl0xW0NIMl1PW0NIMl1bQ0gyXU4xW0NIMl1bQ0BASF0oW0NIM10pTihbQ0gzXSljKG5bY0hdbjIpYyhjMjMpbltjSF1uM1tDSDJdW0NASF0oW09IXSlbQ0BASF00W0NIMl1bQ0gyXVtDSDJdTzQ=

> <s_epik_cmdline>
J2VwaWtfcHl0aG9uJywgJy1waCcsICc3LjAnLCAnLXRuJywgJzgnLCAnLW1hJywgJzIwMCcsICctbWV0YWxfYmluZGluZycsICctaW1hZScsICc8aW5maWxlLm1hZT4nLCAnLW9tYWUnLCAnPG91dGZpbGUubWFlPic=

> <r_lp_tautomer_probability>
1

> <r_epik_Ionization_Penalty>
0.399679

> <r_epik_Ionization_Penalty_Charging>
0.399433

> <r_epik_Ionization_Penalty_Neutral>
0.000246213

> <r_epik_State_Penalty>
0.286032

> <r_epik_Charging_Adjusted_Penalty>
0.685465

> <i_epik_Tot_Q>
1

> <i_epik_Tot_abs_Q>
1

> <r_epik_Metal_State_Penalty>
0.286072

> <b_epik_Metal_Only>
0

> <s_lp_Force_Field>
OPLS_2005

> <r_lp_Energy>
43.5533

> <b_lp_Chiralities_Consistent>
1

> <s_lp_Variant>
AV-unprocessed.smi:213-4

> <Gold.Version>
5.8.1

> <Gold.Id.Protein>
6NUR|6NUR_protein|mol2

> <Gold.PLP.Fitness>
50.8743

> <Gold.PLP.PLP>
-46.0687

> <Gold.PLP.part.hbond>
-3.7202

> <Gold.PLP.part.metal>
0.0000

> <Gold.PLP.part.buried>
-5.0448

> <Gold.PLP.part.nonpolar>
-37.2401

> <Gold.PLP.part.repulsive>
0.3091

> <Gold.PLP.ligand.clash>
0.0000

> <Gold.PLP.ligand.torsion>
1.9137

> <Gold.PLP.Chemscore.Hbond>
2.6320

> <Gold.PLP.Chemscore.CHOScore>
0.0000

> <Gold.PLP.Chemscore.Metal>
0.0000

> <Gold.Chemscore.Hbonds>
donor molecule, donor type, donor heavy atom, donor atom, acceptor molecule, acceptor atom, score
      L1  H    23    51       P1  7948  1.00
      P1  H  7989  7998       L1    13  0.84
      P1  H 10752 10763       L1    15  0.83

> <Gold.PLP.Chemscore.Internal.Correction>
0.7370

> <Gold.Rescore>
     Score         DG    S(hbond)    S(metal)    S(lipo)     H(rot)  DE(clash)    DE(int)     intcor
     12.40     -15.82       1.73        0.00     100.71       2.83       0.34       3.08       ----

> <Gold.Chemscore.Fitness>
12.4035

> <Gold.Chemscore.DG>
-15.8203

> <Gold.Chemscore.ZeroCoef>
-5.4800

> <Gold.Chemscore.Hbond>
1.7335

> <Gold.Chemscore.Metal>
0.0000

> <Gold.Chemscore.Lipo>
100.7130

> <Gold.Chemscore.Internal_Hbond>
0.0000

> <Gold.Chemscore.DEClash>
0.3371

> <Gold.Chemscore.DEInternal>
3.0796

> <Gold.Chemscore.Rot>
2.8254

> <Gold.Chemscore.Internal.Correction>
   9.000000E+99

> <Gold.Chemscore.Hbonds>
donor molecule, donor type, donor heavy atom, donor atom, acceptor molecule, acceptor atom, score
      L1  H    23    51       P1  7948  0.94
      P1  H  7989  7998       L1    13  0.09
      P1  H 10752 10763       L1    15  0.72

> <Gold.Chemscore.Hbond.Weighted>
-5.7898

> <Gold.Chemscore.Metal.Weighted>
-0.0000

> <Gold.Chemscore.Lipo.Weighted>
-11.7834

> <Gold.Chemscore.Internal_Hbond.Weighted>
0.0000

> <Gold.Chemscore.DEClash.Weighted>
0.3371

> <Gold.Chemscore.DEInternal.Weighted>
3.0796

> <Gold.Chemscore.Rot.Weighted>
7.2330

> <Gold.Chemscore.Internal.Correction.Weighted>
   9.000000E+99

> <Gold.Protein.RotatedTorsions>
[ 6907 6896 6895 6894 ] final   59.80 input  -60.11 | X-H torsion
[ 7974 7965 7964 7962 ] final   73.81 input  175.53 | X-H torsion
[ 8008 7997 7996 7995 ] final -100.40 input   59.86 | X-H torsion
[ 10167 10162 10161 10158 ] final  -15.41 input  -65.29 | X-H torsion
[ 10718 10713 10712 10709 ] final  -57.79 input   66.30 | X-H torsion
[ 10763 10752 10751 10750 ] final   30.46 input  -60.55 | X-H torsion
[ 11005 11000 10999 10996 ] final  -20.29 input  -57.11 | X-H torsion

> <Gold.Protein.ActiveResidues>
 VAL166  LYS551  ARG553  GLY616  TRP617  ASP618  TYR619  PRO620  LYS621  CYS622 
 ASP623  PHE694  ASN695  SER759  ASP760  ASP761  ALA762  ILE779  LEU786  VAL792 
 PHE793  MET794  SER795  GLU796  ALA797  LYS798  CYS799  TRP800  GLU811  SER814 

> <Gold.Protein.RotatedAtoms>
  152.3947  134.6384  160.0093 H   0  0  0  0  0  0  0  0  0  0  0  0  # atno 6907 bound_to 6896
  151.6608  133.3311  159.3181 H   0  0  0  0  0  0  0  0  0  0  0  0  # atno 6908 bound_to 6896
  150.7857  134.6883  159.6527 H   0  0  0  0  0  0  0  0  0  0  0  0  # atno 6909 bound_to 6896
  145.7362  139.2703  143.1513 H   0  0  0  0  0  0  0  0  0  0  0  0  # atno 7974 bound_to 7965
  154.8281  140.0441  157.1458 H   0  0  0  0  0  0  0  0  0  0  0  0  # atno 8008 bound_to 7997
  154.9183  140.3023  155.5209 H   0  0  0  0  0  0  0  0  0  0  0  0  # atno 8009 bound_to 7997
  156.2985  140.2345  156.4230 H   0  0  0  0  0  0  0  0  0  0  0  0  # atno 8010 bound_to 7997
  140.7218  143.5221  150.9620 H   0  0  0  0  0  0  0  0  0  0  0  0  # atno 10167 bound_to 10162
  156.1184  130.4168  150.0489 H   0  0  0  0  0  0  0  0  0  0  0  0  # atno 10718 bound_to 10713
  153.0370  135.6463  154.1048 H   0  0  0  0  0  0  0  0  0  0  0  0  # atno 10763 bound_to 10752
  154.0761  135.2877  155.3301 H   0  0  0  0  0  0  0  0  0  0  0  0  # atno 10764 bound_to 10752
  154.6561  135.5408  153.8025 H   0  0  0  0  0  0  0  0  0  0  0  0  # atno 10765 bound_to 10752
  140.8450  133.7898  155.9903 H   0  0  0  0  0  0  0  0  0  0  0  0  # atno 11005 bound_to 11000
  146.0491  140.8087  142.9790 LP  0  0  0  0  0  0  0  0  0  0  0  0  # atno 17320 bound_to 7965
  144.6881  140.3026  143.7261 LP  0  0  0  0  0  0  0  0  0  0  0  0  # atno 17321 bound_to 7965
  139.8939  143.6919  152.3141 LP  0  0  0  0  0  0  0  0  0  0  0  0  # atno 17342 bound_to 10162
  139.7245  144.7596  151.0902 LP  0  0  0  0  0  0  0  0  0  0  0  0  # atno 17343 bound_to 10162
  156.8434  130.9433  151.3630 LP  0  0  0  0  0  0  0  0  0  0  0  0  # atno 17370 bound_to 10713
  157.6367  130.8772  149.9372 LP  0  0  0  0  0  0  0  0  0  0  0  0  # atno 17371 bound_to 10713
  140.8853  134.2562  157.5123 LP  0  0  0  0  0  0  0  0  0  0  0  0  # atno 17394 bound_to 11000
  139.8703  134.9635  156.4464 LP  0  0  0  0  0  0  0  0  0  0  0  0  # atno 17395 bound_to 11000

$$$$
