AV-unprocessed.smi:2379|AV-procd|sdf|9454|dock5
  -GOLD-   2272013 83D 1   1.00000     0.00000
 Structure written by MMmdl.
 53 55  0  0  0  0  0  0  0  0  2 V2000
  153.0702  143.0856  161.7580 C   0  0  0  0  0  0  0  0  0  0  0  0
  153.3859  141.9154  160.8503 C   0  0  0  0  0  0  0  0  0  0  0  0
  154.5472  141.1457  161.0507 C   0  0  0  0  0  0  0  0  0  0  0  0
  154.7916  140.0703  160.1746 C   0  0  0  0  0  0  0  0  0  0  0  0
  156.0237  139.2045  160.3301 C   0  0  0  0  0  0  0  0  0  0  0  0
  153.9665  139.7484  159.1553 N   0  0  0  0  0  0  0  0  0  0  0  0
  152.8453  140.4834  158.9519 C   0  0  0  0  0  0  0  0  0  0  0  0
  151.9181  140.2309  157.9060 N   0  0  0  0  0  0  0  0  0  0  0  0
  152.1553  139.6810  156.7018 C   0  0  0  0  0  0  0  0  0  0  0  0
  153.2442  139.2591  156.3118 O   0  0  0  0  0  0  0  0  0  0  0  0
  151.0400  139.6408  155.9575 N   0  0  0  0  0  0  0  0  0  0  0  0
  150.9414  139.0818  154.6091 C   0  0  2  0  0  0  0  0  0  0  0  0
  149.5086  139.1699  154.0465 C   0  0  0  0  0  0  0  0  0  0  0  0
  148.5470  138.2033  154.7594 C   0  0  0  0  0  0  0  0  0  0  0  0
  149.0456  136.8048  154.6956 N   0  3  2  0  0  0  0  0  0  0  0  0
  148.0706  135.8250  155.2429 C   0  0  0  0  0  0  0  0  0  0  0  0
  148.3064  134.3972  154.7102 C   0  0  1  0  0  0  0  0  0  0  0  0
  149.5418  133.6869  155.2435 C   0  0  0  0  0  0  0  0  0  0  0  0
  149.1772  132.2010  155.1676 C   0  0  0  0  0  0  0  0  0  0  0  0
  147.7895  132.1475  154.8558 O   0  0  0  0  0  0  0  0  0  0  0  0
  147.2123  133.4152  155.1200 C   0  0  0  0  0  0  0  0  0  0  0  0
  150.3993  136.6851  155.2989 C   0  0  0  0  0  0  0  0  0  0  0  0
  151.4076  137.6158  154.6002 C   0  0  0  0  0  0  0  0  0  0  0  0
  152.5263  141.5796  159.7844 C   0  0  0  0  0  0  0  0  0  0  0  0
  153.4559  142.9119  162.7630 H   0  0  0  0  0  0  0  0  0  0  0  0
  151.9934  143.2411  161.8318 H   0  0  0  0  0  0  0  0  0  0  0  0
  153.5239  143.9966  161.3679 H   0  0  0  0  0  0  0  0  0  0  0  0
  155.2327  141.3747  161.8537 H   0  0  0  0  0  0  0  0  0  0  0  0
  156.5059  139.3746  161.2930 H   0  0  0  0  0  0  0  0  0  0  0  0
  156.7432  139.4291  159.5426 H   0  0  0  0  0  0  0  0  0  0  0  0
  155.7604  138.1482  160.2653 H   0  0  0  0  0  0  0  0  0  0  0  0
  150.9663  140.5064  158.0965 H   0  0  0  0  0  0  0  0  0  0  0  0
  150.1901  140.0047  156.3628 H   0  0  0  0  0  0  0  0  0  0  0  0
  151.6097  139.6540  153.9629 H   0  0  0  0  0  0  0  0  0  0  0  0
  149.1284  140.1899  154.1101 H   0  0  0  0  0  0  0  0  0  0  0  0
  149.5299  138.9266  152.9833 H   0  0  0  0  0  0  0  0  0  0  0  0
  148.4115  138.4981  155.8012 H   0  0  0  0  0  0  0  0  0  0  0  0
  147.5684  138.2678  154.2822 H   0  0  0  0  0  0  0  0  0  0  0  0
  148.0636  135.8502  156.3337 H   0  0  0  0  0  0  0  0  0  0  0  0
  147.0649  136.1177  154.9373 H   0  0  0  0  0  0  0  0  0  0  0  0
  148.3489  134.4148  153.6195 H   0  0  0  0  0  0  0  0  0  0  0  0
  150.4386  133.9198  154.6683 H   0  0  0  0  0  0  0  0  0  0  0  0
  149.7252  133.9629  156.2829 H   0  0  0  0  0  0  0  0  0  0  0  0
  149.7437  131.6838  154.3929 H   0  0  0  0  0  0  0  0  0  0  0  0
  149.3698  131.7022  156.1180 H   0  0  0  0  0  0  0  0  0  0  0  0
  146.9873  133.4957  156.1850 H   0  0  0  0  0  0  0  0  0  0  0  0
  146.2868  133.5553  154.5609 H   0  0  0  0  0  0  0  0  0  0  0  0
  150.3456  136.9184  156.3632 H   0  0  0  0  0  0  0  0  0  0  0  0
  150.7587  135.6608  155.2249 H   0  0  0  0  0  0  0  0  0  0  0  0
  151.5366  137.2878  153.5677 H   0  0  0  0  0  0  0  0  0  0  0  0
  152.3881  137.5273  155.0698 H   0  0  0  0  0  0  0  0  0  0  0  0
  151.6310  142.1586  159.6095 H   0  0  0  0  0  0  0  0  0  0  0  0
  149.1393  136.5909  153.7129 H   0  0  0  0  0  0  0  0  0  0  0  0
  1  2  1  0  0  0  0
  1 25  1  0  0  0  0
  1 26  1  0  0  0  0
  1 27  1  0  0  0  0
  2 24  1  0  0  0  0
  2  3  2  0  0  0  0
  3  4  1  0  0  0  0
  3 28  1  0  0  0  0
  4  5  1  0  0  0  0
  4  6  2  0  0  0  0
  5 29  1  0  0  0  0
  5 30  1  0  0  0  0
  5 31  1  0  0  0  0
  6  7  1  0  0  0  0
  7  8  1  0  0  0  0
  7 24  2  0  0  0  0
  8  9  1  0  0  0  0
  8 32  1  0  0  0  0
  9 10  2  0  0  0  0
  9 11  1  0  0  0  0
 11 12  1  0  0  0  0
 11 33  1  0  0  0  0
 12 23  1  0  0  0  0
 12 13  1  0  0  0  0
 12 34  1  0  0  0  0
 13 14  1  0  0  0  0
 13 35  1  0  0  0  0
 13 36  1  0  0  0  0
 14 15  1  0  0  0  0
 14 37  1  0  0  0  0
 14 38  1  0  0  0  0
 15 16  1  0  0  0  0
 15 22  1  0  0  0  0
 15 53  1  0  0  0  0
 16 17  1  0  0  0  0
 16 39  1  0  0  0  0
 16 40  1  0  0  0  0
 17 21  1  0  0  0  0
 17 18  1  0  0  0  0
 17 41  1  0  0  0  0
 18 19  1  0  0  0  0
 18 42  1  0  0  0  0
 18 43  1  0  0  0  0
 19 20  1  0  0  0  0
 19 44  1  0  0  0  0
 19 45  1  0  0  0  0
 20 21  1  0  0  0  0
 21 46  1  0  0  0  0
 21 47  1  0  0  0  0
 22 23  1  0  0  0  0
 22 48  1  0  0  0  0
 22 49  1  0  0  0  0
 23 50  1  0  0  0  0
 23 51  1  0  0  0  0
 24 52  1  0  0  0  0
M  CHG  1  15   1
M  END
> <s_m_source_file>
AV-unprocessed.smi

> <i_m_source_file_index>
2379

> <i_lp_mmshare_version>
43012

> <i_f3d_flags>
0

> <s_epik_input>
W0NIM11jMVtjSF1jKFtDSDNdKW5jKFtjSF0xKVtOSF1DKD1PKVtOSF1bQ0hdMltDSDJdW0NIMl1OKFtDSDJdW0NIMl0yKVtDSDJdW0NAQEhdM1tDSDJdW0NIMl1PW0NIMl0z

> <s_epik_cmdline>
J2VwaWtfcHl0aG9uJywgJy1waCcsICc3LjAnLCAnLXRuJywgJzgnLCAnLW1hJywgJzIwMCcsICctbWV0YWxfYmluZGluZycsICctaW1hZScsICc8aW5maWxlLm1hZT4nLCAnLW9tYWUnLCAnPG91dGZpbGUubWFlPic=

> <r_epik_Ionization_Penalty>
0.00766556

> <r_epik_Ionization_Penalty_Charging>
0.00747775

> <r_epik_Ionization_Penalty_Neutral>
0.00018781

> <r_epik_State_Penalty>
0.00558817

> <r_epik_Charging_Adjusted_Penalty>
0.0130659

> <i_epik_Tot_Q>
1

> <i_epik_Tot_abs_Q>
1

> <r_epik_Metal_State_Penalty>
-0

> <b_epik_Metal_Only>
0

> <s_lp_Force_Field>
OPLS_2005

> <r_lp_Energy>
36.2098

> <b_lp_Chiralities_Consistent>
1

> <s_lp_Variant>
AV-unprocessed.smi:2379-4

> <Gold.Version>
5.8.1

> <Gold.Id.Protein>
6NUR|6NUR_protein|mol2

> <Gold.PLP.Fitness>
52.2396

> <Gold.PLP.PLP>
-43.1255

> <Gold.PLP.part.hbond>
-3.0000

> <Gold.PLP.part.metal>
0.0000

> <Gold.PLP.part.buried>
-4.0235

> <Gold.PLP.part.nonpolar>
-36.0611

> <Gold.PLP.part.repulsive>
0.1756

> <Gold.PLP.ligand.clash>
0.0000

> <Gold.PLP.ligand.torsion>
0.3935

> <Gold.PLP.Chemscore.Hbond>
3.2800

> <Gold.PLP.Chemscore.CHOScore>
0.0000

> <Gold.PLP.Chemscore.Metal>
0.0000

> <Gold.Chemscore.Hbonds>
donor molecule, donor type, donor heavy atom, donor atom, acceptor molecule, acceptor atom, score
      L1  H    15    53       P1  7948  2.00
      P1  H  7997  8008       L1    10  0.13
      P1  H  7997  8010       L1     6  0.75

> <Gold.PLP.Chemscore.Internal.Correction>
0.0610

> <Gold.Rescore>
     Score         DG    S(hbond)    S(metal)    S(lipo)     H(rot)  DE(clash)    DE(int)     intcor
     17.98     -20.42       1.59        0.00     112.16       1.37       0.39       2.05       ----

> <Gold.Chemscore.Fitness>
17.9753

> <Gold.Chemscore.DG>
-20.4160

> <Gold.Chemscore.ZeroCoef>
-5.4800

> <Gold.Chemscore.Hbond>
1.5949

> <Gold.Chemscore.Metal>
0.0000

> <Gold.Chemscore.Lipo>
112.1585

> <Gold.Chemscore.Internal_Hbond>
0.0000

> <Gold.Chemscore.DEClash>
0.3918

> <Gold.Chemscore.DEInternal>
2.0490

> <Gold.Chemscore.Rot>
1.3725

> <Gold.Chemscore.Internal.Correction>
   9.000000E+99

> <Gold.Chemscore.Hbonds>
donor molecule, donor type, donor heavy atom, donor atom, acceptor molecule, acceptor atom, score
      L1  H    15    53       P1  7948  0.98
      P1  H  7997  8008       L1    10  0.15
      P1  H  7997  8010       L1     6  0.17

> <Gold.Chemscore.Hbond.Weighted>
-5.3271

> <Gold.Chemscore.Metal.Weighted>
-0.0000

> <Gold.Chemscore.Lipo.Weighted>
-13.1225

> <Gold.Chemscore.Internal_Hbond.Weighted>
0.0000

> <Gold.Chemscore.DEClash.Weighted>
0.3918

> <Gold.Chemscore.DEInternal.Weighted>
2.0490

> <Gold.Chemscore.Rot.Weighted>
3.5136

> <Gold.Chemscore.Internal.Correction.Weighted>
   9.000000E+99

> <Gold.Protein.RotatedTorsions>
[ 6907 6896 6895 6894 ] final  -84.94 input  -60.11 | X-H torsion
[ 7974 7965 7964 7962 ] final -162.69 input  175.53 | X-H torsion
[ 8008 7997 7996 7995 ] final    8.16 input   59.86 | X-H torsion
[ 10167 10162 10161 10158 ] final  136.21 input  -65.29 | X-H torsion
[ 10718 10713 10712 10709 ] final  -41.93 input   66.30 | X-H torsion
[ 10763 10752 10751 10750 ] final  -29.74 input  -60.55 | X-H torsion
[ 11005 11000 10999 10996 ] final  172.61 input  -57.11 | X-H torsion

> <Gold.Protein.ActiveResidues>
 VAL166  LYS551  ARG553  GLY616  TRP617  ASP618  TYR619  PRO620  LYS621  CYS622 
 ASP623  PHE694  ASN695  SER759  ASP760  ASP761  ALA762  ILE779  LEU786  VAL792 
 PHE793  MET794  SER795  GLU796  ALA797  LYS798  CYS799  TRP800  GLU811  SER814 

> <Gold.Protein.RotatedAtoms>
  150.6873  134.3281  159.4814 H   0  0  0  0  0  0  0  0  0  0  0  0  # atno 6907 bound_to 6896
  152.1148  134.9245  160.0574 H   0  0  0  0  0  0  0  0  0  0  0  0  # atno 6908 bound_to 6896
  152.0474  133.3969  159.4399 H   0  0  0  0  0  0  0  0  0  0  0  0  # atno 6909 bound_to 6896
  144.7349  140.3216  143.6170 H   0  0  0  0  0  0  0  0  0  0  0  0  # atno 7974 bound_to 7965
  154.7632  140.2788  155.6197 H   0  0  0  0  0  0  0  0  0  0  0  0  # atno 8008 bound_to 7997
  156.2920  140.2656  156.2343 H   0  0  0  0  0  0  0  0  0  0  0  0  # atno 8009 bound_to 7997
  154.9991  140.0373  157.2342 H   0  0  0  0  0  0  0  0  0  0  0  0  # atno 8010 bound_to 7997
  139.5188  144.6476  151.5394 H   0  0  0  0  0  0  0  0  0  0  0  0  # atno 10167 bound_to 10162
  156.2651  130.4201  149.8500 H   0  0  0  0  0  0  0  0  0  0  0  0  # atno 10718 bound_to 10713
  153.7696  135.6913  153.4909 H   0  0  0  0  0  0  0  0  0  0  0  0  # atno 10763 bound_to 10752
  153.1883  135.4480  155.0116 H   0  0  0  0  0  0  0  0  0  0  0  0  # atno 10764 bound_to 10752
  154.8123  135.3383  154.7206 H   0  0  0  0  0  0  0  0  0  0  0  0  # atno 10765 bound_to 10752
  140.3315  134.7353  157.4138 H   0  0  0  0  0  0  0  0  0  0  0  0  # atno 11005 bound_to 11000
  145.7563  139.1810  143.2293 LP  0  0  0  0  0  0  0  0  0  0  0  0  # atno 17320 bound_to 7965
  146.1021  140.7531  142.9544 LP  0  0  0  0  0  0  0  0  0  0  0  0  # atno 17321 bound_to 7965
  140.6268  143.9153  150.6571 LP  0  0  0  0  0  0  0  0  0  0  0  0  # atno 17342 bound_to 10162
  140.2445  143.3639  152.1459 LP  0  0  0  0  0  0  0  0  0  0  0  0  # atno 17343 bound_to 10162
  156.6001  130.8543  151.3430 LP  0  0  0  0  0  0  0  0  0  0  0  0  # atno 17370 bound_to 10713
  157.7264  130.9629  150.1655 LP  0  0  0  0  0  0  0  0  0  0  0  0  # atno 17371 bound_to 10713
  140.0856  134.5671  155.8495 LP  0  0  0  0  0  0  0  0  0  0  0  0  # atno 17394 bound_to 11000
  141.2062  133.6653  156.6227 LP  0  0  0  0  0  0  0  0  0  0  0  0  # atno 17395 bound_to 11000

$$$$
