AV-unprocessed.smi:1863|AV-procd|sdf|7550|dock4
  -GOLD-   22720 9263D 1   1.00000     0.00000
 Structure written by MMmdl.
 37 38  0  0  0  0  0  0  0  0  1 V2000
  152.7005  139.0252  154.9541 C   0  0  0  0  0  0  0  0  0  0  0  0
  151.2036  139.2240  155.2300 C   0  0  2  0  0  0  0  0  0  0  0  0
  150.3658  138.9805  153.9557 C   0  0  0  0  0  0  0  0  0  0  0  0
  148.9782  139.4141  154.1133 N   0  0  0  0  0  0  0  0  0  0  0  0
  147.9245  138.4466  154.3699 C   0  0  0  0  0  0  0  0  0  0  0  0
  146.6806  139.2900  154.6811 C   0  0  0  0  0  0  0  0  0  0  0  0
  147.0075  140.7049  154.1930 C   0  0  0  0  0  0  0  0  0  0  0  0
  148.5099  140.6603  153.9722 C   0  0  0  0  0  0  0  0  0  0  0  0
  149.1740  141.6602  153.7019 O   0  0  0  0  0  0  0  0  0  0  0  0
  151.0072  140.5856  155.7248 N   0  0  0  0  0  0  0  0  0  0  0  0
  151.5764  141.1077  156.8212 C   0  0  0  0  0  0  0  0  0  0  0  0
  152.3564  140.4887  157.5449 O   0  0  0  0  0  0  0  0  0  0  0  0
  151.1545  142.3658  157.0327 N   0  0  0  0  0  0  0  0  0  0  0  0
  151.5080  143.2458  158.0902 C   0  0  0  0  0  0  0  0  0  0  0  0
  152.0636  142.6872  159.2596 C   0  0  0  0  0  0  0  0  0  0  0  0
  152.4071  143.5360  160.3289 C   0  0  0  0  0  0  0  0  0  0  0  0
  152.1702  144.9172  160.1900 C   0  0  0  0  0  0  0  0  0  0  0  0
  151.6244  145.4671  159.0848 N   0  0  0  0  0  0  0  0  0  0  0  0
  151.2999  144.6471  158.0616 C   0  0  0  0  0  0  0  0  0  0  0  0
  152.9049  138.0104  154.6114 H   0  0  0  0  0  0  0  0  0  0  0  0
  153.2919  139.1910  155.8553 H   0  0  0  0  0  0  0  0  0  0  0  0
  153.0593  139.7137  154.1879 H   0  0  0  0  0  0  0  0  0  0  0  0
  150.9176  138.4933  155.9889 H   0  0  0  0  0  0  0  0  0  0  0  0
  150.8243  139.4646  153.0914 H   0  0  0  0  0  0  0  0  0  0  0  0
  150.3526  137.9142  153.7256 H   0  0  0  0  0  0  0  0  0  0  0  0
  147.7708  137.8371  153.4784 H   0  0  0  0  0  0  0  0  0  0  0  0
  148.1816  137.7846  155.1979 H   0  0  0  0  0  0  0  0  0  0  0  0
  145.7877  138.8863  154.2026 H   0  0  0  0  0  0  0  0  0  0  0  0
  146.4993  139.3047  155.7568 H   0  0  0  0  0  0  0  0  0  0  0  0
  146.5087  140.9261  153.2490 H   0  0  0  0  0  0  0  0  0  0  0  0
  146.7339  141.4672  154.9232 H   0  0  0  0  0  0  0  0  0  0  0  0
  150.3709  141.1683  155.2009 H   0  0  0  0  0  0  0  0  0  0  0  0
  150.4430  142.7073  156.4032 H   0  0  0  0  0  0  0  0  0  0  0  0
  152.2312  141.6227  159.3371 H   0  0  0  0  0  0  0  0  0  0  0  0
  152.8418  143.1379  161.2337 H   0  0  0  0  0  0  0  0  0  0  0  0
  152.4207  145.5982  160.9899 H   0  0  0  0  0  0  0  0  0  0  0  0
  150.8442  145.1396  157.2168 H   0  0  0  0  0  0  0  0  0  0  0  0
  1  2  1  0  0  0  0
  1 20  1  0  0  0  0
  1 21  1  0  0  0  0
  1 22  1  0  0  0  0
  2  3  1  0  0  0  0
  2 10  1  0  0  0  0
  2 23  1  0  0  0  0
  3  4  1  0  0  0  0
  3 24  1  0  0  0  0
  3 25  1  0  0  0  0
  4  8  1  0  0  0  0
  4  5  1  0  0  0  0
  5  6  1  0  0  0  0
  5 26  1  0  0  0  0
  5 27  1  0  0  0  0
  6  7  1  0  0  0  0
  6 28  1  0  0  0  0
  6 29  1  0  0  0  0
  7  8  1  0  0  0  0
  7 30  1  0  0  0  0
  7 31  1  0  0  0  0
  8  9  2  0  0  0  0
 10 11  1  0  0  0  0
 10 32  1  0  0  0  0
 11 12  2  0  0  0  0
 11 13  1  0  0  0  0
 13 14  1  0  0  0  0
 13 33  1  0  0  0  0
 14 19  1  0  0  0  0
 14 15  2  0  0  0  0
 15 16  1  0  0  0  0
 15 34  1  0  0  0  0
 16 17  2  0  0  0  0
 16 35  1  0  0  0  0
 17 18  1  0  0  0  0
 17 36  1  0  0  0  0
 18 19  2  0  0  0  0
 19 37  1  0  0  0  0
M  END
> <s_m_source_file>
AV-unprocessed.smi

> <i_m_source_file_index>
1863

> <i_lp_mmshare_version>
43012

> <i_f3d_flags>
0

> <s_epik_input>
Tz1DMVtDSDJdW0NIMl1bQ0gyXU4xW0NIMl1bQ0BASF0oW0NIM10pW05IXUMoPU8pW05IXWMyW2NIXVtjSF1bY0hdbltjSF0y

> <s_epik_cmdline>
J2VwaWtfcHl0aG9uJywgJy1waCcsICc3LjAnLCAnLXRuJywgJzgnLCAnLW1hJywgJzIwMCcsICctbWV0YWxfYmluZGluZycsICctaW1hZScsICc8aW5maWxlLm1hZT4nLCAnLW9tYWUnLCAnPG91dGZpbGUubWFlPic=

> <r_epik_Ionization_Penalty>
0.0047799

> <r_epik_Ionization_Penalty_Charging>
0

> <r_epik_Ionization_Penalty_Neutral>
0.0047799

> <r_epik_State_Penalty>
0.0034394

> <r_epik_Charging_Adjusted_Penalty>
0.0034394

> <i_epik_Tot_Q>
0

> <i_epik_Tot_abs_Q>
0

> <r_epik_Metal_State_Penalty>
-0

> <b_epik_Metal_Only>
0

> <s_lp_Force_Field>
OPLS_2005

> <r_lp_Energy>
22.2943

> <b_lp_Chiralities_Consistent>
1

> <s_lp_Variant>
AV-unprocessed.smi:1863-1

> <Gold.Version>
5.8.1

> <Gold.Id.Protein>
6NUR|6NUR_protein|mol2

> <Gold.PLP.Fitness>
44.0594

> <Gold.PLP.PLP>
-38.1910

> <Gold.PLP.part.hbond>
-3.5694

> <Gold.PLP.part.metal>
0.0000

> <Gold.PLP.part.buried>
-2.8668

> <Gold.PLP.part.nonpolar>
-29.9351

> <Gold.PLP.part.repulsive>
0.9211

> <Gold.PLP.ligand.clash>
0.0000

> <Gold.PLP.ligand.torsion>
0.4250

> <Gold.PLP.Chemscore.Hbond>
1.2299

> <Gold.PLP.Chemscore.CHOScore>
1.0000

> <Gold.PLP.Chemscore.Metal>
0.0000

> <Gold.Chemscore.Hbonds>
donor molecule, donor type, donor heavy atom, donor atom, acceptor molecule, acceptor atom, score
      P1  H  7997  8009       L1    12  0.39
      P1  H  8011  8017       L1     9  0.69
      L1  C    19    37       P1  8028  1.00

> <Gold.PLP.Chemscore.Internal.Correction>
0.0287

> <Gold.Rescore>
     Score         DG    S(hbond)    S(metal)    S(lipo)     H(rot)  DE(clash)    DE(int)     intcor
     12.50     -16.72       1.35        0.00      91.23       1.54       1.44       2.78       ----

> <Gold.Chemscore.Fitness>
12.4984

> <Gold.Chemscore.DG>
-16.7165

> <Gold.Chemscore.ZeroCoef>
-5.4800

> <Gold.Chemscore.Hbond>
1.3511

> <Gold.Chemscore.Metal>
0.0000

> <Gold.Chemscore.Lipo>
91.2270

> <Gold.Chemscore.Internal_Hbond>
0.0000

> <Gold.Chemscore.DEClash>
1.4374

> <Gold.Chemscore.DEInternal>
2.7807

> <Gold.Chemscore.Rot>
1.5428

> <Gold.Chemscore.Internal.Correction>
   9.000000E+99

> <Gold.Chemscore.Hbonds>
donor molecule, donor type, donor heavy atom, donor atom, acceptor molecule, acceptor atom, score
      P1  H  7997  8009       L1    12  0.38
      P1  H  8011  8017       L1     9  0.68

> <Gold.Chemscore.Hbond.Weighted>
-4.5126

> <Gold.Chemscore.Metal.Weighted>
-0.0000

> <Gold.Chemscore.Lipo.Weighted>
-10.6736

> <Gold.Chemscore.Internal_Hbond.Weighted>
0.0000

> <Gold.Chemscore.DEClash.Weighted>
1.4374

> <Gold.Chemscore.DEInternal.Weighted>
2.7807

> <Gold.Chemscore.Rot.Weighted>
3.9497

> <Gold.Chemscore.Internal.Correction.Weighted>
   9.000000E+99

> <Gold.Protein.RotatedTorsions>
[ 6907 6896 6895 6894 ] final -120.79 input  -60.11 | X-H torsion
[ 7974 7965 7964 7962 ] final   60.32 input  175.53 | X-H torsion
[ 8008 7997 7996 7995 ] final  167.41 input   59.86 | X-H torsion
[ 10167 10162 10161 10158 ] final   50.93 input  -65.29 | X-H torsion
[ 10718 10713 10712 10709 ] final  155.15 input   66.30 | X-H torsion
[ 10763 10752 10751 10750 ] final   95.81 input  -60.55 | X-H torsion
[ 11005 11000 10999 10996 ] final -110.95 input  -57.11 | X-H torsion

> <Gold.Protein.ActiveResidues>
 VAL166  LYS551  ARG553  GLY616  TRP617  ASP618  TYR619  PRO620  LYS621  CYS622 
 ASP623  PHE694  ASN695  SER759  ASP760  ASP761  ALA762  ILE779  LEU786  VAL792 
 PHE793  MET794  SER795  GLU796  ALA797  LYS798  CYS799  TRP800  GLU811  SER814 

> <Gold.Protein.RotatedAtoms>
  150.8425  133.7914  159.3055 H   0  0  0  0  0  0  0  0  0  0  0  0  # atno 6907 bound_to 6896
  151.5611  135.1064  159.9982 H   0  0  0  0  0  0  0  0  0  0  0  0  # atno 6908 bound_to 6896
  152.4486  133.7541  159.6766 H   0  0  0  0  0  0  0  0  0  0  0  0  # atno 6909 bound_to 6896
  145.8973  139.3555  143.0613 H   0  0  0  0  0  0  0  0  0  0  0  0  # atno 7974 bound_to 7965
  156.1636  140.1617  156.8570 H   0  0  0  0  0  0  0  0  0  0  0  0  # atno 8008 bound_to 7997
  154.5185  140.0784  156.8162 H   0  0  0  0  0  0  0  0  0  0  0  0  # atno 8009 bound_to 7997
  155.3657  140.3397  155.4244 H   0  0  0  0  0  0  0  0  0  0  0  0  # atno 8010 bound_to 7997
  140.2673  144.3306  150.6300 H   0  0  0  0  0  0  0  0  0  0  0  0  # atno 10167 bound_to 10162
  157.2222  131.0721  151.1905 H   0  0  0  0  0  0  0  0  0  0  0  0  # atno 10718 bound_to 10713
  153.2575  135.4241  155.0860 H   0  0  0  0  0  0  0  0  0  0  0  0  # atno 10763 bound_to 10752
  154.8407  135.3441  154.6425 H   0  0  0  0  0  0  0  0  0  0  0  0  # atno 10764 bound_to 10752
  153.6845  135.7037  153.5165 H   0  0  0  0  0  0  0  0  0  0  0  0  # atno 10765 bound_to 10752
  141.0762  133.9297  157.2384 H   0  0  0  0  0  0  0  0  0  0  0  0  # atno 11005 bound_to 11000
  145.8835  140.9348  143.0589 LP  0  0  0  0  0  0  0  0  0  0  0  0  # atno 17320 bound_to 7965
  144.6733  140.0811  143.7469 LP  0  0  0  0  0  0  0  0  0  0  0  0  # atno 17321 bound_to 7965
  140.5918  143.2168  151.7238 LP  0  0  0  0  0  0  0  0  0  0  0  0  # atno 17342 bound_to 10162
  139.4999  144.3927  152.0263 LP  0  0  0  0  0  0  0  0  0  0  0  0  # atno 17343 bound_to 10162
  157.3564  130.7109  149.6473 LP  0  0  0  0  0  0  0  0  0  0  0  0  # atno 17370 bound_to 10713
  155.9681  130.4238  150.4578 LP  0  0  0  0  0  0  0  0  0  0  0  0  # atno 17371 bound_to 10713
  139.9575  135.0162  156.9168 LP  0  0  0  0  0  0  0  0  0  0  0  0  # atno 17394 bound_to 11000
  140.5568  134.0574  155.7386 LP  0  0  0  0  0  0  0  0  0  0  0  0  # atno 17395 bound_to 11000

$$$$
