AV-unprocessed.smi:3134|AV-procd|sdf|11943|dock9
  -GOLD-   2272017333D 1   1.00000     0.00000
 Structure written by MMmdl.
 36 36  0  0  0  0  0  0  0  0  1 V2000
  149.6813  136.3665  155.0976 C   0  0  0  0  0  0  0  0  0  0  0  0
  150.5773  137.5801  154.8177 C   0  0  0  0  0  0  0  0  0  0  0  0
  151.8882  137.5149  155.6173 C   0  0  0  0  0  0  0  0  0  0  0  0
  149.8496  138.8038  155.1383 N   0  0  0  0  0  0  0  0  0  0  0  0
  150.3849  140.0329  155.2123 C   0  0  0  0  0  0  0  0  0  0  0  0
  151.5760  140.2662  155.0041 O   0  0  0  0  0  0  0  0  0  0  0  0
  149.4332  141.1698  155.6217 C   0  0  2  0  0  0  0  0  0  0  0  0
  148.3091  141.3412  154.5869 C   0  0  0  0  0  0  0  0  0  0  0  0
  150.1179  142.4589  155.8301 N   0  0  0  0  0  0  0  0  0  0  0  0
  150.9840  142.5012  157.0032 C   0  0  0  0  0  0  0  0  0  0  0  0
  150.1344  142.7696  158.2533 C   0  0  0  0  0  0  0  0  0  0  0  0
  150.7625  143.7412  159.1276 N   0  0  0  0  0  0  0  0  0  0  0  0
  150.7273  145.1173  159.0455 C   0  0  0  0  0  0  0  0  0  0  0  0
  151.4633  145.6049  160.0871 C   0  0  0  0  0  0  0  0  0  0  0  0
  151.9149  144.4346  160.7590 C   0  0  0  0  0  0  0  0  0  0  0  0
  151.4944  143.3205  160.1819 N   0  0  0  0  0  0  0  0  0  0  0  0
  150.1914  135.4368  154.8442 H   0  0  0  0  0  0  0  0  0  0  0  0
  148.7653  136.4101  154.5075 H   0  0  0  0  0  0  0  0  0  0  0  0
  149.3986  136.3147  156.1496 H   0  0  0  0  0  0  0  0  0  0  0  0
  150.8180  137.5765  153.7531 H   0  0  0  0  0  0  0  0  0  0  0  0
  152.4446  136.6073  155.3828 H   0  0  0  0  0  0  0  0  0  0  0  0
  151.6989  137.5211  156.6914 H   0  0  0  0  0  0  0  0  0  0  0  0
  152.5343  138.3632  155.3888 H   0  0  0  0  0  0  0  0  0  0  0  0
  148.8642  138.7076  155.3362 H   0  0  0  0  0  0  0  0  0  0  0  0
  148.9618  140.8890  156.5655 H   0  0  0  0  0  0  0  0  0  0  0  0
  147.7750  140.4044  154.4225 H   0  0  0  0  0  0  0  0  0  0  0  0
  148.6950  141.6779  153.6237 H   0  0  0  0  0  0  0  0  0  0  0  0
  147.5782  142.0770  154.9238 H   0  0  0  0  0  0  0  0  0  0  0  0
  150.6391  142.7388  155.0112 H   0  0  0  0  0  0  0  0  0  0  0  0
  151.5108  141.5515  157.1078 H   0  0  0  0  0  0  0  0  0  0  0  0
  151.7346  143.2857  156.8978 H   0  0  0  0  0  0  0  0  0  0  0  0
  149.1462  143.1398  157.9757 H   0  0  0  0  0  0  0  0  0  0  0  0
  149.9813  141.8472  158.8153 H   0  0  0  0  0  0  0  0  0  0  0  0
  150.1870  145.6286  158.2623 H   0  0  0  0  0  0  0  0  0  0  0  0
  151.6509  146.6397  160.3318 H   0  0  0  0  0  0  0  0  0  0  0  0
  152.5320  144.3620  161.6425 H   0  0  0  0  0  0  0  0  0  0  0  0
  1  2  1  0  0  0  0
  1 17  1  0  0  0  0
  1 18  1  0  0  0  0
  1 19  1  0  0  0  0
  2  3  1  0  0  0  0
  2  4  1  0  0  0  0
  2 20  1  0  0  0  0
  3 21  1  0  0  0  0
  3 22  1  0  0  0  0
  3 23  1  0  0  0  0
  4  5  1  0  0  0  0
  4 24  1  0  0  0  0
  5  6  2  0  0  0  0
  5  7  1  0  0  0  0
  7  8  1  0  0  0  0
  7  9  1  0  0  0  0
  7 25  1  0  0  0  0
  8 26  1  0  0  0  0
  8 27  1  0  0  0  0
  8 28  1  0  0  0  0
  9 10  1  0  0  0  0
  9 29  1  0  0  0  0
 10 11  1  0  0  0  0
 10 30  1  0  0  0  0
 10 31  1  0  0  0  0
 11 12  1  0  0  0  0
 11 32  1  0  0  0  0
 11 33  1  0  0  0  0
 12 16  1  0  0  0  0
 12 13  1  0  0  0  0
 13 14  2  0  0  0  0
 13 34  1  0  0  0  0
 14 15  1  0  0  0  0
 14 35  1  0  0  0  0
 15 16  2  0  0  0  0
 15 36  1  0  0  0  0
M  END
> <s_m_source_file>
AV-unprocessed.smi

> <i_m_source_file_index>
3134

> <i_lp_mmshare_version>
43012

> <i_f3d_flags>
0

> <s_epik_input>
W0NIM11bQ0hdKFtDSDNdKVtOSF1DKD1PKVtDQEhdKFtDSDNdKVtOSF1bQ0gyXVtDSDJdbjFbY0hdW2NIXVtjSF1uMQ==

> <s_epik_cmdline>
J2VwaWtfcHl0aG9uJywgJy1waCcsICc3LjAnLCAnLXRuJywgJzgnLCAnLW1hJywgJzIwMCcsICctbWV0YWxfYmluZGluZycsICctaW1hZScsICc8aW5maWxlLm1hZT4nLCAnLW9tYWUnLCAnPG91dGZpbGUubWFlPic=

> <r_lp_tautomer_probability>
1

> <r_epik_Ionization_Penalty>
0.731872

> <r_epik_Ionization_Penalty_Charging>
0

> <r_epik_Ionization_Penalty_Neutral>
0.731872

> <r_epik_State_Penalty>
0.75611

> <r_epik_Charging_Adjusted_Penalty>
0.75611

> <i_epik_Tot_Q>
0

> <i_epik_Tot_abs_Q>
0

> <r_epik_Metal_State_Penalty>
0.755373

> <b_epik_Metal_Only>
0

> <s_lp_Force_Field>
OPLS_2005

> <r_lp_Energy>
3.66061

> <b_lp_Chiralities_Consistent>
1

> <s_lp_Variant>
AV-unprocessed.smi:3134-3

> <Gold.Version>
5.8.1

> <Gold.Id.Protein>
6NUR|6NUR_protein|mol2

> <Gold.PLP.Fitness>
37.2400

> <Gold.PLP.PLP>
-33.1931

> <Gold.PLP.part.hbond>
-2.0452

> <Gold.PLP.part.metal>
0.0000

> <Gold.PLP.part.buried>
-5.0722

> <Gold.PLP.part.nonpolar>
-26.8431

> <Gold.PLP.part.repulsive>
0.1393

> <Gold.PLP.ligand.clash>
0.0000

> <Gold.PLP.ligand.torsion>
0.9802

> <Gold.PLP.Chemscore.Hbond>
0.9920

> <Gold.PLP.Chemscore.CHOScore>
0.9930

> <Gold.PLP.Chemscore.Metal>
0.0000

> <Gold.Chemscore.Hbonds>
donor molecule, donor type, donor heavy atom, donor atom, acceptor molecule, acceptor atom, score
      P1  H  7989  7998       L1     6  0.98
      L1  C    13    34       P1  8029  1.00

> <Gold.PLP.Chemscore.Internal.Correction>
0.0522

> <Gold.Rescore>
     Score         DG    S(hbond)    S(metal)    S(lipo)     H(rot)  DE(clash)    DE(int)     intcor
     10.20     -12.35       0.94        0.00      76.67       2.05       0.00       2.14       ----

> <Gold.Chemscore.Fitness>
10.2049

> <Gold.Chemscore.DG>
-12.3486

> <Gold.Chemscore.ZeroCoef>
-5.4800

> <Gold.Chemscore.Hbond>
0.9443

> <Gold.Chemscore.Metal>
0.0000

> <Gold.Chemscore.Lipo>
76.6671

> <Gold.Chemscore.Internal_Hbond>
0.0000

> <Gold.Chemscore.DEClash>
0.0000

> <Gold.Chemscore.DEInternal>
2.1437

> <Gold.Chemscore.Rot>
2.0529

> <Gold.Chemscore.Internal.Correction>
   9.000000E+99

> <Gold.Chemscore.Hbonds>
donor molecule, donor type, donor heavy atom, donor atom, acceptor molecule, acceptor atom, score
      P1  H  7989  7998       L1     6  0.51

> <Gold.Chemscore.Hbond.Weighted>
-3.1539

> <Gold.Chemscore.Metal.Weighted>
-0.0000

> <Gold.Chemscore.Lipo.Weighted>
-8.9700

> <Gold.Chemscore.Internal_Hbond.Weighted>
0.0000

> <Gold.Chemscore.DEClash.Weighted>
0.0000

> <Gold.Chemscore.DEInternal.Weighted>
2.1437

> <Gold.Chemscore.Rot.Weighted>
5.2554

> <Gold.Chemscore.Internal.Correction.Weighted>
   9.000000E+99

> <Gold.Protein.RotatedTorsions>
[ 6907 6896 6895 6894 ] final -130.20 input  -60.11 | X-H torsion
[ 7974 7965 7964 7962 ] final  116.73 input  175.53 | X-H torsion
[ 8008 7997 7996 7995 ] final    9.94 input   59.86 | X-H torsion
[ 10167 10162 10161 10158 ] final -169.84 input  -65.29 | X-H torsion
[ 10718 10713 10712 10709 ] final   90.24 input   66.30 | X-H torsion
[ 10763 10752 10751 10750 ] final -127.76 input  -60.55 | X-H torsion
[ 11005 11000 10999 10996 ] final  113.00 input  -57.11 | X-H torsion

> <Gold.Protein.ActiveResidues>
 VAL166  LYS551  ARG553  GLY616  TRP617  ASP618  TYR619  PRO620  LYS621  CYS622 
 ASP623  PHE694  ASN695  SER759  ASP760  ASP761  ALA762  ILE779  LEU786  VAL792 
 PHE793  MET794  SER795  GLU796  ALA797  LYS798  CYS799  TRP800  GLU811  SER814 

> <Gold.Protein.RotatedAtoms>
  150.9371  133.6699  159.2798 H   0  0  0  0  0  0  0  0  0  0  0  0  # atno 6907 bound_to 6896
  151.4101  135.0982  159.9592 H   0  0  0  0  0  0  0  0  0  0  0  0  # atno 6908 bound_to 6896
  152.5053  133.8846  159.7418 H   0  0  0  0  0  0  0  0  0  0  0  0  # atno 6909 bound_to 6896
  145.1761  139.3075  143.4442 H   0  0  0  0  0  0  0  0  0  0  0  0  # atno 7974 bound_to 7965
  154.7868  140.2828  155.6022 H   0  0  0  0  0  0  0  0  0  0  0  0  # atno 8008 bound_to 7997
  156.2958  140.2612  156.2634 H   0  0  0  0  0  0  0  0  0  0  0  0  # atno 8009 bound_to 7997
  154.9718  140.0376  157.2227 H   0  0  0  0  0  0  0  0  0  0  0  0  # atno 8010 bound_to 7997
  139.5898  144.1239  152.1620 H   0  0  0  0  0  0  0  0  0  0  0  0  # atno 10167 bound_to 10162
  157.6958  131.0363  150.3548 H   0  0  0  0  0  0  0  0  0  0  0  0  # atno 10718 bound_to 10713
  154.8754  135.3951  154.3646 H   0  0  0  0  0  0  0  0  0  0  0  0  # atno 10763 bound_to 10752
  153.4414  135.7027  153.6172 H   0  0  0  0  0  0  0  0  0  0  0  0  # atno 10764 bound_to 10752
  153.4751  135.3781  155.2381 H   0  0  0  0  0  0  0  0  0  0  0  0  # atno 10765 bound_to 10752
  139.8941  134.9541  156.6672 H   0  0  0  0  0  0  0  0  0  0  0  0  # atno 11005 bound_to 11000
  146.3461  140.1924  142.8589 LP  0  0  0  0  0  0  0  0  0  0  0  0  # atno 17320 bound_to 7965
  145.0183  140.8773  143.5182 LP  0  0  0  0  0  0  0  0  0  0  0  0  # atno 17321 bound_to 7965
  140.0811  144.5700  150.7122 LP  0  0  0  0  0  0  0  0  0  0  0  0  # atno 17342 bound_to 10162
  140.7163  143.2547  151.4424 LP  0  0  0  0  0  0  0  0  0  0  0  0  # atno 17343 bound_to 10162
  156.3992  130.3912  149.6972 LP  0  0  0  0  0  0  0  0  0  0  0  0  # atno 17370 bound_to 10713
  156.4296  130.7808  151.2828 LP  0  0  0  0  0  0  0  0  0  0  0  0  # atno 17371 bound_to 10713
  140.7401  133.8985  155.8272 LP  0  0  0  0  0  0  0  0  0  0  0  0  # atno 17394 bound_to 11000
  141.0084  134.1054  157.4246 LP  0  0  0  0  0  0  0  0  0  0  0  0  # atno 17395 bound_to 11000

$$$$
