AV-unprocessed.smi:77|AV-procd|sdf|772|dock8
  -GOLD-   2262017123D 1   1.00000     0.00000
 Structure written by MMmdl.
 57 61  0  0  0  0  0  0  0  0  1 V2000
  144.5898  137.7288  152.7277 O   0  0  0  0  0  0  0  0  0  0  0  0
  145.7983  137.6391  152.5091 C   0  0  0  0  0  0  0  0  0  0  0  0
  146.7841  138.5765  153.2165 C   0  0  0  0  0  0  0  0  0  0  0  0
  147.5833  137.8862  154.2345 N   0  0  0  0  0  0  0  0  0  0  0  0
  148.7611  138.4946  154.5026 C   0  0  0  0  0  0  0  0  0  0  0  0
  149.9297  137.8640  154.2130 N   0  0  0  0  0  0  0  0  0  0  0  0
  151.0932  138.4467  154.5185 C   0  0  0  0  0  0  0  0  0  0  0  0
  151.3079  139.6231  155.1126 N   0  0  0  0  0  0  0  0  0  0  0  0
  150.1338  140.2562  155.3978 C   0  0  0  0  0  0  0  0  0  0  0  0
  148.8271  139.7726  155.1155 C   0  0  0  0  0  0  0  0  0  0  0  0
  147.8748  140.6937  155.5319 N   0  0  0  0  0  0  0  0  0  0  0  0
  148.5787  141.6609  156.0532 C   0  0  0  0  0  0  0  0  0  0  0  0
  149.9419  141.4647  156.0437 N   0  0  0  0  0  0  0  0  0  0  0  0
  150.9510  142.3591  156.5793 C   0  0  0  0  0  0  0  0  0  0  0  0
  151.0044  142.4207  158.1323 C   0  0  1  0  0  0  0  0  0  0  0  0
  151.5448  141.0739  158.6719 C   0  0  0  0  0  0  0  0  0  0  0  0
  150.6791  140.0048  158.3509 O   0  0  0  0  0  0  0  0  0  0  0  0
  151.8277  143.6295  158.6751 C   0  0  2  0  0  0  0  0  0  0  0  0
  151.8670  143.7560  160.1916 C   0  0  0  0  0  0  0  0  0  0  0  0
  152.2907  145.2031  160.3886 C   0  0  0  0  0  0  0  0  0  0  0  0
  151.5857  145.9055  159.3801 O   0  0  0  0  0  0  0  0  0  0  0  0
  151.3008  145.0271  158.2958 C   0  0  0  0  0  0  0  0  0  0  0  0
  146.8738  137.4428  155.4269 C   0  0  0  0  0  0  0  0  0  0  0  0
  145.3729  137.6093  155.4934 C   0  0  0  0  0  0  0  0  0  0  0  0
  146.2716  138.4899  156.3317 C   0  0  0  0  0  0  0  0  0  0  0  0
  146.3311  136.7593  151.6487 N   0  0  0  0  0  0  0  0  0  0  0  0
  145.6018  135.7943  150.8915 C   0  0  0  0  0  0  0  0  0  0  0  0
  144.3084  135.2726  151.4786 C   0  0  0  0  0  0  0  0  0  0  0  0
  145.5221  134.3860  151.4401 C   0  0  0  0  0  0  0  0  0  0  0  0
  147.4322  139.0680  152.4880 H   0  0  0  0  0  0  0  0  0  0  0  0
  146.2030  139.3689  153.6901 H   0  0  0  0  0  0  0  0  0  0  0  0
  151.9792  137.8860  154.2590 H   0  0  0  0  0  0  0  0  0  0  0  0
  148.1177  142.5383  156.4827 H   0  0  0  0  0  0  0  0  0  0  0  0
  151.9092  142.0323  156.1745 H   0  0  0  0  0  0  0  0  0  0  0  0
  150.7748  143.3571  156.1759 H   0  0  0  0  0  0  0  0  0  0  0  0
  149.9860  142.5254  158.5086 H   0  0  0  0  0  0  0  0  0  0  0  0
  152.5383  140.8669  158.2729 H   0  0  0  0  0  0  0  0  0  0  0  0
  151.6305  141.0822  159.7576 H   0  0  0  0  0  0  0  0  0  0  0  0
  151.1871  139.2091  158.3075 H   0  0  0  0  0  0  0  0  0  0  0  0
  152.8579  143.5418  158.3259 H   0  0  0  0  0  0  0  0  0  0  0  0
  150.8742  143.5987  160.6158 H   0  0  0  0  0  0  0  0  0  0  0  0
  152.5594  143.0592  160.6650 H   0  0  0  0  0  0  0  0  0  0  0  0
  152.0548  145.5832  161.3827 H   0  0  0  0  0  0  0  0  0  0  0  0
  153.3629  145.3164  160.2216 H   0  0  0  0  0  0  0  0  0  0  0  0
  151.7651  145.4075  157.3868 H   0  0  0  0  0  0  0  0  0  0  0  0
  150.2207  145.0223  158.1474 H   0  0  0  0  0  0  0  0  0  0  0  0
  147.2806  136.5626  155.9224 H   0  0  0  0  0  0  0  0  0  0  0  0
  144.8724  138.0700  154.6436 H   0  0  0  0  0  0  0  0  0  0  0  0
  144.8048  136.8357  156.0059 H   0  0  0  0  0  0  0  0  0  0  0  0
  146.3008  138.3041  157.4035 H   0  0  0  0  0  0  0  0  0  0  0  0
  146.3707  139.5325  156.0355 H   0  0  0  0  0  0  0  0  0  0  0  0
  147.3336  136.7670  151.5271 H   0  0  0  0  0  0  0  0  0  0  0  0
  145.6296  135.8846  149.8064 H   0  0  0  0  0  0  0  0  0  0  0  0
  143.9968  135.6592  152.4472 H   0  0  0  0  0  0  0  0  0  0  0  0
  143.4997  135.0464  150.7864 H   0  0  0  0  0  0  0  0  0  0  0  0
  145.5231  133.5677  150.7229 H   0  0  0  0  0  0  0  0  0  0  0  0
  146.0206  134.1775  152.3850 H   0  0  0  0  0  0  0  0  0  0  0  0
  1  2  2  0  0  0  0
  2  3  1  0  0  0  0
  2 26  1  0  0  0  0
  3  4  1  0  0  0  0
  3 30  1  0  0  0  0
  3 31  1  0  0  0  0
  4  5  1  0  0  0  0
  4 23  1  0  0  0  0
  5 10  1  0  0  0  0
  5  6  2  0  0  0  0
  6  7  1  0  0  0  0
  7  8  2  0  0  0  0
  7 32  1  0  0  0  0
  8  9  1  0  0  0  0
  9 13  1  0  0  0  0
  9 10  2  0  0  0  0
 10 11  1  0  0  0  0
 11 12  2  0  0  0  0
 12 13  1  0  0  0  0
 12 33  1  0  0  0  0
 13 14  1  0  0  0  0
 14 15  1  0  0  0  0
 14 34  1  0  0  0  0
 14 35  1  0  0  0  0
 15 16  1  0  0  0  0
 15 18  1  0  0  0  0
 15 36  1  0  0  0  0
 16 17  1  0  0  0  0
 16 37  1  0  0  0  0
 16 38  1  0  0  0  0
 17 39  1  0  0  0  0
 18 22  1  0  0  0  0
 18 19  1  0  0  0  0
 18 40  1  0  0  0  0
 19 20  1  0  0  0  0
 19 41  1  0  0  0  0
 19 42  1  0  0  0  0
 20 21  1  0  0  0  0
 20 43  1  0  0  0  0
 20 44  1  0  0  0  0
 21 22  1  0  0  0  0
 22 45  1  0  0  0  0
 22 46  1  0  0  0  0
 23 25  1  0  0  0  0
 23 24  1  0  0  0  0
 23 47  1  0  0  0  0
 24 25  1  0  0  0  0
 24 48  1  0  0  0  0
 24 49  1  0  0  0  0
 25 50  1  0  0  0  0
 25 51  1  0  0  0  0
 26 27  1  0  0  0  0
 26 52  1  0  0  0  0
 27 29  1  0  0  0  0
 27 28  1  0  0  0  0
 27 53  1  0  0  0  0
 28 29  1  0  0  0  0
 28 54  1  0  0  0  0
 28 55  1  0  0  0  0
 29 56  1  0  0  0  0
 29 57  1  0  0  0  0
M  END
> <s_m_source_file>
AV-unprocessed.smi

> <i_m_source_file_index>
77

> <i_lp_mmshare_version>
43012

> <i_f3d_flags>
0

> <s_epik_input>
W0NIMl0xW0NIMl1bQ0hdMVtOSF1DKD1PKVtDSDJdTihbQ0hdMltDSDJdW0NIMl0yKWMobltjSF1uMyljKGMzNCluW2NIXW40W0NIMl1bQ0BIXShbQ0gyXVtPSF0pW0NAQEhdNVtDSDJdW0NIMl1PW0NIMl01

> <s_epik_cmdline>
J2VwaWtfcHl0aG9uJywgJy1waCcsICc3LjAnLCAnLXRuJywgJzgnLCAnLW1hJywgJzIwMCcsICctbWV0YWxfYmluZGluZycsICctaW1hZScsICc8aW5maWxlLm1hZT4nLCAnLW9tYWUnLCAnPG91dGZpbGUubWFlPic=

> <r_lp_tautomer_probability>
1

> <r_epik_Ionization_Penalty>
0.000703847

> <r_epik_Ionization_Penalty_Charging>
0

> <r_epik_Ionization_Penalty_Neutral>
0.000703847

> <r_epik_State_Penalty>
0.00034025

> <r_epik_Charging_Adjusted_Penalty>
0.00034025

> <i_epik_Tot_Q>
0

> <i_epik_Tot_abs_Q>
0

> <r_epik_Metal_State_Penalty>
-0

> <b_epik_Metal_Only>
0

> <s_lp_Force_Field>
OPLS_2005

> <r_lp_Energy>
54.5586

> <b_lp_Chiralities_Consistent>
1

> <s_lp_Variant>
AV-unprocessed.smi:77-2

> <Gold.Version>
5.8.1

> <Gold.Id.Protein>
6NUR|6NUR_protein|mol2

> <Gold.PLP.Fitness>
49.6827

> <Gold.PLP.PLP>
-43.7760

> <Gold.PLP.part.hbond>
-3.4727

> <Gold.PLP.part.metal>
0.0000

> <Gold.PLP.part.buried>
-8.6151

> <Gold.PLP.part.nonpolar>
-35.8534

> <Gold.PLP.part.repulsive>
3.0851

> <Gold.PLP.ligand.clash>
0.0000

> <Gold.PLP.ligand.torsion>
1.6664

> <Gold.PLP.Chemscore.Hbond>
1.7420

> <Gold.PLP.Chemscore.CHOScore>
0.6901

> <Gold.PLP.Chemscore.Metal>
0.0000

> <Gold.Chemscore.Hbonds>
donor molecule, donor type, donor heavy atom, donor atom, acceptor molecule, acceptor atom, score
      L1  H    26    52       P1  7948  1.00
      P1  H  7989  7998       L1     8  0.56
      L1  C    12    33       P1  8028  0.76

> <Gold.PLP.Chemscore.Internal.Correction>
1.9432

> <Gold.Rescore>
     Score         DG    S(hbond)    S(metal)    S(lipo)     H(rot)  DE(clash)    DE(int)     intcor
      2.51      -9.86       0.92        0.00      93.57       3.77       2.22       5.14       ----

> <Gold.Chemscore.Fitness>
2.5051

> <Gold.Chemscore.DG>
-9.8608

> <Gold.Chemscore.ZeroCoef>
-5.4800

> <Gold.Chemscore.Hbond>
0.9244

> <Gold.Chemscore.Metal>
0.0000

> <Gold.Chemscore.Lipo>
93.5732

> <Gold.Chemscore.Internal_Hbond>
0.0000

> <Gold.Chemscore.DEClash>
2.2195

> <Gold.Chemscore.DEInternal>
5.1362

> <Gold.Chemscore.Rot>
3.7714

> <Gold.Chemscore.Internal.Correction>
   9.000000E+99

> <Gold.Chemscore.Hbonds>
donor molecule, donor type, donor heavy atom, donor atom, acceptor molecule, acceptor atom, score
      L1  H    26    52       P1  7948  0.98
      P1  H  7989  7998       L1     8  0.01

> <Gold.Chemscore.Hbond.Weighted>
-3.0875

> <Gold.Chemscore.Metal.Weighted>
-0.0000

> <Gold.Chemscore.Lipo.Weighted>
-10.9481

> <Gold.Chemscore.Internal_Hbond.Weighted>
0.0000

> <Gold.Chemscore.DEClash.Weighted>
2.2195

> <Gold.Chemscore.DEInternal.Weighted>
5.1362

> <Gold.Chemscore.Rot.Weighted>
9.6548

> <Gold.Chemscore.Internal.Correction.Weighted>
   9.000000E+99

> <Gold.Protein.RotatedTorsions>
[ 6907 6896 6895 6894 ] final  -46.18 input  -60.11 | X-H torsion
[ 7974 7965 7964 7962 ] final    6.96 input  175.53 | X-H torsion
[ 8008 7997 7996 7995 ] final    7.74 input   59.86 | X-H torsion
[ 10167 10162 10161 10158 ] final -162.24 input  -65.29 | X-H torsion
[ 10718 10713 10712 10709 ] final    5.04 input   66.30 | X-H torsion
[ 10763 10752 10751 10750 ] final  -86.02 input  -60.55 | X-H torsion
[ 11005 11000 10999 10996 ] final  128.69 input  -57.11 | X-H torsion

> <Gold.Protein.ActiveResidues>
 VAL166  LYS551  ARG553  GLY616  TRP617  ASP618  TYR619  PRO620  LYS621  CYS622 
 ASP623  PHE694  ASN695  SER759  ASP760  ASP761  ALA762  ILE779  LEU786  VAL792 
 PHE793  MET794  SER795  GLU796  ALA797  LYS798  CYS799  TRP800  GLU811  SER814 

> <Gold.Protein.RotatedAtoms>
  150.9140  134.8557  159.7443 H   0  0  0  0  0  0  0  0  0  0  0  0  # atno 6907 bound_to 6896
  152.4959  134.4317  159.9524 H   0  0  0  0  0  0  0  0  0  0  0  0  # atno 6908 bound_to 6896
  151.4357  133.3618  159.2810 H   0  0  0  0  0  0  0  0  0  0  0  0  # atno 6909 bound_to 6896
  146.2430  140.0154  142.8403 H   0  0  0  0  0  0  0  0  0  0  0  0  # atno 7974 bound_to 7965
  154.7578  140.2779  155.6239 H   0  0  0  0  0  0  0  0  0  0  0  0  # atno 8008 bound_to 7997
  156.2909  140.2666  156.2275 H   0  0  0  0  0  0  0  0  0  0  0  0  # atno 8009 bound_to 7997
  155.0056  140.0372  157.2368 H   0  0  0  0  0  0  0  0  0  0  0  0  # atno 8010 bound_to 7997
  139.6407  144.0266  152.2089 H   0  0  0  0  0  0  0  0  0  0  0  0  # atno 10167 bound_to 10162
  156.9015  130.5723  149.5648 H   0  0  0  0  0  0  0  0  0  0  0  0  # atno 10718 bound_to 10713
  154.6177  135.5464  153.7541 H   0  0  0  0  0  0  0  0  0  0  0  0  # atno 10763 bound_to 10752
  153.0224  135.6405  154.1486 H   0  0  0  0  0  0  0  0  0  0  0  0  # atno 10764 bound_to 10752
  154.1422  135.2907  155.3138 H   0  0  0  0  0  0  0  0  0  0  0  0  # atno 10765 bound_to 10752
  139.9574  134.9610  156.9038 H   0  0  0  0  0  0  0  0  0  0  0  0  # atno 11005 bound_to 11000
  145.1289  140.9506  143.4556 LP  0  0  0  0  0  0  0  0  0  0  0  0  # atno 17320 bound_to 7965
  145.0407  139.3262  143.5978 LP  0  0  0  0  0  0  0  0  0  0  0  0  # atno 17321 bound_to 7965
  139.9954  144.6331  150.7776 LP  0  0  0  0  0  0  0  0  0  0  0  0  # atno 17342 bound_to 10162
  140.7489  143.2930  151.3280 LP  0  0  0  0  0  0  0  0  0  0  0  0  # atno 17343 bound_to 10162
  156.0580  130.5638  150.9132 LP  0  0  0  0  0  0  0  0  0  0  0  0  # atno 17370 bound_to 10713
  157.6023  131.0940  150.8939 LP  0  0  0  0  0  0  0  0  0  0  0  0  # atno 17371 bound_to 10713
  140.5578  134.0565  155.7389 LP  0  0  0  0  0  0  0  0  0  0  0  0  # atno 17394 bound_to 11000
  141.1247  133.9402  157.2659 LP  0  0  0  0  0  0  0  0  0  0  0  0  # atno 17395 bound_to 11000

$$$$
