AV-unprocessed.smi:2078|AV-procd|sdf|8467|dock1
  -GOLD-   2272011163D 1   1.00000     0.00000
 Structure written by MMmdl.
 41 42  0  0  0  0  0  0  0  0  3 V2000
  135.4590  137.9373  155.1683 C   0  0  0  0  0  0  0  0  0  0  0  0
  136.8048  137.4454  155.5785 C   0  0  0  0  0  0  0  0  0  0  0  0
  137.9381  137.1491  154.8759 C   0  0  0  0  0  0  0  0  0  0  0  0
  138.8463  136.7296  155.8859 C   0  0  0  0  0  0  0  0  0  0  0  0
  140.1164  136.3413  155.6934 N   0  5  0  0  0  0  0  0  0  0  0  0
  140.6723  136.4169  154.4630 C   0  0  0  0  0  0  0  0  0  0  0  0
  140.3583  137.2003  153.5634 O   0  0  0  0  0  0  0  0  0  0  0  0
  141.6531  135.5260  154.2592 N   0  0  0  0  0  0  0  0  0  0  0  0
  142.4176  135.3725  153.0273 C   0  0  0  0  0  0  0  0  0  0  0  0
  143.8442  134.8680  153.3147 C   0  0  0  0  0  0  0  0  0  0  0  0
  144.0785  133.5044  152.7782 N   0  3  1  0  0  0  0  0  0  0  0  0
  143.6023  133.3641  151.3782 C   0  0  0  0  0  0  0  0  0  0  0  0
  143.7315  131.9119  150.8910 C   0  0  0  0  0  0  0  0  0  0  0  0
  145.1753  131.4127  151.0279 C   0  0  0  0  0  0  0  0  0  0  0  0
  145.6658  131.5902  152.4747 C   0  0  1  0  0  0  0  0  0  0  0  0
  147.1200  131.1244  152.6348 C   0  0  0  0  0  0  0  0  0  0  0  0
  145.4899  133.0555  152.9226 C   0  0  0  0  0  0  0  0  0  0  0  0
  138.3162  136.7819  157.0963 N   0  0  0  0  0  0  0  0  0  0  0  0
  137.0051  137.2355  156.9075 O   0  0  0  0  0  0  0  0  0  0  0  0
  135.4811  139.0118  154.9861 H   0  0  0  0  0  0  0  0  0  0  0  0
  134.7164  137.7400  155.9418 H   0  0  0  0  0  0  0  0  0  0  0  0
  135.1305  137.4452  154.2527 H   0  0  0  0  0  0  0  0  0  0  0  0
  138.0926  137.2174  153.8096 H   0  0  0  0  0  0  0  0  0  0  0  0
  141.8804  134.9046  155.0222 H   0  0  0  0  0  0  0  0  0  0  0  0
  141.8797  134.7051  152.3538 H   0  0  0  0  0  0  0  0  0  0  0  0
  142.4593  136.3432  152.5329 H   0  0  0  0  0  0  0  0  0  0  0  0
  144.5441  135.5653  152.8517 H   0  0  0  0  0  0  0  0  0  0  0  0
  144.0623  134.8817  154.3837 H   0  0  0  0  0  0  0  0  0  0  0  0
  142.5575  133.6699  151.3110 H   0  0  0  0  0  0  0  0  0  0  0  0
  144.1715  134.0324  150.7301 H   0  0  0  0  0  0  0  0  0  0  0  0
  143.0647  131.2704  151.4687 H   0  0  0  0  0  0  0  0  0  0  0  0
  143.4089  131.8376  149.8520 H   0  0  0  0  0  0  0  0  0  0  0  0
  145.2349  130.3644  150.7327 H   0  0  0  0  0  0  0  0  0  0  0  0
  145.8206  131.9666  150.3444 H   0  0  0  0  0  0  0  0  0  0  0  0
  145.0478  130.9641  153.1203 H   0  0  0  0  0  0  0  0  0  0  0  0
  147.7959  131.7124  152.0131 H   0  0  0  0  0  0  0  0  0  0  0  0
  147.2310  130.0780  152.3493 H   0  0  0  0  0  0  0  0  0  0  0  0
  147.4520  131.2202  153.6690 H   0  0  0  0  0  0  0  0  0  0  0  0
  146.1396  133.7093  152.3380 H   0  0  0  0  0  0  0  0  0  0  0  0
  145.8074  133.1478  153.9607 H   0  0  0  0  0  0  0  0  0  0  0  0
  143.5103  132.8800  153.3326 H   0  0  0  0  0  0  0  0  0  0  0  0
  1  2  1  0  0  0  0
  1 20  1  0  0  0  0
  1 21  1  0  0  0  0
  1 22  1  0  0  0  0
  2 19  1  0  0  0  0
  2  3  2  0  0  0  0
  3  4  1  0  0  0  0
  3 23  1  0  0  0  0
  4  5  1  0  0  0  0
  4 18  2  0  0  0  0
  5  6  1  0  0  0  0
  6  7  2  0  0  0  0
  6  8  1  0  0  0  0
  8  9  1  0  0  0  0
  8 24  1  0  0  0  0
  9 10  1  0  0  0  0
  9 25  1  0  0  0  0
  9 26  1  0  0  0  0
 10 11  1  0  0  0  0
 10 27  1  0  0  0  0
 10 28  1  0  0  0  0
 11 17  1  0  0  0  0
 11 12  1  0  0  0  0
 11 41  1  0  0  0  0
 12 13  1  0  0  0  0
 12 29  1  0  0  0  0
 12 30  1  0  0  0  0
 13 14  1  0  0  0  0
 13 31  1  0  0  0  0
 13 32  1  0  0  0  0
 14 15  1  0  0  0  0
 14 33  1  0  0  0  0
 14 34  1  0  0  0  0
 15 16  1  0  0  0  0
 15 17  1  0  0  0  0
 15 35  1  0  0  0  0
 16 36  1  0  0  0  0
 16 37  1  0  0  0  0
 16 38  1  0  0  0  0
 17 39  1  0  0  0  0
 17 40  1  0  0  0  0
 18 19  1  0  0  0  0
M  CHG  1   5  -1
M  CHG  1  11   1
M  END
> <s_m_source_file>
AV-unprocessed.smi

> <i_m_source_file_index>
2078

> <i_lp_mmshare_version>
43012

> <i_f3d_flags>
0

> <s_epik_input>
W0NIM11jMVtjSF1jKG5vMSlbTkhdQyg9TylbTkhdW0NIMl1bQ0gyXU4yW0NIMl1bQ0gyXVtDSDJdW0NAQEhdKFtDSDNdKVtDSDJdMg==

> <s_epik_cmdline>
J2VwaWtfcHl0aG9uJywgJy1waCcsICc3LjAnLCAnLXRuJywgJzgnLCAnLW1hJywgJzIwMCcsICctbWV0YWxfYmluZGluZycsICctaW1hZScsICc8aW5maWxlLm1hZT4nLCAnLW9tYWUnLCAnPG91dGZpbGUubWFlPic=

> <r_epik_Ionization_Penalty>
6.22434

> <r_epik_Ionization_Penalty_Charging>
6.22425

> <r_epik_Ionization_Penalty_Neutral>
9.37855e-05

> <r_epik_State_Penalty>
6.22423

> <r_epik_Charging_Adjusted_Penalty>
12.4485

> <i_epik_Tot_Q>
0

> <i_epik_Tot_abs_Q>
2

> <r_epik_Metal_State_Penalty>
2.16764

> <b_epik_Metal_Only>
1

> <s_lp_Force_Field>
OPLS_2005

> <r_lp_Energy>
3.15807

> <b_lp_Chiralities_Consistent>
1

> <s_lp_Variant>
AV-unprocessed.smi:2078-5

> <Gold.Version>
5.8.1

> <Gold.Id.Protein>
6NUR|6NUR_protein|mol2

> <Gold.PLP.Fitness>
38.8250

> <Gold.PLP.PLP>
-31.2956

> <Gold.PLP.part.hbond>
-2.2632

> <Gold.PLP.part.metal>
0.0000

> <Gold.PLP.part.buried>
-6.0578

> <Gold.PLP.part.nonpolar>
-23.5675

> <Gold.PLP.part.repulsive>
0.3803

> <Gold.PLP.ligand.clash>
0.0000

> <Gold.PLP.ligand.torsion>
0.7667

> <Gold.PLP.Chemscore.Hbond>
2.9825

> <Gold.PLP.Chemscore.CHOScore>
0.0000

> <Gold.PLP.Chemscore.Metal>
0.0000

> <Gold.Chemscore.Hbonds>
donor molecule, donor type, donor heavy atom, donor atom, acceptor molecule, acceptor atom, score
      L1  H    11    41       P1 10957  2.00
      P1  H 11000 11005       L1     5  0.72

> <Gold.PLP.Chemscore.Internal.Correction>
0.1153

> <Gold.Rescore>
     Score         DG    S(hbond)    S(metal)    S(lipo)     H(rot)  DE(clash)    DE(int)     intcor
     12.59     -14.88       1.72        0.00      65.09       1.54       0.02       2.27       ----

> <Gold.Chemscore.Fitness>
12.5934

> <Gold.Chemscore.DG>
-14.8805

> <Gold.Chemscore.ZeroCoef>
-5.4800

> <Gold.Chemscore.Hbond>
1.7153

> <Gold.Chemscore.Metal>
0.0000

> <Gold.Chemscore.Lipo>
65.0933

> <Gold.Chemscore.Internal_Hbond>
0.0000

> <Gold.Chemscore.DEClash>
0.0197

> <Gold.Chemscore.DEInternal>
2.2675

> <Gold.Chemscore.Rot>
1.5409

> <Gold.Chemscore.Internal.Correction>
   9.000000E+99

> <Gold.Chemscore.Hbonds>
donor molecule, donor type, donor heavy atom, donor atom, acceptor molecule, acceptor atom, score
      L1  H    11    41       P1 10957  0.62
      P1  H 11000 11005       L1     5  0.10

> <Gold.Chemscore.Hbond.Weighted>
-5.7292

> <Gold.Chemscore.Metal.Weighted>
-0.0000

> <Gold.Chemscore.Lipo.Weighted>
-7.6159

> <Gold.Chemscore.Internal_Hbond.Weighted>
0.0000

> <Gold.Chemscore.DEClash.Weighted>
0.0197

> <Gold.Chemscore.DEInternal.Weighted>
2.2675

> <Gold.Chemscore.Rot.Weighted>
3.9446

> <Gold.Chemscore.Internal.Correction.Weighted>
   9.000000E+99

> <Gold.Protein.RotatedTorsions>
[ 6907 6896 6895 6894 ] final   22.12 input  -60.11 | X-H torsion
[ 7974 7965 7964 7962 ] final   24.51 input  175.53 | X-H torsion
[ 8008 7997 7996 7995 ] final  149.80 input   59.86 | X-H torsion
[ 10167 10162 10161 10158 ] final  -80.70 input  -65.29 | X-H torsion
[ 10718 10713 10712 10709 ] final   69.09 input   66.30 | X-H torsion
[ 10763 10752 10751 10750 ] final  -19.73 input  -60.55 | X-H torsion
[ 11005 11000 10999 10996 ] final   79.46 input  -57.11 | X-H torsion

> <Gold.Protein.ActiveResidues>
 VAL166  LYS551  ARG553  GLY616  TRP617  ASP618  TYR619  PRO620  LYS621  CYS622 
 ASP623  PHE694  ASN695  SER759  ASP760  ASP761  ALA762  ILE779  LEU786  VAL792 
 PHE793  MET794  SER795  GLU796  ALA797  LYS798  CYS799  TRP800  GLU811  SER814 

> <Gold.Protein.RotatedAtoms>
  151.9223  135.0293  160.0522 H   0  0  0  0  0  0  0  0  0  0  0  0  # atno 6907 bound_to 6896
  152.2189  133.4964  159.5160 H   0  0  0  0  0  0  0  0  0  0  0  0  # atno 6908 bound_to 6896
  150.6995  134.1285  159.4103 H   0  0  0  0  0  0  0  0  0  0  0  0  # atno 6909 bound_to 6896
  146.1934  139.7594  142.8815 H   0  0  0  0  0  0  0  0  0  0  0  0  # atno 7974 bound_to 7965
  156.2741  140.2092  156.5915 H   0  0  0  0  0  0  0  0  0  0  0  0  # atno 8008 bound_to 7997
  154.6978  140.0524  157.0452 H   0  0  0  0  0  0  0  0  0  0  0  0  # atno 8009 bound_to 7997
  155.0776  140.3183  155.4614 H   0  0  0  0  0  0  0  0  0  0  0  0  # atno 8010 bound_to 7997
  140.4479  143.2493  151.8532 H   0  0  0  0  0  0  0  0  0  0  0  0  # atno 10167 bound_to 10162
  157.6326  130.9408  150.0467 H   0  0  0  0  0  0  0  0  0  0  0  0  # atno 10718 bound_to 10713
  153.6094  135.6996  153.5353 H   0  0  0  0  0  0  0  0  0  0  0  0  # atno 10763 bound_to 10752
  153.3029  135.4123  155.1268 H   0  0  0  0  0  0  0  0  0  0  0  0  # atno 10764 bound_to 10752
  154.8566  135.3653  154.5632 H   0  0  0  0  0  0  0  0  0  0  0  0  # atno 10765 bound_to 10752
  139.9172  134.7844  156.1782 H   0  0  0  0  0  0  0  0  0  0  0  0  # atno 11005 bound_to 11000
  145.3722  141.0344  143.3225 LP  0  0  0  0  0  0  0  0  0  0  0  0  # atno 17320 bound_to 7965
  144.8531  139.5291  143.6847 LP  0  0  0  0  0  0  0  0  0  0  0  0  # atno 17321 bound_to 7965
  139.4794  144.5154  151.8875 LP  0  0  0  0  0  0  0  0  0  0  0  0  # atno 17342 bound_to 10162
  140.4242  144.2203  150.5887 LP  0  0  0  0  0  0  0  0  0  0  0  0  # atno 17343 bound_to 10162
  156.1541  130.3643  149.9394 LP  0  0  0  0  0  0  0  0  0  0  0  0  # atno 17370 bound_to 10713
  156.7407  130.9078  151.3632 LP  0  0  0  0  0  0  0  0  0  0  0  0  # atno 17371 bound_to 10713
  141.0659  133.6819  156.2043 LP  0  0  0  0  0  0  0  0  0  0  0  0  # atno 17394 bound_to 11000
  140.6586  134.4991  157.5582 LP  0  0  0  0  0  0  0  0  0  0  0  0  # atno 17395 bound_to 11000

$$$$
