AV-unprocessed.smi:283|AV-procd|sdf|2140|dock9
  -GOLD-   2262021463D 1   1.00000     0.00000
 Structure written by MMmdl.
 48 51  0  0  0  0  0  0  0  0  1 V2000
  151.6768  140.5715  155.8879 C   0  0  0  0  0  0  0  0  0  0  0  0
  150.6808  141.4874  156.6117 C   0  0  1  0  0  0  0  0  0  0  0  0
  149.4892  140.7260  156.9813 N   0  0  0  0  0  0  0  0  0  0  0  0
  148.5978  140.3288  156.0461 C   0  0  0  0  0  0  0  0  0  0  0  0
  148.6376  141.0078  154.8750 N   0  0  0  0  0  0  0  0  0  0  0  0
  147.8190  140.6694  153.8755 C   0  0  0  0  0  0  0  0  0  0  0  0
  146.9014  139.7023  153.8413 N   0  0  0  0  0  0  0  0  0  0  0  0
  146.8400  139.0242  155.0242 C   0  0  0  0  0  0  0  0  0  0  0  0
  147.6438  139.2759  156.1730 C   0  0  0  0  0  0  0  0  0  0  0  0
  147.2843  138.3931  157.1852 N   0  0  0  0  0  0  0  0  0  0  0  0
  146.3474  137.6549  156.6570 C   0  0  0  0  0  0  0  0  0  0  0  0
  146.0225  137.9615  155.3564 N   0  0  0  0  0  0  0  0  0  0  0  0
  145.0081  137.2832  154.4899 C   0  0  1  0  0  0  0  0  0  0  0  0
  145.2858  137.5537  153.1548 O   0  0  0  0  0  0  0  0  0  0  0  0
  144.8227  136.4763  152.3472 C   0  0  1  0  0  0  0  0  0  0  0  0
  145.8707  136.1827  151.2579 C   0  0  0  0  0  0  0  0  0  0  0  0
  146.4177  137.3673  150.7168 O   0  0  0  0  0  0  0  0  0  0  0  0
  144.4854  135.3023  153.2913 C   0  0  2  0  0  0  0  0  0  0  0  0
  143.0812  135.1354  153.3492 O   0  0  0  0  0  0  0  0  0  0  0  0
  145.0046  135.7562  154.6499 C   0  0  1  0  0  0  0  0  0  0  0  0
  146.2847  135.2121  154.9148 O   0  0  0  0  0  0  0  0  0  0  0  0
  151.3700  142.2084  157.7745 C   0  0  0  0  0  0  0  0  0  0  0  0
  151.3848  143.6224  157.8203 C   0  0  0  0  0  0  0  0  0  0  0  0
  152.0205  144.3007  158.8768 C   0  0  0  0  0  0  0  0  0  0  0  0
  152.6405  143.5720  159.9075 C   0  0  0  0  0  0  0  0  0  0  0  0
  152.6176  142.1656  159.8820 C   0  0  0  0  0  0  0  0  0  0  0  0
  151.9839  141.4811  158.8255 C   0  0  0  0  0  0  0  0  0  0  0  0
  151.9769  139.7522  158.8542 Cl  0  0  0  0  0  0  0  0  0  0  0  0
  144.0521  137.7351  154.7584 H   0  0  0  0  0  0  0  0  0  0  0  0
  143.9175  136.8289  151.8495 H   0  0  0  0  0  0  0  0  0  0  0  0
  144.9222  134.3547  152.9729 H   0  0  0  0  0  0  0  0  0  0  0  0
  144.3454  135.4765  155.4729 H   0  0  0  0  0  0  0  0  0  0  0  0
  152.5366  141.1359  155.5255 H   0  0  0  0  0  0  0  0  0  0  0  0
  151.2145  140.0899  155.0256 H   0  0  0  0  0  0  0  0  0  0  0  0
  152.0489  139.7880  156.5490 H   0  0  0  0  0  0  0  0  0  0  0  0
  150.3487  142.2256  155.8838 H   0  0  0  0  0  0  0  0  0  0  0  0
  149.2420  140.7818  157.9586 H   0  0  0  0  0  0  0  0  0  0  0  0
  147.9155  141.2536  152.9723 H   0  0  0  0  0  0  0  0  0  0  0  0
  145.8692  136.8556  157.2045 H   0  0  0  0  0  0  0  0  0  0  0  0
  146.6903  135.6025  151.6828 H   0  0  0  0  0  0  0  0  0  0  0  0
  145.4356  135.5831  150.4580 H   0  0  0  0  0  0  0  0  0  0  0  0
  145.7146  137.8767  150.3412 H   0  0  0  0  0  0  0  0  0  0  0  0
  142.7435  135.6785  154.0450 H   0  0  0  0  0  0  0  0  0  0  0  0
  146.9093  135.9207  154.9482 H   0  0  0  0  0  0  0  0  0  0  0  0
  150.9107  144.1987  157.0395 H   0  0  0  0  0  0  0  0  0  0  0  0
  152.0312  145.3805  158.8960 H   0  0  0  0  0  0  0  0  0  0  0  0
  153.1284  144.0907  160.7194 H   0  0  0  0  0  0  0  0  0  0  0  0
  153.0877  141.6091  160.6794 H   0  0  0  0  0  0  0  0  0  0  0  0
  1  2  1  0  0  0  0
  1 33  1  0  0  0  0
  1 34  1  0  0  0  0
  1 35  1  0  0  0  0
  2  3  1  0  0  0  0
  2 22  1  0  0  0  0
  2 36  1  0  0  0  0
  3  4  1  0  0  0  0
  3 37  1  0  0  0  0
  4  9  1  0  0  0  0
  4  5  2  0  0  0  0
  5  6  1  0  0  0  0
  6  7  2  0  0  0  0
  6 38  1  0  0  0  0
  7  8  1  0  0  0  0
  8 12  1  0  0  0  0
  8  9  2  0  0  0  0
  9 10  1  0  0  0  0
 10 11  2  0  0  0  0
 11 12  1  0  0  0  0
 11 39  1  0  0  0  0
 12 13  1  0  0  0  0
 13 29  1  0  0  0  0
 13 20  1  0  0  0  0
 13 14  1  0  0  0  0
 14 15  1  0  0  0  0
 15 30  1  0  0  0  0
 15 16  1  0  0  0  0
 15 18  1  0  0  0  0
 16 17  1  0  0  0  0
 16 40  1  0  0  0  0
 16 41  1  0  0  0  0
 17 42  1  0  0  0  0
 18 31  1  0  0  0  0
 18 19  1  0  0  0  0
 18 20  1  0  0  0  0
 19 43  1  0  0  0  0
 20 32  1  0  0  0  0
 20 21  1  0  0  0  0
 21 44  1  0  0  0  0
 22 27  1  0  0  0  0
 22 23  2  0  0  0  0
 23 24  1  0  0  0  0
 23 45  1  0  0  0  0
 24 25  2  0  0  0  0
 24 46  1  0  0  0  0
 25 26  1  0  0  0  0
 25 47  1  0  0  0  0
 26 27  2  0  0  0  0
 26 48  1  0  0  0  0
 27 28  1  0  0  0  0
M  END
> <s_m_source_file>
AV-unprocessed.smi

> <i_m_source_file_index>
283

> <i_lp_mmshare_version>
43012

> <i_f3d_flags>
0

> <s_epik_input>
Q2xjMVtjSF1bY0hdW2NIXVtjSF1jMVtDQEhdKFtDSDNdKVtOSF1jKG5bY0hdbjIpYyhjMjMpbltjSF1uM1tDQEBIXTRPW0NASF0oW0NIMl1bT0hdKVtDQEBIXShbT0hdKVtDQEhdNFtPSF0=

> <s_epik_cmdline>
J2VwaWtfcHl0aG9uJywgJy1waCcsICc3LjAnLCAnLXRuJywgJzgnLCAnLW1hJywgJzIwMCcsICctbWV0YWxfYmluZGluZycsICctaW1hZScsICc8aW5maWxlLm1hZT4nLCAnLW9tYWUnLCAnPG91dGZpbGUubWFlPic=

> <r_lp_tautomer_probability>
1

> <r_epik_Ionization_Penalty>
0.000266407

> <r_epik_Ionization_Penalty_Charging>
0

> <r_epik_Ionization_Penalty_Neutral>
0.000266407

> <r_epik_State_Penalty>
-0

> <r_epik_Charging_Adjusted_Penalty>
0

> <i_epik_Tot_Q>
0

> <i_epik_Tot_abs_Q>
0

> <r_epik_Metal_State_Penalty>
-0

> <b_epik_Metal_Only>
0

> <s_epik_Chemistry_Notes>
This compound contains an acetal/aminal-like group ( X-CH(R)-Y where X, Y are N, S, or O) that may be acid/base labile, releasing an aldehyde.

> <s_lp_Force_Field>
OPLS_2005

> <r_lp_Energy>
47.3301

> <b_lp_Chiralities_Consistent>
1

> <s_lp_Variant>
AV-unprocessed.smi:283-16

> <Gold.Version>
5.8.1

> <Gold.Id.Protein>
6NUR|6NUR_protein|mol2

> <Gold.PLP.Fitness>
45.4477

> <Gold.PLP.PLP>
-39.2835

> <Gold.PLP.part.hbond>
-3.0000

> <Gold.PLP.part.metal>
0.0000

> <Gold.PLP.part.buried>
-5.5704

> <Gold.PLP.part.nonpolar>
-32.2041

> <Gold.PLP.part.repulsive>
0.5294

> <Gold.PLP.ligand.clash>
0.0000

> <Gold.PLP.ligand.torsion>
1.0252

> <Gold.PLP.Chemscore.Hbond>
2.0000

> <Gold.PLP.Chemscore.CHOScore>
0.7190

> <Gold.PLP.Chemscore.Metal>
0.0000

> <Gold.Chemscore.Hbonds>
donor molecule, donor type, donor heavy atom, donor atom, acceptor molecule, acceptor atom, score
      L1  H    17    42       P1 10171  0.99
      P1  H  7954  7966       L1    17  1.00
      L1  C     6    38       P1  7957  0.30

> <Gold.PLP.Chemscore.Internal.Correction>
0.0574

> <Gold.Rescore>
     Score         DG    S(hbond)    S(metal)    S(lipo)     H(rot)  DE(clash)    DE(int)     intcor
      9.17     -12.92       1.88        0.00      99.68       4.10       0.23       3.52       ----

> <Gold.Chemscore.Fitness>
9.1725

> <Gold.Chemscore.DG>
-12.9217

> <Gold.Chemscore.ZeroCoef>
-5.4800

> <Gold.Chemscore.Hbond>
1.8762

> <Gold.Chemscore.Metal>
0.0000

> <Gold.Chemscore.Lipo>
99.6841

> <Gold.Chemscore.Internal_Hbond>
0.0000

> <Gold.Chemscore.DEClash>
0.2328

> <Gold.Chemscore.DEInternal>
3.5165

> <Gold.Chemscore.Rot>
4.0968

> <Gold.Chemscore.Internal.Correction>
   9.000000E+99

> <Gold.Chemscore.Hbonds>
donor molecule, donor type, donor heavy atom, donor atom, acceptor molecule, acceptor atom, score
      L1  H    17    42       P1 10171  0.92
      P1  H  7954  7966       L1    17  0.69

> <Gold.Chemscore.Hbond.Weighted>
-6.2666

> <Gold.Chemscore.Metal.Weighted>
-0.0000

> <Gold.Chemscore.Lipo.Weighted>
-11.6630

> <Gold.Chemscore.Internal_Hbond.Weighted>
0.0000

> <Gold.Chemscore.DEClash.Weighted>
0.2328

> <Gold.Chemscore.DEInternal.Weighted>
3.5165

> <Gold.Chemscore.Rot.Weighted>
10.4879

> <Gold.Chemscore.Internal.Correction.Weighted>
   9.000000E+99

> <Gold.Protein.RotatedTorsions>
[ 6907 6896 6895 6894 ] final -102.95 input  -60.11 | X-H torsion
[ 7974 7965 7964 7962 ] final   66.42 input  175.53 | X-H torsion
[ 8008 7997 7996 7995 ] final -148.15 input   59.86 | X-H torsion
[ 10167 10162 10161 10158 ] final -115.40 input  -65.29 | X-H torsion
[ 10718 10713 10712 10709 ] final   73.18 input   66.30 | X-H torsion
[ 10763 10752 10751 10750 ] final  152.98 input  -60.55 | X-H torsion
[ 11005 11000 10999 10996 ] final -136.03 input  -57.11 | X-H torsion

> <Gold.Protein.ActiveResidues>
 VAL166  LYS551  ARG553  GLY616  TRP617  ASP618  TYR619  PRO620  LYS621  CYS622 
 ASP623  PHE694  ASN695  SER759  ASP760  ASP761  ALA762  ILE779  LEU786  VAL792 
 PHE793  MET794  SER795  GLU796  ALA797  LYS798  CYS799  TRP800  GLU811  SER814 

> <Gold.Protein.RotatedAtoms>
  150.7218  134.0503  159.3795 H   0  0  0  0  0  0  0  0  0  0  0  0  # atno 6907 bound_to 6896
  151.8480  135.0565  160.0465 H   0  0  0  0  0  0  0  0  0  0  0  0  # atno 6908 bound_to 6896
  152.2812  133.5436  159.5535 H   0  0  0  0  0  0  0  0  0  0  0  0  # atno 6909 bound_to 6896
  145.8268  139.3116  143.1011 H   0  0  0  0  0  0  0  0  0  0  0  0  # atno 7974 bound_to 7965
  155.5870  140.0649  157.2768 H   0  0  0  0  0  0  0  0  0  0  0  0  # atno 8008 bound_to 7997
  154.4316  140.1842  156.1082 H   0  0  0  0  0  0  0  0  0  0  0  0  # atno 8009 bound_to 7997
  156.0262  140.3311  155.7094 H   0  0  0  0  0  0  0  0  0  0  0  0  # atno 8010 bound_to 7997
  140.0905  143.4704  152.1873 H   0  0  0  0  0  0  0  0  0  0  0  0  # atno 10167 bound_to 10162
  157.6536  130.9615  150.1033 H   0  0  0  0  0  0  0  0  0  0  0  0  # atno 10718 bound_to 10713
  154.1288  135.2828  155.3190 H   0  0  0  0  0  0  0  0  0  0  0  0  # atno 10763 bound_to 10752
  154.6370  135.5415  153.7749 H   0  0  0  0  0  0  0  0  0  0  0  0  # atno 10764 bound_to 10752
  153.0288  135.6477  154.1439 H   0  0  0  0  0  0  0  0  0  0  0  0  # atno 10765 bound_to 10752
  140.8843  134.1892  157.4570 H   0  0  0  0  0  0  0  0  0  0  0  0  # atno 11005 bound_to 11000
  145.9614  140.8832  143.0209 LP  0  0  0  0  0  0  0  0  0  0  0  0  # atno 17320 bound_to 7965
  144.6743  140.1818  143.7405 LP  0  0  0  0  0  0  0  0  0  0  0  0  # atno 17321 bound_to 7965
  139.5727  144.7471  151.3847 LP  0  0  0  0  0  0  0  0  0  0  0  0  # atno 17342 bound_to 10162
  140.7031  143.7582  150.7436 LP  0  0  0  0  0  0  0  0  0  0  0  0  # atno 17343 bound_to 10162
  156.1949  130.3657  149.8862 LP  0  0  0  0  0  0  0  0  0  0  0  0  # atno 17370 bound_to 10713
  156.6780  130.8847  151.3572 LP  0  0  0  0  0  0  0  0  0  0  0  0  # atno 17371 bound_to 10713
  139.8723  134.9831  156.5184 LP  0  0  0  0  0  0  0  0  0  0  0  0  # atno 17394 bound_to 11000
  140.8423  133.8195  155.9087 LP  0  0  0  0  0  0  0  0  0  0  0  0  # atno 17395 bound_to 11000

$$$$
