AV-unprocessed.smi:2864|AV-procd|sdf|11013|dock1
  -GOLD-   2272015473D 1   1.00000     0.00000
 Structure written by MMmdl.
 37 38  0  0  0  0  0  0  0  0  1 V2000
  152.4448  144.0124  161.9469 C   0  0  0  0  0  0  0  0  0  0  0  0
  152.4763  142.9254  160.8924 C   0  0  0  0  0  0  0  0  0  0  0  0
  153.2436  141.7637  161.0978 C   0  0  0  0  0  0  0  0  0  0  0  0
  153.2615  140.7512  160.1215 C   0  0  0  0  0  0  0  0  0  0  0  0
  152.5173  140.8881  158.9302 C   0  0  0  0  0  0  0  0  0  0  0  0
  152.5551  139.7576  157.9152 C   0  0  0  0  0  0  0  0  0  0  0  0
  151.7507  142.0632  158.7099 C   0  0  0  0  0  0  0  0  0  0  0  0
  150.9236  142.2458  157.4369 C   0  0  2  0  0  0  0  0  0  0  0  0
  150.3594  143.5414  157.3577 O   0  0  0  0  0  0  0  0  0  0  0  0
  149.7844  141.2052  157.3678 C   0  0  0  0  0  0  0  0  0  0  0  0
  149.0135  141.3181  156.1237 N   0  0  0  0  0  0  0  0  0  0  0  0
  147.7290  141.8050  156.2983 N   0  0  0  0  0  0  0  0  0  0  0  0
  146.9208  141.9468  155.2979 C   0  0  0  0  0  0  0  0  0  0  0  0
  145.5396  142.4787  155.5915 C   0  0  0  0  0  0  0  0  0  0  0  0
  144.6346  141.5114  155.4391 F   0  0  0  0  0  0  0  0  0  0  0  0
  145.4587  142.9425  156.8390 F   0  0  0  0  0  0  0  0  0  0  0  0
  145.2431  143.4707  154.7509 F   0  0  0  0  0  0  0  0  0  0  0  0
  147.3785  141.5897  153.9654 C   0  0  0  0  0  0  0  0  0  0  0  0
  148.6300  141.1110  153.7984 C   0  0  0  0  0  0  0  0  0  0  0  0
  149.5445  140.9406  154.9249 C   0  0  0  0  0  0  0  0  0  0  0  0
  150.6843  140.4924  154.8065 O   0  0  0  0  0  0  0  0  0  0  0  0
  151.7320  143.0686  159.7049 C   0  0  0  0  0  0  0  0  0  0  0  0
  153.3887  144.0535  162.4912 H   0  0  0  0  0  0  0  0  0  0  0  0
  151.6441  143.8195  162.6611 H   0  0  0  0  0  0  0  0  0  0  0  0
  152.2736  144.9893  161.4937 H   0  0  0  0  0  0  0  0  0  0  0  0
  153.8162  141.6426  162.0058 H   0  0  0  0  0  0  0  0  0  0  0  0
  153.8497  139.8620  160.2956 H   0  0  0  0  0  0  0  0  0  0  0  0
  151.5463  139.4436  157.6476 H   0  0  0  0  0  0  0  0  0  0  0  0
  153.0765  138.8857  158.3111 H   0  0  0  0  0  0  0  0  0  0  0  0
  153.0740  140.0746  157.0104 H   0  0  0  0  0  0  0  0  0  0  0  0
  151.5751  142.1467  156.5694 H   0  0  0  0  0  0  0  0  0  0  0  0
  151.0010  144.1262  156.9838 H   0  0  0  0  0  0  0  0  0  0  0  0
  150.2182  140.2031  157.3850 H   0  0  0  0  0  0  0  0  0  0  0  0
  149.1532  141.2456  158.2578 H   0  0  0  0  0  0  0  0  0  0  0  0
  146.7198  141.7069  153.1178 H   0  0  0  0  0  0  0  0  0  0  0  0
  148.9662  140.8459  152.8065 H   0  0  0  0  0  0  0  0  0  0  0  0
  151.1387  143.9600  159.5621 H   0  0  0  0  0  0  0  0  0  0  0  0
  1  2  1  0  0  0  0
  1 23  1  0  0  0  0
  1 24  1  0  0  0  0
  1 25  1  0  0  0  0
  2 22  1  0  0  0  0
  2  3  2  0  0  0  0
  3  4  1  0  0  0  0
  3 26  1  0  0  0  0
  4  5  2  0  0  0  0
  4 27  1  0  0  0  0
  5  6  1  0  0  0  0
  5  7  1  0  0  0  0
  6 28  1  0  0  0  0
  6 29  1  0  0  0  0
  6 30  1  0  0  0  0
  7  8  1  0  0  0  0
  7 22  2  0  0  0  0
  8  9  1  0  0  0  0
  8 10  1  0  0  0  0
  8 31  1  0  0  0  0
  9 32  1  0  0  0  0
 10 11  1  0  0  0  0
 10 33  1  0  0  0  0
 10 34  1  0  0  0  0
 11 20  1  0  0  0  0
 11 12  1  0  0  0  0
 12 13  2  0  0  0  0
 13 14  1  0  0  0  0
 13 18  1  0  0  0  0
 14 15  1  0  0  0  0
 14 16  1  0  0  0  0
 14 17  1  0  0  0  0
 18 19  2  0  0  0  0
 18 35  1  0  0  0  0
 19 20  1  0  0  0  0
 19 36  1  0  0  0  0
 20 21  2  0  0  0  0
 22 37  1  0  0  0  0
M  END
> <s_m_source_file>
AV-unprocessed.smi

> <i_m_source_file_index>
2864

> <i_lp_mmshare_version>
43012

> <i_f3d_flags>
0

> <s_epik_input>
W0NIM11jMVtjSF1bY0hdYyhbQ0gzXSljKFtjSF0xKVtDQEhdKFtPSF0pW0NIMl1uMm5jKEMoRikoRilGKVtjSF1bY0hdYzI9Tw==

> <s_epik_cmdline>
J2VwaWtfcHl0aG9uJywgJy1waCcsICc3LjAnLCAnLXRuJywgJzgnLCAnLW1hJywgJzIwMCcsICctbWV0YWxfYmluZGluZycsICctaW1hZScsICc8aW5maWxlLm1hZT4nLCAnLW9tYWUnLCAnPG91dGZpbGUubWFlPic=

> <r_lp_tautomer_probability>
1

> <r_epik_Ionization_Penalty>
5.25156e-08

> <r_epik_Ionization_Penalty_Charging>
3.92872e-09

> <r_epik_Ionization_Penalty_Neutral>
4.85868e-08

> <r_epik_State_Penalty>
-0

> <r_epik_Charging_Adjusted_Penalty>
3.92872e-09

> <i_epik_Tot_Q>
0

> <i_epik_Tot_abs_Q>
0

> <r_epik_Metal_State_Penalty>
-0

> <b_epik_Metal_Only>
0

> <s_lp_Force_Field>
OPLS_2005

> <r_lp_Energy>
30.6225

> <b_lp_Chiralities_Consistent>
1

> <s_lp_Variant>
AV-unprocessed.smi:2864-1

> <Gold.Version>
5.8.1

> <Gold.Id.Protein>
6NUR|6NUR_protein|mol2

> <Gold.PLP.Fitness>
47.3187

> <Gold.PLP.PLP>
-45.3400

> <Gold.PLP.part.hbond>
-1.9751

> <Gold.PLP.part.metal>
0.0000

> <Gold.PLP.part.buried>
-4.2801

> <Gold.PLP.part.nonpolar>
-38.9757

> <Gold.PLP.part.repulsive>
0.2232

> <Gold.PLP.ligand.clash>
0.0000

> <Gold.PLP.ligand.torsion>
0.5187

> <Gold.PLP.Chemscore.Hbond>
1.0000

> <Gold.PLP.Chemscore.CHOScore>
0.0000

> <Gold.PLP.Chemscore.Metal>
0.0000

> <Gold.Chemscore.Hbonds>
donor molecule, donor type, donor heavy atom, donor atom, acceptor molecule, acceptor atom, score
      P1  H  7989  7998       L1    21  1.00

> <Gold.PLP.Chemscore.Internal.Correction>
0.0161

> <Gold.Rescore>
     Score         DG    S(hbond)    S(metal)    S(lipo)     H(rot)  DE(clash)    DE(int)     intcor
     15.76     -16.10       0.96        0.00     108.14       2.05       0.17       0.16       ----

> <Gold.Chemscore.Fitness>
15.7639

> <Gold.Chemscore.DG>
-16.0956

> <Gold.Chemscore.ZeroCoef>
-5.4800

> <Gold.Chemscore.Hbond>
0.9628

> <Gold.Chemscore.Metal>
0.0000

> <Gold.Chemscore.Lipo>
108.1379

> <Gold.Chemscore.Internal_Hbond>
0.0000

> <Gold.Chemscore.DEClash>
0.1736

> <Gold.Chemscore.DEInternal>
0.1580

> <Gold.Chemscore.Rot>
2.0517

> <Gold.Chemscore.Internal.Correction>
   9.000000E+99

> <Gold.Chemscore.Hbonds>
donor molecule, donor type, donor heavy atom, donor atom, acceptor molecule, acceptor atom, score
      P1  H  7989  7998       L1    21  0.95

> <Gold.Chemscore.Hbond.Weighted>
-3.2158

> <Gold.Chemscore.Metal.Weighted>
-0.0000

> <Gold.Chemscore.Lipo.Weighted>
-12.6521

> <Gold.Chemscore.Internal_Hbond.Weighted>
0.0000

> <Gold.Chemscore.DEClash.Weighted>
0.1736

> <Gold.Chemscore.DEInternal.Weighted>
0.1580

> <Gold.Chemscore.Rot.Weighted>
5.2524

> <Gold.Chemscore.Internal.Correction.Weighted>
   9.000000E+99

> <Gold.Protein.RotatedTorsions>
[ 6907 6896 6895 6894 ] final   29.98 input  -60.11 | X-H torsion
[ 7974 7965 7964 7962 ] final   68.66 input  175.53 | X-H torsion
[ 8008 7997 7996 7995 ] final  171.90 input   59.86 | X-H torsion
[ 10167 10162 10161 10158 ] final  107.91 input  -65.29 | X-H torsion
[ 10718 10713 10712 10709 ] final  -35.35 input   66.30 | X-H torsion
[ 10763 10752 10751 10750 ] final -174.23 input  -60.55 | X-H torsion
[ 11005 11000 10999 10996 ] final -121.85 input  -57.11 | X-H torsion

> <Gold.Protein.ActiveResidues>
 VAL166  LYS551  ARG553  GLY616  TRP617  ASP618  TYR619  PRO620  LYS621  CYS622 
 ASP623  PHE694  ASN695  SER759  ASP760  ASP761  ALA762  ILE779  LEU786  VAL792 
 PHE793  MET794  SER795  GLU796  ALA797  LYS798  CYS799  TRP800  GLU811  SER814 

> <Gold.Protein.RotatedAtoms>
  152.0394  134.9720  160.0573 H   0  0  0  0  0  0  0  0  0  0  0  0  # atno 6907 bound_to 6896
  152.1165  133.4325  159.4664 H   0  0  0  0  0  0  0  0  0  0  0  0  # atno 6908 bound_to 6896
  150.6846  134.2504  159.4552 H   0  0  0  0  0  0  0  0  0  0  0  0  # atno 6909 bound_to 6896
  145.7999  139.2977  143.1161 H   0  0  0  0  0  0  0  0  0  0  0  0  # atno 7974 bound_to 7965
  156.1227  140.1500  156.9181 H   0  0  0  0  0  0  0  0  0  0  0  0  # atno 8008 bound_to 7997
  154.4848  140.0868  156.7502 H   0  0  0  0  0  0  0  0  0  0  0  0  # atno 8009 bound_to 7997
  155.4400  140.3430  155.4291 H   0  0  0  0  0  0  0  0  0  0  0  0  # atno 8010 bound_to 7997
  139.6889  144.7110  151.1383 H   0  0  0  0  0  0  0  0  0  0  0  0  # atno 10167 bound_to 10162
  156.3396  130.4291  149.7799 H   0  0  0  0  0  0  0  0  0  0  0  0  # atno 10718 bound_to 10713
  154.5987  135.2852  155.0558 H   0  0  0  0  0  0  0  0  0  0  0  0  # atno 10763 bound_to 10752
  154.1831  135.6453  153.5043 H   0  0  0  0  0  0  0  0  0  0  0  0  # atno 10764 bound_to 10752
  153.0148  135.5428  154.6698 H   0  0  0  0  0  0  0  0  0  0  0  0  # atno 10765 bound_to 10752
  141.0039  134.0363  157.3502 H   0  0  0  0  0  0  0  0  0  0  0  0  # atno 11005 bound_to 11000
  145.9888  140.8620  143.0077 LP  0  0  0  0  0  0  0  0  0  0  0  0  # atno 17320 bound_to 7965
  144.6770  140.2186  143.7369 LP  0  0  0  0  0  0  0  0  0  0  0  0  # atno 17321 bound_to 7965
  140.7676  143.5589  150.9121 LP  0  0  0  0  0  0  0  0  0  0  0  0  # atno 17342 bound_to 10162
  139.9265  143.6544  152.3086 LP  0  0  0  0  0  0  0  0  0  0  0  0  # atno 17343 bound_to 10162
  156.5040  130.8142  151.3143 LP  0  0  0  0  0  0  0  0  0  0  0  0  # atno 17370 bound_to 10713
  157.7444  130.9935  150.2675 LP  0  0  0  0  0  0  0  0  0  0  0  0  # atno 17371 bound_to 10713
  139.9053  135.0177  156.7457 LP  0  0  0  0  0  0  0  0  0  0  0  0  # atno 17394 bound_to 11000
  140.6844  133.9445  155.7929 LP  0  0  0  0  0  0  0  0  0  0  0  0  # atno 17395 bound_to 11000

$$$$
