AV-unprocessed.smi:191|AV-procd|sdf|1494|dock4
  -GOLD-   2262019313D 1   1.00000     0.00000
 Structure written by MMmdl.
 46 48  0  0  0  0  0  0  0  0  1 V2000
  144.5898  139.5200  155.6162 C   0  0  0  0  0  0  0  0  0  0  0  0
  144.2295  138.0519  155.8907 C   0  0  0  0  0  0  0  0  0  0  0  0
  142.9567  137.6542  155.2819 N   0  0  0  0  0  0  0  0  0  0  0  0
  141.7747  138.4714  155.5605 C   0  0  0  0  0  0  0  0  0  0  0  0
  141.3594  139.3507  154.3651 C   0  0  1  0  0  0  0  0  0  0  0  0
  140.7843  138.5015  153.2254 C   0  0  0  0  0  0  0  0  0  0  0  0
  140.4222  140.4226  154.7407 C   0  0  0  0  0  0  0  0  0  0  0  0
  139.6833  141.2626  155.0367 N   0  0  0  0  0  0  0  0  0  0  0  0
  142.9356  136.7038  154.2998 C   0  0  0  0  0  0  0  0  0  0  0  0
  141.8594  135.8734  154.2297 N   0  0  0  0  0  0  0  0  0  0  0  0
  141.7772  134.9261  153.2933 C   0  0  0  0  0  0  0  0  0  0  0  0
  142.6467  134.6338  152.3276 N   0  0  0  0  0  0  0  0  0  0  0  0
  143.7289  135.4606  152.3746 C   0  0  0  0  0  0  0  0  0  0  0  0
  143.9552  136.5101  153.3145 C   0  0  0  0  0  0  0  0  0  0  0  0
  145.1657  137.1300  153.0189 N   0  0  0  0  0  0  0  0  0  0  0  0
  145.6248  136.4876  151.9816 C   0  0  0  0  0  0  0  0  0  0  0  0
  144.8283  135.4612  151.5328 N   0  0  0  0  0  0  0  0  0  0  0  0
  145.0883  134.5884  150.3975 C   0  0  0  0  0  0  0  0  0  0  0  0
  145.1275  133.0910  150.7561 C   0  0  0  0  0  0  0  0  0  0  0  0
  146.2298  132.8678  151.8111 C   0  0  0  0  0  0  0  0  0  0  0  0
  146.5770  131.5043  151.9506 O   0  0  0  0  0  0  0  0  0  0  0  0
  143.7589  132.4627  151.0569 C   0  0  0  0  0  0  0  0  0  0  0  0
  143.9653  131.4066  150.0928 O   0  0  0  0  0  0  0  0  0  0  0  0
  145.1178  132.1084  149.5760 C   0  0  0  0  0  0  0  0  0  0  0  0
  145.5396  139.7759  156.0858 H   0  0  0  0  0  0  0  0  0  0  0  0
  143.8352  140.1994  156.0121 H   0  0  0  0  0  0  0  0  0  0  0  0
  144.6875  139.7152  154.5483 H   0  0  0  0  0  0  0  0  0  0  0  0
  145.0349  137.3963  155.5578 H   0  0  0  0  0  0  0  0  0  0  0  0
  144.1662  137.9009  156.9679 H   0  0  0  0  0  0  0  0  0  0  0  0
  140.9515  137.7961  155.7929 H   0  0  0  0  0  0  0  0  0  0  0  0
  141.8925  139.0705  156.4605 H   0  0  0  0  0  0  0  0  0  0  0  0
  142.2435  139.8599  153.9823 H   0  0  0  0  0  0  0  0  0  0  0  0
  140.5329  139.1227  152.3652 H   0  0  0  0  0  0  0  0  0  0  0  0
  139.8771  137.9835  153.5384 H   0  0  0  0  0  0  0  0  0  0  0  0
  141.5018  137.7508  152.8931 H   0  0  0  0  0  0  0  0  0  0  0  0
  140.8865  134.3158  153.3223 H   0  0  0  0  0  0  0  0  0  0  0  0
  146.5612  136.7517  151.5124 H   0  0  0  0  0  0  0  0  0  0  0  0
  144.3334  134.7790  149.6340 H   0  0  0  0  0  0  0  0  0  0  0  0
  146.0359  134.9001  149.9560 H   0  0  0  0  0  0  0  0  0  0  0  0
  147.1404  133.4057  151.5479 H   0  0  0  0  0  0  0  0  0  0  0  0
  145.9139  133.2377  152.7871 H   0  0  0  0  0  0  0  0  0  0  0  0
  147.3803  131.3486  151.4778 H   0  0  0  0  0  0  0  0  0  0  0  0
  143.6463  132.0873  152.0747 H   0  0  0  0  0  0  0  0  0  0  0  0
  142.9116  133.0944  150.7859 H   0  0  0  0  0  0  0  0  0  0  0  0
  144.9035  132.5696  148.6115 H   0  0  0  0  0  0  0  0  0  0  0  0
  146.0032  131.4748  149.5148 H   0  0  0  0  0  0  0  0  0  0  0  0
  1  2  1  0  0  0  0
  1 25  1  0  0  0  0
  1 26  1  0  0  0  0
  1 27  1  0  0  0  0
  2  3  1  0  0  0  0
  2 28  1  0  0  0  0
  2 29  1  0  0  0  0
  3  4  1  0  0  0  0
  3  9  1  0  0  0  0
  4  5  1  0  0  0  0
  4 30  1  0  0  0  0
  4 31  1  0  0  0  0
  5  6  1  0  0  0  0
  5  7  1  0  0  0  0
  5 32  1  0  0  0  0
  6 33  1  0  0  0  0
  6 34  1  0  0  0  0
  6 35  1  0  0  0  0
  7  8  3  0  0  0  0
  9 14  1  0  0  0  0
  9 10  2  0  0  0  0
 10 11  1  0  0  0  0
 11 12  2  0  0  0  0
 11 36  1  0  0  0  0
 12 13  1  0  0  0  0
 13 17  1  0  0  0  0
 13 14  2  0  0  0  0
 14 15  1  0  0  0  0
 15 16  2  0  0  0  0
 16 17  1  0  0  0  0
 16 37  1  0  0  0  0
 17 18  1  0  0  0  0
 18 19  1  0  0  0  0
 18 38  1  0  0  0  0
 18 39  1  0  0  0  0
 19 24  1  0  0  0  0
 19 20  1  0  0  0  0
 19 22  1  0  0  0  0
 20 21  1  0  0  0  0
 20 40  1  0  0  0  0
 20 41  1  0  0  0  0
 21 42  1  0  0  0  0
 22 23  1  0  0  0  0
 22 43  1  0  0  0  0
 22 44  1  0  0  0  0
 23 24  1  0  0  0  0
 24 45  1  0  0  0  0
 24 46  1  0  0  0  0
M  END
> <s_m_source_file>
AV-unprocessed.smi

> <i_m_source_file_index>
191

> <i_lp_mmshare_version>
43012

> <i_f3d_flags>
0

> <s_epik_input>
TiNDW0NAQEhdKFtDSDNdKVtDSDJdTihbQ0gyXVtDSDNdKWMobltjSF1uMSljKGMxMiluW2NIXW4yW0NIMl1DMyhbQ0gyXVtPSF0pW0NIMl1PW0NIMl0z

> <s_epik_cmdline>
J2VwaWtfcHl0aG9uJywgJy1waCcsICc3LjAnLCAnLXRuJywgJzgnLCAnLW1hJywgJzIwMCcsICctbWV0YWxfYmluZGluZycsICctaW1hZScsICc8aW5maWxlLm1hZT4nLCAnLW9tYWUnLCAnPG91dGZpbGUubWFlPic=

> <r_lp_tautomer_probability>
1

> <r_epik_Ionization_Penalty>
0.000569684

> <r_epik_Ionization_Penalty_Charging>
0

> <r_epik_Ionization_Penalty_Neutral>
0.000569684

> <r_epik_State_Penalty>
0.000286009

> <r_epik_Charging_Adjusted_Penalty>
0.000286009

> <i_epik_Tot_Q>
0

> <i_epik_Tot_abs_Q>
0

> <r_epik_Metal_State_Penalty>
-0

> <b_epik_Metal_Only>
0

> <s_lp_Force_Field>
OPLS_2005

> <r_lp_Energy>
30.7711

> <b_lp_Chiralities_Consistent>
1

> <s_lp_Variant>
AV-unprocessed.smi:191-2

> <Gold.Version>
5.8.1

> <Gold.Id.Protein>
6NUR|6NUR_protein|mol2

> <Gold.PLP.Fitness>
38.9249

> <Gold.PLP.PLP>
-32.5238

> <Gold.PLP.part.hbond>
-2.1483

> <Gold.PLP.part.metal>
0.0000

> <Gold.PLP.part.buried>
-4.5285

> <Gold.PLP.part.nonpolar>
-26.4471

> <Gold.PLP.part.repulsive>
0.6850

> <Gold.PLP.ligand.clash>
0.0000

> <Gold.PLP.ligand.torsion>
1.1399

> <Gold.PLP.Chemscore.Hbond>
1.6560

> <Gold.PLP.Chemscore.CHOScore>
0.9869

> <Gold.PLP.Chemscore.Metal>
0.0000

> <Gold.Chemscore.Hbonds>
donor molecule, donor type, donor heavy atom, donor atom, acceptor molecule, acceptor atom, score
      L1  H    21    42       P1 10747  0.93
      P1  H 10785 10796       L1    23  0.69
      L1  C    16    37       P1  7948  1.00

> <Gold.PLP.Chemscore.Internal.Correction>
0.7523

> <Gold.Rescore>
     Score         DG    S(hbond)    S(metal)    S(lipo)     H(rot)  DE(clash)    DE(int)     intcor
      6.03      -9.46       1.67        0.00      54.36       3.11       0.79       2.64       ----

> <Gold.Chemscore.Fitness>
6.0339

> <Gold.Chemscore.DG>
-9.4565

> <Gold.Chemscore.ZeroCoef>
-5.4800

> <Gold.Chemscore.Hbond>
1.6676

> <Gold.Chemscore.Metal>
0.0000

> <Gold.Chemscore.Lipo>
54.3591

> <Gold.Chemscore.Internal_Hbond>
0.0000

> <Gold.Chemscore.DEClash>
0.7857

> <Gold.Chemscore.DEInternal>
2.6369

> <Gold.Chemscore.Rot>
3.1067

> <Gold.Chemscore.Internal.Correction>
   9.000000E+99

> <Gold.Chemscore.Hbonds>
donor molecule, donor type, donor heavy atom, donor atom, acceptor molecule, acceptor atom, score
      L1  H    21    42       P1 10747  0.89
      P1  H 10785 10796       L1    23  0.54

> <Gold.Chemscore.Hbond.Weighted>
-5.5696

> <Gold.Chemscore.Metal.Weighted>
-0.0000

> <Gold.Chemscore.Lipo.Weighted>
-6.3600

> <Gold.Chemscore.Internal_Hbond.Weighted>
0.0000

> <Gold.Chemscore.DEClash.Weighted>
0.7857

> <Gold.Chemscore.DEInternal.Weighted>
2.6369

> <Gold.Chemscore.Rot.Weighted>
7.9532

> <Gold.Chemscore.Internal.Correction.Weighted>
   9.000000E+99

> <Gold.Protein.RotatedTorsions>
[ 6907 6896 6895 6894 ] final -153.34 input  -60.11 | X-H torsion
[ 7974 7965 7964 7962 ] final  138.04 input  175.53 | X-H torsion
[ 8008 7997 7996 7995 ] final   23.72 input   59.86 | X-H torsion
[ 10167 10162 10161 10158 ] final   39.75 input  -65.29 | X-H torsion
[ 10718 10713 10712 10709 ] final  -75.77 input   66.30 | X-H torsion
[ 10763 10752 10751 10750 ] final  -99.46 input  -60.55 | X-H torsion
[ 11005 11000 10999 10996 ] final -103.62 input  -57.11 | X-H torsion

> <Gold.Protein.ActiveResidues>
 VAL166  LYS551  ARG553  GLY616  TRP617  ASP618  TYR619  PRO620  LYS621  CYS622 
 ASP623  PHE694  ASN695  SER759  ASP760  ASP761  ALA762  ILE779  LEU786  VAL792 
 PHE793  MET794  SER795  GLU796  ALA797  LYS798  CYS799  TRP800  GLU811  SER814 

> <Gold.Protein.RotatedAtoms>
  151.2412  133.4399  159.2607 H   0  0  0  0  0  0  0  0  0  0  0  0  # atno 6907 bound_to 6896
  151.0704  134.9795  159.8316 H   0  0  0  0  0  0  0  0  0  0  0  0  # atno 6908 bound_to 6896
  152.5411  134.2357  159.8895 H   0  0  0  0  0  0  0  0  0  0  0  0  # atno 6909 bound_to 6896
  144.9410  139.4931  143.5572 H   0  0  0  0  0  0  0  0  0  0  0  0  # atno 7974 bound_to 7965
  154.9853  140.3107  155.4929 H   0  0  0  0  0  0  0  0  0  0  0  0  # atno 8008 bound_to 7997
  156.2947  140.2259  156.4894 H   0  0  0  0  0  0  0  0  0  0  0  0  # atno 8009 bound_to 7997
  154.7753  140.0449  157.1072 H   0  0  0  0  0  0  0  0  0  0  0  0  # atno 8010 bound_to 7997
  140.3809  144.1981  150.6131 H   0  0  0  0  0  0  0  0  0  0  0  0  # atno 10167 bound_to 10162
  156.0196  130.4449  150.3093 H   0  0  0  0  0  0  0  0  0  0  0  0  # atno 10718 bound_to 10713
  154.7500  135.4971  153.9272 H   0  0  0  0  0  0  0  0  0  0  0  0  # atno 10763 bound_to 10752
  153.1133  135.6714  153.9470 H   0  0  0  0  0  0  0  0  0  0  0  0  # atno 10764 bound_to 10752
  153.9223  135.3087  155.3426 H   0  0  0  0  0  0  0  0  0  0  0  0  # atno 10765 bound_to 10752
  141.1137  133.8655  157.1509 H   0  0  0  0  0  0  0  0  0  0  0  0  # atno 11005 bound_to 11000
  146.3285  139.8429  142.8887 LP  0  0  0  0  0  0  0  0  0  0  0  0  # atno 17320 bound_to 7965
  145.2991  141.0189  143.3619 LP  0  0  0  0  0  0  0  0  0  0  0  0  # atno 17321 bound_to 7965
  140.4938  143.2339  151.8779 LP  0  0  0  0  0  0  0  0  0  0  0  0  # atno 17342 bound_to 10162
  139.4795  144.5136  151.8899 LP  0  0  0  0  0  0  0  0  0  0  0  0  # atno 17343 bound_to 10162
  157.1195  131.0243  151.3015 LP  0  0  0  0  0  0  0  0  0  0  0  0  # atno 17370 bound_to 10713
  157.4639  130.7669  149.7261 LP  0  0  0  0  0  0  0  0  0  0  0  0  # atno 17371 bound_to 10713
  140.0046  135.0013  157.0265 LP  0  0  0  0  0  0  0  0  0  0  0  0  # atno 17394 bound_to 11000
  140.4704  134.1392  155.7202 LP  0  0  0  0  0  0  0  0  0  0  0  0  # atno 17395 bound_to 11000

$$$$
