AV-unprocessed.smi:236|AV-procd|sdf|1814|dock10
  -GOLD-   2262020403D 1   1.00000     0.00000
 Structure written by MMmdl.
 58 62  0  0  0  0  0  0  0  0  1 V2000
  144.0722  132.9986  149.8240 C   0  0  0  0  0  0  0  0  0  0  0  0
  144.7689  133.1150  151.1893 C   0  0  1  0  0  0  0  0  0  0  0  0
  145.7607  132.1084  151.3331 O   0  0  0  0  0  0  0  0  0  0  0  0
  146.6026  132.5072  152.3995 C   0  0  0  0  0  0  0  0  0  0  0  0
  146.8239  133.9878  152.1158 C   0  0  0  0  0  0  0  0  0  0  0  0
  145.4991  134.4491  151.5003 C   0  0  1  0  0  0  0  0  0  0  0  0
  145.7919  135.1770  150.3188 O   0  0  0  0  0  0  0  0  0  0  0  0
  144.7036  135.3738  152.4551 C   0  0  0  0  0  0  0  0  0  0  0  0
  145.4901  136.4783  152.9847 N   0  0  0  0  0  0  0  0  0  0  0  0
  145.4883  137.7811  152.5387 C   0  0  0  0  0  0  0  0  0  0  0  0
  146.2792  138.5933  153.1852 N   0  0  0  0  0  0  0  0  0  0  0  0
  146.8790  137.7881  154.1457 C   0  0  0  0  0  0  0  0  0  0  0  0
  147.8331  138.0117  155.1782 C   0  0  0  0  0  0  0  0  0  0  0  0
  148.4079  139.2006  155.4541 N   0  0  0  0  0  0  0  0  0  0  0  0
  148.9628  139.8770  154.2892 C   0  0  0  0  0  0  0  0  0  0  0  0
  149.4562  141.2774  154.6874 C   0  0  0  0  0  0  0  0  0  0  0  0
  150.3860  141.1649  155.7611 O   0  0  0  0  0  0  0  0  0  0  0  0
  149.8042  140.5847  156.9275 C   0  0  2  0  0  0  0  0  0  0  0  0
  150.8580  140.5796  158.0421 C   0  0  0  0  0  0  0  0  0  0  0  0
  151.0188  141.9012  158.5292 O   0  0  0  0  0  0  0  0  0  0  0  0
  152.2687  142.1042  159.1700 C   0  0  0  0  0  0  0  0  0  0  0  0
  152.6418  143.5753  159.2038 C   0  0  0  0  0  0  0  0  0  0  0  0
  151.6003  144.6405  159.4793 C   0  0  0  0  0  0  0  0  0  0  0  0
  152.1972  144.5175  158.1035 C   0  0  0  0  0  0  0  0  0  0  0  0
  149.3339  139.1593  156.5783 C   0  0  0  0  0  0  0  0  0  0  0  0
  148.2023  136.9565  155.9443 N   0  0  0  0  0  0  0  0  0  0  0  0
  147.6727  135.7504  155.7184 C   0  0  0  0  0  0  0  0  0  0  0  0
  146.7761  135.3909  154.7971 N   0  0  0  0  0  0  0  0  0  0  0  0
  146.4009  136.4528  154.0270 C   0  0  0  0  0  0  0  0  0  0  0  0
  143.3192  133.7769  149.6986 H   0  0  0  0  0  0  0  0  0  0  0  0
  143.5703  132.0357  149.7293 H   0  0  0  0  0  0  0  0  0  0  0  0
  144.7837  133.0798  149.0019 H   0  0  0  0  0  0  0  0  0  0  0  0
  144.0327  132.9171  151.9687 H   0  0  0  0  0  0  0  0  0  0  0  0
  146.0883  132.3621  153.3510 H   0  0  0  0  0  0  0  0  0  0  0  0
  147.5315  131.9368  152.4169 H   0  0  0  0  0  0  0  0  0  0  0  0
  147.1051  134.5418  153.0121 H   0  0  0  0  0  0  0  0  0  0  0  0
  147.6440  134.0874  151.4023 H   0  0  0  0  0  0  0  0  0  0  0  0
  145.9377  134.5624  149.6160 H   0  0  0  0  0  0  0  0  0  0  0  0
  143.8381  135.7886  151.9365 H   0  0  0  0  0  0  0  0  0  0  0  0
  144.3071  134.8032  153.2962 H   0  0  0  0  0  0  0  0  0  0  0  0
  144.8719  138.1146  151.7166 H   0  0  0  0  0  0  0  0  0  0  0  0
  149.7919  139.2980  153.8813 H   0  0  0  0  0  0  0  0  0  0  0  0
  148.2059  139.9534  153.5073 H   0  0  0  0  0  0  0  0  0  0  0  0
  149.9460  141.7588  153.8409 H   0  0  0  0  0  0  0  0  0  0  0  0
  148.6218  141.9167  154.9797 H   0  0  0  0  0  0  0  0  0  0  0  0
  148.9477  141.1804  157.2491 H   0  0  0  0  0  0  0  0  0  0  0  0
  150.5271  139.9383  158.8606 H   0  0  0  0  0  0  0  0  0  0  0  0
  151.8040  140.1798  157.6732 H   0  0  0  0  0  0  0  0  0  0  0  0
  152.2323  141.7288  160.1937 H   0  0  0  0  0  0  0  0  0  0  0  0
  153.0526  141.5580  158.6437 H   0  0  0  0  0  0  0  0  0  0  0  0
  153.6305  143.7629  159.6185 H   0  0  0  0  0  0  0  0  0  0  0  0
  150.5661  144.3268  159.6070 H   0  0  0  0  0  0  0  0  0  0  0  0
  151.9039  145.4936  160.0825 H   0  0  0  0  0  0  0  0  0  0  0  0
  152.8996  145.2868  157.7898 H   0  0  0  0  0  0  0  0  0  0  0  0
  151.5602  144.1219  157.3148 H   0  0  0  0  0  0  0  0  0  0  0  0
  148.8445  138.7045  157.4406 H   0  0  0  0  0  0  0  0  0  0  0  0
  150.1931  138.5356  156.3277 H   0  0  0  0  0  0  0  0  0  0  0  0
  148.0161  134.9601  156.3693 H   0  0  0  0  0  0  0  0  0  0  0  0
  1  2  1  0  0  0  0
  1 30  1  0  0  0  0
  1 31  1  0  0  0  0
  1 32  1  0  0  0  0
  2  6  1  0  0  0  0
  2  3  1  0  0  0  0
  2 33  1  0  0  0  0
  3  4  1  0  0  0  0
  4  5  1  0  0  0  0
  4 34  1  0  0  0  0
  4 35  1  0  0  0  0
  5  6  1  0  0  0  0
  5 36  1  0  0  0  0
  5 37  1  0  0  0  0
  6  7  1  0  0  0  0
  6  8  1  0  0  0  0
  7 38  1  0  0  0  0
  8  9  1  0  0  0  0
  8 39  1  0  0  0  0
  8 40  1  0  0  0  0
  9 29  1  0  0  0  0
  9 10  1  0  0  0  0
 10 11  2  0  0  0  0
 10 41  1  0  0  0  0
 11 12  1  0  0  0  0
 12 29  2  0  0  0  0
 12 13  1  0  0  0  0
 13 14  1  0  0  0  0
 13 26  2  0  0  0  0
 14 25  1  0  0  0  0
 14 15  1  0  0  0  0
 15 16  1  0  0  0  0
 15 42  1  0  0  0  0
 15 43  1  0  0  0  0
 16 17  1  0  0  0  0
 16 44  1  0  0  0  0
 16 45  1  0  0  0  0
 17 18  1  0  0  0  0
 18 19  1  0  0  0  0
 18 25  1  0  0  0  0
 18 46  1  0  0  0  0
 19 20  1  0  0  0  0
 19 47  1  0  0  0  0
 19 48  1  0  0  0  0
 20 21  1  0  0  0  0
 21 22  1  0  0  0  0
 21 49  1  0  0  0  0
 21 50  1  0  0  0  0
 22 24  1  0  0  0  0
 22 23  1  0  0  0  0
 22 51  1  0  0  0  0
 23 24  1  0  0  0  0
 23 52  1  0  0  0  0
 23 53  1  0  0  0  0
 24 54  1  0  0  0  0
 24 55  1  0  0  0  0
 25 56  1  0  0  0  0
 25 57  1  0  0  0  0
 26 27  1  0  0  0  0
 27 28  2  0  0  0  0
 27 58  1  0  0  0  0
 28 29  1  0  0  0  0
M  END
> <s_m_source_file>
AV-unprocessed.smi

> <i_m_source_file_index>
236

> <i_lp_mmshare_version>
43012

> <i_f3d_flags>
0

> <s_epik_input>
W0NIMl0xW0NIMl1PW0NAQEhdKFtDSDNdKVtDQEBdMShbT0hdKVtDSDJdbihbY0hdbjIpYyhjMjMpbltjSF1uYzNONFtDSDJdW0NIMl1PW0NASF0oW0NIMl00KVtDSDJdT1tDSDJdW0NIXTVbQ0gyXVtDSDJdNQ==

> <s_epik_cmdline>
J2VwaWtfcHl0aG9uJywgJy1waCcsICc3LjAnLCAnLXRuJywgJzgnLCAnLW1hJywgJzIwMCcsICctbWV0YWxfYmluZGluZycsICctaW1hZScsICc8aW5maWxlLm1hZT4nLCAnLW9tYWUnLCAnPG91dGZpbGUubWFlPic=

> <r_lp_tautomer_probability>
1

> <r_epik_Ionization_Penalty>
7.21838e-05

> <r_epik_Ionization_Penalty_Charging>
0

> <r_epik_Ionization_Penalty_Neutral>
7.21838e-05

> <r_epik_State_Penalty>
-0

> <r_epik_Charging_Adjusted_Penalty>
0

> <i_epik_Tot_Q>
0

> <i_epik_Tot_abs_Q>
0

> <r_epik_Metal_State_Penalty>
-0

> <b_epik_Metal_Only>
0

> <s_lp_Force_Field>
OPLS_2005

> <r_lp_Energy>
47.3448

> <b_lp_Chiralities_Consistent>
1

> <s_lp_Variant>
AV-unprocessed.smi:236-6

> <Gold.Version>
5.8.1

> <Gold.Id.Protein>
6NUR|6NUR_protein|mol2

> <Gold.PLP.Fitness>
46.6353

> <Gold.PLP.PLP>
-40.4141

> <Gold.PLP.part.hbond>
-1.2466

> <Gold.PLP.part.metal>
0.0000

> <Gold.PLP.part.buried>
-2.5952

> <Gold.PLP.part.nonpolar>
-37.2071

> <Gold.PLP.part.repulsive>
0.5945

> <Gold.PLP.ligand.clash>
0.0000

> <Gold.PLP.ligand.torsion>
1.0407

> <Gold.PLP.Chemscore.Hbond>
0.8320

> <Gold.PLP.Chemscore.CHOScore>
1.6604

> <Gold.PLP.Chemscore.Metal>
0.0000

> <Gold.Chemscore.Hbonds>
donor molecule, donor type, donor heavy atom, donor atom, acceptor molecule, acceptor atom, score
      L1  H     7    38       P1  7921  0.64
      L1  C    10    41       P1 10171  1.00
      L1  C    10    41       P1 10175  0.30

> <Gold.PLP.Chemscore.Internal.Correction>
0.8255

> <Gold.Rescore>
     Score         DG    S(hbond)    S(metal)    S(lipo)     H(rot)  DE(clash)    DE(int)     intcor
     13.00     -14.50       0.90        0.00     113.99       2.87       0.42       1.08       ----

> <Gold.Chemscore.Fitness>
12.9982

> <Gold.Chemscore.DG>
-14.4961

> <Gold.Chemscore.ZeroCoef>
-5.4800

> <Gold.Chemscore.Hbond>
0.9027

> <Gold.Chemscore.Metal>
0.0000

> <Gold.Chemscore.Lipo>
113.9900

> <Gold.Chemscore.Internal_Hbond>
0.0000

> <Gold.Chemscore.DEClash>
0.4175

> <Gold.Chemscore.DEInternal>
1.0804

> <Gold.Chemscore.Rot>
2.8655

> <Gold.Chemscore.Internal.Correction>
   9.000000E+99

> <Gold.Chemscore.Hbonds>
donor molecule, donor type, donor heavy atom, donor atom, acceptor molecule, acceptor atom, score
      L1  H     7    38       P1  7921  0.40

> <Gold.Chemscore.Hbond.Weighted>
-3.0150

> <Gold.Chemscore.Metal.Weighted>
-0.0000

> <Gold.Chemscore.Lipo.Weighted>
-13.3368

> <Gold.Chemscore.Internal_Hbond.Weighted>
0.0000

> <Gold.Chemscore.DEClash.Weighted>
0.4175

> <Gold.Chemscore.DEInternal.Weighted>
1.0804

> <Gold.Chemscore.Rot.Weighted>
7.3358

> <Gold.Chemscore.Internal.Correction.Weighted>
   9.000000E+99

> <Gold.Protein.RotatedTorsions>
[ 6907 6896 6895 6894 ] final  -77.46 input  -60.11 | X-H torsion
[ 7974 7965 7964 7962 ] final  177.45 input  175.53 | X-H torsion
[ 8008 7997 7996 7995 ] final  -17.71 input   59.86 | X-H torsion
[ 10167 10162 10161 10158 ] final -145.34 input  -65.29 | X-H torsion
[ 10718 10713 10712 10709 ] final  -22.18 input   66.30 | X-H torsion
[ 10763 10752 10751 10750 ] final -153.24 input  -60.55 | X-H torsion
[ 11005 11000 10999 10996 ] final   -5.57 input  -57.11 | X-H torsion

> <Gold.Protein.ActiveResidues>
 VAL166  LYS551  ARG553  GLY616  TRP617  ASP618  TYR619  PRO620  LYS621  CYS622 
 ASP623  PHE694  ASN695  SER759  ASP760  ASP761  ALA762  ILE779  LEU786  VAL792 
 PHE793  MET794  SER795  GLU796  ALA797  LYS798  CYS799  TRP800  GLU811  SER814 

> <Gold.Protein.RotatedAtoms>
  150.6998  134.4419  159.5295 H   0  0  0  0  0  0  0  0  0  0  0  0  # atno 6907 bound_to 6896
  152.2127  134.8484  160.0504 H   0  0  0  0  0  0  0  0  0  0  0  0  # atno 6908 bound_to 6896
  151.9363  133.3590  159.3986 H   0  0  0  0  0  0  0  0  0  0  0  0  # atno 6909 bound_to 6896
  144.7169  140.0249  143.6439 H   0  0  0  0  0  0  0  0  0  0  0  0  # atno 7974 bound_to 7965
  154.4958  140.2135  155.9450 H   0  0  0  0  0  0  0  0  0  0  0  0  # atno 8008 bound_to 7997
  156.1368  140.3187  155.8401 H   0  0  0  0  0  0  0  0  0  0  0  0  # atno 8009 bound_to 7997
  155.4194  140.0496  157.3017 H   0  0  0  0  0  0  0  0  0  0  0  0  # atno 8010 bound_to 7997
  139.7815  143.8094  152.2639 H   0  0  0  0  0  0  0  0  0  0  0  0  # atno 10167 bound_to 10162
  156.5081  130.4603  149.6663 H   0  0  0  0  0  0  0  0  0  0  0  0  # atno 10718 bound_to 10713
  154.7941  135.3217  154.7708 H   0  0  0  0  0  0  0  0  0  0  0  0  # atno 10763 bound_to 10752
  153.8390  135.6872  153.4809 H   0  0  0  0  0  0  0  0  0  0  0  0  # atno 10764 bound_to 10752
  153.1624  135.4655  154.9732 H   0  0  0  0  0  0  0  0  0  0  0  0  # atno 10765 bound_to 10752
  140.6926  133.9058  155.8628 H   0  0  0  0  0  0  0  0  0  0  0  0  # atno 11005 bound_to 11000
  146.0150  139.3202  143.0847 LP  0  0  0  0  0  0  0  0  0  0  0  0  # atno 17320 bound_to 7965
  145.8636  140.9461  143.0687 LP  0  0  0  0  0  0  0  0  0  0  0  0  # atno 17321 bound_to 7965
  139.8158  144.7317  150.9637 LP  0  0  0  0  0  0  0  0  0  0  0  0  # atno 17342 bound_to 10162
  140.7818  143.4206  151.0847 LP  0  0  0  0  0  0  0  0  0  0  0  0  # atno 17343 bound_to 10162
  156.3267  130.7310  151.2232 LP  0  0  0  0  0  0  0  0  0  0  0  0  # atno 17370 bound_to 10713
  157.7454  131.0441  150.4776 LP  0  0  0  0  0  0  0  0  0  0  0  0  # atno 17371 bound_to 10713
  141.0229  134.0864  157.4101 LP  0  0  0  0  0  0  0  0  0  0  0  0  # atno 17394 bound_to 11000
  139.8919  135.0121  156.6817 LP  0  0  0  0  0  0  0  0  0  0  0  0  # atno 17395 bound_to 11000

$$$$
