AV-unprocessed.smi:665|AV-procd|sdf|3253|dock6
  -GOLD-   22720 0203D 1   1.00000     0.00000
 Structure written by MMmdl.
 43 44  0  0  0  0  0  0  0  0  1 V2000
  152.4179  144.0395  162.0707 C   0  0  0  0  0  0  0  0  0  0  0  0
  152.5087  143.0644  160.9809 N   0  0  0  0  0  0  0  0  0  0  0  0
  153.4716  142.0475  161.0969 C   0  0  0  0  0  0  0  0  0  0  0  0
  153.6236  141.1116  160.1499 C   0  0  0  0  0  0  0  0  0  0  0  0
  152.7660  141.1633  158.9902 C   0  0  0  0  0  0  0  0  0  0  0  0
  151.8227  142.1305  158.8622 C   0  0  0  0  0  0  0  0  0  0  0  0
  150.9484  142.2558  157.7680 N   0  0  0  0  0  0  0  0  0  0  0  0
  150.7324  141.4075  156.7453 C   0  0  0  0  0  0  0  0  0  0  0  0
  151.2778  140.3152  156.5890 O   0  0  0  0  0  0  0  0  0  0  0  0
  149.8086  141.8995  155.9070 N   0  0  0  0  0  0  0  0  0  0  0  0
  149.2936  141.2347  154.7126 C   0  0  0  0  0  0  0  0  0  0  0  0
  147.9585  141.8707  154.2901 C   0  0  0  0  0  0  0  0  0  0  0  0
  147.3478  141.1414  153.0793 C   0  0  0  0  0  0  0  0  0  0  0  0
  147.1671  139.6188  153.3023 C   0  0  0  0  0  0  0  0  0  0  0  0
  146.0416  139.3416  154.3226 C   0  0  0  0  0  0  0  0  0  0  0  0
  146.7669  138.9633  151.9662 C   0  0  0  0  0  0  0  0  0  0  0  0
  148.5072  139.0050  153.7791 C   0  0  0  0  0  0  0  0  0  0  0  0
  149.1174  139.7325  154.9903 C   0  0  0  0  0  0  0  0  0  0  0  0
  151.6725  143.1647  159.9048 C   0  0  0  0  0  0  0  0  0  0  0  0
  150.8422  144.0734  159.8252 O   0  0  0  0  0  0  0  0  0  0  0  0
  153.1374  143.8493  162.8678 H   0  0  0  0  0  0  0  0  0  0  0  0
  151.4238  144.0194  162.5197 H   0  0  0  0  0  0  0  0  0  0  0  0
  152.6033  145.0486  161.6998 H   0  0  0  0  0  0  0  0  0  0  0  0
  154.0723  142.0755  161.9944 H   0  0  0  0  0  0  0  0  0  0  0  0
  154.3672  140.3352  160.2532 H   0  0  0  0  0  0  0  0  0  0  0  0
  152.9187  140.4116  158.2333 H   0  0  0  0  0  0  0  0  0  0  0  0
  150.3740  143.0859  157.7871 H   0  0  0  0  0  0  0  0  0  0  0  0
  149.4160  142.8048  156.1203 H   0  0  0  0  0  0  0  0  0  0  0  0
  149.9963  141.3430  153.8843 H   0  0  0  0  0  0  0  0  0  0  0  0
  147.2567  141.8597  155.1247 H   0  0  0  0  0  0  0  0  0  0  0  0
  148.1129  142.9210  154.0396 H   0  0  0  0  0  0  0  0  0  0  0  0
  146.3927  141.5998  152.8205 H   0  0  0  0  0  0  0  0  0  0  0  0
  147.9993  141.3051  152.2196 H   0  0  0  0  0  0  0  0  0  0  0  0
  145.9006  138.2706  154.4721 H   0  0  0  0  0  0  0  0  0  0  0  0
  145.0900  139.7499  153.9802 H   0  0  0  0  0  0  0  0  0  0  0  0
  146.2458  139.7783  155.2995 H   0  0  0  0  0  0  0  0  0  0  0  0
  146.6353  137.8862  152.0755 H   0  0  0  0  0  0  0  0  0  0  0  0
  147.5255  139.1228  151.1990 H   0  0  0  0  0  0  0  0  0  0  0  0
  145.8294  139.3723  151.5876 H   0  0  0  0  0  0  0  0  0  0  0  0
  148.3743  137.9488  154.0164 H   0  0  0  0  0  0  0  0  0  0  0  0
  149.2301  139.0384  152.9625 H   0  0  0  0  0  0  0  0  0  0  0  0
  150.0831  139.2865  155.2315 H   0  0  0  0  0  0  0  0  0  0  0  0
  148.4887  139.5848  155.8688 H   0  0  0  0  0  0  0  0  0  0  0  0
  1  2  1  0  0  0  0
  1 21  1  0  0  0  0
  1 22  1  0  0  0  0
  1 23  1  0  0  0  0
  2 19  1  0  0  0  0
  2  3  1  0  0  0  0
  3  4  2  0  0  0  0
  3 24  1  0  0  0  0
  4  5  1  0  0  0  0
  4 25  1  0  0  0  0
  5  6  2  0  0  0  0
  5 26  1  0  0  0  0
  6  7  1  0  0  0  0
  6 19  1  0  0  0  0
  7  8  1  0  0  0  0
  7 27  1  0  0  0  0
  8  9  2  0  0  0  0
  8 10  1  0  0  0  0
 10 11  1  0  0  0  0
 10 28  1  0  0  0  0
 11 18  1  0  0  0  0
 11 12  1  0  0  0  0
 11 29  1  0  0  0  0
 12 13  1  0  0  0  0
 12 30  1  0  0  0  0
 12 31  1  0  0  0  0
 13 14  1  0  0  0  0
 13 32  1  0  0  0  0
 13 33  1  0  0  0  0
 14 15  1  0  0  0  0
 14 16  1  0  0  0  0
 14 17  1  0  0  0  0
 15 34  1  0  0  0  0
 15 35  1  0  0  0  0
 15 36  1  0  0  0  0
 16 37  1  0  0  0  0
 16 38  1  0  0  0  0
 16 39  1  0  0  0  0
 17 18  1  0  0  0  0
 17 40  1  0  0  0  0
 17 41  1  0  0  0  0
 18 42  1  0  0  0  0
 18 43  1  0  0  0  0
 19 20  2  0  0  0  0
M  END
> <s_m_source_file>
AV-unprocessed.smi

> <i_m_source_file_index>
665

> <i_lp_mmshare_version>
43012

> <i_f3d_flags>
0

> <s_epik_input>
W0NIM11uMVtjSF1bY0hdW2NIXWMoYzE9TylbTkhdQyg9TylbTkhdW0NIXShbQ0gyXVtDSDJdMilbQ0gyXVtDSDJdQzIoW0NIM10pW0NIM10=

> <s_epik_cmdline>
J2VwaWtfcHl0aG9uJywgJy1waCcsICc3LjAnLCAnLXRuJywgJzgnLCAnLW1hJywgJzIwMCcsICctbWV0YWxfYmluZGluZycsICctaW1hZScsICc8aW5maWxlLm1hZT4nLCAnLW9tYWUnLCAnPG91dGZpbGUubWFlPic=

> <r_lp_tautomer_probability>
1

> <r_epik_Ionization_Penalty>
2.65253e-05

> <r_epik_Ionization_Penalty_Charging>
5.1221e-06

> <r_epik_Ionization_Penalty_Neutral>
2.14032e-05

> <r_epik_State_Penalty>
-0

> <r_epik_Charging_Adjusted_Penalty>
5.1221e-06

> <i_epik_Tot_Q>
0

> <i_epik_Tot_abs_Q>
0

> <r_epik_Metal_State_Penalty>
-0

> <b_epik_Metal_Only>
0

> <s_lp_Force_Field>
OPLS_2005

> <r_lp_Energy>
25.5106

> <b_lp_Chiralities_Consistent>
1

> <s_lp_Variant>
AV-unprocessed.smi:665-1

> <Gold.Version>
5.8.1

> <Gold.Id.Protein>
6NUR|6NUR_protein|mol2

> <Gold.PLP.Fitness>
44.2227

> <Gold.PLP.PLP>
-41.8108

> <Gold.PLP.part.hbond>
-1.0000

> <Gold.PLP.part.metal>
0.0000

> <Gold.PLP.part.buried>
-2.4314

> <Gold.PLP.part.nonpolar>
-38.1471

> <Gold.PLP.part.repulsive>
0.2551

> <Gold.PLP.ligand.clash>
0.0002

> <Gold.PLP.ligand.torsion>
0.2952

> <Gold.PLP.Chemscore.Hbond>
1.0000

> <Gold.PLP.Chemscore.CHOScore>
0.0000

> <Gold.PLP.Chemscore.Metal>
0.0000

> <Gold.Chemscore.Hbonds>
donor molecule, donor type, donor heavy atom, donor atom, acceptor molecule, acceptor atom, score
      L1  H    10    28       P1  8028  0.98

> <Gold.PLP.Chemscore.Internal.Correction>
0.0024

> <Gold.Rescore>
     Score         DG    S(hbond)    S(metal)    S(lipo)     H(rot)  DE(clash)    DE(int)     intcor
     15.28     -18.40       0.98        0.00     104.28       1.00       0.24       2.87       ----

> <Gold.Chemscore.Fitness>
15.2820

> <Gold.Chemscore.DG>
-18.3959

> <Gold.Chemscore.ZeroCoef>
-5.4800

> <Gold.Chemscore.Hbond>
0.9804

> <Gold.Chemscore.Metal>
0.0000

> <Gold.Chemscore.Lipo>
104.2844

> <Gold.Chemscore.Internal_Hbond>
0.0000

> <Gold.Chemscore.DEClash>
0.2416

> <Gold.Chemscore.DEInternal>
2.8722

> <Gold.Chemscore.Rot>
1.0000

> <Gold.Chemscore.Internal.Correction>
   9.000000E+99

> <Gold.Chemscore.Hbonds>
donor molecule, donor type, donor heavy atom, donor atom, acceptor molecule, acceptor atom, score
      L1  H    10    28       P1  8028  0.89

> <Gold.Chemscore.Hbond.Weighted>
-3.2746

> <Gold.Chemscore.Metal.Weighted>
-0.0000

> <Gold.Chemscore.Lipo.Weighted>
-12.2013

> <Gold.Chemscore.Internal_Hbond.Weighted>
0.0000

> <Gold.Chemscore.DEClash.Weighted>
0.2416

> <Gold.Chemscore.DEInternal.Weighted>
2.8722

> <Gold.Chemscore.Rot.Weighted>
2.5600

> <Gold.Chemscore.Internal.Correction.Weighted>
   9.000000E+99

> <Gold.Protein.RotatedTorsions>
[ 6907 6896 6895 6894 ] final  131.31 input  -60.11 | X-H torsion
[ 7974 7965 7964 7962 ] final    0.71 input  175.53 | X-H torsion
[ 8008 7997 7996 7995 ] final -109.95 input   59.86 | X-H torsion
[ 10167 10162 10161 10158 ] final -166.79 input  -65.29 | X-H torsion
[ 10718 10713 10712 10709 ] final   95.17 input   66.30 | X-H torsion
[ 10763 10752 10751 10750 ] final -121.02 input  -60.55 | X-H torsion
[ 11005 11000 10999 10996 ] final  137.43 input  -57.11 | X-H torsion

> <Gold.Protein.ActiveResidues>
 VAL166  LYS551  ARG553  GLY616  TRP617  ASP618  TYR619  PRO620  LYS621  CYS622 
 ASP623  PHE694  ASN695  SER759  ASP760  ASP761  ALA762  ILE779  LEU786  VAL792 
 PHE793  MET794  SER795  GLU796  ALA797  LYS798  CYS799  TRP800  GLU811  SER814 

> <Gold.Protein.RotatedAtoms>
  152.3439  133.6099  159.5895 H   0  0  0  0  0  0  0  0  0  0  0  0  # atno 6907 bound_to 6896
  150.7495  133.9680  159.3545 H   0  0  0  0  0  0  0  0  0  0  0  0  # atno 6908 bound_to 6896
  151.7541  135.0826  160.0386 H   0  0  0  0  0  0  0  0  0  0  0  0  # atno 6909 bound_to 6896
  146.2436  140.1096  142.8344 H   0  0  0  0  0  0  0  0  0  0  0  0  # atno 7974 bound_to 7965
  154.9672  140.0398  157.2217 H   0  0  0  0  0  0  0  0  0  0  0  0  # atno 8008 bound_to 7997
  154.7835  140.2823  155.6023 H   0  0  0  0  0  0  0  0  0  0  0  0  # atno 8009 bound_to 7997
  156.2939  140.2587  156.2665 H   0  0  0  0  0  0  0  0  0  0  0  0  # atno 8010 bound_to 7997
  139.6092  144.0850  152.1824 H   0  0  0  0  0  0  0  0  0  0  0  0  # atno 10167 bound_to 10162
  157.6941  131.0536  150.4297 H   0  0  0  0  0  0  0  0  0  0  0  0  # atno 10718 bound_to 10713
  154.8658  135.4182  154.2552 H   0  0  0  0  0  0  0  0  0  0  0  0  # atno 10763 bound_to 10752
  153.3491  135.6998  153.6809 H   0  0  0  0  0  0  0  0  0  0  0  0  # atno 10764 bound_to 10752
  153.5756  135.3583  155.2827 H   0  0  0  0  0  0  0  0  0  0  0  0  # atno 10765 bound_to 10752
  140.0114  134.9437  157.0285 H   0  0  0  0  0  0  0  0  0  0  0  0  # atno 11005 bound_to 11000
  145.0498  140.9009  143.5002 LP  0  0  0  0  0  0  0  0  0  0  0  0  # atno 17320 bound_to 7965
  145.1192  139.2705  143.5597 LP  0  0  0  0  0  0  0  0  0  0  0  0  # atno 17321 bound_to 7965
  140.0465  144.5967  150.7370 LP  0  0  0  0  0  0  0  0  0  0  0  0  # atno 17342 bound_to 10162
  140.7307  143.2686  151.3963 LP  0  0  0  0  0  0  0  0  0  0  0  0  # atno 17343 bound_to 10162
  156.4665  130.4043  149.6544 LP  0  0  0  0  0  0  0  0  0  0  0  0  # atno 17370 bound_to 10713
  156.3640  130.7496  151.2472 LP  0  0  0  0  0  0  0  0  0  0  0  0  # atno 17371 bound_to 10713
  140.4548  134.1545  155.7185 LP  0  0  0  0  0  0  0  0  0  0  0  0  # atno 17394 bound_to 11000
  141.1713  133.8603  157.1561 LP  0  0  0  0  0  0  0  0  0  0  0  0  # atno 17395 bound_to 11000

$$$$
