AV-unprocessed.smi:1998|AV-procd|sdf|8091|dock2
  -GOLD-   2272010303D 1   1.00000     0.00000
 Structure written by MMmdl.
 48 49  0  0  0  0  0  0  0  0  2 V2000
  152.4066  141.0701  158.5064 C   0  0  0  0  0  0  0  0  0  0  0  0
  151.7813  140.6391  157.2125 C   0  0  0  0  0  0  0  0  0  0  0  0
  150.5781  141.1088  156.6154 C   0  0  0  0  0  0  0  0  0  0  0  0
  150.4731  140.3907  155.4577 C   0  0  0  0  0  0  0  0  0  0  0  0
  149.4265  140.4247  154.3930 C   0  0  0  0  0  0  0  0  0  0  0  0
  151.5714  139.5508  155.4056 N   0  0  0  0  0  0  0  0  0  0  0  0
  151.9357  138.5787  154.3845 C   0  0  0  0  0  0  0  0  0  0  0  0
  151.9548  137.1386  154.9117 C   0  0  0  0  0  0  0  0  0  0  0  0
  152.7004  136.8074  155.8345 O   0  0  0  0  0  0  0  0  0  0  0  0
  151.1254  136.2820  154.2952 N   0  0  0  0  0  0  0  0  0  0  0  0
  150.9855  134.8577  154.6000 C   0  0  0  0  0  0  0  0  0  0  0  0
  149.5629  134.4522  155.0958 C   0  0  0  0  0  0  0  0  0  0  0  0
  149.7263  133.2332  156.0424 C   0  0  0  0  0  0  0  0  0  0  0  0
  148.9179  135.5993  155.9122 C   0  0  0  0  0  0  0  0  0  0  0  0
  148.7193  134.0998  153.8934 N   0  3  0  0  0  0  0  0  0  0  0  0
  149.1716  132.9283  153.0882 C   0  0  0  0  0  0  0  0  0  0  0  0
  148.3127  132.7661  151.8211 C   0  0  0  0  0  0  0  0  0  0  0  0
  146.9412  132.6520  152.1693 O   0  0  0  0  0  0  0  0  0  0  0  0
  146.4767  133.8122  152.8421 C   0  0  0  0  0  0  0  0  0  0  0  0
  147.2555  133.9800  154.1559 C   0  0  0  0  0  0  0  0  0  0  0  0
  152.3722  139.7075  156.4825 N   0  0  0  0  0  0  0  0  0  0  0  0
  151.8247  141.8605  158.9808 H   0  0  0  0  0  0  0  0  0  0  0  0
  153.4157  141.4512  158.3478 H   0  0  0  0  0  0  0  0  0  0  0  0
  152.4701  140.2382  159.2082 H   0  0  0  0  0  0  0  0  0  0  0  0
  149.8943  141.8598  156.9829 H   0  0  0  0  0  0  0  0  0  0  0  0
  148.6276  141.1187  154.6547 H   0  0  0  0  0  0  0  0  0  0  0  0
  148.9819  139.4396  154.2519 H   0  0  0  0  0  0  0  0  0  0  0  0
  149.8513  140.7458  153.4419 H   0  0  0  0  0  0  0  0  0  0  0  0
  151.2304  138.6619  153.5568 H   0  0  0  0  0  0  0  0  0  0  0  0
  152.9215  138.8261  153.9877 H   0  0  0  0  0  0  0  0  0  0  0  0
  150.5529  136.6428  153.5456 H   0  0  0  0  0  0  0  0  0  0  0  0
  151.2893  134.2819  153.7270 H   0  0  0  0  0  0  0  0  0  0  0  0
  151.7189  134.6209  155.3715 H   0  0  0  0  0  0  0  0  0  0  0  0
  150.4123  133.4406  156.8637 H   0  0  0  0  0  0  0  0  0  0  0  0
  150.1137  132.3629  155.5115 H   0  0  0  0  0  0  0  0  0  0  0  0
  148.7864  132.9515  156.5174 H   0  0  0  0  0  0  0  0  0  0  0  0
  149.4442  135.7650  156.8527 H   0  0  0  0  0  0  0  0  0  0  0  0
  147.8810  135.3805  156.1671 H   0  0  0  0  0  0  0  0  0  0  0  0
  148.9367  136.5466  155.3731 H   0  0  0  0  0  0  0  0  0  0  0  0
  150.2014  133.0427  152.7543 H   0  0  0  0  0  0  0  0  0  0  0  0
  149.1225  132.0208  153.6909 H   0  0  0  0  0  0  0  0  0  0  0  0
  148.4570  133.6094  151.1436 H   0  0  0  0  0  0  0  0  0  0  0  0
  148.6128  131.8698  151.2779 H   0  0  0  0  0  0  0  0  0  0  0  0
  146.5834  134.6921  152.2053 H   0  0  0  0  0  0  0  0  0  0  0  0
  145.4127  133.6959  153.0486 H   0  0  0  0  0  0  0  0  0  0  0  0
  147.0563  133.1161  154.7910 H   0  0  0  0  0  0  0  0  0  0  0  0
  146.8654  134.8518  154.6760 H   0  0  0  0  0  0  0  0  0  0  0  0
  148.8201  134.8895  153.2716 H   0  0  0  0  0  0  0  0  0  0  0  0
  1  2  1  0  0  0  0
  1 22  1  0  0  0  0
  1 23  1  0  0  0  0
  1 24  1  0  0  0  0
  2 21  2  0  0  0  0
  2  3  1  0  0  0  0
  3  4  2  0  0  0  0
  3 25  1  0  0  0  0
  4  5  1  0  0  0  0
  4  6  1  0  0  0  0
  5 26  1  0  0  0  0
  5 27  1  0  0  0  0
  5 28  1  0  0  0  0
  6  7  1  0  0  0  0
  6 21  1  0  0  0  0
  7  8  1  0  0  0  0
  7 29  1  0  0  0  0
  7 30  1  0  0  0  0
  8  9  2  0  0  0  0
  8 10  1  0  0  0  0
 10 11  1  0  0  0  0
 10 31  1  0  0  0  0
 11 12  1  0  0  0  0
 11 32  1  0  0  0  0
 11 33  1  0  0  0  0
 12 13  1  0  0  0  0
 12 14  1  0  0  0  0
 12 15  1  0  0  0  0
 13 34  1  0  0  0  0
 13 35  1  0  0  0  0
 13 36  1  0  0  0  0
 14 37  1  0  0  0  0
 14 38  1  0  0  0  0
 14 39  1  0  0  0  0
 15 20  1  0  0  0  0
 15 16  1  0  0  0  0
 15 48  1  0  0  0  0
 16 17  1  0  0  0  0
 16 40  1  0  0  0  0
 16 41  1  0  0  0  0
 17 18  1  0  0  0  0
 17 42  1  0  0  0  0
 17 43  1  0  0  0  0
 18 19  1  0  0  0  0
 19 20  1  0  0  0  0
 19 44  1  0  0  0  0
 19 45  1  0  0  0  0
 20 46  1  0  0  0  0
 20 47  1  0  0  0  0
M  CHG  1  15   1
M  END
> <s_m_source_file>
AV-unprocessed.smi

> <i_m_source_file_index>
1998

> <i_lp_mmshare_version>
43012

> <i_f3d_flags>
0

> <s_epik_input>
W0NIM11jMVtjSF1jKFtDSDNdKW4objEpW0NIMl1DKD1PKVtOSF1bQ0gyXUMoW0NIM10pKFtDSDNdKU4yW0NIMl1bQ0gyXU9bQ0gyXVtDSDJdMg==

> <s_epik_cmdline>
J2VwaWtfcHl0aG9uJywgJy1waCcsICc3LjAnLCAnLXRuJywgJzgnLCAnLW1hJywgJzIwMCcsICctbWV0YWxfYmluZGluZycsICctaW1hZScsICc8aW5maWxlLm1hZT4nLCAnLW9tYWUnLCAnPG91dGZpbGUubWFlPic=

> <r_lp_tautomer_probability>
1

> <r_epik_Ionization_Penalty>
0.748602

> <r_epik_Ionization_Penalty_Charging>
0.748396

> <r_epik_Ionization_Penalty_Neutral>
0.000205295

> <r_epik_State_Penalty>
0.775162

> <r_epik_Charging_Adjusted_Penalty>
1.52356

> <i_epik_Tot_Q>
1

> <i_epik_Tot_abs_Q>
1

> <r_epik_Metal_State_Penalty>
0.775274

> <b_epik_Metal_Only>
0

> <s_lp_Force_Field>
OPLS_2005

> <r_lp_Energy>
25.5475

> <b_lp_Chiralities_Consistent>
1

> <s_lp_Variant>
AV-unprocessed.smi:1998-2

> <Gold.Version>
5.8.1

> <Gold.Id.Protein>
6NUR|6NUR_protein|mol2

> <Gold.PLP.Fitness>
45.7796

> <Gold.PLP.PLP>
-33.8362

> <Gold.PLP.part.hbond>
-5.0000

> <Gold.PLP.part.metal>
0.0000

> <Gold.PLP.part.buried>
-1.6408

> <Gold.PLP.part.nonpolar>
-27.4249

> <Gold.PLP.part.repulsive>
0.2101

> <Gold.PLP.ligand.clash>
0.0000

> <Gold.PLP.ligand.torsion>
0.6927

> <Gold.PLP.Chemscore.Hbond>
4.3964

> <Gold.PLP.Chemscore.CHOScore>
0.0000

> <Gold.PLP.Chemscore.Metal>
0.0000

> <Gold.Chemscore.Hbonds>
donor molecule, donor type, donor heavy atom, donor atom, acceptor molecule, acceptor atom, score
      L1  H    10    31       P1  7948  0.09
      L1  H    15    48       P1  7948  2.00
      P1  H  7997  8010       L1    21  1.00
      P1  H 10752 10764       L1     9  0.47

> <Gold.PLP.Chemscore.Internal.Correction>
0.1398

> <Gold.Rescore>
     Score         DG    S(hbond)    S(metal)    S(lipo)     H(rot)  DE(clash)    DE(int)     intcor
     16.77     -18.25       2.64        0.00      71.73       1.74       0.03       1.46       ----

> <Gold.Chemscore.Fitness>
16.7684

> <Gold.Chemscore.DG>
-18.2531

> <Gold.Chemscore.ZeroCoef>
-5.4800

> <Gold.Chemscore.Hbond>
2.6440

> <Gold.Chemscore.Metal>
0.0000

> <Gold.Chemscore.Lipo>
71.7279

> <Gold.Chemscore.Internal_Hbond>
0.0000

> <Gold.Chemscore.DEClash>
0.0284

> <Gold.Chemscore.DEInternal>
1.4564

> <Gold.Chemscore.Rot>
1.7383

> <Gold.Chemscore.Internal.Correction>
   9.000000E+99

> <Gold.Chemscore.Hbonds>
donor molecule, donor type, donor heavy atom, donor atom, acceptor molecule, acceptor atom, score
      L1  H    15    48       P1  7948  0.35
      P1  H  7997  8010       L1    21  0.57
      P1  H 10752 10764       L1     9  0.03

> <Gold.Chemscore.Hbond.Weighted>
-8.8311

> <Gold.Chemscore.Metal.Weighted>
-0.0000

> <Gold.Chemscore.Lipo.Weighted>
-8.3922

> <Gold.Chemscore.Internal_Hbond.Weighted>
0.0000

> <Gold.Chemscore.DEClash.Weighted>
0.0284

> <Gold.Chemscore.DEInternal.Weighted>
1.4564

> <Gold.Chemscore.Rot.Weighted>
4.4501

> <Gold.Chemscore.Internal.Correction.Weighted>
   9.000000E+99

> <Gold.Protein.RotatedTorsions>
[ 6907 6896 6895 6894 ] final   13.46 input  -60.11 | X-H torsion
[ 7974 7965 7964 7962 ] final  -96.70 input  175.53 | X-H torsion
[ 8008 7997 7996 7995 ] final   68.95 input   59.86 | X-H torsion
[ 10167 10162 10161 10158 ] final -131.92 input  -65.29 | X-H torsion
[ 10718 10713 10712 10709 ] final -119.47 input   66.30 | X-H torsion
[ 10763 10752 10751 10750 ] final  -28.84 input  -60.55 | X-H torsion
[ 11005 11000 10999 10996 ] final  172.23 input  -57.11 | X-H torsion

> <Gold.Protein.ActiveResidues>
 VAL166  LYS551  ARG553  GLY616  TRP617  ASP618  TYR619  PRO620  LYS621  CYS622 
 ASP623  PHE694  ASN695  SER759  ASP760  ASP761  ALA762  ILE779  LEU786  VAL792 
 PHE793  MET794  SER795  GLU796  ALA797  LYS798  CYS799  TRP800  GLU811  SER814 

> <Gold.Protein.RotatedAtoms>
  151.7867  135.0747  160.0381 H   0  0  0  0  0  0  0  0  0  0  0  0  # atno 6907 bound_to 6896
  152.3185  133.5824  159.5737 H   0  0  0  0  0  0  0  0  0  0  0  0  # atno 6908 bound_to 6896
  150.7357  133.9962  159.3665 H   0  0  0  0  0  0  0  0  0  0  0  0  # atno 6909 bound_to 6896
  145.3434  140.9464  143.2595 H   0  0  0  0  0  0  0  0  0  0  0  0  # atno 7974 bound_to 7965
  155.7161  140.3494  155.4995 H   0  0  0  0  0  0  0  0  0  0  0  0  # atno 8008 bound_to 7997
  155.9311  140.1084  157.1153 H   0  0  0  0  0  0  0  0  0  0  0  0  # atno 8009 bound_to 7997
  154.4085  140.1231  156.4791 H   0  0  0  0  0  0  0  0  0  0  0  0  # atno 8010 bound_to 7997
  139.9139  143.6462  152.2569 H   0  0  0  0  0  0  0  0  0  0  0  0  # atno 10167 bound_to 10162
  156.1183  130.6303  150.9420 H   0  0  0  0  0  0  0  0  0  0  0  0  # atno 10718 bound_to 10713
  153.7549  135.6923  153.4938 H   0  0  0  0  0  0  0  0  0  0  0  0  # atno 10763 bound_to 10752
  153.1978  135.4447  155.0228 H   0  0  0  0  0  0  0  0  0  0  0  0  # atno 10764 bound_to 10752
  154.8174  135.3405  154.7067 H   0  0  0  0  0  0  0  0  0  0  0  0  # atno 10765 bound_to 10752
  140.3275  134.7385  157.4110 H   0  0  0  0  0  0  0  0  0  0  0  0  # atno 11005 bound_to 11000
  144.8773  139.4953  143.6739 LP  0  0  0  0  0  0  0  0  0  0  0  0  # atno 17320 bound_to 7965
  146.2998  139.7390  142.9100 LP  0  0  0  0  0  0  0  0  0  0  0  0  # atno 17321 bound_to 7965
  139.6919  144.7646  151.1423 LP  0  0  0  0  0  0  0  0  0  0  0  0  # atno 17342 bound_to 10162
  140.7679  143.5577  150.9133 LP  0  0  0  0  0  0  0  0  0  0  0  0  # atno 17343 bound_to 10162
  157.6367  131.0915  150.8335 LP  0  0  0  0  0  0  0  0  0  0  0  0  # atno 17370 bound_to 10713
  156.8435  130.5056  149.5319 LP  0  0  0  0  0  0  0  0  0  0  0  0  # atno 17371 bound_to 10713
  140.0889  134.5629  155.8464 LP  0  0  0  0  0  0  0  0  0  0  0  0  # atno 17394 bound_to 11000
  141.2071  133.6661  156.6287 LP  0  0  0  0  0  0  0  0  0  0  0  0  # atno 17395 bound_to 11000

$$$$
