AV-unprocessed.smi:1423|AV-procd|sdf|5798|dock1
  -GOLD-   22720 5453D 1   1.00000     0.00000
 Structure written by MMmdl.
 43 44  0  0  0  0  0  0  0  0  3 V2000
  152.9493  139.2264  158.7280 C   0  0  0  0  0  0  0  0  0  0  0  0
  152.8313  139.4969  157.3357 O   0  0  0  0  0  0  0  0  0  0  0  0
  151.9928  138.7016  156.5817 C   0  0  0  0  0  0  0  0  0  0  0  0
  151.8644  138.9736  155.2054 C   0  0  0  0  0  0  0  0  0  0  0  0
  151.0113  138.1678  154.4275 C   0  0  0  0  0  0  0  0  0  0  0  0
  150.3158  137.1046  155.0521 C   0  0  0  0  0  0  0  0  0  0  0  0
  149.4125  136.2318  154.3852 N   0  0  0  0  0  0  0  0  0  0  0  0
  148.7591  135.1637  154.8747 C   0  0  0  0  0  0  0  0  0  0  0  0
  148.8020  134.7740  156.0411 O   0  0  0  0  0  0  0  0  0  0  0  0
  148.0248  134.5660  153.9249 N   0  0  0  0  0  0  0  0  0  0  0  0
  147.1907  133.3807  154.1252 C   0  0  2  0  0  0  0  0  0  0  0  0
  147.3262  132.3826  152.9582 C   0  0  0  0  0  0  0  0  0  0  0  0
  146.6605  132.9036  151.6725 C   0  0  0  0  0  0  0  0  0  0  0  0
  145.2321  133.2455  151.9087 N   0  3  2  0  0  0  0  0  0  0  0  0
  144.5101  133.6259  150.6690 C   0  0  0  0  0  0  0  0  0  0  0  0
  144.3499  132.4076  149.7533 C   0  0  0  0  0  0  0  0  0  0  0  0
  143.0587  132.1051  149.5211 N   0  5  0  0  0  0  0  0  0  0  0  0
  145.3494  131.8419  149.3148 O   0  0  0  0  0  0  0  0  0  0  0  0
  145.0837  134.2613  152.9814 C   0  0  0  0  0  0  0  0  0  0  0  0
  145.7151  133.7790  154.3001 C   0  0  0  0  0  0  0  0  0  0  0  0
  150.5050  136.9242  156.4383 C   0  0  0  0  0  0  0  0  0  0  0  0
  151.3208  137.6931  157.1899 N   0  0  0  0  0  0  0  0  0  0  0  0
  153.6504  139.9318  159.1735 H   0  0  0  0  0  0  0  0  0  0  0  0
  153.3325  138.2211  158.9084 H   0  0  0  0  0  0  0  0  0  0  0  0
  151.9929  139.3428  159.2397 H   0  0  0  0  0  0  0  0  0  0  0  0
  152.4082  139.7900  154.7537 H   0  0  0  0  0  0  0  0  0  0  0  0
  150.9014  138.3927  153.3785 H   0  0  0  0  0  0  0  0  0  0  0  0
  149.2122  136.4729  153.4257 H   0  0  0  0  0  0  0  0  0  0  0  0
  148.0412  134.9607  152.9960 H   0  0  0  0  0  0  0  0  0  0  0  0
  147.5174  132.8918  155.0450 H   0  0  0  0  0  0  0  0  0  0  0  0
  148.3749  132.1512  152.7685 H   0  0  0  0  0  0  0  0  0  0  0  0
  146.8580  131.4385  153.2403 H   0  0  0  0  0  0  0  0  0  0  0  0
  147.1904  133.7822  151.3009 H   0  0  0  0  0  0  0  0  0  0  0  0
  146.7422  132.1400  150.8986 H   0  0  0  0  0  0  0  0  0  0  0  0
  143.5040  133.9690  150.9137 H   0  0  0  0  0  0  0  0  0  0  0  0
  145.0114  134.4629  150.1779 H   0  0  0  0  0  0  0  0  0  0  0  0
  142.3731  132.8690  149.4807 H   0  0  0  0  0  0  0  0  0  0  0  0
  145.5389  135.1997  152.6608 H   0  0  0  0  0  0  0  0  0  0  0  0
  144.0256  134.4653  153.1491 H   0  0  0  0  0  0  0  0  0  0  0  0
  145.1544  132.9173  154.6654 H   0  0  0  0  0  0  0  0  0  0  0  0
  145.6180  134.5491  155.0665 H   0  0  0  0  0  0  0  0  0  0  0  0
  149.9866  136.1352  156.9636 H   0  0  0  0  0  0  0  0  0  0  0  0
  144.7792  132.4067  152.2431 H   0  0  0  0  0  0  0  0  0  0  0  0
  1  2  1  0  0  0  0
  1 23  1  0  0  0  0
  1 24  1  0  0  0  0
  1 25  1  0  0  0  0
  2  3  1  0  0  0  0
  3 22  1  0  0  0  0
  3  4  2  0  0  0  0
  4  5  1  0  0  0  0
  4 26  1  0  0  0  0
  5  6  2  0  0  0  0
  5 27  1  0  0  0  0
  6  7  1  0  0  0  0
  6 21  1  0  0  0  0
  7  8  1  0  0  0  0
  7 28  1  0  0  0  0
  8  9  2  0  0  0  0
  8 10  1  0  0  0  0
 10 11  1  0  0  0  0
 10 29  1  0  0  0  0
 11 20  1  0  0  0  0
 11 12  1  0  0  0  0
 11 30  1  0  0  0  0
 12 13  1  0  0  0  0
 12 31  1  0  0  0  0
 12 32  1  0  0  0  0
 13 14  1  0  0  0  0
 13 33  1  0  0  0  0
 13 34  1  0  0  0  0
 14 15  1  0  0  0  0
 14 19  1  0  0  0  0
 14 43  1  0  0  0  0
 15 16  1  0  0  0  0
 15 35  1  0  0  0  0
 15 36  1  0  0  0  0
 16 17  1  0  0  0  0
 16 18  2  0  0  0  0
 17 37  1  0  0  0  0
 19 20  1  0  0  0  0
 19 38  1  0  0  0  0
 19 39  1  0  0  0  0
 20 40  1  0  0  0  0
 20 41  1  0  0  0  0
 21 22  2  0  0  0  0
 21 42  1  0  0  0  0
M  CHG  1  14   1
M  CHG  1  17  -1
M  END
> <s_m_source_file>
AV-unprocessed.smi

> <i_m_source_file_index>
1423

> <i_lp_mmshare_version>
43012

> <i_f3d_flags>
0

> <s_epik_input>
W0NIM11PYzFbY0hdW2NIXWMoW2NIXW4xKVtOSF1DKD1PKVtOSF1bQ0hdMltDSDJdW0NIMl1OKFtDSDJdW0NIMl0yKVtDSDJdQyg9TylbTkgyXQ==

> <s_epik_cmdline>
J2VwaWtfcHl0aG9uJywgJy1waCcsICc3LjAnLCAnLXRuJywgJzgnLCAnLW1hJywgJzIwMCcsICctbWV0YWxfYmluZGluZycsICctaW1hZScsICc8aW5maWxlLm1hZT4nLCAnLW9tYWUnLCAnPG91dGZpbGUubWFlPic=

> <r_lp_tautomer_probability>
1

> <r_epik_Ionization_Penalty>
5.72888

> <r_epik_Ionization_Penalty_Charging>
5.7288

> <r_epik_Ionization_Penalty_Neutral>
7.8452e-05

> <r_epik_State_Penalty>
6.54882

> <r_epik_Charging_Adjusted_Penalty>
12.2776

> <i_epik_Tot_Q>
0

> <i_epik_Tot_abs_Q>
2

> <r_epik_Metal_State_Penalty>
2.51301

> <b_epik_Metal_Only>
1

> <s_lp_Force_Field>
OPLS_2005

> <r_lp_Energy>
11.3515

> <b_lp_Chiralities_Consistent>
1

> <s_lp_Variant>
AV-unprocessed.smi:1423-5

> <Gold.Version>
5.8.1

> <Gold.Id.Protein>
6NUR|6NUR_protein|mol2

> <Gold.PLP.Fitness>
44.9505

> <Gold.PLP.PLP>
-31.7994

> <Gold.PLP.part.hbond>
-5.8016

> <Gold.PLP.part.metal>
0.0000

> <Gold.PLP.part.buried>
-5.5271

> <Gold.PLP.part.nonpolar>
-21.6398

> <Gold.PLP.part.repulsive>
0.2242

> <Gold.PLP.ligand.clash>
0.0000

> <Gold.PLP.ligand.torsion>
0.3534

> <Gold.PLP.Chemscore.Hbond>
4.6028

> <Gold.PLP.Chemscore.CHOScore>
0.0000

> <Gold.PLP.Chemscore.Metal>
0.0000

> <Gold.Chemscore.Hbonds>
donor molecule, donor type, donor heavy atom, donor atom, acceptor molecule, acceptor atom, score
      L1  H     7    28       P1  7948  1.00
      L1  H    10    29       P1  7948  0.88
      L1  H    17    37       P1 10186  0.93
      P1  H  7997  8010       L1     2  1.00
      P1  H 10785 10796       L1    17  0.78

> <Gold.PLP.Chemscore.Internal.Correction>
0.0496

> <Gold.Rescore>
     Score         DG    S(hbond)    S(metal)    S(lipo)     H(rot)  DE(clash)    DE(int)     intcor
     15.76     -18.97       3.79        0.00      57.30       2.29       0.19       3.02       ----

> <Gold.Chemscore.Fitness>
15.7631

> <Gold.Chemscore.DG>
-18.9723

> <Gold.Chemscore.ZeroCoef>
-5.4800

> <Gold.Chemscore.Hbond>
3.7872

> <Gold.Chemscore.Metal>
0.0000

> <Gold.Chemscore.Lipo>
57.2976

> <Gold.Chemscore.Internal_Hbond>
0.0000

> <Gold.Chemscore.DEClash>
0.1904

> <Gold.Chemscore.DEInternal>
3.0187

> <Gold.Chemscore.Rot>
2.2894

> <Gold.Chemscore.Internal.Correction>
   9.000000E+99

> <Gold.Chemscore.Hbonds>
donor molecule, donor type, donor heavy atom, donor atom, acceptor molecule, acceptor atom, score
      L1  H     7    28       P1  7948  0.93
      L1  H    10    29       P1  7948  0.81
      L1  H    17    37       P1 10186  0.89
      P1  H  7997  8010       L1     2  0.77
      P1  H 10785 10796       L1    17  0.27

> <Gold.Chemscore.Hbond.Weighted>
-12.6492

> <Gold.Chemscore.Metal.Weighted>
-0.0000

> <Gold.Chemscore.Lipo.Weighted>
-6.7038

> <Gold.Chemscore.Internal_Hbond.Weighted>
0.0000

> <Gold.Chemscore.DEClash.Weighted>
0.1904

> <Gold.Chemscore.DEInternal.Weighted>
3.0187

> <Gold.Chemscore.Rot.Weighted>
5.8608

> <Gold.Chemscore.Internal.Correction.Weighted>
   9.000000E+99

> <Gold.Protein.RotatedTorsions>
[ 6907 6896 6895 6894 ] final  -50.81 input  -60.11 | X-H torsion
[ 7974 7965 7964 7962 ] final   93.94 input  175.53 | X-H torsion
[ 8008 7997 7996 7995 ] final   59.26 input   59.86 | X-H torsion
[ 10167 10162 10161 10158 ] final -155.57 input  -65.29 | X-H torsion
[ 10718 10713 10712 10709 ] final   79.65 input   66.30 | X-H torsion
[ 10763 10752 10751 10750 ] final  131.95 input  -60.55 | X-H torsion
[ 11005 11000 10999 10996 ] final  -23.96 input  -57.11 | X-H torsion

> <Gold.Protein.ActiveResidues>
 VAL166  LYS551  ARG553  GLY616  TRP617  ASP618  TYR619  PRO620  LYS621  CYS622 
 ASP623  PHE694  ASN695  SER759  ASP760  ASP761  ALA762  ILE779  LEU786  VAL792 
 PHE793  MET794  SER795  GLU796  ALA797  LYS798  CYS799  TRP800  GLU811  SER814 

> <Gold.Protein.RotatedAtoms>
  150.8671  134.8037  159.7126 H   0  0  0  0  0  0  0  0  0  0  0  0  # atno 6907 bound_to 6896
  152.4689  134.5006  159.9733 H   0  0  0  0  0  0  0  0  0  0  0  0  # atno 6908 bound_to 6896
  151.5100  133.3448  159.2919 H   0  0  0  0  0  0  0  0  0  0  0  0  # atno 6909 bound_to 6896
  145.4723  139.2281  143.2928 H   0  0  0  0  0  0  0  0  0  0  0  0  # atno 7974 bound_to 7965
  155.5633  140.3488  155.4496 H   0  0  0  0  0  0  0  0  0  0  0  0  # atno 8008 bound_to 7997
  156.0498  140.1315  157.0088 H   0  0  0  0  0  0  0  0  0  0  0  0  # atno 8009 bound_to 7997
  154.4429  140.1007  156.6345 H   0  0  0  0  0  0  0  0  0  0  0  0  # atno 8010 bound_to 7997
  139.6921  143.9404  152.2390 H   0  0  0  0  0  0  0  0  0  0  0  0  # atno 10167 bound_to 10162
  157.6783  130.9924  150.1964 H   0  0  0  0  0  0  0  0  0  0  0  0  # atno 10718 bound_to 10713
  153.7827  135.3166  155.3368 H   0  0  0  0  0  0  0  0  0  0  0  0  # atno 10763 bound_to 10752
  154.8155  135.4639  154.0635 H   0  0  0  0  0  0  0  0  0  0  0  0  # atno 10764 bound_to 10752
  153.1929  135.6911  153.8415 H   0  0  0  0  0  0  0  0  0  0  0  0  # atno 10765 bound_to 10752
  140.8801  133.7660  156.0291 H   0  0  0  0  0  0  0  0  0  0  0  0  # atno 11005 bound_to 11000
  146.2390  140.5502  142.8942 LP  0  0  0  0  0  0  0  0  0  0  0  0  # atno 17320 bound_to 7965
  144.7938  140.6083  143.6524 LP  0  0  0  0  0  0  0  0  0  0  0  0  # atno 17321 bound_to 7965
  139.9222  144.6792  150.8449 LP  0  0  0  0  0  0  0  0  0  0  0  0  # atno 17342 bound_to 10162
  140.7685  143.3367  151.2295 LP  0  0  0  0  0  0  0  0  0  0  0  0  # atno 17343 bound_to 10162
  156.2664  130.3716  149.8076 LP  0  0  0  0  0  0  0  0  0  0  0  0  # atno 17370 bound_to 10713
  156.5806  130.8464  151.3382 LP  0  0  0  0  0  0  0  0  0  0  0  0  # atno 17371 bound_to 10713
  140.8472  134.2997  157.5290 LP  0  0  0  0  0  0  0  0  0  0  0  0  # atno 17394 bound_to 11000
  139.8719  134.9448  156.3891 LP  0  0  0  0  0  0  0  0  0  0  0  0  # atno 17395 bound_to 11000

$$$$
