AV-unprocessed.smi:2976|AV-procd|sdf|11363|dock4
  -GOLD-   2272016283D 1   1.00000     0.00000
 Structure written by MMmdl.
 40 41  0  0  0  0  0  0  0  0  1 V2000
  152.7968  144.0296  159.3148 C   0  0  0  0  0  0  0  0  0  0  0  0
  151.9486  142.8477  159.8278 C   0  0  2  0  0  0  0  0  0  0  0  0
  152.7636  141.9232  160.7544 C   0  0  0  0  0  0  0  0  0  0  0  0
  153.7851  141.0790  159.9778 C   0  0  0  0  0  0  0  0  0  0  0  0
  153.1007  140.2625  158.8732 C   0  0  0  0  0  0  0  0  0  0  0  0
  152.2786  141.1523  157.9204 C   0  0  1  0  0  0  0  0  0  0  0  0
  151.5963  140.2879  156.9574 N   0  0  0  0  0  0  0  0  0  0  0  0
  152.1534  139.2838  156.2623 C   0  0  0  0  0  0  0  0  0  0  0  0
  153.3443  138.9799  156.3457 O   0  0  0  0  0  0  0  0  0  0  0  0
  151.2106  138.5311  155.3120 C   0  0  0  0  0  0  0  0  0  0  0  0
  150.0155  139.3002  154.9347 N   0  0  0  0  0  0  0  0  0  0  0  0
  150.2161  140.6690  154.8969 N   0  0  0  0  0  0  0  0  0  0  0  0
  149.2414  141.4440  154.5666 C   0  0  0  0  0  0  0  0  0  0  0  0
  147.9301  140.9335  154.2338 C   0  0  0  0  0  0  0  0  0  0  0  0
  146.6605  142.0229  153.7991 Cl  0  0  0  0  0  0  0  0  0  0  0  0
  147.7430  139.5903  154.2770 C   0  0  0  0  0  0  0  0  0  0  0  0
  146.2018  138.9049  153.8908 Cl  0  0  0  0  0  0  0  0  0  0  0  0
  148.8315  138.6757  154.6494 C   0  0  0  0  0  0  0  0  0  0  0  0
  148.7015  137.4521  154.7027 O   0  0  0  0  0  0  0  0  0  0  0  0
  151.2608  142.0248  158.7049 C   0  0  2  0  0  0  0  0  0  0  0  0
  150.3838  142.9056  157.7926 C   0  0  0  0  0  0  0  0  0  0  0  0
  153.5804  143.7087  158.6293 H   0  0  0  0  0  0  0  0  0  0  0  0
  153.2794  144.5493  160.1429 H   0  0  0  0  0  0  0  0  0  0  0  0
  152.1838  144.7657  158.7950 H   0  0  0  0  0  0  0  0  0  0  0  0
  151.1586  143.2849  160.4400 H   0  0  0  0  0  0  0  0  0  0  0  0
  153.2700  142.5081  161.5229 H   0  0  0  0  0  0  0  0  0  0  0  0
  152.0826  141.2565  161.2851 H   0  0  0  0  0  0  0  0  0  0  0  0
  154.5494  141.7225  159.5415 H   0  0  0  0  0  0  0  0  0  0  0  0
  154.3060  140.4086  160.6617 H   0  0  0  0  0  0  0  0  0  0  0  0
  153.8525  139.7079  158.3100 H   0  0  0  0  0  0  0  0  0  0  0  0
  152.4505  139.5171  159.3336 H   0  0  0  0  0  0  0  0  0  0  0  0
  152.9741  141.8097  157.3961 H   0  0  0  0  0  0  0  0  0  0  0  0
  150.6129  140.4662  156.8132 H   0  0  0  0  0  0  0  0  0  0  0  0
  151.7620  138.2344  154.4176 H   0  0  0  0  0  0  0  0  0  0  0  0
  150.9185  137.5980  155.7972 H   0  0  0  0  0  0  0  0  0  0  0  0
  149.3532  142.5273  154.5208 H   0  0  0  0  0  0  0  0  0  0  0  0
  150.5772  141.3383  159.2072 H   0  0  0  0  0  0  0  0  0  0  0  0
  150.9896  143.5406  157.1457 H   0  0  0  0  0  0  0  0  0  0  0  0
  149.7307  143.5512  158.3799 H   0  0  0  0  0  0  0  0  0  0  0  0
  149.7431  142.3022  157.1498 H   0  0  0  0  0  0  0  0  0  0  0  0
  1  2  1  0  0  0  0
  1 22  1  0  0  0  0
  1 23  1  0  0  0  0
  1 24  1  0  0  0  0
  2 20  1  0  0  0  0
  2  3  1  0  0  0  0
  2 25  1  0  0  0  0
  3  4  1  0  0  0  0
  3 26  1  0  0  0  0
  3 27  1  0  0  0  0
  4  5  1  0  0  0  0
  4 28  1  0  0  0  0
  4 29  1  0  0  0  0
  5  6  1  0  0  0  0
  5 30  1  0  0  0  0
  5 31  1  0  0  0  0
  6  7  1  0  0  0  0
  6 20  1  0  0  0  0
  6 32  1  0  0  0  0
  7  8  1  0  0  0  0
  7 33  1  0  0  0  0
  8  9  2  0  0  0  0
  8 10  1  0  0  0  0
 10 11  1  0  0  0  0
 10 34  1  0  0  0  0
 10 35  1  0  0  0  0
 11 18  1  0  0  0  0
 11 12  1  0  0  0  0
 12 13  2  0  0  0  0
 13 14  1  0  0  0  0
 13 36  1  0  0  0  0
 14 15  1  0  0  0  0
 14 16  2  0  0  0  0
 16 17  1  0  0  0  0
 16 18  1  0  0  0  0
 18 19  2  0  0  0  0
 20 21  1  0  0  0  0
 20 37  1  0  0  0  0
 21 38  1  0  0  0  0
 21 39  1  0  0  0  0
 21 40  1  0  0  0  0
M  END
> <s_m_source_file>
AV-unprocessed.smi

> <i_m_source_file_index>
2976

> <i_lp_mmshare_version>
43012

> <i_f3d_flags>
0

> <s_epik_input>
W0NIM11bQ0BASF0xW0NIMl1bQ0gyXVtDSDJdW0NASF0oW0NASF0xW0NIM10pW05IXUMoPU8pW0NIMl1uMm5bY0hdYyhDbCljKENsKWMyPU8=

> <s_epik_cmdline>
J2VwaWtfcHl0aG9uJywgJy1waCcsICc3LjAnLCAnLXRuJywgJzgnLCAnLW1hJywgJzIwMCcsICctbWV0YWxfYmluZGluZycsICctaW1hZScsICc8aW5maWxlLm1hZT4nLCAnLW9tYWUnLCAnPG91dGZpbGUubWFlPic=

> <r_lp_tautomer_probability>
1

> <r_epik_Ionization_Penalty>
1.90777e-08

> <r_epik_Ionization_Penalty_Charging>
3.07942e-11

> <r_epik_Ionization_Penalty_Neutral>
1.90469e-08

> <r_epik_State_Penalty>
-0

> <r_epik_Charging_Adjusted_Penalty>
3.07942e-11

> <i_epik_Tot_Q>
0

> <i_epik_Tot_abs_Q>
0

> <r_epik_Metal_State_Penalty>
-0

> <b_epik_Metal_Only>
0

> <s_lp_Force_Field>
OPLS_2005

> <r_lp_Energy>
28.556

> <b_lp_Chiralities_Consistent>
1

> <s_lp_Variant>
AV-unprocessed.smi:2976-5

> <Gold.Version>
5.8.1

> <Gold.Id.Protein>
6NUR|6NUR_protein|mol2

> <Gold.PLP.Fitness>
46.2807

> <Gold.PLP.PLP>
-39.2650

> <Gold.PLP.part.hbond>
-1.7350

> <Gold.PLP.part.metal>
0.0000

> <Gold.PLP.part.buried>
-4.7373

> <Gold.PLP.part.nonpolar>
-33.2267

> <Gold.PLP.part.repulsive>
0.5924

> <Gold.PLP.ligand.clash>
0.0000

> <Gold.PLP.ligand.torsion>
0.8022

> <Gold.PLP.Chemscore.Hbond>
1.8720

> <Gold.PLP.Chemscore.CHOScore>
1.0000

> <Gold.PLP.Chemscore.Metal>
0.0000

> <Gold.Chemscore.Hbonds>
donor molecule, donor type, donor heavy atom, donor atom, acceptor molecule, acceptor atom, score
      P1  H  7989  7998       L1    12  0.88
      P1  H  7997  8010       L1     9  0.98
      L1  C    13    36       P1  8028  1.00

> <Gold.PLP.Chemscore.Internal.Correction>
0.0043

> <Gold.Rescore>
     Score         DG    S(hbond)    S(metal)    S(lipo)     H(rot)  DE(clash)    DE(int)     intcor
     14.62     -18.54       1.19        0.00     110.05       1.49       0.10       3.83       ----

> <Gold.Chemscore.Fitness>
14.6171

> <Gold.Chemscore.DG>
-18.5399

> <Gold.Chemscore.ZeroCoef>
-5.4800

> <Gold.Chemscore.Hbond>
1.1944

> <Gold.Chemscore.Metal>
0.0000

> <Gold.Chemscore.Lipo>
110.0548

> <Gold.Chemscore.Internal_Hbond>
0.0000

> <Gold.Chemscore.DEClash>
0.0952

> <Gold.Chemscore.DEInternal>
3.8276

> <Gold.Chemscore.Rot>
1.4866

> <Gold.Chemscore.Internal.Correction>
   9.000000E+99

> <Gold.Chemscore.Hbonds>
donor molecule, donor type, donor heavy atom, donor atom, acceptor molecule, acceptor atom, score
      P1  H  7989  7998       L1    12  0.21
      P1  H  7997  8010       L1     9  0.81

> <Gold.Chemscore.Hbond.Weighted>
-3.9892

> <Gold.Chemscore.Metal.Weighted>
-0.0000

> <Gold.Chemscore.Lipo.Weighted>
-12.8764

> <Gold.Chemscore.Internal_Hbond.Weighted>
0.0000

> <Gold.Chemscore.DEClash.Weighted>
0.0952

> <Gold.Chemscore.DEInternal.Weighted>
3.8276

> <Gold.Chemscore.Rot.Weighted>
3.8057

> <Gold.Chemscore.Internal.Correction.Weighted>
   9.000000E+99

> <Gold.Protein.RotatedTorsions>
[ 6907 6896 6895 6894 ] final   -4.05 input  -60.11 | X-H torsion
[ 7974 7965 7964 7962 ] final -148.15 input  175.53 | X-H torsion
[ 8008 7997 7996 7995 ] final   84.85 input   59.86 | X-H torsion
[ 10167 10162 10161 10158 ] final   53.24 input  -65.29 | X-H torsion
[ 10718 10713 10712 10709 ] final  128.28 input   66.30 | X-H torsion
[ 10763 10752 10751 10750 ] final  174.05 input  -60.55 | X-H torsion
[ 11005 11000 10999 10996 ] final -102.02 input  -57.11 | X-H torsion

> <Gold.Protein.ActiveResidues>
 VAL166  LYS551  ARG553  GLY616  TRP617  ASP618  TYR619  PRO620  LYS621  CYS622 
 ASP623  PHE694  ASN695  SER759  ASP760  ASP761  ALA762  ILE779  LEU786  VAL792 
 PHE793  MET794  SER795  GLU796  ALA797  LYS798  CYS799  TRP800  GLU811  SER814 

> <Gold.Protein.RotatedAtoms>
  151.5039  135.1063  159.9835 H   0  0  0  0  0  0  0  0  0  0  0  0  # atno 6907 bound_to 6896
  152.4690  133.7983  159.6950 H   0  0  0  0  0  0  0  0  0  0  0  0  # atno 6908 bound_to 6896
  150.8689  133.7471  159.2993 H   0  0  0  0  0  0  0  0  0  0  0  0  # atno 6909 bound_to 6896
  144.8048  140.5234  143.5683 H   0  0  0  0  0  0  0  0  0  0  0  0  # atno 7974 bound_to 7965
  155.9423  140.3407  155.6338 H   0  0  0  0  0  0  0  0  0  0  0  0  # atno 8008 bound_to 7997
  155.7023  140.0762  157.2423 H   0  0  0  0  0  0  0  0  0  0  0  0  # atno 8009 bound_to 7997
  154.4105  140.1637  156.2192 H   0  0  0  0  0  0  0  0  0  0  0  0  # atno 8010 bound_to 7997
  140.2428  144.3564  150.6374 H   0  0  0  0  0  0  0  0  0  0  0  0  # atno 10167 bound_to 10162
  157.5258  131.1098  150.9084 H   0  0  0  0  0  0  0  0  0  0  0  0  # atno 10718 bound_to 10713
  154.4486  135.2764  155.1797 H   0  0  0  0  0  0  0  0  0  0  0  0  # atno 10763 bound_to 10752
  154.3633  135.6124  153.5705 H   0  0  0  0  0  0  0  0  0  0  0  0  # atno 10764 bound_to 10752
  152.9845  135.5840  154.4827 H   0  0  0  0  0  0  0  0  0  0  0  0  # atno 10765 bound_to 10752
  141.1207  133.8524  157.1306 H   0  0  0  0  0  0  0  0  0  0  0  0  # atno 11005 bound_to 11000
  145.5465  139.1476  143.3418 LP  0  0  0  0  0  0  0  0  0  0  0  0  # atno 17320 bound_to 7965
  146.2337  140.5604  142.8964 LP  0  0  0  0  0  0  0  0  0  0  0  0  # atno 17321 bound_to 7965
  140.6100  143.2169  151.6904 LP  0  0  0  0  0  0  0  0  0  0  0  0  # atno 17342 bound_to 10162
  139.5071  144.3656  152.0520 LP  0  0  0  0  0  0  0  0  0  0  0  0  # atno 17343 bound_to 10162
  156.9680  130.5480  149.5289 LP  0  0  0  0  0  0  0  0  0  0  0  0  # atno 17370 bound_to 10713
  156.0386  130.5471  150.8716 LP  0  0  0  0  0  0  0  0  0  0  0  0  # atno 17371 bound_to 10713
  140.0162  134.9966  157.0498 LP  0  0  0  0  0  0  0  0  0  0  0  0  # atno 17394 bound_to 11000
  140.4516  134.1576  155.7182 LP  0  0  0  0  0  0  0  0  0  0  0  0  # atno 17395 bound_to 11000

$$$$
