AV-unprocessed.smi:283|AV-procd|sdf|2137|dock6
  -GOLD-   2262021463D 1   1.00000     0.00000
 Structure written by MMmdl.
 48 51  0  0  0  0  0  0  0  0  1 V2000
  153.1040  139.4786  158.6655 C   0  0  0  0  0  0  0  0  0  0  0  0
  151.7556  140.2095  158.7095 C   0  0  2  0  0  0  0  0  0  0  0  0
  150.8519  139.6486  157.7064 N   0  0  0  0  0  0  0  0  0  0  0  0
  150.1605  138.5131  157.9522 C   0  0  0  0  0  0  0  0  0  0  0  0
  150.0145  138.0381  159.2170 N   0  0  0  0  0  0  0  0  0  0  0  0
  149.3281  136.9125  159.4335 C   0  0  0  0  0  0  0  0  0  0  0  0
  148.7198  136.1223  158.5457 N   0  0  0  0  0  0  0  0  0  0  0  0
  148.8659  136.5943  157.2734 C   0  0  0  0  0  0  0  0  0  0  0  0
  149.5698  137.7714  156.8969 C   0  0  0  0  0  0  0  0  0  0  0  0
  149.5144  137.9308  155.5194 N   0  0  0  0  0  0  0  0  0  0  0  0
  148.8220  136.9017  155.1105 C   0  0  0  0  0  0  0  0  0  0  0  0
  148.3766  136.0516  156.1041 N   0  0  0  0  0  0  0  0  0  0  0  0
  147.5912  134.7738  156.0064 C   0  0  2  0  0  0  0  0  0  0  0  0
  148.3931  133.8250  155.3812 O   0  0  0  0  0  0  0  0  0  0  0  0
  148.2276  133.9229  153.9738 C   0  0  1  0  0  0  0  0  0  0  0  0
  148.6466  132.6040  153.3066 C   0  0  0  0  0  0  0  0  0  0  0  0
  148.2096  132.5776  151.9647 O   0  0  0  0  0  0  0  0  0  0  0  0
  146.7294  134.2348  153.8226 C   0  0  2  0  0  0  0  0  0  0  0  0
  146.5257  135.0924  152.7166 O   0  0  0  0  0  0  0  0  0  0  0  0
  146.3386  134.9340  155.1294 C   0  0  1  0  0  0  0  0  0  0  0  0
  145.2213  134.3011  155.7192 O   0  0  0  0  0  0  0  0  0  0  0  0
  151.9621  141.7218  158.5953 C   0  0  0  0  0  0  0  0  0  0  0  0
  152.7437  142.3978  159.5611 C   0  0  0  0  0  0  0  0  0  0  0  0
  152.9468  143.7878  159.4758 C   0  0  0  0  0  0  0  0  0  0  0  0
  152.3643  144.5195  158.4254 C   0  0  0  0  0  0  0  0  0  0  0  0
  151.5758  143.8595  157.4650 C   0  0  0  0  0  0  0  0  0  0  0  0
  151.3689  142.4676  157.5456 C   0  0  0  0  0  0  0  0  0  0  0  0
  150.3806  141.7126  156.3444 Cl  0  0  0  0  0  0  0  0  0  0  0  0
  147.3747  134.5010  157.0399 H   0  0  0  0  0  0  0  0  0  0  0  0
  148.8283  134.7528  153.5972 H   0  0  0  0  0  0  0  0  0  0  0  0
  146.1581  133.3148  153.6869 H   0  0  0  0  0  0  0  0  0  0  0  0
  146.0936  135.9887  154.9983 H   0  0  0  0  0  0  0  0  0  0  0  0
  153.7635  139.8264  159.4612 H   0  0  0  0  0  0  0  0  0  0  0  0
  153.6143  139.6412  157.7155 H   0  0  0  0  0  0  0  0  0  0  0  0
  152.9728  138.4039  158.7946 H   0  0  0  0  0  0  0  0  0  0  0  0
  151.3035  139.9874  159.6754 H   0  0  0  0  0  0  0  0  0  0  0  0
  150.6621  140.2401  156.9102 H   0  0  0  0  0  0  0  0  0  0  0  0
  149.2558  136.6007  160.4650 H   0  0  0  0  0  0  0  0  0  0  0  0
  148.6216  136.7425  154.0618 H   0  0  0  0  0  0  0  0  0  0  0  0
  149.7257  132.4573  153.3585 H   0  0  0  0  0  0  0  0  0  0  0  0
  148.1801  131.7615  153.8179 H   0  0  0  0  0  0  0  0  0  0  0  0
  148.6468  131.8681  151.5193 H   0  0  0  0  0  0  0  0  0  0  0  0
  147.3560  135.2402  152.2912 H   0  0  0  0  0  0  0  0  0  0  0  0
  145.0980  133.4611  155.3041 H   0  0  0  0  0  0  0  0  0  0  0  0
  153.1946  141.8510  160.3763 H   0  0  0  0  0  0  0  0  0  0  0  0
  153.5483  144.2925  160.2174 H   0  0  0  0  0  0  0  0  0  0  0  0
  152.5188  145.5863  158.3582 H   0  0  0  0  0  0  0  0  0  0  0  0
  151.1259  144.4254  156.6626 H   0  0  0  0  0  0  0  0  0  0  0  0
  1  2  1  0  0  0  0
  1 33  1  0  0  0  0
  1 34  1  0  0  0  0
  1 35  1  0  0  0  0
  2  3  1  0  0  0  0
  2 22  1  0  0  0  0
  2 36  1  0  0  0  0
  3  4  1  0  0  0  0
  3 37  1  0  0  0  0
  4  9  1  0  0  0  0
  4  5  2  0  0  0  0
  5  6  1  0  0  0  0
  6  7  2  0  0  0  0
  6 38  1  0  0  0  0
  7  8  1  0  0  0  0
  8 12  1  0  0  0  0
  8  9  2  0  0  0  0
  9 10  1  0  0  0  0
 10 11  2  0  0  0  0
 11 12  1  0  0  0  0
 11 39  1  0  0  0  0
 12 13  1  0  0  0  0
 13 29  1  0  0  0  0
 13 20  1  0  0  0  0
 13 14  1  0  0  0  0
 14 15  1  0  0  0  0
 15 30  1  0  0  0  0
 15 16  1  0  0  0  0
 15 18  1  0  0  0  0
 16 17  1  0  0  0  0
 16 40  1  0  0  0  0
 16 41  1  0  0  0  0
 17 42  1  0  0  0  0
 18 31  1  0  0  0  0
 18 19  1  0  0  0  0
 18 20  1  0  0  0  0
 19 43  1  0  0  0  0
 20 32  1  0  0  0  0
 20 21  1  0  0  0  0
 21 44  1  0  0  0  0
 22 27  1  0  0  0  0
 22 23  2  0  0  0  0
 23 24  1  0  0  0  0
 23 45  1  0  0  0  0
 24 25  2  0  0  0  0
 24 46  1  0  0  0  0
 25 26  1  0  0  0  0
 25 47  1  0  0  0  0
 26 27  2  0  0  0  0
 26 48  1  0  0  0  0
 27 28  1  0  0  0  0
M  END
> <s_m_source_file>
AV-unprocessed.smi

> <i_m_source_file_index>
283

> <i_lp_mmshare_version>
43012

> <i_f3d_flags>
0

> <s_epik_input>
Q2xjMVtjSF1bY0hdW2NIXVtjSF1jMVtDQEhdKFtDSDNdKVtOSF1jKG5bY0hdbjIpYyhjMjMpbltjSF1uM1tDQEBIXTRPW0NASF0oW0NIMl1bT0hdKVtDQEBIXShbT0hdKVtDQEhdNFtPSF0=

> <s_epik_cmdline>
J2VwaWtfcHl0aG9uJywgJy1waCcsICc3LjAnLCAnLXRuJywgJzgnLCAnLW1hJywgJzIwMCcsICctbWV0YWxfYmluZGluZycsICctaW1hZScsICc8aW5maWxlLm1hZT4nLCAnLW9tYWUnLCAnPG91dGZpbGUubWFlPic=

> <r_lp_tautomer_probability>
1

> <r_epik_Ionization_Penalty>
0.000266407

> <r_epik_Ionization_Penalty_Charging>
0

> <r_epik_Ionization_Penalty_Neutral>
0.000266407

> <r_epik_State_Penalty>
-0

> <r_epik_Charging_Adjusted_Penalty>
0

> <i_epik_Tot_Q>
0

> <i_epik_Tot_abs_Q>
0

> <r_epik_Metal_State_Penalty>
-0

> <b_epik_Metal_Only>
0

> <s_epik_Chemistry_Notes>
This compound contains an acetal/aminal-like group ( X-CH(R)-Y where X, Y are N, S, or O) that may be acid/base labile, releasing an aldehyde.

> <s_lp_Force_Field>
OPLS_2005

> <r_lp_Energy>
39.6204

> <b_lp_Chiralities_Consistent>
1

> <s_lp_Variant>
AV-unprocessed.smi:283-13

> <Gold.Version>
5.8.1

> <Gold.Id.Protein>
6NUR|6NUR_protein|mol2

> <Gold.PLP.Fitness>
48.1207

> <Gold.PLP.PLP>
-40.3346

> <Gold.PLP.part.hbond>
-2.8337

> <Gold.PLP.part.metal>
0.0000

> <Gold.PLP.part.buried>
-5.2393

> <Gold.PLP.part.nonpolar>
-32.4438

> <Gold.PLP.part.repulsive>
0.1619

> <Gold.PLP.ligand.clash>
0.0000

> <Gold.PLP.ligand.torsion>
0.6533

> <Gold.PLP.Chemscore.Hbond>
2.0000

> <Gold.PLP.Chemscore.CHOScore>
1.0000

> <Gold.PLP.Chemscore.Metal>
0.0000

> <Gold.Chemscore.Hbonds>
donor molecule, donor type, donor heavy atom, donor atom, acceptor molecule, acceptor atom, score
      L1  H    17    42       P1 10747  1.00
      L1  H    19    43       P1  7948  1.00
      L1  C    11    39       P1  7948  1.00

> <Gold.PLP.Chemscore.Internal.Correction>
0.0927

> <Gold.Rescore>
     Score         DG    S(hbond)    S(metal)    S(lipo)     H(rot)  DE(clash)    DE(int)     intcor
     11.80     -14.22       1.99        0.00     107.59       4.10       0.09       2.33       ----

> <Gold.Chemscore.Fitness>
11.7966

> <Gold.Chemscore.DG>
-14.2214

> <Gold.Chemscore.ZeroCoef>
-5.4800

> <Gold.Chemscore.Hbond>
1.9884

> <Gold.Chemscore.Metal>
0.0000

> <Gold.Chemscore.Lipo>
107.5891

> <Gold.Chemscore.Internal_Hbond>
0.0000

> <Gold.Chemscore.DEClash>
0.0914

> <Gold.Chemscore.DEInternal>
2.3333

> <Gold.Chemscore.Rot>
4.0968

> <Gold.Chemscore.Internal.Correction>
   9.000000E+99

> <Gold.Chemscore.Hbonds>
donor molecule, donor type, donor heavy atom, donor atom, acceptor molecule, acceptor atom, score
      L1  H    17    42       P1 10747  0.98
      L1  H    19    43       P1  7948  0.99

> <Gold.Chemscore.Hbond.Weighted>
-6.6414

> <Gold.Chemscore.Metal.Weighted>
-0.0000

> <Gold.Chemscore.Lipo.Weighted>
-12.5879

> <Gold.Chemscore.Internal_Hbond.Weighted>
0.0000

> <Gold.Chemscore.DEClash.Weighted>
0.0914

> <Gold.Chemscore.DEInternal.Weighted>
2.3333

> <Gold.Chemscore.Rot.Weighted>
10.4879

> <Gold.Chemscore.Internal.Correction.Weighted>
   9.000000E+99

> <Gold.Protein.RotatedTorsions>
[ 6907 6896 6895 6894 ] final -151.12 input  -60.11 | X-H torsion
[ 7974 7965 7964 7962 ] final  118.59 input  175.53 | X-H torsion
[ 8008 7997 7996 7995 ] final  157.38 input   59.86 | X-H torsion
[ 10167 10162 10161 10158 ] final   82.45 input  -65.29 | X-H torsion
[ 10718 10713 10712 10709 ] final  -20.88 input   66.30 | X-H torsion
[ 10763 10752 10751 10750 ] final  -38.17 input  -60.55 | X-H torsion
[ 11005 11000 10999 10996 ] final  148.69 input  -57.11 | X-H torsion

> <Gold.Protein.ActiveResidues>
 VAL166  LYS551  ARG553  GLY616  TRP617  ASP618  TYR619  PRO620  LYS621  CYS622 
 ASP623  PHE694  ASN695  SER759  ASP760  ASP761  ALA762  ILE779  LEU786  VAL792 
 PHE793  MET794  SER795  GLU796  ALA797  LYS798  CYS799  TRP800  GLU811  SER814 

> <Gold.Protein.RotatedAtoms>
  151.2084  133.4570  159.2597 H   0  0  0  0  0  0  0  0  0  0  0  0  # atno 6907 bound_to 6896
  151.1000  134.9967  159.8454 H   0  0  0  0  0  0  0  0  0  0  0  0  # atno 6908 bound_to 6896
  152.5442  134.2012  159.8765 H   0  0  0  0  0  0  0  0  0  0  0  0  # atno 6909 bound_to 6896
  145.1534  139.3197  143.4555 H   0  0  0  0  0  0  0  0  0  0  0  0  # atno 7974 bound_to 7965
  156.2367  140.1887  156.7099 H   0  0  0  0  0  0  0  0  0  0  0  0  # atno 8008 bound_to 7997
  154.6120  140.0620  156.9533 H   0  0  0  0  0  0  0  0  0  0  0  0  # atno 8009 bound_to 7997
  155.2000  140.3291  155.4347 H   0  0  0  0  0  0  0  0  0  0  0  0  # atno 8010 bound_to 7997
  139.9287  144.6166  150.8367 H   0  0  0  0  0  0  0  0  0  0  0  0  # atno 10167 bound_to 10162
  156.5257  130.4643  149.6573 H   0  0  0  0  0  0  0  0  0  0  0  0  # atno 10718 bound_to 10713
  153.9084  135.6795  153.4752 H   0  0  0  0  0  0  0  0  0  0  0  0  # atno 10763 bound_to 10752
  153.1091  135.4791  154.9002 H   0  0  0  0  0  0  0  0  0  0  0  0  # atno 10764 bound_to 10752
  154.7539  135.3192  154.8461 H   0  0  0  0  0  0  0  0  0  0  0  0  # atno 10765 bound_to 10752
  140.0981  134.9000  157.1754 H   0  0  0  0  0  0  0  0  0  0  0  0  # atno 11005 bound_to 11000
  146.3492  140.1617  142.8590 LP  0  0  0  0  0  0  0  0  0  0  0  0  # atno 17320 bound_to 7965
  145.0407  140.8943  143.5054 LP  0  0  0  0  0  0  0  0  0  0  0  0  # atno 17321 bound_to 7965
  140.7643  143.3246  151.2546 LP  0  0  0  0  0  0  0  0  0  0  0  0  # atno 17342 bound_to 10162
  139.6801  143.9870  152.2803 LP  0  0  0  0  0  0  0  0  0  0  0  0  # atno 17343 bound_to 10162
  156.3107  130.7227  151.2119 LP  0  0  0  0  0  0  0  0  0  0  0  0  # atno 17370 bound_to 10713
  157.7430  131.0482  150.4983 LP  0  0  0  0  0  0  0  0  0  0  0  0  # atno 17371 bound_to 10713
  140.3258  134.2865  155.7237 LP  0  0  0  0  0  0  0  0  0  0  0  0  # atno 17394 bound_to 11000
  141.2098  133.7739  156.9974 LP  0  0  0  0  0  0  0  0  0  0  0  0  # atno 17395 bound_to 11000

$$$$
