AV-unprocessed.smi:1588|AV-procd|sdf|6390|dock3
  -GOLD-   22720 7 23D 1   1.00000     0.00000
 Structure written by MMmdl.
 37 38  0  0  0  0  0  0  0  0  2 V2000
  144.6314  132.5452  151.7831 C   0  0  0  0  0  0  0  0  0  0  0  0
  145.8029  132.2207  150.8462 C   0  0  0  0  0  0  0  0  0  0  0  0
  147.0260  131.8484  151.5949 N   0  3  2  0  0  0  0  0  0  0  0  0
  146.8224  130.7718  152.5880 C   0  0  0  0  0  0  0  0  0  0  0  0
  147.8618  131.0244  153.6764 C   0  0  0  0  0  0  0  0  0  0  0  0
  147.8992  132.5480  153.7497 C   0  0  1  0  0  0  0  0  0  0  0  0
  149.1577  133.1098  154.4387 C   0  0  0  0  0  0  0  0  0  0  0  0
  149.3950  134.5081  154.0918 N   0  0  0  0  0  0  0  0  0  0  0  0
  150.2695  135.3247  154.6968 C   0  0  0  0  0  0  0  0  0  0  0  0
  150.9948  134.9758  155.6285 O   0  0  0  0  0  0  0  0  0  0  0  0
  150.2495  136.5517  154.1515 N   0  0  0  0  0  0  0  0  0  0  0  0
  151.0419  137.6692  154.5175 C   0  0  0  0  0  0  0  0  0  0  0  0
  150.7588  139.0146  154.1566 C   0  0  0  0  0  0  0  0  0  0  0  0
  151.6716  139.8465  154.6377 N   0  0  0  0  0  0  0  0  0  0  0  0
  152.5343  139.0451  155.3025 N   0  0  0  0  0  0  0  0  0  0  0  0
  152.1911  137.7119  155.2563 C   0  0  0  0  0  0  0  0  0  0  0  0
  147.7105  132.9701  152.2832 C   0  0  0  0  0  0  0  0  0  0  0  0
  153.3437  139.4189  155.7778 H   0  0  0  0  0  0  0  0  0  0  0  0
  143.7562  132.8563  151.2121 H   0  0  0  0  0  0  0  0  0  0  0  0
  144.8865  133.3568  152.4650 H   0  0  0  0  0  0  0  0  0  0  0  0
  144.3414  131.6823  152.3826 H   0  0  0  0  0  0  0  0  0  0  0  0
  145.5317  131.4221  150.1538 H   0  0  0  0  0  0  0  0  0  0  0  0
  146.0176  133.1022  150.2404 H   0  0  0  0  0  0  0  0  0  0  0  0
  145.8221  130.8485  153.0182 H   0  0  0  0  0  0  0  0  0  0  0  0
  146.9187  129.7846  152.1355 H   0  0  0  0  0  0  0  0  0  0  0  0
  147.5985  130.5601  154.6274 H   0  0  0  0  0  0  0  0  0  0  0  0
  148.8316  130.6330  153.3649 H   0  0  0  0  0  0  0  0  0  0  0  0
  147.0194  132.8703  154.3099 H   0  0  0  0  0  0  0  0  0  0  0  0
  149.0314  133.0592  155.5205 H   0  0  0  0  0  0  0  0  0  0  0  0
  150.0314  132.4981  154.2064 H   0  0  0  0  0  0  0  0  0  0  0  0
  148.8402  134.8868  153.3380 H   0  0  0  0  0  0  0  0  0  0  0  0
  149.6005  136.7039  153.3933 H   0  0  0  0  0  0  0  0  0  0  0  0
  149.9386  139.4071  153.5734 H   0  0  0  0  0  0  0  0  0  0  0  0
  152.7801  136.9464  155.7397 H   0  0  0  0  0  0  0  0  0  0  0  0
  148.6722  133.1141  151.7906 H   0  0  0  0  0  0  0  0  0  0  0  0
  147.1616  133.9104  152.2152 H   0  0  0  0  0  0  0  0  0  0  0  0
  147.6867  131.4868  150.9216 H   0  0  0  0  0  0  0  0  0  0  0  0
  1  2  1  0  0  0  0
  1 19  1  0  0  0  0
  1 20  1  0  0  0  0
  1 21  1  0  0  0  0
  2  3  1  0  0  0  0
  2 22  1  0  0  0  0
  2 23  1  0  0  0  0
  3 17  1  0  0  0  0
  3  4  1  0  0  0  0
  3 37  1  0  0  0  0
  4  5  1  0  0  0  0
  4 24  1  0  0  0  0
  4 25  1  0  0  0  0
  5  6  1  0  0  0  0
  5 26  1  0  0  0  0
  5 27  1  0  0  0  0
  6  7  1  0  0  0  0
  6 17  1  0  0  0  0
  6 28  1  0  0  0  0
  7  8  1  0  0  0  0
  7 29  1  0  0  0  0
  7 30  1  0  0  0  0
  8  9  1  0  0  0  0
  8 31  1  0  0  0  0
  9 10  2  0  0  0  0
  9 11  1  0  0  0  0
 11 12  1  0  0  0  0
 11 32  1  0  0  0  0
 12 16  2  0  0  0  0
 12 13  1  0  0  0  0
 13 14  2  0  0  0  0
 13 33  1  0  0  0  0
 14 15  1  0  0  0  0
 15 18  1  0  0  0  0
 15 16  1  0  0  0  0
 16 34  1  0  0  0  0
 17 35  1  0  0  0  0
 17 36  1  0  0  0  0
M  CHG  1   3   1
M  END
> <s_m_source_file>
AV-unprocessed.smi

> <i_m_source_file_index>
1588

> <i_lp_mmshare_version>
43012

> <i_f3d_flags>
0

> <s_epik_input>
W0NIM11bQ0gyXU4xW0NIMl1bQ0gyXVtDQEhdKFtDSDJdMSlbQ0gyXVtOSF1DKD1PKVtOSF1jMltjSF1uW25IXVtjSF0y

> <s_epik_cmdline>
J2VwaWtfcHl0aG9uJywgJy1waCcsICc3LjAnLCAnLXRuJywgJzgnLCAnLW1hJywgJzIwMCcsICctbWV0YWxfYmluZGluZycsICctaW1hZScsICc8aW5maWxlLm1hZT4nLCAnLW9tYWUnLCAnPG91dGZpbGUubWFlPic=

> <r_lp_tautomer_probability>
0.5

> <r_epik_Ionization_Penalty>
0.000628417

> <r_epik_Ionization_Penalty_Charging>
0.000582718

> <r_epik_Ionization_Penalty_Neutral>
4.56984e-05

> <r_epik_State_Penalty>
0.000366292

> <r_epik_Charging_Adjusted_Penalty>
0.00094901

> <i_epik_Tot_Q>
1

> <i_epik_Tot_abs_Q>
1

> <r_epik_Metal_State_Penalty>
-0

> <b_epik_Metal_Only>
0

> <s_lp_Force_Field>
OPLS_2005

> <r_lp_Energy>
30.8561

> <b_lp_Chiralities_Consistent>
1

> <s_lp_Variant>
AV-unprocessed.smi:1588-2

> <Gold.Version>
5.8.1

> <Gold.Id.Protein>
6NUR|6NUR_protein|mol2

> <Gold.PLP.Fitness>
44.4032

> <Gold.PLP.PLP>
-29.7229

> <Gold.PLP.part.hbond>
-5.5543

> <Gold.PLP.part.metal>
0.0000

> <Gold.PLP.part.buried>
0.4612

> <Gold.PLP.part.nonpolar>
-22.9318

> <Gold.PLP.part.repulsive>
0.4498

> <Gold.PLP.ligand.clash>
0.0000

> <Gold.PLP.ligand.torsion>
0.3547

> <Gold.PLP.Chemscore.Hbond>
4.1313

> <Gold.PLP.Chemscore.CHOScore>
0.9917

> <Gold.PLP.Chemscore.Metal>
0.0000

> <Gold.Chemscore.Hbonds>
donor molecule, donor type, donor heavy atom, donor atom, acceptor molecule, acceptor atom, score
      L1  H     3    37       P1 10747  1.00
      L1  H     8    31       P1  7948  0.80
      L1  H    11    32       P1  7948  0.98
      P1  H  7989  7998       L1    14  0.88
      P1  H 10752 10763       L1    10  0.50
      L1  C    13    33       P1  7957  1.00

> <Gold.PLP.Chemscore.Internal.Correction>
0.0206

> <Gold.Rescore>
     Score         DG    S(hbond)    S(metal)    S(lipo)     H(rot)  DE(clash)    DE(int)     intcor
     18.74     -19.22       3.01        0.00      65.86       1.58       0.08       0.40       ----

> <Gold.Chemscore.Fitness>
18.7404

> <Gold.Chemscore.DG>
-19.2215

> <Gold.Chemscore.ZeroCoef>
-5.4800

> <Gold.Chemscore.Hbond>
3.0147

> <Gold.Chemscore.Metal>
0.0000

> <Gold.Chemscore.Lipo>
65.8555

> <Gold.Chemscore.Internal_Hbond>
0.0000

> <Gold.Chemscore.DEClash>
0.0832

> <Gold.Chemscore.DEInternal>
0.3979

> <Gold.Chemscore.Rot>
1.5753

> <Gold.Chemscore.Internal.Correction>
   9.000000E+99

> <Gold.Chemscore.Hbonds>
donor molecule, donor type, donor heavy atom, donor atom, acceptor molecule, acceptor atom, score
      L1  H     3    37       P1 10747  0.97
      L1  H     8    31       P1  7948  0.27
      L1  H    11    32       P1  7948  0.61
      P1  H  7989  7998       L1    14  0.16
      P1  H 10752 10763       L1    10  0.15

> <Gold.Chemscore.Hbond.Weighted>
-10.0692

> <Gold.Chemscore.Metal.Weighted>
-0.0000

> <Gold.Chemscore.Lipo.Weighted>
-7.7051

> <Gold.Chemscore.Internal_Hbond.Weighted>
0.0000

> <Gold.Chemscore.DEClash.Weighted>
0.0832

> <Gold.Chemscore.DEInternal.Weighted>
0.3979

> <Gold.Chemscore.Rot.Weighted>
4.0328

> <Gold.Chemscore.Internal.Correction.Weighted>
   9.000000E+99

> <Gold.Protein.RotatedTorsions>
[ 6907 6896 6895 6894 ] final -121.73 input  -60.11 | X-H torsion
[ 7974 7965 7964 7962 ] final   -7.48 input  175.53 | X-H torsion
[ 8008 7997 7996 7995 ] final  132.88 input   59.86 | X-H torsion
[ 10167 10162 10161 10158 ] final  -93.33 input  -65.29 | X-H torsion
[ 10718 10713 10712 10709 ] final  146.77 input   66.30 | X-H torsion
[ 10763 10752 10751 10750 ] final   73.02 input  -60.55 | X-H torsion
[ 11005 11000 10999 10996 ] final -144.56 input  -57.11 | X-H torsion

> <Gold.Protein.ActiveResidues>
 VAL166  LYS551  ARG553  GLY616  TRP617  ASP618  TYR619  PRO620  LYS621  CYS622 
 ASP623  PHE694  ASN695  SER759  ASP760  ASP761  ALA762  ILE779  LEU786  VAL792 
 PHE793  MET794  SER795  GLU796  ALA797  LYS798  CYS799  TRP800  GLU811  SER814 

> <Gold.Protein.RotatedAtoms>
  150.8511  133.7786  159.3025 H   0  0  0  0  0  0  0  0  0  0  0  0  # atno 6907 bound_to 6896
  151.5458  135.1066  159.9947 H   0  0  0  0  0  0  0  0  0  0  0  0  # atno 6908 bound_to 6896
  152.4553  133.7667  159.6832 H   0  0  0  0  0  0  0  0  0  0  0  0  # atno 6909 bound_to 6896
  146.2306  140.2326  142.8340 H   0  0  0  0  0  0  0  0  0  0  0  0  # atno 7974 bound_to 7965
  156.2987  140.2535  156.3162 H   0  0  0  0  0  0  0  0  0  0  0  0  # atno 8008 bound_to 7997
  154.9279  140.0399  157.2051 H   0  0  0  0  0  0  0  0  0  0  0  0  # atno 8009 bound_to 7997
  154.8247  140.2866  155.5767 H   0  0  0  0  0  0  0  0  0  0  0  0  # atno 8010 bound_to 7997
  140.3257  143.3023  151.9997 H   0  0  0  0  0  0  0  0  0  0  0  0  # atno 10167 bound_to 10162
  157.3291  131.0917  151.1177 H   0  0  0  0  0  0  0  0  0  0  0  0  # atno 10718 bound_to 10713
  153.0495  135.5078  154.7831 H   0  0  0  0  0  0  0  0  0  0  0  0  # atno 10763 bound_to 10752
  154.6704  135.2952  154.9751 H   0  0  0  0  0  0  0  0  0  0  0  0  # atno 10764 bound_to 10752
  154.0571  135.6696  153.4860 H   0  0  0  0  0  0  0  0  0  0  0  0  # atno 10765 bound_to 10752
  140.8012  134.2855  157.4978 H   0  0  0  0  0  0  0  0  0  0  0  0  # atno 11005 bound_to 11000
  144.9546  140.8214  143.5551 LP  0  0  0  0  0  0  0  0  0  0  0  0  # atno 17320 bound_to 7965
  145.2290  139.2124  143.5053 LP  0  0  0  0  0  0  0  0  0  0  0  0  # atno 17321 bound_to 7965
  139.4866  144.6275  151.7135 LP  0  0  0  0  0  0  0  0  0  0  0  0  # atno 17342 bound_to 10162
  140.5443  144.0529  150.6101 LP  0  0  0  0  0  0  0  0  0  0  0  0  # atno 17343 bound_to 10162
  157.2433  130.6579  149.5899 LP  0  0  0  0  0  0  0  0  0  0  0  0  # atno 17370 bound_to 10713
  155.9694  130.4561  150.5914 LP  0  0  0  0  0  0  0  0  0  0  0  0  # atno 17371 bound_to 10713
  139.8721  134.9430  156.3841 LP  0  0  0  0  0  0  0  0  0  0  0  0  # atno 17394 bound_to 11000
  140.9293  133.7590  156.0004 LP  0  0  0  0  0  0  0  0  0  0  0  0  # atno 17395 bound_to 11000

$$$$
