AV-unprocessed.smi:997|AV-procd|sdf|4348|dock7
  -GOLD-   22720 2243D 1   1.00000     0.00000
 Structure written by MMmdl.
 33 35  0  0  0  0  0  0  0  0  2 V2000
  151.5047  137.5540  154.0805 C   0  0  0  0  0  0  0  0  0  0  0  0
  151.1050  138.8618  154.6949 C   0  0  0  0  0  0  0  0  0  0  0  0
  150.1961  139.5976  154.0963 N   0  0  0  0  0  0  0  0  0  0  0  0
  150.0003  140.6885  154.8750 N   0  0  0  0  0  0  0  0  0  0  0  0
  149.0367  141.6878  154.4510 C   0  0  0  0  0  0  0  0  0  0  0  0
  147.6390  141.0791  154.2775 C   0  0  0  0  0  0  0  0  0  0  0  0
  147.5871  140.3309  153.0821 O   0  0  0  0  0  0  0  0  0  0  0  0
  150.7944  140.6850  156.0069 C   0  0  0  0  0  0  0  0  0  0  0  0
  150.8283  141.6298  156.9892 N   0  0  0  0  0  0  0  0  0  0  0  0
  151.6894  141.3682  157.9936 C   0  0  0  0  0  0  0  0  0  0  0  0
  151.7273  142.4045  159.0737 C   0  0  0  0  0  0  0  0  0  0  0  0
  152.7693  143.5013  159.0748 C   0  0  0  0  0  0  0  0  0  0  0  0
  152.8289  142.4052  160.1092 C   0  0  0  0  0  0  0  0  0  0  0  0
  152.5198  140.2298  158.0373 C   0  0  0  0  0  0  0  0  0  0  0  0
  152.4765  139.2748  156.9929 C   0  0  0  0  0  0  0  0  0  0  0  0
  153.3996  138.0867  157.0602 C   0  0  0  0  0  0  0  0  0  0  0  0
  153.0936  137.0297  156.4702 O   0  0  0  0  0  0  0  0  0  0  0  0
  154.4755  138.2025  157.6889 O   0  5  0  0  0  0  0  0  0  0  0  0
  151.5616  139.4885  155.9181 C   0  0  0  0  0  0  0  0  0  0  0  0
  151.4668  136.7458  154.8109 H   0  0  0  0  0  0  0  0  0  0  0  0
  152.5149  137.6010  153.6742 H   0  0  0  0  0  0  0  0  0  0  0  0
  150.8420  137.2731  153.2612 H   0  0  0  0  0  0  0  0  0  0  0  0
  149.0142  142.4953  155.1846 H   0  0  0  0  0  0  0  0  0  0  0  0
  149.3815  142.1251  153.5132 H   0  0  0  0  0  0  0  0  0  0  0  0
  147.3975  140.4252  155.1162 H   0  0  0  0  0  0  0  0  0  0  0  0
  146.8797  141.8608  154.2421 H   0  0  0  0  0  0  0  0  0  0  0  0
  148.4391  140.3575  152.6742 H   0  0  0  0  0  0  0  0  0  0  0  0
  150.7224  142.6626  159.4026 H   0  0  0  0  0  0  0  0  0  0  0  0
  153.5301  143.4907  158.2965 H   0  0  0  0  0  0  0  0  0  0  0  0
  152.4678  144.4874  159.4214 H   0  0  0  0  0  0  0  0  0  0  0  0
  152.5666  142.6769  161.1294 H   0  0  0  0  0  0  0  0  0  0  0  0
  153.6221  141.6668  160.0093 H   0  0  0  0  0  0  0  0  0  0  0  0
  153.1990  140.1027  158.8681 H   0  0  0  0  0  0  0  0  0  0  0  0
  1  2  1  0  0  0  0
  1 20  1  0  0  0  0
  1 21  1  0  0  0  0
  1 22  1  0  0  0  0
  2 19  1  0  0  0  0
  2  3  2  0  0  0  0
  3  4  1  0  0  0  0
  4  5  1  0  0  0  0
  4  8  1  0  0  0  0
  5  6  1  0  0  0  0
  5 23  1  0  0  0  0
  5 24  1  0  0  0  0
  6  7  1  0  0  0  0
  6 25  1  0  0  0  0
  6 26  1  0  0  0  0
  7 27  1  0  0  0  0
  8 19  1  0  0  0  0
  8  9  2  0  0  0  0
  9 10  1  0  0  0  0
 10 11  1  0  0  0  0
 10 14  2  0  0  0  0
 11 13  1  0  0  0  0
 11 12  1  0  0  0  0
 11 28  1  0  0  0  0
 12 13  1  0  0  0  0
 12 29  1  0  0  0  0
 12 30  1  0  0  0  0
 13 31  1  0  0  0  0
 13 32  1  0  0  0  0
 14 15  1  0  0  0  0
 14 33  1  0  0  0  0
 15 16  1  0  0  0  0
 15 19  2  0  0  0  0
 16 17  2  0  0  0  0
 16 18  1  0  0  0  0
M  CHG  1  18  -1
M  END
> <s_m_source_file>
AV-unprocessed.smi

> <i_m_source_file_index>
997

> <i_lp_mmshare_version>
43012

> <i_f3d_flags>
0

> <s_epik_input>
W09IXVtDSDJdW0NIMl1uMW5jKFtDSDNdKWMoYzEyKWMoQyg9TylbT0hdKVtjSF1jKG4yKVtDSF0zW0NIMl1bQ0gyXTM=

> <s_epik_cmdline>
J2VwaWtfcHl0aG9uJywgJy1waCcsICc3LjAnLCAnLXRuJywgJzgnLCAnLW1hJywgJzIwMCcsICctbWV0YWxfYmluZGluZycsICctaW1hZScsICc8aW5maWxlLm1hZT4nLCAnLW9tYWUnLCAnPG91dGZpbGUubWFlPic=

> <r_epik_Ionization_Penalty>
0.00209497

> <r_epik_Ionization_Penalty_Charging>
0.0019185

> <r_epik_Ionization_Penalty_Neutral>
0.000176473

> <r_epik_State_Penalty>
0.00130684

> <r_epik_Charging_Adjusted_Penalty>
0.00322534

> <i_epik_Tot_Q>
-1

> <i_epik_Tot_abs_Q>
1

> <r_epik_Metal_State_Penalty>
-0

> <b_epik_Metal_Only>
0

> <s_lp_Force_Field>
OPLS_2005

> <r_lp_Energy>
10.3232

> <b_lp_Chiralities_Consistent>
1

> <s_lp_Variant>
AV-unprocessed.smi:997-1

> <Gold.Version>
5.8.1

> <Gold.Id.Protein>
6NUR|6NUR_protein|mol2

> <Gold.PLP.Fitness>
48.3615

> <Gold.PLP.PLP>
-37.0998

> <Gold.PLP.part.hbond>
-4.0000

> <Gold.PLP.part.metal>
0.0000

> <Gold.PLP.part.buried>
1.3747

> <Gold.PLP.part.nonpolar>
-34.0958

> <Gold.PLP.part.repulsive>
0.8372

> <Gold.PLP.ligand.clash>
0.0000

> <Gold.PLP.ligand.torsion>
0.8210

> <Gold.PLP.Chemscore.Hbond>
4.2560

> <Gold.PLP.Chemscore.CHOScore>
0.0000

> <Gold.PLP.Chemscore.Metal>
0.0000

> <Gold.Chemscore.Hbonds>
donor molecule, donor type, donor heavy atom, donor atom, acceptor molecule, acceptor atom, score
      L1  H     7    27       P1  7957  1.00
      P1  H  7997  8010       L1    18  1.47
      P1  H 10752 10765       L1    17  1.60

> <Gold.PLP.Chemscore.Internal.Correction>
0.1358

> <Gold.Rescore>
     Score         DG    S(hbond)    S(metal)    S(lipo)     H(rot)  DE(clash)    DE(int)     intcor
     14.96     -17.67       2.17        0.00      86.89       2.04       0.48       2.23       ----

> <Gold.Chemscore.Fitness>
14.9604

> <Gold.Chemscore.DG>
-17.6705

> <Gold.Chemscore.ZeroCoef>
-5.4800

> <Gold.Chemscore.Hbond>
2.1675

> <Gold.Chemscore.Metal>
0.0000

> <Gold.Chemscore.Lipo>
86.8908

> <Gold.Chemscore.Internal_Hbond>
0.0000

> <Gold.Chemscore.DEClash>
0.4798

> <Gold.Chemscore.DEInternal>
2.2304

> <Gold.Chemscore.Rot>
2.0372

> <Gold.Chemscore.Internal.Correction>
   9.000000E+99

> <Gold.Chemscore.Hbonds>
donor molecule, donor type, donor heavy atom, donor atom, acceptor molecule, acceptor atom, score
      L1  H     7    27       P1  7957  0.94
      P1  H  7997  8010       L1    18  0.26
      P1  H 10752 10765       L1    17  0.74

> <Gold.Chemscore.Hbond.Weighted>
-7.2395

> <Gold.Chemscore.Metal.Weighted>
-0.0000

> <Gold.Chemscore.Lipo.Weighted>
-10.1662

> <Gold.Chemscore.Internal_Hbond.Weighted>
0.0000

> <Gold.Chemscore.DEClash.Weighted>
0.4798

> <Gold.Chemscore.DEInternal.Weighted>
2.2304

> <Gold.Chemscore.Rot.Weighted>
5.2152

> <Gold.Chemscore.Internal.Correction.Weighted>
   9.000000E+99

> <Gold.Protein.RotatedTorsions>
[ 6907 6896 6895 6894 ] final -177.78 input  -60.11 | X-H torsion
[ 7974 7965 7964 7962 ] final -104.01 input  175.53 | X-H torsion
[ 8008 7997 7996 7995 ] final    7.55 input   59.86 | X-H torsion
[ 10167 10162 10161 10158 ] final  -88.21 input  -65.29 | X-H torsion
[ 10718 10713 10712 10709 ] final   -7.25 input   66.30 | X-H torsion
[ 10763 10752 10751 10750 ] final -128.40 input  -60.55 | X-H torsion
[ 11005 11000 10999 10996 ] final -154.49 input  -57.11 | X-H torsion

> <Gold.Protein.ActiveResidues>
 VAL166  LYS551  ARG553  GLY616  TRP617  ASP618  TYR619  PRO620  LYS621  CYS622 
 ASP623  PHE694  ASN695  SER759  ASP760  ASP761  ALA762  ILE779  LEU786  VAL792 
 PHE793  MET794  SER795  GLU796  ALA797  LYS798  CYS799  TRP800  GLU811  SER814 

> <Gold.Protein.RotatedAtoms>
  151.6265  133.3335  159.3099 H   0  0  0  0  0  0  0  0  0  0  0  0  # atno 6907 bound_to 6896
  150.8078  134.7218  159.6672 H   0  0  0  0  0  0  0  0  0  0  0  0  # atno 6908 bound_to 6896
  152.4174  134.6021  160.0054 H   0  0  0  0  0  0  0  0  0  0  0  0  # atno 6909 bound_to 6896
  145.2486  140.9230  143.3108 H   0  0  0  0  0  0  0  0  0  0  0  0  # atno 7974 bound_to 7965
  154.7553  140.2774  155.6259 H   0  0  0  0  0  0  0  0  0  0  0  0  # atno 8008 bound_to 7997
  156.2904  140.2670  156.2244 H   0  0  0  0  0  0  0  0  0  0  0  0  # atno 8009 bound_to 7997
  155.0086  140.0372  157.2379 H   0  0  0  0  0  0  0  0  0  0  0  0  # atno 8010 bound_to 7997
  140.3769  143.2767  151.9432 H   0  0  0  0  0  0  0  0  0  0  0  0  # atno 10167 bound_to 10162
  156.7199  130.5148  149.5870 H   0  0  0  0  0  0  0  0  0  0  0  0  # atno 10718 bound_to 10713
  154.8756  135.3929  154.3751 H   0  0  0  0  0  0  0  0  0  0  0  0  # atno 10763 bound_to 10752
  153.4506  135.7028  153.6116 H   0  0  0  0  0  0  0  0  0  0  0  0  # atno 10764 bound_to 10752
  153.4658  135.3801  155.2332 H   0  0  0  0  0  0  0  0  0  0  0  0  # atno 10765 bound_to 10752
  140.6968  134.3981  157.5214 H   0  0  0  0  0  0  0  0  0  0  0  0  # atno 11005 bound_to 11000
  144.9523  139.4069  143.6396 LP  0  0  0  0  0  0  0  0  0  0  0  0  # atno 17320 bound_to 7965
  146.3309  139.8537  142.8868 LP  0  0  0  0  0  0  0  0  0  0  0  0  # atno 17321 bound_to 7965
  139.4798  144.5855  151.7861 LP  0  0  0  0  0  0  0  0  0  0  0  0  # atno 17342 bound_to 10162
  140.4977  144.1216  150.5964 LP  0  0  0  0  0  0  0  0  0  0  0  0  # atno 17343 bound_to 10162
  156.1601  130.6368  151.0708 LP  0  0  0  0  0  0  0  0  0  0  0  0  # atno 17370 bound_to 10713
  157.6902  131.0812  150.7129 LP  0  0  0  0  0  0  0  0  0  0  0  0  # atno 17371 bound_to 10713
  139.8908  134.8796  156.2352 LP  0  0  0  0  0  0  0  0  0  0  0  0  # atno 17394 bound_to 11000
  141.0197  133.7048  156.1247 LP  0  0  0  0  0  0  0  0  0  0  0  0  # atno 17395 bound_to 11000

$$$$
