AV-unprocessed.smi:2302|AV-procd|sdf|9241|dock10
  -GOLD-   2272012463D 1   1.00000     0.00000
 Structure written by MMmdl.
 39 40  0  0  0  0  0  0  0  0  1 V2000
  153.5717  141.3174  160.2593 C   0  0  0  0  0  0  0  0  0  0  0  0
  152.7865  142.4664  159.6622 C   0  0  0  0  0  0  0  0  0  0  0  0
  152.8263  143.7497  160.2417 C   0  0  0  0  0  0  0  0  0  0  0  0
  152.0700  144.7719  159.6409 C   0  0  0  0  0  0  0  0  0  0  0  0
  151.3105  144.4709  158.4937 C   0  0  0  0  0  0  0  0  0  0  0  0
  151.3247  143.1562  157.9755 C   0  0  0  0  0  0  0  0  0  0  0  0
  150.5229  142.9547  156.8205 N   0  0  0  0  0  0  0  0  0  0  0  0
  150.3840  141.8338  156.0908 C   0  0  0  0  0  0  0  0  0  0  0  0
  150.9712  140.7715  156.2986 O   0  0  0  0  0  0  0  0  0  0  0  0
  149.5124  142.0137  155.0876 N   0  0  0  0  0  0  0  0  0  0  0  0
  149.1424  141.0000  154.1034 C   0  0  0  0  0  0  0  0  0  0  0  0
  147.8119  140.3005  154.4411 C   0  0  1  0  0  0  0  0  0  0  0  0
  147.3152  139.3454  153.3340 C   0  0  0  0  0  0  0  0  0  0  0  0
  146.0741  138.6823  153.7115 N   0  0  0  0  0  0  0  0  0  0  0  0
  145.6058  137.7835  152.6677 C   0  0  0  0  0  0  0  0  0  0  0  0
  146.2590  137.9864  154.9780 C   0  0  0  0  0  0  0  0  0  0  0  0
  146.7539  138.9369  156.0813 C   0  0  0  0  0  0  0  0  0  0  0  0
  147.9555  139.5761  155.6616 O   0  0  0  0  0  0  0  0  0  0  0  0
  152.0572  142.1774  158.5631 N   0  0  0  0  0  0  0  0  0  0  0  0
  154.3056  141.6752  160.9819 H   0  0  0  0  0  0  0  0  0  0  0  0
  154.1030  140.7698  159.4802 H   0  0  0  0  0  0  0  0  0  0  0  0
  152.8989  140.6262  160.7677 H   0  0  0  0  0  0  0  0  0  0  0  0
  153.4183  143.9479  161.1232 H   0  0  0  0  0  0  0  0  0  0  0  0
  152.0713  145.7702  160.0528 H   0  0  0  0  0  0  0  0  0  0  0  0
  150.7236  145.2446  158.0204 H   0  0  0  0  0  0  0  0  0  0  0  0
  149.9837  143.7538  156.5223 H   0  0  0  0  0  0  0  0  0  0  0  0
  149.0769  142.9192  154.9924 H   0  0  0  0  0  0  0  0  0  0  0  0
  149.0980  141.4316  153.1020 H   0  0  0  0  0  0  0  0  0  0  0  0
  149.9425  140.2600  154.0767 H   0  0  0  0  0  0  0  0  0  0  0  0
  147.0604  141.0763  154.5982 H   0  0  0  0  0  0  0  0  0  0  0  0
  147.1659  139.9068  152.4109 H   0  0  0  0  0  0  0  0  0  0  0  0
  148.0781  138.5946  153.1226 H   0  0  0  0  0  0  0  0  0  0  0  0
  144.6583  137.3239  152.9511 H   0  0  0  0  0  0  0  0  0  0  0  0
  146.3272  136.9873  152.4793 H   0  0  0  0  0  0  0  0  0  0  0  0
  145.4454  138.3253  151.7352 H   0  0  0  0  0  0  0  0  0  0  0  0
  145.3203  137.5266  155.2889 H   0  0  0  0  0  0  0  0  0  0  0  0
  146.9781  137.1753  154.8528 H   0  0  0  0  0  0  0  0  0  0  0  0
  145.9969  139.6880  156.3121 H   0  0  0  0  0  0  0  0  0  0  0  0
  146.9469  138.3834  157.0003 H   0  0  0  0  0  0  0  0  0  0  0  0
  1  2  1  0  0  0  0
  1 20  1  0  0  0  0
  1 21  1  0  0  0  0
  1 22  1  0  0  0  0
  2 19  1  0  0  0  0
  2  3  2  0  0  0  0
  3  4  1  0  0  0  0
  3 23  1  0  0  0  0
  4  5  2  0  0  0  0
  4 24  1  0  0  0  0
  5  6  1  0  0  0  0
  5 25  1  0  0  0  0
  6  7  1  0  0  0  0
  6 19  2  0  0  0  0
  7  8  1  0  0  0  0
  7 26  1  0  0  0  0
  8  9  2  0  0  0  0
  8 10  1  0  0  0  0
 10 11  1  0  0  0  0
 10 27  1  0  0  0  0
 11 12  1  0  0  0  0
 11 28  1  0  0  0  0
 11 29  1  0  0  0  0
 12 18  1  0  0  0  0
 12 13  1  0  0  0  0
 12 30  1  0  0  0  0
 13 14  1  0  0  0  0
 13 31  1  0  0  0  0
 13 32  1  0  0  0  0
 14 15  1  0  0  0  0
 14 16  1  0  0  0  0
 15 33  1  0  0  0  0
 15 34  1  0  0  0  0
 15 35  1  0  0  0  0
 16 17  1  0  0  0  0
 16 36  1  0  0  0  0
 16 37  1  0  0  0  0
 17 18  1  0  0  0  0
 17 38  1  0  0  0  0
 17 39  1  0  0  0  0
M  END
> <s_m_source_file>
AV-unprocessed.smi

> <i_m_source_file_index>
2302

> <i_lp_mmshare_version>
43012

> <i_f3d_flags>
0

> <s_epik_input>
W0NIM11jMVtjSF1bY0hdW2NIXWMobjEpW05IXUMoPU8pW05IXVtDSDJdW0NAQEhdMltDSDJdTihbQ0gzXSlbQ0gyXVtDSDJdTzI=

> <s_epik_cmdline>
J2VwaWtfcHl0aG9uJywgJy1waCcsICc3LjAnLCAnLXRuJywgJzgnLCAnLW1hJywgJzIwMCcsICctbWV0YWxfYmluZGluZycsICctaW1hZScsICc8aW5maWxlLm1hZT4nLCAnLW9tYWUnLCAnPG91dGZpbGUubWFlPic=

> <r_epik_Ionization_Penalty>
0.729465

> <r_epik_Ionization_Penalty_Charging>
0

> <r_epik_Ionization_Penalty_Neutral>
0.729465

> <r_epik_State_Penalty>
0.754525

> <r_epik_Charging_Adjusted_Penalty>
0.754525

> <i_epik_Tot_Q>
0

> <i_epik_Tot_abs_Q>
0

> <r_epik_Metal_State_Penalty>
0.754521

> <b_epik_Metal_Only>
0

> <s_lp_Force_Field>
OPLS_2005

> <r_lp_Energy>
21.4946

> <b_lp_Chiralities_Consistent>
1

> <s_lp_Variant>
AV-unprocessed.smi:2302-6

> <Gold.Version>
5.8.1

> <Gold.Id.Protein>
6NUR|6NUR_protein|mol2

> <Gold.PLP.Fitness>
40.6718

> <Gold.PLP.PLP>
-35.0318

> <Gold.PLP.part.hbond>
-2.0000

> <Gold.PLP.part.metal>
0.0000

> <Gold.PLP.part.buried>
-3.5703

> <Gold.PLP.part.nonpolar>
-29.4662

> <Gold.PLP.part.repulsive>
0.4533

> <Gold.PLP.ligand.clash>
0.0000

> <Gold.PLP.ligand.torsion>
0.1693

> <Gold.PLP.Chemscore.Hbond>
1.9920

> <Gold.PLP.Chemscore.CHOScore>
0.0000

> <Gold.PLP.Chemscore.Metal>
0.0000

> <Gold.Chemscore.Hbonds>
donor molecule, donor type, donor heavy atom, donor atom, acceptor molecule, acceptor atom, score
      L1  H     7    26       P1  8028  1.00
      L1  H    10    27       P1  8028  0.98

> <Gold.PLP.Chemscore.Internal.Correction>
0.0027

> <Gold.Rescore>
     Score         DG    S(hbond)    S(metal)    S(lipo)     H(rot)  DE(clash)    DE(int)     intcor
     17.30     -18.79       1.96        0.00      85.03       1.25       0.05       1.43       ----

> <Gold.Chemscore.Fitness>
17.3028

> <Gold.Chemscore.DG>
-18.7880

> <Gold.Chemscore.ZeroCoef>
-5.4800

> <Gold.Chemscore.Hbond>
1.9645

> <Gold.Chemscore.Metal>
0.0000

> <Gold.Chemscore.Lipo>
85.0274

> <Gold.Chemscore.Internal_Hbond>
0.0000

> <Gold.Chemscore.DEClash>
0.0518

> <Gold.Chemscore.DEInternal>
1.4334

> <Gold.Chemscore.Rot>
1.2506

> <Gold.Chemscore.Internal.Correction>
   9.000000E+99

> <Gold.Chemscore.Hbonds>
donor molecule, donor type, donor heavy atom, donor atom, acceptor molecule, acceptor atom, score
      L1  H     7    26       P1  8028  1.00
      L1  H    10    27       P1  8028  0.93

> <Gold.Chemscore.Hbond.Weighted>
-6.5613

> <Gold.Chemscore.Metal.Weighted>
-0.0000

> <Gold.Chemscore.Lipo.Weighted>
-9.9482

> <Gold.Chemscore.Internal_Hbond.Weighted>
0.0000

> <Gold.Chemscore.DEClash.Weighted>
0.0518

> <Gold.Chemscore.DEInternal.Weighted>
1.4334

> <Gold.Chemscore.Rot.Weighted>
3.2015

> <Gold.Chemscore.Internal.Correction.Weighted>
   9.000000E+99

> <Gold.Protein.RotatedTorsions>
[ 6907 6896 6895 6894 ] final  145.96 input  -60.11 | X-H torsion
[ 7974 7965 7964 7962 ] final  119.14 input  175.53 | X-H torsion
[ 8008 7997 7996 7995 ] final    2.31 input   59.86 | X-H torsion
[ 10167 10162 10161 10158 ] final  -60.39 input  -65.29 | X-H torsion
[ 10718 10713 10712 10709 ] final   -7.19 input   66.30 | X-H torsion
[ 10763 10752 10751 10750 ] final  157.75 input  -60.55 | X-H torsion
[ 11005 11000 10999 10996 ] final   10.94 input  -57.11 | X-H torsion

> <Gold.Protein.ActiveResidues>
 VAL166  LYS551  ARG553  GLY616  TRP617  ASP618  TYR619  PRO620  LYS621  CYS622 
 ASP623  PHE694  ASN695  SER759  ASP760  ASP761  ALA762  ILE779  LEU786  VAL792 
 PHE793  MET794  SER795  GLU796  ALA797  LYS798  CYS799  TRP800  GLU811  SER814 

> <Gold.Protein.RotatedAtoms>
  152.1742  133.4663  159.4924 H   0  0  0  0  0  0  0  0  0  0  0  0  # atno 6907 bound_to 6896
  150.6924  134.1915  159.4296 H   0  0  0  0  0  0  0  0  0  0  0  0  # atno 6908 bound_to 6896
  151.9824  135.0021  160.0608 H   0  0  0  0  0  0  0  0  0  0  0  0  # atno 6909 bound_to 6896
  145.1467  139.3235  143.4588 H   0  0  0  0  0  0  0  0  0  0  0  0  # atno 7974 bound_to 7965
  154.6900  140.2651  155.6822 H   0  0  0  0  0  0  0  0  0  0  0  0  # atno 8008 bound_to 7997
  156.2728  140.2793  156.1398 H   0  0  0  0  0  0  0  0  0  0  0  0  # atno 8009 bound_to 7997
  155.0910  140.0373  157.2658 H   0  0  0  0  0  0  0  0  0  0  0  0  # atno 8010 bound_to 7997
  140.6074  143.2377  151.5789 H   0  0  0  0  0  0  0  0  0  0  0  0  # atno 10167 bound_to 10162
  156.7209  130.5150  149.5868 H   0  0  0  0  0  0  0  0  0  0  0  0  # atno 10718 bound_to 10713
  154.2052  135.2788  155.2977 H   0  0  0  0  0  0  0  0  0  0  0  0  # atno 10763 bound_to 10752
  154.5822  135.5586  153.7200 H   0  0  0  0  0  0  0  0  0  0  0  0  # atno 10764 bound_to 10752
  153.0078  135.6347  154.2191 H   0  0  0  0  0  0  0  0  0  0  0  0  # atno 10765 bound_to 10752
  140.5088  134.0672  155.7813 H   0  0  0  0  0  0  0  0  0  0  0  0  # atno 11005 bound_to 11000
  146.3499  140.1525  142.8592 LP  0  0  0  0  0  0  0  0  0  0  0  0  # atno 17320 bound_to 7965
  145.0475  140.8992  143.5016 LP  0  0  0  0  0  0  0  0  0  0  0  0  # atno 17321 bound_to 7965
  139.5335  144.2847  152.1200 LP  0  0  0  0  0  0  0  0  0  0  0  0  # atno 17342 bound_to 10162
  140.2040  144.4630  150.6418 LP  0  0  0  0  0  0  0  0  0  0  0  0  # atno 17343 bound_to 10162
  156.1595  130.6364  151.0701 LP  0  0  0  0  0  0  0  0  0  0  0  0  # atno 17370 bound_to 10713
  157.6898  131.0813  150.7139 LP  0  0  0  0  0  0  0  0  0  0  0  0  # atno 17371 bound_to 10713
  141.1396  133.9161  157.2355 LP  0  0  0  0  0  0  0  0  0  0  0  0  # atno 17394 bound_to 11000
  139.9671  135.0139  156.9414 LP  0  0  0  0  0  0  0  0  0  0  0  0  # atno 17395 bound_to 11000

$$$$
