AV-unprocessed.smi:1980|AV-procd|sdf|8017|dock10
  -GOLD-   2272010213D 1   1.00000     0.00000
 Structure written by MMmdl.
 44 45  0  0  0  0  0  0  0  0  1 V2000
  149.3111  134.4331  156.5696 C   0  0  0  0  0  0  0  0  0  0  0  0
  149.2931  135.2697  155.2812 C   0  0  2  0  0  0  0  0  0  0  0  0
  149.3557  134.3665  154.1801 O   0  0  0  0  0  0  0  0  0  0  0  0
  148.3783  133.3304  154.1774 C   0  0  0  0  0  0  0  0  0  0  0  0
  148.6131  132.4115  152.9726 C   0  0  0  0  0  0  0  0  0  0  0  0
  148.5934  133.1389  151.8567 F   0  0  0  0  0  0  0  0  0  0  0  0
  149.8001  131.8140  153.0728 F   0  0  0  0  0  0  0  0  0  0  0  0
  147.6519  131.4910  152.9006 F   0  0  0  0  0  0  0  0  0  0  0  0
  150.4703  136.2576  155.2351 C   0  0  0  0  0  0  0  0  0  0  0  0
  151.2328  136.3614  156.1962 O   0  0  0  0  0  0  0  0  0  0  0  0
  150.6081  136.9663  154.1036 N   0  0  0  0  0  0  0  0  0  0  0  0
  151.6456  137.9577  153.8417 C   0  0  0  0  0  0  0  0  0  0  0  0
  151.7482  139.0001  154.9407 C   0  0  0  0  0  0  0  0  0  0  0  0
  150.7860  140.0213  155.0604 C   0  0  0  0  0  0  0  0  0  0  0  0
  150.9180  140.9663  156.0956 C   0  0  0  0  0  0  0  0  0  0  0  0
  152.0150  140.8693  156.9853 C   0  0  0  0  0  0  0  0  0  0  0  0
  152.1702  141.8079  158.0295 N   0  0  0  0  0  0  0  0  0  0  0  0
  151.3542  143.0204  157.9890 C   0  0  0  0  0  0  0  0  0  0  0  0
  151.8585  144.0421  159.0223 C   0  0  0  0  0  0  0  0  0  0  0  0
  151.8904  143.4436  160.3136 O   0  0  0  0  0  0  0  0  0  0  0  0
  152.7790  142.3325  160.3588 C   0  0  0  0  0  0  0  0  0  0  0  0
  152.3090  141.2493  159.3726 C   0  0  0  0  0  0  0  0  0  0  0  0
  152.9354  139.8797  156.8682 N   0  0  0  0  0  0  0  0  0  0  0  0
  152.8043  138.9762  155.8741 C   0  0  0  0  0  0  0  0  0  0  0  0
  149.2872  135.0682  157.4561 H   0  0  0  0  0  0  0  0  0  0  0  0
  150.2021  133.8066  156.6294 H   0  0  0  0  0  0  0  0  0  0  0  0
  148.4440  133.7739  156.6139 H   0  0  0  0  0  0  0  0  0  0  0  0
  148.3500  135.8190  155.2467 H   0  0  0  0  0  0  0  0  0  0  0  0
  148.4459  132.7517  155.0998 H   0  0  0  0  0  0  0  0  0  0  0  0
  147.3708  133.7445  154.1254 H   0  0  0  0  0  0  0  0  0  0  0  0
  149.9362  136.8099  153.3663 H   0  0  0  0  0  0  0  0  0  0  0  0
  152.6202  137.4857  153.7069 H   0  0  0  0  0  0  0  0  0  0  0  0
  151.4133  138.4454  152.8947 H   0  0  0  0  0  0  0  0  0  0  0  0
  149.9538  140.0805  154.3743 H   0  0  0  0  0  0  0  0  0  0  0  0
  150.1723  141.7397  156.2019 H   0  0  0  0  0  0  0  0  0  0  0  0
  151.3887  143.4676  156.9947 H   0  0  0  0  0  0  0  0  0  0  0  0
  150.3145  142.7626  158.1958 H   0  0  0  0  0  0  0  0  0  0  0  0
  152.8509  144.4090  158.7549 H   0  0  0  0  0  0  0  0  0  0  0  0
  151.1959  144.9070  159.0484 H   0  0  0  0  0  0  0  0  0  0  0  0
  153.7953  142.6557  160.1267 H   0  0  0  0  0  0  0  0  0  0  0  0
  152.7964  141.9336  161.3730 H   0  0  0  0  0  0  0  0  0  0  0  0
  151.3437  140.8515  159.6883 H   0  0  0  0  0  0  0  0  0  0  0  0
  153.0155  140.4213  159.3976 H   0  0  0  0  0  0  0  0  0  0  0  0
  153.5666  138.2129  155.8242 H   0  0  0  0  0  0  0  0  0  0  0  0
  1  2  1  0  0  0  0
  1 25  1  0  0  0  0
  1 26  1  0  0  0  0
  1 27  1  0  0  0  0
  2  3  1  0  0  0  0
  2  9  1  0  0  0  0
  2 28  1  0  0  0  0
  3  4  1  0  0  0  0
  4  5  1  0  0  0  0
  4 29  1  0  0  0  0
  4 30  1  0  0  0  0
  5  6  1  0  0  0  0
  5  7  1  0  0  0  0
  5  8  1  0  0  0  0
  9 10  2  0  0  0  0
  9 11  1  0  0  0  0
 11 12  1  0  0  0  0
 11 31  1  0  0  0  0
 12 13  1  0  0  0  0
 12 32  1  0  0  0  0
 12 33  1  0  0  0  0
 13 24  1  0  0  0  0
 13 14  2  0  0  0  0
 14 15  1  0  0  0  0
 14 34  1  0  0  0  0
 15 16  2  0  0  0  0
 15 35  1  0  0  0  0
 16 17  1  0  0  0  0
 16 23  1  0  0  0  0
 17 22  1  0  0  0  0
 17 18  1  0  0  0  0
 18 19  1  0  0  0  0
 18 36  1  0  0  0  0
 18 37  1  0  0  0  0
 19 20  1  0  0  0  0
 19 38  1  0  0  0  0
 19 39  1  0  0  0  0
 20 21  1  0  0  0  0
 21 22  1  0  0  0  0
 21 40  1  0  0  0  0
 21 41  1  0  0  0  0
 22 42  1  0  0  0  0
 22 43  1  0  0  0  0
 23 24  2  0  0  0  0
 24 44  1  0  0  0  0
M  END
> <s_m_source_file>
AV-unprocessed.smi

> <i_m_source_file_index>
1980

> <i_lp_mmshare_version>
43012

> <i_f3d_flags>
0

> <s_epik_input>
RkMoRikoRilbQ0gyXU9bQ0BASF0oW0NIM10pQyg9TylbTkhdW0NIMl1jMVtjSF1bY0hdYyhuW2NIXTEpTjJbQ0gyXVtDSDJdT1tDSDJdW0NIMl0y

> <s_epik_cmdline>
J2VwaWtfcHl0aG9uJywgJy1waCcsICc3LjAnLCAnLXRuJywgJzgnLCAnLW1hJywgJzIwMCcsICctbWV0YWxfYmluZGluZycsICctaW1hZScsICc8aW5maWxlLm1hZT4nLCAnLW9tYWUnLCAnPG91dGZpbGUubWFlPic=

> <r_lp_tautomer_probability>
1

> <r_epik_Ionization_Penalty>
0.00436425

> <r_epik_Ionization_Penalty_Charging>
0

> <r_epik_Ionization_Penalty_Neutral>
0.00436425

> <r_epik_State_Penalty>
0.00314317

> <r_epik_Charging_Adjusted_Penalty>
0.00314317

> <i_epik_Tot_Q>
0

> <i_epik_Tot_abs_Q>
0

> <r_epik_Metal_State_Penalty>
-0

> <b_epik_Metal_Only>
0

> <s_lp_Force_Field>
OPLS_2005

> <r_lp_Energy>
19.3234

> <b_lp_Chiralities_Consistent>
1

> <s_lp_Variant>
AV-unprocessed.smi:1980-1

> <Gold.Version>
5.8.1

> <Gold.Id.Protein>
6NUR|6NUR_protein|mol2

> <Gold.PLP.Fitness>
47.0828

> <Gold.PLP.PLP>
-41.6127

> <Gold.PLP.part.hbond>
-2.3835

> <Gold.PLP.part.metal>
0.0000

> <Gold.PLP.part.buried>
-3.0187

> <Gold.PLP.part.nonpolar>
-35.7429

> <Gold.PLP.part.repulsive>
0.2325

> <Gold.PLP.ligand.clash>
0.0000

> <Gold.PLP.ligand.torsion>
0.4769

> <Gold.PLP.Chemscore.Hbond>
1.9920

> <Gold.PLP.Chemscore.CHOScore>
0.0000

> <Gold.PLP.Chemscore.Metal>
0.0000

> <Gold.Chemscore.Hbonds>
donor molecule, donor type, donor heavy atom, donor atom, acceptor molecule, acceptor atom, score
      L1  H    11    31       P1  7948  0.95
      P1  H  7997  8008       L1    23  0.90
      P1  H 10752 10763       L1    10  0.05

> <Gold.PLP.Chemscore.Internal.Correction>
0.4480

> <Gold.Rescore>
     Score         DG    S(hbond)    S(metal)    S(lipo)     H(rot)  DE(clash)    DE(int)     intcor
     12.86     -15.13       1.68        0.00      88.98       2.49       0.24       2.03       ----

> <Gold.Chemscore.Fitness>
12.8605

> <Gold.Chemscore.DG>
-15.1272

> <Gold.Chemscore.ZeroCoef>
-5.4800

> <Gold.Chemscore.Hbond>
1.6798

> <Gold.Chemscore.Metal>
0.0000

> <Gold.Chemscore.Lipo>
88.9825

> <Gold.Chemscore.Internal_Hbond>
0.0000

> <Gold.Chemscore.DEClash>
0.2373

> <Gold.Chemscore.DEInternal>
2.0294

> <Gold.Chemscore.Rot>
2.4899

> <Gold.Chemscore.Internal.Correction>
   9.000000E+99

> <Gold.Chemscore.Hbonds>
donor molecule, donor type, donor heavy atom, donor atom, acceptor molecule, acceptor atom, score
      L1  H    11    31       P1  7948  0.22
      P1  H  7997  8008       L1    23  0.22
      P1  H 10752 10763       L1    10  0.01

> <Gold.Chemscore.Hbond.Weighted>
-5.6104

> <Gold.Chemscore.Metal.Weighted>
-0.0000

> <Gold.Chemscore.Lipo.Weighted>
-10.4110

> <Gold.Chemscore.Internal_Hbond.Weighted>
0.0000

> <Gold.Chemscore.DEClash.Weighted>
0.2373

> <Gold.Chemscore.DEInternal.Weighted>
2.0294

> <Gold.Chemscore.Rot.Weighted>
6.3741

> <Gold.Chemscore.Internal.Correction.Weighted>
   9.000000E+99

> <Gold.Protein.RotatedTorsions>
[ 6907 6896 6895 6894 ] final  -18.97 input  -60.11 | X-H torsion
[ 7974 7965 7964 7962 ] final   79.07 input  175.53 | X-H torsion
[ 8008 7997 7996 7995 ] final  -76.59 input   59.86 | X-H torsion
[ 10167 10162 10161 10158 ] final  114.31 input  -65.29 | X-H torsion
[ 10718 10713 10712 10709 ] final  -92.01 input   66.30 | X-H torsion
[ 10763 10752 10751 10750 ] final   91.73 input  -60.55 | X-H torsion
[ 11005 11000 10999 10996 ] final -144.32 input  -57.11 | X-H torsion

> <Gold.Protein.ActiveResidues>
 VAL166  LYS551  ARG553  GLY616  TRP617  ASP618  TYR619  PRO620  LYS621  CYS622 
 ASP623  PHE694  ASN695  SER759  ASP760  ASP761  ALA762  ILE779  LEU786  VAL792 
 PHE793  MET794  SER795  GLU796  ALA797  LYS798  CYS799  TRP800  GLU811  SER814 

> <Gold.Protein.RotatedAtoms>
  151.2701  135.0682  159.9130 H   0  0  0  0  0  0  0  0  0  0  0  0  # atno 6907 bound_to 6896
  152.5352  134.0139  159.7961 H   0  0  0  0  0  0  0  0  0  0  0  0  # atno 6908 bound_to 6896
  151.0376  133.5684  159.2685 H   0  0  0  0  0  0  0  0  0  0  0  0  # atno 6909 bound_to 6896
  145.6690  139.2491  143.1879 H   0  0  0  0  0  0  0  0  0  0  0  0  # atno 7974 bound_to 7965
  154.5519  140.0724  156.8681 H   0  0  0  0  0  0  0  0  0  0  0  0  # atno 8008 bound_to 7997
  155.2977  140.3382  155.4231 H   0  0  0  0  0  0  0  0  0  0  0  0  # atno 8009 bound_to 7997
  156.1968  140.1707  156.7967 H   0  0  0  0  0  0  0  0  0  0  0  0  # atno 8010 bound_to 7997
  139.6398  144.7123  151.2260 H   0  0  0  0  0  0  0  0  0  0  0  0  # atno 10167 bound_to 10162
  155.9998  130.4970  150.5561 H   0  0  0  0  0  0  0  0  0  0  0  0  # atno 10718 bound_to 10713
  153.2114  135.4387  155.0384 H   0  0  0  0  0  0  0  0  0  0  0  0  # atno 10763 bound_to 10752
  154.8202  135.3334  154.7063 H   0  0  0  0  0  0  0  0  0  0  0  0  # atno 10764 bound_to 10752
  153.7501  135.6999  153.5003 H   0  0  0  0  0  0  0  0  0  0  0  0  # atno 10765 bound_to 10752
  140.8036  134.2828  157.4969 H   0  0  0  0  0  0  0  0  0  0  0  0  # atno 11005 bound_to 11000
  146.1062  140.7484  142.9525 LP  0  0  0  0  0  0  0  0  0  0  0  0  # atno 17320 bound_to 7965
  144.7063  140.3865  143.7115 LP  0  0  0  0  0  0  0  0  0  0  0  0  # atno 17321 bound_to 7965
  140.7485  143.6332  150.8404 LP  0  0  0  0  0  0  0  0  0  0  0  0  # atno 17342 bound_to 10162
  139.9968  143.5788  152.2890 LP  0  0  0  0  0  0  0  0  0  0  0  0  # atno 17343 bound_to 10162
  157.3477  131.0728  151.1738 LP  0  0  0  0  0  0  0  0  0  0  0  0  # atno 17370 bound_to 10713
  157.2565  130.6638  149.5955 LP  0  0  0  0  0  0  0  0  0  0  0  0  # atno 17371 bound_to 10713
  139.8719  134.9443  156.3878 LP  0  0  0  0  0  0  0  0  0  0  0  0  # atno 17394 bound_to 11000
  140.9270  133.7606  155.9976 LP  0  0  0  0  0  0  0  0  0  0  0  0  # atno 17395 bound_to 11000

$$$$
