AV-unprocessed.smi:2539|AV-procd|sdf|9986|dock1
  -GOLD-   2272014 33D 1   1.00000     0.00000
 Structure written by MMmdl.
 41 42  0  0  0  0  0  0  0  0  2 V2000
  151.8101  138.1070  158.8338 O   0  0  0  0  0  0  0  0  0  0  0  0
  152.0082  139.0508  158.0671 C   0  0  0  0  0  0  0  0  0  0  0  0
  152.4865  140.2327  158.4950 N   0  0  0  0  0  0  0  0  0  0  0  0
  152.9059  140.5425  159.8597 C   0  0  0  0  0  0  0  0  0  0  0  0
  153.7811  141.8099  159.9265 C   0  0  0  0  0  0  0  0  0  0  0  0
  152.9839  143.1030  159.9044 C   0  0  0  0  0  0  0  0  0  0  0  0
  152.8685  143.8604  158.7173 C   0  0  0  0  0  0  0  0  0  0  0  0
  152.1516  145.0747  158.7387 C   0  0  0  0  0  0  0  0  0  0  0  0
  151.5649  145.5043  159.9461 C   0  0  0  0  0  0  0  0  0  0  0  0
  151.6922  144.7513  161.0606 N   0  3  0  0  0  0  0  0  0  0  0  0
  152.3690  143.5825  161.0813 C   0  0  0  0  0  0  0  0  0  0  0  0
  151.7761  138.9833  156.7321 N   0  0  0  0  0  0  0  0  0  0  0  0
  151.0019  137.9433  156.0373 C   0  0  0  0  0  0  0  0  0  0  0  0
  149.5983  138.5006  155.7313 C   0  0  0  0  0  0  0  0  0  0  0  0
  149.6532  139.8215  154.9186 C   0  0  0  0  0  0  0  0  0  0  0  0
  150.0841  139.5001  153.6079 O   0  0  0  0  0  0  0  0  0  0  0  0
  148.2544  140.4708  154.7930 C   0  0  0  0  0  0  0  0  0  0  0  0
  147.3983  139.6093  154.2421 F   0  0  0  0  0  0  0  0  0  0  0  0
  147.7835  140.8148  155.9922 F   0  0  0  0  0  0  0  0  0  0  0  0
  148.3084  141.5545  154.0174 F   0  0  0  0  0  0  0  0  0  0  0  0
  150.6885  140.8067  155.5231 C   0  0  0  0  0  0  0  0  0  0  0  0
  152.0318  140.1220  155.8440 C   0  0  0  0  0  0  0  0  0  0  0  0
  152.6045  140.9641  157.8088 H   0  0  0  0  0  0  0  0  0  0  0  0
  152.0104  140.6864  160.4646 H   0  0  0  0  0  0  0  0  0  0  0  0
  153.4343  139.6956  160.3005 H   0  0  0  0  0  0  0  0  0  0  0  0
  154.3935  141.7832  160.8289 H   0  0  0  0  0  0  0  0  0  0  0  0
  154.4793  141.8164  159.0888 H   0  0  0  0  0  0  0  0  0  0  0  0
  153.3328  143.5232  157.8021 H   0  0  0  0  0  0  0  0  0  0  0  0
  152.0557  145.6697  157.8423 H   0  0  0  0  0  0  0  0  0  0  0  0
  151.0022  146.4203  160.0536 H   0  0  0  0  0  0  0  0  0  0  0  0
  152.4103  143.0773  162.0354 H   0  0  0  0  0  0  0  0  0  0  0  0
  151.5100  137.6745  155.1102 H   0  0  0  0  0  0  0  0  0  0  0  0
  150.9189  137.0097  156.5938 H   0  0  0  0  0  0  0  0  0  0  0  0
  149.0094  137.7512  155.2017 H   0  0  0  0  0  0  0  0  0  0  0  0
  149.0831  138.6757  156.6763 H   0  0  0  0  0  0  0  0  0  0  0  0
  149.4715  139.8707  152.9908 H   0  0  0  0  0  0  0  0  0  0  0  0
  150.8533  141.6469  154.8475 H   0  0  0  0  0  0  0  0  0  0  0  0
  150.2897  141.2340  156.4440 H   0  0  0  0  0  0  0  0  0  0  0  0
  152.7268  140.8434  156.2757 H   0  0  0  0  0  0  0  0  0  0  0  0
  152.5082  139.7720  154.9273 H   0  0  0  0  0  0  0  0  0  0  0  0
  151.2618  145.0813  161.9249 H   0  0  0  0  0  0  0  0  0  0  0  0
  1  2  2  0  0  0  0
  2  3  1  0  0  0  0
  2 12  1  0  0  0  0
  3  4  1  0  0  0  0
  3 23  1  0  0  0  0
  4  5  1  0  0  0  0
  4 24  1  0  0  0  0
  4 25  1  0  0  0  0
  5  6  1  0  0  0  0
  5 26  1  0  0  0  0
  5 27  1  0  0  0  0
  6 11  1  0  0  0  0
  6  7  2  0  0  0  0
  7  8  1  0  0  0  0
  7 28  1  0  0  0  0
  8  9  2  0  0  0  0
  8 29  1  0  0  0  0
  9 10  1  0  0  0  0
  9 30  1  0  0  0  0
 10 11  2  0  0  0  0
 10 41  1  0  0  0  0
 11 31  1  0  0  0  0
 12 22  1  0  0  0  0
 12 13  1  0  0  0  0
 13 14  1  0  0  0  0
 13 32  1  0  0  0  0
 13 33  1  0  0  0  0
 14 15  1  0  0  0  0
 14 34  1  0  0  0  0
 14 35  1  0  0  0  0
 15 16  1  0  0  0  0
 15 17  1  0  0  0  0
 15 21  1  0  0  0  0
 16 36  1  0  0  0  0
 17 18  1  0  0  0  0
 17 19  1  0  0  0  0
 17 20  1  0  0  0  0
 21 22  1  0  0  0  0
 21 37  1  0  0  0  0
 21 38  1  0  0  0  0
 22 39  1  0  0  0  0
 22 40  1  0  0  0  0
M  CHG  1  10   1
M  END
> <s_m_source_file>
AV-unprocessed.smi

> <i_m_source_file_index>
2539

> <i_lp_mmshare_version>
43012

> <i_f3d_flags>
0

> <s_epik_input>
RkMoRikoRilDMShbT0hdKVtDSDJdW0NIMl1OKFtDSDJdW0NIMl0xKUMoPU8pW05IXVtDSDJdW0NIMl1jMltjSF1bY0hdW2NIXW5bY0hdMg==

> <s_epik_cmdline>
J2VwaWtfcHl0aG9uJywgJy1waCcsICc3LjAnLCAnLXRuJywgJzgnLCAnLW1hJywgJzIwMCcsICctbWV0YWxfYmluZGluZycsICctaW1hZScsICc8aW5maWxlLm1hZT4nLCAnLW9tYWUnLCAnPG91dGZpbGUubWFlPic=

> <r_epik_Ionization_Penalty>
2.21039

> <r_epik_Ionization_Penalty_Charging>
2.21033

> <r_epik_Ionization_Penalty_Neutral>
5.75735e-05

> <r_epik_State_Penalty>
2.3545

> <r_epik_Charging_Adjusted_Penalty>
4.56483

> <i_epik_Tot_Q>
1

> <i_epik_Tot_abs_Q>
1

> <r_epik_Metal_State_Penalty>
2.36861

> <b_epik_Metal_Only>
0

> <s_lp_Force_Field>
OPLS_2005

> <r_lp_Energy>
41.3462

> <b_lp_Chiralities_Consistent>
1

> <s_lp_Variant>
AV-unprocessed.smi:2539-2

> <Gold.Version>
5.8.1

> <Gold.Id.Protein>
6NUR|6NUR_protein|mol2

> <Gold.PLP.Fitness>
48.9784

> <Gold.PLP.PLP>
-47.7163

> <Gold.PLP.part.hbond>
-3.0000

> <Gold.PLP.part.metal>
0.0000

> <Gold.PLP.part.buried>
-4.6773

> <Gold.PLP.part.nonpolar>
-40.1694

> <Gold.PLP.part.repulsive>
0.1880

> <Gold.PLP.ligand.clash>
2.0880

> <Gold.PLP.ligand.torsion>
0.5445

> <Gold.PLP.Chemscore.Hbond>
1.4240

> <Gold.PLP.Chemscore.CHOScore>
0.0000

> <Gold.PLP.Chemscore.Metal>
0.0000

> <Gold.Chemscore.Hbonds>
donor molecule, donor type, donor heavy atom, donor atom, acceptor molecule, acceptor atom, score
      L1  H    16    36       P1  7957  0.58
      P1  H  7989  7998       L1    16  0.73

> <Gold.PLP.Chemscore.Internal.Correction>
0.1671

> <Gold.Rescore>
     Score         DG    S(hbond)    S(metal)    S(lipo)     H(rot)  DE(clash)    DE(int)     intcor
     15.34     -15.91       0.63        0.00     116.20       2.06       0.06       0.51       ----

> <Gold.Chemscore.Fitness>
15.3373

> <Gold.Chemscore.DG>
-15.9130

> <Gold.Chemscore.ZeroCoef>
-5.4800

> <Gold.Chemscore.Hbond>
0.6300

> <Gold.Chemscore.Metal>
0.0000

> <Gold.Chemscore.Lipo>
116.1965

> <Gold.Chemscore.Internal_Hbond>
0.0000

> <Gold.Chemscore.DEClash>
0.0627

> <Gold.Chemscore.DEInternal>
0.5130

> <Gold.Chemscore.Rot>
2.0572

> <Gold.Chemscore.Internal.Correction>
   9.000000E+99

> <Gold.Chemscore.Hbonds>
donor molecule, donor type, donor heavy atom, donor atom, acceptor molecule, acceptor atom, score
      L1  H    16    36       P1  7957  0.58
      P1  H  7989  7998       L1    16  0.03

> <Gold.Chemscore.Hbond.Weighted>
-2.1043

> <Gold.Chemscore.Metal.Weighted>
-0.0000

> <Gold.Chemscore.Lipo.Weighted>
-13.5950

> <Gold.Chemscore.Internal_Hbond.Weighted>
0.0000

> <Gold.Chemscore.DEClash.Weighted>
0.0627

> <Gold.Chemscore.DEInternal.Weighted>
0.5130

> <Gold.Chemscore.Rot.Weighted>
5.2663

> <Gold.Chemscore.Internal.Correction.Weighted>
   9.000000E+99

> <Gold.Protein.RotatedTorsions>
[ 6907 6896 6895 6894 ] final  154.77 input  -60.11 | X-H torsion
[ 7974 7965 7964 7962 ] final -129.97 input  175.53 | X-H torsion
[ 8008 7997 7996 7995 ] final  -54.03 input   59.86 | X-H torsion
[ 10167 10162 10161 10158 ] final  -39.22 input  -65.29 | X-H torsion
[ 10718 10713 10712 10709 ] final   19.79 input   66.30 | X-H torsion
[ 10763 10752 10751 10750 ] final  -84.44 input  -60.55 | X-H torsion
[ 11005 11000 10999 10996 ] final -133.57 input  -57.11 | X-H torsion

> <Gold.Protein.ActiveResidues>
 VAL166  LYS551  ARG553  GLY616  TRP617  ASP618  TYR619  PRO620  LYS621  CYS622 
 ASP623  PHE694  ASN695  SER759  ASP760  ASP761  ALA762  ILE779  LEU786  VAL792 
 PHE793  MET794  SER795  GLU796  ALA797  LYS798  CYS799  TRP800  GLU811  SER814 

> <Gold.Protein.RotatedAtoms>
  152.0538  133.4031  159.4388 H   0  0  0  0  0  0  0  0  0  0  0  0  # atno 6907 bound_to 6896
  150.6869  134.3278  159.4823 H   0  0  0  0  0  0  0  0  0  0  0  0  # atno 6908 bound_to 6896
  152.1091  134.9287  160.0618 H   0  0  0  0  0  0  0  0  0  0  0  0  # atno 6909 bound_to 6896
  144.9520  140.7354  143.4782 H   0  0  0  0  0  0  0  0  0  0  0  0  # atno 7974 bound_to 7965
  154.4150  140.1186  156.5250 H   0  0  0  0  0  0  0  0  0  0  0  0  # atno 8008 bound_to 7997
  155.6664  140.3496  155.4782 H   0  0  0  0  0  0  0  0  0  0  0  0  # atno 8009 bound_to 7997
  155.9670  140.1134  157.0836 H   0  0  0  0  0  0  0  0  0  0  0  0  # atno 8010 bound_to 7997
  140.7070  143.3228  151.2751 H   0  0  0  0  0  0  0  0  0  0  0  0  # atno 10167 bound_to 10162
  157.1154  130.6527  149.5909 H   0  0  0  0  0  0  0  0  0  0  0  0  # atno 10718 bound_to 10713
  154.5995  135.5520  153.7360 H   0  0  0  0  0  0  0  0  0  0  0  0  # atno 10763 bound_to 10752
  153.0149  135.6363  154.1735 H   0  0  0  0  0  0  0  0  0  0  0  0  # atno 10764 bound_to 10752
  154.1675  135.2894  155.3071 H   0  0  0  0  0  0  0  0  0  0  0  0  # atno 10765 bound_to 10752
  140.9068  134.1619  157.4419 H   0  0  0  0  0  0  0  0  0  0  0  0  # atno 11005 bound_to 11000
  145.2830  139.1911  143.4781 LP  0  0  0  0  0  0  0  0  0  0  0  0  # atno 17320 bound_to 7965
  146.3324  140.2795  142.8609 LP  0  0  0  0  0  0  0  0  0  0  0  0  # atno 17321 bound_to 7965
  139.6687  144.0059  152.2739 LP  0  0  0  0  0  0  0  0  0  0  0  0  # atno 17342 bound_to 10162
  139.9650  144.6532  150.8043 LP  0  0  0  0  0  0  0  0  0  0  0  0  # atno 17343 bound_to 10162
  155.9840  130.4863  150.6964 LP  0  0  0  0  0  0  0  0  0  0  0  0  # atno 17370 bound_to 10713
  157.4523  131.0874  151.0833 LP  0  0  0  0  0  0  0  0  0  0  0  0  # atno 17371 bound_to 10713
  139.8751  134.9920  156.5576 LP  0  0  0  0  0  0  0  0  0  0  0  0  # atno 17394 bound_to 11000
  140.8160  133.8391  155.8853 LP  0  0  0  0  0  0  0  0  0  0  0  0  # atno 17395 bound_to 11000

$$$$
