AV-unprocessed.smi:153|AV-procd|sdf|1256|dock8
  -GOLD-   2262018493D 1   1.00000     0.00000
 Structure written by MMmdl.
 60 63  0  0  0  0  0  0  0  0  2 V2000
  150.3974  145.0019  159.5385 C   0  0  0  0  0  0  0  0  0  0  0  0
  150.9586  143.5693  159.4955 C   0  0  2  0  0  0  0  0  0  0  0  0
  151.5062  143.2173  160.7652 O   0  0  0  0  0  0  0  0  0  0  0  0
  152.8911  142.9356  160.6340 C   0  0  0  0  0  0  0  0  0  0  0  0
  153.0219  142.3981  159.2155 C   0  0  0  0  0  0  0  0  0  0  0  0
  152.0557  143.2797  158.4382 C   0  0  2  0  0  0  0  0  0  0  0  0
  152.7407  144.4699  158.0811 O   0  0  0  0  0  0  0  0  0  0  0  0
  151.5412  142.5993  157.1460 C   0  0  0  0  0  0  0  0  0  0  0  0
  151.0886  141.2327  157.3530 N   0  0  0  0  0  0  0  0  0  0  0  0
  150.4861  140.7290  158.4818 C   0  0  0  0  0  0  0  0  0  0  0  0
  150.1455  139.4724  158.4128 N   0  0  0  0  0  0  0  0  0  0  0  0
  150.5594  139.0649  157.1479 C   0  0  0  0  0  0  0  0  0  0  0  0
  150.4901  137.8418  156.4110 C   0  0  0  0  0  0  0  0  0  0  0  0
  149.9325  136.6815  156.8591 N   0  0  0  0  0  0  0  0  0  0  0  0
  149.7393  136.4771  158.2895 C   0  0  0  0  0  0  0  0  0  0  0  0
  149.1167  135.8893  155.9362 C   0  0  0  0  0  0  0  0  0  0  0  0
  148.0434  136.7342  155.2184 C   0  0  1  0  0  0  0  0  0  0  0  0
  148.6398  137.3532  154.0951 O   0  0  0  0  0  0  0  0  0  0  0  0
  146.8863  135.8574  154.6991 C   0  0  0  0  0  0  0  0  0  0  0  0
  147.3173  134.9153  153.6347 N   0  3  0  0  0  0  0  0  0  0  0  0
  148.0070  133.7208  154.1770 C   0  0  0  0  0  0  0  0  0  0  0  0
  148.4957  132.8185  153.0316 C   0  0  0  0  0  0  0  0  0  0  0  0
  147.3921  132.4467  152.2152 O   0  0  0  0  0  0  0  0  0  0  0  0
  146.7671  133.5762  151.6185 C   0  0  0  0  0  0  0  0  0  0  0  0
  146.2252  134.5089  152.7153 C   0  0  0  0  0  0  0  0  0  0  0  0
  151.0152  137.8504  155.1567 N   0  0  0  0  0  0  0  0  0  0  0  0
  151.5674  138.9560  154.6517 C   0  0  0  0  0  0  0  0  0  0  0  0
  151.6941  140.1556  155.2180 N   0  0  0  0  0  0  0  0  0  0  0  0
  151.1662  140.1659  156.4745 C   0  0  0  0  0  0  0  0  0  0  0  0
  149.9856  145.2966  158.5734 H   0  0  0  0  0  0  0  0  0  0  0  0
  151.1655  145.7255  159.8122 H   0  0  0  0  0  0  0  0  0  0  0  0
  149.5985  145.0804  160.2759 H   0  0  0  0  0  0  0  0  0  0  0  0
  150.1268  142.8812  159.3418 H   0  0  0  0  0  0  0  0  0  0  0  0
  153.4592  143.8593  160.7523 H   0  0  0  0  0  0  0  0  0  0  0  0
  153.2300  142.2254  161.3885 H   0  0  0  0  0  0  0  0  0  0  0  0
  154.0450  142.4265  158.8383 H   0  0  0  0  0  0  0  0  0  0  0  0
  152.6886  141.3596  159.1962 H   0  0  0  0  0  0  0  0  0  0  0  0
  152.7808  144.5227  157.1385 H   0  0  0  0  0  0  0  0  0  0  0  0
  150.7218  143.1741  156.7124 H   0  0  0  0  0  0  0  0  0  0  0  0
  152.3301  142.5795  156.3929 H   0  0  0  0  0  0  0  0  0  0  0  0
  150.2907  141.3302  159.3579 H   0  0  0  0  0  0  0  0  0  0  0  0
  150.6478  136.7163  158.8432 H   0  0  0  0  0  0  0  0  0  0  0  0
  149.4934  135.4364  158.5012 H   0  0  0  0  0  0  0  0  0  0  0  0
  148.9234  137.0965  158.6627 H   0  0  0  0  0  0  0  0  0  0  0  0
  149.7244  135.3296  155.2239 H   0  0  0  0  0  0  0  0  0  0  0  0
  148.6202  135.1267  156.5370 H   0  0  0  0  0  0  0  0  0  0  0  0
  147.6638  137.4995  155.8949 H   0  0  0  0  0  0  0  0  0  0  0  0
  148.8168  136.6898  153.4446 H   0  0  0  0  0  0  0  0  0  0  0  0
  146.4736  135.2962  155.5392 H   0  0  0  0  0  0  0  0  0  0  0  0
  146.0732  136.4784  154.3198 H   0  0  0  0  0  0  0  0  0  0  0  0
  148.8571  134.0276  154.7877 H   0  0  0  0  0  0  0  0  0  0  0  0
  147.3269  133.1673  154.8266 H   0  0  0  0  0  0  0  0  0  0  0  0
  149.2537  133.3258  152.4321 H   0  0  0  0  0  0  0  0  0  0  0  0
  148.9588  131.9172  153.4336 H   0  0  0  0  0  0  0  0  0  0  0  0
  147.4749  134.1015  150.9750 H   0  0  0  0  0  0  0  0  0  0  0  0
  145.9521  133.2328  150.9811 H   0  0  0  0  0  0  0  0  0  0  0  0
  145.4408  134.0019  153.2793 H   0  0  0  0  0  0  0  0  0  0  0  0
  145.7696  135.3819  152.2495 H   0  0  0  0  0  0  0  0  0  0  0  0
  151.9591  138.8675  153.6491 H   0  0  0  0  0  0  0  0  0  0  0  0
  148.0037  135.4100  153.0822 H   0  0  0  0  0  0  0  0  0  0  0  0
  1  2  1  0  0  0  0
  1 30  1  0  0  0  0
  1 31  1  0  0  0  0
  1 32  1  0  0  0  0
  2  6  1  0  0  0  0
  2  3  1  0  0  0  0
  2 33  1  0  0  0  0
  3  4  1  0  0  0  0
  4  5  1  0  0  0  0
  4 34  1  0  0  0  0
  4 35  1  0  0  0  0
  5  6  1  0  0  0  0
  5 36  1  0  0  0  0
  5 37  1  0  0  0  0
  6  7  1  0  0  0  0
  6  8  1  0  0  0  0
  7 38  1  0  0  0  0
  8  9  1  0  0  0  0
  8 39  1  0  0  0  0
  8 40  1  0  0  0  0
  9 29  1  0  0  0  0
  9 10  1  0  0  0  0
 10 11  2  0  0  0  0
 10 41  1  0  0  0  0
 11 12  1  0  0  0  0
 12 29  2  0  0  0  0
 12 13  1  0  0  0  0
 13 14  1  0  0  0  0
 13 26  2  0  0  0  0
 14 15  1  0  0  0  0
 14 16  1  0  0  0  0
 15 42  1  0  0  0  0
 15 43  1  0  0  0  0
 15 44  1  0  0  0  0
 16 17  1  0  0  0  0
 16 45  1  0  0  0  0
 16 46  1  0  0  0  0
 17 18  1  0  0  0  0
 17 19  1  0  0  0  0
 17 47  1  0  0  0  0
 18 48  1  0  0  0  0
 19 20  1  0  0  0  0
 19 49  1  0  0  0  0
 19 50  1  0  0  0  0
 20 25  1  0  0  0  0
 20 21  1  0  0  0  0
 20 60  1  0  0  0  0
 21 22  1  0  0  0  0
 21 51  1  0  0  0  0
 21 52  1  0  0  0  0
 22 23  1  0  0  0  0
 22 53  1  0  0  0  0
 22 54  1  0  0  0  0
 23 24  1  0  0  0  0
 24 25  1  0  0  0  0
 24 55  1  0  0  0  0
 24 56  1  0  0  0  0
 25 57  1  0  0  0  0
 25 58  1  0  0  0  0
 26 27  1  0  0  0  0
 27 28  2  0  0  0  0
 27 59  1  0  0  0  0
 28 29  1  0  0  0  0
M  CHG  1  20   1
M  END
> <s_m_source_file>
AV-unprocessed.smi

> <i_m_source_file_index>
153

> <i_lp_mmshare_version>
43012

> <i_f3d_flags>
0

> <s_epik_input>
W0NIMl0xW0NIMl1PW0NAQEhdKFtDSDNdKVtDQEBdMShbT0hdKVtDSDJdbihbY0hdbjIpYyhjMjMpbltjSF1uYzNOKFtDSDNdKVtDSDJdW0NASF0oW09IXSlbQ0gyXU40W0NIMl1bQ0gyXU9bQ0gyXVtDSDJdNA==

> <s_epik_cmdline>
J2VwaWtfcHl0aG9uJywgJy1waCcsICc3LjAnLCAnLXRuJywgJzgnLCAnLW1hJywgJzIwMCcsICctbWV0YWxfYmluZGluZycsICctaW1hZScsICc8aW5maWxlLm1hZT4nLCAnLW9tYWUnLCAnPG91dGZpbGUubWFlPic=

> <r_lp_tautomer_probability>
1

> <r_epik_Ionization_Penalty>
0.403509

> <r_epik_Ionization_Penalty_Charging>
0.40072

> <r_epik_Ionization_Penalty_Neutral>
0.00278876

> <r_epik_State_Penalty>
0.400058

> <r_epik_Charging_Adjusted_Penalty>
0.800778

> <i_epik_Tot_Q>
1

> <i_epik_Tot_abs_Q>
1

> <r_epik_Metal_State_Penalty>
0.400321

> <b_epik_Metal_Only>
0

> <s_lp_Force_Field>
OPLS_2005

> <r_lp_Energy>
47.9216

> <b_lp_Chiralities_Consistent>
1

> <s_lp_Variant>
AV-unprocessed.smi:153-7

> <Gold.Version>
5.8.1

> <Gold.Id.Protein>
6NUR|6NUR_protein|mol2

> <Gold.PLP.Fitness>
49.7981

> <Gold.PLP.PLP>
-42.0438

> <Gold.PLP.part.hbond>
-3.8783

> <Gold.PLP.part.metal>
0.0000

> <Gold.PLP.part.buried>
-8.6246

> <Gold.PLP.part.nonpolar>
-31.0144

> <Gold.PLP.part.repulsive>
0.4065

> <Gold.PLP.ligand.clash>
0.0000

> <Gold.PLP.ligand.torsion>
1.4622

> <Gold.PLP.Chemscore.Hbond>
3.3360

> <Gold.PLP.Chemscore.CHOScore>
0.0000

> <Gold.PLP.Chemscore.Metal>
0.0000

> <Gold.Chemscore.Hbonds>
donor molecule, donor type, donor heavy atom, donor atom, acceptor molecule, acceptor atom, score
      L1  H    18    48       P1  7948  1.00
      L1  H    20    60       P1  7948  2.00
      P1  H  7989  7998       L1    28  0.37

> <Gold.PLP.Chemscore.Internal.Correction>
0.6708

> <Gold.Rescore>
     Score         DG    S(hbond)    S(metal)    S(lipo)     H(rot)  DE(clash)    DE(int)     intcor
      9.73     -13.84       2.17        0.00      88.75       3.62       0.02       4.09       ----

> <Gold.Chemscore.Fitness>
9.7262

> <Gold.Chemscore.DG>
-13.8360

> <Gold.Chemscore.ZeroCoef>
-5.4800

> <Gold.Chemscore.Hbond>
2.1662

> <Gold.Chemscore.Metal>
0.0000

> <Gold.Chemscore.Lipo>
88.7481

> <Gold.Chemscore.Internal_Hbond>
0.0000

> <Gold.Chemscore.DEClash>
0.0195

> <Gold.Chemscore.DEInternal>
4.0903

> <Gold.Chemscore.Rot>
3.6182

> <Gold.Chemscore.Internal.Correction>
   9.000000E+99

> <Gold.Chemscore.Hbonds>
donor molecule, donor type, donor heavy atom, donor atom, acceptor molecule, acceptor atom, score
      L1  H    18    48       P1  7948  0.95
      L1  H    20    60       P1  7948  1.00
      P1  H  7989  7998       L1    28  0.01

> <Gold.Chemscore.Hbond.Weighted>
-7.2350

> <Gold.Chemscore.Metal.Weighted>
-0.0000

> <Gold.Chemscore.Lipo.Weighted>
-10.3835

> <Gold.Chemscore.Internal_Hbond.Weighted>
0.0000

> <Gold.Chemscore.DEClash.Weighted>
0.0195

> <Gold.Chemscore.DEInternal.Weighted>
4.0903

> <Gold.Chemscore.Rot.Weighted>
9.2625

> <Gold.Chemscore.Internal.Correction.Weighted>
   9.000000E+99

> <Gold.Protein.RotatedTorsions>
[ 6907 6896 6895 6894 ] final -113.09 input  -60.11 | X-H torsion
[ 7974 7965 7964 7962 ] final -136.74 input  175.53 | X-H torsion
[ 8008 7997 7996 7995 ] final  114.86 input   59.86 | X-H torsion
[ 10167 10162 10161 10158 ] final -167.67 input  -65.29 | X-H torsion
[ 10718 10713 10712 10709 ] final   51.48 input   66.30 | X-H torsion
[ 10763 10752 10751 10750 ] final  148.05 input  -60.55 | X-H torsion
[ 11005 11000 10999 10996 ] final   -7.75 input  -57.11 | X-H torsion

> <Gold.Protein.ActiveResidues>
 VAL166  LYS551  ARG553  GLY616  TRP617  ASP618  TYR619  PRO620  LYS621  CYS622 
 ASP623  PHE694  ASN695  SER759  ASP760  ASP761  ALA762  ILE779  LEU786  VAL792 
 PHE793  MET794  SER795  GLU796  ALA797  LYS798  CYS799  TRP800  GLU811  SER814 

> <Gold.Protein.RotatedAtoms>
  150.7804  133.8995  159.3336 H   0  0  0  0  0  0  0  0  0  0  0  0  # atno 6907 bound_to 6896
  151.6859  135.0952  160.0234 H   0  0  0  0  0  0  0  0  0  0  0  0  # atno 6908 bound_to 6896
  152.3854  133.6565  159.6229 H   0  0  0  0  0  0  0  0  0  0  0  0  # atno 6909 bound_to 6896
  144.8901  140.6629  143.5151 H   0  0  0  0  0  0  0  0  0  0  0  0  # atno 7974 bound_to 7965
  156.2347  140.2950  156.0280 H   0  0  0  0  0  0  0  0  0  0  0  0  # atno 8008 bound_to 7997
  155.2127  140.0413  157.2953 H   0  0  0  0  0  0  0  0  0  0  0  0  # atno 8009 bound_to 7997
  154.6057  140.2438  155.7742 H   0  0  0  0  0  0  0  0  0  0  0  0  # atno 8010 bound_to 7997
  139.6034  144.0963  152.1767 H   0  0  0  0  0  0  0  0  0  0  0  0  # atno 10167 bound_to 10162
  157.4984  130.8422  149.8287 H   0  0  0  0  0  0  0  0  0  0  0  0  # atno 10718 bound_to 10713
  154.0483  135.2884  155.3344 H   0  0  0  0  0  0  0  0  0  0  0  0  # atno 10763 bound_to 10752
  154.6885  135.5236  153.8363 H   0  0  0  0  0  0  0  0  0  0  0  0  # atno 10764 bound_to 10752
  153.0571  135.6599  154.0682 H   0  0  0  0  0  0  0  0  0  0  0  0  # atno 10765 bound_to 10752
  140.7161  133.8867  155.8786 H   0  0  0  0  0  0  0  0  0  0  0  0  # atno 11005 bound_to 11000
  145.3799  139.1639  143.4286 LP  0  0  0  0  0  0  0  0  0  0  0  0  # atno 17320 bound_to 7965
  146.3048  140.3879  142.8691 LP  0  0  0  0  0  0  0  0  0  0  0  0  # atno 17321 bound_to 7965
  140.0564  144.5891  150.7296 LP  0  0  0  0  0  0  0  0  0  0  0  0  # atno 17342 bound_to 10162
  140.7267  143.2644  151.4096 LP  0  0  0  0  0  0  0  0  0  0  0  0  # atno 17343 bound_to 10162
  156.0214  130.3794  150.1950 LP  0  0  0  0  0  0  0  0  0  0  0  0  # atno 17370 bound_to 10713
  157.0139  130.9959  151.3358 LP  0  0  0  0  0  0  0  0  0  0  0  0  # atno 17371 bound_to 10713
  141.0043  134.1107  157.4286 LP  0  0  0  0  0  0  0  0  0  0  0  0  # atno 17394 bound_to 11000
  139.8859  135.0077  156.6467 LP  0  0  0  0  0  0  0  0  0  0  0  0  # atno 17395 bound_to 11000

$$$$
