AV-unprocessed.smi:356|AV-procd|sdf|2413|dock7
  -GOLD-   2262022343D 1   1.00000     0.00000
 Structure written by MMmdl.
 42 44  0  0  0  0  0  0  0  0  2 V2000
  149.5443  141.4339  154.6696 C   0  0  0  0  0  0  0  0  0  0  0  0
  150.3400  141.7333  155.8954 C   0  0  0  0  0  0  0  0  0  0  0  0
  150.4984  142.9599  156.4686 N   0  3  0  0  0  0  0  0  0  0  0  0
  151.3093  142.8514  157.5996 C   0  0  0  0  0  0  0  0  0  0  0  0
  151.7499  143.8148  158.5021 C   0  0  0  0  0  0  0  0  0  0  0  0
  152.5731  143.3652  159.5556 C   0  0  0  0  0  0  0  0  0  0  0  0
  152.9281  142.0062  159.6820 C   0  0  0  0  0  0  0  0  0  0  0  0
  152.4756  141.0388  158.7606 C   0  0  0  0  0  0  0  0  0  0  0  0
  151.6620  141.4920  157.7227 C   0  0  0  0  0  0  0  0  0  0  0  0
  151.0409  140.8408  156.6520 N   0  0  0  0  0  0  0  0  0  0  0  0
  151.2110  139.3878  156.4980 C   0  0  0  0  0  0  0  0  0  0  0  0
  151.6661  138.9828  155.0820 C   0  0  1  0  0  0  0  0  0  0  0  0
  152.9107  139.5924  154.8022 O   0  0  0  0  0  0  0  0  0  0  0  0
  151.8302  137.4553  154.9590 C   0  0  0  0  0  0  0  0  0  0  0  0
  150.5988  136.7054  154.7030 N   0  0  0  0  0  0  0  0  0  0  0  0
  149.3995  137.4070  155.1590 C   0  0  0  0  0  0  0  0  0  0  0  0
  148.1227  136.5849  154.9100 C   0  0  0  0  0  0  0  0  0  0  0  0
  148.2386  135.3146  155.5420 O   0  0  0  0  0  0  0  0  0  0  0  0
  149.3695  134.5785  155.0882 C   0  0  0  0  0  0  0  0  0  0  0  0
  150.6486  135.3941  155.3421 C   0  0  0  0  0  0  0  0  0  0  0  0
  149.0720  142.3394  154.2879 H   0  0  0  0  0  0  0  0  0  0  0  0
  148.7655  140.7051  154.8939 H   0  0  0  0  0  0  0  0  0  0  0  0
  150.1903  141.0254  153.8922 H   0  0  0  0  0  0  0  0  0  0  0  0
  151.4794  144.8562  158.4074 H   0  0  0  0  0  0  0  0  0  0  0  0
  152.9397  144.0767  160.2813 H   0  0  0  0  0  0  0  0  0  0  0  0
  153.5606  141.6994  160.5025 H   0  0  0  0  0  0  0  0  0  0  0  0
  152.7522  140.0001  158.8655 H   0  0  0  0  0  0  0  0  0  0  0  0
  151.9407  139.0588  157.2389 H   0  0  0  0  0  0  0  0  0  0  0  0
  150.2702  138.9015  156.7592 H   0  0  0  0  0  0  0  0  0  0  0  0
  150.9349  139.3513  154.3641 H   0  0  0  0  0  0  0  0  0  0  0  0
  152.8277  140.0774  153.9948 H   0  0  0  0  0  0  0  0  0  0  0  0
  152.5433  137.2585  154.1568 H   0  0  0  0  0  0  0  0  0  0  0  0
  152.2969  137.0722  155.8678 H   0  0  0  0  0  0  0  0  0  0  0  0
  149.4827  137.6289  156.2240 H   0  0  0  0  0  0  0  0  0  0  0  0
  149.2977  138.3626  154.6468 H   0  0  0  0  0  0  0  0  0  0  0  0
  147.2527  137.1046  155.3116 H   0  0  0  0  0  0  0  0  0  0  0  0
  147.9510  136.4521  153.8406 H   0  0  0  0  0  0  0  0  0  0  0  0
  149.4134  133.6281  155.6205 H   0  0  0  0  0  0  0  0  0  0  0  0
  149.2619  134.3479  154.0272 H   0  0  0  0  0  0  0  0  0  0  0  0
  151.5086  134.8345  154.9726 H   0  0  0  0  0  0  0  0  0  0  0  0
  150.7923  135.5118  156.4174 H   0  0  0  0  0  0  0  0  0  0  0  0
  150.0797  143.8084  156.1100 H   0  0  0  0  0  0  0  0  0  0  0  0
  1  2  1  0  0  0  0
  1 21  1  0  0  0  0
  1 22  1  0  0  0  0
  1 23  1  0  0  0  0
  2 10  1  0  0  0  0
  2  3  2  0  0  0  0
  3  4  1  0  0  0  0
  3 42  1  0  0  0  0
  4  9  2  0  0  0  0
  4  5  1  0  0  0  0
  5  6  2  0  0  0  0
  5 24  1  0  0  0  0
  6  7  1  0  0  0  0
  6 25  1  0  0  0  0
  7  8  2  0  0  0  0
  7 26  1  0  0  0  0
  8  9  1  0  0  0  0
  8 27  1  0  0  0  0
  9 10  1  0  0  0  0
 10 11  1  0  0  0  0
 11 12  1  0  0  0  0
 11 28  1  0  0  0  0
 11 29  1  0  0  0  0
 12 13  1  0  0  0  0
 12 14  1  0  0  0  0
 12 30  1  0  0  0  0
 13 31  1  0  0  0  0
 14 15  1  0  0  0  0
 14 32  1  0  0  0  0
 14 33  1  0  0  0  0
 15 20  1  0  0  0  0
 15 16  1  0  0  0  0
 16 17  1  0  0  0  0
 16 34  1  0  0  0  0
 16 35  1  0  0  0  0
 17 18  1  0  0  0  0
 17 36  1  0  0  0  0
 17 37  1  0  0  0  0
 18 19  1  0  0  0  0
 19 20  1  0  0  0  0
 19 38  1  0  0  0  0
 19 39  1  0  0  0  0
 20 40  1  0  0  0  0
 20 41  1  0  0  0  0
M  CHG  1   3   1
M  END
> <s_m_source_file>
AV-unprocessed.smi

> <i_m_source_file_index>
356

> <i_lp_mmshare_version>
43012

> <i_f3d_flags>
0

> <s_epik_input>
W2NIXTFbY0hdW2NIXVtjSF1jKGMxMiluKGMobjIpW0NIM10pW0NIMl1bQ0BIXShbT0hdKVtDSDJdTjNbQ0gyXVtDSDJdT1tDSDJdW0NIMl0z

> <s_epik_cmdline>
J2VwaWtfcHl0aG9uJywgJy1waCcsICc3LjAnLCAnLXRuJywgJzgnLCAnLW1hJywgJzIwMCcsICctbWV0YWxfYmluZGluZycsICctaW1hZScsICc8aW5maWxlLm1hZT4nLCAnLW9tYWUnLCAnPG91dGZpbGUubWFlPic=

> <r_epik_Ionization_Penalty>
1.35865

> <r_epik_Ionization_Penalty_Charging>
1.14429

> <r_epik_Ionization_Penalty_Neutral>
0.214359

> <r_epik_State_Penalty>
1.39809

> <r_epik_Charging_Adjusted_Penalty>
2.54238

> <i_epik_Tot_Q>
1

> <i_epik_Tot_abs_Q>
1

> <r_epik_Metal_State_Penalty>
5.40564

> <b_epik_Metal_Only>
0

> <s_lp_Force_Field>
OPLS_2005

> <r_lp_Energy>
32.3817

> <b_lp_Chiralities_Consistent>
1

> <s_lp_Variant>
AV-unprocessed.smi:356-6

> <Gold.Version>
5.8.1

> <Gold.Id.Protein>
6NUR|6NUR_protein|mol2

> <Gold.PLP.Fitness>
47.6626

> <Gold.PLP.PLP>
-40.1960

> <Gold.PLP.part.hbond>
-2.9276

> <Gold.PLP.part.metal>
0.0000

> <Gold.PLP.part.buried>
-3.0493

> <Gold.PLP.part.nonpolar>
-34.3178

> <Gold.PLP.part.repulsive>
0.3151

> <Gold.PLP.ligand.clash>
0.0143

> <Gold.PLP.ligand.torsion>
0.7620

> <Gold.PLP.Chemscore.Hbond>
3.0000

> <Gold.PLP.Chemscore.CHOScore>
0.0000

> <Gold.PLP.Chemscore.Metal>
0.0000

> <Gold.Chemscore.Hbonds>
donor molecule, donor type, donor heavy atom, donor atom, acceptor molecule, acceptor atom, score
      L1  H     3    42       P1  8028  2.00
      P1  H  7997  8008       L1    13  1.00

> <Gold.PLP.Chemscore.Internal.Correction>
0.0049

> <Gold.Rescore>
     Score         DG    S(hbond)    S(metal)    S(lipo)     H(rot)  DE(clash)    DE(int)     intcor
     17.43     -19.34       1.97        0.00     107.32       2.05       0.27       1.65       ----

> <Gold.Chemscore.Fitness>
17.4290

> <Gold.Chemscore.DG>
-19.3423

> <Gold.Chemscore.ZeroCoef>
-5.4800

> <Gold.Chemscore.Hbond>
1.9651

> <Gold.Chemscore.Metal>
0.0000

> <Gold.Chemscore.Lipo>
107.3223

> <Gold.Chemscore.Internal_Hbond>
0.0000

> <Gold.Chemscore.DEClash>
0.2660

> <Gold.Chemscore.DEInternal>
1.6474

> <Gold.Chemscore.Rot>
2.0539

> <Gold.Chemscore.Internal.Correction>
   9.000000E+99

> <Gold.Chemscore.Hbonds>
donor molecule, donor type, donor heavy atom, donor atom, acceptor molecule, acceptor atom, score
      L1  H     3    42       P1  8028  0.95
      P1  H  7997  8008       L1    13  0.85

> <Gold.Chemscore.Hbond.Weighted>
-6.5635

> <Gold.Chemscore.Metal.Weighted>
-0.0000

> <Gold.Chemscore.Lipo.Weighted>
-12.5567

> <Gold.Chemscore.Internal_Hbond.Weighted>
0.0000

> <Gold.Chemscore.DEClash.Weighted>
0.2660

> <Gold.Chemscore.DEInternal.Weighted>
1.6474

> <Gold.Chemscore.Rot.Weighted>
5.2579

> <Gold.Chemscore.Internal.Correction.Weighted>
   9.000000E+99

> <Gold.Protein.RotatedTorsions>
[ 6907 6896 6895 6894 ] final  115.19 input  -60.11 | X-H torsion
[ 7974 7965 7964 7962 ] final -158.29 input  175.53 | X-H torsion
[ 8008 7997 7996 7995 ] final  -21.48 input   59.86 | X-H torsion
[ 10167 10162 10161 10158 ] final  144.97 input  -65.29 | X-H torsion
[ 10718 10713 10712 10709 ] final    4.28 input   66.30 | X-H torsion
[ 10763 10752 10751 10750 ] final   23.97 input  -60.55 | X-H torsion
[ 11005 11000 10999 10996 ] final  -97.77 input  -57.11 | X-H torsion

> <Gold.Protein.ActiveResidues>
 VAL166  LYS551  ARG553  GLY616  TRP617  ASP618  TYR619  PRO620  LYS621  CYS622 
 ASP623  PHE694  ASN695  SER759  ASP760  ASP761  ALA762  ILE779  LEU786  VAL792 
 PHE793  MET794  SER795  GLU796  ALA797  LYS798  CYS799  TRP800  GLU811  SER814 

> <Gold.Protein.RotatedAtoms>
  152.4756  133.8132  159.7013 H   0  0  0  0  0  0  0  0  0  0  0  0  # atno 6907 bound_to 6896
  150.8772  133.7413  159.2949 H   0  0  0  0  0  0  0  0  0  0  0  0  # atno 6908 bound_to 6896
  151.4929  135.1062  159.9860 H   0  0  0  0  0  0  0  0  0  0  0  0  # atno 6909 bound_to 6896
  144.7512  140.3849  143.6047 H   0  0  0  0  0  0  0  0  0  0  0  0  # atno 7974 bound_to 7965
  154.4703  140.2033  156.0013 H   0  0  0  0  0  0  0  0  0  0  0  0  # atno 8008 bound_to 7997
  156.0999  140.3245  155.7898 H   0  0  0  0  0  0  0  0  0  0  0  0  # atno 8009 bound_to 7997
  155.4816  140.0539  157.2957 H   0  0  0  0  0  0  0  0  0  0  0  0  # atno 8010 bound_to 7997
  139.4936  144.5935  151.6632 H   0  0  0  0  0  0  0  0  0  0  0  0  # atno 10167 bound_to 10162
  156.8902  130.5685  149.5650 H   0  0  0  0  0  0  0  0  0  0  0  0  # atno 10718 bound_to 10713
  153.0798  135.6615  154.0068 H   0  0  0  0  0  0  0  0  0  0  0  0  # atno 10763 bound_to 10752
  153.9693  135.2966  155.3430 H   0  0  0  0  0  0  0  0  0  0  0  0  # atno 10764 bound_to 10752
  154.7195  135.5171  153.8861 H   0  0  0  0  0  0  0  0  0  0  0  0  # atno 10765 bound_to 10752
  141.1368  133.8195  157.0750 H   0  0  0  0  0  0  0  0  0  0  0  0  # atno 11005 bound_to 11000
  145.6938  139.1645  143.2631 LP  0  0  0  0  0  0  0  0  0  0  0  0  # atno 17320 bound_to 7965
  146.1464  140.6987  142.9343 LP  0  0  0  0  0  0  0  0  0  0  0  0  # atno 17321 bound_to 7965
  140.5567  144.0336  150.6151 LP  0  0  0  0  0  0  0  0  0  0  0  0  # atno 17342 bound_to 10162
  140.3408  143.3021  152.0590 LP  0  0  0  0  0  0  0  0  0  0  0  0  # atno 17343 bound_to 10162
  156.0633  130.5681  150.9237 LP  0  0  0  0  0  0  0  0  0  0  0  0  # atno 17370 bound_to 10713
  157.6088  131.0937  150.8832 LP  0  0  0  0  0  0  0  0  0  0  0  0  # atno 17371 bound_to 10713
  140.0487  134.9817  157.1097 LP  0  0  0  0  0  0  0  0  0  0  0  0  # atno 17394 bound_to 11000
  140.4023  134.2070  155.7163 LP  0  0  0  0  0  0  0  0  0  0  0  0  # atno 17395 bound_to 11000

$$$$
