AV-unprocessed.smi:2822|AV-procd|sdf|10874|dock2
  -GOLD-   2272015313D 1   1.00000     0.00000
 Structure written by MMmdl.
 40 42  0  0  0  0  0  0  0  0  2 V2000
  146.6794  142.3322  153.7452 Cl  0  0  0  0  0  0  0  0  0  0  0  0
  147.8624  141.0915  153.9720 C   0  0  0  0  0  0  0  0  0  0  0  0
  149.1113  141.4119  154.5429 C   0  0  0  0  0  0  0  0  0  0  0  0
  150.0888  140.5049  154.7501 N   0  0  0  0  0  0  0  0  0  0  0  0
  149.8470  139.2272  154.3902 C   0  0  0  0  0  0  0  0  0  0  0  0
  148.6346  138.7996  153.8126 C   0  0  0  0  0  0  0  0  0  0  0  0
  147.6119  139.7524  153.5938 C   0  0  0  0  0  0  0  0  0  0  0  0
  146.3759  139.4151  153.0220 N   0  0  0  0  0  0  0  0  0  0  0  0
  146.1923  138.1557  152.3181 C   0  0  0  0  0  0  0  0  0  0  0  0
  145.2096  137.2326  153.0655 C   0  0  2  0  0  0  0  0  0  0  0  0
  145.9118  136.1144  153.8583 C   0  0  0  0  0  0  0  0  0  0  0  0
  146.4773  135.0841  152.9557 N   0  3  1  0  0  0  0  0  0  0  0  0
  147.1903  134.0171  153.7032 C   0  0  0  0  0  0  0  0  0  0  0  0
  147.8413  133.0066  152.7460 C   0  0  0  0  0  0  0  0  0  0  0  0
  146.7982  132.4073  151.7951 C   0  0  0  0  0  0  0  0  0  0  0  0
  146.0607  133.5292  151.0525 C   0  0  0  0  0  0  0  0  0  0  0  0
  145.4402  134.5426  152.0359 C   0  0  2  0  0  0  0  0  0  0  0  0
  144.7516  135.6950  151.2802 C   0  0  0  0  0  0  0  0  0  0  0  0
  144.2349  136.6538  152.1972 O   0  0  0  0  0  0  0  0  0  0  0  0
  149.3324  142.4263  154.8406 H   0  0  0  0  0  0  0  0  0  0  0  0
  150.6449  138.5214  154.5684 H   0  0  0  0  0  0  0  0  0  0  0  0
  148.5117  137.7589  153.5539 H   0  0  0  0  0  0  0  0  0  0  0  0
  145.6691  140.1311  152.9252 H   0  0  0  0  0  0  0  0  0  0  0  0
  145.8573  138.3427  151.2981 H   0  0  0  0  0  0  0  0  0  0  0  0
  147.1627  137.6636  152.2429 H   0  0  0  0  0  0  0  0  0  0  0  0
  144.6635  137.8485  153.7813 H   0  0  0  0  0  0  0  0  0  0  0  0
  146.7005  136.5357  154.4831 H   0  0  0  0  0  0  0  0  0  0  0  0
  145.1949  135.6420  154.5321 H   0  0  0  0  0  0  0  0  0  0  0  0
  147.9571  134.4654  154.3360 H   0  0  0  0  0  0  0  0  0  0  0  0
  146.4909  133.5057  154.3667 H   0  0  0  0  0  0  0  0  0  0  0  0
  148.6263  133.4979  152.1695 H   0  0  0  0  0  0  0  0  0  0  0  0
  148.3255  132.2127  153.3155 H   0  0  0  0  0  0  0  0  0  0  0  0
  147.2789  131.7359  151.0828 H   0  0  0  0  0  0  0  0  0  0  0  0
  146.0845  131.8061  152.3598 H   0  0  0  0  0  0  0  0  0  0  0  0
  146.7579  134.0389  150.3858 H   0  0  0  0  0  0  0  0  0  0  0  0
  145.2848  133.1003  150.4170 H   0  0  0  0  0  0  0  0  0  0  0  0
  144.6889  134.0293  152.6392 H   0  0  0  0  0  0  0  0  0  0  0  0
  145.4338  136.1679  150.5733 H   0  0  0  0  0  0  0  0  0  0  0  0
  143.9214  135.3076  150.6891 H   0  0  0  0  0  0  0  0  0  0  0  0
  147.1655  135.5463  152.3787 H   0  0  0  0  0  0  0  0  0  0  0  0
  1  2  1  0  0  0  0
  2  7  1  0  0  0  0
  2  3  2  0  0  0  0
  3  4  1  0  0  0  0
  3 20  1  0  0  0  0
  4  5  2  0  0  0  0
  5  6  1  0  0  0  0
  5 21  1  0  0  0  0
  6  7  2  0  0  0  0
  6 22  1  0  0  0  0
  7  8  1  0  0  0  0
  8  9  1  0  0  0  0
  8 23  1  0  0  0  0
  9 10  1  0  0  0  0
  9 24  1  0  0  0  0
  9 25  1  0  0  0  0
 10 19  1  0  0  0  0
 10 11  1  0  0  0  0
 10 26  1  0  0  0  0
 11 12  1  0  0  0  0
 11 27  1  0  0  0  0
 11 28  1  0  0  0  0
 12 17  1  0  0  0  0
 12 13  1  0  0  0  0
 12 40  1  0  0  0  0
 13 14  1  0  0  0  0
 13 29  1  0  0  0  0
 13 30  1  0  0  0  0
 14 15  1  0  0  0  0
 14 31  1  0  0  0  0
 14 32  1  0  0  0  0
 15 16  1  0  0  0  0
 15 33  1  0  0  0  0
 15 34  1  0  0  0  0
 16 17  1  0  0  0  0
 16 35  1  0  0  0  0
 16 36  1  0  0  0  0
 17 18  1  0  0  0  0
 17 37  1  0  0  0  0
 18 19  1  0  0  0  0
 18 38  1  0  0  0  0
 18 39  1  0  0  0  0
M  CHG  1  12   1
M  END
> <s_m_source_file>
AV-unprocessed.smi

> <i_m_source_file_index>
2822

> <i_lp_mmshare_version>
43012

> <i_f3d_flags>
0

> <s_epik_input>
Q2xjMVtjSF1uW2NIXVtjSF1jMVtOSF1bQ0gyXVtDQEhdKFtDSDJdMilPW0NIMl1bQ0BASF0oTjIzKVtDSDJdW0NIMl1bQ0gyXVtDSDJdMw==

> <s_epik_cmdline>
J2VwaWtfcHl0aG9uJywgJy1waCcsICc3LjAnLCAnLXRuJywgJzgnLCAnLW1hJywgJzIwMCcsICctbWV0YWxfYmluZGluZycsICctaW1hZScsICc8aW5maWxlLm1hZT4nLCAnLW9tYWUnLCAnPG91dGZpbGUubWFlPic=

> <r_lp_tautomer_probability>
0.999999

> <r_epik_Ionization_Penalty>
0.88937

> <r_epik_Ionization_Penalty_Charging>
0.0803403

> <r_epik_Ionization_Penalty_Neutral>
0.80903

> <r_epik_State_Penalty>
0.931884

> <r_epik_Charging_Adjusted_Penalty>
1.01222

> <i_epik_Tot_Q>
1

> <i_epik_Tot_abs_Q>
1

> <r_epik_Metal_State_Penalty>
0.0782275

> <b_epik_Metal_Only>
0

> <s_lp_Force_Field>
OPLS_2005

> <r_lp_Energy>
31.959

> <b_lp_Chiralities_Consistent>
1

> <s_lp_Variant>
AV-unprocessed.smi:2822-15

> <Gold.Version>
5.8.1

> <Gold.Id.Protein>
6NUR|6NUR_protein|mol2

> <Gold.PLP.Fitness>
46.7741

> <Gold.PLP.PLP>
-34.0377

> <Gold.PLP.part.hbond>
-3.0000

> <Gold.PLP.part.metal>
0.0000

> <Gold.PLP.part.buried>
-2.3851

> <Gold.PLP.part.nonpolar>
-30.0095

> <Gold.PLP.part.repulsive>
0.5517

> <Gold.PLP.ligand.clash>
0.0000

> <Gold.PLP.ligand.torsion>
0.7024

> <Gold.PLP.Chemscore.Hbond>
3.7115

> <Gold.PLP.Chemscore.CHOScore>
1.0000

> <Gold.PLP.Chemscore.Metal>
0.0000

> <Gold.Chemscore.Hbonds>
donor molecule, donor type, donor heavy atom, donor atom, acceptor molecule, acceptor atom, score
      L1  H     8    23       P1 10175  0.83
      L1  H    12    40       P1  7948  2.00
      P1  H  7989  7998       L1     4  0.88
      L1  C     3    20       P1  8028  1.00

> <Gold.PLP.Chemscore.Internal.Correction>
0.0068

> <Gold.Rescore>
     Score         DG    S(hbond)    S(metal)    S(lipo)     H(rot)  DE(clash)    DE(int)     intcor
     17.06     -17.85       1.95        0.00      75.74       1.17       0.05       0.74       ----

> <Gold.Chemscore.Fitness>
17.0586

> <Gold.Chemscore.DG>
-17.8512

> <Gold.Chemscore.ZeroCoef>
-5.4800

> <Gold.Chemscore.Hbond>
1.9469

> <Gold.Chemscore.Metal>
0.0000

> <Gold.Chemscore.Lipo>
75.7423

> <Gold.Chemscore.Internal_Hbond>
0.0000

> <Gold.Chemscore.DEClash>
0.0524

> <Gold.Chemscore.DEInternal>
0.7402

> <Gold.Chemscore.Rot>
1.1693

> <Gold.Chemscore.Internal.Correction>
   9.000000E+99

> <Gold.Chemscore.Hbonds>
donor molecule, donor type, donor heavy atom, donor atom, acceptor molecule, acceptor atom, score
      L1  H     8    23       P1 10175  0.76
      L1  H    12    40       P1  7948  0.98
      P1  H  7989  7998       L1     4  0.13

> <Gold.Chemscore.Hbond.Weighted>
-6.5027

> <Gold.Chemscore.Metal.Weighted>
-0.0000

> <Gold.Chemscore.Lipo.Weighted>
-8.8619

> <Gold.Chemscore.Internal_Hbond.Weighted>
0.0000

> <Gold.Chemscore.DEClash.Weighted>
0.0524

> <Gold.Chemscore.DEInternal.Weighted>
0.7402

> <Gold.Chemscore.Rot.Weighted>
2.9934

> <Gold.Chemscore.Internal.Correction.Weighted>
   9.000000E+99

> <Gold.Protein.RotatedTorsions>
[ 6907 6896 6895 6894 ] final   50.82 input  -60.11 | X-H torsion
[ 7974 7965 7964 7962 ] final -155.24 input  175.53 | X-H torsion
[ 8008 7997 7996 7995 ] final   85.73 input   59.86 | X-H torsion
[ 10167 10162 10161 10158 ] final  130.77 input  -65.29 | X-H torsion
[ 10718 10713 10712 10709 ] final  -88.43 input   66.30 | X-H torsion
[ 10763 10752 10751 10750 ] final  167.62 input  -60.55 | X-H torsion
[ 11005 11000 10999 10996 ] final  111.46 input  -57.11 | X-H torsion

> <Gold.Protein.ActiveResidues>
 VAL166  LYS551  ARG553  GLY616  TRP617  ASP618  TYR619  PRO620  LYS621  CYS622 
 ASP623  PHE694  ASN695  SER759  ASP760  ASP761  ALA762  ILE779  LEU786  VAL792 
 PHE793  MET794  SER795  GLU796  ALA797  LYS798  CYS799  TRP800  GLU811  SER814 

> <Gold.Protein.RotatedAtoms>
  152.3060  134.7555  160.0347 H   0  0  0  0  0  0  0  0  0  0  0  0  # atno 6907 bound_to 6896
  151.8052  133.3369  159.3547 H   0  0  0  0  0  0  0  0  0  0  0  0  # atno 6908 bound_to 6896
  150.7296  134.5646  159.5904 H   0  0  0  0  0  0  0  0  0  0  0  0  # atno 6909 bound_to 6896
  144.7649  140.4276  143.5949 H   0  0  0  0  0  0  0  0  0  0  0  0  # atno 7974 bound_to 7965
  155.9537  140.3399  155.6430 H   0  0  0  0  0  0  0  0  0  0  0  0  # atno 8008 bound_to 7997
  155.6887  140.0746  157.2475 H   0  0  0  0  0  0  0  0  0  0  0  0  # atno 8009 bound_to 7997
  154.4127  140.1661  156.2050 H   0  0  0  0  0  0  0  0  0  0  0  0  # atno 8010 bound_to 7997
  139.5414  144.6734  151.4611 H   0  0  0  0  0  0  0  0  0  0  0  0  # atno 10167 bound_to 10162
  155.9983  130.4835  150.5018 H   0  0  0  0  0  0  0  0  0  0  0  0  # atno 10718 bound_to 10713
  154.3565  135.2753  155.2344 H   0  0  0  0  0  0  0  0  0  0  0  0  # atno 10763 bound_to 10752
  154.4550  135.5921  153.6221 H   0  0  0  0  0  0  0  0  0  0  0  0  # atno 10764 bound_to 10752
  152.9846  135.6051  154.3780 H   0  0  0  0  0  0  0  0  0  0  0  0  # atno 10765 bound_to 10752
  139.8904  134.9508  156.6435 H   0  0  0  0  0  0  0  0  0  0  0  0  # atno 11005 bound_to 11000
  145.6500  139.1563  143.2867 LP  0  0  0  0  0  0  0  0  0  0  0  0  # atno 17320 bound_to 7965
  146.1748  140.6590  142.9216 LP  0  0  0  0  0  0  0  0  0  0  0  0  # atno 17321 bound_to 7965
  140.6646  143.8426  150.6927 LP  0  0  0  0  0  0  0  0  0  0  0  0  # atno 17342 bound_to 10162
  140.1831  143.4098  152.1918 LP  0  0  0  0  0  0  0  0  0  0  0  0  # atno 17343 bound_to 10162
  157.3002  131.0643  151.2073 LP  0  0  0  0  0  0  0  0  0  0  0  0  # atno 17370 bound_to 10713
  157.3055  130.6864  149.6187 LP  0  0  0  0  0  0  0  0  0  0  0  0  # atno 17371 bound_to 10713
  140.7575  133.8845  155.8393 LP  0  0  0  0  0  0  0  0  0  0  0  0  # atno 17394 bound_to 11000
  140.9949  134.1228  157.4373 LP  0  0  0  0  0  0  0  0  0  0  0  0  # atno 17395 bound_to 11000

$$$$
