AV-unprocessed.smi:560|AV-procd|sdf|2930|dock4
  -GOLD-   2262023423D 1   1.00000     0.00000
 Structure written by MMmdl.
 42 43  0  0  0  0  0  0  0  0  2 V2000
  151.8035  139.9397  158.5472 C   0  0  0  0  0  0  0  0  0  0  0  0
  150.8437  141.0614  158.1012 C   0  0  2  0  0  0  0  0  0  0  0  0
  150.3492  140.8913  156.6548 C   0  0  0  0  0  0  0  0  0  0  0  0
  149.5639  141.6978  156.1555 O   0  0  0  0  0  0  0  0  0  0  0  0
  150.8274  139.8282  155.9874 N   0  0  0  0  0  0  0  0  0  0  0  0
  150.4702  139.4542  154.6201 C   0  0  2  0  0  0  0  0  0  0  0  0
  148.9835  139.0662  154.5428 C   0  0  0  0  0  0  0  0  0  0  0  0
  148.7021  137.7125  155.2206 C   0  0  0  0  0  0  0  0  0  0  0  0
  149.5581  136.6386  154.6553 N   0  3  2  0  0  0  0  0  0  0  0  0
  149.2088  135.2960  155.1869 C   0  0  0  0  0  0  0  0  0  0  0  0
  147.7938  134.8499  154.8040 C   0  0  0  0  0  0  0  0  0  0  0  0
  147.5058  134.8111  153.5011 N   0  0  0  0  0  0  0  0  0  0  0  0
  146.9768  134.5302  155.6656 O   0  0  0  0  0  0  0  0  0  0  0  0
  151.0032  136.9632  154.7910 C   0  0  0  0  0  0  0  0  0  0  0  0
  151.3388  138.2935  154.0951 C   0  0  0  0  0  0  0  0  0  0  0  0
  151.4279  142.3846  158.2903 N   0  0  0  0  0  0  0  0  0  0  0  0
  151.4050  143.4547  157.4192 C   0  0  0  0  0  0  0  0  0  0  0  0
  152.1048  144.4728  158.0005 C   0  0  0  0  0  0  0  0  0  0  0  0
  152.5326  143.9237  159.2410 C   0  0  0  0  0  0  0  0  0  0  0  0
  152.1335  142.6738  159.4084 N   0  0  0  0  0  0  0  0  0  0  0  0
  151.3297  138.9609  158.4672 H   0  0  0  0  0  0  0  0  0  0  0  0
  152.0998  140.0733  159.5880 H   0  0  0  0  0  0  0  0  0  0  0  0
  152.7140  139.9171  157.9468 H   0  0  0  0  0  0  0  0  0  0  0  0
  149.9632  141.0049  158.7437 H   0  0  0  0  0  0  0  0  0  0  0  0
  151.4627  139.2156  156.4778 H   0  0  0  0  0  0  0  0  0  0  0  0
  150.6249  140.3270  153.9830 H   0  0  0  0  0  0  0  0  0  0  0  0
  148.3649  139.8456  154.9900 H   0  0  0  0  0  0  0  0  0  0  0  0
  148.6844  139.0072  153.4954 H   0  0  0  0  0  0  0  0  0  0  0  0
  148.8674  137.7828  156.2969 H   0  0  0  0  0  0  0  0  0  0  0  0
  147.6514  137.4574  155.0788 H   0  0  0  0  0  0  0  0  0  0  0  0
  149.9460  134.5605  154.8605 H   0  0  0  0  0  0  0  0  0  0  0  0
  149.2439  135.3127  156.2771 H   0  0  0  0  0  0  0  0  0  0  0  0
  146.5870  134.5292  153.1904 H   0  0  0  0  0  0  0  0  0  0  0  0
  148.2106  135.0700  152.8250 H   0  0  0  0  0  0  0  0  0  0  0  0
  151.2711  137.0112  155.8476 H   0  0  0  0  0  0  0  0  0  0  0  0
  151.6092  136.1706  154.3513 H   0  0  0  0  0  0  0  0  0  0  0  0
  151.1750  138.1831  153.0224 H   0  0  0  0  0  0  0  0  0  0  0  0
  152.3990  138.5202  154.2133 H   0  0  0  0  0  0  0  0  0  0  0  0
  150.8971  143.4041  156.4674 H   0  0  0  0  0  0  0  0  0  0  0  0
  152.2854  145.4591  157.6000 H   0  0  0  0  0  0  0  0  0  0  0  0
  153.1200  144.3914  160.0174 H   0  0  0  0  0  0  0  0  0  0  0  0
  149.3567  136.6064  153.6655 H   0  0  0  0  0  0  0  0  0  0  0  0
  1  2  1  0  0  0  0
  1 21  1  0  0  0  0
  1 22  1  0  0  0  0
  1 23  1  0  0  0  0
  2  3  1  0  0  0  0
  2 16  1  0  0  0  0
  2 24  1  0  0  0  0
  3  4  2  0  0  0  0
  3  5  1  0  0  0  0
  5  6  1  0  0  0  0
  5 25  1  0  0  0  0
  6 15  1  0  0  0  0
  6  7  1  0  0  0  0
  6 26  1  0  0  0  0
  7  8  1  0  0  0  0
  7 27  1  0  0  0  0
  7 28  1  0  0  0  0
  8  9  1  0  0  0  0
  8 29  1  0  0  0  0
  8 30  1  0  0  0  0
  9 10  1  0  0  0  0
  9 14  1  0  0  0  0
  9 42  1  0  0  0  0
 10 11  1  0  0  0  0
 10 31  1  0  0  0  0
 10 32  1  0  0  0  0
 11 12  1  0  0  0  0
 11 13  2  0  0  0  0
 12 33  1  0  0  0  0
 12 34  1  0  0  0  0
 14 15  1  0  0  0  0
 14 35  1  0  0  0  0
 14 36  1  0  0  0  0
 15 37  1  0  0  0  0
 15 38  1  0  0  0  0
 16 20  1  0  0  0  0
 16 17  1  0  0  0  0
 17 18  2  0  0  0  0
 17 39  1  0  0  0  0
 18 19  1  0  0  0  0
 18 40  1  0  0  0  0
 19 20  2  0  0  0  0
 19 41  1  0  0  0  0
M  CHG  1   9   1
M  END
> <s_m_source_file>
AV-unprocessed.smi

> <i_m_source_file_index>
560

> <i_lp_mmshare_version>
43012

> <i_f3d_flags>
0

> <s_epik_input>
bjFbY0hdW2NIXVtjSF1uMVtDQEhdKFtDSDNdKUMoPU8pW05IXVtDSF0yW0NIMl1bQ0gyXU4oW0NIMl1bQ0gyXTIpW0NIMl1DKD1PKVtOSDJd

> <s_epik_cmdline>
J2VwaWtfcHl0aG9uJywgJy1waCcsICc3LjAnLCAnLXRuJywgJzgnLCAnLW1hJywgJzIwMCcsICctbWV0YWxfYmluZGluZycsICctaW1hZScsICc8aW5maWxlLm1hZT4nLCAnLW9tYWUnLCAnPG91dGZpbGUubWFlPic=

> <r_lp_tautomer_probability>
1

> <r_epik_Ionization_Penalty>
1.02943

> <r_epik_Ionization_Penalty_Charging>
1.02936

> <r_epik_Ionization_Penalty_Neutral>
7.4537e-05

> <r_epik_State_Penalty>
1.08036

> <r_epik_Charging_Adjusted_Penalty>
2.10972

> <i_epik_Tot_Q>
1

> <i_epik_Tot_abs_Q>
1

> <r_epik_Metal_State_Penalty>
1.09347

> <b_epik_Metal_Only>
0

> <s_lp_Force_Field>
OPLS_2005

> <r_lp_Energy>
16.2494

> <b_lp_Chiralities_Consistent>
1

> <s_lp_Variant>
AV-unprocessed.smi:560-5

> <Gold.Version>
5.8.1

> <Gold.Id.Protein>
6NUR|6NUR_protein|mol2

> <Gold.PLP.Fitness>
44.9951

> <Gold.PLP.PLP>
-34.1163

> <Gold.PLP.part.hbond>
-2.0000

> <Gold.PLP.part.metal>
0.0000

> <Gold.PLP.part.buried>
-5.4140

> <Gold.PLP.part.nonpolar>
-27.6712

> <Gold.PLP.part.repulsive>
0.2432

> <Gold.PLP.ligand.clash>
0.2956

> <Gold.PLP.ligand.torsion>
0.4500

> <Gold.PLP.Chemscore.Hbond>
3.0000

> <Gold.PLP.Chemscore.CHOScore>
0.9721

> <Gold.PLP.Chemscore.Metal>
0.0000

> <Gold.Chemscore.Hbonds>
donor molecule, donor type, donor heavy atom, donor atom, acceptor molecule, acceptor atom, score
      L1  H     9    42       P1  7948  2.00
      L1  H    12    34       P1  7948  1.00
      L1  C    17    39       P1  8028  0.97

> <Gold.PLP.Chemscore.Internal.Correction>
0.1581

> <Gold.Rescore>
     Score         DG    S(hbond)    S(metal)    S(lipo)     H(rot)  DE(clash)    DE(int)     intcor
     13.77     -15.41       1.99        0.00      83.31       2.52       0.20       1.44       ----

> <Gold.Chemscore.Fitness>
13.7651

> <Gold.Chemscore.DG>
-15.4119

> <Gold.Chemscore.ZeroCoef>
-5.4800

> <Gold.Chemscore.Hbond>
1.9902

> <Gold.Chemscore.Metal>
0.0000

> <Gold.Chemscore.Lipo>
83.3061

> <Gold.Chemscore.Internal_Hbond>
0.0000

> <Gold.Chemscore.DEClash>
0.2040

> <Gold.Chemscore.DEInternal>
1.4428

> <Gold.Chemscore.Rot>
2.5243

> <Gold.Chemscore.Internal.Correction>
   9.000000E+99

> <Gold.Chemscore.Hbonds>
donor molecule, donor type, donor heavy atom, donor atom, acceptor molecule, acceptor atom, score
      L1  H     9    42       P1  7948  0.91
      L1  H    12    34       P1  7948  0.87

> <Gold.Chemscore.Hbond.Weighted>
-6.6473

> <Gold.Chemscore.Metal.Weighted>
-0.0000

> <Gold.Chemscore.Lipo.Weighted>
-9.7468

> <Gold.Chemscore.Internal_Hbond.Weighted>
0.0000

> <Gold.Chemscore.DEClash.Weighted>
0.2040

> <Gold.Chemscore.DEInternal.Weighted>
1.4428

> <Gold.Chemscore.Rot.Weighted>
6.4622

> <Gold.Chemscore.Internal.Correction.Weighted>
   9.000000E+99

> <Gold.Protein.RotatedTorsions>
[ 6907 6896 6895 6894 ] final  176.09 input  -60.11 | X-H torsion
[ 7974 7965 7964 7962 ] final  104.59 input  175.53 | X-H torsion
[ 8008 7997 7996 7995 ] final  152.20 input   59.86 | X-H torsion
[ 10167 10162 10161 10158 ] final  -56.82 input  -65.29 | X-H torsion
[ 10718 10713 10712 10709 ] final -109.70 input   66.30 | X-H torsion
[ 10763 10752 10751 10750 ] final  -86.69 input  -60.55 | X-H torsion
[ 11005 11000 10999 10996 ] final -130.42 input  -57.11 | X-H torsion

> <Gold.Protein.ActiveResidues>
 VAL166  LYS551  ARG553  GLY616  TRP617  ASP618  TYR619  PRO620  LYS621  CYS622 
 ASP623  PHE694  ASN695  SER759  ASP760  ASP761  ALA762  ILE779  LEU786  VAL792 
 PHE793  MET794  SER795  GLU796  ALA797  LYS798  CYS799  TRP800  GLU811  SER814 

> <Gold.Protein.RotatedAtoms>
  151.7258  133.3316  159.3326 H   0  0  0  0  0  0  0  0  0  0  0  0  # atno 6907 bound_to 6896
  150.7633  134.6408  159.6245 H   0  0  0  0  0  0  0  0  0  0  0  0  # atno 6908 bound_to 6896
  152.3623  134.6856  160.0255 H   0  0  0  0  0  0  0  0  0  0  0  0  # atno 6909 bound_to 6896
  145.3308  139.2487  143.3662 H   0  0  0  0  0  0  0  0  0  0  0  0  # atno 7974 bound_to 7965
  156.2640  140.2027  156.6296 H   0  0  0  0  0  0  0  0  0  0  0  0  # atno 8008 bound_to 7997
  154.6693  140.0552  157.0172 H   0  0  0  0  0  0  0  0  0  0  0  0  # atno 8009 bound_to 7997
  155.1160  140.3220  155.4512 H   0  0  0  0  0  0  0  0  0  0  0  0  # atno 8010 bound_to 7997
  140.6294  143.2453  151.5279 H   0  0  0  0  0  0  0  0  0  0  0  0  # atno 10167 bound_to 10162
  156.0551  130.5777  150.8136 H   0  0  0  0  0  0  0  0  0  0  0  0  # atno 10718 bound_to 10713
  154.6253  135.5440  153.7620 H   0  0  0  0  0  0  0  0  0  0  0  0  # atno 10763 bound_to 10752
  153.0258  135.6422  154.1381 H   0  0  0  0  0  0  0  0  0  0  0  0  # atno 10764 bound_to 10752
  154.1313  135.2914  155.3164 H   0  0  0  0  0  0  0  0  0  0  0  0  # atno 10765 bound_to 10752
  140.9347  134.1272  157.4204 H   0  0  0  0  0  0  0  0  0  0  0  0  # atno 11005 bound_to 11000
  146.3046  140.3885  142.8692 LP  0  0  0  0  0  0  0  0  0  0  0  0  # atno 17320 bound_to 7965
  144.8865  140.7469  143.5953 LP  0  0  0  0  0  0  0  0  0  0  0  0  # atno 17321 bound_to 7965
  139.5510  144.2395  152.1530 LP  0  0  0  0  0  0  0  0  0  0  0  0  # atno 17342 bound_to 10162
  140.1635  144.5003  150.6619 LP  0  0  0  0  0  0  0  0  0  0  0  0  # atno 17343 bound_to 10162
  157.5513  131.0944  150.9691 LP  0  0  0  0  0  0  0  0  0  0  0  0  # atno 17370 bound_to 10713
  156.9950  130.5578  149.5306 LP  0  0  0  0  0  0  0  0  0  0  0  0  # atno 17371 bound_to 10713
  139.8805  135.0017  156.6082 LP  0  0  0  0  0  0  0  0  0  0  0  0  # atno 17394 bound_to 11000
  140.7815  133.8656  155.8571 LP  0  0  0  0  0  0  0  0  0  0  0  0  # atno 17395 bound_to 11000

$$$$
