AV-unprocessed.smi:3058|AV-procd|sdf|11674|dock10
  -GOLD-   2272017 83D 1   1.00000     0.00000
 Structure written by MMmdl.
 39 41  0  0  0  0  0  0  0  0  2 V2000
  151.7984  141.6796  157.9792 O   0  0  0  0  0  0  0  0  0  0  0  0
  151.1477  142.5985  157.4796 C   0  0  0  0  0  0  0  0  0  0  0  0
  150.3025  142.4177  156.4530 N   0  0  0  0  0  0  0  0  0  0  0  0
  150.0532  141.1427  155.7917 C   0  0  0  0  0  0  0  0  0  0  0  0
  149.1715  141.3154  154.5441 C   0  0  0  0  0  0  0  0  0  0  0  0
  147.7137  141.5273  154.9021 C   0  0  0  0  0  0  0  0  0  0  0  0
  147.3437  141.8734  156.2205 C   0  0  0  0  0  0  0  0  0  0  0  0
  145.9813  142.0707  156.5272 C   0  0  0  0  0  0  0  0  0  0  0  0
  145.0194  141.9186  155.5078 C   0  0  0  0  0  0  0  0  0  0  0  0
  145.4110  141.5874  154.2575 N   0  3  0  0  0  0  0  0  0  0  0  0
  146.7053  141.3890  153.9238 C   0  0  0  0  0  0  0  0  0  0  0  0
  151.2506  144.0334  158.0265 C   0  0  1  0  0  0  0  0  0  0  0  0
  150.1117  144.4421  158.9937 C   0  0  0  0  0  0  0  0  0  0  0  0
  150.8742  144.9484  160.2326 C   0  0  1  0  0  0  0  0  0  0  0  0
  151.4926  143.7523  160.9807 C   0  0  0  0  0  0  0  0  0  0  0  0
  152.6702  143.3554  160.0715 C   0  0  0  0  0  0  0  0  0  0  0  0
  152.5171  144.3221  158.8762 C   0  0  2  0  0  0  0  0  0  0  0  0
  152.1000  145.5985  159.6011 C   0  0  0  0  0  0  0  0  0  0  0  0
  149.7981  143.2211  156.1067 H   0  0  0  0  0  0  0  0  0  0  0  0
  151.0010  140.6697  155.5289 H   0  0  0  0  0  0  0  0  0  0  0  0
  149.5633  140.4796  156.5053 H   0  0  0  0  0  0  0  0  0  0  0  0
  149.5213  142.1623  153.9522 H   0  0  0  0  0  0  0  0  0  0  0  0
  149.2494  140.4388  153.8993 H   0  0  0  0  0  0  0  0  0  0  0  0
  148.0949  141.9889  156.9886 H   0  0  0  0  0  0  0  0  0  0  0  0
  145.6797  142.3359  157.5301 H   0  0  0  0  0  0  0  0  0  0  0  0
  143.9572  142.0516  155.6536 H   0  0  0  0  0  0  0  0  0  0  0  0
  146.8927  141.1300  152.8917 H   0  0  0  0  0  0  0  0  0  0  0  0
  151.2388  144.7211  157.1786 H   0  0  0  0  0  0  0  0  0  0  0  0
  149.5199  145.2475  158.5565 H   0  0  0  0  0  0  0  0  0  0  0  0
  149.4204  143.6364  159.2443 H   0  0  0  0  0  0  0  0  0  0  0  0
  150.2813  145.6035  160.8714 H   0  0  0  0  0  0  0  0  0  0  0  0
  151.8521  144.0487  161.9669 H   0  0  0  0  0  0  0  0  0  0  0  0
  150.7790  142.9385  161.1145 H   0  0  0  0  0  0  0  0  0  0  0  0
  153.6159  143.5389  160.5835 H   0  0  0  0  0  0  0  0  0  0  0  0
  152.6596  142.3019  159.7956 H   0  0  0  0  0  0  0  0  0  0  0  0
  153.4245  144.4244  158.2802 H   0  0  0  0  0  0  0  0  0  0  0  0
  151.8552  146.4217  158.9274 H   0  0  0  0  0  0  0  0  0  0  0  0
  152.8326  145.9432  160.3332 H   0  0  0  0  0  0  0  0  0  0  0  0
  144.6987  141.4832  153.5342 H   0  0  0  0  0  0  0  0  0  0  0  0
  1  2  2  0  0  0  0
  2  3  1  0  0  0  0
  2 12  1  0  0  0  0
  3  4  1  0  0  0  0
  3 19  1  0  0  0  0
  4  5  1  0  0  0  0
  4 20  1  0  0  0  0
  4 21  1  0  0  0  0
  5  6  1  0  0  0  0
  5 22  1  0  0  0  0
  5 23  1  0  0  0  0
  6 11  1  0  0  0  0
  6  7  2  0  0  0  0
  7  8  1  0  0  0  0
  7 24  1  0  0  0  0
  8  9  2  0  0  0  0
  8 25  1  0  0  0  0
  9 10  1  0  0  0  0
  9 26  1  0  0  0  0
 10 11  2  0  0  0  0
 10 39  1  0  0  0  0
 11 27  1  0  0  0  0
 12 17  1  0  0  0  0
 12 13  1  0  0  0  0
 12 28  1  0  0  0  0
 13 14  1  0  0  0  0
 13 29  1  0  0  0  0
 13 30  1  0  0  0  0
 14 18  1  0  0  0  0
 14 15  1  0  0  0  0
 14 31  1  0  0  0  0
 15 16  1  0  0  0  0
 15 32  1  0  0  0  0
 15 33  1  0  0  0  0
 16 17  1  0  0  0  0
 16 34  1  0  0  0  0
 16 35  1  0  0  0  0
 17 18  1  0  0  0  0
 17 36  1  0  0  0  0
 18 37  1  0  0  0  0
 18 38  1  0  0  0  0
M  CHG  1  10   1
M  END
> <s_m_source_file>
AV-unprocessed.smi

> <i_m_source_file_index>
3058

> <i_lp_mmshare_version>
43012

> <i_f3d_flags>
0

> <s_epik_input>
W0NIMl0xW0NIMl1bQ0BIXShbQ0gyXTIpW0NAQEhdKFtDSDJdW0NAQEhdMTIpQyg9TylbTkhdW0NIMl1bQ0gyXWMzW2NIXVtjSF1bY0hdbltjSF0z

> <s_epik_cmdline>
J2VwaWtfcHl0aG9uJywgJy1waCcsICc3LjAnLCAnLXRuJywgJzgnLCAnLW1hJywgJzIwMCcsICctbWV0YWxfYmluZGluZycsICctaW1hZScsICc8aW5maWxlLm1hZT4nLCAnLW9tYWUnLCAnPG91dGZpbGUubWFlPic=

> <r_epik_Ionization_Penalty>
2.24375

> <r_epik_Ionization_Penalty_Charging>
2.24375

> <r_epik_Ionization_Penalty_Neutral>
1.89995e-08

> <r_epik_State_Penalty>
2.39035

> <r_epik_Charging_Adjusted_Penalty>
4.63411

> <i_epik_Tot_Q>
1

> <i_epik_Tot_abs_Q>
1

> <r_epik_Metal_State_Penalty>
2.40369

> <b_epik_Metal_Only>
0

> <s_lp_Force_Field>
OPLS_2005

> <r_lp_Energy>
53.8875

> <b_lp_Chiralities_Consistent>
1

> <s_lp_Variant>
AV-unprocessed.smi:3058-6

> <Gold.Version>
5.8.1

> <Gold.Id.Protein>
6NUR|6NUR_protein|mol2

> <Gold.PLP.Fitness>
48.4610

> <Gold.PLP.PLP>
-41.1342

> <Gold.PLP.part.hbond>
-2.0000

> <Gold.PLP.part.metal>
0.0000

> <Gold.PLP.part.buried>
-3.9635

> <Gold.PLP.part.nonpolar>
-34.8518

> <Gold.PLP.part.repulsive>
0.0855

> <Gold.PLP.ligand.clash>
0.0000

> <Gold.PLP.ligand.torsion>
0.8414

> <Gold.PLP.Chemscore.Hbond>
3.0000

> <Gold.PLP.Chemscore.CHOScore>
0.0000

> <Gold.PLP.Chemscore.Metal>
0.0000

> <Gold.Chemscore.Hbonds>
donor molecule, donor type, donor heavy atom, donor atom, acceptor molecule, acceptor atom, score
      L1  H     3    19       P1  8028  1.00
      L1  H    10    39       P1 10175  1.40

> <Gold.PLP.Chemscore.Internal.Correction>
0.0096

> <Gold.Rescore>
     Score         DG    S(hbond)    S(metal)    S(lipo)     H(rot)  DE(clash)    DE(int)     intcor
     19.78     -22.19       1.97        0.00     118.58       1.45       0.11       2.31       ----

> <Gold.Chemscore.Fitness>
19.7815

> <Gold.Chemscore.DG>
-22.1946

> <Gold.Chemscore.ZeroCoef>
-5.4800

> <Gold.Chemscore.Hbond>
1.9655

> <Gold.Chemscore.Metal>
0.0000

> <Gold.Chemscore.Lipo>
118.5826

> <Gold.Chemscore.Internal_Hbond>
0.0000

> <Gold.Chemscore.DEClash>
0.1060

> <Gold.Chemscore.DEInternal>
2.3071

> <Gold.Chemscore.Rot>
1.4548

> <Gold.Chemscore.Internal.Correction>
   9.000000E+99

> <Gold.Chemscore.Hbonds>
donor molecule, donor type, donor heavy atom, donor atom, acceptor molecule, acceptor atom, score
      L1  H     3    19       P1  8028  1.00
      L1  H    10    39       P1 10175  0.07

> <Gold.Chemscore.Hbond.Weighted>
-6.5647

> <Gold.Chemscore.Metal.Weighted>
-0.0000

> <Gold.Chemscore.Lipo.Weighted>
-13.8742

> <Gold.Chemscore.Internal_Hbond.Weighted>
0.0000

> <Gold.Chemscore.DEClash.Weighted>
0.1060

> <Gold.Chemscore.DEInternal.Weighted>
2.3071

> <Gold.Chemscore.Rot.Weighted>
3.7242

> <Gold.Chemscore.Internal.Correction.Weighted>
   9.000000E+99

> <Gold.Protein.RotatedTorsions>
[ 6907 6896 6895 6894 ] final  -44.13 input  -60.11 | X-H torsion
[ 7974 7965 7964 7962 ] final   35.34 input  175.53 | X-H torsion
[ 8008 7997 7996 7995 ] final   44.28 input   59.86 | X-H torsion
[ 10167 10162 10161 10158 ] final   60.23 input  -65.29 | X-H torsion
[ 10718 10713 10712 10709 ] final -113.29 input   66.30 | X-H torsion
[ 10763 10752 10751 10750 ] final  157.38 input  -60.55 | X-H torsion
[ 11005 11000 10999 10996 ] final -156.77 input  -57.11 | X-H torsion

> <Gold.Protein.ActiveResidues>
 VAL166  LYS551  ARG553  GLY616  TRP617  ASP618  TYR619  PRO620  LYS621  CYS622 
 ASP623  PHE694  ASN695  SER759  ASP760  ASP761  ALA762  ILE779  LEU786  VAL792 
 PHE793  MET794  SER795  GLU796  ALA797  LYS798  CYS799  TRP800  GLU811  SER814 

> <Gold.Protein.RotatedAtoms>
  150.9362  134.8775  159.7582 H   0  0  0  0  0  0  0  0  0  0  0  0  # atno 6907 bound_to 6896
  152.5060  134.4007  159.9425 H   0  0  0  0  0  0  0  0  0  0  0  0  # atno 6908 bound_to 6896
  151.4031  133.3711  159.2769 H   0  0  0  0  0  0  0  0  0  0  0  0  # atno 6909 bound_to 6896
  146.1290  139.6155  142.9239 H   0  0  0  0  0  0  0  0  0  0  0  0  # atno 7974 bound_to 7965
  155.3167  140.3394  155.4242 H   0  0  0  0  0  0  0  0  0  0  0  0  # atno 8008 bound_to 7997
  156.1929  140.1704  156.8094 H   0  0  0  0  0  0  0  0  0  0  0  0  # atno 8009 bound_to 7997
  154.5463  140.0714  156.8579 H   0  0  0  0  0  0  0  0  0  0  0  0  # atno 8010 bound_to 7997
  140.1678  144.4306  150.6676 H   0  0  0  0  0  0  0  0  0  0  0  0  # atno 10167 bound_to 10162
  156.0758  130.5965  150.8623 H   0  0  0  0  0  0  0  0  0  0  0  0  # atno 10718 bound_to 10713
  154.1993  135.2791  155.2996 H   0  0  0  0  0  0  0  0  0  0  0  0  # atno 10763 bound_to 10752
  154.5867  135.5573  153.7241 H   0  0  0  0  0  0  0  0  0  0  0  0  # atno 10764 bound_to 10752
  153.0092  135.6358  154.2132 H   0  0  0  0  0  0  0  0  0  0  0  0  # atno 10765 bound_to 10752
  140.6719  134.4237  157.5231 H   0  0  0  0  0  0  0  0  0  0  0  0  # atno 11005 bound_to 11000
  145.5302  141.0427  143.2387 LP  0  0  0  0  0  0  0  0  0  0  0  0  # atno 17320 bound_to 7965
  144.7671  139.6820  143.7210 LP  0  0  0  0  0  0  0  0  0  0  0  0  # atno 17321 bound_to 7965
  140.6601  143.2249  151.5875 LP  0  0  0  0  0  0  0  0  0  0  0  0  # atno 17342 bound_to 10162
  139.5351  144.2803  152.1234 LP  0  0  0  0  0  0  0  0  0  0  0  0  # atno 17343 bound_to 10162
  157.5852  131.0945  150.9208 LP  0  0  0  0  0  0  0  0  0  0  0  0  # atno 17370 bound_to 10713
  156.9395  130.5379  149.5280 LP  0  0  0  0  0  0  0  0  0  0  0  0  # atno 17371 bound_to 10713
  139.8979  134.8627  156.2026 LP  0  0  0  0  0  0  0  0  0  0  0  0  # atno 17394 bound_to 11000
  141.0385  133.6950  156.1555 LP  0  0  0  0  0  0  0  0  0  0  0  0  # atno 17395 bound_to 11000

$$$$
