AV-unprocessed.smi:1718|AV-procd|sdf|6929|dock5
  -GOLD-   22720 8143D 1   1.00000     0.00000
 Structure written by MMmdl.
 39 40  0  0  0  0  0  0  0  0  2 V2000
  150.2316  133.7133  155.2018 C   0  0  0  0  0  0  0  0  0  0  0  0
  149.2080  134.7428  155.7035 C   0  0  1  0  0  0  0  0  0  0  0  0
  147.9593  134.4447  155.0857 O   0  0  0  0  0  0  0  0  0  0  0  0
  147.9415  134.5500  153.6667 C   0  0  0  0  0  0  0  0  0  0  0  0
  146.6859  133.8485  153.1365 C   0  0  1  0  0  0  0  0  0  0  0  0
  146.4756  134.0031  151.6304 C   0  0  0  0  0  0  0  0  0  0  0  0
  145.6613  132.7712  151.3086 C   0  0  0  0  0  0  0  0  0  0  0  0
  146.3050  131.7304  152.2192 C   0  0  0  0  0  0  0  0  0  0  0  0
  146.7658  132.4434  153.3641 O   0  0  0  0  0  0  0  0  0  0  0  0
  149.0662  134.6927  157.2334 C   0  0  0  0  0  0  0  0  0  0  0  0
  149.7105  133.8619  157.8737 O   0  0  0  0  0  0  0  0  0  0  0  0
  148.2177  135.5954  157.7632 N   0  0  0  0  0  0  0  0  0  0  0  0
  147.8265  135.7739  159.1006 C   0  0  0  0  0  0  0  0  0  0  0  0
  146.6018  135.4501  159.6004 C   0  0  0  0  0  0  0  0  0  0  0  0
  146.2446  135.6740  160.9955 C   0  0  0  0  0  0  0  0  0  0  0  0
  144.9292  135.2303  161.6108 C   0  0  0  0  0  0  0  0  0  0  0  0
  144.1394  134.6647  160.6975 F   0  0  0  0  0  0  0  0  0  0  0  0
  145.1565  134.3378  162.5732 F   0  0  0  0  0  0  0  0  0  0  0  0
  144.2795  136.2636  162.1469 F   0  0  0  0  0  0  0  0  0  0  0  0
  147.2800  136.2349  161.7179 C   0  0  0  0  0  0  0  0  0  0  0  0
  148.5063  136.6123  161.2947 N   0  5  0  0  0  0  0  0  0  0  0  0
  148.8299  136.3970  159.9883 C   0  0  0  0  0  0  0  0  0  0  0  0
  149.9325  136.7097  159.5375 O   0  0  0  0  0  0  0  0  0  0  0  0
  151.2097  133.8732  155.6565 H   0  0  0  0  0  0  0  0  0  0  0  0
  150.3554  133.7873  154.1213 H   0  0  0  0  0  0  0  0  0  0  0  0
  149.9189  132.6931  155.4271 H   0  0  0  0  0  0  0  0  0  0  0  0
  149.5398  135.7350  155.3910 H   0  0  0  0  0  0  0  0  0  0  0  0
  147.9526  135.5886  153.3346 H   0  0  0  0  0  0  0  0  0  0  0  0
  148.8321  134.0695  153.2591 H   0  0  0  0  0  0  0  0  0  0  0  0
  145.8036  134.2120  153.6657 H   0  0  0  0  0  0  0  0  0  0  0  0
  145.9716  134.9327  151.3648 H   0  0  0  0  0  0  0  0  0  0  0  0
  147.4285  133.9679  151.1004 H   0  0  0  0  0  0  0  0  0  0  0  0
  144.6188  132.9267  151.5904 H   0  0  0  0  0  0  0  0  0  0  0  0
  145.6950  132.4957  150.2543 H   0  0  0  0  0  0  0  0  0  0  0  0
  145.6132  130.9347  152.4961 H   0  0  0  0  0  0  0  0  0  0  0  0
  147.1654  131.2756  151.7266 H   0  0  0  0  0  0  0  0  0  0  0  0
  147.8208  136.2663  157.1212 H   0  0  0  0  0  0  0  0  0  0  0  0
  145.8383  135.0329  158.9644 H   0  0  0  0  0  0  0  0  0  0  0  0
  147.0972  136.4001  162.8012 H   0  0  0  0  0  0  0  0  0  0  0  0
  1  2  1  0  0  0  0
  1 24  1  0  0  0  0
  1 25  1  0  0  0  0
  1 26  1  0  0  0  0
  2  3  1  0  0  0  0
  2 10  1  0  0  0  0
  2 27  1  0  0  0  0
  3  4  1  0  0  0  0
  4  5  1  0  0  0  0
  4 28  1  0  0  0  0
  4 29  1  0  0  0  0
  5  9  1  0  0  0  0
  5  6  1  0  0  0  0
  5 30  1  0  0  0  0
  6  7  1  0  0  0  0
  6 31  1  0  0  0  0
  6 32  1  0  0  0  0
  7  8  1  0  0  0  0
  7 33  1  0  0  0  0
  7 34  1  0  0  0  0
  8  9  1  0  0  0  0
  8 35  1  0  0  0  0
  8 36  1  0  0  0  0
 10 11  2  0  0  0  0
 10 12  1  0  0  0  0
 12 13  1  0  0  0  0
 12 37  1  0  0  0  0
 13 22  1  0  0  0  0
 13 14  2  0  0  0  0
 14 15  1  0  0  0  0
 14 38  1  0  0  0  0
 15 16  1  0  0  0  0
 15 20  2  0  0  0  0
 16 17  1  0  0  0  0
 16 18  1  0  0  0  0
 16 19  1  0  0  0  0
 20 21  1  0  0  0  0
 20 39  1  0  0  0  0
 21 22  1  0  0  0  0
 22 23  2  0  0  0  0
M  CHG  1  21  -1
M  END
> <s_m_source_file>
AV-unprocessed.smi

> <i_m_source_file_index>
1718

> <i_lp_mmshare_version>
43012

> <i_f3d_flags>
0

> <s_epik_input>
TzFbQ0gyXVtDSDJdW0NIMl1bQ0BIXTFbQ0gyXU9bQ0BASF0oW0NIM10pQyg9TylbTkhdYzJbY0hdYyhDKEYpKEYpRilbY0hdW25IXWMyPU8=

> <s_epik_cmdline>
J2VwaWtfcHl0aG9uJywgJy1waCcsICc3LjAnLCAnLXRuJywgJzgnLCAnLW1hJywgJzIwMCcsICctbWV0YWxfYmluZGluZycsICctaW1hZScsICc8aW5maWxlLm1hZT4nLCAnLW9tYWUnLCAnPG91dGZpbGUubWFlPic=

> <r_epik_Ionization_Penalty>
2.5466

> <r_epik_Ionization_Penalty_Charging>
0.0575837

> <r_epik_Ionization_Penalty_Neutral>
2.48901

> <r_epik_State_Penalty>
2.6532

> <r_epik_Charging_Adjusted_Penalty>
2.71078

> <i_epik_Tot_Q>
-1

> <i_epik_Tot_abs_Q>
1

> <r_epik_Metal_State_Penalty>
0.516196

> <b_epik_Metal_Only>
0

> <s_lp_Force_Field>
OPLS_2005

> <r_lp_Energy>
35.9934

> <b_lp_Chiralities_Consistent>
1

> <s_lp_Variant>
AV-unprocessed.smi:1718-8

> <Gold.Version>
5.8.1

> <Gold.Id.Protein>
6NUR|6NUR_protein|mol2

> <Gold.PLP.Fitness>
39.2079

> <Gold.PLP.PLP>
-28.7688

> <Gold.PLP.part.hbond>
-3.0000

> <Gold.PLP.part.metal>
0.0000

> <Gold.PLP.part.buried>
-4.0538

> <Gold.PLP.part.nonpolar>
-22.2235

> <Gold.PLP.part.repulsive>
0.2081

> <Gold.PLP.ligand.clash>
0.0000

> <Gold.PLP.ligand.torsion>
0.8099

> <Gold.PLP.Chemscore.Hbond>
3.9760

> <Gold.PLP.Chemscore.CHOScore>
0.0000

> <Gold.PLP.Chemscore.Metal>
0.0000

> <Gold.Chemscore.Hbonds>
donor molecule, donor type, donor heavy atom, donor atom, acceptor molecule, acceptor atom, score
      P1  H  6896  6907       L1    11  0.88
      P1  H  6896  6908       L1    23  0.77
      P1  H  6931  6943       L1    21  2.00

> <Gold.PLP.Chemscore.Internal.Correction>
0.1310

> <Gold.Rescore>
     Score         DG    S(hbond)    S(metal)    S(lipo)     H(rot)  DE(clash)    DE(int)     intcor
     14.77     -16.24       2.59        0.00      58.26       1.85       0.00       1.46       ----

> <Gold.Chemscore.Fitness>
14.7749

> <Gold.Chemscore.DG>
-16.2385

> <Gold.Chemscore.ZeroCoef>
-5.4800

> <Gold.Chemscore.Hbond>
2.5947

> <Gold.Chemscore.Metal>
0.0000

> <Gold.Chemscore.Lipo>
58.2629

> <Gold.Chemscore.Internal_Hbond>
0.0000

> <Gold.Chemscore.DEClash>
0.0000

> <Gold.Chemscore.DEInternal>
1.4636

> <Gold.Chemscore.Rot>
1.8455

> <Gold.Chemscore.Internal.Correction>
   9.000000E+99

> <Gold.Chemscore.Hbonds>
donor molecule, donor type, donor heavy atom, donor atom, acceptor molecule, acceptor atom, score
      P1  H  6896  6907       L1    11  0.87
      P1  H  6896  6908       L1    23  0.50
      P1  H  6931  6943       L1    21  0.77

> <Gold.Chemscore.Hbond.Weighted>
-8.6663

> <Gold.Chemscore.Metal.Weighted>
-0.0000

> <Gold.Chemscore.Lipo.Weighted>
-6.8168

> <Gold.Chemscore.Internal_Hbond.Weighted>
0.0000

> <Gold.Chemscore.DEClash.Weighted>
0.0000

> <Gold.Chemscore.DEInternal.Weighted>
1.4636

> <Gold.Chemscore.Rot.Weighted>
4.7245

> <Gold.Chemscore.Internal.Correction.Weighted>
   9.000000E+99

> <Gold.Protein.RotatedTorsions>
[ 6907 6896 6895 6894 ] final -134.58 input  -60.11 | X-H torsion
[ 7974 7965 7964 7962 ] final  -85.89 input  175.53 | X-H torsion
[ 8008 7997 7996 7995 ] final   -8.56 input   59.86 | X-H torsion
[ 10167 10162 10161 10158 ] final   86.59 input  -65.29 | X-H torsion
[ 10718 10713 10712 10709 ] final  117.16 input   66.30 | X-H torsion
[ 10763 10752 10751 10750 ] final  134.43 input  -60.55 | X-H torsion
[ 11005 11000 10999 10996 ] final    9.26 input  -57.11 | X-H torsion

> <Gold.Protein.ActiveResidues>
 VAL166  LYS551  ARG553  GLY616  TRP617  ASP618  TYR619  PRO620  LYS621  CYS622 
 ASP623  PHE694  ASN695  SER759  ASP760  ASP761  ALA762  ILE779  LEU786  VAL792 
 PHE793  MET794  SER795  GLU796  ALA797  LYS798  CYS799  TRP800  GLU811  SER814 

> <Gold.Protein.RotatedAtoms>
  150.9875  133.6183  159.2713 H   0  0  0  0  0  0  0  0  0  0  0  0  # atno 6907 bound_to 6896
  151.3415  135.0863  159.9382 H   0  0  0  0  0  0  0  0  0  0  0  0  # atno 6908 bound_to 6896
  152.5235  133.9485  159.7715 H   0  0  0  0  0  0  0  0  0  0  0  0  # atno 6909 bound_to 6896
  145.4873  140.9554  143.1831 H   0  0  0  0  0  0  0  0  0  0  0  0  # atno 7974 bound_to 7965
  154.5730  140.2378  155.8164 H   0  0  0  0  0  0  0  0  0  0  0  0  # atno 8008 bound_to 7997
  156.2121  140.3023  155.9714 H   0  0  0  0  0  0  0  0  0  0  0  0  # atno 8009 bound_to 7997
  155.2679  140.0417  157.2994 H   0  0  0  0  0  0  0  0  0  0  0  0  # atno 8010 bound_to 7997
  139.8860  144.6413  150.8791 H   0  0  0  0  0  0  0  0  0  0  0  0  # atno 10167 bound_to 10162
  157.6114  131.1034  150.7576 H   0  0  0  0  0  0  0  0  0  0  0  0  # atno 10718 bound_to 10713
  153.8235  135.3113  155.3412 H   0  0  0  0  0  0  0  0  0  0  0  0  # atno 10763 bound_to 10752
  154.8003  135.4731  154.0262 H   0  0  0  0  0  0  0  0  0  0  0  0  # atno 10764 bound_to 10752
  153.1678  135.6872  153.8740 H   0  0  0  0  0  0  0  0  0  0  0  0  # atno 10765 bound_to 10752
  140.5277  134.0497  155.7864 H   0  0  0  0  0  0  0  0  0  0  0  0  # atno 11005 bound_to 11000
  144.7854  139.6437  143.7136 LP  0  0  0  0  0  0  0  0  0  0  0  0  # atno 17320 bound_to 7965
  146.2305  139.5805  142.9558 LP  0  0  0  0  0  0  0  0  0  0  0  0  # atno 17321 bound_to 7965
  140.7736  143.3548  151.1943 LP  0  0  0  0  0  0  0  0  0  0  0  0  # atno 17342 bound_to 10162
  139.7153  143.9311  152.2964 LP  0  0  0  0  0  0  0  0  0  0  0  0  # atno 17343 bound_to 10162
  156.7952  130.4903  149.5378 LP  0  0  0  0  0  0  0  0  0  0  0  0  # atno 17370 bound_to 10713
  156.1219  130.6116  151.0206 LP  0  0  0  0  0  0  0  0  0  0  0  0  # atno 17371 bound_to 10713
  141.1299  133.9320  157.2558 LP  0  0  0  0  0  0  0  0  0  0  0  0  # atno 17394 bound_to 11000
  139.9571  135.0163  156.9158 LP  0  0  0  0  0  0  0  0  0  0  0  0  # atno 17395 bound_to 11000

$$$$
