AV-unprocessed.smi:133|AV-procd|sdf|1165|dock7
  -GOLD-   2262018303D 1   1.00000     0.00000
 Structure written by MMmdl.
 47 50  0  0  0  0  0  0  0  0  1 V2000
  153.6749  138.4951  157.6658 O   0  0  0  0  0  0  0  0  0  0  0  0
  152.7406  138.8033  156.9248 C   0  0  0  0  0  0  0  0  0  0  0  0
  152.3319  137.8879  155.7596 C   0  0  0  0  0  0  0  0  0  0  0  0
  150.8761  137.8742  155.4951 N   0  0  0  0  0  0  0  0  0  0  0  0
  150.1043  136.7988  156.0015 C   0  0  0  0  0  0  0  0  0  0  0  0
  150.6269  135.8790  156.6328 O   0  0  0  0  0  0  0  0  0  0  0  0
  148.6726  136.8704  155.7337 C   0  0  0  0  0  0  0  0  0  0  0  0
  147.8603  135.9018  156.1896 F   0  0  0  0  0  0  0  0  0  0  0  0
  148.1474  137.8993  155.0377 C   0  0  0  0  0  0  0  0  0  0  0  0
  148.9131  138.9304  154.5303 N   0  0  0  0  0  0  0  0  0  0  0  0
  148.2317  140.0681  153.8056 C   0  0  2  0  0  0  0  0  0  0  0  0
  148.6148  141.4599  154.3432 C   0  0  0  0  0  0  0  0  0  0  0  0
  147.2734  142.0492  154.7481 C   0  0  0  0  0  0  0  0  0  0  0  0
  146.2805  141.2218  153.9388 C   0  0  0  0  0  0  0  0  0  0  0  0
  146.8524  139.9232  153.9479 O   0  0  0  0  0  0  0  0  0  0  0  0
  150.3049  138.9541  154.7796 C   0  0  0  0  0  0  0  0  0  0  0  0
  151.0034  139.8923  154.3924 O   0  0  0  0  0  0  0  0  0  0  0  0
  152.0241  139.9368  157.0341 N   0  0  0  0  0  0  0  0  0  0  0  0
  152.1491  140.9757  157.9952 C   0  0  0  0  0  0  0  0  0  0  0  0
  152.7373  140.7870  159.2774 C   0  0  0  0  0  0  0  0  0  0  0  0
  152.8144  141.8535  160.2000 C   0  0  0  0  0  0  0  0  0  0  0  0
  152.2873  143.1004  159.8243 C   0  0  0  0  0  0  0  0  0  0  0  0
  151.6987  143.2869  158.5807 C   0  0  0  0  0  0  0  0  0  0  0  0
  151.6119  142.2377  157.6497 C   0  0  0  0  0  0  0  0  0  0  0  0
  151.2009  144.6961  158.4094 C   0  0  0  0  0  0  0  0  0  0  0  0
  151.7423  145.4344  159.6576 C   0  0  0  0  0  0  0  0  0  0  0  0
  152.2599  144.3605  160.6453 C   0  0  0  0  0  0  0  0  0  0  0  0
  152.8857  138.1927  154.8701 H   0  0  0  0  0  0  0  0  0  0  0  0
  152.7002  136.8818  155.9655 H   0  0  0  0  0  0  0  0  0  0  0  0
  147.0798  137.9078  154.8727 H   0  0  0  0  0  0  0  0  0  0  0  0
  148.4965  139.9563  152.7531 H   0  0  0  0  0  0  0  0  0  0  0  0
  149.3254  141.4104  155.1689 H   0  0  0  0  0  0  0  0  0  0  0  0
  149.0670  142.0322  153.5325 H   0  0  0  0  0  0  0  0  0  0  0  0
  147.1018  141.8967  155.8142 H   0  0  0  0  0  0  0  0  0  0  0  0
  147.1987  143.1178  154.5448 H   0  0  0  0  0  0  0  0  0  0  0  0
  145.2793  141.2241  154.3698 H   0  0  0  0  0  0  0  0  0  0  0  0
  146.2165  141.5855  152.9118 H   0  0  0  0  0  0  0  0  0  0  0  0
  151.3529  140.1061  156.2993 H   0  0  0  0  0  0  0  0  0  0  0  0
  153.1233  139.8258  159.5800 H   0  0  0  0  0  0  0  0  0  0  0  0
  153.2615  141.7108  161.1729 H   0  0  0  0  0  0  0  0  0  0  0  0
  151.1477  142.3992  156.6874 H   0  0  0  0  0  0  0  0  0  0  0  0
  151.5625  145.1376  157.4800 H   0  0  0  0  0  0  0  0  0  0  0  0
  150.1104  144.6932  158.3938 H   0  0  0  0  0  0  0  0  0  0  0  0
  152.5871  146.0523  159.3507 H   0  0  0  0  0  0  0  0  0  0  0  0
  151.0063  146.1026  160.1060 H   0  0  0  0  0  0  0  0  0  0  0  0
  151.5744  144.2311  161.4833 H   0  0  0  0  0  0  0  0  0  0  0  0
  153.2487  144.6028  161.0363 H   0  0  0  0  0  0  0  0  0  0  0  0
  1  2  2  0  0  0  0
  2  3  1  0  0  0  0
  2 18  1  0  0  0  0
  3  4  1  0  0  0  0
  3 28  1  0  0  0  0
  3 29  1  0  0  0  0
  4 16  1  0  0  0  0
  4  5  1  0  0  0  0
  5  6  2  0  0  0  0
  5  7  1  0  0  0  0
  7  8  1  0  0  0  0
  7  9  2  0  0  0  0
  9 10  1  0  0  0  0
  9 30  1  0  0  0  0
 10 11  1  0  0  0  0
 10 16  1  0  0  0  0
 11 15  1  0  0  0  0
 11 12  1  0  0  0  0
 11 31  1  0  0  0  0
 12 13  1  0  0  0  0
 12 32  1  0  0  0  0
 12 33  1  0  0  0  0
 13 14  1  0  0  0  0
 13 34  1  0  0  0  0
 13 35  1  0  0  0  0
 14 15  1  0  0  0  0
 14 36  1  0  0  0  0
 14 37  1  0  0  0  0
 16 17  2  0  0  0  0
 18 19  1  0  0  0  0
 18 38  1  0  0  0  0
 19 24  1  0  0  0  0
 19 20  2  0  0  0  0
 20 21  1  0  0  0  0
 20 39  1  0  0  0  0
 21 22  2  0  0  0  0
 21 40  1  0  0  0  0
 22 27  1  0  0  0  0
 22 23  1  0  0  0  0
 23 24  2  0  0  0  0
 23 25  1  0  0  0  0
 24 41  1  0  0  0  0
 25 26  1  0  0  0  0
 25 42  1  0  0  0  0
 25 43  1  0  0  0  0
 26 27  1  0  0  0  0
 26 44  1  0  0  0  0
 26 45  1  0  0  0  0
 27 46  1  0  0  0  0
 27 47  1  0  0  0  0
M  END
> <s_m_source_file>
AV-unprocessed.smi

> <i_m_source_file_index>
133

> <i_lp_mmshare_version>
43012

> <i_f3d_flags>
0

> <s_epik_input>
W0NIMl0xW0NIMl1bQ0gyXWMoYzEyKVtjSF1jKFtjSF1bY0hdMilbTkhdQyg9TylbQ0gyXW4zYyg9TyljKEYpW2NIXW4oYzM9TylbQ0BASF00W0NIMl1bQ0gyXVtDSDJdTzQ=

> <s_epik_cmdline>
J2VwaWtfcHl0aG9uJywgJy1waCcsICc3LjAnLCAnLXRuJywgJzgnLCAnLW1hJywgJzIwMCcsICctbWV0YWxfYmluZGluZycsICctaW1hZScsICc8aW5maWxlLm1hZT4nLCAnLW9tYWUnLCAnPG91dGZpbGUubWFlPic=

> <r_lp_tautomer_probability>
1

> <r_epik_Ionization_Penalty>
4.05675e-06

> <r_epik_Ionization_Penalty_Charging>
3.88729e-08

> <r_epik_Ionization_Penalty_Neutral>
4.01788e-06

> <r_epik_State_Penalty>
-0

> <r_epik_Charging_Adjusted_Penalty>
3.88729e-08

> <i_epik_Tot_Q>
0

> <i_epik_Tot_abs_Q>
0

> <r_epik_Metal_State_Penalty>
-0

> <b_epik_Metal_Only>
0

> <s_epik_Chemistry_Notes>
This compound contains an acetal/aminal-like group ( X-CH(R)-Y where X, Y are N, S, or O) that may be acid/base labile, releasing an aldehyde.

> <s_lp_Force_Field>
OPLS_2005

> <r_lp_Energy>
40.9248

> <b_lp_Chiralities_Consistent>
1

> <s_lp_Variant>
AV-unprocessed.smi:133-1

> <Gold.Version>
5.8.1

> <Gold.Id.Protein>
6NUR|6NUR_protein|mol2

> <Gold.PLP.Fitness>
49.3248

> <Gold.PLP.PLP>
-46.3965

> <Gold.PLP.part.hbond>
-1.8384

> <Gold.PLP.part.metal>
0.0000

> <Gold.PLP.part.buried>
-3.2802

> <Gold.PLP.part.nonpolar>
-42.2918

> <Gold.PLP.part.repulsive>
0.3579

> <Gold.PLP.ligand.clash>
0.0000

> <Gold.PLP.ligand.torsion>
0.9169

> <Gold.PLP.Chemscore.Hbond>
1.5781

> <Gold.PLP.Chemscore.CHOScore>
0.0000

> <Gold.PLP.Chemscore.Metal>
0.0000

> <Gold.Chemscore.Hbonds>
donor molecule, donor type, donor heavy atom, donor atom, acceptor molecule, acceptor atom, score
      P1  H  7989  7998       L1    17  0.83
      P1  H  7997  8009       L1     1  0.75

> <Gold.PLP.Chemscore.Internal.Correction>
0.0278

> <Gold.Rescore>
     Score         DG    S(hbond)    S(metal)    S(lipo)     H(rot)  DE(clash)    DE(int)     intcor
     15.15     -19.90       1.35        0.00     119.49       1.59       0.37       4.37       ----

> <Gold.Chemscore.Fitness>
15.1497

> <Gold.Chemscore.DG>
-19.8986

> <Gold.Chemscore.ZeroCoef>
-5.4800

> <Gold.Chemscore.Hbond>
1.3477

> <Gold.Chemscore.Metal>
0.0000

> <Gold.Chemscore.Lipo>
119.4854

> <Gold.Chemscore.Internal_Hbond>
0.0000

> <Gold.Chemscore.DEClash>
0.3740

> <Gold.Chemscore.DEInternal>
4.3748

> <Gold.Chemscore.Rot>
1.5869

> <Gold.Chemscore.Internal.Correction>
   9.000000E+99

> <Gold.Chemscore.Hbonds>
donor molecule, donor type, donor heavy atom, donor atom, acceptor molecule, acceptor atom, score
      P1  H  7989  7998       L1    17  0.82
      P1  H  7997  8009       L1     1  0.13

> <Gold.Chemscore.Hbond.Weighted>
-4.5012

> <Gold.Chemscore.Metal.Weighted>
-0.0000

> <Gold.Chemscore.Lipo.Weighted>
-13.9798

> <Gold.Chemscore.Internal_Hbond.Weighted>
0.0000

> <Gold.Chemscore.DEClash.Weighted>
0.3740

> <Gold.Chemscore.DEInternal.Weighted>
4.3748

> <Gold.Chemscore.Rot.Weighted>
4.0624

> <Gold.Chemscore.Internal.Correction.Weighted>
   9.000000E+99

> <Gold.Protein.RotatedTorsions>
[ 6907 6896 6895 6894 ] final   85.82 input  -60.11 | X-H torsion
[ 7974 7965 7964 7962 ] final   -0.87 input  175.53 | X-H torsion
[ 8008 7997 7996 7995 ] final  135.54 input   59.86 | X-H torsion
[ 10167 10162 10161 10158 ] final   57.90 input  -65.29 | X-H torsion
[ 10718 10713 10712 10709 ] final  101.10 input   66.30 | X-H torsion
[ 10763 10752 10751 10750 ] final   16.87 input  -60.55 | X-H torsion
[ 11005 11000 10999 10996 ] final  114.89 input  -57.11 | X-H torsion

> <Gold.Protein.ActiveResidues>
 VAL166  LYS551  ARG553  GLY616  TRP617  ASP618  TYR619  PRO620  LYS621  CYS622 
 ASP623  PHE694  ASN695  SER759  ASP760  ASP761  ALA762  ILE779  LEU786  VAL792 
 PHE793  MET794  SER795  GLU796  ALA797  LYS798  CYS799  TRP800  GLU811  SER814 

> <Gold.Protein.RotatedAtoms>
  152.5382  134.2527  159.8904 H   0  0  0  0  0  0  0  0  0  0  0  0  # atno 6907 bound_to 6896
  151.2489  133.4353  159.2618 H   0  0  0  0  0  0  0  0  0  0  0  0  # atno 6908 bound_to 6896
  151.0557  134.9717  159.8291 H   0  0  0  0  0  0  0  0  0  0  0  0  # atno 6909 bound_to 6896
  146.2423  140.1334  142.8337 H   0  0  0  0  0  0  0  0  0  0  0  0  # atno 7974 bound_to 7965
  156.3003  140.2468  156.3598 H   0  0  0  0  0  0  0  0  0  0  0  0  # atno 8008 bound_to 7997
  154.8887  140.0410  157.1845 H   0  0  0  0  0  0  0  0  0  0  0  0  # atno 8009 bound_to 7997
  154.8620  140.2922  155.5537 H   0  0  0  0  0  0  0  0  0  0  0  0  # atno 8010 bound_to 7997
  140.1930  144.4066  150.6562 H   0  0  0  0  0  0  0  0  0  0  0  0  # atno 10167 bound_to 10162
  157.6838  131.0717  150.5201 H   0  0  0  0  0  0  0  0  0  0  0  0  # atno 10718 bound_to 10713
  153.1391  135.6756  153.9056 H   0  0  0  0  0  0  0  0  0  0  0  0  # atno 10763 bound_to 10752
  153.8518  135.3092  155.3434 H   0  0  0  0  0  0  0  0  0  0  0  0  # atno 10764 bound_to 10752
  154.7772  135.4908  153.9853 H   0  0  0  0  0  0  0  0  0  0  0  0  # atno 10765 bound_to 10752
  139.8994  134.9575  156.6961 H   0  0  0  0  0  0  0  0  0  0  0  0  # atno 11005 bound_to 11000
  145.0307  140.8868  143.5111 LP  0  0  0  0  0  0  0  0  0  0  0  0  # atno 17320 bound_to 7965
  145.1398  139.2579  143.5496 LP  0  0  0  0  0  0  0  0  0  0  0  0  # atno 17321 bound_to 7965
  140.6442  143.2210  151.6222 LP  0  0  0  0  0  0  0  0  0  0  0  0  # atno 17342 bound_to 10162
  139.5248  144.3093  152.1006 LP  0  0  0  0  0  0  0  0  0  0  0  0  # atno 17343 bound_to 10162
  156.5515  130.4233  149.6105 LP  0  0  0  0  0  0  0  0  0  0  0  0  # atno 17370 bound_to 10713
  156.2899  130.7118  151.1964 LP  0  0  0  0  0  0  0  0  0  0  0  0  # atno 17371 bound_to 10713
  140.7187  133.9160  155.8132 LP  0  0  0  0  0  0  0  0  0  0  0  0  # atno 17394 bound_to 11000
  141.0244  134.0843  157.4084 LP  0  0  0  0  0  0  0  0  0  0  0  0  # atno 17395 bound_to 11000

$$$$
