AV-unprocessed.smi:333|AV-procd|sdf|2361|dock9
  -GOLD-   2262022273D 1   1.00000     0.00000
 Structure written by MMmdl.
 26 26  0  0  0  0  0  0  0  0  1 V2000
  141.7558  138.8429  153.6444 N   0  0  0  0  0  0  0  0  0  0  0  0
  141.3944  137.5704  153.8513 C   0  0  0  0  0  0  0  0  0  0  0  0
  140.3666  137.3382  154.4874 O   0  0  0  0  0  0  0  0  0  0  0  0
  142.3177  136.5750  153.2658 C   0  0  0  0  0  0  0  0  0  0  0  0
  143.5066  136.9026  152.6983 C   0  0  0  0  0  0  0  0  0  0  0  0
  144.3941  135.9019  152.1320 C   0  0  0  0  0  0  0  0  0  0  0  0
  145.7126  136.3391  151.5065 C   0  0  0  0  0  0  0  0  0  0  0  0
  146.1749  137.7262  151.9831 C   0  0  0  0  0  0  0  0  0  0  0  0
  147.2503  138.1950  151.1977 O   0  0  0  0  0  0  0  0  0  0  0  0
  143.9792  134.6144  152.1716 C   0  0  0  0  0  0  0  0  0  0  0  0
  144.7415  133.4074  151.6280 C   0  0  0  0  0  0  0  0  0  0  0  0
  144.9903  133.5630  150.3279 F   0  0  0  0  0  0  0  0  0  0  0  0
  145.9019  133.2551  152.2648 F   0  0  0  0  0  0  0  0  0  0  0  0
  144.0485  132.2757  151.7747 F   0  0  0  0  0  0  0  0  0  0  0  0
  142.7506  134.2860  152.7624 N   0  0  0  0  0  0  0  0  0  0  0  0
  141.8826  135.1599  153.3183 C   0  0  0  0  0  0  0  0  0  0  0  0
  140.8377  134.7295  153.8069 O   0  0  0  0  0  0  0  0  0  0  0  0
  142.5059  133.3060  152.7672 H   0  0  0  0  0  0  0  0  0  0  0  0
  141.1845  139.5898  154.0123 H   0  0  0  0  0  0  0  0  0  0  0  0
  142.5963  139.0528  153.1265 H   0  0  0  0  0  0  0  0  0  0  0  0
  143.8356  137.9298  152.6469 H   0  0  0  0  0  0  0  0  0  0  0  0
  146.5003  135.6085  151.6828 H   0  0  0  0  0  0  0  0  0  0  0  0
  145.5729  136.3627  150.4252 H   0  0  0  0  0  0  0  0  0  0  0  0
  145.3539  138.4396  151.9072 H   0  0  0  0  0  0  0  0  0  0  0  0
  146.4790  137.6998  153.0298 H   0  0  0  0  0  0  0  0  0  0  0  0
  147.7402  138.8257  151.7031 H   0  0  0  0  0  0  0  0  0  0  0  0
  1  2  1  0  0  0  0
  1 19  1  0  0  0  0
  1 20  1  0  0  0  0
  2  3  2  0  0  0  0
  2  4  1  0  0  0  0
  4 16  1  0  0  0  0
  4  5  2  0  0  0  0
  5  6  1  0  0  0  0
  5 21  1  0  0  0  0
  6  7  1  0  0  0  0
  6 10  2  0  0  0  0
  7  8  1  0  0  0  0
  7 22  1  0  0  0  0
  7 23  1  0  0  0  0
  8  9  1  0  0  0  0
  8 24  1  0  0  0  0
  8 25  1  0  0  0  0
  9 26  1  0  0  0  0
 10 11  1  0  0  0  0
 10 15  1  0  0  0  0
 11 12  1  0  0  0  0
 11 13  1  0  0  0  0
 11 14  1  0  0  0  0
 15 18  1  0  0  0  0
 15 16  1  0  0  0  0
 16 17  2  0  0  0  0
M  END
> <s_m_source_file>
AV-unprocessed.smi

> <i_m_source_file_index>
333

> <i_lp_mmshare_version>
43012

> <i_f3d_flags>
0

> <s_epik_input>
W05IMl1DKD1PKWMxW2NIXWMoW0NIMl1bQ0gyXVtPSF0pYyhDKEYpKEYpRilbbkhdYzE9Tw==

> <s_epik_cmdline>
J2VwaWtfcHl0aG9uJywgJy1waCcsICc3LjAnLCAnLXRuJywgJzgnLCAnLW1hJywgJzIwMCcsICctbWV0YWxfYmluZGluZycsICctaW1hZScsICc8aW5maWxlLm1hZT4nLCAnLW9tYWUnLCAnPG91dGZpbGUubWFlPic=

> <r_lp_tautomer_probability>
0.999

> <r_epik_Ionization_Penalty>
1.33848

> <r_epik_Ionization_Penalty_Charging>
1.33848

> <r_epik_Ionization_Penalty_Neutral>
1.5599e-06

> <r_epik_State_Penalty>
1.41551

> <r_epik_Charging_Adjusted_Penalty>
2.75399

> <i_epik_Tot_Q>
0

> <i_epik_Tot_abs_Q>
0

> <r_epik_Metal_State_Penalty>
1.47649

> <b_epik_Metal_Only>
0

> <s_lp_Force_Field>
OPLS_2005

> <r_lp_Energy>
21.6261

> <b_lp_Chiralities_Consistent>
1

> <s_lp_Variant>
AV-unprocessed.smi:333-2

> <Gold.Version>
5.8.1

> <Gold.Id.Protein>
6NUR|6NUR_protein|mol2

> <Gold.PLP.Fitness>
42.5967

> <Gold.PLP.PLP>
-33.7420

> <Gold.PLP.part.hbond>
-5.9480

> <Gold.PLP.part.metal>
0.0000

> <Gold.PLP.part.buried>
-3.6776

> <Gold.PLP.part.nonpolar>
-24.0992

> <Gold.PLP.part.repulsive>
0.2299

> <Gold.PLP.ligand.clash>
0.0000

> <Gold.PLP.ligand.torsion>
0.3490

> <Gold.PLP.Chemscore.Hbond>
3.1799

> <Gold.PLP.Chemscore.CHOScore>
0.0000

> <Gold.PLP.Chemscore.Metal>
0.0000

> <Gold.Chemscore.Hbonds>
donor molecule, donor type, donor heavy atom, donor atom, acceptor molecule, acceptor atom, score
      L1  H     1    20       P1 10175  0.85
      L1  H     9    26       P1  7957  0.25
      P1  H  7954  7966       L1     9  1.00
      P1  H 11000 11005       L1    17  1.00

> <Gold.PLP.Chemscore.Internal.Correction>
0.0130

> <Gold.Rescore>
     Score         DG    S(hbond)    S(metal)    S(lipo)     H(rot)  DE(clash)    DE(int)     intcor
     11.68     -13.54       2.82        0.00      35.01       2.13       0.00       1.86       ----

> <Gold.Chemscore.Fitness>
11.6764

> <Gold.Chemscore.DG>
-13.5374

> <Gold.Chemscore.ZeroCoef>
-5.4800

> <Gold.Chemscore.Hbond>
2.8182

> <Gold.Chemscore.Metal>
0.0000

> <Gold.Chemscore.Lipo>
35.0055

> <Gold.Chemscore.Internal_Hbond>
0.0000

> <Gold.Chemscore.DEClash>
0.0029

> <Gold.Chemscore.DEInternal>
1.8581

> <Gold.Chemscore.Rot>
2.1294

> <Gold.Chemscore.Internal.Correction>
   9.000000E+99

> <Gold.Chemscore.Hbonds>
donor molecule, donor type, donor heavy atom, donor atom, acceptor molecule, acceptor atom, score
      L1  H     1    20       P1 10175  0.83
      L1  H     9    26       P1  7957  0.22
      P1  H  7954  7966       L1     9  0.50
      P1  H 11000 11005       L1    17  0.94

> <Gold.Chemscore.Hbond.Weighted>
-9.4129

> <Gold.Chemscore.Metal.Weighted>
-0.0000

> <Gold.Chemscore.Lipo.Weighted>
-4.0956

> <Gold.Chemscore.Internal_Hbond.Weighted>
0.0000

> <Gold.Chemscore.DEClash.Weighted>
0.0029

> <Gold.Chemscore.DEInternal.Weighted>
1.8581

> <Gold.Chemscore.Rot.Weighted>
5.4512

> <Gold.Chemscore.Internal.Correction.Weighted>
   9.000000E+99

> <Gold.Protein.RotatedTorsions>
[ 6907 6896 6895 6894 ] final  -57.79 input  -60.11 | X-H torsion
[ 7974 7965 7964 7962 ] final -101.45 input  175.53 | X-H torsion
[ 8008 7997 7996 7995 ] final   -1.92 input   59.86 | X-H torsion
[ 10167 10162 10161 10158 ] final   81.22 input  -65.29 | X-H torsion
[ 10718 10713 10712 10709 ] final  -29.86 input   66.30 | X-H torsion
[ 10763 10752 10751 10750 ] final  -75.44 input  -60.55 | X-H torsion
[ 11005 11000 10999 10996 ] final   20.11 input  -57.11 | X-H torsion

> <Gold.Protein.ActiveResidues>
 VAL166  LYS551  ARG553  GLY616  TRP617  ASP618  TYR619  PRO620  LYS621  CYS622 
 ASP623  PHE694  ASN695  SER759  ASP760  ASP761  ALA762  ILE779  LEU786  VAL792 
 PHE793  MET794  SER795  GLU796  ALA797  LYS798  CYS799  TRP800  GLU811  SER814 

> <Gold.Protein.RotatedAtoms>
  150.8058  134.7182  159.6642 H   0  0  0  0  0  0  0  0  0  0  0  0  # atno 6907 bound_to 6896
  152.4177  134.6008  160.0009 H   0  0  0  0  0  0  0  0  0  0  0  0  # atno 6908 bound_to 6896
  151.6232  133.3300  159.3128 H   0  0  0  0  0  0  0  0  0  0  0  0  # atno 6909 bound_to 6896
  145.2814  140.9327  143.2929 H   0  0  0  0  0  0  0  0  0  0  0  0  # atno 7974 bound_to 7965
  154.6415  140.2547  155.7317 H   0  0  0  0  0  0  0  0  0  0  0  0  # atno 8008 bound_to 7997
  156.2531  140.2886  156.0731 H   0  0  0  0  0  0  0  0  0  0  0  0  # atno 8009 bound_to 7997
  155.1589  140.0384  157.2828 H   0  0  0  0  0  0  0  0  0  0  0  0  # atno 8010 bound_to 7997
  139.9416  144.6086  150.8247 H   0  0  0  0  0  0  0  0  0  0  0  0  # atno 10167 bound_to 10162
  156.4072  130.4401  149.7279 H   0  0  0  0  0  0  0  0  0  0  0  0  # atno 10718 bound_to 10713
  154.4866  135.5831  153.6428 H   0  0  0  0  0  0  0  0  0  0  0  0  # atno 10763 bound_to 10752
  152.9855  135.6102  154.3178 H   0  0  0  0  0  0  0  0  0  0  0  0  # atno 10764 bound_to 10752
  154.3074  135.2845  155.2561 H   0  0  0  0  0  0  0  0  0  0  0  0  # atno 10765 bound_to 10752
  140.4063  134.1665  155.7665 H   0  0  0  0  0  0  0  0  0  0  0  0  # atno 11005 bound_to 11000
  144.9250  139.4367  143.6523 LP  0  0  0  0  0  0  0  0  0  0  0  0  # atno 17320 bound_to 7965
  146.3215  139.8130  142.8942 LP  0  0  0  0  0  0  0  0  0  0  0  0  # atno 17321 bound_to 7965
  140.7609  143.3162  151.2727 LP  0  0  0  0  0  0  0  0  0  0  0  0  # atno 17342 bound_to 10162
  139.6700  144.0037  152.2747 LP  0  0  0  0  0  0  0  0  0  0  0  0  # atno 17343 bound_to 10162
  156.4272  130.7797  151.2816 LP  0  0  0  0  0  0  0  0  0  0  0  0  # atno 17370 bound_to 10713
  157.7506  131.0165  150.3547 LP  0  0  0  0  0  0  0  0  0  0  0  0  # atno 17371 bound_to 10713
  141.1838  133.8357  157.1162 LP  0  0  0  0  0  0  0  0  0  0  0  0  # atno 17394 bound_to 11000
  140.0300  134.9906  157.0761 LP  0  0  0  0  0  0  0  0  0  0  0  0  # atno 17395 bound_to 11000

$$$$
