AV-unprocessed.smi:160|AV-procd|sdf|1359|dock3
  -GOLD-   2262019 63D 1   1.00000     0.00000
 Structure written by MMmdl.
 28 29  0  0  0  0  0  0  0  0  2 V2000
  151.9354  137.2275  154.0638 N   0  5  0  0  0  0  0  0  0  0  0  0
  152.3418  138.4544  154.4574 C   0  0  0  0  0  0  0  0  0  0  0  0
  153.5069  138.8276  154.5894 O   0  0  0  0  0  0  0  0  0  0  0  0
  151.2195  139.4218  154.7490 C   0  0  0  0  0  0  0  0  0  0  0  0
  151.4684  140.6138  155.3724 N   0  0  0  0  0  0  0  0  0  0  0  0
  150.2329  141.0955  155.4111 C   0  0  0  0  0  0  0  0  0  0  0  0
  149.3160  140.2956  154.8595 N   0  0  0  0  0  0  0  0  0  0  0  0
  147.8361  140.4684  154.7397 C   0  0  2  0  0  0  0  0  0  0  0  0
  147.2397  139.3584  155.3430 O   0  0  0  0  0  0  0  0  0  0  0  0
  146.4204  138.6452  154.4179 C   0  0  2  0  0  0  0  0  0  0  0  0
  146.5235  137.1378  154.6981 C   0  0  0  0  0  0  0  0  0  0  0  0
  147.8608  136.7062  154.5635 O   0  0  0  0  0  0  0  0  0  0  0  0
  146.9686  139.0460  153.0465 C   0  0  1  0  0  0  0  0  0  0  0  0
  146.0213  138.9108  152.0028 O   0  0  0  0  0  0  0  0  0  0  0  0
  147.4070  140.4883  153.2661 C   0  0  1  0  0  0  0  0  0  0  0  0
  146.3595  141.4187  153.0604 O   0  0  0  0  0  0  0  0  0  0  0  0
  149.9462  139.1764  154.4260 N   0  0  0  0  0  0  0  0  0  0  0  0
  147.6236  141.3917  155.2805 H   0  0  0  0  0  0  0  0  0  0  0  0
  145.3924  139.0004  154.5145 H   0  0  0  0  0  0  0  0  0  0  0  0
  147.8401  138.4361  152.8054 H   0  0  0  0  0  0  0  0  0  0  0  0
  148.2390  140.7675  152.6175 H   0  0  0  0  0  0  0  0  0  0  0  0
  151.5178  137.1271  153.1310 H   0  0  0  0  0  0  0  0  0  0  0  0
  149.9914  142.0517  155.8515 H   0  0  0  0  0  0  0  0  0  0  0  0
  146.2145  136.9232  155.7212 H   0  0  0  0  0  0  0  0  0  0  0  0
  145.8698  136.5676  154.0370 H   0  0  0  0  0  0  0  0  0  0  0  0
  147.9795  136.3677  153.6891 H   0  0  0  0  0  0  0  0  0  0  0  0
  145.4008  139.6203  152.0690 H   0  0  0  0  0  0  0  0  0  0  0  0
  145.5457  140.9399  153.0183 H   0  0  0  0  0  0  0  0  0  0  0  0
  1  2  1  0  0  0  0
  1 22  1  0  0  0  0
  2  3  2  0  0  0  0
  2  4  1  0  0  0  0
  4 17  2  0  0  0  0
  4  5  1  0  0  0  0
  5  6  2  0  0  0  0
  6  7  1  0  0  0  0
  6 23  1  0  0  0  0
  7  8  1  0  0  0  0
  7 17  1  0  0  0  0
  8 18  1  0  0  0  0
  8 15  1  0  0  0  0
  8  9  1  0  0  0  0
  9 10  1  0  0  0  0
 10 19  1  0  0  0  0
 10 11  1  0  0  0  0
 10 13  1  0  0  0  0
 11 12  1  0  0  0  0
 11 24  1  0  0  0  0
 11 25  1  0  0  0  0
 12 26  1  0  0  0  0
 13 20  1  0  0  0  0
 13 14  1  0  0  0  0
 13 15  1  0  0  0  0
 14 27  1  0  0  0  0
 15 21  1  0  0  0  0
 15 16  1  0  0  0  0
 16 28  1  0  0  0  0
M  CHG  1   1  -1
M  END
> <s_m_source_file>
AV-unprocessed.smi

> <i_m_source_file_index>
160

> <i_lp_mmshare_version>
43012

> <i_f3d_flags>
0

> <s_epik_input>
W05IMl1DKD1PKWMxbltjSF1uKG4xKVtDQEBIXTJPW0NASF0oW0NIMl1bT0hdKVtDQEBIXShbT0hdKVtDQEhdMltPSF0=

> <s_epik_cmdline>
J2VwaWtfcHl0aG9uJywgJy1waCcsICc3LjAnLCAnLXRuJywgJzgnLCAnLW1hJywgJzIwMCcsICctbWV0YWxfYmluZGluZycsICctaW1hZScsICc8aW5maWxlLm1hZT4nLCAnLW9tYWUnLCAnPG91dGZpbGUubWFlPic=

> <r_lp_tautomer_probability>
1

> <r_epik_Ionization_Penalty>
6.6993

> <r_epik_Ionization_Penalty_Charging>
6.6993

> <r_epik_Ionization_Penalty_Neutral>
6.01698e-06

> <r_epik_State_Penalty>
6.69929

> <r_epik_Charging_Adjusted_Penalty>
13.3986

> <i_epik_Tot_Q>
-1

> <i_epik_Tot_abs_Q>
1

> <r_epik_Metal_State_Penalty>
2.62798

> <b_epik_Metal_Only>
1

> <s_epik_Chemistry_Notes>
This compound contains an acetal/aminal-like group ( X-CH(R)-Y where X, Y are N, S, or O) that may be acid/base labile, releasing an aldehyde.

> <s_lp_Force_Field>
OPLS_2005

> <r_lp_Energy>
41.4703

> <b_lp_Chiralities_Consistent>
1

> <s_lp_Variant>
AV-unprocessed.smi:160-17

> <Gold.Version>
5.8.1

> <Gold.Id.Protein>
6NUR|6NUR_protein|mol2

> <Gold.PLP.Fitness>
47.6839

> <Gold.PLP.PLP>
-27.2957

> <Gold.PLP.part.hbond>
-7.8260

> <Gold.PLP.part.metal>
0.0000

> <Gold.PLP.part.buried>
-4.3204

> <Gold.PLP.part.nonpolar>
-16.5602

> <Gold.PLP.part.repulsive>
0.1854

> <Gold.PLP.ligand.clash>
0.0000

> <Gold.PLP.ligand.torsion>
0.0892

> <Gold.PLP.Chemscore.Hbond>
6.8480

> <Gold.PLP.Chemscore.CHOScore>
0.0000

> <Gold.PLP.Chemscore.Metal>
0.0000

> <Gold.Chemscore.Hbonds>
donor molecule, donor type, donor heavy atom, donor atom, acceptor molecule, acceptor atom, score
      L1  H     1    22       P1  7949  0.99
      L1  H    12    26       P1  7948  0.89
      L1  H    14    27       P1 10175  1.00
      L1  H    16    28       P1 10175  1.00
      P1  H  7997  8009       L1     3  0.83
      P1  H 10752 10765       L1     1  1.79
      L1  C     6    23       P1  8028  0.09

> <Gold.PLP.Chemscore.Internal.Correction>
0.0227

> <Gold.Rescore>
     Score         DG    S(hbond)    S(metal)    S(lipo)     H(rot)  DE(clash)    DE(int)     intcor
     12.59     -13.43       4.87        0.00      17.36       4.04       0.79       0.05       ----

> <Gold.Chemscore.Fitness>
12.5873

> <Gold.Chemscore.DG>
-13.4258

> <Gold.Chemscore.ZeroCoef>
-5.4800

> <Gold.Chemscore.Hbond>
4.8675

> <Gold.Chemscore.Metal>
0.0000

> <Gold.Chemscore.Lipo>
17.3619

> <Gold.Chemscore.Internal_Hbond>
0.0000

> <Gold.Chemscore.DEClash>
0.7856

> <Gold.Chemscore.DEInternal>
0.0529

> <Gold.Chemscore.Rot>
4.0403

> <Gold.Chemscore.Internal.Correction>
   9.000000E+99

> <Gold.Chemscore.Hbonds>
donor molecule, donor type, donor heavy atom, donor atom, acceptor molecule, acceptor atom, score
      L1  H     1    22       P1  7949  0.79
      L1  H    12    26       P1  7948  0.85
      L1  H    14    27       P1 10175  0.91
      L1  H    16    28       P1 10175  0.38
      P1  H  7997  8009       L1     3  0.77
      P1  H 10752 10765       L1     1  0.17

> <Gold.Chemscore.Hbond.Weighted>
-16.2575

> <Gold.Chemscore.Metal.Weighted>
-0.0000

> <Gold.Chemscore.Lipo.Weighted>
-2.0313

> <Gold.Chemscore.Internal_Hbond.Weighted>
0.0000

> <Gold.Chemscore.DEClash.Weighted>
0.7856

> <Gold.Chemscore.DEInternal.Weighted>
0.0529

> <Gold.Chemscore.Rot.Weighted>
10.3431

> <Gold.Chemscore.Internal.Correction.Weighted>
   9.000000E+99

> <Gold.Protein.RotatedTorsions>
[ 6907 6896 6895 6894 ] final  -87.10 input  -60.11 | X-H torsion
[ 7974 7965 7964 7962 ] final -123.11 input  175.53 | X-H torsion
[ 8008 7997 7996 7995 ] final -136.07 input   59.86 | X-H torsion
[ 10167 10162 10161 10158 ] final   95.75 input  -65.29 | X-H torsion
[ 10718 10713 10712 10709 ] final -129.94 input   66.30 | X-H torsion
[ 10763 10752 10751 10750 ] final  143.73 input  -60.55 | X-H torsion
[ 11005 11000 10999 10996 ] final  -81.10 input  -57.11 | X-H torsion

> <Gold.Protein.ActiveResidues>
 VAL166  LYS551  ARG553  GLY616  TRP617  ASP618  TYR619  PRO620  LYS621  CYS622 
 ASP623  PHE694  ASN695  SER759  ASP760  ASP761  ALA762  ILE779  LEU786  VAL792 
 PHE793  MET794  SER795  GLU796  ALA797  LYS798  CYS799  TRP800  GLU811  SER814 

> <Gold.Protein.RotatedAtoms>
  150.6866  134.2949  159.4681 H   0  0  0  0  0  0  0  0  0  0  0  0  # atno 6907 bound_to 6896
  152.0850  134.9443  160.0582 H   0  0  0  0  0  0  0  0  0  0  0  0  # atno 6908 bound_to 6896
  152.0781  133.4104  159.4526 H   0  0  0  0  0  0  0  0  0  0  0  0  # atno 6909 bound_to 6896
  145.0222  140.7997  143.4374 H   0  0  0  0  0  0  0  0  0  0  0  0  # atno 7974 bound_to 7965
  155.3892  140.0499  157.3041 H   0  0  0  0  0  0  0  0  0  0  0  0  # atno 8008 bound_to 7997
  154.5044  140.2169  155.9241 H   0  0  0  0  0  0  0  0  0  0  0  0  # atno 8009 bound_to 7997
  156.1508  140.3136  155.8650 H   0  0  0  0  0  0  0  0  0  0  0  0  # atno 8010 bound_to 7997
  139.7959  144.6833  150.9830 H   0  0  0  0  0  0  0  0  0  0  0  0  # atno 10167 bound_to 10162
  156.2095  130.6909  151.0633 H   0  0  0  0  0  0  0  0  0  0  0  0  # atno 10718 bound_to 10713
  153.9772  135.2945  155.3423 H   0  0  0  0  0  0  0  0  0  0  0  0  # atno 10763 bound_to 10752
  154.7289  135.5076  153.8935 H   0  0  0  0  0  0  0  0  0  0  0  0  # atno 10764 bound_to 10752
  153.0872  135.6697  154.0039 H   0  0  0  0  0  0  0  0  0  0  0  0  # atno 10765 bound_to 10752
  141.1667  133.7181  156.8372 H   0  0  0  0  0  0  0  0  0  0  0  0  # atno 11005 bound_to 11000
  145.1881  139.2316  143.5257 LP  0  0  0  0  0  0  0  0  0  0  0  0  # atno 17320 bound_to 7965
  146.3487  140.1670  142.8590 LP  0  0  0  0  0  0  0  0  0  0  0  0  # atno 17321 bound_to 7965
  140.7820  143.4332  151.0663 LP  0  0  0  0  0  0  0  0  0  0  0  0  # atno 17342 bound_to 10162
  139.8006  143.8088  152.3162 LP  0  0  0  0  0  0  0  0  0  0  0  0  # atno 17343 bound_to 10162
  157.7031  131.0768  150.6757 LP  0  0  0  0  0  0  0  0  0  0  0  0  # atno 17370 bound_to 10713
  156.6816  130.4569  149.5626 LP  0  0  0  0  0  0  0  0  0  0  0  0  # atno 17371 bound_to 10713
  140.2009  134.8898  157.3167 LP  0  0  0  0  0  0  0  0  0  0  0  0  # atno 17394 bound_to 11000
  140.2189  134.4048  155.7575 LP  0  0  0  0  0  0  0  0  0  0  0  0  # atno 17395 bound_to 11000

$$$$
