AV-unprocessed.smi:258|AV-procd|sdf|1967|dock10
  -GOLD-   2262021123D 1   1.00000     0.00000
 Structure written by MMmdl.
 57 60  0  0  0  0  0  0  0  0  1 V2000
  156.3691  140.7770  161.9532 O   0  0  0  0  0  0  0  0  0  0  0  0
  154.9965  140.5301  161.7331 C   0  0  0  0  0  0  0  0  0  0  0  0
  154.5795  141.0454  160.3501 C   0  0  0  0  0  0  0  0  0  0  0  0
  153.8061  142.2257  160.5121 O   0  0  0  0  0  0  0  0  0  0  0  0
  153.2622  142.7481  159.3070 C   0  0  2  0  0  0  0  0  0  0  0  0
  152.4798  144.0512  159.5642 C   0  0  0  0  0  0  0  0  0  0  0  0
  151.7836  144.5132  158.2756 C   0  0  0  0  0  0  0  0  0  0  0  0
  150.8848  143.4057  157.7027 C   0  0  0  0  0  0  0  0  0  0  0  0
  151.6329  142.1584  157.5348 N   0  0  0  0  0  0  0  0  0  0  0  0
  151.0964  141.2540  156.6739 C   0  0  0  0  0  0  0  0  0  0  0  0
  150.1057  141.6908  155.8527 N   0  0  0  0  0  0  0  0  0  0  0  0
  149.5365  140.8628  154.9731 C   0  0  0  0  0  0  0  0  0  0  0  0
  149.8002  139.5751  154.7494 N   0  0  0  0  0  0  0  0  0  0  0  0
  150.7905  139.1237  155.5701 C   0  0  0  0  0  0  0  0  0  0  0  0
  151.4879  139.8853  156.5530 C   0  0  0  0  0  0  0  0  0  0  0  0
  152.4156  139.0707  157.1958 N   0  0  0  0  0  0  0  0  0  0  0  0
  152.2827  137.9072  156.6217 C   0  0  0  0  0  0  0  0  0  0  0  0
  151.3342  137.8519  155.6282 N   0  0  0  0  0  0  0  0  0  0  0  0
  150.9867  136.6878  154.8312 C   0  0  0  0  0  0  0  0  0  0  0  0
  150.9026  135.3838  155.6621 C   0  0  1  0  0  0  0  0  0  0  0  0
  149.6924  135.4296  156.6245 C   0  0  0  0  0  0  0  0  0  0  0  0
  149.8972  134.5629  157.7208 O   0  0  0  0  0  0  0  0  0  0  0  0
  150.9426  134.1082  154.7740 C   0  0  2  0  0  0  0  0  0  0  0  0
  149.7884  133.9424  153.7902 C   0  0  0  0  0  0  0  0  0  0  0  0
  149.6963  132.4301  153.6474 C   0  0  0  0  0  0  0  0  0  0  0  0
  149.9230  131.9807  154.9726 O   0  0  0  0  0  0  0  0  0  0  0  0
  150.9628  132.7715  155.5375 C   0  0  0  0  0  0  0  0  0  0  0  0
  152.3287  141.6720  158.7253 C   0  0  0  0  0  0  0  0  0  0  0  0
  156.8681  140.0884  161.5408 H   0  0  0  0  0  0  0  0  0  0  0  0
  154.8439  139.4519  161.7859 H   0  0  0  0  0  0  0  0  0  0  0  0
  154.3948  140.9806  162.5233 H   0  0  0  0  0  0  0  0  0  0  0  0
  155.4522  141.2067  159.7167 H   0  0  0  0  0  0  0  0  0  0  0  0
  153.9619  140.2893  159.8633 H   0  0  0  0  0  0  0  0  0  0  0  0
  154.0616  142.9330  158.5866 H   0  0  0  0  0  0  0  0  0  0  0  0
  151.7366  143.8878  160.3455 H   0  0  0  0  0  0  0  0  0  0  0  0
  153.1405  144.8407  159.9211 H   0  0  0  0  0  0  0  0  0  0  0  0
  151.1935  145.4094  158.4687 H   0  0  0  0  0  0  0  0  0  0  0  0
  152.5350  144.7898  157.5350 H   0  0  0  0  0  0  0  0  0  0  0  0
  150.0479  143.2207  158.3773 H   0  0  0  0  0  0  0  0  0  0  0  0
  150.4568  143.7493  156.7608 H   0  0  0  0  0  0  0  0  0  0  0  0
  148.7594  141.2944  154.3598 H   0  0  0  0  0  0  0  0  0  0  0  0
  152.8793  137.0524  156.9059 H   0  0  0  0  0  0  0  0  0  0  0  0
  150.0309  136.8950  154.3489 H   0  0  0  0  0  0  0  0  0  0  0  0
  151.7163  136.5785  154.0282 H   0  0  0  0  0  0  0  0  0  0  0  0
  151.7992  135.3410  156.2831 H   0  0  0  0  0  0  0  0  0  0  0  0
  149.5272  136.4380  157.0034 H   0  0  0  0  0  0  0  0  0  0  0  0
  148.7723  135.1222  156.1294 H   0  0  0  0  0  0  0  0  0  0  0  0
  149.1954  134.6913  158.3408 H   0  0  0  0  0  0  0  0  0  0  0  0
  151.8625  134.1211  154.1885 H   0  0  0  0  0  0  0  0  0  0  0  0
  148.8518  134.3179  154.1997 H   0  0  0  0  0  0  0  0  0  0  0  0
  149.9633  134.4442  152.8385 H   0  0  0  0  0  0  0  0  0  0  0  0
  148.7292  132.0993  153.2685 H   0  0  0  0  0  0  0  0  0  0  0  0
  150.4781  132.0488  152.9884 H   0  0  0  0  0  0  0  0  0  0  0  0
  151.9186  132.2663  155.3920 H   0  0  0  0  0  0  0  0  0  0  0  0
  150.8136  132.8767  156.6116 H   0  0  0  0  0  0  0  0  0  0  0  0
  152.9167  140.7864  158.4810 H   0  0  0  0  0  0  0  0  0  0  0  0
  151.5907  141.3792  159.4730 H   0  0  0  0  0  0  0  0  0  0  0  0
  1  2  1  0  0  0  0
  1 29  1  0  0  0  0
  2  3  1  0  0  0  0
  2 30  1  0  0  0  0
  2 31  1  0  0  0  0
  3  4  1  0  0  0  0
  3 32  1  0  0  0  0
  3 33  1  0  0  0  0
  4  5  1  0  0  0  0
  5 28  1  0  0  0  0
  5  6  1  0  0  0  0
  5 34  1  0  0  0  0
  6  7  1  0  0  0  0
  6 35  1  0  0  0  0
  6 36  1  0  0  0  0
  7  8  1  0  0  0  0
  7 37  1  0  0  0  0
  7 38  1  0  0  0  0
  8  9  1  0  0  0  0
  8 39  1  0  0  0  0
  8 40  1  0  0  0  0
  9 10  1  0  0  0  0
  9 28  1  0  0  0  0
 10 15  1  0  0  0  0
 10 11  2  0  0  0  0
 11 12  1  0  0  0  0
 12 13  2  0  0  0  0
 12 41  1  0  0  0  0
 13 14  1  0  0  0  0
 14 18  1  0  0  0  0
 14 15  2  0  0  0  0
 15 16  1  0  0  0  0
 16 17  2  0  0  0  0
 17 18  1  0  0  0  0
 17 42  1  0  0  0  0
 18 19  1  0  0  0  0
 19 20  1  0  0  0  0
 19 43  1  0  0  0  0
 19 44  1  0  0  0  0
 20 21  1  0  0  0  0
 20 23  1  0  0  0  0
 20 45  1  0  0  0  0
 21 22  1  0  0  0  0
 21 46  1  0  0  0  0
 21 47  1  0  0  0  0
 22 48  1  0  0  0  0
 23 27  1  0  0  0  0
 23 24  1  0  0  0  0
 23 49  1  0  0  0  0
 24 25  1  0  0  0  0
 24 50  1  0  0  0  0
 24 51  1  0  0  0  0
 25 26  1  0  0  0  0
 25 52  1  0  0  0  0
 25 53  1  0  0  0  0
 26 27  1  0  0  0  0
 27 54  1  0  0  0  0
 27 55  1  0  0  0  0
 28 56  1  0  0  0  0
 28 57  1  0  0  0  0
M  END
> <s_m_source_file>
AV-unprocessed.smi

> <i_m_source_file_index>
258

> <i_lp_mmshare_version>
43012

> <i_f3d_flags>
0

> <s_epik_input>
W09IXVtDSDJdW0NIMl1PW0NAQEhdMVtDSDJdW0NIMl1bQ0gyXU4oW0NIMl0xKWMobltjSF1uMiljKGMyMyluW2NIXW4zW0NIMl1bQ0BIXShbQ0gyXVtPSF0pW0NAQEhdNFtDSDJdW0NIMl1PW0NIMl00

> <s_epik_cmdline>
J2VwaWtfcHl0aG9uJywgJy1waCcsICc3LjAnLCAnLXRuJywgJzgnLCAnLW1hJywgJzIwMCcsICctbWV0YWxfYmluZGluZycsICctaW1hZScsICc8aW5maWxlLm1hZT4nLCAnLW9tYWUnLCAnPG91dGZpbGUubWFlPic=

> <r_lp_tautomer_probability>
1

> <r_epik_Ionization_Penalty>
0.00349036

> <r_epik_Ionization_Penalty_Charging>
0

> <r_epik_Ionization_Penalty_Neutral>
0.00349036

> <r_epik_State_Penalty>
0.00229798

> <r_epik_Charging_Adjusted_Penalty>
0.00229798

> <i_epik_Tot_Q>
0

> <i_epik_Tot_abs_Q>
0

> <r_epik_Metal_State_Penalty>
-0

> <b_epik_Metal_Only>
0

> <s_lp_Force_Field>
OPLS_2005

> <r_lp_Energy>
47.4534

> <b_lp_Chiralities_Consistent>
1

> <s_lp_Variant>
AV-unprocessed.smi:258-3

> <Gold.Version>
5.8.1

> <Gold.Id.Protein>
6NUR|6NUR_protein|mol2

> <Gold.PLP.Fitness>
50.7072

> <Gold.PLP.PLP>
-49.1659

> <Gold.PLP.part.hbond>
-2.0000

> <Gold.PLP.part.metal>
0.0000

> <Gold.PLP.part.buried>
-6.6497

> <Gold.PLP.part.nonpolar>
-40.9996

> <Gold.PLP.part.repulsive>
0.1888

> <Gold.PLP.ligand.clash>
0.0000

> <Gold.PLP.ligand.torsion>
1.0068

> <Gold.PLP.Chemscore.Hbond>
1.0000

> <Gold.PLP.Chemscore.CHOScore>
0.0000

> <Gold.PLP.Chemscore.Metal>
0.0000

> <Gold.PLP.Chemscore.Internal.Correction>
0.5549

> <Gold.Rescore>
     Score         DG    S(hbond)    S(metal)    S(lipo)     H(rot)  DE(clash)    DE(int)     intcor
      9.00     -11.18       0.98        0.00     106.81       3.94       0.00       2.18       ----

> <Gold.Chemscore.Fitness>
8.9988

> <Gold.Chemscore.DG>
-11.1826

> <Gold.Chemscore.ZeroCoef>
-5.4800

> <Gold.Chemscore.Hbond>
0.9821

> <Gold.Chemscore.Metal>
0.0000

> <Gold.Chemscore.Lipo>
106.8149

> <Gold.Chemscore.Internal_Hbond>
0.0000

> <Gold.Chemscore.DEClash>
0.0000

> <Gold.Chemscore.DEInternal>
2.1837

> <Gold.Chemscore.Rot>
3.9356

> <Gold.Chemscore.Internal.Correction>
   9.000000E+99

> <Gold.Chemscore.Hbond.Weighted>
-3.2803

> <Gold.Chemscore.Metal.Weighted>
-0.0000

> <Gold.Chemscore.Lipo.Weighted>
-12.4973

> <Gold.Chemscore.Internal_Hbond.Weighted>
0.0000

> <Gold.Chemscore.DEClash.Weighted>
0.0000

> <Gold.Chemscore.DEInternal.Weighted>
2.1837

> <Gold.Chemscore.Rot.Weighted>
10.0751

> <Gold.Chemscore.Internal.Correction.Weighted>
   9.000000E+99

> <Gold.Protein.RotatedTorsions>
[ 6907 6896 6895 6894 ] final   25.77 input  -60.11 | X-H torsion
[ 7974 7965 7964 7962 ] final   36.09 input  175.53 | X-H torsion
[ 8008 7997 7996 7995 ] final -116.37 input   59.86 | X-H torsion
[ 10167 10162 10161 10158 ] final -123.65 input  -65.29 | X-H torsion
[ 10718 10713 10712 10709 ] final  -87.91 input   66.30 | X-H torsion
[ 10763 10752 10751 10750 ] final   39.84 input  -60.55 | X-H torsion
[ 11005 11000 10999 10996 ] final  -37.02 input  -57.11 | X-H torsion

> <Gold.Protein.ActiveResidues>
 VAL166  LYS551  ARG553  GLY616  TRP617  ASP618  TYR619  PRO620  LYS621  CYS622 
 ASP623  PHE694  ASN695  SER759  ASP760  ASP761  ALA762  ILE779  LEU786  VAL792 
 PHE793  MET794  SER795  GLU796  ALA797  LYS798  CYS799  TRP800  GLU811  SER814 

> <Gold.Protein.RotatedAtoms>
  151.9775  135.0045  160.0555 H   0  0  0  0  0  0  0  0  0  0  0  0  # atno 6907 bound_to 6896
  152.1726  133.4649  159.4925 H   0  0  0  0  0  0  0  0  0  0  0  0  # atno 6908 bound_to 6896
  150.6904  134.1851  159.4306 H   0  0  0  0  0  0  0  0  0  0  0  0  # atno 6909 bound_to 6896
  146.1236  139.6060  142.9273 H   0  0  0  0  0  0  0  0  0  0  0  0  # atno 7974 bound_to 7965
  155.0667  140.0393  157.2595 H   0  0  0  0  0  0  0  0  0  0  0  0  # atno 8008 bound_to 7997
  154.7015  140.2674  155.6690 H   0  0  0  0  0  0  0  0  0  0  0  0  # atno 8009 bound_to 7997
  156.2762  140.2739  156.1628 H   0  0  0  0  0  0  0  0  0  0  0  0  # atno 8010 bound_to 7997
  140.0012  143.5538  152.2302 H   0  0  0  0  0  0  0  0  0  0  0  0  # atno 10167 bound_to 10162
  155.9984  130.4816  150.4938 H   0  0  0  0  0  0  0  0  0  0  0  0  # atno 10718 bound_to 10713
  152.9954  135.6209  154.2530 H   0  0  0  0  0  0  0  0  0  0  0  0  # atno 10763 bound_to 10752
  154.2268  135.2793  155.2906 H   0  0  0  0  0  0  0  0  0  0  0  0  # atno 10764 bound_to 10752
  154.5482  135.5741  153.6957 H   0  0  0  0  0  0  0  0  0  0  0  0  # atno 10765 bound_to 10752
  140.9920  133.7000  156.1866 H   0  0  0  0  0  0  0  0  0  0  0  0  # atno 11005 bound_to 11000
  145.5413  141.0420  143.2329 LP  0  0  0  0  0  0  0  0  0  0  0  0  # atno 17320 bound_to 7965
  144.7621  139.6933  143.7230 LP  0  0  0  0  0  0  0  0  0  0  0  0  # atno 17321 bound_to 7965
  139.6270  144.7638  151.2617 LP  0  0  0  0  0  0  0  0  0  0  0  0  # atno 17342 bound_to 10162
  140.7418  143.6546  150.8218 LP  0  0  0  0  0  0  0  0  0  0  0  0  # atno 17343 bound_to 10162
  157.2930  131.0630  151.2120 LP  0  0  0  0  0  0  0  0  0  0  0  0  # atno 17370 bound_to 10713
  157.3126  130.6897  149.6224 LP  0  0  0  0  0  0  0  0  0  0  0  0  # atno 17371 bound_to 10713
  140.7025  134.4548  157.5585 LP  0  0  0  0  0  0  0  0  0  0  0  0  # atno 17394 bound_to 11000
  139.8996  134.8586  156.1951 LP  0  0  0  0  0  0  0  0  0  0  0  0  # atno 17395 bound_to 11000

$$$$
