AV-unprocessed.smi:2336|AV-procd|sdf|9328|dock10
  -GOLD-   2272012543D 1   1.00000     0.00000
 Structure written by MMmdl.
 50 51  0  0  0  0  0  0  0  0  2 V2000
  146.8738  139.4839  152.3241 C   0  0  0  0  0  0  0  0  0  0  0  0
  147.5640  139.0703  153.6355 C   0  0  0  0  0  0  0  0  0  0  0  0
  146.8076  137.9152  154.3140 C   0  0  0  0  0  0  0  0  0  0  0  0
  147.8772  140.2287  154.6295 C   0  0  1  0  0  0  0  0  0  0  0  0
  148.8602  141.3023  154.0943 C   0  0  0  0  0  0  0  0  0  0  0  0
  149.3951  142.1265  155.1701 N   0  0  0  0  0  0  0  0  0  0  0  0
  150.2299  141.6796  156.1172 C   0  0  0  0  0  0  0  0  0  0  0  0
  150.6345  140.5185  156.1611 O   0  0  0  0  0  0  0  0  0  0  0  0
  150.5523  142.6598  156.9791 N   0  0  0  0  0  0  0  0  0  0  0  0
  151.4049  142.6256  158.1184 C   0  0  0  0  0  0  0  0  0  0  0  0
  152.0011  141.4547  158.6489 C   0  0  0  0  0  0  0  0  0  0  0  0
  152.8205  141.5711  159.7898 C   0  0  0  0  0  0  0  0  0  0  0  0
  153.0688  142.7425  160.4123 N   0  0  0  0  0  0  0  0  0  0  0  0
  152.4953  143.8553  159.9087 C   0  0  0  0  0  0  0  0  0  0  0  0
  151.6607  143.8495  158.7731 C   0  0  0  0  0  0  0  0  0  0  0  0
  151.1157  145.0049  158.3214 F   0  0  0  0  0  0  0  0  0  0  0  0
  146.6493  140.7904  155.2234 N   0  0  0  0  0  0  0  0  0  0  0  0
  146.0327  141.8897  154.4683 C   0  0  0  0  0  0  0  0  0  0  0  0
  144.6674  142.2462  155.0880 C   0  0  0  0  0  0  0  0  0  0  0  0
  144.8104  142.6491  156.5077 N   0  3  0  0  0  0  0  0  0  0  0  0
  145.3451  144.0182  156.6920 C   0  0  0  0  0  0  0  0  0  0  0  0
  145.5457  141.6112  157.2690 C   0  0  0  0  0  0  0  0  0  0  0  0
  146.8864  141.2541  156.5940 C   0  0  0  0  0  0  0  0  0  0  0  0
  145.8352  139.7693  152.4863 H   0  0  0  0  0  0  0  0  0  0  0  0
  146.8655  138.6526  151.6189 H   0  0  0  0  0  0  0  0  0  0  0  0
  147.3876  140.3116  151.8363 H   0  0  0  0  0  0  0  0  0  0  0  0
  148.5253  138.6485  153.3413 H   0  0  0  0  0  0  0  0  0  0  0  0
  145.8016  138.2128  154.6106 H   0  0  0  0  0  0  0  0  0  0  0  0
  147.3308  137.5714  155.2067 H   0  0  0  0  0  0  0  0  0  0  0  0
  146.7124  137.0616  153.6421 H   0  0  0  0  0  0  0  0  0  0  0  0
  148.4074  139.7327  155.4441 H   0  0  0  0  0  0  0  0  0  0  0  0
  149.6953  140.8445  153.5627 H   0  0  0  0  0  0  0  0  0  0  0  0
  148.3532  141.9568  153.3838 H   0  0  0  0  0  0  0  0  0  0  0  0
  149.1084  143.0940  155.1962 H   0  0  0  0  0  0  0  0  0  0  0  0
  150.1499  143.5646  156.7820 H   0  0  0  0  0  0  0  0  0  0  0  0
  151.8508  140.4769  158.2206 H   0  0  0  0  0  0  0  0  0  0  0  0
  153.2879  140.6958  160.2158 H   0  0  0  0  0  0  0  0  0  0  0  0
  152.7070  144.7791  160.4266 H   0  0  0  0  0  0  0  0  0  0  0  0
  146.6792  142.7675  154.4641 H   0  0  0  0  0  0  0  0  0  0  0  0
  145.8860  141.6115  153.4276 H   0  0  0  0  0  0  0  0  0  0  0  0
  144.1861  143.0437  154.5208 H   0  0  0  0  0  0  0  0  0  0  0  0
  144.0016  141.3837  155.0325 H   0  0  0  0  0  0  0  0  0  0  0  0
  146.3663  144.1111  156.3232 H   0  0  0  0  0  0  0  0  0  0  0  0
  145.3412  144.2896  157.7479 H   0  0  0  0  0  0  0  0  0  0  0  0
  144.7265  144.7442  156.1633 H   0  0  0  0  0  0  0  0  0  0  0  0
  145.7100  141.9448  158.2942 H   0  0  0  0  0  0  0  0  0  0  0  0
  144.9211  140.7191  157.3329 H   0  0  0  0  0  0  0  0  0  0  0  0
  147.3634  140.4630  157.1739 H   0  0  0  0  0  0  0  0  0  0  0  0
  147.5679  142.1054  156.6011 H   0  0  0  0  0  0  0  0  0  0  0  0
  143.8763  142.6747  156.8912 H   0  0  0  0  0  0  0  0  0  0  0  0
  1  2  1  0  0  0  0
  1 24  1  0  0  0  0
  1 25  1  0  0  0  0
  1 26  1  0  0  0  0
  2  3  1  0  0  0  0
  2  4  1  0  0  0  0
  2 27  1  0  0  0  0
  3 28  1  0  0  0  0
  3 29  1  0  0  0  0
  3 30  1  0  0  0  0
  4  5  1  0  0  0  0
  4 17  1  0  0  0  0
  4 31  1  0  0  0  0
  5  6  1  0  0  0  0
  5 32  1  0  0  0  0
  5 33  1  0  0  0  0
  6  7  1  0  0  0  0
  6 34  1  0  0  0  0
  7  8  2  0  0  0  0
  7  9  1  0  0  0  0
  9 10  1  0  0  0  0
  9 35  1  0  0  0  0
 10 15  1  0  0  0  0
 10 11  2  0  0  0  0
 11 12  1  0  0  0  0
 11 36  1  0  0  0  0
 12 13  2  0  0  0  0
 12 37  1  0  0  0  0
 13 14  1  0  0  0  0
 14 15  2  0  0  0  0
 14 38  1  0  0  0  0
 15 16  1  0  0  0  0
 17 23  1  0  0  0  0
 17 18  1  0  0  0  0
 18 19  1  0  0  0  0
 18 39  1  0  0  0  0
 18 40  1  0  0  0  0
 19 20  1  0  0  0  0
 19 41  1  0  0  0  0
 19 42  1  0  0  0  0
 20 21  1  0  0  0  0
 20 22  1  0  0  0  0
 20 50  1  0  0  0  0
 21 43  1  0  0  0  0
 21 44  1  0  0  0  0
 21 45  1  0  0  0  0
 22 23  1  0  0  0  0
 22 46  1  0  0  0  0
 22 47  1  0  0  0  0
 23 48  1  0  0  0  0
 23 49  1  0  0  0  0
M  CHG  1  20   1
M  END
> <s_m_source_file>
AV-unprocessed.smi

> <i_m_source_file_index>
2336

> <i_lp_mmshare_version>
43012

> <i_f3d_flags>
0

> <s_epik_input>
W0NIMl0xW0NIMl1OKFtDSDNdKVtDSDJdW0NIMl1OMVtDQEhdKFtDSF0oW0NIM10pW0NIM10pW0NIMl1bTkhdQyg9TylbTkhdYzJbY0hdW2NIXW5bY0hdYzJG

> <s_epik_cmdline>
J2VwaWtfcHl0aG9uJywgJy1waCcsICc3LjAnLCAnLXRuJywgJzgnLCAnLW1hJywgJzIwMCcsICctbWV0YWxfYmluZGluZycsICctaW1hZScsICc8aW5maWxlLm1hZT4nLCAnLW9tYWUnLCAnPG91dGZpbGUubWFlPic=

> <r_epik_Ionization_Penalty>
0.0313013

> <r_epik_Ionization_Penalty_Charging>
0.0272987

> <r_epik_Ionization_Penalty_Neutral>
0.00400259

> <r_epik_State_Penalty>
0.0776825

> <r_epik_Charging_Adjusted_Penalty>
0.104981

> <i_epik_Tot_Q>
1

> <i_epik_Tot_abs_Q>
1

> <r_epik_Metal_State_Penalty>
0.0776139

> <b_epik_Metal_Only>
0

> <s_lp_Force_Field>
OPLS_2005

> <r_lp_Energy>
31.1795

> <b_lp_Chiralities_Consistent>
1

> <s_lp_Variant>
AV-unprocessed.smi:2336-2

> <Gold.Version>
5.8.1

> <Gold.Id.Protein>
6NUR|6NUR_protein|mol2

> <Gold.PLP.Fitness>
42.4639

> <Gold.PLP.PLP>
-37.5844

> <Gold.PLP.part.hbond>
-2.0000

> <Gold.PLP.part.metal>
0.0000

> <Gold.PLP.part.buried>
-4.8858

> <Gold.PLP.part.nonpolar>
-31.4977

> <Gold.PLP.part.repulsive>
0.3200

> <Gold.PLP.ligand.clash>
0.0000

> <Gold.PLP.ligand.torsion>
0.7158

> <Gold.PLP.Chemscore.Hbond>
1.9833

> <Gold.PLP.Chemscore.CHOScore>
0.0000

> <Gold.PLP.Chemscore.Metal>
0.0000

> <Gold.Chemscore.Hbonds>
donor molecule, donor type, donor heavy atom, donor atom, acceptor molecule, acceptor atom, score
      L1  H     6    34       P1  8028  1.00
      L1  H     9    35       P1  8028  0.98

> <Gold.PLP.Chemscore.Internal.Correction>
0.3611

> <Gold.Rescore>
     Score         DG    S(hbond)    S(metal)    S(lipo)     H(rot)  DE(clash)    DE(int)     intcor
     16.51     -18.80       1.96        0.00      94.48       1.67       0.25       2.04       ----

> <Gold.Chemscore.Fitness>
16.5135

> <Gold.Chemscore.DG>
-18.8001

> <Gold.Chemscore.ZeroCoef>
-5.4800

> <Gold.Chemscore.Hbond>
1.9612

> <Gold.Chemscore.Metal>
0.0000

> <Gold.Chemscore.Lipo>
94.4847

> <Gold.Chemscore.Internal_Hbond>
0.0000

> <Gold.Chemscore.DEClash>
0.2487

> <Gold.Chemscore.DEInternal>
2.0379

> <Gold.Chemscore.Rot>
1.6739

> <Gold.Chemscore.Internal.Correction>
   9.000000E+99

> <Gold.Chemscore.Hbonds>
donor molecule, donor type, donor heavy atom, donor atom, acceptor molecule, acceptor atom, score
      L1  H     6    34       P1  8028  1.00
      L1  H     9    35       P1  8028  0.87

> <Gold.Chemscore.Hbond.Weighted>
-6.5506

> <Gold.Chemscore.Metal.Weighted>
-0.0000

> <Gold.Chemscore.Lipo.Weighted>
-11.0547

> <Gold.Chemscore.Internal_Hbond.Weighted>
0.0000

> <Gold.Chemscore.DEClash.Weighted>
0.2487

> <Gold.Chemscore.DEInternal.Weighted>
2.0379

> <Gold.Chemscore.Rot.Weighted>
4.2851

> <Gold.Chemscore.Internal.Correction.Weighted>
   9.000000E+99

> <Gold.Protein.RotatedTorsions>
[ 6907 6896 6895 6894 ] final -140.28 input  -60.11 | X-H torsion
[ 7974 7965 7964 7962 ] final   -1.49 input  175.53 | X-H torsion
[ 8008 7997 7996 7995 ] final    1.42 input   59.86 | X-H torsion
[ 10167 10162 10161 10158 ] final  -35.56 input  -65.29 | X-H torsion
[ 10718 10713 10712 10709 ] final -178.28 input   66.30 | X-H torsion
[ 10763 10752 10751 10750 ] final   98.99 input  -60.55 | X-H torsion
[ 11005 11000 10999 10996 ] final  -86.66 input  -57.11 | X-H torsion

> <Gold.Protein.ActiveResidues>
 VAL166  LYS551  ARG553  GLY616  TRP617  ASP618  TYR619  PRO620  LYS621  CYS622 
 ASP623  PHE694  ASN695  SER759  ASP760  ASP761  ALA762  ILE779  LEU786  VAL792 
 PHE793  MET794  SER795  GLU796  ALA797  LYS798  CYS799  TRP800  GLU811  SER814 

> <Gold.Protein.RotatedAtoms>
  151.0587  133.5562  159.2635 H   0  0  0  0  0  0  0  0  0  0  0  0  # atno 6907 bound_to 6896
  151.2545  135.0633  159.9084 H   0  0  0  0  0  0  0  0  0  0  0  0  # atno 6908 bound_to 6896
  152.5394  134.0342  159.8092 H   0  0  0  0  0  0  0  0  0  0  0  0  # atno 6909 bound_to 6896
  146.2416  140.1429  142.8335 H   0  0  0  0  0  0  0  0  0  0  0  0  # atno 7974 bound_to 7965
  154.6795  140.2629  155.6923 H   0  0  0  0  0  0  0  0  0  0  0  0  # atno 8008 bound_to 7997
  156.2691  140.2813  156.1257 H   0  0  0  0  0  0  0  0  0  0  0  0  # atno 8009 bound_to 7997
  155.1052  140.0375  157.2698 H   0  0  0  0  0  0  0  0  0  0  0  0  # atno 8010 bound_to 7997
  140.7162  143.3468  151.2238 H   0  0  0  0  0  0  0  0  0  0  0  0  # atno 10167 bound_to 10162
  156.8419  130.9689  151.3099 H   0  0  0  0  0  0  0  0  0  0  0  0  # atno 10718 bound_to 10713
  153.2959  135.4129  155.1209 H   0  0  0  0  0  0  0  0  0  0  0  0  # atno 10763 bound_to 10752
  154.8534  135.3529  154.5918 H   0  0  0  0  0  0  0  0  0  0  0  0  # atno 10764 bound_to 10752
  153.6342  135.7059  153.5323 H   0  0  0  0  0  0  0  0  0  0  0  0  # atno 10765 bound_to 10752
  141.1627  133.7467  156.9193 H   0  0  0  0  0  0  0  0  0  0  0  0  # atno 11005 bound_to 11000
  145.0232  140.8810  143.5154 LP  0  0  0  0  0  0  0  0  0  0  0  0  # atno 17320 bound_to 7965
  145.1480  139.2531  143.5455 LP  0  0  0  0  0  0  0  0  0  0  0  0  # atno 17321 bound_to 7965
  139.6990  143.9565  152.2896 LP  0  0  0  0  0  0  0  0  0  0  0  0  # atno 17342 bound_to 10162
  139.9252  144.6775  150.8420 LP  0  0  0  0  0  0  0  0  0  0  0  0  # atno 17343 bound_to 10162
  157.6351  130.8760  149.9344 LP  0  0  0  0  0  0  0  0  0  0  0  0  # atno 17370 bound_to 10713
  156.0876  130.3666  150.0458 LP  0  0  0  0  0  0  0  0  0  0  0  0  # atno 17371 bound_to 10713
  140.1462  134.9260  157.2533 LP  0  0  0  0  0  0  0  0  0  0  0  0  # atno 17394 bound_to 11000
  140.2777  134.3386  155.7353 LP  0  0  0  0  0  0  0  0  0  0  0  0  # atno 17395 bound_to 11000

$$$$
