AV-unprocessed.smi:1699|AV-procd|sdf|6817|dock6
  -GOLD-   22720 7593D 1   1.00000     0.00000
 Structure written by MMmdl.
 37 38  0  0  0  0  0  0  0  0  1 V2000
  146.1832  134.4829  151.1896 C   0  0  0  0  0  0  0  0  0  0  0  0
  146.3260  133.0329  151.6237 C   0  0  0  0  0  0  0  0  0  0  0  0
  145.4561  132.0615  151.0841 C   0  0  0  0  0  0  0  0  0  0  0  0
  145.5910  130.7215  151.4853 C   0  0  0  0  0  0  0  0  0  0  0  0
  146.5972  130.4074  152.4148 C   0  0  0  0  0  0  0  0  0  0  0  0
  147.4321  131.3291  152.9362 N   0  0  0  0  0  0  0  0  0  0  0  0
  147.3151  132.6276  152.5598 C   0  0  0  0  0  0  0  0  0  0  0  0
  148.1568  133.6549  153.0722 N   0  0  0  0  0  0  0  0  0  0  0  0
  148.8842  133.6562  154.2031 C   0  0  0  0  0  0  0  0  0  0  0  0
  148.9629  132.7219  155.0012 O   0  0  0  0  0  0  0  0  0  0  0  0
  149.5323  134.8208  154.3566 N   0  0  0  0  0  0  0  0  0  0  0  0
  150.4316  135.1572  155.4581 C   0  0  2  0  0  0  0  0  0  0  0  0
  149.7190  134.8465  156.7833 C   0  0  0  0  0  0  0  0  0  0  0  0
  150.8524  136.6374  155.3525 C   0  0  1  0  0  0  0  0  0  0  0  0
  151.7585  137.1298  156.4825 C   0  0  0  0  0  0  0  0  0  0  0  0
  152.5227  138.2869  155.8566 C   0  0  0  0  0  0  0  0  0  0  0  0
  152.2720  138.1314  154.3546 C   0  0  0  0  0  0  0  0  0  0  0  0
  151.6706  136.8531  154.2127 O   0  0  0  0  0  0  0  0  0  0  0  0
  145.3762  134.6035  150.4664 H   0  0  0  0  0  0  0  0  0  0  0  0
  147.1050  134.8340  150.7250 H   0  0  0  0  0  0  0  0  0  0  0  0
  145.9626  135.1189  152.0473 H   0  0  0  0  0  0  0  0  0  0  0  0
  144.6933  132.3370  150.3707 H   0  0  0  0  0  0  0  0  0  0  0  0
  144.9409  129.9548  151.0911 H   0  0  0  0  0  0  0  0  0  0  0  0
  146.7358  129.3901  152.7498 H   0  0  0  0  0  0  0  0  0  0  0  0
  148.2071  134.4908  152.5096 H   0  0  0  0  0  0  0  0  0  0  0  0
  149.4074  135.5274  153.6469 H   0  0  0  0  0  0  0  0  0  0  0  0
  151.3251  134.5319  155.4098 H   0  0  0  0  0  0  0  0  0  0  0  0
  150.3722  135.0259  157.6376 H   0  0  0  0  0  0  0  0  0  0  0  0
  149.4104  133.8014  156.8258 H   0  0  0  0  0  0  0  0  0  0  0  0
  148.8283  135.4628  156.9102 H   0  0  0  0  0  0  0  0  0  0  0  0
  149.9717  137.2789  155.2782 H   0  0  0  0  0  0  0  0  0  0  0  0
  151.2000  137.4243  157.3714 H   0  0  0  0  0  0  0  0  0  0  0  0
  152.4603  136.3464  156.7716 H   0  0  0  0  0  0  0  0  0  0  0  0
  152.1549  139.2506  156.2108 H   0  0  0  0  0  0  0  0  0  0  0  0
  153.5849  138.2235  156.0956 H   0  0  0  0  0  0  0  0  0  0  0  0
  151.5775  138.8944  154.0000 H   0  0  0  0  0  0  0  0  0  0  0  0
  153.1869  138.2032  153.7663 H   0  0  0  0  0  0  0  0  0  0  0  0
  1  2  1  0  0  0  0
  1 19  1  0  0  0  0
  1 20  1  0  0  0  0
  1 21  1  0  0  0  0
  2  7  1  0  0  0  0
  2  3  2  0  0  0  0
  3  4  1  0  0  0  0
  3 22  1  0  0  0  0
  4  5  2  0  0  0  0
  4 23  1  0  0  0  0
  5  6  1  0  0  0  0
  5 24  1  0  0  0  0
  6  7  2  0  0  0  0
  7  8  1  0  0  0  0
  8  9  1  0  0  0  0
  8 25  1  0  0  0  0
  9 10  2  0  0  0  0
  9 11  1  0  0  0  0
 11 12  1  0  0  0  0
 11 26  1  0  0  0  0
 12 13  1  0  0  0  0
 12 14  1  0  0  0  0
 12 27  1  0  0  0  0
 13 28  1  0  0  0  0
 13 29  1  0  0  0  0
 13 30  1  0  0  0  0
 14 18  1  0  0  0  0
 14 15  1  0  0  0  0
 14 31  1  0  0  0  0
 15 16  1  0  0  0  0
 15 32  1  0  0  0  0
 15 33  1  0  0  0  0
 16 17  1  0  0  0  0
 16 34  1  0  0  0  0
 16 35  1  0  0  0  0
 17 18  1  0  0  0  0
 17 36  1  0  0  0  0
 17 37  1  0  0  0  0
M  END
> <s_m_source_file>
AV-unprocessed.smi

> <i_m_source_file_index>
1699

> <i_lp_mmshare_version>
43012

> <i_f3d_flags>
0

> <s_epik_input>
W0NIM11jMVtjSF1bY0hdW2NIXW5jMVtOSF1DKD1PKVtOSF1bQ0BIXShbQ0gzXSlbQ0BASF0yW0NIMl1bQ0gyXVtDSDJdTzI=

> <s_epik_cmdline>
J2VwaWtfcHl0aG9uJywgJy1waCcsICc3LjAnLCAnLXRuJywgJzgnLCAnLW1hJywgJzIwMCcsICctbWV0YWxfYmluZGluZycsICctaW1hZScsICc8aW5maWxlLm1hZT4nLCAnLW9tYWUnLCAnPG91dGZpbGUubWFlPic=

> <r_lp_tautomer_probability>
1

> <r_epik_Ionization_Penalty>
5.52788e-05

> <r_epik_Ionization_Penalty_Charging>
0

> <r_epik_Ionization_Penalty_Neutral>
5.52788e-05

> <r_epik_State_Penalty>
-0

> <r_epik_Charging_Adjusted_Penalty>
0

> <i_epik_Tot_Q>
0

> <i_epik_Tot_abs_Q>
0

> <r_epik_Metal_State_Penalty>
-0

> <b_epik_Metal_Only>
0

> <s_lp_Force_Field>
OPLS_2005

> <r_lp_Energy>
21.1127

> <b_lp_Chiralities_Consistent>
1

> <s_lp_Variant>
AV-unprocessed.smi:1699-3

> <Gold.Version>
5.8.1

> <Gold.Id.Protein>
6NUR|6NUR_protein|mol2

> <Gold.PLP.Fitness>
38.6132

> <Gold.PLP.PLP>
-29.9679

> <Gold.PLP.part.hbond>
-3.0000

> <Gold.PLP.part.metal>
0.0000

> <Gold.PLP.part.buried>
-6.2400

> <Gold.PLP.part.nonpolar>
-22.4423

> <Gold.PLP.part.repulsive>
1.3135

> <Gold.PLP.ligand.clash>
0.0000

> <Gold.PLP.ligand.torsion>
0.1883

> <Gold.PLP.Chemscore.Hbond>
3.0000

> <Gold.PLP.Chemscore.CHOScore>
0.0000

> <Gold.PLP.Chemscore.Metal>
0.0000

> <Gold.Chemscore.Hbonds>
donor molecule, donor type, donor heavy atom, donor atom, acceptor molecule, acceptor atom, score
      L1  H     8    25       P1  7948  1.00
      L1  H    11    26       P1  7948  1.00
      P1  H 10752 10763       L1    18  1.00

> <Gold.PLP.Chemscore.Internal.Correction>
0.0220

> <Gold.Rescore>
     Score         DG    S(hbond)    S(metal)    S(lipo)     H(rot)  DE(clash)    DE(int)     intcor
     14.79     -17.64       2.28        0.00      65.62       1.22       0.03       2.82       ----

> <Gold.Chemscore.Fitness>
14.7921

> <Gold.Chemscore.DG>
-17.6357

> <Gold.Chemscore.ZeroCoef>
-5.4800

> <Gold.Chemscore.Hbond>
2.2760

> <Gold.Chemscore.Metal>
0.0000

> <Gold.Chemscore.Lipo>
65.6164

> <Gold.Chemscore.Internal_Hbond>
0.0000

> <Gold.Chemscore.DEClash>
0.0262

> <Gold.Chemscore.DEInternal>
2.8175

> <Gold.Chemscore.Rot>
1.2200

> <Gold.Chemscore.Internal.Correction>
   9.000000E+99

> <Gold.Chemscore.Hbonds>
donor molecule, donor type, donor heavy atom, donor atom, acceptor molecule, acceptor atom, score
      L1  H     8    25       P1  7948  0.25
      L1  H    11    26       P1  7948  0.29
      P1  H 10752 10763       L1    18  0.39

> <Gold.Chemscore.Hbond.Weighted>
-7.6018

> <Gold.Chemscore.Metal.Weighted>
-0.0000

> <Gold.Chemscore.Lipo.Weighted>
-7.6771

> <Gold.Chemscore.Internal_Hbond.Weighted>
0.0000

> <Gold.Chemscore.DEClash.Weighted>
0.0262

> <Gold.Chemscore.DEInternal.Weighted>
2.8175

> <Gold.Chemscore.Rot.Weighted>
3.1232

> <Gold.Chemscore.Internal.Correction.Weighted>
   9.000000E+99

> <Gold.Protein.RotatedTorsions>
[ 6907 6896 6895 6894 ] final -156.77 input  -60.11 | X-H torsion
[ 7974 7965 7964 7962 ] final -121.96 input  175.53 | X-H torsion
[ 8008 7997 7996 7995 ] final  111.29 input   59.86 | X-H torsion
[ 10167 10162 10161 10158 ] final  -66.23 input  -65.29 | X-H torsion
[ 10718 10713 10712 10709 ] final   66.54 input   66.30 | X-H torsion
[ 10763 10752 10751 10750 ] final   41.17 input  -60.55 | X-H torsion
[ 11005 11000 10999 10996 ] final  120.18 input  -57.11 | X-H torsion

> <Gold.Protein.ActiveResidues>
 VAL166  LYS551  ARG553  GLY616  TRP617  ASP618  TYR619  PRO620  LYS621  CYS622 
 ASP623  PHE694  ASN695  SER759  ASP760  ASP761  ALA762  ILE779  LEU786  VAL792 
 PHE793  MET794  SER795  GLU796  ALA797  LYS798  CYS799  TRP800  GLU811  SER814 

> <Gold.Protein.RotatedAtoms>
  151.2927  133.4158  159.2633 H   0  0  0  0  0  0  0  0  0  0  0  0  # atno 6907 bound_to 6896
  151.0264  134.9507  159.8097 H   0  0  0  0  0  0  0  0  0  0  0  0  # atno 6908 bound_to 6896
  152.5336  134.2888  159.9088 H   0  0  0  0  0  0  0  0  0  0  0  0  # atno 6909 bound_to 6896
  145.0346  140.8095  143.4303 H   0  0  0  0  0  0  0  0  0  0  0  0  # atno 7974 bound_to 7965
  156.2114  140.3022  155.9740 H   0  0  0  0  0  0  0  0  0  0  0  0  # atno 8008 bound_to 7997
  155.2715  140.0434  157.3024 H   0  0  0  0  0  0  0  0  0  0  0  0  # atno 8009 bound_to 7997
  154.5704  140.2346  155.8208 H   0  0  0  0  0  0  0  0  0  0  0  0  # atno 8010 bound_to 7997
  140.5672  143.2315  151.6610 H   0  0  0  0  0  0  0  0  0  0  0  0  # atno 10167 bound_to 10162
  157.6175  130.9273  150.0122 H   0  0  0  0  0  0  0  0  0  0  0  0  # atno 10718 bound_to 10713
  152.9915  135.6170  154.2744 H   0  0  0  0  0  0  0  0  0  0  0  0  # atno 10763 bound_to 10752
  154.2476  135.2786  155.2831 H   0  0  0  0  0  0  0  0  0  0  0  0  # atno 10764 bound_to 10752
  154.5316  135.5786  153.6821 H   0  0  0  0  0  0  0  0  0  0  0  0  # atno 10765 bound_to 10752
  139.9175  134.9633  156.7768 H   0  0  0  0  0  0  0  0  0  0  0  0  # atno 11005 bound_to 11000
  145.1726  139.2396  143.5334 LP  0  0  0  0  0  0  0  0  0  0  0  0  # atno 17320 bound_to 7965
  146.3502  140.1480  142.8593 LP  0  0  0  0  0  0  0  0  0  0  0  0  # atno 17321 bound_to 7965
  139.5099  144.3561  152.0606 LP  0  0  0  0  0  0  0  0  0  0  0  0  # atno 17342 bound_to 10162
  140.2694  144.3980  150.6156 LP  0  0  0  0  0  0  0  0  0  0  0  0  # atno 17343 bound_to 10162
  156.1304  130.3643  149.9740 LP  0  0  0  0  0  0  0  0  0  0  0  0  # atno 17370 bound_to 10713
  156.7802  130.9218  151.3646 LP  0  0  0  0  0  0  0  0  0  0  0  0  # atno 17371 bound_to 10713
  140.6577  133.9674  155.7788 LP  0  0  0  0  0  0  0  0  0  0  0  0  # atno 17394 bound_to 11000
  141.0665  134.0269  157.3586 LP  0  0  0  0  0  0  0  0  0  0  0  0  # atno 17395 bound_to 11000

$$$$
