AV-unprocessed.smi:946|AV-procd|sdf|4237|dock1
  -GOLD-   22720 2143D 1   1.00000     0.00000
 Structure written by MMmdl.
 42 43  0  0  0  0  0  0  0  0  1 V2000
  150.1460  138.6895  156.5473 C   0  0  0  0  0  0  0  0  0  0  0  0
  150.5540  138.7382  158.0274 C   0  0  1  0  0  0  0  0  0  0  0  0
  150.4285  140.0894  158.4640 O   0  0  0  0  0  0  0  0  0  0  0  0
  151.2148  141.0396  157.7535 C   0  0  0  0  0  0  0  0  0  0  0  0
  151.2495  142.3498  158.5506 C   0  0  1  0  0  0  0  0  0  0  0  0
  152.5230  142.4635  159.4114 C   0  0  0  0  0  0  0  0  0  0  0  0
  152.5750  143.8206  160.1222 C   0  0  0  0  0  0  0  0  0  0  0  0
  152.4114  144.9465  159.0960 C   0  0  0  0  0  0  0  0  0  0  0  0
  151.1558  144.7117  158.2417 C   0  0  0  0  0  0  0  0  0  0  0  0
  151.2256  143.4315  157.6210 O   0  0  0  0  0  0  0  0  0  0  0  0
  149.6770  137.8101  158.8838 C   0  0  0  0  0  0  0  0  0  0  0  0
  150.2012  136.9141  159.5463 O   0  0  0  0  0  0  0  0  0  0  0  0
  148.3528  138.0478  158.8303 N   0  0  0  0  0  0  0  0  0  0  0  0
  147.3063  137.3561  159.4949 C   0  0  0  0  0  0  0  0  0  0  0  0
  146.0162  137.5653  158.9599 C   0  0  0  0  0  0  0  0  0  0  0  0
  144.9109  136.9215  159.5477 C   0  0  0  0  0  0  0  0  0  0  0  0
  145.1231  136.0842  160.6571 C   0  0  0  0  0  0  0  0  0  0  0  0
  146.4419  135.9271  161.1344 C   0  0  0  0  0  0  0  0  0  0  0  0
  146.7571  135.0424  162.3326 C   0  0  0  0  0  0  0  0  0  0  0  0
  147.4587  135.7346  163.2304 F   0  0  0  0  0  0  0  0  0  0  0  0
  145.6471  134.5946  162.9205 F   0  0  0  0  0  0  0  0  0  0  0  0
  147.4786  133.9927  161.9393 F   0  0  0  0  0  0  0  0  0  0  0  0
  147.5004  136.5473  160.5654 N   0  0  0  0  0  0  0  0  0  0  0  0
  150.2046  137.6743  156.1533 H   0  0  0  0  0  0  0  0  0  0  0  0
  150.8060  139.3142  155.9451 H   0  0  0  0  0  0  0  0  0  0  0  0
  149.1273  139.0497  156.3980 H   0  0  0  0  0  0  0  0  0  0  0  0
  151.5993  138.4318  158.1019 H   0  0  0  0  0  0  0  0  0  0  0  0
  152.2307  140.6616  157.6334 H   0  0  0  0  0  0  0  0  0  0  0  0
  150.8095  141.2145  156.7556 H   0  0  0  0  0  0  0  0  0  0  0  0
  150.3706  142.3972  159.1961 H   0  0  0  0  0  0  0  0  0  0  0  0
  152.5572  141.6583  160.1460 H   0  0  0  0  0  0  0  0  0  0  0  0
  153.4055  142.3490  158.7804 H   0  0  0  0  0  0  0  0  0  0  0  0
  151.7762  143.8784  160.8625 H   0  0  0  0  0  0  0  0  0  0  0  0
  153.5149  143.9322  160.6632 H   0  0  0  0  0  0  0  0  0  0  0  0
  152.3523  145.9114  159.6000 H   0  0  0  0  0  0  0  0  0  0  0  0
  153.2889  144.9837  158.4490 H   0  0  0  0  0  0  0  0  0  0  0  0
  150.2512  144.7863  158.8474 H   0  0  0  0  0  0  0  0  0  0  0  0
  151.0829  145.4745  157.4665 H   0  0  0  0  0  0  0  0  0  0  0  0
  148.0619  138.8137  158.2408 H   0  0  0  0  0  0  0  0  0  0  0  0
  145.8697  138.2123  158.1072 H   0  0  0  0  0  0  0  0  0  0  0  0
  143.9164  137.0685  159.1534 H   0  0  0  0  0  0  0  0  0  0  0  0
  144.2898  135.5802  161.1238 H   0  0  0  0  0  0  0  0  0  0  0  0
  1  2  1  0  0  0  0
  1 24  1  0  0  0  0
  1 25  1  0  0  0  0
  1 26  1  0  0  0  0
  2  3  1  0  0  0  0
  2 11  1  0  0  0  0
  2 27  1  0  0  0  0
  3  4  1  0  0  0  0
  4  5  1  0  0  0  0
  4 28  1  0  0  0  0
  4 29  1  0  0  0  0
  5 10  1  0  0  0  0
  5  6  1  0  0  0  0
  5 30  1  0  0  0  0
  6  7  1  0  0  0  0
  6 31  1  0  0  0  0
  6 32  1  0  0  0  0
  7  8  1  0  0  0  0
  7 33  1  0  0  0  0
  7 34  1  0  0  0  0
  8  9  1  0  0  0  0
  8 35  1  0  0  0  0
  8 36  1  0  0  0  0
  9 10  1  0  0  0  0
  9 37  1  0  0  0  0
  9 38  1  0  0  0  0
 11 12  2  0  0  0  0
 11 13  1  0  0  0  0
 13 14  1  0  0  0  0
 13 39  1  0  0  0  0
 14 23  1  0  0  0  0
 14 15  2  0  0  0  0
 15 16  1  0  0  0  0
 15 40  1  0  0  0  0
 16 17  2  0  0  0  0
 16 41  1  0  0  0  0
 17 18  1  0  0  0  0
 17 42  1  0  0  0  0
 18 19  1  0  0  0  0
 18 23  2  0  0  0  0
 19 20  1  0  0  0  0
 19 21  1  0  0  0  0
 19 22  1  0  0  0  0
M  END
> <s_m_source_file>
AV-unprocessed.smi

> <i_m_source_file_index>
946

> <i_lp_mmshare_version>
43012

> <i_f3d_flags>
0

> <s_epik_input>
TzFbQ0gyXVtDSDJdW0NIMl1bQ0gyXVtDQEhdMVtDSDJdT1tDQEBIXShbQ0gzXSlDKD1PKVtOSF1jMltjSF1bY0hdW2NIXWMobjIpQyhGKShGKUY=

> <s_epik_cmdline>
J2VwaWtfcHl0aG9uJywgJy1waCcsICc3LjAnLCAnLXRuJywgJzgnLCAnLW1hJywgJzIwMCcsICctbWV0YWxfYmluZGluZycsICctaW1hZScsICc8aW5maWxlLm1hZT4nLCAnLW9tYWUnLCAnPG91dGZpbGUubWFlPic=

> <r_lp_tautomer_probability>
1

> <r_epik_Ionization_Penalty>
1.32683e-06

> <r_epik_Ionization_Penalty_Charging>
0

> <r_epik_Ionization_Penalty_Neutral>
1.32683e-06

> <r_epik_State_Penalty>
-0

> <r_epik_Charging_Adjusted_Penalty>
0

> <i_epik_Tot_Q>
0

> <i_epik_Tot_abs_Q>
0

> <r_epik_Metal_State_Penalty>
-0

> <b_epik_Metal_Only>
0

> <s_lp_Force_Field>
OPLS_2005

> <r_lp_Energy>
14.7702

> <b_lp_Chiralities_Consistent>
1

> <s_lp_Variant>
AV-unprocessed.smi:946-4

> <Gold.Version>
5.8.1

> <Gold.Id.Protein>
6NUR|6NUR_protein|mol2

> <Gold.PLP.Fitness>
42.8787

> <Gold.PLP.PLP>
-41.2377

> <Gold.PLP.part.hbond>
-1.0000

> <Gold.PLP.part.metal>
0.0000

> <Gold.PLP.part.buried>
-7.2273

> <Gold.PLP.part.nonpolar>
-34.2131

> <Gold.PLP.part.repulsive>
0.2938

> <Gold.PLP.ligand.clash>
0.0000

> <Gold.PLP.ligand.torsion>
0.7786

> <Gold.PLP.Chemscore.Hbond>
1.0000

> <Gold.PLP.Chemscore.CHOScore>
0.0000

> <Gold.PLP.Chemscore.Metal>
0.0000

> <Gold.Chemscore.Hbonds>
donor molecule, donor type, donor heavy atom, donor atom, acceptor molecule, acceptor atom, score
      P1  H  6896  6909       L1    12  0.86

> <Gold.PLP.Chemscore.Internal.Correction>
0.1982

> <Gold.Rescore>
     Score         DG    S(hbond)    S(metal)    S(lipo)     H(rot)  DE(clash)    DE(int)     intcor
     13.03     -15.03       1.00        0.00      91.49       1.76       0.04       1.96       ----

> <Gold.Chemscore.Fitness>
13.0263

> <Gold.Chemscore.DG>
-15.0281

> <Gold.Chemscore.ZeroCoef>
-5.4800

> <Gold.Chemscore.Hbond>
0.9993

> <Gold.Chemscore.Metal>
0.0000

> <Gold.Chemscore.Lipo>
91.4950

> <Gold.Chemscore.Internal_Hbond>
0.0000

> <Gold.Chemscore.DEClash>
0.0446

> <Gold.Chemscore.DEInternal>
1.9572

> <Gold.Chemscore.Rot>
1.7557

> <Gold.Chemscore.Internal.Correction>
   9.000000E+99

> <Gold.Chemscore.Hbonds>
donor molecule, donor type, donor heavy atom, donor atom, acceptor molecule, acceptor atom, score
      P1  H  6896  6909       L1    12  0.84

> <Gold.Chemscore.Hbond.Weighted>
-3.3378

> <Gold.Chemscore.Metal.Weighted>
-0.0000

> <Gold.Chemscore.Lipo.Weighted>
-10.7049

> <Gold.Chemscore.Internal_Hbond.Weighted>
0.0000

> <Gold.Chemscore.DEClash.Weighted>
0.0446

> <Gold.Chemscore.DEInternal.Weighted>
1.9572

> <Gold.Chemscore.Rot.Weighted>
4.4946

> <Gold.Chemscore.Internal.Correction.Weighted>
   9.000000E+99

> <Gold.Protein.RotatedTorsions>
[ 6907 6896 6895 6894 ] final   80.42 input  -60.11 | X-H torsion
[ 7974 7965 7964 7962 ] final   32.70 input  175.53 | X-H torsion
[ 8008 7997 7996 7995 ] final -148.91 input   59.86 | X-H torsion
[ 10167 10162 10161 10158 ] final  103.84 input  -65.29 | X-H torsion
[ 10718 10713 10712 10709 ] final   43.32 input   66.30 | X-H torsion
[ 10763 10752 10751 10750 ] final   44.22 input  -60.55 | X-H torsion
[ 11005 11000 10999 10996 ] final  168.48 input  -57.11 | X-H torsion

> <Gold.Protein.ActiveResidues>
 VAL166  LYS551  ARG553  GLY616  TRP617  ASP618  TYR619  PRO620  LYS621  CYS622 
 ASP623  PHE694  ASN695  SER759  ASP760  ASP761  ALA762  ILE779  LEU786  VAL792 
 PHE793  MET794  SER795  GLU796  ALA797  LYS798  CYS799  TRP800  GLU811  SER814 

> <Gold.Protein.RotatedAtoms>
  152.5234  134.3361  159.9199 H   0  0  0  0  0  0  0  0  0  0  0  0  # atno 6907 bound_to 6896
  151.3310  133.3994  159.2670 H   0  0  0  0  0  0  0  0  0  0  0  0  # atno 6908 bound_to 6896
  150.9881  134.9239  159.7941 H   0  0  0  0  0  0  0  0  0  0  0  0  # atno 6909 bound_to 6896
  146.1469  139.6492  142.9125 H   0  0  0  0  0  0  0  0  0  0  0  0  # atno 7974 bound_to 7965
  155.5992  140.0660  157.2737 H   0  0  0  0  0  0  0  0  0  0  0  0  # atno 8008 bound_to 7997
  154.4283  140.1821  156.1203 H   0  0  0  0  0  0  0  0  0  0  0  0  # atno 8009 bound_to 7997
  156.0172  140.3320  155.7005 H   0  0  0  0  0  0  0  0  0  0  0  0  # atno 8010 bound_to 7997
  139.7229  144.7054  151.0844 H   0  0  0  0  0  0  0  0  0  0  0  0  # atno 10167 bound_to 10162
  157.4146  130.7934  149.7461 H   0  0  0  0  0  0  0  0  0  0  0  0  # atno 10718 bound_to 10713
  152.9845  135.6077  154.3239 H   0  0  0  0  0  0  0  0  0  0  0  0  # atno 10763 bound_to 10752
  154.2947  135.2774  155.2640 H   0  0  0  0  0  0  0  0  0  0  0  0  # atno 10764 bound_to 10752
  154.4920  135.5889  153.6522 H   0  0  0  0  0  0  0  0  0  0  0  0  # atno 10765 bound_to 10752
  140.2877  134.7699  157.3812 H   0  0  0  0  0  0  0  0  0  0  0  0  # atno 11005 bound_to 11000
  145.4916  141.0438  143.2590 LP  0  0  0  0  0  0  0  0  0  0  0  0  # atno 17320 bound_to 7965
  144.7857  139.6432  143.7135 LP  0  0  0  0  0  0  0  0  0  0  0  0  # atno 17321 bound_to 7965
  140.7757  143.5143  150.9614 LP  0  0  0  0  0  0  0  0  0  0  0  0  # atno 17342 bound_to 10162
  139.8830  143.7048  152.3154 LP  0  0  0  0  0  0  0  0  0  0  0  0  # atno 17343 bound_to 10162
  155.9861  130.3977  150.3228 LP  0  0  0  0  0  0  0  0  0  0  0  0  # atno 17370 bound_to 10713
  157.1370  131.0286  151.2944 LP  0  0  0  0  0  0  0  0  0  0  0  0  # atno 17371 bound_to 10713
  140.1224  134.5202  155.8172 LP  0  0  0  0  0  0  0  0  0  0  0  0  # atno 17394 bound_to 11000
  141.2152  133.6761  156.6890 LP  0  0  0  0  0  0  0  0  0  0  0  0  # atno 17395 bound_to 11000

$$$$
