AV-unprocessed.smi:227|AV-procd|sdf|1736|dock9
  -GOLD-   2262020233D 1   1.00000     0.00000
 Structure written by MMmdl.
 54 58  0  0  0  0  0  0  0  0  1 V2000
  149.2841  138.4863  153.1831 O   0  0  0  0  0  0  0  0  0  0  0  0
  149.7772  138.8205  154.4645 C   0  0  0  0  0  0  0  0  0  0  0  0
  148.8238  139.7860  155.2159 C   0  0  1  0  0  0  0  0  0  0  0  0
  147.4484  139.1373  155.5248 C   0  0  0  0  0  0  0  0  0  0  0  0
  147.3989  138.4513  156.8037 N   0  0  0  0  0  0  0  0  0  0  0  0
  146.6137  138.7851  157.8814 C   0  0  0  0  0  0  0  0  0  0  0  0
  146.7425  138.0080  158.9211 N   0  0  0  0  0  0  0  0  0  0  0  0
  147.6839  137.0594  158.5344 C   0  0  0  0  0  0  0  0  0  0  0  0
  148.2794  135.9206  159.1566 C   0  0  0  0  0  0  0  0  0  0  0  0
  148.0091  135.4819  160.4180 N   0  0  0  0  0  0  0  0  0  0  0  0
  147.1460  136.2237  161.3260 C   0  0  2  0  0  0  0  0  0  0  0  0
  147.3049  135.4430  162.6421 C   0  0  0  0  0  0  0  0  0  0  0  0
  147.4539  134.0056  162.1242 C   0  0  0  0  0  0  0  0  0  0  0  0
  147.3118  134.2158  160.6049 C   0  0  1  0  0  0  0  0  0  0  0  0
  145.8517  134.5580  160.2100 C   0  0  1  0  0  0  0  0  0  0  0  0
  144.7690  133.5656  160.6725 C   0  0  0  0  0  0  0  0  0  0  0  0
  145.0433  132.2807  160.1563 O   0  0  0  0  0  0  0  0  0  0  0  0
  145.7242  135.9854  160.7767 C   0  0  0  0  0  0  0  0  0  0  0  0
  149.2034  135.2333  158.4341 N   0  0  0  0  0  0  0  0  0  0  0  0
  149.5156  135.6094  157.1916 C   0  0  0  0  0  0  0  0  0  0  0  0
  149.0355  136.6332  156.4860 N   0  0  0  0  0  0  0  0  0  0  0  0
  148.1156  137.3375  157.2043 C   0  0  0  0  0  0  0  0  0  0  0  0
  149.4810  140.3126  156.5181 C   0  0  1  0  0  0  0  0  0  0  0  0
  150.8203  141.0235  156.3188 C   0  0  0  0  0  0  0  0  0  0  0  0
  150.8157  142.1698  157.3348 C   0  0  0  0  0  0  0  0  0  0  0  0
  149.6399  141.9838  158.1066 O   0  0  0  0  0  0  0  0  0  0  0  0
  148.6751  141.3788  157.2651 C   0  0  0  0  0  0  0  0  0  0  0  0
  149.7245  139.0236  152.5424 H   0  0  0  0  0  0  0  0  0  0  0  0
  149.9429  137.9115  155.0435 H   0  0  0  0  0  0  0  0  0  0  0  0
  150.7570  139.2694  154.3073 H   0  0  0  0  0  0  0  0  0  0  0  0
  148.6496  140.6517  154.5747 H   0  0  0  0  0  0  0  0  0  0  0  0
  146.6632  139.8942  155.5054 H   0  0  0  0  0  0  0  0  0  0  0  0
  147.1870  138.4067  154.7595 H   0  0  0  0  0  0  0  0  0  0  0  0
  145.9350  139.6254  157.8695 H   0  0  0  0  0  0  0  0  0  0  0  0
  147.3928  137.2752  161.4595 H   0  0  0  0  0  0  0  0  0  0  0  0
  148.2048  135.7526  163.1749 H   0  0  0  0  0  0  0  0  0  0  0  0
  146.4538  135.5676  163.3126 H   0  0  0  0  0  0  0  0  0  0  0  0
  148.4471  133.6225  162.3623 H   0  0  0  0  0  0  0  0  0  0  0  0
  146.7276  133.3140  162.5487 H   0  0  0  0  0  0  0  0  0  0  0  0
  147.7226  133.3804  160.0370 H   0  0  0  0  0  0  0  0  0  0  0  0
  145.8089  134.6122  159.1204 H   0  0  0  0  0  0  0  0  0  0  0  0
  144.7493  133.5053  161.7608 H   0  0  0  0  0  0  0  0  0  0  0  0
  143.7754  133.8673  160.3419 H   0  0  0  0  0  0  0  0  0  0  0  0
  145.1103  132.3435  159.2158 H   0  0  0  0  0  0  0  0  0  0  0  0
  144.9608  136.0793  161.5501 H   0  0  0  0  0  0  0  0  0  0  0  0
  145.4838  136.6929  159.9822 H   0  0  0  0  0  0  0  0  0  0  0  0
  150.2552  135.0021  156.6912 H   0  0  0  0  0  0  0  0  0  0  0  0
  149.6388  139.4770  157.2021 H   0  0  0  0  0  0  0  0  0  0  0  0
  151.6548  140.3419  156.4872 H   0  0  0  0  0  0  0  0  0  0  0  0
  150.9195  141.4257  155.3095 H   0  0  0  0  0  0  0  0  0  0  0  0
  151.7012  142.1692  157.9707 H   0  0  0  0  0  0  0  0  0  0  0  0
  150.7631  143.1333  156.8257 H   0  0  0  0  0  0  0  0  0  0  0  0
  148.2662  142.1241  156.5804 H   0  0  0  0  0  0  0  0  0  0  0  0
  147.8565  140.9598  157.8504 H   0  0  0  0  0  0  0  0  0  0  0  0
  1  2  1  0  0  0  0
  1 28  1  0  0  0  0
  2  3  1  0  0  0  0
  2 29  1  0  0  0  0
  2 30  1  0  0  0  0
  3  4  1  0  0  0  0
  3 23  1  0  0  0  0
  3 31  1  0  0  0  0
  4  5  1  0  0  0  0
  4 32  1  0  0  0  0
  4 33  1  0  0  0  0
  5 22  1  0  0  0  0
  5  6  1  0  0  0  0
  6  7  2  0  0  0  0
  6 34  1  0  0  0  0
  7  8  1  0  0  0  0
  8 22  2  0  0  0  0
  8  9  1  0  0  0  0
  9 10  1  0  0  0  0
  9 19  2  0  0  0  0
 10 14  1  0  0  0  0
 10 11  1  0  0  0  0
 11 18  1  0  0  0  0
 11 12  1  0  0  0  0
 11 35  1  0  0  0  0
 12 13  1  0  0  0  0
 12 36  1  0  0  0  0
 12 37  1  0  0  0  0
 13 14  1  0  0  0  0
 13 38  1  0  0  0  0
 13 39  1  0  0  0  0
 14 15  1  0  0  0  0
 14 40  1  0  0  0  0
 15 16  1  0  0  0  0
 15 18  1  0  0  0  0
 15 41  1  0  0  0  0
 16 17  1  0  0  0  0
 16 42  1  0  0  0  0
 16 43  1  0  0  0  0
 17 44  1  0  0  0  0
 18 45  1  0  0  0  0
 18 46  1  0  0  0  0
 19 20  1  0  0  0  0
 20 21  2  0  0  0  0
 20 47  1  0  0  0  0
 21 22  1  0  0  0  0
 23 27  1  0  0  0  0
 23 24  1  0  0  0  0
 23 48  1  0  0  0  0
 24 25  1  0  0  0  0
 24 49  1  0  0  0  0
 24 50  1  0  0  0  0
 25 26  1  0  0  0  0
 25 51  1  0  0  0  0
 25 52  1  0  0  0  0
 26 27  1  0  0  0  0
 27 53  1  0  0  0  0
 27 54  1  0  0  0  0
M  END
> <s_m_source_file>
AV-unprocessed.smi

> <i_m_source_file_index>
227

> <i_lp_mmshare_version>
43012

> <i_f3d_flags>
0

> <s_epik_input>
W0NIMl0xT1tDSDJdW0NIMl1bQ0BIXTFbQ0BIXShbQ0gyXVtPSF0pW0NIMl1uKFtjSF1uMiljKGMyMyluW2NIXW5jM04oW0NASF00NSlbQ0BASF0oW0NIMl1bQ0gyXTQpW0NASF0oW0NIMl01KVtDSDJdW09IXQ==

> <s_epik_cmdline>
J2VwaWtfcHl0aG9uJywgJy1waCcsICc3LjAnLCAnLXRuJywgJzgnLCAnLW1hJywgJzIwMCcsICctbWV0YWxfYmluZGluZycsICctaW1hZScsICc8aW5maWxlLm1hZT4nLCAnLW9tYWUnLCAnPG91dGZpbGUubWFlPic=

> <r_lp_tautomer_probability>
1

> <r_epik_Ionization_Penalty>
0.0055791

> <r_epik_Ionization_Penalty_Charging>
0

> <r_epik_Ionization_Penalty_Neutral>
0.0055791

> <r_epik_State_Penalty>
0.00401299

> <r_epik_Charging_Adjusted_Penalty>
0.00401299

> <i_epik_Tot_Q>
0

> <i_epik_Tot_abs_Q>
0

> <r_epik_Metal_State_Penalty>
-0

> <b_epik_Metal_Only>
0

> <s_lp_Force_Field>
OPLS_2005

> <r_lp_Energy>
88.8293

> <b_lp_Chiralities_Consistent>
1

> <s_lp_Variant>
AV-unprocessed.smi:227-10

> <Gold.Version>
5.8.1

> <Gold.Id.Protein>
6NUR|6NUR_protein|mol2

> <Gold.PLP.Fitness>
39.8612

> <Gold.PLP.PLP>
-33.3833

> <Gold.PLP.part.hbond>
-4.0000

> <Gold.PLP.part.metal>
0.0000

> <Gold.PLP.part.buried>
-6.6234

> <Gold.PLP.part.nonpolar>
-24.7574

> <Gold.PLP.part.repulsive>
0.1242

> <Gold.PLP.ligand.clash>
0.0000

> <Gold.PLP.ligand.torsion>
0.5002

> <Gold.PLP.Chemscore.Hbond>
2.4640

> <Gold.PLP.Chemscore.CHOScore>
0.0000

> <Gold.PLP.Chemscore.Metal>
0.0000

> <Gold.Chemscore.Hbonds>
donor molecule, donor type, donor heavy atom, donor atom, acceptor molecule, acceptor atom, score
      L1  H     1    28       P1  7957  0.98
      P1  H  6896  6908       L1    19  1.00
      P1  H  6934  6947       L1     7  0.25

> <Gold.PLP.Chemscore.Internal.Correction>
0.0862

> <Gold.Rescore>
     Score         DG    S(hbond)    S(metal)    S(lipo)     H(rot)  DE(clash)    DE(int)     intcor
     11.12     -13.95       2.32        0.00      85.10       3.61       0.08       2.75       ----

> <Gold.Chemscore.Fitness>
11.1210

> <Gold.Chemscore.DG>
-13.9465

> <Gold.Chemscore.ZeroCoef>
-5.4800

> <Gold.Chemscore.Hbond>
2.3185

> <Gold.Chemscore.Metal>
0.0000

> <Gold.Chemscore.Lipo>
85.1033

> <Gold.Chemscore.Internal_Hbond>
0.0000

> <Gold.Chemscore.DEClash>
0.0768

> <Gold.Chemscore.DEInternal>
2.7488

> <Gold.Chemscore.Rot>
3.6071

> <Gold.Chemscore.Internal.Correction>
   9.000000E+99

> <Gold.Chemscore.Hbonds>
donor molecule, donor type, donor heavy atom, donor atom, acceptor molecule, acceptor atom, score
      L1  H     1    28       P1  7957  0.77
      P1  H  6896  6908       L1    19  0.86
      P1  H  6934  6947       L1     7  0.20

> <Gold.Chemscore.Hbond.Weighted>
-7.7437

> <Gold.Chemscore.Metal.Weighted>
-0.0000

> <Gold.Chemscore.Lipo.Weighted>
-9.9571

> <Gold.Chemscore.Internal_Hbond.Weighted>
0.0000

> <Gold.Chemscore.DEClash.Weighted>
0.0768

> <Gold.Chemscore.DEInternal.Weighted>
2.7488

> <Gold.Chemscore.Rot.Weighted>
9.2342

> <Gold.Chemscore.Internal.Correction.Weighted>
   9.000000E+99

> <Gold.Protein.RotatedTorsions>
[ 6907 6896 6895 6894 ] final  153.41 input  -60.11 | X-H torsion
[ 7974 7965 7964 7962 ] final -152.39 input  175.53 | X-H torsion
[ 8008 7997 7996 7995 ] final -164.61 input   59.86 | X-H torsion
[ 10167 10162 10161 10158 ] final   42.23 input  -65.29 | X-H torsion
[ 10718 10713 10712 10709 ] final  -77.83 input   66.30 | X-H torsion
[ 10763 10752 10751 10750 ] final -169.99 input  -60.55 | X-H torsion
[ 11005 11000 10999 10996 ] final  -29.86 input  -57.11 | X-H torsion

> <Gold.Protein.ActiveResidues>
 VAL166  LYS551  ARG553  GLY616  TRP617  ASP618  TYR619  PRO620  LYS621  CYS622 
 ASP623  PHE694  ASN695  SER759  ASP760  ASP761  ALA762  ILE779  LEU786  VAL792 
 PHE793  MET794  SER795  GLU796  ALA797  LYS798  CYS799  TRP800  GLU811  SER814 

> <Gold.Protein.RotatedAtoms>
  152.0731  133.4116  159.4467 H   0  0  0  0  0  0  0  0  0  0  0  0  # atno 6907 bound_to 6896
  150.6863  134.3069  159.4739 H   0  0  0  0  0  0  0  0  0  0  0  0  # atno 6908 bound_to 6896
  152.0903  134.9411  160.0622 H   0  0  0  0  0  0  0  0  0  0  0  0  # atno 6909 bound_to 6896
  144.7797  140.4669  143.5848 H   0  0  0  0  0  0  0  0  0  0  0  0  # atno 7974 bound_to 7965
  155.8381  140.0944  157.1751 H   0  0  0  0  0  0  0  0  0  0  0  0  # atno 8008 bound_to 7997
  154.3981  140.1406  156.3756 H   0  0  0  0  0  0  0  0  0  0  0  0  # atno 8009 bound_to 7997
  155.8094  140.3450  155.5451 H   0  0  0  0  0  0  0  0  0  0  0  0  # atno 8010 bound_to 7997
  140.3565  144.2284  150.6141 H   0  0  0  0  0  0  0  0  0  0  0  0  # atno 10167 bound_to 10162
  156.0134  130.4502  150.3405 H   0  0  0  0  0  0  0  0  0  0  0  0  # atno 10718 bound_to 10713
  154.6463  135.2905  155.0042 H   0  0  0  0  0  0  0  0  0  0  0  0  # atno 10763 bound_to 10752
  154.1150  135.6557  153.4896 H   0  0  0  0  0  0  0  0  0  0  0  0  # atno 10764 bound_to 10752
  153.0353  135.5274  154.7352 H   0  0  0  0  0  0  0  0  0  0  0  0  # atno 10765 bound_to 10752
  140.9333  133.7324  156.0968 H   0  0  0  0  0  0  0  0  0  0  0  0  # atno 11005 bound_to 11000
  145.6085  139.1511  143.3089 LP  0  0  0  0  0  0  0  0  0  0  0  0  # atno 17320 bound_to 7965
  146.1998  140.6202  142.9107 LP  0  0  0  0  0  0  0  0  0  0  0  0  # atno 17321 bound_to 7965
  140.5169  143.2276  151.8449 LP  0  0  0  0  0  0  0  0  0  0  0  0  # atno 17342 bound_to 10162
  139.4819  144.4884  151.9217 LP  0  0  0  0  0  0  0  0  0  0  0  0  # atno 17343 bound_to 10162
  157.1500  131.0318  151.2889 LP  0  0  0  0  0  0  0  0  0  0  0  0  # atno 17370 bound_to 10713
  157.4400  130.7538  149.7061 LP  0  0  0  0  0  0  0  0  0  0  0  0  # atno 17371 bound_to 10713
  140.7833  134.3701  157.5482 LP  0  0  0  0  0  0  0  0  0  0  0  0  # atno 17394 bound_to 11000
  139.8801  134.9095  156.2992 LP  0  0  0  0  0  0  0  0  0  0  0  0  # atno 17395 bound_to 11000

$$$$
