AV-unprocessed.smi:305|AV-procd|sdf|2280|dock10
  -GOLD-   2262022183D 1   1.00000     0.00000
 Structure written by MMmdl.
 47 49  0  0  0  0  0  0  0  0  1 V2000
  146.7554  134.2860  161.2347 C   0  0  0  0  0  0  0  0  0  0  0  0
  146.8821  135.2396  160.0448 C   0  0  0  0  0  0  0  0  0  0  0  0
  147.3368  134.5113  158.9170 O   0  0  0  0  0  0  0  0  0  0  0  0
  147.9082  135.3452  157.9238 C   0  0  0  0  0  0  0  0  0  0  0  0
  148.9531  134.5394  157.1414 C   0  0  0  0  0  0  0  0  0  0  0  0
  149.7846  135.3988  156.3067 N   0  0  0  0  0  0  0  0  0  0  0  0
  150.0430  135.2827  154.9785 C   0  0  0  0  0  0  0  0  0  0  0  0
  149.4963  134.2320  154.2109 N   0  0  0  0  0  0  0  0  0  0  0  0
  148.5884  134.4978  153.2490 N   0  0  0  0  0  0  0  0  0  0  0  0
  148.2814  133.3193  152.7342 C   0  0  0  0  0  0  0  0  0  0  0  0
  147.2893  133.2433  151.6093 C   0  0  0  0  0  0  0  0  0  0  0  0
  148.9807  132.2517  153.3685 C   0  0  0  0  0  0  0  0  0  0  0  0
  148.8893  130.7826  153.0602 C   0  0  0  0  0  0  0  0  0  0  0  0
  149.7497  132.8766  154.3126 C   0  0  0  0  0  0  0  0  0  0  0  0
  150.7139  132.3127  155.3067 C   0  0  0  0  0  0  0  0  0  0  0  0
  150.8298  136.2370  154.4726 N   0  0  0  0  0  0  0  0  0  0  0  0
  151.1092  137.0236  155.5815 C   0  0  0  0  0  0  0  0  0  0  0  0
  150.4932  136.5365  156.6893 C   0  0  0  0  0  0  0  0  0  0  0  0
  150.6167  137.1717  158.0067 C   0  0  0  0  0  0  0  0  0  0  0  0
  150.0678  136.7426  159.0192 O   0  0  0  0  0  0  0  0  0  0  0  0
  151.4010  138.2767  157.9911 N   0  0  0  0  0  0  0  0  0  0  0  0
  152.0504  138.8202  156.9161 C   0  0  0  0  0  0  0  0  0  0  0  0
  152.7356  139.8329  157.0592 O   0  0  0  0  0  0  0  0  0  0  0  0
  151.9057  138.1982  155.7020 N   0  0  0  0  0  0  0  0  0  0  0  0
  152.5779  138.7376  154.5187 C   0  0  0  0  0  0  0  0  0  0  0  0
  151.5215  138.7525  158.8733 H   0  0  0  0  0  0  0  0  0  0  0  0
  146.4049  134.8145  162.1216 H   0  0  0  0  0  0  0  0  0  0  0  0
  147.7162  133.8299  161.4746 H   0  0  0  0  0  0  0  0  0  0  0  0
  146.0472  133.4853  161.0207 H   0  0  0  0  0  0  0  0  0  0  0  0
  145.9155  135.6985  159.8313 H   0  0  0  0  0  0  0  0  0  0  0  0
  147.5833  136.0404  160.2839 H   0  0  0  0  0  0  0  0  0  0  0  0
  147.1307  135.7112  157.2519 H   0  0  0  0  0  0  0  0  0  0  0  0
  148.3725  136.2148  158.3906 H   0  0  0  0  0  0  0  0  0  0  0  0
  149.5876  133.9788  157.8284 H   0  0  0  0  0  0  0  0  0  0  0  0
  148.4694  133.7935  156.5112 H   0  0  0  0  0  0  0  0  0  0  0  0
  147.6869  132.6600  150.7787 H   0  0  0  0  0  0  0  0  0  0  0  0
  147.0354  134.2321  151.2253 H   0  0  0  0  0  0  0  0  0  0  0  0
  146.3652  132.7671  151.9372 H   0  0  0  0  0  0  0  0  0  0  0  0
  148.8623  130.1796  153.9681 H   0  0  0  0  0  0  0  0  0  0  0  0
  149.7432  130.4431  152.4736 H   0  0  0  0  0  0  0  0  0  0  0  0
  147.9916  130.5394  152.4917 H   0  0  0  0  0  0  0  0  0  0  0  0
  150.9405  131.2695  155.0874 H   0  0  0  0  0  0  0  0  0  0  0  0
  150.3017  132.3626  156.3146 H   0  0  0  0  0  0  0  0  0  0  0  0
  151.6534  132.8655  155.2969 H   0  0  0  0  0  0  0  0  0  0  0  0
  152.3011  139.7808  154.3613 H   0  0  0  0  0  0  0  0  0  0  0  0
  152.3231  138.1959  153.6079 H   0  0  0  0  0  0  0  0  0  0  0  0
  153.6607  138.6862  154.6400 H   0  0  0  0  0  0  0  0  0  0  0  0
  1  2  1  0  0  0  0
  1 27  1  0  0  0  0
  1 28  1  0  0  0  0
  1 29  1  0  0  0  0
  2  3  1  0  0  0  0
  2 30  1  0  0  0  0
  2 31  1  0  0  0  0
  3  4  1  0  0  0  0
  4  5  1  0  0  0  0
  4 32  1  0  0  0  0
  4 33  1  0  0  0  0
  5  6  1  0  0  0  0
  5 34  1  0  0  0  0
  5 35  1  0  0  0  0
  6 18  1  0  0  0  0
  6  7  1  0  0  0  0
  7  8  1  0  0  0  0
  7 16  2  0  0  0  0
  8 14  1  0  0  0  0
  8  9  1  0  0  0  0
  9 10  2  0  0  0  0
 10 11  1  0  0  0  0
 10 12  1  0  0  0  0
 11 36  1  0  0  0  0
 11 37  1  0  0  0  0
 11 38  1  0  0  0  0
 12 13  1  0  0  0  0
 12 14  2  0  0  0  0
 13 39  1  0  0  0  0
 13 40  1  0  0  0  0
 13 41  1  0  0  0  0
 14 15  1  0  0  0  0
 15 42  1  0  0  0  0
 15 43  1  0  0  0  0
 15 44  1  0  0  0  0
 16 17  1  0  0  0  0
 17 24  1  0  0  0  0
 17 18  2  0  0  0  0
 18 19  1  0  0  0  0
 19 20  2  0  0  0  0
 19 21  1  0  0  0  0
 21 26  1  0  0  0  0
 21 22  1  0  0  0  0
 22 23  2  0  0  0  0
 22 24  1  0  0  0  0
 24 25  1  0  0  0  0
 25 45  1  0  0  0  0
 25 46  1  0  0  0  0
 25 47  1  0  0  0  0
M  END
> <s_m_source_file>
AV-unprocessed.smi

> <i_m_source_file_index>
305

> <i_lp_mmshare_version>
43012

> <i_f3d_flags>
0

> <s_epik_input>
W0NIM11uMWMoPU8pW25IXWMoPU8pYyhjMTIpbihbQ0gyXVtDSDJdT1tDSDJdW0NIM10pYyhuMiktbjNuYyhbQ0gzXSljKFtDSDNdKWMzW0NIM10=

> <s_epik_cmdline>
J2VwaWtfcHl0aG9uJywgJy1waCcsICc3LjAnLCAnLXRuJywgJzgnLCAnLW1hJywgJzIwMCcsICctbWV0YWxfYmluZGluZycsICctaW1hZScsICc8aW5maWxlLm1hZT4nLCAnLW9tYWUnLCAnPG91dGZpbGUubWFlPic=

> <r_lp_tautomer_probability>
1

> <r_epik_Ionization_Penalty>
0.00243297

> <r_epik_Ionization_Penalty_Charging>
0.000715499

> <r_epik_Ionization_Penalty_Neutral>
0.00171747

> <r_epik_State_Penalty>
-0

> <r_epik_Charging_Adjusted_Penalty>
0.000715499

> <i_epik_Tot_Q>
0

> <i_epik_Tot_abs_Q>
0

> <r_epik_Metal_State_Penalty>
0.258225

> <b_epik_Metal_Only>
0

> <s_lp_Force_Field>
OPLS_2005

> <r_lp_Energy>
25.4323

> <b_lp_Chiralities_Consistent>
1

> <s_lp_Variant>
AV-unprocessed.smi:305-1

> <Gold.Version>
5.8.1

> <Gold.Id.Protein>
6NUR|6NUR_protein|mol2

> <Gold.PLP.Fitness>
42.6378

> <Gold.PLP.PLP>
-36.4344

> <Gold.PLP.part.hbond>
-3.0000

> <Gold.PLP.part.metal>
0.0000

> <Gold.PLP.part.buried>
-2.3161

> <Gold.PLP.part.nonpolar>
-31.9533

> <Gold.PLP.part.repulsive>
1.1893

> <Gold.PLP.ligand.clash>
0.0000

> <Gold.PLP.ligand.torsion>
1.6105

> <Gold.PLP.Chemscore.Hbond>
2.9913

> <Gold.PLP.Chemscore.CHOScore>
0.0000

> <Gold.PLP.Chemscore.Metal>
0.0000

> <Gold.Chemscore.Hbonds>
donor molecule, donor type, donor heavy atom, donor atom, acceptor molecule, acceptor atom, score
      P1  H  6896  6907       L1    20  0.75
      P1  H  7997  8008       L1    23  1.00
      P1  H 10752 10763       L1    16  0.35

> <Gold.PLP.Chemscore.Internal.Correction>
0.4507

> <Gold.Rescore>
     Score         DG    S(hbond)    S(metal)    S(lipo)     H(rot)  DE(clash)    DE(int)     intcor
     13.25     -15.24       1.99        0.00      62.73       1.65       0.40       1.59       ----

> <Gold.Chemscore.Fitness>
13.2513

> <Gold.Chemscore.DG>
-15.2372

> <Gold.Chemscore.ZeroCoef>
-5.4800

> <Gold.Chemscore.Hbond>
1.9865

> <Gold.Chemscore.Metal>
0.0000

> <Gold.Chemscore.Lipo>
62.7276

> <Gold.Chemscore.Internal_Hbond>
0.0000

> <Gold.Chemscore.DEClash>
0.3983

> <Gold.Chemscore.DEInternal>
1.5876

> <Gold.Chemscore.Rot>
1.6471

> <Gold.Chemscore.Internal.Correction>
   9.000000E+99

> <Gold.Chemscore.Hbonds>
donor molecule, donor type, donor heavy atom, donor atom, acceptor molecule, acceptor atom, score
      P1  H  6896  6907       L1    20  0.61
      P1  H  7997  8008       L1    23  1.00
      P1  H 10752 10763       L1    16  0.02

> <Gold.Chemscore.Hbond.Weighted>
-6.6348

> <Gold.Chemscore.Metal.Weighted>
-0.0000

> <Gold.Chemscore.Lipo.Weighted>
-7.3391

> <Gold.Chemscore.Internal_Hbond.Weighted>
0.0000

> <Gold.Chemscore.DEClash.Weighted>
0.3983

> <Gold.Chemscore.DEInternal.Weighted>
1.5876

> <Gold.Chemscore.Rot.Weighted>
4.2167

> <Gold.Chemscore.Internal.Correction.Weighted>
   9.000000E+99

> <Gold.Protein.RotatedTorsions>
[ 6907 6896 6895 6894 ] final  -27.22 input  -60.11 | X-H torsion
[ 7974 7965 7964 7962 ] final    5.10 input  175.53 | X-H torsion
[ 8008 7997 7996 7995 ] final  -56.78 input   59.86 | X-H torsion
[ 10167 10162 10161 10158 ] final  119.84 input  -65.29 | X-H torsion
[ 10718 10713 10712 10709 ] final -109.10 input   66.30 | X-H torsion
[ 10763 10752 10751 10750 ] final   44.37 input  -60.55 | X-H torsion
[ 11005 11000 10999 10996 ] final  139.71 input  -57.11 | X-H torsion

> <Gold.Protein.ActiveResidues>
 VAL166  LYS551  ARG553  GLY616  TRP617  ASP618  TYR619  PRO620  LYS621  CYS622 
 ASP623  PHE694  ASN695  SER759  ASP760  ASP761  ALA762  ILE779  LEU786  VAL792 
 PHE793  MET794  SER795  GLU796  ALA797  LYS798  CYS799  TRP800  GLU811  SER814 

> <Gold.Protein.RotatedAtoms>
  151.1499  135.0222  159.8663 H   0  0  0  0  0  0  0  0  0  0  0  0  # atno 6907 bound_to 6896
  152.5453  134.1401  159.8485 H   0  0  0  0  0  0  0  0  0  0  0  0  # atno 6908 bound_to 6896
  151.1485  133.4878  159.2628 H   0  0  0  0  0  0  0  0  0  0  0  0  # atno 6909 bound_to 6896
  146.2442  140.0435  142.8380 H   0  0  0  0  0  0  0  0  0  0  0  0  # atno 7974 bound_to 7965
  154.4243  140.1122  156.5692 H   0  0  0  0  0  0  0  0  0  0  0  0  # atno 8008 bound_to 7997
  155.6230  140.3495  155.4639 H   0  0  0  0  0  0  0  0  0  0  0  0  # atno 8009 bound_to 7997
  156.0009  140.1199  157.0538 H   0  0  0  0  0  0  0  0  0  0  0  0  # atno 8010 bound_to 7997
  139.6020  144.7059  151.3041 H   0  0  0  0  0  0  0  0  0  0  0  0  # atno 10167 bound_to 10162
  156.0519  130.5746  150.8052 H   0  0  0  0  0  0  0  0  0  0  0  0  # atno 10718 bound_to 10713
  152.9842  135.6073  154.3263 H   0  0  0  0  0  0  0  0  0  0  0  0  # atno 10763 bound_to 10752
  154.2969  135.2773  155.2631 H   0  0  0  0  0  0  0  0  0  0  0  0  # atno 10764 bound_to 10752
  154.4901  135.5894  153.6509 H   0  0  0  0  0  0  0  0  0  0  0  0  # atno 10765 bound_to 10752
  140.0274  134.9368  157.0596 H   0  0  0  0  0  0  0  0  0  0  0  0  # atno 11005 bound_to 11000
  145.1048  140.9368  143.4691 LP  0  0  0  0  0  0  0  0  0  0  0  0  # atno 17320 bound_to 7965
  145.0636  139.3086  143.5868 LP  0  0  0  0  0  0  0  0  0  0  0  0  # atno 17321 bound_to 7965
  140.7257  143.7011  150.7844 LP  0  0  0  0  0  0  0  0  0  0  0  0  # atno 17342 bound_to 10162
  140.0590  143.5174  152.2637 LP  0  0  0  0  0  0  0  0  0  0  0  0  # atno 17343 bound_to 10162
  157.5453  131.0942  150.9770 LP  0  0  0  0  0  0  0  0  0  0  0  0  # atno 17370 bound_to 10713
  157.0043  130.5612  149.5314 LP  0  0  0  0  0  0  0  0  0  0  0  0  # atno 17371 bound_to 10713
  140.4283  134.1808  155.7167 LP  0  0  0  0  0  0  0  0  0  0  0  0  # atno 17394 bound_to 11000
  141.1811  133.8412  157.1254 LP  0  0  0  0  0  0  0  0  0  0  0  0  # atno 17395 bound_to 11000

$$$$
