AV-unprocessed.smi:859|AV-procd|sdf|3964|dock1
  -GOLD-   22720 1433D 1   1.00000     0.00000
 Structure written by MMmdl.
 35 36  0  0  0  0  0  0  0  0  1 V2000
  152.6251  140.1928  157.6828 O   0  0  0  0  0  0  0  0  0  0  0  0
  151.7315  141.0038  157.4369 C   0  0  0  0  0  0  0  0  0  0  0  0
  150.9734  140.9507  156.3305 N   0  0  0  0  0  0  0  0  0  0  0  0
  151.1358  139.9896  155.2432 C   0  0  0  0  0  0  0  0  0  0  0  0
  149.9109  139.0655  155.1094 C   0  0  0  0  0  0  0  0  0  0  0  0
  148.8093  139.6955  154.4047 N   0  0  0  0  0  0  0  0  0  0  0  0
  147.8953  139.0816  153.5580 C   0  0  0  0  0  0  0  0  0  0  0  0
  147.0299  140.0647  153.1344 C   0  0  0  0  0  0  0  0  0  0  0  0
  147.3952  141.2852  153.6975 N   0  0  0  0  0  0  0  0  0  0  0  0
  148.4565  140.9880  154.4364 C   0  0  0  0  0  0  0  0  0  0  0  0
  151.4557  142.1647  158.4011 C   0  0  0  0  0  0  0  0  0  0  0  0
  151.5079  143.5141  157.6523 C   0  0  0  0  0  0  0  0  0  0  0  0
  151.2550  144.6950  158.6033 C   0  0  0  0  0  0  0  0  0  0  0  0
  152.2458  144.6849  159.7780 C   0  0  0  0  0  0  0  0  0  0  0  0
  152.2040  143.3446  160.5290 C   0  0  0  0  0  0  0  0  0  0  0  0
  152.4570  142.1643  159.5764 C   0  0  0  0  0  0  0  0  0  0  0  0
  150.2589  141.6545  156.2132 H   0  0  0  0  0  0  0  0  0  0  0  0
  151.3442  140.4915  154.2967 H   0  0  0  0  0  0  0  0  0  0  0  0
  152.0169  139.3875  155.4650 H   0  0  0  0  0  0  0  0  0  0  0  0
  150.1870  138.1608  154.5668 H   0  0  0  0  0  0  0  0  0  0  0  0
  149.5644  138.7462  156.0932 H   0  0  0  0  0  0  0  0  0  0  0  0
  147.9303  138.0245  153.3400 H   0  0  0  0  0  0  0  0  0  0  0  0
  146.1798  139.9882  152.4727 H   0  0  0  0  0  0  0  0  0  0  0  0
  148.9866  141.7270  155.0191 H   0  0  0  0  0  0  0  0  0  0  0  0
  150.4514  142.0414  158.8107 H   0  0  0  0  0  0  0  0  0  0  0  0
  152.4802  143.6420  157.1736 H   0  0  0  0  0  0  0  0  0  0  0  0
  150.7680  143.5278  156.8506 H   0  0  0  0  0  0  0  0  0  0  0  0
  151.3361  145.6353  158.0572 H   0  0  0  0  0  0  0  0  0  0  0  0
  150.2345  144.6464  158.9853 H   0  0  0  0  0  0  0  0  0  0  0  0
  153.2552  144.8631  159.4053 H   0  0  0  0  0  0  0  0  0  0  0  0
  152.0197  145.5027  160.4629 H   0  0  0  0  0  0  0  0  0  0  0  0
  152.9471  143.3431  161.3268 H   0  0  0  0  0  0  0  0  0  0  0  0
  151.2326  143.2253  161.0105 H   0  0  0  0  0  0  0  0  0  0  0  0
  152.3857  141.2274  160.1306 H   0  0  0  0  0  0  0  0  0  0  0  0
  153.4797  142.2232  159.2003 H   0  0  0  0  0  0  0  0  0  0  0  0
  1  2  2  0  0  0  0
  2  3  1  0  0  0  0
  2 11  1  0  0  0  0
  3  4  1  0  0  0  0
  3 17  1  0  0  0  0
  4  5  1  0  0  0  0
  4 18  1  0  0  0  0
  4 19  1  0  0  0  0
  5  6  1  0  0  0  0
  5 20  1  0  0  0  0
  5 21  1  0  0  0  0
  6 10  1  0  0  0  0
  6  7  1  0  0  0  0
  7  8  2  0  0  0  0
  7 22  1  0  0  0  0
  8  9  1  0  0  0  0
  8 23  1  0  0  0  0
  9 10  2  0  0  0  0
 10 24  1  0  0  0  0
 11 16  1  0  0  0  0
 11 12  1  0  0  0  0
 11 25  1  0  0  0  0
 12 13  1  0  0  0  0
 12 26  1  0  0  0  0
 12 27  1  0  0  0  0
 13 14  1  0  0  0  0
 13 28  1  0  0  0  0
 13 29  1  0  0  0  0
 14 15  1  0  0  0  0
 14 30  1  0  0  0  0
 14 31  1  0  0  0  0
 15 16  1  0  0  0  0
 15 32  1  0  0  0  0
 15 33  1  0  0  0  0
 16 34  1  0  0  0  0
 16 35  1  0  0  0  0
M  END
> <s_m_source_file>
AV-unprocessed.smi

> <i_m_source_file_index>
859

> <i_lp_mmshare_version>
43012

> <i_f3d_flags>
0

> <s_epik_input>
W0NIMl0xW0NIMl1bQ0gyXVtDSDJdW0NIMl1bQ0hdMUMoPU8pW05IXVtDSDJdW0NIMl1uMltjSF1bY0hdbltjSF0y

> <s_epik_cmdline>
J2VwaWtfcHl0aG9uJywgJy1waCcsICc3LjAnLCAnLXRuJywgJzgnLCAnLW1hJywgJzIwMCcsICctbWV0YWxfYmluZGluZycsICctaW1hZScsICc8aW5maWxlLm1hZT4nLCAnLW9tYWUnLCAnPG91dGZpbGUubWFlPic=

> <r_lp_tautomer_probability>
1

> <r_epik_Ionization_Penalty>
0.600603

> <r_epik_Ionization_Penalty_Charging>
0.600603

> <r_epik_Ionization_Penalty_Neutral>
2.01201e-08

> <r_epik_State_Penalty>
0.614954

> <r_epik_Charging_Adjusted_Penalty>
1.21556

> <i_epik_Tot_Q>
0

> <i_epik_Tot_abs_Q>
0

> <r_epik_Metal_State_Penalty>
0.301281

> <b_epik_Metal_Only>
0

> <s_lp_Force_Field>
OPLS_2005

> <r_lp_Energy>
12.3333

> <b_lp_Chiralities_Consistent>
1

> <s_lp_Variant>
AV-unprocessed.smi:859-2

> <Gold.Version>
5.8.1

> <Gold.Id.Protein>
6NUR|6NUR_protein|mol2

> <Gold.PLP.Fitness>
43.0356

> <Gold.PLP.PLP>
-35.0313

> <Gold.PLP.part.hbond>
-1.0000

> <Gold.PLP.part.metal>
0.0000

> <Gold.PLP.part.buried>
-2.0514

> <Gold.PLP.part.nonpolar>
-33.0035

> <Gold.PLP.part.repulsive>
0.2730

> <Gold.PLP.ligand.clash>
0.0000

> <Gold.PLP.ligand.torsion>
0.5053

> <Gold.PLP.Chemscore.Hbond>
1.0000

> <Gold.PLP.Chemscore.CHOScore>
1.9968

> <Gold.PLP.Chemscore.Metal>
0.0000

> <Gold.Chemscore.Hbonds>
donor molecule, donor type, donor heavy atom, donor atom, acceptor molecule, acceptor atom, score
      P1  H  7997  8008       L1     1  1.00
      L1  C     7    22       P1  7948  1.00
      L1  C     8    23       P1 10175  0.99

> <Gold.PLP.Chemscore.Internal.Correction>
0.0246

> <Gold.Rescore>
     Score         DG    S(hbond)    S(metal)    S(lipo)     H(rot)  DE(clash)    DE(int)     intcor
     14.58     -15.12       0.95        0.00      94.44       1.79       0.09       0.45       ----

> <Gold.Chemscore.Fitness>
14.5825

> <Gold.Chemscore.DG>
-15.1201

> <Gold.Chemscore.ZeroCoef>
-5.4800

> <Gold.Chemscore.Hbond>
0.9478

> <Gold.Chemscore.Metal>
0.0000

> <Gold.Chemscore.Lipo>
94.4409

> <Gold.Chemscore.Internal_Hbond>
0.0000

> <Gold.Chemscore.DEClash>
0.0867

> <Gold.Chemscore.DEInternal>
0.4510

> <Gold.Chemscore.Rot>
1.7872

> <Gold.Chemscore.Internal.Correction>
   9.000000E+99

> <Gold.Chemscore.Hbonds>
donor molecule, donor type, donor heavy atom, donor atom, acceptor molecule, acceptor atom, score
      P1  H  7997  8008       L1     1  0.90

> <Gold.Chemscore.Hbond.Weighted>
-3.1657

> <Gold.Chemscore.Metal.Weighted>
-0.0000

> <Gold.Chemscore.Lipo.Weighted>
-11.0496

> <Gold.Chemscore.Internal_Hbond.Weighted>
0.0000

> <Gold.Chemscore.DEClash.Weighted>
0.0867

> <Gold.Chemscore.DEInternal.Weighted>
0.4510

> <Gold.Chemscore.Rot.Weighted>
4.5751

> <Gold.Chemscore.Internal.Correction.Weighted>
   9.000000E+99

> <Gold.Protein.RotatedTorsions>
[ 6907 6896 6895 6894 ] final -159.61 input  -60.11 | X-H torsion
[ 7974 7965 7964 7962 ] final  162.81 input  175.53 | X-H torsion
[ 8008 7997 7996 7995 ] final  -66.97 input   59.86 | X-H torsion
[ 10167 10162 10161 10158 ] final -134.15 input  -65.29 | X-H torsion
[ 10718 10713 10712 10709 ] final   79.21 input   66.30 | X-H torsion
[ 10763 10752 10751 10750 ] final  123.66 input  -60.55 | X-H torsion
[ 11005 11000 10999 10996 ] final   20.19 input  -57.11 | X-H torsion

> <Gold.Protein.ActiveResidues>
 VAL166  LYS551  ARG553  GLY616  TRP617  ASP618  TYR619  PRO620  LYS621  CYS622 
 ASP623  PHE694  ASN695  SER759  ASP760  ASP761  ALA762  ILE779  LEU786  VAL792 
 PHE793  MET794  SER795  GLU796  ALA797  LYS798  CYS799  TRP800  GLU811  SER814 

> <Gold.Protein.RotatedAtoms>
  151.3363  133.3980  159.2666 H   0  0  0  0  0  0  0  0  0  0  0  0  # atno 6907 bound_to 6896
  150.9914  134.9249  159.7912 H   0  0  0  0  0  0  0  0  0  0  0  0  # atno 6908 bound_to 6896
  152.5248  134.3328  159.9241 H   0  0  0  0  0  0  0  0  0  0  0  0  # atno 6909 bound_to 6896
  144.7619  139.8093  143.6329 H   0  0  0  0  0  0  0  0  0  0  0  0  # atno 7974 bound_to 7965
  154.4769  140.0902  156.7283 H   0  0  0  0  0  0  0  0  0  0  0  0  # atno 8008 bound_to 7997
  155.4573  140.3459  155.4290 H   0  0  0  0  0  0  0  0  0  0  0  0  # atno 8009 bound_to 7997
  156.1130  140.1453  156.9300 H   0  0  0  0  0  0  0  0  0  0  0  0  # atno 8010 bound_to 7997
  139.8909  143.6723  152.2612 H   0  0  0  0  0  0  0  0  0  0  0  0  # atno 10167 bound_to 10162
  157.6769  130.9904  150.1899 H   0  0  0  0  0  0  0  0  0  0  0  0  # atno 10718 bound_to 10713
  153.6490  135.3366  155.3094 H   0  0  0  0  0  0  0  0  0  0  0  0  # atno 10763 bound_to 10752
  154.8542  135.4336  154.1924 H   0  0  0  0  0  0  0  0  0  0  0  0  # atno 10764 bound_to 10752
  153.2862  135.7013  153.7412 H   0  0  0  0  0  0  0  0  0  0  0  0  # atno 10765 bound_to 10752
  140.4054  134.1674  155.7665 H   0  0  0  0  0  0  0  0  0  0  0  0  # atno 11005 bound_to 11000
  146.1690  139.4833  142.9939 LP  0  0  0  0  0  0  0  0  0  0  0  0  # atno 17320 bound_to 7965
  145.6592  141.0244  143.1718 LP  0  0  0  0  0  0  0  0  0  0  0  0  # atno 17321 bound_to 7965
  139.7110  144.7620  151.1112 LP  0  0  0  0  0  0  0  0  0  0  0  0  # atno 17342 bound_to 10162
  140.7726  143.5331  150.9400 LP  0  0  0  0  0  0  0  0  0  0  0  0  # atno 17343 bound_to 10162
  156.2613  130.3711  149.8128 LP  0  0  0  0  0  0  0  0  0  0  0  0  # atno 17370 bound_to 10713
  156.5872  130.8491  151.3398 LP  0  0  0  0  0  0  0  0  0  0  0  0  # atno 17371 bound_to 10713
  141.1841  133.8351  157.1151 LP  0  0  0  0  0  0  0  0  0  0  0  0  # atno 17394 bound_to 11000
  140.0306  134.9903  157.0772 LP  0  0  0  0  0  0  0  0  0  0  0  0  # atno 17395 bound_to 11000

$$$$
