AV-unprocessed.smi:672|AV-procd|sdf|3289|dock7
  -GOLD-   22720 0253D 1   1.00000     0.00000
 Structure written by MMmdl.
 36 37  0  0  0  0  0  0  0  0  1 V2000
  144.3653  131.5218  150.6641 C   0  0  0  0  0  0  0  0  0  0  0  0
  143.4203  132.6965  150.9383 C   0  0  0  0  0  0  0  0  0  0  0  0
  144.1216  133.8678  151.5409 C   0  0  0  0  0  0  0  0  0  0  0  0
  143.4701  134.9408  152.0061 N   0  0  0  0  0  0  0  0  0  0  0  0
  144.3312  135.8867  152.5450 N   0  0  0  0  0  0  0  0  0  0  0  0
  145.6098  135.4901  152.4843 C   0  0  0  0  0  0  0  0  0  0  0  0
  146.6997  136.2620  152.9661 N   0  0  0  0  0  0  0  0  0  0  0  0
  146.6835  137.2496  153.8782 C   0  0  0  0  0  0  0  0  0  0  0  0
  145.6844  137.6556  154.4723 O   0  0  0  0  0  0  0  0  0  0  0  0
  147.9115  137.7529  154.0682 N   0  0  0  0  0  0  0  0  0  0  0  0
  148.2433  138.8288  154.9988 C   0  0  2  0  0  0  0  0  0  0  0  0
  147.3407  140.0615  154.7934 C   0  0  0  0  0  0  0  0  0  0  0  0
  148.2473  141.1656  154.2453 C   0  0  0  0  0  0  0  0  0  0  0  0
  149.6378  140.8476  154.7951 C   0  0  1  0  0  0  0  0  0  0  0  0
  149.8495  141.5179  156.4735 S   0  0  0  0  0  0  0  0  0  0  0  0
  151.4581  140.8051  156.9104 C   0  0  0  0  0  0  0  0  0  0  0  0
  149.6885  139.3151  154.7813 C   0  0  0  0  0  0  0  0  0  0  0  0
  145.8676  133.9144  151.7558 S   0  0  0  0  0  0  0  0  0  0  0  0
  143.8257  130.6839  150.2223 H   0  0  0  0  0  0  0  0  0  0  0  0
  144.8321  131.1701  151.5845 H   0  0  0  0  0  0  0  0  0  0  0  0
  145.1589  131.8088  149.9735 H   0  0  0  0  0  0  0  0  0  0  0  0
  142.9438  133.0139  150.0104 H   0  0  0  0  0  0  0  0  0  0  0  0
  142.6194  132.3810  151.6081 H   0  0  0  0  0  0  0  0  0  0  0  0
  147.5984  136.0373  152.5655 H   0  0  0  0  0  0  0  0  0  0  0  0
  148.6746  137.3613  153.5360 H   0  0  0  0  0  0  0  0  0  0  0  0
  148.1368  138.4717  156.0250 H   0  0  0  0  0  0  0  0  0  0  0  0
  146.4910  139.8743  154.1352 H   0  0  0  0  0  0  0  0  0  0  0  0
  146.9333  140.3724  155.7562 H   0  0  0  0  0  0  0  0  0  0  0  0
  148.2681  141.1054  153.1564 H   0  0  0  0  0  0  0  0  0  0  0  0
  147.9000  142.1648  154.5098 H   0  0  0  0  0  0  0  0  0  0  0  0
  150.4106  141.2793  154.1583 H   0  0  0  0  0  0  0  0  0  0  0  0
  151.7511  141.1278  157.9093 H   0  0  0  0  0  0  0  0  0  0  0  0
  152.2228  141.1304  156.2052 H   0  0  0  0  0  0  0  0  0  0  0  0
  151.4161  139.7164  156.9006 H   0  0  0  0  0  0  0  0  0  0  0  0
  150.3741  138.9029  155.5215 H   0  0  0  0  0  0  0  0  0  0  0  0
  150.0521  138.9922  153.8043 H   0  0  0  0  0  0  0  0  0  0  0  0
  1  2  1  0  0  0  0
  1 19  1  0  0  0  0
  1 20  1  0  0  0  0
  1 21  1  0  0  0  0
  2  3  1  0  0  0  0
  2 22  1  0  0  0  0
  2 23  1  0  0  0  0
  3 18  1  0  0  0  0
  3  4  2  0  0  0  0
  4  5  1  0  0  0  0
  5  6  2  0  0  0  0
  6  7  1  0  0  0  0
  6 18  1  0  0  0  0
  7  8  1  0  0  0  0
  7 24  1  0  0  0  0
  8  9  2  0  0  0  0
  8 10  1  0  0  0  0
 10 11  1  0  0  0  0
 10 25  1  0  0  0  0
 11 17  1  0  0  0  0
 11 12  1  0  0  0  0
 11 26  1  0  0  0  0
 12 13  1  0  0  0  0
 12 27  1  0  0  0  0
 12 28  1  0  0  0  0
 13 14  1  0  0  0  0
 13 29  1  0  0  0  0
 13 30  1  0  0  0  0
 14 15  1  0  0  0  0
 14 17  1  0  0  0  0
 14 31  1  0  0  0  0
 15 16  1  0  0  0  0
 16 32  1  0  0  0  0
 16 33  1  0  0  0  0
 16 34  1  0  0  0  0
 17 35  1  0  0  0  0
 17 36  1  0  0  0  0
M  END
> <s_m_source_file>
AV-unprocessed.smi

> <i_m_source_file_index>
672

> <i_lp_mmshare_version>
43012

> <i_f3d_flags>
0

> <s_epik_input>
W0NIM11bQ0gyXWMxbm5jKHMxKVtOSF1DKD1PKVtOSF1bQ0BASF0yW0NIMl1bQ0gyXVtDQEhdKFtDSDJdMilTW0NIM10=

> <s_epik_cmdline>
J2VwaWtfcHl0aG9uJywgJy1waCcsICc3LjAnLCAnLXRuJywgJzgnLCAnLW1hJywgJzIwMCcsICctbWV0YWxfYmluZGluZycsICctaW1hZScsICc8aW5maWxlLm1hZT4nLCAnLW9tYWUnLCAnPG91dGZpbGUubWFlPic=

> <r_lp_tautomer_probability>
1

> <r_epik_Ionization_Penalty>
0.000422169

> <r_epik_Ionization_Penalty_Charging>
0

> <r_epik_Ionization_Penalty_Neutral>
0.000422169

> <r_epik_State_Penalty>
-0

> <r_epik_Charging_Adjusted_Penalty>
0

> <i_epik_Tot_Q>
0

> <i_epik_Tot_abs_Q>
0

> <r_epik_Metal_State_Penalty>
0.200061

> <b_epik_Metal_Only>
0

> <s_lp_Force_Field>
OPLS_2005

> <r_lp_Energy>
12.7649

> <b_lp_Chiralities_Consistent>
1

> <s_lp_Variant>
AV-unprocessed.smi:672-1

> <Gold.Version>
5.8.1

> <Gold.Id.Protein>
6NUR|6NUR_protein|mol2

> <Gold.PLP.Fitness>
32.3253

> <Gold.PLP.PLP>
-27.3443

> <Gold.PLP.part.hbond>
-1.9435

> <Gold.PLP.part.metal>
0.0000

> <Gold.PLP.part.buried>
-3.4037

> <Gold.PLP.part.nonpolar>
-22.6878

> <Gold.PLP.part.repulsive>
0.3856

> <Gold.PLP.ligand.clash>
0.0000

> <Gold.PLP.ligand.torsion>
0.2426

> <Gold.PLP.Chemscore.Hbond>
1.8160

> <Gold.PLP.Chemscore.CHOScore>
0.0000

> <Gold.PLP.Chemscore.Metal>
0.0000

> <Gold.Chemscore.Hbonds>
donor molecule, donor type, donor heavy atom, donor atom, acceptor molecule, acceptor atom, score
      L1  H     7    24       P1  7948  0.99
      L1  H    10    25       P1  7948  0.80

> <Gold.PLP.Chemscore.Internal.Correction>
0.0181

> <Gold.Rescore>
     Score         DG    S(hbond)    S(metal)    S(lipo)     H(rot)  DE(clash)    DE(int)     intcor
     14.16     -16.32       1.81        0.00      70.99       1.37       0.01       2.15       ----

> <Gold.Chemscore.Fitness>
14.1646

> <Gold.Chemscore.DG>
-16.3248

> <Gold.Chemscore.ZeroCoef>
-5.4800

> <Gold.Chemscore.Hbond>
1.8080

> <Gold.Chemscore.Metal>
0.0000

> <Gold.Chemscore.Lipo>
70.9870

> <Gold.Chemscore.Internal_Hbond>
0.0000

> <Gold.Chemscore.DEClash>
0.0129

> <Gold.Chemscore.DEInternal>
2.1473

> <Gold.Chemscore.Rot>
1.3669

> <Gold.Chemscore.Internal.Correction>
   9.000000E+99

> <Gold.Chemscore.Hbonds>
donor molecule, donor type, donor heavy atom, donor atom, acceptor molecule, acceptor atom, score
      L1  H     7    24       P1  7948  0.93
      L1  H    10    25       P1  7948  0.74

> <Gold.Chemscore.Hbond.Weighted>
-6.0386

> <Gold.Chemscore.Metal.Weighted>
-0.0000

> <Gold.Chemscore.Lipo.Weighted>
-8.3055

> <Gold.Chemscore.Internal_Hbond.Weighted>
0.0000

> <Gold.Chemscore.DEClash.Weighted>
0.0129

> <Gold.Chemscore.DEInternal.Weighted>
2.1473

> <Gold.Chemscore.Rot.Weighted>
3.4992

> <Gold.Chemscore.Internal.Correction.Weighted>
   9.000000E+99

> <Gold.Protein.RotatedTorsions>
[ 6907 6896 6895 6894 ] final   83.08 input  -60.11 | X-H torsion
[ 7974 7965 7964 7962 ] final  173.68 input  175.53 | X-H torsion
[ 8008 7997 7996 7995 ] final  -79.56 input   59.86 | X-H torsion
[ 10167 10162 10161 10158 ] final   43.68 input  -65.29 | X-H torsion
[ 10718 10713 10712 10709 ] final  -13.16 input   66.30 | X-H torsion
[ 10763 10752 10751 10750 ] final  123.89 input  -60.55 | X-H torsion
[ 11005 11000 10999 10996 ] final  118.66 input  -57.11 | X-H torsion

> <Gold.Protein.ActiveResidues>
 VAL166  LYS551  ARG553  GLY616  TRP617  ASP618  TYR619  PRO620  LYS621  CYS622 
 ASP623  PHE694  ASN695  SER759  ASP760  ASP761  ALA762  ILE779  LEU786  VAL792 
 PHE793  MET794  SER795  GLU796  ALA797  LYS798  CYS799  TRP800  GLU811  SER814 

> <Gold.Protein.RotatedAtoms>
  152.5317  134.2951  159.9057 H   0  0  0  0  0  0  0  0  0  0  0  0  # atno 6907 bound_to 6896
  151.2902  133.4162  159.2640 H   0  0  0  0  0  0  0  0  0  0  0  0  # atno 6908 bound_to 6896
  151.0207  134.9483  159.8115 H   0  0  0  0  0  0  0  0  0  0  0  0  # atno 6909 bound_to 6896
  144.7238  139.9684  143.6436 H   0  0  0  0  0  0  0  0  0  0  0  0  # atno 7974 bound_to 7965
  154.5797  140.0676  156.9086 H   0  0  0  0  0  0  0  0  0  0  0  0  # atno 8008 bound_to 7997
  155.2485  140.3350  155.4266 H   0  0  0  0  0  0  0  0  0  0  0  0  # atno 8009 bound_to 7997
  156.2180  140.1786  156.7529 H   0  0  0  0  0  0  0  0  0  0  0  0  # atno 8010 bound_to 7997
  140.3420  144.2459  150.6154 H   0  0  0  0  0  0  0  0  0  0  0  0  # atno 10167 bound_to 10162
  156.6342  130.4910  149.6118 H   0  0  0  0  0  0  0  0  0  0  0  0  # atno 10718 bound_to 10713
  153.6527  135.3360  155.3104 H   0  0  0  0  0  0  0  0  0  0  0  0  # atno 10763 bound_to 10752
  154.8534  135.4345  154.1887 H   0  0  0  0  0  0  0  0  0  0  0  0  # atno 10764 bound_to 10752
  153.2834  135.7011  153.7438 H   0  0  0  0  0  0  0  0  0  0  0  0  # atno 10765 bound_to 10752
  139.9118  134.9622  156.7537 H   0  0  0  0  0  0  0  0  0  0  0  0  # atno 11005 bound_to 11000
  146.0582  139.3577  143.0598 LP  0  0  0  0  0  0  0  0  0  0  0  0  # atno 17320 bound_to 7965
  145.8127  140.9718  143.0940 LP  0  0  0  0  0  0  0  0  0  0  0  0  # atno 17321 bound_to 7965
  140.5300  143.2245  151.8253 LP  0  0  0  0  0  0  0  0  0  0  0  0  # atno 17342 bound_to 10162
  139.4839  144.4732  151.9400 LP  0  0  0  0  0  0  0  0  0  0  0  0  # atno 17343 bound_to 10162
  156.2210  130.6737  151.1368 LP  0  0  0  0  0  0  0  0  0  0  0  0  # atno 17370 bound_to 10713
  157.7191  131.0692  150.6210 LP  0  0  0  0  0  0  0  0  0  0  0  0  # atno 17371 bound_to 10713
  140.6753  133.9523  155.7879 LP  0  0  0  0  0  0  0  0  0  0  0  0  # atno 17394 bound_to 11000
  141.0549  134.0431  157.3736 LP  0  0  0  0  0  0  0  0  0  0  0  0  # atno 17395 bound_to 11000

$$$$
