AV-unprocessed.smi:3255|AV-procd|sdf|12457|dock8
  -GOLD-   2272018353D 1   1.00000     0.00000
 Structure written by MMmdl.
 39 40  0  0  0  0  0  0  0  0  2 V2000
  151.2153  134.0833  155.9801 C   0  0  0  0  0  0  0  0  0  0  0  0
  150.1283  135.1217  155.6625 C   0  0  2  0  0  0  0  0  0  0  0  0
  149.4876  134.7502  154.4034 N   0  0  0  0  0  0  0  0  0  0  0  0
  148.8245  133.6076  154.1793 C   0  0  0  0  0  0  0  0  0  0  0  0
  148.7080  132.7010  155.0044 O   0  0  0  0  0  0  0  0  0  0  0  0
  148.2700  133.5856  152.9591 N   0  0  0  0  0  0  0  0  0  0  0  0
  147.4097  132.5220  152.4481 C   0  0  0  0  0  0  0  0  0  0  0  0
  145.9361  132.7240  152.8526 C   0  0  0  0  0  0  0  0  0  0  0  0
  145.0430  132.8904  151.7011 N   0  0  0  0  0  0  0  0  0  0  0  0
  145.3889  132.9053  150.3738 C   0  0  0  0  0  0  0  0  0  0  0  0
  144.2293  133.1044  149.6702 C   0  0  0  0  0  0  0  0  0  0  0  0
  143.2253  133.1985  150.5961 N   0  3  0  0  0  0  0  0  0  0  0  0
  143.7214  133.0641  151.8302 C   0  0  0  0  0  0  0  0  0  0  0  0
  150.6994  136.5530  155.5614 C   0  0  2  0  0  0  0  0  0  0  0  0
  149.7223  137.5932  155.0083 C   0  0  0  0  0  0  0  0  0  0  0  0
  150.6227  138.6519  154.3893 C   0  0  0  0  0  0  0  0  0  0  0  0
  152.0028  137.9930  154.3499 C   0  0  0  0  0  0  0  0  0  0  0  0
  151.7596  136.6206  154.6182 O   0  0  0  0  0  0  0  0  0  0  0  0
  151.6840  134.2794  156.9446 H   0  0  0  0  0  0  0  0  0  0  0  0
  151.9999  134.0845  155.2226 H   0  0  0  0  0  0  0  0  0  0  0  0
  150.7960  133.0774  156.0233 H   0  0  0  0  0  0  0  0  0  0  0  0
  149.3926  135.0883  156.4682 H   0  0  0  0  0  0  0  0  0  0  0  0
  149.5235  135.4322  153.6601 H   0  0  0  0  0  0  0  0  0  0  0  0
  148.4283  134.3758  152.3507 H   0  0  0  0  0  0  0  0  0  0  0  0
  147.4875  132.5334  151.3609 H   0  0  0  0  0  0  0  0  0  0  0  0
  147.7680  131.5413  152.7657 H   0  0  0  0  0  0  0  0  0  0  0  0
  145.5782  131.8792  153.4430 H   0  0  0  0  0  0  0  0  0  0  0  0
  145.8361  133.6116  153.4786 H   0  0  0  0  0  0  0  0  0  0  0  0
  146.4086  132.7873  150.0376 H   0  0  0  0  0  0  0  0  0  0  0  0
  144.0488  133.1880  148.6084 H   0  0  0  0  0  0  0  0  0  0  0  0
  143.1653  133.1011  152.7501 H   0  0  0  0  0  0  0  0  0  0  0  0
  151.0759  136.8802  156.5328 H   0  0  0  0  0  0  0  0  0  0  0  0
  149.0968  137.1502  154.2323 H   0  0  0  0  0  0  0  0  0  0  0  0
  149.0640  137.9984  155.7774 H   0  0  0  0  0  0  0  0  0  0  0  0
  150.2760  138.9141  153.3891 H   0  0  0  0  0  0  0  0  0  0  0  0
  150.6456  139.5637  154.9870 H   0  0  0  0  0  0  0  0  0  0  0  0
  152.5039  138.1251  153.3910 H   0  0  0  0  0  0  0  0  0  0  0  0
  152.6468  138.4012  155.1302 H   0  0  0  0  0  0  0  0  0  0  0  0
  142.2481  133.3527  150.3811 H   0  0  0  0  0  0  0  0  0  0  0  0
  1  2  1  0  0  0  0
  1 19  1  0  0  0  0
  1 20  1  0  0  0  0
  1 21  1  0  0  0  0
  2  3  1  0  0  0  0
  2 14  1  0  0  0  0
  2 22  1  0  0  0  0
  3  4  1  0  0  0  0
  3 23  1  0  0  0  0
  4  5  2  0  0  0  0
  4  6  1  0  0  0  0
  6  7  1  0  0  0  0
  6 24  1  0  0  0  0
  7  8  1  0  0  0  0
  7 25  1  0  0  0  0
  7 26  1  0  0  0  0
  8  9  1  0  0  0  0
  8 27  1  0  0  0  0
  8 28  1  0  0  0  0
  9 13  1  0  0  0  0
  9 10  1  0  0  0  0
 10 11  2  0  0  0  0
 10 29  1  0  0  0  0
 11 12  1  0  0  0  0
 11 30  1  0  0  0  0
 12 13  2  0  0  0  0
 12 39  1  0  0  0  0
 13 31  1  0  0  0  0
 14 18  1  0  0  0  0
 14 15  1  0  0  0  0
 14 32  1  0  0  0  0
 15 16  1  0  0  0  0
 15 33  1  0  0  0  0
 15 34  1  0  0  0  0
 16 17  1  0  0  0  0
 16 35  1  0  0  0  0
 16 36  1  0  0  0  0
 17 18  1  0  0  0  0
 17 37  1  0  0  0  0
 17 38  1  0  0  0  0
M  CHG  1  12   1
M  END
> <s_m_source_file>
AV-unprocessed.smi

> <i_m_source_file_index>
3255

> <i_lp_mmshare_version>
43012

> <i_f3d_flags>
0

> <s_epik_input>
TzFbQ0gyXVtDSDJdW0NIMl1bQ0BIXTFbQ0BIXShbQ0gzXSlbTkhdQyg9TylbTkhdW0NIMl1bQ0gyXW4yW2NIXVtjSF1uW2NIXTI=

> <s_epik_cmdline>
J2VwaWtfcHl0aG9uJywgJy1waCcsICc3LjAnLCAnLXRuJywgJzgnLCAnLW1hJywgJzIwMCcsICctbWV0YWxfYmluZGluZycsICctaW1hZScsICc8aW5maWxlLm1hZT4nLCAnLW9tYWUnLCAnPG91dGZpbGUubWFlPic=

> <r_lp_tautomer_probability>
1

> <r_epik_Ionization_Penalty>
0.256241

> <r_epik_Ionization_Penalty_Charging>
0

> <r_epik_Ionization_Penalty_Neutral>
0.256241

> <r_epik_State_Penalty>
0.247735

> <r_epik_Charging_Adjusted_Penalty>
0.247735

> <i_epik_Tot_Q>
1

> <i_epik_Tot_abs_Q>
1

> <r_epik_Metal_State_Penalty>
0.537184

> <b_epik_Metal_Only>
0

> <s_lp_Force_Field>
OPLS_2005

> <r_lp_Energy>
16.926

> <b_lp_Chiralities_Consistent>
1

> <s_lp_Variant>
AV-unprocessed.smi:3255-1

> <Gold.Version>
5.8.1

> <Gold.Id.Protein>
6NUR|6NUR_protein|mol2

> <Gold.PLP.Fitness>
48.5648

> <Gold.PLP.PLP>
-33.3991

> <Gold.PLP.part.hbond>
-4.0000

> <Gold.PLP.part.metal>
0.0000

> <Gold.PLP.part.buried>
-6.0437

> <Gold.PLP.part.nonpolar>
-23.6308

> <Gold.PLP.part.repulsive>
0.2189

> <Gold.PLP.ligand.clash>
0.0000

> <Gold.PLP.ligand.torsion>
0.6344

> <Gold.PLP.Chemscore.Hbond>
4.5700

> <Gold.PLP.Chemscore.CHOScore>
0.8914

> <Gold.PLP.Chemscore.Metal>
0.0000

> <Gold.Chemscore.Hbonds>
donor molecule, donor type, donor heavy atom, donor atom, acceptor molecule, acceptor atom, score
      L1  H     3    23       P1  7948  0.85
      L1  H     6    24       P1  7948  0.55
      L1  H    12    39       P1 10186  1.89
      P1  H 10752 10764       L1    18  1.00
      L1  C    13    31       P1 10957  1.00

> <Gold.PLP.Chemscore.Internal.Correction>
0.0504

> <Gold.Rescore>
     Score         DG    S(hbond)    S(metal)    S(lipo)     H(rot)  DE(clash)    DE(int)     intcor
     14.71     -15.40       2.56        0.00      61.32       2.26       0.02       0.67       ----

> <Gold.Chemscore.Fitness>
14.7099

> <Gold.Chemscore.DG>
-15.3985

> <Gold.Chemscore.ZeroCoef>
-5.4800

> <Gold.Chemscore.Hbond>
2.5569

> <Gold.Chemscore.Metal>
0.0000

> <Gold.Chemscore.Lipo>
61.3183

> <Gold.Chemscore.Internal_Hbond>
0.0000

> <Gold.Chemscore.DEClash>
0.0174

> <Gold.Chemscore.DEInternal>
0.6712

> <Gold.Chemscore.Rot>
2.2640

> <Gold.Chemscore.Internal.Correction>
   9.000000E+99

> <Gold.Chemscore.Hbonds>
donor molecule, donor type, donor heavy atom, donor atom, acceptor molecule, acceptor atom, score
      L1  H     3    23       P1  7948  0.14
      L1  H     6    24       P1  7948  0.03
      L1  H    12    39       P1 10186  0.91
      P1  H 10752 10764       L1    18  0.90

> <Gold.Chemscore.Hbond.Weighted>
-8.5400

> <Gold.Chemscore.Metal.Weighted>
-0.0000

> <Gold.Chemscore.Lipo.Weighted>
-7.1742

> <Gold.Chemscore.Internal_Hbond.Weighted>
0.0000

> <Gold.Chemscore.DEClash.Weighted>
0.0174

> <Gold.Chemscore.DEInternal.Weighted>
0.6712

> <Gold.Chemscore.Rot.Weighted>
5.7958

> <Gold.Chemscore.Internal.Correction.Weighted>
   9.000000E+99

> <Gold.Protein.RotatedTorsions>
[ 6907 6896 6895 6894 ] final   16.34 input  -60.11 | X-H torsion
[ 7974 7965 7964 7962 ] final  -68.16 input  175.53 | X-H torsion
[ 8008 7997 7996 7995 ] final  165.96 input   59.86 | X-H torsion
[ 10167 10162 10161 10158 ] final -159.38 input  -65.29 | X-H torsion
[ 10718 10713 10712 10709 ] final -164.28 input   66.30 | X-H torsion
[ 10763 10752 10751 10750 ] final  -66.47 input  -60.55 | X-H torsion
[ 11005 11000 10999 10996 ] final  -92.69 input  -57.11 | X-H torsion

> <Gold.Protein.ActiveResidues>
 VAL166  LYS551  ARG553  GLY616  TRP617  ASP618  TYR619  PRO620  LYS621  CYS622 
 ASP623  PHE694  ASN695  SER759  ASP760  ASP761  ALA762  ILE779  LEU786  VAL792 
 PHE793  MET794  SER795  GLU796  ALA797  LYS798  CYS799  TRP800  GLU811  SER814 

> <Gold.Protein.RotatedAtoms>
  151.8324  135.0617  160.0438 H   0  0  0  0  0  0  0  0  0  0  0  0  # atno 6907 bound_to 6896
  152.2871  133.5521  159.5542 H   0  0  0  0  0  0  0  0  0  0  0  0  # atno 6908 bound_to 6896
  150.7214  134.0398  159.3804 H   0  0  0  0  0  0  0  0  0  0  0  0  # atno 6909 bound_to 6896
  145.7200  140.9042  143.0635 H   0  0  0  0  0  0  0  0  0  0  0  0  # atno 7974 bound_to 7965
  156.1758  140.1656  156.8366 H   0  0  0  0  0  0  0  0  0  0  0  0  # atno 8008 bound_to 7997
  154.5305  140.0758  156.8370 H   0  0  0  0  0  0  0  0  0  0  0  0  # atno 8009 bound_to 7997
  155.3417  140.3385  155.4241 H   0  0  0  0  0  0  0  0  0  0  0  0  # atno 8010 bound_to 7997
  139.6620  143.9896  152.2231 H   0  0  0  0  0  0  0  0  0  0  0  0  # atno 10167 bound_to 10162
  156.6368  130.8952  151.2988 H   0  0  0  0  0  0  0  0  0  0  0  0  # atno 10718 bound_to 10713
  154.3603  135.6117  153.5687 H   0  0  0  0  0  0  0  0  0  0  0  0  # atno 10763 bound_to 10752
  152.9794  135.5813  154.4641 H   0  0  0  0  0  0  0  0  0  0  0  0  # atno 10764 bound_to 10752
  154.4377  135.2849  155.1846 H   0  0  0  0  0  0  0  0  0  0  0  0  # atno 10765 bound_to 10752
  141.1516  133.7837  157.0055 H   0  0  0  0  0  0  0  0  0  0  0  0  # atno 11005 bound_to 11000
  144.6919  139.9190  143.7467 LP  0  0  0  0  0  0  0  0  0  0  0  0  # atno 17320 bound_to 7965
  146.0634  139.3626  143.0567 LP  0  0  0  0  0  0  0  0  0  0  0  0  # atno 17321 bound_to 7965
  139.9638  144.6540  150.8054 LP  0  0  0  0  0  0  0  0  0  0  0  0  # atno 17342 bound_to 10162
  140.7584  143.3106  151.2855 LP  0  0  0  0  0  0  0  0  0  0  0  0  # atno 17343 bound_to 10162
  157.7183  130.9525  150.1340 LP  0  0  0  0  0  0  0  0  0  0  0  0  # atno 17370 bound_to 10713
  156.2191  130.3672  149.8578 LP  0  0  0  0  0  0  0  0  0  0  0  0  # atno 17371 bound_to 10713
  140.0912  134.9591  157.1779 LP  0  0  0  0  0  0  0  0  0  0  0  0  # atno 17394 bound_to 11000
  140.3444  134.2668  155.7207 LP  0  0  0  0  0  0  0  0  0  0  0  0  # atno 17395 bound_to 11000

$$$$
