AV-unprocessed.smi:2973|AV-procd|sdf|11337|dock1
  -GOLD-   2272016243D 1   1.00000     0.00000
 Structure written by MMmdl.
 49 51  0  0  0  0  0  0  0  0  1 V2000
  145.3176  137.0886  159.4513 C   0  0  0  0  0  0  0  0  0  0  0  0
  145.6839  135.8992  160.3643 C   0  0  2  0  0  0  0  0  0  0  0  0
  145.7561  136.3471  161.8402 C   0  0  0  0  0  0  0  0  0  0  0  0
  146.0257  135.1623  162.7808 C   0  0  0  0  0  0  0  0  0  0  0  0
  147.3075  134.4143  162.3888 C   0  0  0  0  0  0  0  0  0  0  0  0
  147.2573  133.9564  160.9203 C   0  0  0  0  0  0  0  0  0  0  0  0
  146.9629  135.1135  159.9320 C   0  0  1  0  0  0  0  0  0  0  0  0
  146.8209  134.5811  158.5880 N   0  0  0  0  0  0  0  0  0  0  0  0
  147.7512  135.0338  157.7387 C   0  0  0  0  0  0  0  0  0  0  0  0
  147.8323  134.7317  156.5491 O   0  0  0  0  0  0  0  0  0  0  0  0
  148.5627  135.8709  158.4083 N   0  0  0  0  0  0  0  0  0  0  0  0
  149.6793  136.6012  157.7944 C   0  0  0  0  0  0  0  0  0  0  0  0
  149.5910  138.1216  157.9910 C   0  0  0  0  0  0  0  0  0  0  0  0
  148.6487  138.6303  158.6005 O   0  0  0  0  0  0  0  0  0  0  0  0
  150.5982  138.8367  157.4685 N   0  0  0  0  0  0  0  0  0  0  0  0
  150.7082  140.2900  157.5144 C   0  0  0  0  0  0  0  0  0  0  0  0
  151.4349  140.7699  158.7817 C   0  0  0  0  0  0  0  0  0  0  0  0
  151.4049  142.2805  158.9165 C   0  0  0  0  0  0  0  0  0  0  0  0
  152.6029  143.0266  158.9248 C   0  0  0  0  0  0  0  0  0  0  0  0
  152.5194  144.4281  159.0345 C   0  0  0  0  0  0  0  0  0  0  0  0
  151.2482  145.0266  159.1303 C   0  0  0  0  0  0  0  0  0  0  0  0
  150.1121  144.1932  159.1126 C   0  0  0  0  0  0  0  0  0  0  0  0
  150.1810  142.8486  159.0073 N   0  0  0  0  0  0  0  0  0  0  0  0
  148.1923  135.9927  159.6905 C   0  0  0  0  0  0  0  0  0  0  0  0
  148.7288  136.6956  160.5473 O   0  0  0  0  0  0  0  0  0  0  0  0
  146.0729  137.8742  159.4859 H   0  0  0  0  0  0  0  0  0  0  0  0
  144.3717  137.5351  159.7582 H   0  0  0  0  0  0  0  0  0  0  0  0
  145.2042  136.7804  158.4121 H   0  0  0  0  0  0  0  0  0  0  0  0
  144.8496  135.1994  160.2921 H   0  0  0  0  0  0  0  0  0  0  0  0
  146.5298  137.1039  161.9710 H   0  0  0  0  0  0  0  0  0  0  0  0
  144.8182  136.8237  162.1276 H   0  0  0  0  0  0  0  0  0  0  0  0
  146.1018  135.5147  163.8097 H   0  0  0  0  0  0  0  0  0  0  0  0
  145.1795  134.4747  162.7521 H   0  0  0  0  0  0  0  0  0  0  0  0
  148.1732  135.0551  162.5560 H   0  0  0  0  0  0  0  0  0  0  0  0
  147.4418  133.5492  163.0385 H   0  0  0  0  0  0  0  0  0  0  0  0
  148.1976  133.4653  160.6646 H   0  0  0  0  0  0  0  0  0  0  0  0
  146.4861  133.1917  160.8173 H   0  0  0  0  0  0  0  0  0  0  0  0
  146.0852  133.9386  158.3319 H   0  0  0  0  0  0  0  0  0  0  0  0
  150.6307  136.2542  158.2007 H   0  0  0  0  0  0  0  0  0  0  0  0
  149.7150  136.3797  156.7261 H   0  0  0  0  0  0  0  0  0  0  0  0
  151.3340  138.3385  156.9888 H   0  0  0  0  0  0  0  0  0  0  0  0
  151.2579  140.6125  156.6297 H   0  0  0  0  0  0  0  0  0  0  0  0
  149.7173  140.7422  157.4453 H   0  0  0  0  0  0  0  0  0  0  0  0
  150.9801  140.3283  159.6696 H   0  0  0  0  0  0  0  0  0  0  0  0
  152.4720  140.4316  158.7687 H   0  0  0  0  0  0  0  0  0  0  0  0
  153.5634  142.5388  158.8445 H   0  0  0  0  0  0  0  0  0  0  0  0
  153.4144  145.0325  159.0427 H   0  0  0  0  0  0  0  0  0  0  0  0
  151.1454  146.0982  159.2147 H   0  0  0  0  0  0  0  0  0  0  0  0
  149.1217  144.6183  159.1828 H   0  0  0  0  0  0  0  0  0  0  0  0
  1  2  1  0  0  0  0
  1 26  1  0  0  0  0
  1 27  1  0  0  0  0
  1 28  1  0  0  0  0
  2  7  1  0  0  0  0
  2  3  1  0  0  0  0
  2 29  1  0  0  0  0
  3  4  1  0  0  0  0
  3 30  1  0  0  0  0
  3 31  1  0  0  0  0
  4  5  1  0  0  0  0
  4 32  1  0  0  0  0
  4 33  1  0  0  0  0
  5  6  1  0  0  0  0
  5 34  1  0  0  0  0
  5 35  1  0  0  0  0
  6  7  1  0  0  0  0
  6 36  1  0  0  0  0
  6 37  1  0  0  0  0
  7 24  1  0  0  0  0
  7  8  1  0  0  0  0
  8  9  1  0  0  0  0
  8 38  1  0  0  0  0
  9 10  2  0  0  0  0
  9 11  1  0  0  0  0
 11 12  1  0  0  0  0
 11 24  1  0  0  0  0
 12 13  1  0  0  0  0
 12 39  1  0  0  0  0
 12 40  1  0  0  0  0
 13 14  2  0  0  0  0
 13 15  1  0  0  0  0
 15 16  1  0  0  0  0
 15 41  1  0  0  0  0
 16 17  1  0  0  0  0
 16 42  1  0  0  0  0
 16 43  1  0  0  0  0
 17 18  1  0  0  0  0
 17 44  1  0  0  0  0
 17 45  1  0  0  0  0
 18 23  1  0  0  0  0
 18 19  2  0  0  0  0
 19 20  1  0  0  0  0
 19 46  1  0  0  0  0
 20 21  2  0  0  0  0
 20 47  1  0  0  0  0
 21 22  1  0  0  0  0
 21 48  1  0  0  0  0
 22 23  2  0  0  0  0
 22 49  1  0  0  0  0
 24 25  2  0  0  0  0
M  END
> <s_m_source_file>
AV-unprocessed.smi

> <i_m_source_file_index>
2973

> <i_lp_mmshare_version>
43012

> <i_f3d_flags>
0

> <s_epik_input>
W0NIMl0xW0NIMl1bQ0gyXVtDSDJdW0NAQEhdKFtDSDNdKVtDQF0xMltOSF1DKD1PKU4oQzI9TylbQ0gyXUMoPU8pW05IXVtDSDJdW0NIMl1jM1tjSF1bY0hdW2NIXVtjSF1uMw==

> <s_epik_cmdline>
J2VwaWtfcHl0aG9uJywgJy1waCcsICc3LjAnLCAnLXRuJywgJzgnLCAnLW1hJywgJzIwMCcsICctbWV0YWxfYmluZGluZycsICctaW1hZScsICc8aW5maWxlLm1hZT4nLCAnLW9tYWUnLCAnPG91dGZpbGUubWFlPic=

> <r_lp_tautomer_probability>
1

> <r_epik_Ionization_Penalty>
0.0245152

> <r_epik_Ionization_Penalty_Charging>
0

> <r_epik_Ionization_Penalty_Neutral>
0.0245152

> <r_epik_State_Penalty>
0.0198648

> <r_epik_Charging_Adjusted_Penalty>
0.0198648

> <i_epik_Tot_Q>
0

> <i_epik_Tot_abs_Q>
0

> <r_epik_Metal_State_Penalty>
0.0400162

> <b_epik_Metal_Only>
0

> <s_lp_Force_Field>
OPLS_2005

> <r_lp_Energy>
16.1581

> <b_lp_Chiralities_Consistent>
1

> <s_lp_Variant>
AV-unprocessed.smi:2973-1

> <Gold.Version>
5.8.1

> <Gold.Id.Protein>
6NUR|6NUR_protein|mol2

> <Gold.PLP.Fitness>
44.7021

> <Gold.PLP.PLP>
-39.5497

> <Gold.PLP.part.hbond>
-2.2425

> <Gold.PLP.part.metal>
0.0000

> <Gold.PLP.part.buried>
-6.4646

> <Gold.PLP.part.nonpolar>
-31.7903

> <Gold.PLP.part.repulsive>
0.1321

> <Gold.PLP.ligand.clash>
0.0000

> <Gold.PLP.ligand.torsion>
0.2291

> <Gold.PLP.Chemscore.Hbond>
0.8800

> <Gold.PLP.Chemscore.CHOScore>
0.9694

> <Gold.PLP.Chemscore.Metal>
0.0000

> <Gold.Chemscore.Hbonds>
donor molecule, donor type, donor heavy atom, donor atom, acceptor molecule, acceptor atom, score
      P1  H  6931  6943       L1    25  0.79
      L1  C    22    49       P1  8029  0.69

> <Gold.PLP.Chemscore.Internal.Correction>
0.0626

> <Gold.Rescore>
     Score         DG    S(hbond)    S(metal)    S(lipo)     H(rot)  DE(clash)    DE(int)     intcor
     13.47     -17.01       0.87        0.00     114.45       1.86       0.02       3.52       ----

> <Gold.Chemscore.Fitness>
13.4681

> <Gold.Chemscore.DG>
-17.0104

> <Gold.Chemscore.ZeroCoef>
-5.4800

> <Gold.Chemscore.Hbond>
0.8650

> <Gold.Chemscore.Metal>
0.0000

> <Gold.Chemscore.Lipo>
114.4515

> <Gold.Chemscore.Internal_Hbond>
0.0000

> <Gold.Chemscore.DEClash>
0.0206

> <Gold.Chemscore.DEInternal>
3.5217

> <Gold.Chemscore.Rot>
1.8553

> <Gold.Chemscore.Internal.Correction>
   9.000000E+99

> <Gold.Chemscore.Hbonds>
donor molecule, donor type, donor heavy atom, donor atom, acceptor molecule, acceptor atom, score
      P1  H  6931  6943       L1    25  0.74

> <Gold.Chemscore.Hbond.Weighted>
-2.8893

> <Gold.Chemscore.Metal.Weighted>
-0.0000

> <Gold.Chemscore.Lipo.Weighted>
-13.3908

> <Gold.Chemscore.Internal_Hbond.Weighted>
0.0000

> <Gold.Chemscore.DEClash.Weighted>
0.0206

> <Gold.Chemscore.DEInternal.Weighted>
3.5217

> <Gold.Chemscore.Rot.Weighted>
4.7497

> <Gold.Chemscore.Internal.Correction.Weighted>
   9.000000E+99

> <Gold.Protein.RotatedTorsions>
[ 6907 6896 6895 6894 ] final  -40.81 input  -60.11 | X-H torsion
[ 7974 7965 7964 7962 ] final  -39.60 input  175.53 | X-H torsion
[ 8008 7997 7996 7995 ] final   73.45 input   59.86 | X-H torsion
[ 10167 10162 10161 10158 ] final -141.82 input  -65.29 | X-H torsion
[ 10718 10713 10712 10709 ] final   84.66 input   66.30 | X-H torsion
[ 10763 10752 10751 10750 ] final -169.35 input  -60.55 | X-H torsion
[ 11005 11000 10999 10996 ] final  137.74 input  -57.11 | X-H torsion

> <Gold.Protein.ActiveResidues>
 VAL166  LYS551  ARG553  GLY616  TRP617  ASP618  TYR619  PRO620  LYS621  CYS622 
 ASP623  PHE694  ASN695  SER759  ASP760  ASP761  ALA762  ILE779  LEU786  VAL792 
 PHE793  MET794  SER795  GLU796  ALA797  LYS798  CYS799  TRP800  GLU811  SER814 

> <Gold.Protein.RotatedAtoms>
  150.9741  134.9109  159.7805 H   0  0  0  0  0  0  0  0  0  0  0  0  # atno 6907 bound_to 6896
  152.5200  134.3500  159.9258 H   0  0  0  0  0  0  0  0  0  0  0  0  # atno 6908 bound_to 6896
  151.3509  133.3885  159.2714 H   0  0  0  0  0  0  0  0  0  0  0  0  # atno 6909 bound_to 6896
  146.0381  140.6644  142.9100 H   0  0  0  0  0  0  0  0  0  0  0  0  # atno 7974 bound_to 7965
  155.7839  140.3481  155.5312 H   0  0  0  0  0  0  0  0  0  0  0  0  # atno 8008 bound_to 7997
  155.8701  140.0985  157.1576 H   0  0  0  0  0  0  0  0  0  0  0  0  # atno 8009 bound_to 7997
  154.4017  140.1342  156.4055 H   0  0  0  0  0  0  0  0  0  0  0  0  # atno 8010 bound_to 7997
  139.8148  143.7654  152.2664 H   0  0  0  0  0  0  0  0  0  0  0  0  # atno 10167 bound_to 10162
  157.6902  131.0142  150.2706 H   0  0  0  0  0  0  0  0  0  0  0  0  # atno 10718 bound_to 10713
  154.6532  135.2914  154.9960 H   0  0  0  0  0  0  0  0  0  0  0  0  # atno 10763 bound_to 10752
  154.1046  135.6571  153.4878 H   0  0  0  0  0  0  0  0  0  0  0  0  # atno 10764 bound_to 10752
  153.0388  135.5250  154.7450 H   0  0  0  0  0  0  0  0  0  0  0  0  # atno 10765 bound_to 10752
  140.0135  134.9428  157.0327 H   0  0  0  0  0  0  0  0  0  0  0  0  # atno 11005 bound_to 11000
  144.7061  140.3858  143.7117 LP  0  0  0  0  0  0  0  0  0  0  0  0  # atno 17320 bound_to 7965
  145.6930  139.1643  143.2636 LP  0  0  0  0  0  0  0  0  0  0  0  0  # atno 17321 bound_to 7965
  139.7814  144.7443  151.0083 LP  0  0  0  0  0  0  0  0  0  0  0  0  # atno 17342 bound_to 10162
  140.7816  143.4538  151.0374 LP  0  0  0  0  0  0  0  0  0  0  0  0  # atno 17343 bound_to 10162
  156.3270  130.3794  149.7525 LP  0  0  0  0  0  0  0  0  0  0  0  0  # atno 17370 bound_to 10713
  156.5077  130.8157  151.3157 LP  0  0  0  0  0  0  0  0  0  0  0  0  # atno 17371 bound_to 10713
  140.4513  134.1580  155.7182 LP  0  0  0  0  0  0  0  0  0  0  0  0  # atno 17394 bound_to 11000
  141.1727  133.8577  157.1520 LP  0  0  0  0  0  0  0  0  0  0  0  0  # atno 17395 bound_to 11000

$$$$
