AV-unprocessed.smi:2026|AV-procd|sdf|8202|dock3
  -GOLD-   2272010463D 1   1.00000     0.00000
 Structure written by MMmdl.
 46 48  0  0  0  0  0  0  0  0  1 V2000
  153.1660  142.3716  161.8114 C   0  0  0  0  0  0  0  0  0  0  0  0
  152.6199  142.1934  160.4055 C   0  0  0  0  0  0  0  0  0  0  0  0
  152.9141  141.0058  159.6984 C   0  0  0  0  0  0  0  0  0  0  0  0
  152.4257  140.8016  158.3892 C   0  0  0  0  0  0  0  0  0  0  0  0
  152.5882  139.7311  157.5265 N   0  0  0  0  0  0  0  0  0  0  0  0
  151.8962  140.1357  156.4651 C   0  0  0  0  0  0  0  0  0  0  0  0
  151.3045  141.3434  156.5380 N   0  0  0  0  0  0  0  0  0  0  0  0
  150.5072  141.9868  155.5089 C   0  0  0  0  0  0  0  0  0  0  0  0
  149.5136  141.0196  154.8364 C   0  0  1  0  0  0  0  0  0  0  0  0
  150.2322  140.1573  153.9750 O   0  0  0  0  0  0  0  0  0  0  0  0
  148.7613  140.1666  155.8786 C   0  0  0  0  0  0  0  0  0  0  0  0
  147.4833  139.6684  155.3605 N   0  0  0  0  0  0  0  0  0  0  0  0
  146.5770  140.4269  154.7189 C   0  0  0  0  0  0  0  0  0  0  0  0
  146.6775  141.6245  154.4568 O   0  0  0  0  0  0  0  0  0  0  0  0
  145.5282  139.6543  154.4064 N   0  0  0  0  0  0  0  0  0  0  0  0
  145.6875  138.2807  154.8449 C   0  0  0  0  0  0  0  0  0  0  0  0
  144.6076  137.9053  155.8752 C   0  0  0  0  0  0  0  0  0  0  0  0
  145.7076  137.3188  153.6432 C   0  0  0  0  0  0  0  0  0  0  0  0
  147.0595  138.4040  155.4891 C   0  0  0  0  0  0  0  0  0  0  0  0
  147.6514  137.4731  156.0363 O   0  0  0  0  0  0  0  0  0  0  0  0
  151.6286  141.8272  157.8012 C   0  0  0  0  0  0  0  0  0  0  0  0
  151.3288  143.0131  158.4949 C   0  0  0  0  0  0  0  0  0  0  0  0
  151.8248  143.2007  159.8020 C   0  0  0  0  0  0  0  0  0  0  0  0
  151.4946  144.4848  160.5424 C   0  0  0  0  0  0  0  0  0  0  0  0
  153.7248  141.4938  162.1367 H   0  0  0  0  0  0  0  0  0  0  0  0
  152.3535  142.5318  162.5201 H   0  0  0  0  0  0  0  0  0  0  0  0
  153.8369  143.2300  161.8533 H   0  0  0  0  0  0  0  0  0  0  0  0
  153.5196  140.2382  160.1574 H   0  0  0  0  0  0  0  0  0  0  0  0
  151.8123  139.5183  155.5824 H   0  0  0  0  0  0  0  0  0  0  0  0
  149.9792  142.8330  155.9504 H   0  0  0  0  0  0  0  0  0  0  0  0
  151.1886  142.4012  154.7645 H   0  0  0  0  0  0  0  0  0  0  0  0
  148.8071  141.5993  154.2406 H   0  0  0  0  0  0  0  0  0  0  0  0
  149.7796  140.1115  153.1467 H   0  0  0  0  0  0  0  0  0  0  0  0
  149.3889  139.3493  156.2389 H   0  0  0  0  0  0  0  0  0  0  0  0
  148.5510  140.7737  156.7610 H   0  0  0  0  0  0  0  0  0  0  0  0
  144.7052  139.9818  153.9214 H   0  0  0  0  0  0  0  0  0  0  0  0
  144.7369  136.8814  156.2279 H   0  0  0  0  0  0  0  0  0  0  0  0
  143.6098  137.9795  155.4417 H   0  0  0  0  0  0  0  0  0  0  0  0
  144.6358  138.5608  156.7472 H   0  0  0  0  0  0  0  0  0  0  0  0
  145.8372  136.2853  153.9665 H   0  0  0  0  0  0  0  0  0  0  0  0
  146.5188  137.5518  152.9518 H   0  0  0  0  0  0  0  0  0  0  0  0
  144.7740  137.3727  153.0824 H   0  0  0  0  0  0  0  0  0  0  0  0
  150.7200  143.7714  158.0255 H   0  0  0  0  0  0  0  0  0  0  0  0
  150.9080  145.1624  159.9215 H   0  0  0  0  0  0  0  0  0  0  0  0
  152.4071  145.0051  160.8342 H   0  0  0  0  0  0  0  0  0  0  0  0
  150.9163  144.2682  161.4409 H   0  0  0  0  0  0  0  0  0  0  0  0
  1  2  1  0  0  0  0
  1 25  1  0  0  0  0
  1 26  1  0  0  0  0
  1 27  1  0  0  0  0
  2 23  1  0  0  0  0
  2  3  2  0  0  0  0
  3  4  1  0  0  0  0
  3 28  1  0  0  0  0
  4 21  2  0  0  0  0
  4  5  1  0  0  0  0
  5  6  2  0  0  0  0
  6  7  1  0  0  0  0
  6 29  1  0  0  0  0
  7  8  1  0  0  0  0
  7 21  1  0  0  0  0
  8  9  1  0  0  0  0
  8 30  1  0  0  0  0
  8 31  1  0  0  0  0
  9 10  1  0  0  0  0
  9 11  1  0  0  0  0
  9 32  1  0  0  0  0
 10 33  1  0  0  0  0
 11 12  1  0  0  0  0
 11 34  1  0  0  0  0
 11 35  1  0  0  0  0
 12 19  1  0  0  0  0
 12 13  1  0  0  0  0
 13 14  2  0  0  0  0
 13 15  1  0  0  0  0
 15 16  1  0  0  0  0
 15 36  1  0  0  0  0
 16 17  1  0  0  0  0
 16 18  1  0  0  0  0
 16 19  1  0  0  0  0
 17 37  1  0  0  0  0
 17 38  1  0  0  0  0
 17 39  1  0  0  0  0
 18 40  1  0  0  0  0
 18 41  1  0  0  0  0
 18 42  1  0  0  0  0
 19 20  2  0  0  0  0
 21 22  1  0  0  0  0
 22 23  2  0  0  0  0
 22 43  1  0  0  0  0
 23 24  1  0  0  0  0
 24 44  1  0  0  0  0
 24 45  1  0  0  0  0
 24 46  1  0  0  0  0
M  END
> <s_m_source_file>
AV-unprocessed.smi

> <i_m_source_file_index>
2026

> <i_lp_mmshare_version>
43012

> <i_f3d_flags>
0

> <s_epik_input>
W0NIM11jKFtjSF0xKWMoW0NIM10pW2NIXWMoYzEyKW4oW2NIXW4yKVtDSDJdW0NASF0oW09IXSlbQ0gyXU4oQzM9TylDKD1PKVtOSF1DMyhbQ0gzXSlbQ0gzXQ==

> <s_epik_cmdline>
J2VwaWtfcHl0aG9uJywgJy1waCcsICc3LjAnLCAnLXRuJywgJzgnLCAnLW1hJywgJzIwMCcsICctbWV0YWxfYmluZGluZycsICctaW1hZScsICc8aW5maWxlLm1hZT4nLCAnLW9tYWUnLCAnPG91dGZpbGUubWFlPic=

> <r_lp_tautomer_probability>
1

> <r_epik_Ionization_Penalty>
0.103994

> <r_epik_Ionization_Penalty_Charging>
0

> <r_epik_Ionization_Penalty_Neutral>
0.103994

> <r_epik_State_Penalty>
0.0938482

> <r_epik_Charging_Adjusted_Penalty>
0.0938482

> <i_epik_Tot_Q>
0

> <i_epik_Tot_abs_Q>
0

> <r_epik_Metal_State_Penalty>
0.106997

> <b_epik_Metal_Only>
0

> <s_lp_Force_Field>
OPLS_2005

> <r_lp_Energy>
23.8549

> <b_lp_Chiralities_Consistent>
1

> <s_lp_Variant>
AV-unprocessed.smi:2026-2

> <Gold.Version>
5.8.1

> <Gold.Id.Protein>
6NUR|6NUR_protein|mol2

> <Gold.PLP.Fitness>
47.8126

> <Gold.PLP.PLP>
-37.6737

> <Gold.PLP.part.hbond>
-4.0000

> <Gold.PLP.part.metal>
0.0000

> <Gold.PLP.part.buried>
-4.8029

> <Gold.PLP.part.nonpolar>
-28.2868

> <Gold.PLP.part.repulsive>
0.1566

> <Gold.PLP.ligand.clash>
0.1671

> <Gold.PLP.ligand.torsion>
0.7094

> <Gold.PLP.Chemscore.Hbond>
3.8960

> <Gold.PLP.Chemscore.CHOScore>
0.0000

> <Gold.PLP.Chemscore.Metal>
0.0000

> <Gold.Chemscore.Hbonds>
donor molecule, donor type, donor heavy atom, donor atom, acceptor molecule, acceptor atom, score
      L1  H    10    33       P1  7957  1.00
      L1  H    15    36       P1 10175  1.00
      P1  H  7989  7998       L1    10  0.88
      P1  H  7997  8009       L1     5  0.90

> <Gold.PLP.Chemscore.Internal.Correction>
0.0368

> <Gold.Rescore>
     Score         DG    S(hbond)    S(metal)    S(lipo)     H(rot)  DE(clash)    DE(int)     intcor
     14.95     -19.45       2.52        0.00     100.72       2.44       1.47       3.02       ----

> <Gold.Chemscore.Fitness>
14.9512

> <Gold.Chemscore.DG>
-19.4477

> <Gold.Chemscore.ZeroCoef>
-5.4800

> <Gold.Chemscore.Hbond>
2.5207

> <Gold.Chemscore.Metal>
0.0000

> <Gold.Chemscore.Lipo>
100.7213

> <Gold.Chemscore.Internal_Hbond>
0.0000

> <Gold.Chemscore.DEClash>
1.4719

> <Gold.Chemscore.DEInternal>
3.0246

> <Gold.Chemscore.Rot>
2.4358

> <Gold.Chemscore.Internal.Correction>
   9.000000E+99

> <Gold.Chemscore.Hbonds>
donor molecule, donor type, donor heavy atom, donor atom, acceptor molecule, acceptor atom, score
      L1  H    10    33       P1  7957  0.95
      L1  H    15    36       P1 10175  0.99
      P1  H  7989  7998       L1    10  0.14
      P1  H  7997  8009       L1     5  0.05

> <Gold.Chemscore.Hbond.Weighted>
-8.4190

> <Gold.Chemscore.Metal.Weighted>
-0.0000

> <Gold.Chemscore.Lipo.Weighted>
-11.7844

> <Gold.Chemscore.Internal_Hbond.Weighted>
0.0000

> <Gold.Chemscore.DEClash.Weighted>
1.4719

> <Gold.Chemscore.DEInternal.Weighted>
3.0246

> <Gold.Chemscore.Rot.Weighted>
6.2357

> <Gold.Chemscore.Internal.Correction.Weighted>
   9.000000E+99

> <Gold.Protein.RotatedTorsions>
[ 6907 6896 6895 6894 ] final -162.36 input  -60.11 | X-H torsion
[ 7974 7965 7964 7962 ] final   29.94 input  175.53 | X-H torsion
[ 8008 7997 7996 7995 ] final  169.39 input   59.86 | X-H torsion
[ 10167 10162 10161 10158 ] final  -75.16 input  -65.29 | X-H torsion
[ 10718 10713 10712 10709 ] final   20.44 input   66.30 | X-H torsion
[ 10763 10752 10751 10750 ] final   70.36 input  -60.55 | X-H torsion
[ 11005 11000 10999 10996 ] final  -73.75 input  -57.11 | X-H torsion

> <Gold.Protein.ActiveResidues>
 VAL166  LYS551  ARG553  GLY616  TRP617  ASP618  TYR619  PRO620  LYS621  CYS622 
 ASP623  PHE694  ASN695  SER759  ASP760  ASP761  ALA762  ILE779  LEU786  VAL792 
 PHE793  MET794  SER795  GLU796  ALA797  LYS798  CYS799  TRP800  GLU811  SER814 

> <Gold.Protein.RotatedAtoms>
  151.3791  133.3827  159.2707 H   0  0  0  0  0  0  0  0  0  0  0  0  # atno 6907 bound_to 6896
  150.9591  134.8983  159.7730 H   0  0  0  0  0  0  0  0  0  0  0  0  # atno 6908 bound_to 6896
  152.5142  134.3749  159.9383 H   0  0  0  0  0  0  0  0  0  0  0  0  # atno 6909 bound_to 6896
  146.1642  139.6855  142.9013 H   0  0  0  0  0  0  0  0  0  0  0  0  # atno 7974 bound_to 7965
  156.1461  140.1565  156.8844 H   0  0  0  0  0  0  0  0  0  0  0  0  # atno 8008 bound_to 7997
  154.5030  140.0820  156.7873 H   0  0  0  0  0  0  0  0  0  0  0  0  # atno 8009 bound_to 7997
  155.3986  140.3413  155.4258 H   0  0  0  0  0  0  0  0  0  0  0  0  # atno 8010 bound_to 7997
  140.4966  143.2369  151.7821 H   0  0  0  0  0  0  0  0  0  0  0  0  # atno 10167 bound_to 10162
  157.1245  130.6564  149.5933 H   0  0  0  0  0  0  0  0  0  0  0  0  # atno 10718 bound_to 10713
  153.0338  135.5176  154.7430 H   0  0  0  0  0  0  0  0  0  0  0  0  # atno 10763 bound_to 10752
  154.6424  135.2914  155.0090 H   0  0  0  0  0  0  0  0  0  0  0  0  # atno 10764 bound_to 10752
  154.1003  135.6637  153.4919 H   0  0  0  0  0  0  0  0  0  0  0  0  # atno 10765 bound_to 10752
  141.1627  133.6888  156.7260 H   0  0  0  0  0  0  0  0  0  0  0  0  # atno 11005 bound_to 11000
  145.4511  141.0428  143.2804 LP  0  0  0  0  0  0  0  0  0  0  0  0  # atno 17320 bound_to 7965
  144.8069  139.6035  143.7047 LP  0  0  0  0  0  0  0  0  0  0  0  0  # atno 17321 bound_to 7965
  139.4862  144.4578  151.9577 LP  0  0  0  0  0  0  0  0  0  0  0  0  # atno 17342 bound_to 10162
  140.3666  144.2907  150.5925 LP  0  0  0  0  0  0  0  0  0  0  0  0  # atno 17343 bound_to 10162
  155.9821  130.4833  150.6864 LP  0  0  0  0  0  0  0  0  0  0  0  0  # atno 17370 bound_to 10713
  157.4447  131.0865  151.0907 LP  0  0  0  0  0  0  0  0  0  0  0  0  # atno 17371 bound_to 10713
  140.2781  134.8339  157.3908 LP  0  0  0  0  0  0  0  0  0  0  0  0  # atno 17394 bound_to 11000
  140.1459  134.4912  155.7997 LP  0  0  0  0  0  0  0  0  0  0  0  0  # atno 17395 bound_to 11000

$$$$
