AV-unprocessed.smi:1353|AV-procd|sdf|5532|dock2
  -GOLD-   22720 5123D 1   1.00000     0.00000
 Structure written by MMmdl.
 39 41  0  0  0  0  0  0  0  0  1 V2000
  151.9966  137.3698  155.0922 O   0  0  0  0  0  0  0  0  0  0  0  0
  152.8159  138.5192  155.1259 C   0  0  0  0  0  0  0  0  0  0  0  0
  152.1893  139.6240  155.9943 C   0  0  0  0  0  0  0  0  0  0  0  0
  150.8714  140.1213  155.4695 C   0  0  0  0  0  0  0  0  0  0  0  0
  150.3415  139.6226  154.3511 N   0  0  0  0  0  0  0  0  0  0  0  0
  149.1684  140.3380  154.2206 C   0  0  0  0  0  0  0  0  0  0  0  0
  148.1672  140.2852  153.2244 C   0  0  0  0  0  0  0  0  0  0  0  0
  147.0392  141.1279  153.3008 C   0  0  0  0  0  0  0  0  0  0  0  0
  146.8962  142.0326  154.3725 C   0  0  0  0  0  0  0  0  0  0  0  0
  147.8809  142.0987  155.3768 C   0  0  0  0  0  0  0  0  0  0  0  0
  149.0057  141.2551  155.2964 C   0  0  0  0  0  0  0  0  0  0  0  0
  150.1282  141.0694  156.0991 N   0  0  0  0  0  0  0  0  0  0  0  0
  150.4039  141.7702  157.3472 C   0  0  0  0  0  0  0  0  0  0  0  0
  151.2512  143.0326  157.1384 C   0  0  0  0  0  0  0  0  0  0  0  0
  151.1865  143.8413  158.3060 O   0  0  0  0  0  0  0  0  0  0  0  0
  151.8150  143.3942  159.4474 C   0  0  0  0  0  0  0  0  0  0  0  0
  151.7103  144.2081  160.5942 C   0  0  0  0  0  0  0  0  0  0  0  0
  152.3223  143.8301  161.8048 C   0  0  0  0  0  0  0  0  0  0  0  0
  153.0483  142.6271  161.8801 C   0  0  0  0  0  0  0  0  0  0  0  0
  153.1592  141.8043  160.7438 C   0  0  0  0  0  0  0  0  0  0  0  0
  152.5469  142.1826  159.5329 C   0  0  0  0  0  0  0  0  0  0  0  0
  151.3663  137.4288  155.7940 H   0  0  0  0  0  0  0  0  0  0  0  0
  153.8120  138.2537  155.4813 H   0  0  0  0  0  0  0  0  0  0  0  0
  152.9285  138.8770  154.1022 H   0  0  0  0  0  0  0  0  0  0  0  0
  152.0133  139.2287  156.9952 H   0  0  0  0  0  0  0  0  0  0  0  0
  152.8995  140.4394  156.1194 H   0  0  0  0  0  0  0  0  0  0  0  0
  148.2687  139.5962  152.3990 H   0  0  0  0  0  0  0  0  0  0  0  0
  146.2806  141.0806  152.5333 H   0  0  0  0  0  0  0  0  0  0  0  0
  146.0301  142.6761  154.4234 H   0  0  0  0  0  0  0  0  0  0  0  0
  147.7737  142.7928  156.1970 H   0  0  0  0  0  0  0  0  0  0  0  0
  149.4533  142.0452  157.8045 H   0  0  0  0  0  0  0  0  0  0  0  0
  150.8828  141.0892  158.0503 H   0  0  0  0  0  0  0  0  0  0  0  0
  152.2845  142.7496  156.9329 H   0  0  0  0  0  0  0  0  0  0  0  0
  150.8803  143.5805  156.2731 H   0  0  0  0  0  0  0  0  0  0  0  0
  151.1559  145.1339  160.5441 H   0  0  0  0  0  0  0  0  0  0  0  0
  152.2350  144.4638  162.6749 H   0  0  0  0  0  0  0  0  0  0  0  0
  153.5187  142.3359  162.8076 H   0  0  0  0  0  0  0  0  0  0  0  0
  153.7154  140.8803  160.8003 H   0  0  0  0  0  0  0  0  0  0  0  0
  152.6525  141.5249  158.6839 H   0  0  0  0  0  0  0  0  0  0  0  0
  1  2  1  0  0  0  0
  1 22  1  0  0  0  0
  2  3  1  0  0  0  0
  2 23  1  0  0  0  0
  2 24  1  0  0  0  0
  3  4  1  0  0  0  0
  3 25  1  0  0  0  0
  3 26  1  0  0  0  0
  4 12  1  0  0  0  0
  4  5  2  0  0  0  0
  5  6  1  0  0  0  0
  6 11  2  0  0  0  0
  6  7  1  0  0  0  0
  7  8  2  0  0  0  0
  7 27  1  0  0  0  0
  8  9  1  0  0  0  0
  8 28  1  0  0  0  0
  9 10  2  0  0  0  0
  9 29  1  0  0  0  0
 10 11  1  0  0  0  0
 10 30  1  0  0  0  0
 11 12  1  0  0  0  0
 12 13  1  0  0  0  0
 13 14  1  0  0  0  0
 13 31  1  0  0  0  0
 13 32  1  0  0  0  0
 14 15  1  0  0  0  0
 14 33  1  0  0  0  0
 14 34  1  0  0  0  0
 15 16  1  0  0  0  0
 16 21  1  0  0  0  0
 16 17  2  0  0  0  0
 17 18  1  0  0  0  0
 17 35  1  0  0  0  0
 18 19  2  0  0  0  0
 18 36  1  0  0  0  0
 19 20  1  0  0  0  0
 19 37  1  0  0  0  0
 20 21  2  0  0  0  0
 20 38  1  0  0  0  0
 21 39  1  0  0  0  0
M  END
> <s_m_source_file>
AV-unprocessed.smi

> <i_m_source_file_index>
1353

> <i_lp_mmshare_version>
43012

> <i_f3d_flags>
0

> <s_epik_input>
W2NIXTFbY0hdW2NIXVtjSF1jKGMxMiluKGMobjIpW0NIMl1bQ0gyXVtPSF0pW0NIMl1bQ0gyXU9jM1tjSF1bY0hdW2NIXVtjSF1bY0hdMw==

> <s_epik_cmdline>
J2VwaWtfcHl0aG9uJywgJy1waCcsICc3LjAnLCAnLXRuJywgJzgnLCAnLW1hJywgJzIwMCcsICctbWV0YWxfYmluZGluZycsICctaW1hZScsICc8aW5maWxlLm1hZT4nLCAnLW9tYWUnLCAnPG91dGZpbGUubWFlPic=

> <r_lp_tautomer_probability>
1

> <r_epik_Ionization_Penalty>
0.230562

> <r_epik_Ionization_Penalty_Charging>
0

> <r_epik_Ionization_Penalty_Neutral>
0.230562

> <r_epik_State_Penalty>
0.221203

> <r_epik_Charging_Adjusted_Penalty>
0.221203

> <i_epik_Tot_Q>
0

> <i_epik_Tot_abs_Q>
0

> <r_epik_Metal_State_Penalty>
0.000268091

> <b_epik_Metal_Only>
0

> <s_lp_Force_Field>
OPLS_2005

> <r_lp_Energy>
15.7907

> <b_lp_Chiralities_Consistent>
1

> <s_lp_Variant>
AV-unprocessed.smi:1353-1

> <Gold.Version>
5.8.1

> <Gold.Id.Protein>
6NUR|6NUR_protein|mol2

> <Gold.PLP.Fitness>
52.4559

> <Gold.PLP.PLP>
-50.1477

> <Gold.PLP.part.hbond>
-2.0000

> <Gold.PLP.part.metal>
0.0000

> <Gold.PLP.part.buried>
1.6344

> <Gold.PLP.part.nonpolar>
-50.0585

> <Gold.PLP.part.repulsive>
0.2539

> <Gold.PLP.ligand.clash>
0.0000

> <Gold.PLP.ligand.torsion>
0.4538

> <Gold.PLP.Chemscore.Hbond>
1.0540

> <Gold.PLP.Chemscore.CHOScore>
0.0000

> <Gold.PLP.Chemscore.Metal>
0.0000

> <Gold.Chemscore.Hbonds>
donor molecule, donor type, donor heavy atom, donor atom, acceptor molecule, acceptor atom, score
      P1  H  7989  7998       L1     5  0.15
      P1  H 10752 10765       L1     1  0.82

> <Gold.PLP.Chemscore.Internal.Correction>
0.0538

> <Gold.Rescore>
     Score         DG    S(hbond)    S(metal)    S(lipo)     H(rot)  DE(clash)    DE(int)     intcor
     16.48     -18.63       0.82        0.00     139.66       2.31       1.63       0.53       ----

> <Gold.Chemscore.Fitness>
16.4758

> <Gold.Chemscore.DG>
-18.6311

> <Gold.Chemscore.ZeroCoef>
-5.4800

> <Gold.Chemscore.Hbond>
0.8156

> <Gold.Chemscore.Metal>
0.0000

> <Gold.Chemscore.Lipo>
139.6588

> <Gold.Chemscore.Internal_Hbond>
0.0000

> <Gold.Chemscore.DEClash>
1.6292

> <Gold.Chemscore.DEInternal>
0.5260

> <Gold.Chemscore.Rot>
2.3098

> <Gold.Chemscore.Internal.Correction>
   9.000000E+99

> <Gold.Chemscore.Hbonds>
donor molecule, donor type, donor heavy atom, donor atom, acceptor molecule, acceptor atom, score
      P1  H 10752 10765       L1     1  0.69

> <Gold.Chemscore.Hbond.Weighted>
-2.7242

> <Gold.Chemscore.Metal.Weighted>
-0.0000

> <Gold.Chemscore.Lipo.Weighted>
-16.3401

> <Gold.Chemscore.Internal_Hbond.Weighted>
0.0000

> <Gold.Chemscore.DEClash.Weighted>
1.6292

> <Gold.Chemscore.DEInternal.Weighted>
0.5260

> <Gold.Chemscore.Rot.Weighted>
5.9131

> <Gold.Chemscore.Internal.Correction.Weighted>
   9.000000E+99

> <Gold.Protein.RotatedTorsions>
[ 6907 6896 6895 6894 ] final   87.99 input  -60.11 | X-H torsion
[ 7974 7965 7964 7962 ] final -165.74 input  175.53 | X-H torsion
[ 8008 7997 7996 7995 ] final -117.96 input   59.86 | X-H torsion
[ 10167 10162 10161 10158 ] final  102.86 input  -65.29 | X-H torsion
[ 10718 10713 10712 10709 ] final  -89.49 input   66.30 | X-H torsion
[ 10763 10752 10751 10750 ] final  179.47 input  -60.55 | X-H torsion
[ 11005 11000 10999 10996 ] final   49.33 input  -57.11 | X-H torsion

> <Gold.Protein.ActiveResidues>
 VAL166  LYS551  ARG553  GLY616  TRP617  ASP618  TYR619  PRO620  LYS621  CYS622 
 ASP623  PHE694  ASN695  SER759  ASP760  ASP761  ALA762  ILE779  LEU786  VAL792 
 PHE793  MET794  SER795  GLU796  ALA797  LYS798  CYS799  TRP800  GLU811  SER814 

> <Gold.Protein.RotatedAtoms>
  152.5419  134.2190  159.8779 H   0  0  0  0  0  0  0  0  0  0  0  0  # atno 6907 bound_to 6896
  151.2168  133.4518  159.2607 H   0  0  0  0  0  0  0  0  0  0  0  0  # atno 6908 bound_to 6896
  151.0843  134.9890  159.8427 H   0  0  0  0  0  0  0  0  0  0  0  0  # atno 6909 bound_to 6896
  144.7262  140.2770  143.6242 H   0  0  0  0  0  0  0  0  0  0  0  0  # atno 7974 bound_to 7965
  155.0920  140.0395  157.2671 H   0  0  0  0  0  0  0  0  0  0  0  0  # atno 8008 bound_to 7997
  154.6824  140.2636  155.6870 H   0  0  0  0  0  0  0  0  0  0  0  0  # atno 8009 bound_to 7997
  156.2699  140.2776  156.1373 H   0  0  0  0  0  0  0  0  0  0  0  0  # atno 8010 bound_to 7997
  139.7313  144.7035  151.0718 H   0  0  0  0  0  0  0  0  0  0  0  0  # atno 10167 bound_to 10162
  155.9984  130.4874  150.5179 H   0  0  0  0  0  0  0  0  0  0  0  0  # atno 10718 bound_to 10713
  154.5210  135.2794  155.1262 H   0  0  0  0  0  0  0  0  0  0  0  0  # atno 10763 bound_to 10752
  154.2819  135.6283  153.5354 H   0  0  0  0  0  0  0  0  0  0  0  0  # atno 10764 bound_to 10752
  152.9937  135.5653  154.5699 H   0  0  0  0  0  0  0  0  0  0  0  0  # atno 10765 bound_to 10752
  140.1112  134.4952  155.8676 H   0  0  0  0  0  0  0  0  0  0  0  0  # atno 11005 bound_to 11000
  145.7987  139.1955  143.2060 LP  0  0  0  0  0  0  0  0  0  0  0  0  # atno 17320 bound_to 7965
  146.0695  140.7885  142.9695 LP  0  0  0  0  0  0  0  0  0  0  0  0  # atno 17321 bound_to 7965
  140.7771  143.5040  150.9736 LP  0  0  0  0  0  0  0  0  0  0  0  0  # atno 17342 bound_to 10162
  139.8728  143.7171  152.3165 LP  0  0  0  0  0  0  0  0  0  0  0  0  # atno 17343 bound_to 10162
  157.3144  131.0670  151.1977 LP  0  0  0  0  0  0  0  0  0  0  0  0  # atno 17370 bound_to 10713
  157.2912  130.6797  149.6115 LP  0  0  0  0  0  0  0  0  0  0  0  0  # atno 17371 bound_to 10713
  141.2130  133.6728  156.6709 LP  0  0  0  0  0  0  0  0  0  0  0  0  # atno 17394 bound_to 11000
  140.3088  134.8103  157.4159 LP  0  0  0  0  0  0  0  0  0  0  0  0  # atno 17395 bound_to 11000

$$$$
