AV-unprocessed.smi:279|AV-procd|sdf|2095|dock7
  -GOLD-   2262021373D 1   1.00000     0.00000
 Structure written by MMmdl.
 50 54  0  0  0  0  0  0  0  0  1 V2000
  151.6628  139.6200  154.9421 O   0  0  0  0  0  0  0  0  0  0  0  0
  151.2612  139.8966  156.3300 S   0  0  0  0  0  0  0  0  0  0  0  0
  152.2000  139.6839  157.4421 O   0  0  0  0  0  0  0  0  0  0  0  0
  150.5877  141.5951  156.4334 C   0  0  0  0  0  0  0  0  0  0  0  0
  149.0829  141.4450  156.1937 C   0  0  0  0  0  0  0  0  0  0  0  0
  148.6022  140.1482  156.8786 C   0  0  1  0  0  0  0  0  0  0  0  0
  147.3155  139.5664  156.2690 C   0  0  0  0  0  0  0  0  0  0  0  0
  147.6818  138.2902  155.6684 N   0  0  0  0  0  0  0  0  0  0  0  0
  146.8746  137.7143  154.7375 C   0  0  0  0  0  0  0  0  0  0  0  0
  146.0433  138.5106  154.0131 N   0  0  0  0  0  0  0  0  0  0  0  0
  145.2306  137.9882  153.0910 C   0  0  0  0  0  0  0  0  0  0  0  0
  145.0941  136.7129  152.7278 N   0  0  0  0  0  0  0  0  0  0  0  0
  145.9345  135.9054  153.4352 C   0  0  0  0  0  0  0  0  0  0  0  0
  146.8459  136.3162  154.4514 C   0  0  0  0  0  0  0  0  0  0  0  0
  147.5222  135.2046  154.9440 N   0  0  0  0  0  0  0  0  0  0  0  0
  147.0306  134.2003  154.2717 C   0  0  0  0  0  0  0  0  0  0  0  0
  146.0914  134.5350  153.3241 N   0  0  0  0  0  0  0  0  0  0  0  0
  145.3656  133.6340  152.4777 C   0  0  0  0  0  0  0  0  0  0  0  0
  145.8153  132.1835  152.2870 C   0  0  0  0  0  0  0  0  0  0  0  0
  145.2694  132.2142  150.8411 C   0  0  0  0  0  0  0  0  0  0  0  0
  146.1529  131.5302  149.7845 C   0  0  0  0  0  0  0  0  0  0  0  0
  147.4869  131.9921  149.8530 O   0  0  0  0  0  0  0  0  0  0  0  0
  143.8146  131.7297  150.6754 C   0  0  0  0  0  0  0  0  0  0  0  0
  143.3848  131.8359  149.3336 O   0  0  0  0  0  0  0  0  0  0  0  0
  145.4418  133.7450  150.9533 C   0  0  0  0  0  0  0  0  0  0  0  0
  149.1290  138.2127  155.5397 C   0  0  0  0  0  0  0  0  0  0  0  0
  149.6645  139.0567  156.6968 C   0  0  1  0  0  0  0  0  0  0  0  0
  148.4669  140.3449  157.9431 H   0  0  0  0  0  0  0  0  0  0  0  0
  149.7632  138.4558  157.6015 H   0  0  0  0  0  0  0  0  0  0  0  0
  150.7827  141.9771  157.4358 H   0  0  0  0  0  0  0  0  0  0  0  0
  151.0789  142.2426  155.7072 H   0  0  0  0  0  0  0  0  0  0  0  0
  148.5290  142.3168  156.5429 H   0  0  0  0  0  0  0  0  0  0  0  0
  148.9139  141.3705  155.1184 H   0  0  0  0  0  0  0  0  0  0  0  0
  146.5734  139.3982  157.0502 H   0  0  0  0  0  0  0  0  0  0  0  0
  146.8797  140.2392  155.5291 H   0  0  0  0  0  0  0  0  0  0  0  0
  144.6007  138.6935  152.5692 H   0  0  0  0  0  0  0  0  0  0  0  0
  147.3482  133.1827  154.4469 H   0  0  0  0  0  0  0  0  0  0  0  0
  144.3289  133.6748  152.8166 H   0  0  0  0  0  0  0  0  0  0  0  0
  146.9008  132.0739  152.3290 H   0  0  0  0  0  0  0  0  0  0  0  0
  145.3276  131.4702  152.9522 H   0  0  0  0  0  0  0  0  0  0  0  0
  146.1683  130.4501  149.9334 H   0  0  0  0  0  0  0  0  0  0  0  0
  145.7724  131.6932  148.7759 H   0  0  0  0  0  0  0  0  0  0  0  0
  148.0352  131.2823  150.1515 H   0  0  0  0  0  0  0  0  0  0  0  0
  143.7093  130.6870  150.9754 H   0  0  0  0  0  0  0  0  0  0  0  0
  143.1307  132.2947  151.3090 H   0  0  0  0  0  0  0  0  0  0  0  0
  142.7623  132.5445  149.2738 H   0  0  0  0  0  0  0  0  0  0  0  0
  144.6406  134.3314  150.5023 H   0  0  0  0  0  0  0  0  0  0  0  0
  146.4187  134.0910  150.6094 H   0  0  0  0  0  0  0  0  0  0  0  0
  149.4900  137.1851  155.5942 H   0  0  0  0  0  0  0  0  0  0  0  0
  149.4140  138.6301  154.5736 H   0  0  0  0  0  0  0  0  0  0  0  0
  1  2  2  0  0  0  0
  2 27  1  0  0  0  0
  2  3  2  0  0  0  0
  2  4  1  0  0  0  0
  4  5  1  0  0  0  0
  4 30  1  0  0  0  0
  4 31  1  0  0  0  0
  5  6  1  0  0  0  0
  5 32  1  0  0  0  0
  5 33  1  0  0  0  0
  6 28  1  0  0  0  0
  6 27  1  0  0  0  0
  6  7  1  0  0  0  0
  7  8  1  0  0  0  0
  7 34  1  0  0  0  0
  7 35  1  0  0  0  0
  8  9  1  0  0  0  0
  8 26  1  0  0  0  0
  9 14  1  0  0  0  0
  9 10  2  0  0  0  0
 10 11  1  0  0  0  0
 11 12  2  0  0  0  0
 11 36  1  0  0  0  0
 12 13  1  0  0  0  0
 13 17  1  0  0  0  0
 13 14  2  0  0  0  0
 14 15  1  0  0  0  0
 15 16  2  0  0  0  0
 16 17  1  0  0  0  0
 16 37  1  0  0  0  0
 17 18  1  0  0  0  0
 18 25  1  0  0  0  0
 18 19  1  0  0  0  0
 18 38  1  0  0  0  0
 19 20  1  0  0  0  0
 19 39  1  0  0  0  0
 19 40  1  0  0  0  0
 20 21  1  0  0  0  0
 20 23  1  0  0  0  0
 20 25  1  0  0  0  0
 21 22  1  0  0  0  0
 21 41  1  0  0  0  0
 21 42  1  0  0  0  0
 22 43  1  0  0  0  0
 23 24  1  0  0  0  0
 23 44  1  0  0  0  0
 23 45  1  0  0  0  0
 24 46  1  0  0  0  0
 25 47  1  0  0  0  0
 25 48  1  0  0  0  0
 26 27  1  0  0  0  0
 26 49  1  0  0  0  0
 26 50  1  0  0  0  0
 27 29  1  0  0  0  0
M  END
> <s_m_source_file>
AV-unprocessed.smi

> <i_m_source_file_index>
279

> <i_lp_mmshare_version>
43012

> <i_f3d_flags>
0

> <s_epik_input>
W0NIMl0xW0NIMl1TKD1PKSg9TylbQ0BASF0oW0NAQEhdMTIpW0NIMl1OKFtDSDJdMiljKG5bY0hdbjMpYyhjMzQpbltjSF1uNFtDSF0oW0NIMl01KVtDSDJdQzUoW0NIMl1bT0hdKVtDSDJdW09IXQ==

> <s_epik_cmdline>
J2VwaWtfcHl0aG9uJywgJy1waCcsICc3LjAnLCAnLXRuJywgJzgnLCAnLW1hJywgJzIwMCcsICctbWV0YWxfYmluZGluZycsICctaW1hZScsICc8aW5maWxlLm1hZT4nLCAnLW9tYWUnLCAnPG91dGZpbGUubWFlPic=

> <r_lp_tautomer_probability>
1

> <r_epik_Ionization_Penalty>
0.000990948

> <r_epik_Ionization_Penalty_Charging>
0

> <r_epik_Ionization_Penalty_Neutral>
0.000990948

> <r_epik_State_Penalty>
0.000515994

> <r_epik_Charging_Adjusted_Penalty>
0.000515994

> <i_epik_Tot_Q>
0

> <i_epik_Tot_abs_Q>
0

> <r_epik_Metal_State_Penalty>
-0

> <b_epik_Metal_Only>
0

> <s_lp_Force_Field>
OPLS_2005

> <r_lp_Energy>
54.435

> <b_lp_Chiralities_Consistent>
1

> <s_lp_Variant>
AV-unprocessed.smi:279-1

> <Gold.Version>
5.8.1

> <Gold.Id.Protein>
6NUR|6NUR_protein|mol2

> <Gold.PLP.Fitness>
47.4489

> <Gold.PLP.PLP>
-32.8861

> <Gold.PLP.part.hbond>
-7.1883

> <Gold.PLP.part.metal>
0.0000

> <Gold.PLP.part.buried>
-3.4636

> <Gold.PLP.part.nonpolar>
-23.4691

> <Gold.PLP.part.repulsive>
0.4273

> <Gold.PLP.ligand.clash>
0.0000

> <Gold.PLP.ligand.torsion>
1.0851

> <Gold.PLP.Chemscore.Hbond>
4.3101

> <Gold.PLP.Chemscore.CHOScore>
1.0000

> <Gold.PLP.Chemscore.Metal>
0.0000

> <Gold.Chemscore.Hbonds>
donor molecule, donor type, donor heavy atom, donor atom, acceptor molecule, acceptor atom, score
      P1  H  7989  7998       L1     1  1.00
      P1  H  7997  8010       L1     3  0.08
      P1  H 10785 10796       L1    24  1.00
      L1  C    11    36       P1 10171  0.21
      L1  C    11    36       P1 10175  0.89

> <Gold.PLP.Chemscore.Internal.Correction>
0.8027

> <Gold.Rescore>
     Score         DG    S(hbond)    S(metal)    S(lipo)     H(rot)  DE(clash)    DE(int)     intcor
     16.54     -18.42       3.94        0.00      62.33       2.94       0.12       1.75       ----

> <Gold.Chemscore.Fitness>
16.5400

> <Gold.Chemscore.DG>
-18.4163

> <Gold.Chemscore.ZeroCoef>
-5.4800

> <Gold.Chemscore.Hbond>
3.9400

> <Gold.Chemscore.Metal>
0.0000

> <Gold.Chemscore.Lipo>
62.3299

> <Gold.Chemscore.Internal_Hbond>
0.0000

> <Gold.Chemscore.DEClash>
0.1229

> <Gold.Chemscore.DEInternal>
1.7534

> <Gold.Chemscore.Rot>
2.9360

> <Gold.Chemscore.Internal.Correction>
   9.000000E+99

> <Gold.Chemscore.Hbonds>
donor molecule, donor type, donor heavy atom, donor atom, acceptor molecule, acceptor atom, score
      L1  H    22    43       P1 10747  0.01
      P1  H  7989  7998       L1     1  0.98
      P1  H  7997  8010       L1     3  0.04
      P1  H 10785 10796       L1    24  0.53

> <Gold.Chemscore.Hbond.Weighted>
-13.1598

> <Gold.Chemscore.Metal.Weighted>
-0.0000

> <Gold.Chemscore.Lipo.Weighted>
-7.2926

> <Gold.Chemscore.Internal_Hbond.Weighted>
0.0000

> <Gold.Chemscore.DEClash.Weighted>
0.1229

> <Gold.Chemscore.DEInternal.Weighted>
1.7534

> <Gold.Chemscore.Rot.Weighted>
7.5161

> <Gold.Chemscore.Internal.Correction.Weighted>
   9.000000E+99

> <Gold.Protein.RotatedTorsions>
[ 6907 6896 6895 6894 ] final    2.36 input  -60.11 | X-H torsion
[ 7974 7965 7964 7962 ] final  108.77 input  175.53 | X-H torsion
[ 8008 7997 7996 7995 ] final   72.76 input   59.86 | X-H torsion
[ 10167 10162 10161 10158 ] final   40.83 input  -65.29 | X-H torsion
[ 10718 10713 10712 10709 ] final -112.89 input   66.30 | X-H torsion
[ 10763 10752 10751 10750 ] final  159.42 input  -60.55 | X-H torsion
[ 11005 11000 10999 10996 ] final   -5.47 input  -57.11 | X-H torsion

> <Gold.Protein.ActiveResidues>
 VAL166  LYS551  ARG553  GLY616  TRP617  ASP618  TYR619  PRO620  LYS621  CYS622 
 ASP623  PHE694  ASN695  SER759  ASP760  ASP761  ALA762  ILE779  LEU786  VAL792 
 PHE793  MET794  SER795  GLU796  ALA797  LYS798  CYS799  TRP800  GLU811  SER814 

> <Gold.Protein.RotatedAtoms>
  151.6076  135.1042  160.0073 H   0  0  0  0  0  0  0  0  0  0  0  0  # atno 6907 bound_to 6896
  152.4225  133.7136  159.6503 H   0  0  0  0  0  0  0  0  0  0  0  0  # atno 6908 bound_to 6896
  150.8113  133.8344  159.3203 H   0  0  0  0  0  0  0  0  0  0  0  0  # atno 6909 bound_to 6896
  145.2764  139.2648  143.3939 H   0  0  0  0  0  0  0  0  0  0  0  0  # atno 7974 bound_to 7965
  155.7737  140.3483  155.5260 H   0  0  0  0  0  0  0  0  0  0  0  0  # atno 8008 bound_to 7997
  155.8797  140.1000  157.1514 H   0  0  0  0  0  0  0  0  0  0  0  0  # atno 8009 bound_to 7997
  154.4024  140.1325  156.4168 H   0  0  0  0  0  0  0  0  0  0  0  0  # atno 8010 bound_to 7997
  140.3703  144.2114  150.6133 H   0  0  0  0  0  0  0  0  0  0  0  0  # atno 10167 bound_to 10162
  156.0733  130.5944  150.8569 H   0  0  0  0  0  0  0  0  0  0  0  0  # atno 10718 bound_to 10713
  154.2314  135.2778  155.2888 H   0  0  0  0  0  0  0  0  0  0  0  0  # atno 10763 bound_to 10752
  154.5620  135.5644  153.7020 H   0  0  0  0  0  0  0  0  0  0  0  0  # atno 10764 bound_to 10752
  153.0019  135.6300  154.2456 H   0  0  0  0  0  0  0  0  0  0  0  0  # atno 10765 bound_to 10752
  140.6915  133.9067  155.8621 H   0  0  0  0  0  0  0  0  0  0  0  0  # atno 11005 bound_to 11000
  146.3230  140.3220  142.8634 LP  0  0  0  0  0  0  0  0  0  0  0  0  # atno 17320 bound_to 7965
  144.9291  140.7954  143.5700 LP  0  0  0  0  0  0  0  0  0  0  0  0  # atno 17321 bound_to 7965
  140.5040  143.2309  151.8636 LP  0  0  0  0  0  0  0  0  0  0  0  0  # atno 17342 bound_to 10162
  139.4804  144.5027  151.9039 LP  0  0  0  0  0  0  0  0  0  0  0  0  # atno 17343 bound_to 10162
  157.5816  131.0946  150.9262 LP  0  0  0  0  0  0  0  0  0  0  0  0  # atno 17370 bound_to 10713
  156.9457  130.5401  149.5281 LP  0  0  0  0  0  0  0  0  0  0  0  0  # atno 17371 bound_to 10713
  141.0238  134.0852  157.4091 LP  0  0  0  0  0  0  0  0  0  0  0  0  # atno 17394 bound_to 11000
  139.8922  135.0123  156.6834 LP  0  0  0  0  0  0  0  0  0  0  0  0  # atno 17395 bound_to 11000

$$$$
