AV-unprocessed.smi:2390|AV-procd|sdf|9478|dock2
  -GOLD-   2272013103D 1   1.00000     0.00000
 Structure written by MMmdl.
 46 47  0  0  0  0  0  0  0  0  2 V2000
  152.2520  145.1475  160.6854 C   0  0  0  0  0  0  0  0  0  0  0  0
  152.1172  143.9155  159.8154 C   0  0  0  0  0  0  0  0  0  0  0  0
  152.9132  142.7760  160.0440 C   0  0  0  0  0  0  0  0  0  0  0  0
  152.7355  141.6631  159.2028 C   0  0  0  0  0  0  0  0  0  0  0  0
  151.7744  141.7341  158.1761 C   0  0  0  0  0  0  0  0  0  0  0  0
  151.0176  142.9160  158.0133 C   0  0  0  0  0  0  0  0  0  0  0  0
  150.0693  142.8834  156.9567 N   0  0  0  0  0  0  0  0  0  0  0  0
  149.3486  141.8349  156.5224 C   0  0  0  0  0  0  0  0  0  0  0  0
  149.3449  140.7123  157.0289 O   0  0  0  0  0  0  0  0  0  0  0  0
  148.6120  142.1614  155.4498 N   0  0  0  0  0  0  0  0  0  0  0  0
  147.7100  141.2582  154.7353 C   0  0  1  0  0  0  0  0  0  0  0  0
  146.7630  142.0987  153.8605 C   0  0  0  0  0  0  0  0  0  0  0  0
  148.4863  140.1652  153.9305 C   0  0  2  0  0  0  0  0  0  0  0  0
  147.5164  139.2733  153.1140 C   0  0  0  0  0  0  0  0  0  0  0  0
  149.4146  139.3637  154.7980 N   0  3  0  0  0  0  0  0  0  0  0  0
  148.7302  138.3520  155.6521 C   0  0  0  0  0  0  0  0  0  0  0  0
  149.7326  137.5733  156.5207 C   0  0  0  0  0  0  0  0  0  0  0  0
  150.7087  136.9578  155.6958 O   0  0  0  0  0  0  0  0  0  0  0  0
  151.4550  137.9252  154.9755 C   0  0  0  0  0  0  0  0  0  0  0  0
  150.5200  138.7108  154.0414 C   0  0  0  0  0  0  0  0  0  0  0  0
  151.1964  143.9843  158.8297 N   0  0  0  0  0  0  0  0  0  0  0  0
  153.1084  145.0664  161.3553 H   0  0  0  0  0  0  0  0  0  0  0  0
  151.3556  145.2811  161.2918 H   0  0  0  0  0  0  0  0  0  0  0  0
  152.3868  146.0371  160.0694 H   0  0  0  0  0  0  0  0  0  0  0  0
  153.6406  142.7517  160.8421 H   0  0  0  0  0  0  0  0  0  0  0  0
  153.3248  140.7689  159.3426 H   0  0  0  0  0  0  0  0  0  0  0  0
  151.6242  140.8870  157.5223 H   0  0  0  0  0  0  0  0  0  0  0  0
  149.9379  143.7554  156.4661 H   0  0  0  0  0  0  0  0  0  0  0  0
  148.6753  143.1075  155.1023 H   0  0  0  0  0  0  0  0  0  0  0  0
  147.1053  140.7888  155.5102 H   0  0  0  0  0  0  0  0  0  0  0  0
  146.0244  141.4757  153.3563 H   0  0  0  0  0  0  0  0  0  0  0  0
  147.3060  142.6561  153.0968 H   0  0  0  0  0  0  0  0  0  0  0  0
  146.2143  142.8222  154.4649 H   0  0  0  0  0  0  0  0  0  0  0  0
  149.1187  140.6764  153.2031 H   0  0  0  0  0  0  0  0  0  0  0  0
  146.7876  139.8593  152.5553 H   0  0  0  0  0  0  0  0  0  0  0  0
  146.9620  138.5891  153.7568 H   0  0  0  0  0  0  0  0  0  0  0  0
  148.0424  138.6813  152.3651 H   0  0  0  0  0  0  0  0  0  0  0  0
  148.0217  138.8271  156.3290 H   0  0  0  0  0  0  0  0  0  0  0  0
  148.1675  137.6625  155.0208 H   0  0  0  0  0  0  0  0  0  0  0  0
  150.2121  138.2309  157.2477 H   0  0  0  0  0  0  0  0  0  0  0  0
  149.2145  136.7999  157.0877 H   0  0  0  0  0  0  0  0  0  0  0  0
  151.9721  138.5954  155.6645 H   0  0  0  0  0  0  0  0  0  0  0  0
  152.2231  137.4148  154.3941 H   0  0  0  0  0  0  0  0  0  0  0  0
  150.1020  138.0436  153.2858 H   0  0  0  0  0  0  0  0  0  0  0  0
  151.1304  139.4450  153.5202 H   0  0  0  0  0  0  0  0  0  0  0  0
  149.8480  140.0195  155.4323 H   0  0  0  0  0  0  0  0  0  0  0  0
  1  2  1  0  0  0  0
  1 22  1  0  0  0  0
  1 23  1  0  0  0  0
  1 24  1  0  0  0  0
  2 21  1  0  0  0  0
  2  3  2  0  0  0  0
  3  4  1  0  0  0  0
  3 25  1  0  0  0  0
  4  5  2  0  0  0  0
  4 26  1  0  0  0  0
  5  6  1  0  0  0  0
  5 27  1  0  0  0  0
  6  7  1  0  0  0  0
  6 21  2  0  0  0  0
  7  8  1  0  0  0  0
  7 28  1  0  0  0  0
  8  9  2  0  0  0  0
  8 10  1  0  0  0  0
 10 11  1  0  0  0  0
 10 29  1  0  0  0  0
 11 12  1  0  0  0  0
 11 13  1  0  0  0  0
 11 30  1  0  0  0  0
 12 31  1  0  0  0  0
 12 32  1  0  0  0  0
 12 33  1  0  0  0  0
 13 14  1  0  0  0  0
 13 15  1  0  0  0  0
 13 34  1  0  0  0  0
 14 35  1  0  0  0  0
 14 36  1  0  0  0  0
 14 37  1  0  0  0  0
 15 20  1  0  0  0  0
 15 16  1  0  0  0  0
 15 46  1  0  0  0  0
 16 17  1  0  0  0  0
 16 38  1  0  0  0  0
 16 39  1  0  0  0  0
 17 18  1  0  0  0  0
 17 40  1  0  0  0  0
 17 41  1  0  0  0  0
 18 19  1  0  0  0  0
 19 20  1  0  0  0  0
 19 42  1  0  0  0  0
 19 43  1  0  0  0  0
 20 44  1  0  0  0  0
 20 45  1  0  0  0  0
M  CHG  1  15   1
M  END
> <s_m_source_file>
AV-unprocessed.smi

> <i_m_source_file_index>
2390

> <i_lp_mmshare_version>
43012

> <i_f3d_flags>
0

> <s_epik_input>
W0NIM11jMVtjSF1bY0hdW2NIXWMobjEpW05IXUMoPU8pW05IXVtDQEhdKFtDSDNdKVtDQEhdKFtDSDNdKU4yW0NIMl1bQ0gyXU9bQ0gyXVtDSDJdMg==

> <s_epik_cmdline>
J2VwaWtfcHl0aG9uJywgJy1waCcsICc3LjAnLCAnLXRuJywgJzgnLCAnLW1hJywgJzIwMCcsICctbWV0YWxfYmluZGluZycsICctaW1hZScsICc8aW5maWxlLm1hZT4nLCAnLW9tYWUnLCAnPG91dGZpbGUubWFlPic=

> <r_epik_Ionization_Penalty>
0.60259

> <r_epik_Ionization_Penalty_Charging>
0.602531

> <r_epik_Ionization_Penalty_Neutral>
5.9516e-05

> <r_epik_State_Penalty>
0.617039

> <r_epik_Charging_Adjusted_Penalty>
1.21957

> <i_epik_Tot_Q>
1

> <i_epik_Tot_abs_Q>
1

> <r_epik_Metal_State_Penalty>
0.617047

> <b_epik_Metal_Only>
0

> <s_lp_Force_Field>
OPLS_2005

> <r_lp_Energy>
24.4942

> <b_lp_Chiralities_Consistent>
1

> <s_lp_Variant>
AV-unprocessed.smi:2390-6

> <Gold.Version>
5.8.1

> <Gold.Id.Protein>
6NUR|6NUR_protein|mol2

> <Gold.PLP.Fitness>
40.4245

> <Gold.PLP.PLP>
-35.7845

> <Gold.PLP.part.hbond>
-2.0000

> <Gold.PLP.part.metal>
0.0000

> <Gold.PLP.part.buried>
-4.9826

> <Gold.PLP.part.nonpolar>
-29.3675

> <Gold.PLP.part.repulsive>
0.3512

> <Gold.PLP.ligand.clash>
0.0000

> <Gold.PLP.ligand.torsion>
0.6794

> <Gold.PLP.Chemscore.Hbond>
1.9600

> <Gold.PLP.Chemscore.CHOScore>
0.0000

> <Gold.PLP.Chemscore.Metal>
0.0000

> <Gold.Chemscore.Hbonds>
donor molecule, donor type, donor heavy atom, donor atom, acceptor molecule, acceptor atom, score
      L1  H     7    28       P1  8028  0.94
      L1  H    10    29       P1  8028  0.85

> <Gold.PLP.Chemscore.Internal.Correction>
0.1187

> <Gold.Rescore>
     Score         DG    S(hbond)    S(metal)    S(lipo)     H(rot)  DE(clash)    DE(int)     intcor
     16.94     -19.55       1.92        0.00      97.88       1.48       0.52       2.09       ----

> <Gold.Chemscore.Fitness>
16.9362

> <Gold.Chemscore.DG>
-19.5493

> <Gold.Chemscore.ZeroCoef>
-5.4800

> <Gold.Chemscore.Hbond>
1.9212

> <Gold.Chemscore.Metal>
0.0000

> <Gold.Chemscore.Lipo>
97.8839

> <Gold.Chemscore.Internal_Hbond>
0.0000

> <Gold.Chemscore.DEClash>
0.5244

> <Gold.Chemscore.DEInternal>
2.0887

> <Gold.Chemscore.Rot>
1.4844

> <Gold.Chemscore.Internal.Correction>
   9.000000E+99

> <Gold.Chemscore.Hbonds>
donor molecule, donor type, donor heavy atom, donor atom, acceptor molecule, acceptor atom, score
      L1  H     7    28       P1  8028  0.90
      L1  H    10    29       P1  8028  0.83

> <Gold.Chemscore.Hbond.Weighted>
-6.4169

> <Gold.Chemscore.Metal.Weighted>
-0.0000

> <Gold.Chemscore.Lipo.Weighted>
-11.4524

> <Gold.Chemscore.Internal_Hbond.Weighted>
0.0000

> <Gold.Chemscore.DEClash.Weighted>
0.5244

> <Gold.Chemscore.DEInternal.Weighted>
2.0887

> <Gold.Chemscore.Rot.Weighted>
3.8000

> <Gold.Chemscore.Internal.Correction.Weighted>
   9.000000E+99

> <Gold.Protein.RotatedTorsions>
[ 6907 6896 6895 6894 ] final  -25.17 input  -60.11 | X-H torsion
[ 7974 7965 7964 7962 ] final    1.48 input  175.53 | X-H torsion
[ 8008 7997 7996 7995 ] final  153.58 input   59.86 | X-H torsion
[ 10167 10162 10161 10158 ] final -145.60 input  -65.29 | X-H torsion
[ 10718 10713 10712 10709 ] final  157.55 input   66.30 | X-H torsion
[ 10763 10752 10751 10750 ] final   81.23 input  -60.55 | X-H torsion
[ 11005 11000 10999 10996 ] final    6.23 input  -57.11 | X-H torsion

> <Gold.Protein.ActiveResidues>
 VAL166  LYS551  ARG553  GLY616  TRP617  ASP618  TYR619  PRO620  LYS621  CYS622 
 ASP623  PHE694  ASN695  SER759  ASP760  ASP761  ALA762  ILE779  LEU786  VAL792 
 PHE793  MET794  SER795  GLU796  ALA797  LYS798  CYS799  TRP800  GLU811  SER814 

> <Gold.Protein.RotatedAtoms>
  151.1791  135.0352  159.8784 H   0  0  0  0  0  0  0  0  0  0  0  0  # atno 6907 bound_to 6896
  152.5445  134.1084  159.8358 H   0  0  0  0  0  0  0  0  0  0  0  0  # atno 6908 bound_to 6896
  151.1199  133.5065  159.2635 H   0  0  0  0  0  0  0  0  0  0  0  0  # atno 6909 bound_to 6896
  146.2440  140.0980  142.8349 H   0  0  0  0  0  0  0  0  0  0  0  0  # atno 7974 bound_to 7965
  156.2574  140.1990  156.6513 H   0  0  0  0  0  0  0  0  0  0  0  0  # atno 8008 bound_to 7997
  154.6535  140.0569  157.0007 H   0  0  0  0  0  0  0  0  0  0  0  0  # atno 8009 bound_to 7997
  155.1383  140.3240  155.4461 H   0  0  0  0  0  0  0  0  0  0  0  0  # atno 8010 bound_to 7997
  139.7790  143.8128  152.2636 H   0  0  0  0  0  0  0  0  0  0  0  0  # atno 10167 bound_to 10162
  157.1899  131.0652  151.2085 H   0  0  0  0  0  0  0  0  0  0  0  0  # atno 10718 bound_to 10713
  153.1099  135.4773  154.9017 H   0  0  0  0  0  0  0  0  0  0  0  0  # atno 10763 bound_to 10752
  154.7470  135.3096  154.8630 H   0  0  0  0  0  0  0  0  0  0  0  0  # atno 10764 bound_to 10752
  153.9222  135.6854  153.4801 H   0  0  0  0  0  0  0  0  0  0  0  0  # atno 10765 bound_to 10752
  140.5618  134.0185  155.7974 H   0  0  0  0  0  0  0  0  0  0  0  0  # atno 11005 bound_to 11000
  145.0593  140.9076  143.4948 LP  0  0  0  0  0  0  0  0  0  0  0  0  # atno 17320 bound_to 7965
  145.1092  139.2768  143.5646 LP  0  0  0  0  0  0  0  0  0  0  0  0  # atno 17321 bound_to 7965
  139.8185  144.7306  150.9604 LP  0  0  0  0  0  0  0  0  0  0  0  0  # atno 17342 bound_to 10162
  140.7817  143.4182  151.0884 LP  0  0  0  0  0  0  0  0  0  0  0  0  # atno 17343 bound_to 10162
  157.3871  130.7262  149.6671 LP  0  0  0  0  0  0  0  0  0  0  0  0  # atno 17370 bound_to 10713
  155.9713  130.4156  150.4192 LP  0  0  0  0  0  0  0  0  0  0  0  0  # atno 17371 bound_to 10713
  141.1110  133.9617  157.2910 LP  0  0  0  0  0  0  0  0  0  0  0  0  # atno 17394 bound_to 11000
  139.9404  135.0191  156.8690 LP  0  0  0  0  0  0  0  0  0  0  0  0  # atno 17395 bound_to 11000

$$$$
