AV-unprocessed.smi:1487|AV-procd|sdf|6014|dock7
  -GOLD-   22720 6113D 1   1.00000     0.00000
 Structure written by MMmdl.
 48 50  0  0  0  0  0  0  0  0  2 V2000
  153.7493  142.8679  163.6115 C   0  0  0  0  0  0  0  0  0  0  0  0
  153.1448  142.8830  162.2186 C   0  0  0  0  0  0  0  0  0  0  0  0
  152.3119  143.9611  161.8430 C   0  0  0  0  0  0  0  0  0  0  0  0
  151.7293  144.0124  160.5578 C   0  0  0  0  0  0  0  0  0  0  0  0
  150.8966  144.9584  159.9847 N   0  0  0  0  0  0  0  0  0  0  0  0
  150.6972  144.4431  158.7753 C   0  0  0  0  0  0  0  0  0  0  0  0
  151.3075  143.2760  158.4939 N   0  0  0  0  0  0  0  0  0  0  0  0
  151.2398  142.5318  157.2486 C   0  0  0  0  0  0  0  0  0  0  0  0
  149.9358  141.7225  157.1128 C   0  0  1  0  0  0  0  0  0  0  0  0
  148.8302  142.6053  157.1240 O   0  0  0  0  0  0  0  0  0  0  0  0
  149.9037  140.9148  155.8002 C   0  0  0  0  0  0  0  0  0  0  0  0
  150.5060  139.5647  155.9460 N   0  3  2  0  0  0  0  0  0  0  0  0
  151.4703  139.4710  157.0753 C   0  0  0  0  0  0  0  0  0  0  0  0
  151.9663  138.0276  157.2659 C   0  0  0  0  0  0  0  0  0  0  0  0
  152.5912  137.4869  155.9734 C   0  0  0  0  0  0  0  0  0  0  0  0
  151.5895  137.6191  154.8172 C   0  0  2  0  0  0  0  0  0  0  0  0
  152.2037  137.2130  153.6131 O   0  0  0  0  0  0  0  0  0  0  0  0
  151.1008  139.0726  154.6763 C   0  0  0  0  0  0  0  0  0  0  0  0
  152.0052  142.9471  159.6513 C   0  0  0  0  0  0  0  0  0  0  0  0
  152.8335  141.8699  160.0128 C   0  0  0  0  0  0  0  0  0  0  0  0
  153.4065  141.8339  161.3011 C   0  0  0  0  0  0  0  0  0  0  0  0
  154.2996  140.6663  161.6818 C   0  0  0  0  0  0  0  0  0  0  0  0
  153.4986  143.7739  164.1642 H   0  0  0  0  0  0  0  0  0  0  0  0
  154.8361  142.8007  163.5579 H   0  0  0  0  0  0  0  0  0  0  0  0
  153.3763  142.0151  164.1790 H   0  0  0  0  0  0  0  0  0  0  0  0
  152.1129  144.7604  162.5416 H   0  0  0  0  0  0  0  0  0  0  0  0
  150.0734  144.9448  158.0500 H   0  0  0  0  0  0  0  0  0  0  0  0
  151.3459  143.2311  156.4184 H   0  0  0  0  0  0  0  0  0  0  0  0
  152.1018  141.8649  157.2040 H   0  0  0  0  0  0  0  0  0  0  0  0
  149.8498  141.0592  157.9732 H   0  0  0  0  0  0  0  0  0  0  0  0
  149.0983  143.4279  156.7416 H   0  0  0  0  0  0  0  0  0  0  0  0
  148.8644  140.8253  155.4791 H   0  0  0  0  0  0  0  0  0  0  0  0
  150.4190  141.4544  155.0043 H   0  0  0  0  0  0  0  0  0  0  0  0
  152.3166  140.1334  156.8872 H   0  0  0  0  0  0  0  0  0  0  0  0
  151.0063  139.8098  158.0008 H   0  0  0  0  0  0  0  0  0  0  0  0
  152.6958  137.9876  158.0756 H   0  0  0  0  0  0  0  0  0  0  0  0
  151.1342  137.3900  157.5671 H   0  0  0  0  0  0  0  0  0  0  0  0
  153.5010  138.0452  155.7467 H   0  0  0  0  0  0  0  0  0  0  0  0
  152.8865  136.4454  156.1062 H   0  0  0  0  0  0  0  0  0  0  0  0
  150.7356  136.9647  154.9983 H   0  0  0  0  0  0  0  0  0  0  0  0
  151.5368  136.8882  153.0269 H   0  0  0  0  0  0  0  0  0  0  0  0
  150.3575  139.1250  153.8795 H   0  0  0  0  0  0  0  0  0  0  0  0
  151.9250  139.7270  154.3865 H   0  0  0  0  0  0  0  0  0  0  0  0
  153.0274  141.0782  159.3042 H   0  0  0  0  0  0  0  0  0  0  0  0
  154.3622  139.9336  160.8765 H   0  0  0  0  0  0  0  0  0  0  0  0
  153.9120  140.1590  162.5657 H   0  0  0  0  0  0  0  0  0  0  0  0
  155.3102  141.0144  161.8967 H   0  0  0  0  0  0  0  0  0  0  0  0
  149.7405  138.9393  156.1552 H   0  0  0  0  0  0  0  0  0  0  0  0
  1  2  1  0  0  0  0
  1 23  1  0  0  0  0
  1 24  1  0  0  0  0
  1 25  1  0  0  0  0
  2 21  1  0  0  0  0
  2  3  2  0  0  0  0
  3  4  1  0  0  0  0
  3 26  1  0  0  0  0
  4 19  2  0  0  0  0
  4  5  1  0  0  0  0
  5  6  2  0  0  0  0
  6  7  1  0  0  0  0
  6 27  1  0  0  0  0
  7  8  1  0  0  0  0
  7 19  1  0  0  0  0
  8  9  1  0  0  0  0
  8 28  1  0  0  0  0
  8 29  1  0  0  0  0
  9 10  1  0  0  0  0
  9 11  1  0  0  0  0
  9 30  1  0  0  0  0
 10 31  1  0  0  0  0
 11 12  1  0  0  0  0
 11 32  1  0  0  0  0
 11 33  1  0  0  0  0
 12 18  1  0  0  0  0
 12 13  1  0  0  0  0
 12 48  1  0  0  0  0
 13 14  1  0  0  0  0
 13 34  1  0  0  0  0
 13 35  1  0  0  0  0
 14 15  1  0  0  0  0
 14 36  1  0  0  0  0
 14 37  1  0  0  0  0
 15 16  1  0  0  0  0
 15 38  1  0  0  0  0
 15 39  1  0  0  0  0
 16 17  1  0  0  0  0
 16 18  1  0  0  0  0
 16 40  1  0  0  0  0
 17 41  1  0  0  0  0
 18 42  1  0  0  0  0
 18 43  1  0  0  0  0
 19 20  1  0  0  0  0
 20 21  2  0  0  0  0
 20 44  1  0  0  0  0
 21 22  1  0  0  0  0
 22 45  1  0  0  0  0
 22 46  1  0  0  0  0
 22 47  1  0  0  0  0
M  CHG  1  12   1
M  END
> <s_m_source_file>
AV-unprocessed.smi

> <i_m_source_file_index>
1487

> <i_lp_mmshare_version>
43012

> <i_f3d_flags>
0

> <s_epik_input>
W0NIM11jKFtjSF0xKWMoW0NIM10pW2NIXWMoYzEyKW4oW2NIXW4yKVtDSDJdW0NASF0oW09IXSlbQ0gyXU4zW0NIMl1bQ0gyXVtDSDJdW0NAQEhdKFtPSF0pW0NIMl0z

> <s_epik_cmdline>
J2VwaWtfcHl0aG9uJywgJy1waCcsICc3LjAnLCAnLXRuJywgJzgnLCAnLW1hJywgJzIwMCcsICctbWV0YWxfYmluZGluZycsICctaW1hZScsICc8aW5maWxlLm1hZT4nLCAnLW9tYWUnLCAnPG91dGZpbGUubWFlPic=

> <r_epik_Ionization_Penalty>
0.0940186

> <r_epik_Ionization_Penalty_Charging>
0.00679686

> <r_epik_Ionization_Penalty_Neutral>
0.0872218

> <r_epik_State_Penalty>
0.0799311

> <r_epik_Charging_Adjusted_Penalty>
0.086728

> <i_epik_Tot_Q>
1

> <i_epik_Tot_abs_Q>
1

> <r_epik_Metal_State_Penalty>
7.95545e-05

> <b_epik_Metal_Only>
0

> <s_lp_Force_Field>
OPLS_2005

> <r_lp_Energy>
21.0759

> <b_lp_Chiralities_Consistent>
1

> <s_lp_Variant>
AV-unprocessed.smi:1487-8

> <Gold.Version>
5.8.1

> <Gold.Id.Protein>
6NUR|6NUR_protein|mol2

> <Gold.PLP.Fitness>
59.5487

> <Gold.PLP.PLP>
-50.6329

> <Gold.PLP.part.hbond>
-3.0000

> <Gold.PLP.part.metal>
0.0000

> <Gold.PLP.part.buried>
-4.6178

> <Gold.PLP.part.nonpolar>
-43.4092

> <Gold.PLP.part.repulsive>
0.2145

> <Gold.PLP.ligand.clash>
0.9083

> <Gold.PLP.ligand.torsion>
1.0519

> <Gold.PLP.Chemscore.Hbond>
2.9280

> <Gold.PLP.Chemscore.CHOScore>
1.0238

> <Gold.PLP.Chemscore.Metal>
0.0000

> <Gold.Chemscore.Hbonds>
donor molecule, donor type, donor heavy atom, donor atom, acceptor molecule, acceptor atom, score
      L1  H    10    31       P1  8028  1.00
      L1  H    17    41       P1  7949  0.93
      P1  H 10752 10763       L1    17  1.00
      L1  C     6    27       P1  8028  0.31
      L1  C     6    27       P1  8029  0.71

> <Gold.PLP.Chemscore.Internal.Correction>
0.0723

> <Gold.Rescore>
     Score         DG    S(hbond)    S(metal)    S(lipo)     H(rot)  DE(clash)    DE(int)     intcor
     21.89     -23.26       2.51        0.00     138.77       2.67       0.26       1.10       ----

> <Gold.Chemscore.Fitness>
21.8945

> <Gold.Chemscore.DG>
-23.2598

> <Gold.Chemscore.ZeroCoef>
-5.4800

> <Gold.Chemscore.Hbond>
2.5095

> <Gold.Chemscore.Metal>
0.0000

> <Gold.Chemscore.Lipo>
138.7738

> <Gold.Chemscore.Internal_Hbond>
0.0000

> <Gold.Chemscore.DEClash>
0.2610

> <Gold.Chemscore.DEInternal>
1.1042

> <Gold.Chemscore.Rot>
2.6712

> <Gold.Chemscore.Internal.Correction>
   9.000000E+99

> <Gold.Chemscore.Hbonds>
donor molecule, donor type, donor heavy atom, donor atom, acceptor molecule, acceptor atom, score
      L1  H    10    31       P1  8028  0.89
      L1  H    17    41       P1  7949  0.85
      P1  H 10752 10763       L1    17  0.15

> <Gold.Chemscore.Hbond.Weighted>
-8.3816

> <Gold.Chemscore.Metal.Weighted>
-0.0000

> <Gold.Chemscore.Lipo.Weighted>
-16.2365

> <Gold.Chemscore.Internal_Hbond.Weighted>
0.0000

> <Gold.Chemscore.DEClash.Weighted>
0.2610

> <Gold.Chemscore.DEInternal.Weighted>
1.1042

> <Gold.Chemscore.Rot.Weighted>
6.8383

> <Gold.Chemscore.Internal.Correction.Weighted>
   9.000000E+99

> <Gold.Protein.RotatedTorsions>
[ 6907 6896 6895 6894 ] final  -51.64 input  -60.11 | X-H torsion
[ 7974 7965 7964 7962 ] final  -78.47 input  175.53 | X-H torsion
[ 8008 7997 7996 7995 ] final  138.62 input   59.86 | X-H torsion
[ 10167 10162 10161 10158 ] final  -54.64 input  -65.29 | X-H torsion
[ 10718 10713 10712 10709 ] final  150.24 input   66.30 | X-H torsion
[ 10763 10752 10751 10750 ] final   21.54 input  -60.55 | X-H torsion
[ 11005 11000 10999 10996 ] final  129.53 input  -57.11 | X-H torsion

> <Gold.Protein.ActiveResidues>
 VAL166  LYS551  ARG553  GLY616  TRP617  ASP618  TYR619  PRO620  LYS621  CYS622 
 ASP623  PHE694  ASN695  SER759  ASP760  ASP761  ALA762  ILE779  LEU786  VAL792 
 PHE793  MET794  SER795  GLU796  ALA797  LYS798  CYS799  TRP800  GLU811  SER814 

> <Gold.Protein.RotatedAtoms>
  150.8592  134.7940  159.7069 H   0  0  0  0  0  0  0  0  0  0  0  0  # atno 6907 bound_to 6896
  152.4634  134.5127  159.9768 H   0  0  0  0  0  0  0  0  0  0  0  0  # atno 6908 bound_to 6896
  151.5234  133.3424  159.2941 H   0  0  0  0  0  0  0  0  0  0  0  0  # atno 6909 bound_to 6896
  145.5860  140.9439  143.1318 H   0  0  0  0  0  0  0  0  0  0  0  0  # atno 7974 bound_to 7965
  156.2996  140.2389  156.4103 H   0  0  0  0  0  0  0  0  0  0  0  0  # atno 8008 bound_to 7997
  154.8447  140.0427  157.1585 H   0  0  0  0  0  0  0  0  0  0  0  0  # atno 8009 bound_to 7997
  154.9064  140.2984  155.5293 H   0  0  0  0  0  0  0  0  0  0  0  0  # atno 8010 bound_to 7997
  140.6419  143.2513  151.4965 H   0  0  0  0  0  0  0  0  0  0  0  0  # atno 10167 bound_to 10162
  157.2860  131.0844  151.1497 H   0  0  0  0  0  0  0  0  0  0  0  0  # atno 10718 bound_to 10713
  153.0987  135.6666  153.9714 H   0  0  0  0  0  0  0  0  0  0  0  0  # atno 10763 bound_to 10752
  153.9291  135.3006  155.3447 H   0  0  0  0  0  0  0  0  0  0  0  0  # atno 10764 bound_to 10752
  154.7407  135.5081  153.9192 H   0  0  0  0  0  0  0  0  0  0  0  0  # atno 10765 bound_to 10752
  139.9621  134.9600  156.9162 H   0  0  0  0  0  0  0  0  0  0  0  0  # atno 11005 bound_to 11000
  144.7372  139.7551  143.7324 LP  0  0  0  0  0  0  0  0  0  0  0  0  # atno 17320 bound_to 7965
  146.1681  139.4821  142.9945 LP  0  0  0  0  0  0  0  0  0  0  0  0  # atno 17321 bound_to 7965
  139.5629  144.2113  152.1719 LP  0  0  0  0  0  0  0  0  0  0  0  0  # atno 17342 bound_to 10162
  140.1386  144.5223  150.6758 LP  0  0  0  0  0  0  0  0  0  0  0  0  # atno 17343 bound_to 10162
  157.2912  130.6797  149.6115 LP  0  0  0  0  0  0  0  0  0  0  0  0  # atno 17370 bound_to 10713
  155.9665  130.4420  150.5364 LP  0  0  0  0  0  0  0  0  0  0  0  0  # atno 17371 bound_to 10713
  140.5478  134.0657  155.7360 LP  0  0  0  0  0  0  0  0  0  0  0  0  # atno 17394 bound_to 11000
  141.1298  133.9321  157.2559 LP  0  0  0  0  0  0  0  0  0  0  0  0  # atno 17395 bound_to 11000

$$$$
