AV-unprocessed.smi:821|AV-procd|sdf|3840|dock1
  -GOLD-   22720 1283D 1   1.00000     0.00000
 Structure written by MMmdl.
 45 46  0  0  0  0  0  0  0  0  2 V2000
  146.8814  142.3428  154.5113 C   0  0  0  0  0  0  0  0  0  0  0  0
  147.5949  141.0365  154.1375 C   0  0  2  0  0  0  0  0  0  0  0  0
  146.8923  139.8066  154.7584 C   0  0  0  0  0  0  0  0  0  0  0  0
  145.9891  139.0988  153.8133 N   0  3  0  0  0  0  0  0  0  0  0  0
  146.6873  138.6357  152.5907 C   0  0  0  0  0  0  0  0  0  0  0  0
  145.6959  137.9665  151.6220 C   0  0  0  0  0  0  0  0  0  0  0  0
  145.0160  136.9048  152.2805 O   0  0  0  0  0  0  0  0  0  0  0  0
  144.2762  137.3596  153.4068 C   0  0  0  0  0  0  0  0  0  0  0  0
  145.2392  137.9792  154.4321 C   0  0  0  0  0  0  0  0  0  0  0  0
  148.9918  141.1064  154.5667 N   0  0  0  0  0  0  0  0  0  0  0  0
  149.4203  141.2263  155.8332 C   0  0  0  0  0  0  0  0  0  0  0  0
  148.6697  141.2171  156.8088 O   0  0  0  0  0  0  0  0  0  0  0  0
  150.9324  141.4039  156.0229 C   0  0  0  0  0  0  0  0  0  0  0  0
  151.2732  141.9003  157.3678 N   0  0  0  0  0  0  0  0  0  0  0  0
  150.6448  143.0842  157.7927 C   0  0  0  0  0  0  0  0  0  0  0  0
  150.8957  143.6238  158.9931 C   0  0  0  0  0  0  0  0  0  0  0  0
  151.8401  142.9586  159.8573 C   0  0  0  0  0  0  0  0  0  0  0  0
  152.4638  141.8204  159.4751 C   0  0  0  0  0  0  0  0  0  0  0  0
  153.4660  141.1036  160.3772 C   0  0  0  0  0  0  0  0  0  0  0  0
  153.1729  139.8062  160.4739 F   0  0  0  0  0  0  0  0  0  0  0  0
  154.6988  141.2151  159.8812 F   0  0  0  0  0  0  0  0  0  0  0  0
  153.4745  141.6117  161.6103 F   0  0  0  0  0  0  0  0  0  0  0  0
  152.1752  141.2307  158.1521 C   0  0  0  0  0  0  0  0  0  0  0  0
  152.7178  140.1963  157.7579 O   0  0  0  0  0  0  0  0  0  0  0  0
  145.8415  142.3279  154.1841 H   0  0  0  0  0  0  0  0  0  0  0  0
  147.3615  143.2010  154.0400 H   0  0  0  0  0  0  0  0  0  0  0  0
  146.8884  142.5083  155.5893 H   0  0  0  0  0  0  0  0  0  0  0  0
  147.5462  140.9535  153.0510 H   0  0  0  0  0  0  0  0  0  0  0  0
  147.6644  139.1081  155.0851 H   0  0  0  0  0  0  0  0  0  0  0  0
  146.3398  140.0901  155.6555 H   0  0  0  0  0  0  0  0  0  0  0  0
  147.1679  139.4799  152.0947 H   0  0  0  0  0  0  0  0  0  0  0  0
  147.4752  137.9323  152.8645 H   0  0  0  0  0  0  0  0  0  0  0  0
  144.9768  138.6895  151.2370 H   0  0  0  0  0  0  0  0  0  0  0  0
  146.2281  137.5632  150.7605 H   0  0  0  0  0  0  0  0  0  0  0  0
  143.5186  138.0817  153.0978 H   0  0  0  0  0  0  0  0  0  0  0  0
  143.7495  136.5137  153.8485 H   0  0  0  0  0  0  0  0  0  0  0  0
  145.9378  137.2230  154.7934 H   0  0  0  0  0  0  0  0  0  0  0  0
  144.6731  138.3256  155.2954 H   0  0  0  0  0  0  0  0  0  0  0  0
  149.6886  141.1056  153.8354 H   0  0  0  0  0  0  0  0  0  0  0  0
  151.4133  140.4461  155.8204 H   0  0  0  0  0  0  0  0  0  0  0  0
  151.3269  142.0899  155.2703 H   0  0  0  0  0  0  0  0  0  0  0  0
  149.9569  143.5247  157.0857 H   0  0  0  0  0  0  0  0  0  0  0  0
  150.4067  144.5355  159.3040 H   0  0  0  0  0  0  0  0  0  0  0  0
  152.0447  143.3936  160.8241 H   0  0  0  0  0  0  0  0  0  0  0  0
  145.3059  139.7777  153.5078 H   0  0  0  0  0  0  0  0  0  0  0  0
  1  2  1  0  0  0  0
  1 25  1  0  0  0  0
  1 26  1  0  0  0  0
  1 27  1  0  0  0  0
  2  3  1  0  0  0  0
  2 10  1  0  0  0  0
  2 28  1  0  0  0  0
  3  4  1  0  0  0  0
  3 29  1  0  0  0  0
  3 30  1  0  0  0  0
  4  9  1  0  0  0  0
  4  5  1  0  0  0  0
  4 45  1  0  0  0  0
  5  6  1  0  0  0  0
  5 31  1  0  0  0  0
  5 32  1  0  0  0  0
  6  7  1  0  0  0  0
  6 33  1  0  0  0  0
  6 34  1  0  0  0  0
  7  8  1  0  0  0  0
  8  9  1  0  0  0  0
  8 35  1  0  0  0  0
  8 36  1  0  0  0  0
  9 37  1  0  0  0  0
  9 38  1  0  0  0  0
 10 11  1  0  0  0  0
 10 39  1  0  0  0  0
 11 12  2  0  0  0  0
 11 13  1  0  0  0  0
 13 14  1  0  0  0  0
 13 40  1  0  0  0  0
 13 41  1  0  0  0  0
 14 23  1  0  0  0  0
 14 15  1  0  0  0  0
 15 16  2  0  0  0  0
 15 42  1  0  0  0  0
 16 17  1  0  0  0  0
 16 43  1  0  0  0  0
 17 18  2  0  0  0  0
 17 44  1  0  0  0  0
 18 19  1  0  0  0  0
 18 23  1  0  0  0  0
 19 20  1  0  0  0  0
 19 21  1  0  0  0  0
 19 22  1  0  0  0  0
 23 24  2  0  0  0  0
M  CHG  1   4   1
M  END
> <s_m_source_file>
AV-unprocessed.smi

> <i_m_source_file_index>
821

> <i_lp_mmshare_version>
43012

> <i_f3d_flags>
0

> <s_epik_input>
W0NIMl0xW0NIMl1PW0NIMl1bQ0gyXU4xW0NIMl1bQ0BASF0oW0NIM10pW05IXUMoPU8pW0NIMl1uMltjSF1bY0hdW2NIXWMoQyhGKShGKUYpYzI9Tw==

> <s_epik_cmdline>
J2VwaWtfcHl0aG9uJywgJy1waCcsICc3LjAnLCAnLXRuJywgJzgnLCAnLW1hJywgJzIwMCcsICctbWV0YWxfYmluZGluZycsICctaW1hZScsICc8aW5maWxlLm1hZT4nLCAnLW9tYWUnLCAnPG91dGZpbGUubWFlPic=

> <r_lp_tautomer_probability>
1

> <r_epik_Ionization_Penalty>
0.656654

> <r_epik_Ionization_Penalty_Charging>
0.656653

> <r_epik_Ionization_Penalty_Neutral>
9.12373e-08

> <r_epik_State_Penalty>
0.675641

> <r_epik_Charging_Adjusted_Penalty>
1.33229

> <i_epik_Tot_Q>
1

> <i_epik_Tot_abs_Q>
1

> <r_epik_Metal_State_Penalty>
0.675695

> <b_epik_Metal_Only>
0

> <s_lp_Force_Field>
OPLS_2005

> <r_lp_Energy>
29.4747

> <b_lp_Chiralities_Consistent>
1

> <s_lp_Variant>
AV-unprocessed.smi:821-3

> <Gold.Version>
5.8.1

> <Gold.Id.Protein>
6NUR|6NUR_protein|mol2

> <Gold.PLP.Fitness>
50.5497

> <Gold.PLP.PLP>
-40.4851

> <Gold.PLP.part.hbond>
-2.0000

> <Gold.PLP.part.metal>
0.0000

> <Gold.PLP.part.buried>
1.4518

> <Gold.PLP.part.nonpolar>
-39.8222

> <Gold.PLP.part.repulsive>
1.0822

> <Gold.PLP.ligand.clash>
0.0278

> <Gold.PLP.ligand.torsion>
1.0806

> <Gold.PLP.Chemscore.Hbond>
2.9425

> <Gold.PLP.Chemscore.CHOScore>
1.0000

> <Gold.PLP.Chemscore.Metal>
0.0000

> <Gold.Chemscore.Hbonds>
donor molecule, donor type, donor heavy atom, donor atom, acceptor molecule, acceptor atom, score
      L1  H     4    45       P1 10175  1.92
      P1  H  7997  8010       L1    24  0.99
      L1  C    15    42       P1  8028  1.00

> <Gold.PLP.Chemscore.Internal.Correction>
0.4261

> <Gold.Rescore>
     Score         DG    S(hbond)    S(metal)    S(lipo)     H(rot)  DE(clash)    DE(int)     intcor
     10.59     -16.86       1.86        0.00      91.63       2.17       1.70       4.57       ----

> <Gold.Chemscore.Fitness>
10.5926

> <Gold.Chemscore.DG>
-16.8577

> <Gold.Chemscore.ZeroCoef>
-5.4800

> <Gold.Chemscore.Hbond>
1.8610

> <Gold.Chemscore.Metal>
0.0000

> <Gold.Chemscore.Lipo>
91.6337

> <Gold.Chemscore.Internal_Hbond>
0.0000

> <Gold.Chemscore.DEClash>
1.6967

> <Gold.Chemscore.DEInternal>
4.5684

> <Gold.Chemscore.Rot>
2.1716

> <Gold.Chemscore.Internal.Correction>
   9.000000E+99

> <Gold.Chemscore.Hbonds>
donor molecule, donor type, donor heavy atom, donor atom, acceptor molecule, acceptor atom, score
      L1  H     4    45       P1 10175  0.90
      P1  H  7997  8010       L1    24  0.93

> <Gold.Chemscore.Hbond.Weighted>
-6.2157

> <Gold.Chemscore.Metal.Weighted>
-0.0000

> <Gold.Chemscore.Lipo.Weighted>
-10.7211

> <Gold.Chemscore.Internal_Hbond.Weighted>
0.0000

> <Gold.Chemscore.DEClash.Weighted>
1.6967

> <Gold.Chemscore.DEInternal.Weighted>
4.5684

> <Gold.Chemscore.Rot.Weighted>
5.5592

> <Gold.Chemscore.Internal.Correction.Weighted>
   9.000000E+99

> <Gold.Protein.RotatedTorsions>
[ 6907 6896 6895 6894 ] final   20.89 input  -60.11 | X-H torsion
[ 7974 7965 7964 7962 ] final   10.56 input  175.53 | X-H torsion
[ 8008 7997 7996 7995 ] final   52.51 input   59.86 | X-H torsion
[ 10167 10162 10161 10158 ] final -135.25 input  -65.29 | X-H torsion
[ 10718 10713 10712 10709 ] final -139.92 input   66.30 | X-H torsion
[ 10763 10752 10751 10750 ] final -108.42 input  -60.55 | X-H torsion
[ 11005 11000 10999 10996 ] final  139.00 input  -57.11 | X-H torsion

> <Gold.Protein.ActiveResidues>
 VAL166  LYS551  ARG553  GLY616  TRP617  ASP618  TYR619  PRO620  LYS621  CYS622 
 ASP623  PHE694  ASN695  SER759  ASP760  ASP761  ALA762  ILE779  LEU786  VAL792 
 PHE793  MET794  SER795  GLU796  ALA797  LYS798  CYS799  TRP800  GLU811  SER814 

> <Gold.Protein.RotatedAtoms>
  151.9034  135.0369  160.0508 H   0  0  0  0  0  0  0  0  0  0  0  0  # atno 6907 bound_to 6896
  152.2340  133.5076  159.5240 H   0  0  0  0  0  0  0  0  0  0  0  0  # atno 6908 bound_to 6896
  150.7033  134.1095  159.4037 H   0  0  0  0  0  0  0  0  0  0  0  0  # atno 6909 bound_to 6896
  146.2386  139.9616  142.8458 H   0  0  0  0  0  0  0  0  0  0  0  0  # atno 7974 bound_to 7965
  155.4530  140.3459  155.4303 H   0  0  0  0  0  0  0  0  0  0  0  0  # atno 8008 bound_to 7997
  156.1208  140.1486  156.9236 H   0  0  0  0  0  0  0  0  0  0  0  0  # atno 8009 bound_to 7997
  154.4822  140.0866  156.7383 H   0  0  0  0  0  0  0  0  0  0  0  0  # atno 8010 bound_to 7997
  139.8798  143.6853  152.2629 H   0  0  0  0  0  0  0  0  0  0  0  0  # atno 10167 bound_to 10162
  156.3163  130.7509  151.1597 H   0  0  0  0  0  0  0  0  0  0  0  0  # atno 10718 bound_to 10713
  154.8134  135.4638  154.0578 H   0  0  0  0  0  0  0  0  0  0  0  0  # atno 10763 bound_to 10752
  153.1991  135.6866  153.8261 H   0  0  0  0  0  0  0  0  0  0  0  0  # atno 10764 bound_to 10752
  153.7752  135.3264  155.3335 H   0  0  0  0  0  0  0  0  0  0  0  0  # atno 10765 bound_to 10752
  140.0223  134.9391  157.0499 H   0  0  0  0  0  0  0  0  0  0  0  0  # atno 11005 bound_to 11000
  145.1766  140.9747  143.4291 LP  0  0  0  0  0  0  0  0  0  0  0  0  # atno 17320 bound_to 7965
  144.9980  139.3625  143.6181 LP  0  0  0  0  0  0  0  0  0  0  0  0  # atno 17321 bound_to 7965
  139.7206  144.7603  151.0961 LP  0  0  0  0  0  0  0  0  0  0  0  0  # atno 17342 bound_to 10162
  140.7746  143.5212  150.9534 LP  0  0  0  0  0  0  0  0  0  0  0  0  # atno 17343 bound_to 10162
  157.7402  131.0520  150.5180 LP  0  0  0  0  0  0  0  0  0  0  0  0  # atno 17370 bound_to 10713
  156.5327  130.4188  149.6193 LP  0  0  0  0  0  0  0  0  0  0  0  0  # atno 17371 bound_to 10713
  140.4365  134.1725  155.7171 LP  0  0  0  0  0  0  0  0  0  0  0  0  # atno 17394 bound_to 11000
  141.1781  133.8471  157.1351 LP  0  0  0  0  0  0  0  0  0  0  0  0  # atno 17395 bound_to 11000

$$$$
