AV-unprocessed.smi:1270|AV-procd|sdf|5331|dock6
  -GOLD-   22720 4463D 1   1.00000     0.00000
 Structure written by MMmdl.
 42 43  0  0  0  0  0  0  0  0  1 V2000
  146.4789  132.8973  151.8728 C   0  0  0  0  0  0  0  0  0  0  0  0
  147.5131  133.4295  152.6936 O   0  0  0  0  0  0  0  0  0  0  0  0
  148.2226  132.5645  153.5050 C   0  0  0  0  0  0  0  0  0  0  0  0
  147.8713  131.2538  153.5125 N   0  0  0  0  0  0  0  0  0  0  0  0
  148.5580  130.4086  154.3080 C   0  0  0  0  0  0  0  0  0  0  0  0
  149.6176  130.8208  155.1364 C   0  0  0  0  0  0  0  0  0  0  0  0
  149.9838  132.1794  155.1308 C   0  0  0  0  0  0  0  0  0  0  0  0
  149.2816  133.0775  154.2902 C   0  0  0  0  0  0  0  0  0  0  0  0
  149.5530  134.4725  154.2196 N   0  0  0  0  0  0  0  0  0  0  0  0
  150.4945  135.1818  154.8649 C   0  0  0  0  0  0  0  0  0  0  0  0
  151.3322  134.7191  155.6387 O   0  0  0  0  0  0  0  0  0  0  0  0
  150.4242  136.4816  154.5442 N   0  0  0  0  0  0  0  0  0  0  0  0
  151.2954  137.5269  155.0738 C   0  0  0  0  0  0  0  0  0  0  0  0
  151.4093  137.3877  156.5990 C   0  0  0  0  0  0  0  0  0  0  0  0
  152.2766  138.5067  157.2026 C   0  0  0  0  0  0  0  0  0  0  0  0
  151.7957  139.8451  156.8041 N   0  0  0  0  0  0  0  0  0  0  0  0
  150.8565  140.7997  157.9160 S   0  0  0  0  0  0  0  0  0  0  0  0
  152.0508  141.2531  159.2393 C   0  0  0  0  0  0  0  0  0  0  0  0
  150.4523  142.0316  157.2214 O   0  0  0  0  0  0  0  0  0  0  0  0
  149.8309  139.9251  158.5048 O   0  0  0  0  0  0  0  0  0  0  0  0
  151.6272  140.0304  155.3488 C   0  0  0  0  0  0  0  0  0  0  0  0
  150.7528  138.9250  154.7317 C   0  0  0  0  0  0  0  0  0  0  0  0
  146.0219  133.7044  151.3004 H   0  0  0  0  0  0  0  0  0  0  0  0
  145.6948  132.4314  152.4715 H   0  0  0  0  0  0  0  0  0  0  0  0
  146.8683  132.1671  151.1616 H   0  0  0  0  0  0  0  0  0  0  0  0
  148.2488  129.3739  154.2894 H   0  0  0  0  0  0  0  0  0  0  0  0
  150.1342  130.1118  155.7663 H   0  0  0  0  0  0  0  0  0  0  0  0
  150.7816  132.5029  155.7809 H   0  0  0  0  0  0  0  0  0  0  0  0
  148.9917  134.9839  153.5544 H   0  0  0  0  0  0  0  0  0  0  0  0
  149.7094  136.7722  153.8933 H   0  0  0  0  0  0  0  0  0  0  0  0
  152.2918  137.4130  154.6418 H   0  0  0  0  0  0  0  0  0  0  0  0
  150.4171  137.4039  157.0488 H   0  0  0  0  0  0  0  0  0  0  0  0
  151.8417  136.4191  156.8525 H   0  0  0  0  0  0  0  0  0  0  0  0
  152.3059  138.4205  158.2883 H   0  0  0  0  0  0  0  0  0  0  0  0
  153.3054  138.3950  156.8585 H   0  0  0  0  0  0  0  0  0  0  0  0
  151.5402  141.8629  159.9841 H   0  0  0  0  0  0  0  0  0  0  0  0
  152.8729  141.8274  158.8165 H   0  0  0  0  0  0  0  0  0  0  0  0
  152.4306  140.3535  159.7205 H   0  0  0  0  0  0  0  0  0  0  0  0
  151.2042  141.0117  155.1365 H   0  0  0  0  0  0  0  0  0  0  0  0
  152.6137  140.0146  154.8839 H   0  0  0  0  0  0  0  0  0  0  0  0
  150.7157  139.0599  153.6501 H   0  0  0  0  0  0  0  0  0  0  0  0
  149.7262  139.0212  155.0837 H   0  0  0  0  0  0  0  0  0  0  0  0
  1  2  1  0  0  0  0
  1 23  1  0  0  0  0
  1 24  1  0  0  0  0
  1 25  1  0  0  0  0
  2  3  1  0  0  0  0
  3  8  1  0  0  0  0
  3  4  2  0  0  0  0
  4  5  1  0  0  0  0
  5  6  2  0  0  0  0
  5 26  1  0  0  0  0
  6  7  1  0  0  0  0
  6 27  1  0  0  0  0
  7  8  2  0  0  0  0
  7 28  1  0  0  0  0
  8  9  1  0  0  0  0
  9 10  1  0  0  0  0
  9 29  1  0  0  0  0
 10 11  2  0  0  0  0
 10 12  1  0  0  0  0
 12 13  1  0  0  0  0
 12 30  1  0  0  0  0
 13 22  1  0  0  0  0
 13 14  1  0  0  0  0
 13 31  1  0  0  0  0
 14 15  1  0  0  0  0
 14 32  1  0  0  0  0
 14 33  1  0  0  0  0
 15 16  1  0  0  0  0
 15 34  1  0  0  0  0
 15 35  1  0  0  0  0
 16 17  1  0  0  0  0
 16 21  1  0  0  0  0
 17 18  1  0  0  0  0
 17 19  2  0  0  0  0
 17 20  2  0  0  0  0
 18 36  1  0  0  0  0
 18 37  1  0  0  0  0
 18 38  1  0  0  0  0
 21 22  1  0  0  0  0
 21 39  1  0  0  0  0
 21 40  1  0  0  0  0
 22 41  1  0  0  0  0
 22 42  1  0  0  0  0
M  END
> <s_m_source_file>
AV-unprocessed.smi

> <i_m_source_file_index>
1270

> <i_lp_mmshare_version>
43012

> <i_f3d_flags>
0

> <s_epik_input>
W0NIM11PYzFuW2NIXVtjSF1bY0hdYzFbTkhdQyg9TylbTkhdW0NIXTJbQ0gyXVtDSDJdTihTKD1PKSg9TylbQ0gzXSlbQ0gyXVtDSDJdMg==

> <s_epik_cmdline>
J2VwaWtfcHl0aG9uJywgJy1waCcsICc3LjAnLCAnLXRuJywgJzgnLCAnLW1hJywgJzIwMCcsICctbWV0YWxfYmluZGluZycsICctaW1hZScsICc8aW5maWxlLm1hZT4nLCAnLW9tYWUnLCAnPG91dGZpbGUubWFlPic=

> <r_lp_tautomer_probability>
1

> <r_epik_Ionization_Penalty>
9.27336e-05

> <r_epik_Ionization_Penalty_Charging>
0

> <r_epik_Ionization_Penalty_Neutral>
9.27336e-05

> <r_epik_State_Penalty>
-0

> <r_epik_Charging_Adjusted_Penalty>
0

> <i_epik_Tot_Q>
0

> <i_epik_Tot_abs_Q>
0

> <r_epik_Metal_State_Penalty>
-0

> <b_epik_Metal_Only>
0

> <s_lp_Force_Field>
OPLS_2005

> <r_lp_Energy>
1.71558

> <b_lp_Chiralities_Consistent>
1

> <s_lp_Variant>
AV-unprocessed.smi:1270-1

> <Gold.Version>
5.8.1

> <Gold.Id.Protein>
6NUR|6NUR_protein|mol2

> <Gold.PLP.Fitness>
39.6315

> <Gold.PLP.PLP>
-32.5770

> <Gold.PLP.part.hbond>
-3.9226

> <Gold.PLP.part.metal>
0.0000

> <Gold.PLP.part.buried>
0.1043

> <Gold.PLP.part.nonpolar>
-29.6031

> <Gold.PLP.part.repulsive>
0.5688

> <Gold.PLP.ligand.clash>
0.0000

> <Gold.PLP.ligand.torsion>
1.2351

> <Gold.PLP.Chemscore.Hbond>
2.4893

> <Gold.PLP.Chemscore.CHOScore>
0.0000

> <Gold.PLP.Chemscore.Metal>
0.0000

> <Gold.Chemscore.Hbonds>
donor molecule, donor type, donor heavy atom, donor atom, acceptor molecule, acceptor atom, score
      L1  H     9    29       P1  7948  0.84
      L1  H    12    30       P1  7948  0.44
      P1  H 10752 10763       L1    11  0.71

> <Gold.PLP.Chemscore.Internal.Correction>
2.0568

> <Gold.Rescore>
     Score         DG    S(hbond)    S(metal)    S(lipo)     H(rot)  DE(clash)    DE(int)     intcor
      9.32     -14.31       1.39        0.00      64.08       1.29       0.93       4.06       ----

> <Gold.Chemscore.Fitness>
9.3222

> <Gold.Chemscore.DG>
-14.3110

> <Gold.Chemscore.ZeroCoef>
-5.4800

> <Gold.Chemscore.Hbond>
1.3873

> <Gold.Chemscore.Metal>
0.0000

> <Gold.Chemscore.Lipo>
64.0793

> <Gold.Chemscore.Internal_Hbond>
0.0000

> <Gold.Chemscore.DEClash>
0.9331

> <Gold.Chemscore.DEInternal>
4.0557

> <Gold.Chemscore.Rot>
1.2890

> <Gold.Chemscore.Internal.Correction>
   9.000000E+99

> <Gold.Chemscore.Hbonds>
donor molecule, donor type, donor heavy atom, donor atom, acceptor molecule, acceptor atom, score
      L1  H     9    29       P1  7948  0.27
      L1  H    12    30       P1  7948  0.30
      P1  H 10752 10763       L1    11  0.15

> <Gold.Chemscore.Hbond.Weighted>
-4.6336

> <Gold.Chemscore.Metal.Weighted>
-0.0000

> <Gold.Chemscore.Lipo.Weighted>
-7.4973

> <Gold.Chemscore.Internal_Hbond.Weighted>
0.0000

> <Gold.Chemscore.DEClash.Weighted>
0.9331

> <Gold.Chemscore.DEInternal.Weighted>
4.0557

> <Gold.Chemscore.Rot.Weighted>
3.2999

> <Gold.Chemscore.Internal.Correction.Weighted>
   9.000000E+99

> <Gold.Protein.RotatedTorsions>
[ 6907 6896 6895 6894 ] final  -28.99 input  -60.11 | X-H torsion
[ 7974 7965 7964 7962 ] final -178.06 input  175.53 | X-H torsion
[ 8008 7997 7996 7995 ] final   71.72 input   59.86 | X-H torsion
[ 10167 10162 10161 10158 ] final  147.42 input  -65.29 | X-H torsion
[ 10718 10713 10712 10709 ] final  -32.91 input   66.30 | X-H torsion
[ 10763 10752 10751 10750 ] final   72.05 input  -60.55 | X-H torsion
[ 11005 11000 10999 10996 ] final   93.48 input  -57.11 | X-H torsion

> <Gold.Protein.ActiveResidues>
 VAL166  LYS551  ARG553  GLY616  TRP617  ASP618  TYR619  PRO620  LYS621  CYS622 
 ASP623  PHE694  ASN695  SER759  ASP760  ASP761  ALA762  ILE779  LEU786  VAL792 
 PHE793  MET794  SER795  GLU796  ALA797  LYS798  CYS799  TRP800  GLU811  SER814 

> <Gold.Protein.RotatedAtoms>
  151.1254  135.0101  159.8557 H   0  0  0  0  0  0  0  0  0  0  0  0  # atno 6907 bound_to 6896
  152.5449  134.1673  159.8592 H   0  0  0  0  0  0  0  0  0  0  0  0  # atno 6908 bound_to 6896
  151.1735  133.4724  159.2627 H   0  0  0  0  0  0  0  0  0  0  0  0  # atno 6909 bound_to 6896
  144.7129  140.0926  143.6420 H   0  0  0  0  0  0  0  0  0  0  0  0  # atno 7974 bound_to 7965
  155.7580  140.3487  155.5184 H   0  0  0  0  0  0  0  0  0  0  0  0  # atno 8008 bound_to 7997
  155.8941  140.1023  157.1418 H   0  0  0  0  0  0  0  0  0  0  0  0  # atno 8009 bound_to 7997
  154.4036  140.1298  156.4340 H   0  0  0  0  0  0  0  0  0  0  0  0  # atno 8010 bound_to 7997
  139.4890  144.5757  151.6970 H   0  0  0  0  0  0  0  0  0  0  0  0  # atno 10167 bound_to 10162
  156.3691  130.4336  149.7560 H   0  0  0  0  0  0  0  0  0  0  0  0  # atno 10718 bound_to 10713
  153.0435  135.5114  154.7685 H   0  0  0  0  0  0  0  0  0  0  0  0  # atno 10763 bound_to 10752
  154.6604  135.2938  154.9876 H   0  0  0  0  0  0  0  0  0  0  0  0  # atno 10764 bound_to 10752
  154.0729  135.6675  153.4879 H   0  0  0  0  0  0  0  0  0  0  0  0  # atno 10765 bound_to 10752
  139.8809  134.8792  156.3724 H   0  0  0  0  0  0  0  0  0  0  0  0  # atno 11005 bound_to 11000
  145.9607  139.2798  143.1157 LP  0  0  0  0  0  0  0  0  0  0  0  0  # atno 17320 bound_to 7965
  145.9223  140.9106  143.0398 LP  0  0  0  0  0  0  0  0  0  0  0  0  # atno 17321 bound_to 7965
  140.5353  144.0666  150.6068 LP  0  0  0  0  0  0  0  0  0  0  0  0  # atno 17342 bound_to 10162
  140.3670  143.2876  152.0321 LP  0  0  0  0  0  0  0  0  0  0  0  0  # atno 17343 bound_to 10162
  156.4694  130.7989  151.3007 LP  0  0  0  0  0  0  0  0  0  0  0  0  # atno 17370 bound_to 10713
  157.7482  131.0041  150.3062 LP  0  0  0  0  0  0  0  0  0  0  0  0  # atno 17371 bound_to 10713
  140.9455  133.7486  156.0202 LP  0  0  0  0  0  0  0  0  0  0  0  0  # atno 17394 bound_to 11000
  140.8168  134.3335  157.5394 LP  0  0  0  0  0  0  0  0  0  0  0  0  # atno 17395 bound_to 11000

$$$$
