AV-unprocessed.smi:1983|AV-procd|sdf|8030|dock3
  -GOLD-   2272010223D 1   1.00000     0.00000
 Structure written by MMmdl.
 49 50  0  0  0  0  0  0  0  0  1 V2000
  146.1471  133.4204  152.6789 C   0  0  0  0  0  0  0  0  0  0  0  0
  145.3679  134.6594  152.2002 C   0  0  2  0  0  0  0  0  0  0  0  0
  144.5928  134.4277  150.8898 C   0  0  0  0  0  0  0  0  0  0  0  0
  145.3765  133.7352  149.9390 O   0  0  0  0  0  0  0  0  0  0  0  0
  146.2394  135.8230  152.0604 N   0  0  0  0  0  0  0  0  0  0  0  0
  145.8695  137.0980  152.2427 C   0  0  0  0  0  0  0  0  0  0  0  0
  144.7292  137.4507  152.5455 O   0  0  0  0  0  0  0  0  0  0  0  0
  146.8950  137.9430  152.0673 N   0  0  0  0  0  0  0  0  0  0  0  0
  146.8186  139.3879  152.2521 C   0  0  0  0  0  0  0  0  0  0  0  0
  147.6965  139.8933  153.3851 C   0  0  0  0  0  0  0  0  0  0  0  0
  147.6009  141.2205  153.8503 C   0  0  0  0  0  0  0  0  0  0  0  0
  148.4425  141.6385  154.8983 C   0  0  0  0  0  0  0  0  0  0  0  0
  149.3594  140.7163  155.4557 C   0  0  0  0  0  0  0  0  0  0  0  0
  150.2134  141.1186  156.5037 N   0  0  0  0  0  0  0  0  0  0  0  0
  151.0350  140.1002  157.1509 C   0  0  0  0  0  0  0  0  0  0  0  0
  152.1321  140.7625  158.0025 C   0  0  2  0  0  0  0  0  0  0  0  0
  152.9384  139.7310  158.7986 C   0  0  0  0  0  0  0  0  0  0  0  0
  151.5351  141.6694  158.9288 O   0  0  0  0  0  0  0  0  0  0  0  0
  150.7415  142.6985  158.3330 C   0  0  1  0  0  0  0  0  0  0  0  0
  151.6007  143.7481  157.6057 C   0  0  0  0  0  0  0  0  0  0  0  0
  149.6449  142.0812  157.4424 C   0  0  0  0  0  0  0  0  0  0  0  0
  149.4482  139.4406  155.0047 N   0  0  0  0  0  0  0  0  0  0  0  0
  148.6369  139.0440  154.0017 C   0  0  0  0  0  0  0  0  0  0  0  0
  145.4889  132.5556  152.7653 H   0  0  0  0  0  0  0  0  0  0  0  0
  146.5940  133.5893  153.6591 H   0  0  0  0  0  0  0  0  0  0  0  0
  146.9518  133.1599  151.9908 H   0  0  0  0  0  0  0  0  0  0  0  0
  144.6235  134.8967  152.9625 H   0  0  0  0  0  0  0  0  0  0  0  0
  143.6987  133.8355  151.0874 H   0  0  0  0  0  0  0  0  0  0  0  0
  144.2574  135.3738  150.4633 H   0  0  0  0  0  0  0  0  0  0  0  0
  145.3942  134.2399  149.1400 H   0  0  0  0  0  0  0  0  0  0  0  0
  147.2022  135.6367  151.8205 H   0  0  0  0  0  0  0  0  0  0  0  0
  147.7938  137.5595  151.8144 H   0  0  0  0  0  0  0  0  0  0  0  0
  147.1400  139.8685  151.3280 H   0  0  0  0  0  0  0  0  0  0  0  0
  145.7815  139.6884  152.4120 H   0  0  0  0  0  0  0  0  0  0  0  0
  146.8971  141.9116  153.4101 H   0  0  0  0  0  0  0  0  0  0  0  0
  148.3883  142.6577  155.2508 H   0  0  0  0  0  0  0  0  0  0  0  0
  150.4001  139.4701  157.7755 H   0  0  0  0  0  0  0  0  0  0  0  0
  151.4977  139.4570  156.4012 H   0  0  0  0  0  0  0  0  0  0  0  0
  152.8230  141.3013  157.3539 H   0  0  0  0  0  0  0  0  0  0  0  0
  153.4229  139.0146  158.1346 H   0  0  0  0  0  0  0  0  0  0  0  0
  152.2991  139.1736  159.4838 H   0  0  0  0  0  0  0  0  0  0  0  0
  153.7163  140.2160  159.3885 H   0  0  0  0  0  0  0  0  0  0  0  0
  150.2465  143.2141  159.1565 H   0  0  0  0  0  0  0  0  0  0  0  0
  150.9878  144.5887  157.2796 H   0  0  0  0  0  0  0  0  0  0  0  0
  152.0880  143.3423  156.7194 H   0  0  0  0  0  0  0  0  0  0  0  0
  152.3753  144.1409  158.2645 H   0  0  0  0  0  0  0  0  0  0  0  0
  149.0996  142.8751  156.9332 H   0  0  0  0  0  0  0  0  0  0  0  0
  148.9202  141.5573  158.0670 H   0  0  0  0  0  0  0  0  0  0  0  0
  148.7486  138.0193  153.6794 H   0  0  0  0  0  0  0  0  0  0  0  0
  1  2  1  0  0  0  0
  1 24  1  0  0  0  0
  1 25  1  0  0  0  0
  1 26  1  0  0  0  0
  2  3  1  0  0  0  0
  2  5  1  0  0  0  0
  2 27  1  0  0  0  0
  3  4  1  0  0  0  0
  3 28  1  0  0  0  0
  3 29  1  0  0  0  0
  4 30  1  0  0  0  0
  5  6  1  0  0  0  0
  5 31  1  0  0  0  0
  6  7  2  0  0  0  0
  6  8  1  0  0  0  0
  8  9  1  0  0  0  0
  8 32  1  0  0  0  0
  9 10  1  0  0  0  0
  9 33  1  0  0  0  0
  9 34  1  0  0  0  0
 10 23  1  0  0  0  0
 10 11  2  0  0  0  0
 11 12  1  0  0  0  0
 11 35  1  0  0  0  0
 12 13  2  0  0  0  0
 12 36  1  0  0  0  0
 13 14  1  0  0  0  0
 13 22  1  0  0  0  0
 14 21  1  0  0  0  0
 14 15  1  0  0  0  0
 15 16  1  0  0  0  0
 15 37  1  0  0  0  0
 15 38  1  0  0  0  0
 16 17  1  0  0  0  0
 16 18  1  0  0  0  0
 16 39  1  0  0  0  0
 17 40  1  0  0  0  0
 17 41  1  0  0  0  0
 17 42  1  0  0  0  0
 18 19  1  0  0  0  0
 19 20  1  0  0  0  0
 19 21  1  0  0  0  0
 19 43  1  0  0  0  0
 20 44  1  0  0  0  0
 20 45  1  0  0  0  0
 20 46  1  0  0  0  0
 21 47  1  0  0  0  0
 21 48  1  0  0  0  0
 22 23  2  0  0  0  0
 23 49  1  0  0  0  0
M  END
> <s_m_source_file>
AV-unprocessed.smi

> <i_m_source_file_index>
1983

> <i_lp_mmshare_version>
43012

> <i_f3d_flags>
0

> <s_epik_input>
W09IXVtDSDJdW0NAQEhdKFtDSDNdKVtOSF1DKD1PKVtOSF1bQ0gyXWMxW2NIXVtjSF1jKG5bY0hdMSlOMltDSDJdW0NAQEhdKFtDSDNdKU9bQ0BASF0oW0NIM10pW0NIMl0y

> <s_epik_cmdline>
J2VwaWtfcHl0aG9uJywgJy1waCcsICc3LjAnLCAnLXRuJywgJzgnLCAnLW1hJywgJzIwMCcsICctbWV0YWxfYmluZGluZycsICctaW1hZScsICc8aW5maWxlLm1hZT4nLCAnLW9tYWUnLCAnPG91dGZpbGUubWFlPic=

> <r_lp_tautomer_probability>
1

> <r_epik_Ionization_Penalty>
0.00801967

> <r_epik_Ionization_Penalty_Charging>
0

> <r_epik_Ionization_Penalty_Neutral>
0.00801967

> <r_epik_State_Penalty>
0.00598289

> <r_epik_Charging_Adjusted_Penalty>
0.00598289

> <i_epik_Tot_Q>
0

> <i_epik_Tot_abs_Q>
0

> <r_epik_Metal_State_Penalty>
0.00590297

> <b_epik_Metal_Only>
0

> <s_lp_Force_Field>
OPLS_2005

> <r_lp_Energy>
17.398

> <b_lp_Chiralities_Consistent>
1

> <s_lp_Variant>
AV-unprocessed.smi:1983-3

> <Gold.Version>
5.8.1

> <Gold.Id.Protein>
6NUR|6NUR_protein|mol2

> <Gold.PLP.Fitness>
45.3898

> <Gold.PLP.PLP>
-35.1641

> <Gold.PLP.part.hbond>
-3.0000

> <Gold.PLP.part.metal>
0.0000

> <Gold.PLP.part.buried>
-1.5298

> <Gold.PLP.part.nonpolar>
-30.7543

> <Gold.PLP.part.repulsive>
0.4937

> <Gold.PLP.ligand.clash>
0.0000

> <Gold.PLP.ligand.torsion>
1.0312

> <Gold.PLP.Chemscore.Hbond>
2.9680

> <Gold.PLP.Chemscore.CHOScore>
1.0000

> <Gold.PLP.Chemscore.Metal>
0.0000

> <Gold.Chemscore.Hbonds>
donor molecule, donor type, donor heavy atom, donor atom, acceptor molecule, acceptor atom, score
      L1  H     4    30       P1  7921  1.00
      L1  H     5    31       P1  7948  0.98
      L1  H     8    32       P1  7948  1.00
      L1  C    23    49       P1  7948  0.98

> <Gold.PLP.Chemscore.Internal.Correction>
0.3841

> <Gold.Rescore>
     Score         DG    S(hbond)    S(metal)    S(lipo)     H(rot)  DE(clash)    DE(int)     intcor
     17.47     -18.61       2.82        0.00      88.67       2.61       0.24       0.90       ----

> <Gold.Chemscore.Fitness>
17.4712

> <Gold.Chemscore.DG>
-18.6054

> <Gold.Chemscore.ZeroCoef>
-5.4800

> <Gold.Chemscore.Hbond>
2.8240

> <Gold.Chemscore.Metal>
0.0000

> <Gold.Chemscore.Lipo>
88.6674

> <Gold.Chemscore.Internal_Hbond>
0.0000

> <Gold.Chemscore.DEClash>
0.2366

> <Gold.Chemscore.DEInternal>
0.8976

> <Gold.Chemscore.Rot>
2.6097

> <Gold.Chemscore.Internal.Correction>
   9.000000E+99

> <Gold.Chemscore.Hbonds>
donor molecule, donor type, donor heavy atom, donor atom, acceptor molecule, acceptor atom, score
      L1  H     4    30       P1  7921  0.92
      L1  H     5    31       P1  7948  0.92
      L1  H     8    32       P1  7948  0.95

> <Gold.Chemscore.Hbond.Weighted>
-9.4322

> <Gold.Chemscore.Metal.Weighted>
-0.0000

> <Gold.Chemscore.Lipo.Weighted>
-10.3741

> <Gold.Chemscore.Internal_Hbond.Weighted>
0.0000

> <Gold.Chemscore.DEClash.Weighted>
0.2366

> <Gold.Chemscore.DEInternal.Weighted>
0.8976

> <Gold.Chemscore.Rot.Weighted>
6.6809

> <Gold.Chemscore.Internal.Correction.Weighted>
   9.000000E+99

> <Gold.Protein.RotatedTorsions>
[ 6907 6896 6895 6894 ] final -117.59 input  -60.11 | X-H torsion
[ 7974 7965 7964 7962 ] final -145.33 input  175.53 | X-H torsion
[ 8008 7997 7996 7995 ] final  134.08 input   59.86 | X-H torsion
[ 10167 10162 10161 10158 ] final    2.65 input  -65.29 | X-H torsion
[ 10718 10713 10712 10709 ] final -128.81 input   66.30 | X-H torsion
[ 10763 10752 10751 10750 ] final -177.13 input  -60.55 | X-H torsion
[ 11005 11000 10999 10996 ] final   19.28 input  -57.11 | X-H torsion

> <Gold.Protein.ActiveResidues>
 VAL166  LYS551  ARG553  GLY616  TRP617  ASP618  TYR619  PRO620  LYS621  CYS622 
 ASP623  PHE694  ASN695  SER759  ASP760  ASP761  ALA762  ILE779  LEU786  VAL792 
 PHE793  MET794  SER795  GLU796  ALA797  LYS798  CYS799  TRP800  GLU811  SER814 

> <Gold.Protein.RotatedAtoms>
  150.8149  133.8355  159.3164 H   0  0  0  0  0  0  0  0  0  0  0  0  # atno 6907 bound_to 6896
  151.6130  135.1037  160.0094 H   0  0  0  0  0  0  0  0  0  0  0  0  # atno 6908 bound_to 6896
  152.4241  133.7124  159.6543 H   0  0  0  0  0  0  0  0  0  0  0  0  # atno 6909 bound_to 6896
  144.8235  140.5597  143.5562 H   0  0  0  0  0  0  0  0  0  0  0  0  # atno 7974 bound_to 7965
  156.2997  140.2505  156.3359 H   0  0  0  0  0  0  0  0  0  0  0  0  # atno 8008 bound_to 7997
  154.9101  140.0403  157.1960 H   0  0  0  0  0  0  0  0  0  0  0  0  # atno 8009 bound_to 7997
  154.8414  140.2891  155.5661 H   0  0  0  0  0  0  0  0  0  0  0  0  # atno 8010 bound_to 7997
  140.6625  143.7267  150.7764 H   0  0  0  0  0  0  0  0  0  0  0  0  # atno 10167 bound_to 10162
  156.1986  130.6842  151.0512 H   0  0  0  0  0  0  0  0  0  0  0  0  # atno 10718 bound_to 10713
  154.5639  135.2822  155.0893 H   0  0  0  0  0  0  0  0  0  0  0  0  # atno 10763 bound_to 10752
  154.2291  135.6377  153.5173 H   0  0  0  0  0  0  0  0  0  0  0  0  # atno 10764 bound_to 10752
  153.0037  135.5533  154.6241 H   0  0  0  0  0  0  0  0  0  0  0  0  # atno 10765 bound_to 10752
  140.4155  134.1573  155.7669 H   0  0  0  0  0  0  0  0  0  0  0  0  # atno 11005 bound_to 11000
  145.5052  139.1481  143.3635 LP  0  0  0  0  0  0  0  0  0  0  0  0  # atno 17320 bound_to 7965
  146.2540  140.5192  142.8881 LP  0  0  0  0  0  0  0  0  0  0  0  0  # atno 17321 bound_to 7965
  140.0939  143.4852  152.2463 LP  0  0  0  0  0  0  0  0  0  0  0  0  # atno 17342 bound_to 10162
  139.5863  144.7532  151.3513 LP  0  0  0  0  0  0  0  0  0  0  0  0  # atno 17343 bound_to 10162
  157.6972  131.0789  150.6932 LP  0  0  0  0  0  0  0  0  0  0  0  0  # atno 17370 bound_to 10713
  156.6989  130.4617  149.5578 LP  0  0  0  0  0  0  0  0  0  0  0  0  # atno 17371 bound_to 10713
  141.1804  133.8425  157.1276 LP  0  0  0  0  0  0  0  0  0  0  0  0  # atno 17394 bound_to 11000
  140.0237  134.9934  157.0643 LP  0  0  0  0  0  0  0  0  0  0  0  0  # atno 17395 bound_to 11000

$$$$
