AV-unprocessed.smi:2718|AV-procd|sdf|10487|dock10
  -GOLD-   2272014533D 1   1.00000     0.00000
 Structure written by MMmdl.
 47 48  0  0  0  0  0  0  0  0  1 V2000
  152.7464  140.5642  158.6147 C   0  0  0  0  0  0  0  0  0  0  0  0
  151.9622  140.7165  157.3267 C   0  0  0  0  0  0  0  0  0  0  0  0
  151.3568  142.0929  157.1138 C   0  0  0  0  0  0  0  0  0  0  0  0
  151.8302  139.6976  156.4551 C   0  0  0  0  0  0  0  0  0  0  0  0
  151.0990  139.7165  155.1544 C   0  0  1  0  0  0  0  0  0  0  0  0
  150.6635  138.4685  154.3933 C   0  0  1  0  0  0  0  0  0  0  0  0
  150.9730  137.1034  154.9418 C   0  0  0  0  0  0  0  0  0  0  0  0
  151.8511  136.8701  155.7728 O   0  0  0  0  0  0  0  0  0  0  0  0
  150.2194  136.1310  154.4059 N   0  0  0  0  0  0  0  0  0  0  0  0
  150.3881  134.7057  154.6705 C   0  0  0  0  0  0  0  0  0  0  0  0
  149.2061  133.8714  154.1318 C   0  0  2  0  0  0  0  0  0  0  0  0
  147.8431  134.3410  154.6700 C   0  0  0  0  0  0  0  0  0  0  0  0
  149.4166  132.4048  154.3830 C   0  0  0  0  0  0  0  0  0  0  0  0
  150.4629  131.9104  155.0588 N   0  0  0  0  0  0  0  0  0  0  0  0
  150.2952  130.5404  155.0590 N   0  0  0  0  0  0  0  0  0  0  0  0
  149.1660  130.3415  154.3808 C   0  0  0  0  0  0  0  0  0  0  0  0
  148.5692  131.4557  153.9313 N   0  0  0  0  0  0  0  0  0  0  0  0
  147.3441  131.5745  153.1650 C   0  0  0  0  0  0  0  0  0  0  0  0
  149.6207  139.3736  155.0441 C   0  0  0  0  0  0  0  0  0  0  0  0
  148.8064  138.9740  156.2734 C   0  0  0  0  0  0  0  0  0  0  0  0
  148.7415  140.2001  154.1210 C   0  0  0  0  0  0  0  0  0  0  0  0
  152.1053  140.7613  159.4740 H   0  0  0  0  0  0  0  0  0  0  0  0
  153.5766  141.2707  158.6359 H   0  0  0  0  0  0  0  0  0  0  0  0
  153.1552  139.5587  158.7199 H   0  0  0  0  0  0  0  0  0  0  0  0
  152.1448  142.8447  157.0702 H   0  0  0  0  0  0  0  0  0  0  0  0
  150.6937  142.3431  157.9419 H   0  0  0  0  0  0  0  0  0  0  0  0
  150.7785  142.1575  156.1928 H   0  0  0  0  0  0  0  0  0  0  0  0
  152.2895  138.7527  156.7063 H   0  0  0  0  0  0  0  0  0  0  0  0
  151.4437  140.5473  154.5416 H   0  0  0  0  0  0  0  0  0  0  0  0
  150.7411  138.5417  153.3092 H   0  0  0  0  0  0  0  0  0  0  0  0
  149.5151  136.3915  153.7307 H   0  0  0  0  0  0  0  0  0  0  0  0
  151.3248  134.3627  154.2269 H   0  0  0  0  0  0  0  0  0  0  0  0
  150.4899  134.5641  155.7468 H   0  0  0  0  0  0  0  0  0  0  0  0
  149.1744  134.0215  153.0534 H   0  0  0  0  0  0  0  0  0  0  0  0
  147.0311  133.7576  154.2349 H   0  0  0  0  0  0  0  0  0  0  0  0
  147.6558  135.3875  154.4293 H   0  0  0  0  0  0  0  0  0  0  0  0
  147.7860  134.2343  155.7538 H   0  0  0  0  0  0  0  0  0  0  0  0
  148.7646  129.3541  154.2051 H   0  0  0  0  0  0  0  0  0  0  0  0
  146.9187  130.5874  152.9807 H   0  0  0  0  0  0  0  0  0  0  0  0
  147.5535  132.0541  152.2083 H   0  0  0  0  0  0  0  0  0  0  0  0
  146.6198  132.1736  153.7174 H   0  0  0  0  0  0  0  0  0  0  0  0
  148.0433  138.2458  155.9975 H   0  0  0  0  0  0  0  0  0  0  0  0
  148.3091  139.8469  156.6973 H   0  0  0  0  0  0  0  0  0  0  0  0
  149.4218  138.5435  157.0607 H   0  0  0  0  0  0  0  0  0  0  0  0
  147.8697  139.6236  153.8100 H   0  0  0  0  0  0  0  0  0  0  0  0
  149.2897  140.4992  153.2271 H   0  0  0  0  0  0  0  0  0  0  0  0
  148.4011  141.1039  154.6270 H   0  0  0  0  0  0  0  0  0  0  0  0
  1  2  1  0  0  0  0
  1 22  1  0  0  0  0
  1 23  1  0  0  0  0
  1 24  1  0  0  0  0
  2  3  1  0  0  0  0
  2  4  2  0  0  0  0
  3 25  1  0  0  0  0
  3 26  1  0  0  0  0
  3 27  1  0  0  0  0
  4  5  1  0  0  0  0
  4 28  1  0  0  0  0
  5 19  1  0  0  0  0
  5  6  1  0  0  0  0
  5 29  1  0  0  0  0
  6  7  1  0  0  0  0
  6 19  1  0  0  0  0
  6 30  1  0  0  0  0
  7  8  2  0  0  0  0
  7  9  1  0  0  0  0
  9 10  1  0  0  0  0
  9 31  1  0  0  0  0
 10 11  1  0  0  0  0
 10 32  1  0  0  0  0
 10 33  1  0  0  0  0
 11 12  1  0  0  0  0
 11 13  1  0  0  0  0
 11 34  1  0  0  0  0
 12 35  1  0  0  0  0
 12 36  1  0  0  0  0
 12 37  1  0  0  0  0
 13 17  1  0  0  0  0
 13 14  2  0  0  0  0
 14 15  1  0  0  0  0
 15 16  2  0  0  0  0
 16 17  1  0  0  0  0
 16 38  1  0  0  0  0
 17 18  1  0  0  0  0
 18 39  1  0  0  0  0
 18 40  1  0  0  0  0
 18 41  1  0  0  0  0
 19 20  1  0  0  0  0
 19 21  1  0  0  0  0
 20 42  1  0  0  0  0
 20 43  1  0  0  0  0
 20 44  1  0  0  0  0
 21 45  1  0  0  0  0
 21 46  1  0  0  0  0
 21 47  1  0  0  0  0
M  END
> <s_m_source_file>
AV-unprocessed.smi

> <i_m_source_file_index>
2718

> <i_lp_mmshare_version>
43012

> <i_f3d_flags>
0

> <s_epik_input>
W0NIM11DKFtDSDNdKT1bQ0hdW0NAQEhdKEMxKFtDSDNdKVtDSDNdKVtDQEhdMUMoPU8pW05IXVtDSDJdW0NASF0oW0NIM10pYzJubltjSF1uMltDSDNd

> <s_epik_cmdline>
J2VwaWtfcHl0aG9uJywgJy1waCcsICc3LjAnLCAnLXRuJywgJzgnLCAnLW1hJywgJzIwMCcsICctbWV0YWxfYmluZGluZycsICctaW1hZScsICc8aW5maWxlLm1hZT4nLCAnLW9tYWUnLCAnPG91dGZpbGUubWFlPic=

> <r_lp_tautomer_probability>
1

> <r_epik_Ionization_Penalty>
0.000449586

> <r_epik_Ionization_Penalty_Charging>
0

> <r_epik_Ionization_Penalty_Neutral>
0.000449586

> <r_epik_State_Penalty>
0.000243372

> <r_epik_Charging_Adjusted_Penalty>
0.000243372

> <i_epik_Tot_Q>
0

> <i_epik_Tot_abs_Q>
0

> <r_epik_Metal_State_Penalty>
-0

> <b_epik_Metal_Only>
0

> <s_lp_Force_Field>
OPLS_2005

> <r_lp_Energy>
16.2745

> <b_lp_Chiralities_Consistent>
1

> <s_lp_Variant>
AV-unprocessed.smi:2718-2

> <Gold.Version>
5.8.1

> <Gold.Id.Protein>
6NUR|6NUR_protein|mol2

> <Gold.PLP.Fitness>
39.0194

> <Gold.PLP.PLP>
-35.0992

> <Gold.PLP.part.hbond>
-2.9520

> <Gold.PLP.part.metal>
0.0000

> <Gold.PLP.part.buried>
-0.5509

> <Gold.PLP.part.nonpolar>
-30.1839

> <Gold.PLP.part.repulsive>
0.1155

> <Gold.PLP.ligand.clash>
0.0000

> <Gold.PLP.ligand.torsion>
1.0346

> <Gold.PLP.Chemscore.Hbond>
1.8960

> <Gold.PLP.Chemscore.CHOScore>
0.0000

> <Gold.PLP.Chemscore.Metal>
0.0000

> <Gold.Chemscore.Hbonds>
donor molecule, donor type, donor heavy atom, donor atom, acceptor molecule, acceptor atom, score
      L1  H     9    31       P1  7948  0.86
      P1  H 10752 10764       L1     8  1.00

> <Gold.PLP.Chemscore.Internal.Correction>
0.3014

> <Gold.Rescore>
     Score         DG    S(hbond)    S(metal)    S(lipo)     H(rot)  DE(clash)    DE(int)     intcor
     11.56     -13.93       1.43        0.00      74.14       1.95       0.11       2.26       ----

> <Gold.Chemscore.Fitness>
11.5593

> <Gold.Chemscore.DG>
-13.9314

> <Gold.Chemscore.ZeroCoef>
-5.4800

> <Gold.Chemscore.Hbond>
1.4303

> <Gold.Chemscore.Metal>
0.0000

> <Gold.Chemscore.Lipo>
74.1439

> <Gold.Chemscore.Internal_Hbond>
0.0000

> <Gold.Chemscore.DEClash>
0.1095

> <Gold.Chemscore.DEInternal>
2.2626

> <Gold.Chemscore.Rot>
1.9533

> <Gold.Chemscore.Internal.Correction>
   9.000000E+99

> <Gold.Chemscore.Hbonds>
donor molecule, donor type, donor heavy atom, donor atom, acceptor molecule, acceptor atom, score
      L1  H     9    31       P1  7948  0.59
      P1  H 10752 10764       L1     8  0.24

> <Gold.Chemscore.Hbond.Weighted>
-4.7771

> <Gold.Chemscore.Metal.Weighted>
-0.0000

> <Gold.Chemscore.Lipo.Weighted>
-8.6748

> <Gold.Chemscore.Internal_Hbond.Weighted>
0.0000

> <Gold.Chemscore.DEClash.Weighted>
0.1095

> <Gold.Chemscore.DEInternal.Weighted>
2.2626

> <Gold.Chemscore.Rot.Weighted>
5.0005

> <Gold.Chemscore.Internal.Correction.Weighted>
   9.000000E+99

> <Gold.Protein.RotatedTorsions>
[ 6907 6896 6895 6894 ] final  172.04 input  -60.11 | X-H torsion
[ 7974 7965 7964 7962 ] final -149.62 input  175.53 | X-H torsion
[ 8008 7997 7996 7995 ] final  -55.40 input   59.86 | X-H torsion
[ 10167 10162 10161 10158 ] final   93.56 input  -65.29 | X-H torsion
[ 10718 10713 10712 10709 ] final   -9.85 input   66.30 | X-H torsion
[ 10763 10752 10751 10750 ] final  -51.57 input  -60.55 | X-H torsion
[ 11005 11000 10999 10996 ] final  172.89 input  -57.11 | X-H torsion

> <Gold.Protein.ActiveResidues>
 VAL166  LYS551  ARG553  GLY616  TRP617  ASP618  TYR619  PRO620  LYS621  CYS622 
 ASP623  PHE694  ASN695  SER759  ASP760  ASP761  ALA762  ILE779  LEU786  VAL792 
 PHE793  MET794  SER795  GLU796  ALA797  LYS798  CYS799  TRP800  GLU811  SER814 

> <Gold.Protein.RotatedAtoms>
  151.7906  133.3359  159.3497 H   0  0  0  0  0  0  0  0  0  0  0  0  # atno 6907 bound_to 6896
  150.7393  134.5846  159.5965 H   0  0  0  0  0  0  0  0  0  0  0  0  # atno 6908 bound_to 6896
  152.3213  134.7378  160.0364 H   0  0  0  0  0  0  0  0  0  0  0  0  # atno 6909 bound_to 6896
  144.7956  140.5040  143.5742 H   0  0  0  0  0  0  0  0  0  0  0  0  # atno 7974 bound_to 7965
  154.4194  140.1154  156.5471 H   0  0  0  0  0  0  0  0  0  0  0  0  # atno 8008 bound_to 7997
  155.6448  140.3496  155.4708 H   0  0  0  0  0  0  0  0  0  0  0  0  # atno 8009 bound_to 7997
  155.9841  140.1166  157.0689 H   0  0  0  0  0  0  0  0  0  0  0  0  # atno 8010 bound_to 7997
  139.8168  144.6749  150.9569 H   0  0  0  0  0  0  0  0  0  0  0  0  # atno 10167 bound_to 10162
  156.6821  130.5040  149.5968 H   0  0  0  0  0  0  0  0  0  0  0  0  # atno 10718 bound_to 10713
  154.1287  135.6523  153.4917 H   0  0  0  0  0  0  0  0  0  0  0  0  # atno 10763 bound_to 10752
  153.0202  135.5287  154.7023 H   0  0  0  0  0  0  0  0  0  0  0  0  # atno 10764 bound_to 10752
  154.6252  135.2969  155.0251 H   0  0  0  0  0  0  0  0  0  0  0  0  # atno 10765 bound_to 10752
  140.3346  134.7328  157.4159 H   0  0  0  0  0  0  0  0  0  0  0  0  # atno 11005 bound_to 11000
  145.5681  139.1482  143.3303 LP  0  0  0  0  0  0  0  0  0  0  0  0  # atno 17320 bound_to 7965
  146.2223  140.5815  142.9011 LP  0  0  0  0  0  0  0  0  0  0  0  0  # atno 17321 bound_to 7965
  140.7815  143.4130  151.0961 LP  0  0  0  0  0  0  0  0  0  0  0  0  # atno 17342 bound_to 10162
  139.7794  143.8378  152.3135 LP  0  0  0  0  0  0  0  0  0  0  0  0  # atno 17343 bound_to 10162
  156.1860  130.6529  151.1006 LP  0  0  0  0  0  0  0  0  0  0  0  0  # atno 17370 bound_to 10713
  157.7040  131.0764  150.6729 LP  0  0  0  0  0  0  0  0  0  0  0  0  # atno 17371 bound_to 10713
  140.0832  134.5703  155.8519 LP  0  0  0  0  0  0  0  0  0  0  0  0  # atno 17394 bound_to 11000
  141.2054  133.6647  156.6181 LP  0  0  0  0  0  0  0  0  0  0  0  0  # atno 17395 bound_to 11000

$$$$
