AV-unprocessed.smi:1941|AV-procd|sdf|7847|dock4
  -GOLD-   22720 9593D 1   1.00000     0.00000
 Structure written by MMmdl.
 40 41  0  0  0  0  0  0  0  0  1 V2000
  153.0752  143.0483  161.2282 C   0  0  0  0  0  0  0  0  0  0  0  0
  152.2674  142.8531  159.9912 C   0  0  0  0  0  0  0  0  0  0  0  0
  152.2769  141.7285  159.2708 N   0  0  0  0  0  0  0  0  0  0  0  0
  151.4354  141.7964  158.1557 C   0  0  0  0  0  0  0  0  0  0  0  0
  151.3164  140.6217  157.2327 C   0  0  0  0  0  0  0  0  0  0  0  0
  149.8520  140.2930  156.8960 C   0  0  0  0  0  0  0  0  0  0  0  0
  149.4061  139.0766  157.5655 N   0  0  0  0  0  0  0  0  0  0  0  0
  150.1561  137.9791  157.7367 C   0  0  0  0  0  0  0  0  0  0  0  0
  151.3139  137.8676  157.3329 O   0  0  0  0  0  0  0  0  0  0  0  0
  149.4957  137.0272  158.4108 N   0  0  0  0  0  0  0  0  0  0  0  0
  150.0299  135.7208  158.7952 C   0  0  2  0  0  0  0  0  0  0  0  0
  149.8966  134.7436  157.6184 C   0  0  0  0  0  0  0  0  0  0  0  0
  149.3287  135.1962  160.0651 C   0  0  1  0  0  0  0  0  0  0  0  0
  149.8480  133.8531  160.6002 C   0  0  0  0  0  0  0  0  0  0  0  0
  149.7712  133.9958  162.1148 C   0  0  0  0  0  0  0  0  0  0  0  0
  149.1506  135.3744  162.3305 C   0  0  0  0  0  0  0  0  0  0  0  0
  149.5000  136.0893  161.1570 O   0  0  0  0  0  0  0  0  0  0  0  0
  150.7813  142.9980  158.0441 C   0  0  0  0  0  0  0  0  0  0  0  0
  151.2013  144.0893  159.3354 S   0  0  0  0  0  0  0  0  0  0  0  0
  153.7073  142.1796  161.4161 H   0  0  0  0  0  0  0  0  0  0  0  0
  152.4162  143.1931  162.0842 H   0  0  0  0  0  0  0  0  0  0  0  0
  153.7115  143.9270  161.1221 H   0  0  0  0  0  0  0  0  0  0  0  0
  151.8695  140.8212  156.3139 H   0  0  0  0  0  0  0  0  0  0  0  0
  151.7910  139.7479  157.6813 H   0  0  0  0  0  0  0  0  0  0  0  0
  149.2043  141.1108  157.2129 H   0  0  0  0  0  0  0  0  0  0  0  0
  149.7212  140.1938  155.8170 H   0  0  0  0  0  0  0  0  0  0  0  0
  148.4653  139.0748  157.9314 H   0  0  0  0  0  0  0  0  0  0  0  0
  148.5498  137.2256  158.7027 H   0  0  0  0  0  0  0  0  0  0  0  0
  151.0940  135.8031  159.0228 H   0  0  0  0  0  0  0  0  0  0  0  0
  150.3144  133.7683  157.8698 H   0  0  0  0  0  0  0  0  0  0  0  0
  150.4288  135.1116  156.7406 H   0  0  0  0  0  0  0  0  0  0  0  0
  148.8530  134.5960  157.3382 H   0  0  0  0  0  0  0  0  0  0  0  0
  148.2577  135.1027  159.8755 H   0  0  0  0  0  0  0  0  0  0  0  0
  149.2437  133.0229  160.2338 H   0  0  0  0  0  0  0  0  0  0  0  0
  150.8789  133.6611  160.3025 H   0  0  0  0  0  0  0  0  0  0  0  0
  149.1844  133.2056  162.5840 H   0  0  0  0  0  0  0  0  0  0  0  0
  150.7754  133.9656  162.5391 H   0  0  0  0  0  0  0  0  0  0  0  0
  148.0642  135.3044  162.4026 H   0  0  0  0  0  0  0  0  0  0  0  0
  149.5228  135.8679  163.2285 H   0  0  0  0  0  0  0  0  0  0  0  0
  150.0787  143.3049  157.2834 H   0  0  0  0  0  0  0  0  0  0  0  0
  1  2  1  0  0  0  0
  1 20  1  0  0  0  0
  1 21  1  0  0  0  0
  1 22  1  0  0  0  0
  2 19  1  0  0  0  0
  2  3  2  0  0  0  0
  3  4  1  0  0  0  0
  4  5  1  0  0  0  0
  4 18  2  0  0  0  0
  5  6  1  0  0  0  0
  5 23  1  0  0  0  0
  5 24  1  0  0  0  0
  6  7  1  0  0  0  0
  6 25  1  0  0  0  0
  6 26  1  0  0  0  0
  7  8  1  0  0  0  0
  7 27  1  0  0  0  0
  8  9  2  0  0  0  0
  8 10  1  0  0  0  0
 10 11  1  0  0  0  0
 10 28  1  0  0  0  0
 11 12  1  0  0  0  0
 11 13  1  0  0  0  0
 11 29  1  0  0  0  0
 12 30  1  0  0  0  0
 12 31  1  0  0  0  0
 12 32  1  0  0  0  0
 13 17  1  0  0  0  0
 13 14  1  0  0  0  0
 13 33  1  0  0  0  0
 14 15  1  0  0  0  0
 14 34  1  0  0  0  0
 14 35  1  0  0  0  0
 15 16  1  0  0  0  0
 15 36  1  0  0  0  0
 15 37  1  0  0  0  0
 16 17  1  0  0  0  0
 16 38  1  0  0  0  0
 16 39  1  0  0  0  0
 18 19  1  0  0  0  0
 18 40  1  0  0  0  0
M  END
> <s_m_source_file>
AV-unprocessed.smi

> <i_m_source_file_index>
1941

> <i_lp_mmshare_version>
43012

> <i_f3d_flags>
0

> <s_epik_input>
W0NIM11jMW5jKFtjSF1zMSlbQ0gyXVtDSDJdW05IXUMoPU8pW05IXVtDQEhdKFtDSDNdKVtDQEBIXTJbQ0gyXVtDSDJdW0NIMl1PMg==

> <s_epik_cmdline>
J2VwaWtfcHl0aG9uJywgJy1waCcsICc3LjAnLCAnLXRuJywgJzgnLCAnLW1hJywgJzIwMCcsICctbWV0YWxfYmluZGluZycsICctaW1hZScsICc8aW5maWxlLm1hZT4nLCAnLW9tYWUnLCAnPG91dGZpbGUubWFlPic=

> <r_epik_Ionization_Penalty>
0.00195486

> <r_epik_Ionization_Penalty_Charging>
0

> <r_epik_Ionization_Penalty_Neutral>
0.00195486

> <r_epik_State_Penalty>
0.00129472

> <r_epik_Charging_Adjusted_Penalty>
0.00129472

> <i_epik_Tot_Q>
0

> <i_epik_Tot_abs_Q>
0

> <r_epik_Metal_State_Penalty>
-0

> <b_epik_Metal_Only>
0

> <s_lp_Force_Field>
OPLS_2005

> <r_lp_Energy>
12.2091

> <b_lp_Chiralities_Consistent>
1

> <s_lp_Variant>
AV-unprocessed.smi:1941-3

> <Gold.Version>
5.8.1

> <Gold.Id.Protein>
6NUR|6NUR_protein|mol2

> <Gold.PLP.Fitness>
44.1896

> <Gold.PLP.PLP>
-37.9252

> <Gold.PLP.part.hbond>
-2.0000

> <Gold.PLP.part.metal>
0.0000

> <Gold.PLP.part.buried>
-5.1176

> <Gold.PLP.part.nonpolar>
-30.7136

> <Gold.PLP.part.repulsive>
0.2634

> <Gold.PLP.ligand.clash>
0.0000

> <Gold.PLP.ligand.torsion>
0.9960

> <Gold.PLP.Chemscore.Hbond>
1.7360

> <Gold.PLP.Chemscore.CHOScore>
0.9941

> <Gold.PLP.Chemscore.Metal>
0.0000

> <Gold.Chemscore.Hbonds>
donor molecule, donor type, donor heavy atom, donor atom, acceptor molecule, acceptor atom, score
      P1  H  6931  6943       L1    17  0.26
      L1  C    18    40       P1  8028  1.00

> <Gold.PLP.Chemscore.Internal.Correction>
0.0660

> <Gold.Rescore>
     Score         DG    S(hbond)    S(metal)    S(lipo)     H(rot)  DE(clash)    DE(int)     intcor
     15.67     -18.07       1.58        0.00      99.48       1.69       0.01       2.39       ----

> <Gold.Chemscore.Fitness>
15.6719

> <Gold.Chemscore.DG>
-18.0712

> <Gold.Chemscore.ZeroCoef>
-5.4800

> <Gold.Chemscore.Hbond>
1.5823

> <Gold.Chemscore.Metal>
0.0000

> <Gold.Chemscore.Lipo>
99.4768

> <Gold.Chemscore.Internal_Hbond>
0.0000

> <Gold.Chemscore.DEClash>
0.0073

> <Gold.Chemscore.DEInternal>
2.3919

> <Gold.Chemscore.Rot>
1.6923

> <Gold.Chemscore.Internal.Correction>
   9.000000E+99

> <Gold.Chemscore.Hbonds>
donor molecule, donor type, donor heavy atom, donor atom, acceptor molecule, acceptor atom, score
      P1  H  6931  6943       L1    17  0.06

> <Gold.Chemscore.Hbond.Weighted>
-5.2847

> <Gold.Chemscore.Metal.Weighted>
-0.0000

> <Gold.Chemscore.Lipo.Weighted>
-11.6388

> <Gold.Chemscore.Internal_Hbond.Weighted>
0.0000

> <Gold.Chemscore.DEClash.Weighted>
0.0073

> <Gold.Chemscore.DEInternal.Weighted>
2.3919

> <Gold.Chemscore.Rot.Weighted>
4.3323

> <Gold.Chemscore.Internal.Correction.Weighted>
   9.000000E+99

> <Gold.Protein.RotatedTorsions>
[ 6907 6896 6895 6894 ] final  134.72 input  -60.11 | X-H torsion
[ 7974 7965 7964 7962 ] final -167.40 input  175.53 | X-H torsion
[ 8008 7997 7996 7995 ] final  123.74 input   59.86 | X-H torsion
[ 10167 10162 10161 10158 ] final  165.29 input  -65.29 | X-H torsion
[ 10718 10713 10712 10709 ] final  126.25 input   66.30 | X-H torsion
[ 10763 10752 10751 10750 ] final  -60.31 input  -60.55 | X-H torsion
[ 11005 11000 10999 10996 ] final   89.76 input  -57.11 | X-H torsion

> <Gold.Protein.ActiveResidues>
 VAL166  LYS551  ARG553  GLY616  TRP617  ASP618  TYR619  PRO620  LYS621  CYS622 
 ASP623  PHE694  ASN695  SER759  ASP760  ASP761  ALA762  ILE779  LEU786  VAL792 
 PHE793  MET794  SER795  GLU796  ALA797  LYS798  CYS799  TRP800  GLU811  SER814 

> <Gold.Protein.RotatedAtoms>
  152.3082  133.5725  159.5663 H   0  0  0  0  0  0  0  0  0  0  0  0  # atno 6907 bound_to 6896
  150.7310  134.0191  159.3704 H   0  0  0  0  0  0  0  0  0  0  0  0  # atno 6908 bound_to 6896
  151.8086  135.0688  160.0461 H   0  0  0  0  0  0  0  0  0  0  0  0  # atno 6909 bound_to 6896
  144.7224  140.2524  143.6276 H   0  0  0  0  0  0  0  0  0  0  0  0  # atno 7974 bound_to 7965
  156.2777  140.2756  156.1676 H   0  0  0  0  0  0  0  0  0  0  0  0  # atno 8008 bound_to 7997
  155.0688  140.0387  157.2619 H   0  0  0  0  0  0  0  0  0  0  0  0  # atno 8009 bound_to 7997
  154.7057  140.2658  155.6683 H   0  0  0  0  0  0  0  0  0  0  0  0  # atno 8010 bound_to 7997
  139.4903  144.4147  151.9257 H   0  0  0  0  0  0  0  0  0  0  0  0  # atno 10167 bound_to 10162
  157.5434  131.1096  150.8821 H   0  0  0  0  0  0  0  0  0  0  0  0  # atno 10718 bound_to 10713
  154.2673  135.6297  153.5297 H   0  0  0  0  0  0  0  0  0  0  0  0  # atno 10763 bound_to 10752
  152.9886  135.5602  154.5639 H   0  0  0  0  0  0  0  0  0  0  0  0  # atno 10764 bound_to 10752
  154.5201  135.2882  155.1245 H   0  0  0  0  0  0  0  0  0  0  0  0  # atno 10765 bound_to 10752
  139.8869  134.8572  156.3188 H   0  0  0  0  0  0  0  0  0  0  0  0  # atno 11005 bound_to 11000
  145.8215  139.2046  143.1935 LP  0  0  0  0  0  0  0  0  0  0  0  0  # atno 17320 bound_to 7965
  146.0510  140.8069  142.9782 LP  0  0  0  0  0  0  0  0  0  0  0  0  # atno 17321 bound_to 7965
  140.3590  144.2996  150.5936 LP  0  0  0  0  0  0  0  0  0  0  0  0  # atno 17342 bound_to 10162
  140.5420  143.2222  151.8070 LP  0  0  0  0  0  0  0  0  0  0  0  0  # atno 17343 bound_to 10162
  156.9367  130.5369  149.5279 LP  0  0  0  0  0  0  0  0  0  0  0  0  # atno 17370 bound_to 10713
  156.0516  130.5584  150.9001 LP  0  0  0  0  0  0  0  0  0  0  0  0  # atno 17371 bound_to 10713
  140.9801  133.7273  156.0659 LP  0  0  0  0  0  0  0  0  0  0  0  0  # atno 17394 bound_to 11000
  140.7761  134.3778  157.5497 LP  0  0  0  0  0  0  0  0  0  0  0  0  # atno 17395 bound_to 11000

$$$$
