AV-unprocessed.smi:2021|AV-procd|sdf|8182|dock4
  -GOLD-   2272010433D 1   1.00000     0.00000
 Structure written by MMmdl.
 41 42  0  0  0  0  0  0  0  0  3 V2000
  146.2189  132.6066  150.4456 C   0  0  0  0  0  0  0  0  0  0  0  0
  144.7354  132.5525  150.8404 C   0  0  0  0  0  0  0  0  0  0  0  0
  143.8544  132.3907  149.5902 C   0  0  0  0  0  0  0  0  0  0  0  0
  144.3486  133.8002  151.6641 C   0  0  0  0  0  0  0  0  0  0  0  0
  144.5850  133.6342  153.1243 N   0  3  2  0  0  0  0  0  0  0  0  0
  144.3945  134.8832  153.9013 C   0  0  0  0  0  0  0  0  0  0  0  0
  145.6144  135.8112  153.7681 C   0  0  0  0  0  0  0  0  0  0  0  0
  146.7775  135.1116  154.1869 O   0  0  0  0  0  0  0  0  0  0  0  0
  147.0600  133.9780  153.3719 C   0  0  1  0  0  0  0  0  0  0  0  0
  148.3774  133.3387  153.8437 C   0  0  0  0  0  0  0  0  0  0  0  0
  149.4704  134.3053  153.8486 N   0  0  0  0  0  0  0  0  0  0  0  0
  150.4761  134.3520  154.7333 C   0  0  0  0  0  0  0  0  0  0  0  0
  150.5446  133.5129  155.6344 O   0  0  0  0  0  0  0  0  0  0  0  0
  151.3386  135.3710  154.5206 N   0  5  0  0  0  0  0  0  0  0  0  0
  150.8794  136.6303  154.4295 C   0  0  0  0  0  0  0  0  0  0  0  0
  149.5761  136.9296  154.5496 N   0  0  0  0  0  0  0  0  0  0  0  0
  149.3138  138.2873  154.4247 N   0  0  0  0  0  0  0  0  0  0  0  0
  150.4311  138.9797  154.2041 C   0  0  0  0  0  0  0  0  0  0  0  0
  151.9036  138.0357  154.1216 S   0  0  0  0  0  0  0  0  0  0  0  0
  145.8764  132.9914  153.4824 C   0  0  0  0  0  0  0  0  0  0  0  0
  146.4307  133.4693  149.8126 H   0  0  0  0  0  0  0  0  0  0  0  0
  146.5133  131.7119  149.8962 H   0  0  0  0  0  0  0  0  0  0  0  0
  146.8586  132.6748  151.3260 H   0  0  0  0  0  0  0  0  0  0  0  0
  144.6096  131.6623  151.4556 H   0  0  0  0  0  0  0  0  0  0  0  0
  143.9409  133.2534  148.9286 H   0  0  0  0  0  0  0  0  0  0  0  0
  142.8026  132.2759  149.8528 H   0  0  0  0  0  0  0  0  0  0  0  0
  144.1425  131.5064  149.0206 H   0  0  0  0  0  0  0  0  0  0  0  0
  144.8816  134.6773  151.2972 H   0  0  0  0  0  0  0  0  0  0  0  0
  143.2902  134.0017  151.4924 H   0  0  0  0  0  0  0  0  0  0  0  0
  143.4804  135.3944  153.5976 H   0  0  0  0  0  0  0  0  0  0  0  0
  144.2603  134.6167  154.9506 H   0  0  0  0  0  0  0  0  0  0  0  0
  145.7337  136.1705  152.7449 H   0  0  0  0  0  0  0  0  0  0  0  0
  145.4875  136.6904  154.3999 H   0  0  0  0  0  0  0  0  0  0  0  0
  147.1851  134.2980  152.3364 H   0  0  0  0  0  0  0  0  0  0  0  0
  148.2570  132.8771  154.8252 H   0  0  0  0  0  0  0  0  0  0  0  0
  148.6601  132.5369  153.1614 H   0  0  0  0  0  0  0  0  0  0  0  0
  149.4599  135.0107  153.1265 H   0  0  0  0  0  0  0  0  0  0  0  0
  150.3876  140.0518  154.0847 H   0  0  0  0  0  0  0  0  0  0  0  0
  145.7990  132.6386  154.5118 H   0  0  0  0  0  0  0  0  0  0  0  0
  146.0567  132.1057  152.8750 H   0  0  0  0  0  0  0  0  0  0  0  0
  143.8565  133.0068  153.4343 H   0  0  0  0  0  0  0  0  0  0  0  0
  1  2  1  0  0  0  0
  1 21  1  0  0  0  0
  1 22  1  0  0  0  0
  1 23  1  0  0  0  0
  2  3  1  0  0  0  0
  2  4  1  0  0  0  0
  2 24  1  0  0  0  0
  3 25  1  0  0  0  0
  3 26  1  0  0  0  0
  3 27  1  0  0  0  0
  4  5  1  0  0  0  0
  4 28  1  0  0  0  0
  4 29  1  0  0  0  0
  5 20  1  0  0  0  0
  5  6  1  0  0  0  0
  5 41  1  0  0  0  0
  6  7  1  0  0  0  0
  6 30  1  0  0  0  0
  6 31  1  0  0  0  0
  7  8  1  0  0  0  0
  7 32  1  0  0  0  0
  7 33  1  0  0  0  0
  8  9  1  0  0  0  0
  9 10  1  0  0  0  0
  9 20  1  0  0  0  0
  9 34  1  0  0  0  0
 10 11  1  0  0  0  0
 10 35  1  0  0  0  0
 10 36  1  0  0  0  0
 11 12  1  0  0  0  0
 11 37  1  0  0  0  0
 12 13  2  0  0  0  0
 12 14  1  0  0  0  0
 14 15  1  0  0  0  0
 15 19  1  0  0  0  0
 15 16  2  0  0  0  0
 16 17  1  0  0  0  0
 17 18  2  0  0  0  0
 18 19  1  0  0  0  0
 18 38  1  0  0  0  0
 20 39  1  0  0  0  0
 20 40  1  0  0  0  0
M  CHG  1   5   1
M  CHG  1  14  -1
M  END
> <s_m_source_file>
AV-unprocessed.smi

> <i_m_source_file_index>
2021

> <i_lp_mmshare_version>
43012

> <i_f3d_flags>
0

> <s_epik_input>
W0NIM11bQ0hdKFtDSDNdKVtDSDJdTjFbQ0gyXVtDSDJdT1tDQEhdKFtDSDJdMSlbQ0gyXVtOSF1DKD1PKVtOSF1jMm5uW2NIXXMy

> <s_epik_cmdline>
J2VwaWtfcHl0aG9uJywgJy1waCcsICc3LjAnLCAnLXRuJywgJzgnLCAnLW1hJywgJzIwMCcsICctbWV0YWxfYmluZGluZycsICctaW1hZScsICc8aW5maWxlLm1hZT4nLCAnLW9tYWUnLCAnPG91dGZpbGUubWFlPic=

> <r_lp_tautomer_probability>
1

> <r_epik_Ionization_Penalty>
3.15762

> <r_epik_Ionization_Penalty_Charging>
3.12229

> <r_epik_Ionization_Penalty_Neutral>
0.0353298

> <r_epik_State_Penalty>
3.11266

> <r_epik_Charging_Adjusted_Penalty>
6.23495

> <i_epik_Tot_Q>
0

> <i_epik_Tot_abs_Q>
2

> <r_epik_Metal_State_Penalty>
0.541462

> <b_epik_Metal_Only>
1

> <s_lp_Force_Field>
OPLS_2005

> <r_lp_Energy>
12.8808

> <b_lp_Chiralities_Consistent>
1

> <s_lp_Variant>
AV-unprocessed.smi:2021-8

> <Gold.Version>
5.8.1

> <Gold.Id.Protein>
6NUR|6NUR_protein|mol2

> <Gold.PLP.Fitness>
41.8181

> <Gold.PLP.PLP>
-28.9200

> <Gold.PLP.part.hbond>
-3.0000

> <Gold.PLP.part.metal>
0.0000

> <Gold.PLP.part.buried>
-5.1117

> <Gold.PLP.part.nonpolar>
-22.0966

> <Gold.PLP.part.repulsive>
0.7538

> <Gold.PLP.ligand.clash>
0.0000

> <Gold.PLP.ligand.torsion>
1.1176

> <Gold.PLP.Chemscore.Hbond>
5.0000

> <Gold.PLP.Chemscore.CHOScore>
0.0000

> <Gold.PLP.Chemscore.Metal>
0.0000

> <Gold.Chemscore.Hbonds>
donor molecule, donor type, donor heavy atom, donor atom, acceptor molecule, acceptor atom, score
      L1  H     5    41       P1 10957  1.27
      L1  H    11    37       P1  7948  0.30
      P1  H 10752 10763       L1    14  1.79

> <Gold.PLP.Chemscore.Internal.Correction>
0.1333

> <Gold.Rescore>
     Score         DG    S(hbond)    S(metal)    S(lipo)     H(rot)  DE(clash)    DE(int)     intcor
     13.75     -15.18       2.24        0.00      59.43       1.85       0.00       1.43       ----

> <Gold.Chemscore.Fitness>
13.7480

> <Gold.Chemscore.DG>
-15.1768

> <Gold.Chemscore.ZeroCoef>
-5.4800

> <Gold.Chemscore.Hbond>
2.2369

> <Gold.Chemscore.Metal>
0.0000

> <Gold.Chemscore.Lipo>
59.4253

> <Gold.Chemscore.Internal_Hbond>
0.0000

> <Gold.Chemscore.DEClash>
0.0021

> <Gold.Chemscore.DEInternal>
1.4267

> <Gold.Chemscore.Rot>
1.8466

> <Gold.Chemscore.Internal.Correction>
   9.000000E+99

> <Gold.Chemscore.Hbonds>
donor molecule, donor type, donor heavy atom, donor atom, acceptor molecule, acceptor atom, score
      L1  H     5    41       P1 10957  0.49
      P1  H 10752 10763       L1    14  0.39

> <Gold.Chemscore.Hbond.Weighted>
-7.4713

> <Gold.Chemscore.Metal.Weighted>
-0.0000

> <Gold.Chemscore.Lipo.Weighted>
-6.9528

> <Gold.Chemscore.Internal_Hbond.Weighted>
0.0000

> <Gold.Chemscore.DEClash.Weighted>
0.0021

> <Gold.Chemscore.DEInternal.Weighted>
1.4267

> <Gold.Chemscore.Rot.Weighted>
4.7272

> <Gold.Chemscore.Internal.Correction.Weighted>
   9.000000E+99

> <Gold.Protein.RotatedTorsions>
[ 6907 6896 6895 6894 ] final -117.59 input  -60.11 | X-H torsion
[ 7974 7965 7964 7962 ] final  -93.97 input  175.53 | X-H torsion
[ 8008 7997 7996 7995 ] final   14.53 input   59.86 | X-H torsion
[ 10167 10162 10161 10158 ] final  -93.54 input  -65.29 | X-H torsion
[ 10718 10713 10712 10709 ] final  118.46 input   66.30 | X-H torsion
[ 10763 10752 10751 10750 ] final   63.25 input  -60.55 | X-H torsion
[ 11005 11000 10999 10996 ] final  154.54 input  -57.11 | X-H torsion

> <Gold.Protein.ActiveResidues>
 VAL166  LYS551  ARG553  GLY616  TRP617  ASP618  TYR619  PRO620  LYS621  CYS622 
 ASP623  PHE694  ASN695  SER759  ASP760  ASP761  ALA762  ILE779  LEU786  VAL792 
 PHE793  MET794  SER795  GLU796  ALA797  LYS798  CYS799  TRP800  GLU811  SER814 

> <Gold.Protein.RotatedAtoms>
  150.8149  133.8355  159.3164 H   0  0  0  0  0  0  0  0  0  0  0  0  # atno 6907 bound_to 6896
  151.6129  135.1037  160.0094 H   0  0  0  0  0  0  0  0  0  0  0  0  # atno 6908 bound_to 6896
  152.4241  133.7125  159.6543 H   0  0  0  0  0  0  0  0  0  0  0  0  # atno 6909 bound_to 6896
  145.3795  140.9516  143.2402 H   0  0  0  0  0  0  0  0  0  0  0  0  # atno 7974 bound_to 7965
  154.8498  140.2928  155.5606 H   0  0  0  0  0  0  0  0  0  0  0  0  # atno 8008 bound_to 7997
  156.3016  140.2498  156.3387 H   0  0  0  0  0  0  0  0  0  0  0  0  # atno 8009 bound_to 7997
  154.9034  140.0390  157.1895 H   0  0  0  0  0  0  0  0  0  0  0  0  # atno 8010 bound_to 7997
  140.3236  143.3035  152.0020 H   0  0  0  0  0  0  0  0  0  0  0  0  # atno 10167 bound_to 10162
  157.6028  131.1048  150.7759 H   0  0  0  0  0  0  0  0  0  0  0  0  # atno 10718 bound_to 10713
  153.0011  135.5436  154.6322 H   0  0  0  0  0  0  0  0  0  0  0  0  # atno 10763 bound_to 10752
  154.5597  135.2833  155.0933 H   0  0  0  0  0  0  0  0  0  0  0  0  # atno 10764 bound_to 10752
  154.2140  135.6462  153.5176 H   0  0  0  0  0  0  0  0  0  0  0  0  # atno 10765 bound_to 10752
  140.1498  134.8682  157.2440 H   0  0  0  0  0  0  0  0  0  0  0  0  # atno 11005 bound_to 11000
  144.8518  139.5310  143.6853 LP  0  0  0  0  0  0  0  0  0  0  0  0  # atno 17320 bound_to 7965
  146.2848  139.6975  142.9203 LP  0  0  0  0  0  0  0  0  0  0  0  0  # atno 17321 bound_to 7965
  139.4869  144.6291  151.7105 LP  0  0  0  0  0  0  0  0  0  0  0  0  # atno 17342 bound_to 10162
  140.5461  144.0500  150.6108 LP  0  0  0  0  0  0  0  0  0  0  0  0  # atno 17343 bound_to 10162
  156.8154  130.4966  149.5350 LP  0  0  0  0  0  0  0  0  0  0  0  0  # atno 17370 bound_to 10713
  156.1106  130.6038  151.0042 LP  0  0  0  0  0  0  0  0  0  0  0  0  # atno 17371 bound_to 10713
  140.2618  134.3562  155.7404 LP  0  0  0  0  0  0  0  0  0  0  0  0  # atno 17394 bound_to 11000
  141.2197  133.7374  156.9092 LP  0  0  0  0  0  0  0  0  0  0  0  0  # atno 17395 bound_to 11000

$$$$
