AV-unprocessed.smi:3193|AV-procd|sdf|12203|dock5
  -GOLD-   2272018 43D 1   1.00000     0.00000
 Structure written by MMmdl.
 40 41  0  0  0  0  0  0  0  0  2 V2000
  145.3395  135.4828  150.3122 C   0  0  0  0  0  0  0  0  0  0  0  0
  145.5623  134.3896  151.3774 C   0  0  2  0  0  0  0  0  0  0  0  0
  146.5046  133.2796  150.8639 C   0  0  0  0  0  0  0  0  0  0  0  0
  145.8260  132.3678  149.8276 C   0  0  0  0  0  0  0  0  0  0  0  0
  144.5265  131.7675  150.3831 C   0  0  0  0  0  0  0  0  0  0  0  0
  143.5723  132.8610  150.8894 C   0  0  0  0  0  0  0  0  0  0  0  0
  144.2539  133.7697  151.9376 C   0  0  2  0  0  0  0  0  0  0  0  0
  143.2904  134.8300  152.5082 C   0  0  0  0  0  0  0  0  0  0  0  0
  142.0872  134.2106  153.0988 N   0  3  0  0  0  0  0  0  0  0  0  0
  141.2653  135.1390  153.9015 C   0  0  0  0  0  0  0  0  0  0  0  0
  141.0035  136.4561  153.1545 C   0  0  0  0  0  0  0  0  0  0  0  0
  139.7747  137.0962  153.5852 N   0  0  0  0  0  0  0  0  0  0  0  0
  138.9145  136.6701  154.5888 C   0  0  0  0  0  0  0  0  0  0  0  0
  137.8860  137.5838  154.6392 C   0  0  0  0  0  0  0  0  0  0  0  0
  138.0945  138.5764  153.6845 N   0  0  0  0  0  0  0  0  0  0  0  0
  139.2342  138.2245  153.1046 C   0  0  0  0  0  0  0  0  0  0  0  0
  144.7860  135.1117  149.4501 H   0  0  0  0  0  0  0  0  0  0  0  0
  146.2917  135.8681  149.9469 H   0  0  0  0  0  0  0  0  0  0  0  0
  144.7912  136.3326  150.7180 H   0  0  0  0  0  0  0  0  0  0  0  0
  146.0747  134.8759  152.2088 H   0  0  0  0  0  0  0  0  0  0  0  0
  147.4089  133.7167  150.4386 H   0  0  0  0  0  0  0  0  0  0  0  0
  146.8347  132.6714  151.7071 H   0  0  0  0  0  0  0  0  0  0  0  0
  145.6122  132.9304  148.9184 H   0  0  0  0  0  0  0  0  0  0  0  0
  146.5077  131.5680  149.5366 H   0  0  0  0  0  0  0  0  0  0  0  0
  144.0346  131.1707  149.6145 H   0  0  0  0  0  0  0  0  0  0  0  0
  144.7619  131.0840  151.1995 H   0  0  0  0  0  0  0  0  0  0  0  0
  143.2169  133.4557  150.0476 H   0  0  0  0  0  0  0  0  0  0  0  0
  142.6895  132.3862  151.3185 H   0  0  0  0  0  0  0  0  0  0  0  0
  144.5514  133.1314  152.7718 H   0  0  0  0  0  0  0  0  0  0  0  0
  143.7940  135.4081  153.2842 H   0  0  0  0  0  0  0  0  0  0  0  0
  142.9875  135.5316  151.7300 H   0  0  0  0  0  0  0  0  0  0  0  0
  141.5184  133.8384  152.3519 H   0  0  0  0  0  0  0  0  0  0  0  0
  140.3208  134.6587  154.1604 H   0  0  0  0  0  0  0  0  0  0  0  0
  141.7828  135.3495  154.8383 H   0  0  0  0  0  0  0  0  0  0  0  0
  141.8262  137.1512  153.3269 H   0  0  0  0  0  0  0  0  0  0  0  0
  140.9579  136.2849  152.0780 H   0  0  0  0  0  0  0  0  0  0  0  0
  139.0978  135.7767  155.1679 H   0  0  0  0  0  0  0  0  0  0  0  0
  137.0202  137.6045  155.2847 H   0  0  0  0  0  0  0  0  0  0  0  0
  139.6824  138.7985  152.3066 H   0  0  0  0  0  0  0  0  0  0  0  0
  142.3796  133.4476  153.6931 H   0  0  0  0  0  0  0  0  0  0  0  0
  1  2  1  0  0  0  0
  1 17  1  0  0  0  0
  1 18  1  0  0  0  0
  1 19  1  0  0  0  0
  2  7  1  0  0  0  0
  2  3  1  0  0  0  0
  2 20  1  0  0  0  0
  3  4  1  0  0  0  0
  3 21  1  0  0  0  0
  3 22  1  0  0  0  0
  4  5  1  0  0  0  0
  4 23  1  0  0  0  0
  4 24  1  0  0  0  0
  5  6  1  0  0  0  0
  5 25  1  0  0  0  0
  5 26  1  0  0  0  0
  6  7  1  0  0  0  0
  6 27  1  0  0  0  0
  6 28  1  0  0  0  0
  7  8  1  0  0  0  0
  7 29  1  0  0  0  0
  8  9  1  0  0  0  0
  8 30  1  0  0  0  0
  8 31  1  0  0  0  0
  9 10  1  0  0  0  0
  9 32  1  0  0  0  0
  9 40  1  0  0  0  0
 10 11  1  0  0  0  0
 10 33  1  0  0  0  0
 10 34  1  0  0  0  0
 11 12  1  0  0  0  0
 11 35  1  0  0  0  0
 11 36  1  0  0  0  0
 12 16  1  0  0  0  0
 12 13  1  0  0  0  0
 13 14  2  0  0  0  0
 13 37  1  0  0  0  0
 14 15  1  0  0  0  0
 14 38  1  0  0  0  0
 15 16  2  0  0  0  0
 16 39  1  0  0  0  0
M  CHG  1   9   1
M  END
> <s_m_source_file>
AV-unprocessed.smi

> <i_m_source_file_index>
3193

> <i_lp_mmshare_version>
43012

> <i_f3d_flags>
0

> <s_epik_input>
W0NIM11bQ0BASF0xW0NIMl1bQ0gyXVtDSDJdW0NIMl1bQ0BIXTFbQ0gyXVtOSF1bQ0gyXVtDSDJdbjJbY0hdW2NIXW5bY0hdMg==

> <s_epik_cmdline>
J2VwaWtfcHl0aG9uJywgJy1waCcsICc3LjAnLCAnLXRuJywgJzgnLCAnLW1hJywgJzIwMCcsICctbWV0YWxfYmluZGluZycsICctaW1hZScsICc8aW5maWxlLm1hZT4nLCAnLW9tYWUnLCAnPG91dGZpbGUubWFlPic=

> <r_lp_tautomer_probability>
1

> <r_epik_Ionization_Penalty>
0.0503046

> <r_epik_Ionization_Penalty_Charging>
0.0503046

> <r_epik_Ionization_Penalty_Neutral>
0

> <r_epik_State_Penalty>
0.0981804

> <r_epik_Charging_Adjusted_Penalty>
0.148485

> <i_epik_Tot_Q>
1

> <i_epik_Tot_abs_Q>
1

> <r_epik_Metal_State_Penalty>
0.000105854

> <b_epik_Metal_Only>
0

> <s_lp_Force_Field>
OPLS_2005

> <r_lp_Energy>
20.9297

> <b_lp_Chiralities_Consistent>
1

> <s_lp_Variant>
AV-unprocessed.smi:3193-3

> <Gold.Version>
5.8.1

> <Gold.Id.Protein>
6NUR|6NUR_protein|mol2

> <Gold.PLP.Fitness>
45.9702

> <Gold.PLP.PLP>
-34.4055

> <Gold.PLP.part.hbond>
-1.0000

> <Gold.PLP.part.metal>
0.0000

> <Gold.PLP.part.buried>
-3.8677

> <Gold.PLP.part.nonpolar>
-30.1333

> <Gold.PLP.part.repulsive>
0.1163

> <Gold.PLP.ligand.clash>
0.0000

> <Gold.PLP.ligand.torsion>
0.2367

> <Gold.PLP.Chemscore.Hbond>
2.0000

> <Gold.PLP.Chemscore.CHOScore>
2.0000

> <Gold.PLP.Chemscore.Metal>
0.0000

> <Gold.Chemscore.Hbonds>
donor molecule, donor type, donor heavy atom, donor atom, acceptor molecule, acceptor atom, score
      L1  H     9    40       P1 10957  2.00
      L1  C    13    37       P1 11000  1.00
      L1  C    16    39       P1 10160  1.00

> <Gold.PLP.Chemscore.Internal.Correction>
0.0381

> <Gold.Rescore>
     Score         DG    S(hbond)    S(metal)    S(lipo)     H(rot)  DE(clash)    DE(int)     intcor
     13.10     -13.58       0.92        0.00      84.29       1.89       0.27       0.21       ----

> <Gold.Chemscore.Fitness>
13.0978

> <Gold.Chemscore.DG>
-13.5767

> <Gold.Chemscore.ZeroCoef>
-5.4800

> <Gold.Chemscore.Hbond>
0.9197

> <Gold.Chemscore.Metal>
0.0000

> <Gold.Chemscore.Lipo>
84.2896

> <Gold.Chemscore.Internal_Hbond>
0.0000

> <Gold.Chemscore.DEClash>
0.2681

> <Gold.Chemscore.DEInternal>
0.2107

> <Gold.Chemscore.Rot>
1.8895

> <Gold.Chemscore.Internal.Correction>
   9.000000E+99

> <Gold.Chemscore.Hbonds>
donor molecule, donor type, donor heavy atom, donor atom, acceptor molecule, acceptor atom, score
      L1  H     9    40       P1 10957  0.95

> <Gold.Chemscore.Hbond.Weighted>
-3.0718

> <Gold.Chemscore.Metal.Weighted>
-0.0000

> <Gold.Chemscore.Lipo.Weighted>
-9.8619

> <Gold.Chemscore.Internal_Hbond.Weighted>
0.0000

> <Gold.Chemscore.DEClash.Weighted>
0.2681

> <Gold.Chemscore.DEInternal.Weighted>
0.2107

> <Gold.Chemscore.Rot.Weighted>
4.8371

> <Gold.Chemscore.Internal.Correction.Weighted>
   9.000000E+99

> <Gold.Protein.RotatedTorsions>
[ 6907 6896 6895 6894 ] final -133.50 input  -60.11 | X-H torsion
[ 7974 7965 7964 7962 ] final   98.72 input  175.53 | X-H torsion
[ 8008 7997 7996 7995 ] final  -32.64 input   59.86 | X-H torsion
[ 10167 10162 10161 10158 ] final  100.49 input  -65.29 | X-H torsion
[ 10718 10713 10712 10709 ] final   42.90 input   66.30 | X-H torsion
[ 10763 10752 10751 10750 ] final  -98.38 input  -60.55 | X-H torsion
[ 11005 11000 10999 10996 ] final -118.79 input  -57.11 | X-H torsion

> <Gold.Protein.ActiveResidues>
 VAL166  LYS551  ARG553  GLY616  TRP617  ASP618  TYR619  PRO620  LYS621  CYS622 
 ASP623  PHE694  ASN695  SER759  ASP760  ASP761  ALA762  ILE779  LEU786  VAL792 
 PHE793  MET794  SER795  GLU796  ALA797  LYS798  CYS799  TRP800  GLU811  SER814 

> <Gold.Protein.RotatedAtoms>
  150.9747  133.6307  159.2731 H   0  0  0  0  0  0  0  0  0  0  0  0  # atno 6907 bound_to 6896
  151.3583  135.0898  159.9436 H   0  0  0  0  0  0  0  0  0  0  0  0  # atno 6908 bound_to 6896
  152.5195  133.9326  159.7642 H   0  0  0  0  0  0  0  0  0  0  0  0  # atno 6909 bound_to 6896
  145.4083  139.2337  143.3262 H   0  0  0  0  0  0  0  0  0  0  0  0  # atno 7974 bound_to 7965
  154.4173  140.1732  156.1759 H   0  0  0  0  0  0  0  0  0  0  0  0  # atno 8008 bound_to 7997
  155.9722  140.3385  155.6562 H   0  0  0  0  0  0  0  0  0  0  0  0  # atno 8009 bound_to 7997
  155.6611  140.0701  157.2544 H   0  0  0  0  0  0  0  0  0  0  0  0  # atno 8010 bound_to 7997
  139.7523  144.6980  151.0414 H   0  0  0  0  0  0  0  0  0  0  0  0  # atno 10167 bound_to 10162
  157.4100  130.7909  149.7422 H   0  0  0  0  0  0  0  0  0  0  0  0  # atno 10718 bound_to 10713
  154.7409  135.5011  153.9121 H   0  0  0  0  0  0  0  0  0  0  0  0  # atno 10763 bound_to 10752
  153.1042  135.6693  153.9624 H   0  0  0  0  0  0  0  0  0  0  0  0  # atno 10764 bound_to 10752
  153.9402  135.3068  155.3422 H   0  0  0  0  0  0  0  0  0  0  0  0  # atno 10765 bound_to 10752
  141.0261  134.0052  157.3212 H   0  0  0  0  0  0  0  0  0  0  0  0  # atno 11005 bound_to 11000
  146.2717  140.4791  142.8811 LP  0  0  0  0  0  0  0  0  0  0  0  0  # atno 17320 bound_to 7965
  144.8326  140.6731  143.6281 LP  0  0  0  0  0  0  0  0  0  0  0  0  # atno 17321 bound_to 7965
  140.7799  143.4795  151.0038 LP  0  0  0  0  0  0  0  0  0  0  0  0  # atno 17342 bound_to 10162
  139.8482  143.7473  152.3179 LP  0  0  0  0  0  0  0  0  0  0  0  0  # atno 17343 bound_to 10162
  155.9848  130.3989  150.3295 LP  0  0  0  0  0  0  0  0  0  0  0  0  # atno 17370 bound_to 10713
  157.1432  131.0302  151.2918 LP  0  0  0  0  0  0  0  0  0  0  0  0  # atno 17371 bound_to 10713
  139.9177  135.0198  156.7944 LP  0  0  0  0  0  0  0  0  0  0  0  0  # atno 17394 bound_to 11000
  140.6489  133.9750  155.7745 LP  0  0  0  0  0  0  0  0  0  0  0  0  # atno 17395 bound_to 11000

$$$$
