AV-unprocessed.smi:1718|AV-procd|sdf|6929|dock6
  -GOLD-   22720 8143D 1   1.00000     0.00000
 Structure written by MMmdl.
 39 40  0  0  0  0  0  0  0  0  2 V2000
  157.3907  140.1316  163.7112 C   0  0  0  0  0  0  0  0  0  0  0  0
  156.0715  139.4407  163.3349 C   0  0  1  0  0  0  0  0  0  0  0  0
  155.4150  139.0775  164.5460 O   0  0  0  0  0  0  0  0  0  0  0  0
  156.0746  138.0835  165.3218 C   0  0  0  0  0  0  0  0  0  0  0  0
  155.5011  136.7105  164.9537 C   0  0  1  0  0  0  0  0  0  0  0  0
  153.9736  136.6613  164.9247 C   0  0  0  0  0  0  0  0  0  0  0  0
  153.7236  135.5267  163.9582 C   0  0  0  0  0  0  0  0  0  0  0  0
  154.8278  135.7499  162.9296 C   0  0  0  0  0  0  0  0  0  0  0  0
  155.9158  136.3318  163.6432 O   0  0  0  0  0  0  0  0  0  0  0  0
  155.1706  140.3675  162.5026 C   0  0  0  0  0  0  0  0  0  0  0  0
  154.9509  141.5124  162.8983 O   0  0  0  0  0  0  0  0  0  0  0  0
  154.6799  139.8287  161.3695 N   0  0  0  0  0  0  0  0  0  0  0  0
  153.7946  140.3819  160.4294 C   0  0  0  0  0  0  0  0  0  0  0  0
  153.4318  141.6937  160.3839 C   0  0  0  0  0  0  0  0  0  0  0  0
  152.4938  142.2097  159.3949 C   0  0  0  0  0  0  0  0  0  0  0  0
  152.1478  143.6809  159.2482 C   0  0  0  0  0  0  0  0  0  0  0  0
  152.6375  144.1776  158.1118 F   0  0  0  0  0  0  0  0  0  0  0  0
  150.8248  143.8366  159.2334 F   0  0  0  0  0  0  0  0  0  0  0  0
  152.6387  144.3911  160.2638 F   0  0  0  0  0  0  0  0  0  0  0  0
  152.0418  141.2251  158.5377 C   0  0  0  0  0  0  0  0  0  0  0  0
  152.3259  139.9042  158.5336 N   0  5  0  0  0  0  0  0  0  0  0  0
  153.2054  139.4330  159.4622 C   0  0  0  0  0  0  0  0  0  0  0  0
  153.5148  138.2419  159.5106 O   0  0  0  0  0  0  0  0  0  0  0  0
  157.9350  140.4562  162.8238 H   0  0  0  0  0  0  0  0  0  0  0  0
  158.0388  139.4511  164.2637 H   0  0  0  0  0  0  0  0  0  0  0  0
  157.2211  141.0064  164.3401 H   0  0  0  0  0  0  0  0  0  0  0  0
  156.3078  138.5393  162.7658 H   0  0  0  0  0  0  0  0  0  0  0  0
  157.1530  138.0890  165.1599 H   0  0  0  0  0  0  0  0  0  0  0  0
  155.9045  138.2822  166.3809 H   0  0  0  0  0  0  0  0  0  0  0  0
  155.8760  135.9522  165.6430 H   0  0  0  0  0  0  0  0  0  0  0  0
  153.5351  136.4922  165.9085 H   0  0  0  0  0  0  0  0  0  0  0  0
  153.5635  137.5891  164.5231 H   0  0  0  0  0  0  0  0  0  0  0  0
  153.8635  134.5684  164.4607 H   0  0  0  0  0  0  0  0  0  0  0  0
  152.7243  135.5438  163.5227 H   0  0  0  0  0  0  0  0  0  0  0  0
  155.1252  134.8270  162.4313 H   0  0  0  0  0  0  0  0  0  0  0  0
  154.4983  136.4564  162.1667 H   0  0  0  0  0  0  0  0  0  0  0  0
  155.0115  138.9044  161.1339 H   0  0  0  0  0  0  0  0  0  0  0  0
  153.8150  142.3981  161.1038 H   0  0  0  0  0  0  0  0  0  0  0  0
  151.3518  141.5488  157.7295 H   0  0  0  0  0  0  0  0  0  0  0  0
  1  2  1  0  0  0  0
  1 24  1  0  0  0  0
  1 25  1  0  0  0  0
  1 26  1  0  0  0  0
  2  3  1  0  0  0  0
  2 10  1  0  0  0  0
  2 27  1  0  0  0  0
  3  4  1  0  0  0  0
  4  5  1  0  0  0  0
  4 28  1  0  0  0  0
  4 29  1  0  0  0  0
  5  9  1  0  0  0  0
  5  6  1  0  0  0  0
  5 30  1  0  0  0  0
  6  7  1  0  0  0  0
  6 31  1  0  0  0  0
  6 32  1  0  0  0  0
  7  8  1  0  0  0  0
  7 33  1  0  0  0  0
  7 34  1  0  0  0  0
  8  9  1  0  0  0  0
  8 35  1  0  0  0  0
  8 36  1  0  0  0  0
 10 11  2  0  0  0  0
 10 12  1  0  0  0  0
 12 13  1  0  0  0  0
 12 37  1  0  0  0  0
 13 22  1  0  0  0  0
 13 14  2  0  0  0  0
 14 15  1  0  0  0  0
 14 38  1  0  0  0  0
 15 16  1  0  0  0  0
 15 20  2  0  0  0  0
 16 17  1  0  0  0  0
 16 18  1  0  0  0  0
 16 19  1  0  0  0  0
 20 21  1  0  0  0  0
 20 39  1  0  0  0  0
 21 22  1  0  0  0  0
 22 23  2  0  0  0  0
M  CHG  1  21  -1
M  END
> <s_m_source_file>
AV-unprocessed.smi

> <i_m_source_file_index>
1718

> <i_lp_mmshare_version>
43012

> <i_f3d_flags>
0

> <s_epik_input>
TzFbQ0gyXVtDSDJdW0NIMl1bQ0BIXTFbQ0gyXU9bQ0BASF0oW0NIM10pQyg9TylbTkhdYzJbY0hdYyhDKEYpKEYpRilbY0hdW25IXWMyPU8=

> <s_epik_cmdline>
J2VwaWtfcHl0aG9uJywgJy1waCcsICc3LjAnLCAnLXRuJywgJzgnLCAnLW1hJywgJzIwMCcsICctbWV0YWxfYmluZGluZycsICctaW1hZScsICc8aW5maWxlLm1hZT4nLCAnLW9tYWUnLCAnPG91dGZpbGUubWFlPic=

> <r_epik_Ionization_Penalty>
2.5466

> <r_epik_Ionization_Penalty_Charging>
0.0575837

> <r_epik_Ionization_Penalty_Neutral>
2.48901

> <r_epik_State_Penalty>
2.6532

> <r_epik_Charging_Adjusted_Penalty>
2.71078

> <i_epik_Tot_Q>
-1

> <i_epik_Tot_abs_Q>
1

> <r_epik_Metal_State_Penalty>
0.516196

> <b_epik_Metal_Only>
0

> <s_lp_Force_Field>
OPLS_2005

> <r_lp_Energy>
35.9934

> <b_lp_Chiralities_Consistent>
1

> <s_lp_Variant>
AV-unprocessed.smi:1718-8

> <Gold.Version>
5.8.1

> <Gold.Id.Protein>
6NUR|6NUR_protein|mol2

> <Gold.PLP.Fitness>
43.4007

> <Gold.PLP.PLP>
-42.3670

> <Gold.PLP.part.hbond>
-2.0000

> <Gold.PLP.part.metal>
0.0000

> <Gold.PLP.part.buried>
-0.3556

> <Gold.PLP.part.nonpolar>
-37.6181

> <Gold.PLP.part.repulsive>
0.0162

> <Gold.PLP.ligand.clash>
0.0000

> <Gold.PLP.ligand.torsion>
0.6952

> <Gold.PLP.Chemscore.Hbond>
0.7644

> <Gold.PLP.Chemscore.CHOScore>
0.0000

> <Gold.PLP.Chemscore.Metal>
0.0000

> <Gold.PLP.Chemscore.Internal.Correction>
0.1310

> <Gold.Rescore>
     Score         DG    S(hbond)    S(metal)    S(lipo)     H(rot)  DE(clash)    DE(int)     intcor
      7.68     -11.58       0.00        0.00      92.54       1.85       1.30       2.60       ----

> <Gold.Chemscore.Fitness>
7.6774

> <Gold.Chemscore.DG>
-11.5827

> <Gold.Chemscore.ZeroCoef>
-5.4800

> <Gold.Chemscore.Hbond>
0.0000

> <Gold.Chemscore.Metal>
0.0000

> <Gold.Chemscore.Lipo>
92.5402

> <Gold.Chemscore.Internal_Hbond>
0.0000

> <Gold.Chemscore.DEClash>
1.3037

> <Gold.Chemscore.DEInternal>
2.6016

> <Gold.Chemscore.Rot>
1.8455

> <Gold.Chemscore.Internal.Correction>
   9.000000E+99

> <Gold.Chemscore.Hbond.Weighted>
-0.0000

> <Gold.Chemscore.Metal.Weighted>
-0.0000

> <Gold.Chemscore.Lipo.Weighted>
-10.8272

> <Gold.Chemscore.Internal_Hbond.Weighted>
0.0000

> <Gold.Chemscore.DEClash.Weighted>
1.3037

> <Gold.Chemscore.DEInternal.Weighted>
2.6016

> <Gold.Chemscore.Rot.Weighted>
4.7245

> <Gold.Chemscore.Internal.Correction.Weighted>
   9.000000E+99

> <Gold.Protein.RotatedTorsions>
[ 6907 6896 6895 6894 ] final   90.91 input  -60.11 | X-H torsion
[ 7974 7965 7964 7962 ] final  158.35 input  175.53 | X-H torsion
[ 8008 7997 7996 7995 ] final  174.75 input   59.86 | X-H torsion
[ 10167 10162 10161 10158 ] final   27.69 input  -65.29 | X-H torsion
[ 10718 10713 10712 10709 ] final  -76.20 input   66.30 | X-H torsion
[ 10763 10752 10751 10750 ] final  173.16 input  -60.55 | X-H torsion
[ 11005 11000 10999 10996 ] final  -99.53 input  -57.11 | X-H torsion

> <Gold.Protein.ActiveResidues>
 VAL166  LYS551  ARG553  GLY616  TRP617  ASP618  TYR619  PRO620  LYS621  CYS622 
 ASP623  PHE694  ASN695  SER759  ASP760  ASP761  ALA762  ILE779  LEU786  VAL792 
 PHE793  MET794  SER795  GLU796  ALA797  LYS798  CYS799  TRP800  GLU811  SER814 

> <Gold.Protein.RotatedAtoms>
  152.5447  134.1739  159.8607 H   0  0  0  0  0  0  0  0  0  0  0  0  # atno 6907 bound_to 6896
  151.1747  133.4755  159.2601 H   0  0  0  0  0  0  0  0  0  0  0  0  # atno 6908 bound_to 6896
  151.1239  135.0106  159.8606 H   0  0  0  0  0  0  0  0  0  0  0  0  # atno 6909 bound_to 6896
  144.7851  139.7466  143.6244 H   0  0  0  0  0  0  0  0  0  0  0  0  # atno 7974 bound_to 7965
  156.0942  140.1426  156.9553 H   0  0  0  0  0  0  0  0  0  0  0  0  # atno 8008 bound_to 7997
  154.4661  140.0926  156.7069 H   0  0  0  0  0  0  0  0  0  0  0  0  # atno 8009 bound_to 7997
  155.4869  140.3447  155.4351 H   0  0  0  0  0  0  0  0  0  0  0  0  # atno 8010 bound_to 7997
  140.4917  144.0457  150.6299 H   0  0  0  0  0  0  0  0  0  0  0  0  # atno 10167 bound_to 10162
  156.0182  130.4459  150.3158 H   0  0  0  0  0  0  0  0  0  0  0  0  # atno 10718 bound_to 10713
  154.4362  135.2761  155.1879 H   0  0  0  0  0  0  0  0  0  0  0  0  # atno 10763 bound_to 10752
  154.3764  135.6097  153.5771 H   0  0  0  0  0  0  0  0  0  0  0  0  # atno 10764 bound_to 10752
  152.9838  135.5870  154.4682 H   0  0  0  0  0  0  0  0  0  0  0  0  # atno 10765 bound_to 10752
  141.1305  133.8329  157.0984 H   0  0  0  0  0  0  0  0  0  0  0  0  # atno 11005 bound_to 11000
  146.2078  139.5414  142.9701 LP  0  0  0  0  0  0  0  0  0  0  0  0  # atno 17320 bound_to 7965
  145.5945  141.0365  143.2052 LP  0  0  0  0  0  0  0  0  0  0  0  0  # atno 17321 bound_to 7965
  140.3728  143.2845  152.0259 LP  0  0  0  0  0  0  0  0  0  0  0  0  # atno 17342 bound_to 10162
  139.4852  144.6217  151.7243 LP  0  0  0  0  0  0  0  0  0  0  0  0  # atno 17343 bound_to 10162
  157.1259  131.0259  151.2990 LP  0  0  0  0  0  0  0  0  0  0  0  0  # atno 17370 bound_to 10713
  157.4590  130.7642  149.7219 LP  0  0  0  0  0  0  0  0  0  0  0  0  # atno 17371 bound_to 10713
  140.0348  134.9883  157.0851 LP  0  0  0  0  0  0  0  0  0  0  0  0  # atno 17394 bound_to 11000
  140.4227  134.1863  155.7165 LP  0  0  0  0  0  0  0  0  0  0  0  0  # atno 17395 bound_to 11000

$$$$
