AV-unprocessed.smi:2923|AV-procd|sdf|11205|dock5
  -GOLD-   2272016 93D 1   1.00000     0.00000
 Structure written by MMmdl.
 47 49  0  0  0  0  0  0  0  0  2 V2000
  145.2243  131.7004  150.7384 C   0  0  0  0  0  0  0  0  0  0  0  0
  144.5371  132.8997  150.2728 N   0  0  0  0  0  0  0  0  0  0  0  0
  143.7955  132.8821  149.0186 C   0  0  0  0  0  0  0  0  0  0  0  0
  144.6536  134.1024  151.0028 C   0  0  0  0  0  0  0  0  0  0  0  0
  145.7587  134.3999  151.8370 C   0  0  0  0  0  0  0  0  0  0  0  0
  145.7997  135.6231  152.5368 C   0  0  0  0  0  0  0  0  0  0  0  0
  144.7388  136.5437  152.4090 C   0  0  0  0  0  0  0  0  0  0  0  0
  144.8351  137.7629  153.1346 N   0  0  0  0  0  0  0  0  0  0  0  0
  145.5260  138.0271  154.2571 C   0  0  0  0  0  0  0  0  0  0  0  0
  146.2299  137.2247  154.8691 O   0  0  0  0  0  0  0  0  0  0  0  0
  145.3581  139.3000  154.6389 N   0  0  0  0  0  0  0  0  0  0  0  0
  145.9656  139.9003  155.8279 C   0  0  1  0  0  0  0  0  0  0  0  0
  146.8330  141.1369  155.5022 C   0  0  1  0  0  0  0  0  0  0  0  0
  147.2153  141.5262  154.0946 C   0  0  0  0  0  0  0  0  0  0  0  0
  146.1743  142.5932  153.7436 C   0  0  0  0  0  0  0  0  0  0  0  0
  145.0936  142.3574  154.6435 O   0  0  0  0  0  0  0  0  0  0  0  0
  145.6485  141.9990  155.9071 C   0  0  1  0  0  0  0  0  0  0  0  0
  144.9902  140.8050  156.6290 C   0  0  0  0  0  0  0  0  0  0  0  0
  143.4781  140.6406  156.4221 C   0  0  0  0  0  0  0  0  0  0  0  0
  145.2201  140.7843  158.1429 C   0  0  0  0  0  0  0  0  0  0  0  0
  143.6623  136.2054  151.5543 C   0  0  0  0  0  0  0  0  0  0  0  0
  143.6640  135.0228  150.9023 N   0  3  0  0  0  0  0  0  0  0  0  0
  144.8476  131.3990  151.7164 H   0  0  0  0  0  0  0  0  0  0  0  0
  146.2969  131.8793  150.8195 H   0  0  0  0  0  0  0  0  0  0  0  0
  145.0771  130.8664  150.0522 H   0  0  0  0  0  0  0  0  0  0  0  0
  144.2463  133.5647  148.2979 H   0  0  0  0  0  0  0  0  0  0  0  0
  142.7592  133.1791  149.1816 H   0  0  0  0  0  0  0  0  0  0  0  0
  143.7890  131.8860  148.5756 H   0  0  0  0  0  0  0  0  0  0  0  0
  146.5792  133.7083  151.9542 H   0  0  0  0  0  0  0  0  0  0  0  0
  146.6439  135.8478  153.1724 H   0  0  0  0  0  0  0  0  0  0  0  0
  144.3401  138.5448  152.7312 H   0  0  0  0  0  0  0  0  0  0  0  0
  144.7595  139.8951  154.0852 H   0  0  0  0  0  0  0  0  0  0  0  0
  146.5003  139.1844  156.4552 H   0  0  0  0  0  0  0  0  0  0  0  0
  147.6489  141.2355  156.2199 H   0  0  0  0  0  0  0  0  0  0  0  0
  148.2256  141.9322  154.0391 H   0  0  0  0  0  0  0  0  0  0  0  0
  147.1674  140.6831  153.4059 H   0  0  0  0  0  0  0  0  0  0  0  0
  146.5742  143.5918  153.9251 H   0  0  0  0  0  0  0  0  0  0  0  0
  145.8488  142.5387  152.7045 H   0  0  0  0  0  0  0  0  0  0  0  0
  145.9110  142.8554  156.5300 H   0  0  0  0  0  0  0  0  0  0  0  0
  142.9170  141.4132  156.9487 H   0  0  0  0  0  0  0  0  0  0  0  0
  143.1280  139.6744  156.7865 H   0  0  0  0  0  0  0  0  0  0  0  0
  143.1953  140.7110  155.3717 H   0  0  0  0  0  0  0  0  0  0  0  0
  144.6846  141.5928  158.6417 H   0  0  0  0  0  0  0  0  0  0  0  0
  146.2756  140.8979  158.3920 H   0  0  0  0  0  0  0  0  0  0  0  0
  144.8857  139.8447  158.5840 H   0  0  0  0  0  0  0  0  0  0  0  0
  142.8024  136.8253  151.3530 H   0  0  0  0  0  0  0  0  0  0  0  0
  142.8712  134.8113  150.2961 H   0  0  0  0  0  0  0  0  0  0  0  0
  1  2  1  0  0  0  0
  1 23  1  0  0  0  0
  1 24  1  0  0  0  0
  1 25  1  0  0  0  0
  2  3  1  0  0  0  0
  2  4  1  0  0  0  0
  3 26  1  0  0  0  0
  3 27  1  0  0  0  0
  3 28  1  0  0  0  0
  4 22  1  0  0  0  0
  4  5  2  0  0  0  0
  5  6  1  0  0  0  0
  5 29  1  0  0  0  0
  6  7  2  0  0  0  0
  6 30  1  0  0  0  0
  7  8  1  0  0  0  0
  7 21  1  0  0  0  0
  8  9  1  0  0  0  0
  8 31  1  0  0  0  0
  9 10  2  0  0  0  0
  9 11  1  0  0  0  0
 11 12  1  0  0  0  0
 11 32  1  0  0  0  0
 12 18  1  0  0  0  0
 12 13  1  0  0  0  0
 12 33  1  0  0  0  0
 13 17  1  0  0  0  0
 13 14  1  0  0  0  0
 13 34  1  0  0  0  0
 14 15  1  0  0  0  0
 14 35  1  0  0  0  0
 14 36  1  0  0  0  0
 15 16  1  0  0  0  0
 15 37  1  0  0  0  0
 15 38  1  0  0  0  0
 16 17  1  0  0  0  0
 17 18  1  0  0  0  0
 17 39  1  0  0  0  0
 18 19  1  0  0  0  0
 18 20  1  0  0  0  0
 19 40  1  0  0  0  0
 19 41  1  0  0  0  0
 19 42  1  0  0  0  0
 20 43  1  0  0  0  0
 20 44  1  0  0  0  0
 20 45  1  0  0  0  0
 21 22  2  0  0  0  0
 21 46  1  0  0  0  0
 22 47  1  0  0  0  0
M  CHG  1  22   1
M  END
> <s_m_source_file>
AV-unprocessed.smi

> <i_m_source_file_index>
2923

> <i_lp_mmshare_version>
43012

> <i_f3d_flags>
0

> <s_epik_input>
W0NIM11OKFtDSDNdKWMxW2NIXVtjSF1jKFtjSF1uMSlbTkhdQyg9TylbTkhdW0NASF0yQyhbQ0gzXSkoW0NIM10pW0NAQEhdKFtDQEhdMjMpT1tDSDJdW0NIMl0z

> <s_epik_cmdline>
J2VwaWtfcHl0aG9uJywgJy1waCcsICc3LjAnLCAnLXRuJywgJzgnLCAnLW1hJywgJzIwMCcsICctbWV0YWxfYmluZGluZycsICctaW1hZScsICc8aW5maWxlLm1hZT4nLCAnLW9tYWUnLCAnPG91dGZpbGUubWFlPic=

> <r_lp_tautomer_probability>
0.999994

> <r_epik_Ionization_Penalty>
0.252205

> <r_epik_Ionization_Penalty_Charging>
0.252185

> <r_epik_Ionization_Penalty_Neutral>
1.99479e-05

> <r_epik_State_Penalty>
0.243573

> <r_epik_Charging_Adjusted_Penalty>
0.495758

> <i_epik_Tot_Q>
1

> <i_epik_Tot_abs_Q>
1

> <r_epik_Metal_State_Penalty>
0.534372

> <b_epik_Metal_Only>
0

> <s_lp_Force_Field>
OPLS_2005

> <r_lp_Energy>
46.5408

> <b_lp_Chiralities_Consistent>
1

> <s_lp_Variant>
AV-unprocessed.smi:2923-4

> <Gold.Version>
5.8.1

> <Gold.Id.Protein>
6NUR|6NUR_protein|mol2

> <Gold.PLP.Fitness>
39.5167

> <Gold.PLP.PLP>
-28.4551

> <Gold.PLP.part.hbond>
-2.9666

> <Gold.PLP.part.metal>
0.0000

> <Gold.PLP.part.buried>
-3.5930

> <Gold.PLP.part.nonpolar>
-22.8865

> <Gold.PLP.part.repulsive>
0.2975

> <Gold.PLP.ligand.clash>
0.0000

> <Gold.PLP.ligand.torsion>
0.5630

> <Gold.PLP.Chemscore.Hbond>
4.0000

> <Gold.PLP.Chemscore.CHOScore>
0.0000

> <Gold.PLP.Chemscore.Metal>
0.0000

> <Gold.Chemscore.Hbonds>
donor molecule, donor type, donor heavy atom, donor atom, acceptor molecule, acceptor atom, score
      L1  H     8    31       P1 10175  0.99
      L1  H    11    32       P1 10175  1.00
      L1  H    22    47       P1 10186  1.98

> <Gold.PLP.Chemscore.Internal.Correction>
0.1877

> <Gold.Rescore>
     Score         DG    S(hbond)    S(metal)    S(lipo)     H(rot)  DE(clash)    DE(int)     intcor
     15.51     -17.30       2.17        0.00      60.90       1.00       0.21       1.59       ----

> <Gold.Chemscore.Fitness>
15.5096

> <Gold.Chemscore.DG>
-17.3047

> <Gold.Chemscore.ZeroCoef>
-5.4800

> <Gold.Chemscore.Hbond>
2.1734

> <Gold.Chemscore.Metal>
0.0000

> <Gold.Chemscore.Lipo>
60.9011

> <Gold.Chemscore.Internal_Hbond>
0.0000

> <Gold.Chemscore.DEClash>
0.2085

> <Gold.Chemscore.DEInternal>
1.5866

> <Gold.Chemscore.Rot>
1.0000

> <Gold.Chemscore.Internal.Correction>
   9.000000E+99

> <Gold.Chemscore.Hbonds>
donor molecule, donor type, donor heavy atom, donor atom, acceptor molecule, acceptor atom, score
      L1  H     8    31       P1 10175  0.92
      L1  H    11    32       P1 10175  0.94
      L1  H    22    47       P1 10186  0.32

> <Gold.Chemscore.Hbond.Weighted>
-7.2593

> <Gold.Chemscore.Metal.Weighted>
-0.0000

> <Gold.Chemscore.Lipo.Weighted>
-7.1254

> <Gold.Chemscore.Internal_Hbond.Weighted>
0.0000

> <Gold.Chemscore.DEClash.Weighted>
0.2085

> <Gold.Chemscore.DEInternal.Weighted>
1.5866

> <Gold.Chemscore.Rot.Weighted>
2.5600

> <Gold.Chemscore.Internal.Correction.Weighted>
   9.000000E+99

> <Gold.Protein.RotatedTorsions>
[ 6907 6896 6895 6894 ] final   55.72 input  -60.11 | X-H torsion
[ 7974 7965 7964 7962 ] final -177.90 input  175.53 | X-H torsion
[ 8008 7997 7996 7995 ] final -131.11 input   59.86 | X-H torsion
[ 10167 10162 10161 10158 ] final   80.41 input  -65.29 | X-H torsion
[ 10718 10713 10712 10709 ] final  101.50 input   66.30 | X-H torsion
[ 10763 10752 10751 10750 ] final -158.46 input  -60.55 | X-H torsion
[ 11005 11000 10999 10996 ] final  -39.81 input  -57.11 | X-H torsion

> <Gold.Protein.ActiveResidues>
 VAL166  LYS551  ARG553  GLY616  TRP617  ASP618  TYR619  PRO620  LYS621  CYS622 
 ASP623  PHE694  ASN695  SER759  ASP760  ASP761  ALA762  ILE779  LEU786  VAL792 
 PHE793  MET794  SER795  GLU796  ALA797  LYS798  CYS799  TRP800  GLU811  SER814 

> <Gold.Protein.RotatedAtoms>
  152.3566  134.6931  160.0219 H   0  0  0  0  0  0  0  0  0  0  0  0  # atno 6907 bound_to 6896
  151.7267  133.3311  159.3337 H   0  0  0  0  0  0  0  0  0  0  0  0  # atno 6908 bound_to 6896
  150.7576  134.6333  159.6243 H   0  0  0  0  0  0  0  0  0  0  0  0  # atno 6909 bound_to 6896
  144.7129  140.0950  143.6419 H   0  0  0  0  0  0  0  0  0  0  0  0  # atno 7974 bound_to 7965
  155.3068  140.0455  157.3032 H   0  0  0  0  0  0  0  0  0  0  0  0  # atno 8008 bound_to 7997
  154.5455  140.2301  155.8537 H   0  0  0  0  0  0  0  0  0  0  0  0  # atno 8009 bound_to 7997
  156.1920  140.3048  155.9358 H   0  0  0  0  0  0  0  0  0  0  0  0  # atno 8010 bound_to 7997
  139.9501  144.6032  150.8169 H   0  0  0  0  0  0  0  0  0  0  0  0  # atno 10167 bound_to 10162
  157.6827  131.0728  150.5262 H   0  0  0  0  0  0  0  0  0  0  0  0  # atno 10718 bound_to 10713
  154.7555  135.3103  154.8478 H   0  0  0  0  0  0  0  0  0  0  0  0  # atno 10763 bound_to 10752
  153.9253  135.6791  153.4751 H   0  0  0  0  0  0  0  0  0  0  0  0  # atno 10764 bound_to 10752
  153.1152  135.4848  154.9033 H   0  0  0  0  0  0  0  0  0  0  0  0  # atno 10765 bound_to 10752
  141.0129  133.6899  156.2237 H   0  0  0  0  0  0  0  0  0  0  0  0  # atno 11005 bound_to 11000
  145.9587  139.2785  143.1168 LP  0  0  0  0  0  0  0  0  0  0  0  0  # atno 17320 bound_to 7965
  145.9244  140.9092  143.0388 LP  0  0  0  0  0  0  0  0  0  0  0  0  # atno 17321 bound_to 7965
  140.7585  143.3109  151.2847 LP  0  0  0  0  0  0  0  0  0  0  0  0  # atno 17342 bound_to 10162
  139.6635  144.0146  152.2708 LP  0  0  0  0  0  0  0  0  0  0  0  0  # atno 17343 bound_to 10162
  156.5574  130.4247  149.6079 LP  0  0  0  0  0  0  0  0  0  0  0  0  # atno 17370 bound_to 10713
  156.2850  130.7092  151.1927 LP  0  0  0  0  0  0  0  0  0  0  0  0  # atno 17371 bound_to 10713
  140.6703  134.4875  157.5587 LP  0  0  0  0  0  0  0  0  0  0  0  0  # atno 17394 bound_to 11000
  139.9100  134.8365  156.1562 LP  0  0  0  0  0  0  0  0  0  0  0  0  # atno 17395 bound_to 11000

$$$$
