AV-unprocessed.smi:275|AV-procd|sdf|2066|dock9
  -GOLD-   2262021323D 1   1.00000     0.00000
 Structure written by MMmdl.
 65 69  0  0  0  0  0  0  0  0  1 V2000
  150.9291  145.0160  159.7138 C   0  0  0  0  0  0  0  0  0  0  0  0
  151.7348  144.6789  158.4468 C   0  0  0  0  0  0  0  0  0  0  0  0
  150.9682  145.1942  157.2171 C   0  0  0  0  0  0  0  0  0  0  0  0
  152.0309  143.1740  158.3270 C   0  0  2  0  0  0  0  0  0  0  0  0
  150.8905  142.3222  158.6557 N   0  0  0  0  0  0  0  0  0  0  0  0
  150.0695  141.9355  157.5614 C   0  0  0  0  0  0  0  0  0  0  0  0
  150.6018  141.6132  156.3507 N   0  0  0  0  0  0  0  0  0  0  0  0
  149.8163  141.2601  155.3290 C   0  0  0  0  0  0  0  0  0  0  0  0
  148.4862  141.1667  155.2937 N   0  0  0  0  0  0  0  0  0  0  0  0
  147.9425  141.4900  156.5009 C   0  0  0  0  0  0  0  0  0  0  0  0
  148.6543  141.8766  157.6706 C   0  0  0  0  0  0  0  0  0  0  0  0
  147.7635  142.1313  158.7060 N   0  0  0  0  0  0  0  0  0  0  0  0
  146.5905  141.9102  158.1779 C   0  0  0  0  0  0  0  0  0  0  0  0
  146.6067  141.5261  156.8560 N   0  0  0  0  0  0  0  0  0  0  0  0
  145.4589  141.2224  156.0208 C   0  0  0  0  0  0  0  0  0  0  0  0
  144.3750  142.3285  156.0517 C   0  0  2  0  0  0  0  0  0  0  0  0
  143.2108  141.9960  157.0167 C   0  0  0  0  0  0  0  0  0  0  0  0
  142.4880  143.1559  157.3752 O   0  0  0  0  0  0  0  0  0  0  0  0
  143.8827  142.6804  154.6256 C   0  0  1  0  0  0  0  0  0  0  0  0
  143.1116  143.9843  154.5165 C   0  0  0  0  0  0  0  0  0  0  0  0
  143.1935  144.2884  153.0241 C   0  0  0  0  0  0  0  0  0  0  0  0
  144.4302  143.7394  152.5832 O   0  0  0  0  0  0  0  0  0  0  0  0
  145.0027  142.9398  153.6124 C   0  0  0  0  0  0  0  0  0  0  0  0
  151.7824  141.2772  159.1363 C   0  0  0  0  0  0  0  0  0  0  0  0
  152.8042  142.3908  159.4167 C   0  0  0  0  0  0  0  0  0  0  0  0
  154.2672  142.0631  159.0776 C   0  0  0  0  0  0  0  0  0  0  0  0
  154.8983  141.0634  160.0609 C   0  0  0  0  0  0  0  0  0  0  0  0
  154.8259  141.5826  161.5025 C   0  0  0  0  0  0  0  0  0  0  0  0
  153.3891  141.9631  161.8822 C   0  0  0  0  0  0  0  0  0  0  0  0
  152.7853  142.9427  160.8608 C   0  0  0  0  0  0  0  0  0  0  0  0
  149.9939  144.4561  159.7500 H   0  0  0  0  0  0  0  0  0  0  0  0
  150.6832  146.0777  159.7520 H   0  0  0  0  0  0  0  0  0  0  0  0
  151.4892  144.7893  160.6195 H   0  0  0  0  0  0  0  0  0  0  0  0
  152.6748  145.2296  158.4995 H   0  0  0  0  0  0  0  0  0  0  0  0
  150.0045  144.6933  157.1185 H   0  0  0  0  0  0  0  0  0  0  0  0
  151.5165  145.0300  156.2916 H   0  0  0  0  0  0  0  0  0  0  0  0
  150.7785  146.2653  157.2931 H   0  0  0  0  0  0  0  0  0  0  0  0
  152.4365  142.9222  157.3449 H   0  0  0  0  0  0  0  0  0  0  0  0
  150.3266  141.0202  154.4079 H   0  0  0  0  0  0  0  0  0  0  0  0
  145.6748  142.0300  158.7386 H   0  0  0  0  0  0  0  0  0  0  0  0
  145.8241  141.0688  155.0051 H   0  0  0  0  0  0  0  0  0  0  0  0
  145.0374  140.2698  156.3443 H   0  0  0  0  0  0  0  0  0  0  0  0
  144.8512  143.2246  156.4523 H   0  0  0  0  0  0  0  0  0  0  0  0
  142.5218  141.2808  156.5668 H   0  0  0  0  0  0  0  0  0  0  0  0
  143.5809  141.5191  157.9238 H   0  0  0  0  0  0  0  0  0  0  0  0
  143.0718  143.8980  157.3344 H   0  0  0  0  0  0  0  0  0  0  0  0
  143.2545  141.8736  154.2450 H   0  0  0  0  0  0  0  0  0  0  0  0
  142.0823  143.9079  154.8679 H   0  0  0  0  0  0  0  0  0  0  0  0
  143.6094  144.7714  155.0850 H   0  0  0  0  0  0  0  0  0  0  0  0
  142.3838  143.7912  152.4889 H   0  0  0  0  0  0  0  0  0  0  0  0
  143.1332  145.3564  152.8134 H   0  0  0  0  0  0  0  0  0  0  0  0
  145.8166  143.5038  154.0701 H   0  0  0  0  0  0  0  0  0  0  0  0
  145.4190  142.0188  153.2038 H   0  0  0  0  0  0  0  0  0  0  0  0
  151.4095  140.7629  160.0221 H   0  0  0  0  0  0  0  0  0  0  0  0
  152.1110  140.5759  158.3674 H   0  0  0  0  0  0  0  0  0  0  0  0
  154.3387  141.6559  158.0685 H   0  0  0  0  0  0  0  0  0  0  0  0
  154.8611  142.9778  159.0665 H   0  0  0  0  0  0  0  0  0  0  0  0
  154.3812  140.1055  159.9906 H   0  0  0  0  0  0  0  0  0  0  0  0
  155.9362  140.8740  159.7860 H   0  0  0  0  0  0  0  0  0  0  0  0
  155.2104  140.8310  162.1927 H   0  0  0  0  0  0  0  0  0  0  0  0
  155.4708  142.4562  161.6053 H   0  0  0  0  0  0  0  0  0  0  0  0
  152.7759  141.0633  161.9387 H   0  0  0  0  0  0  0  0  0  0  0  0
  153.3743  142.4072  162.8778 H   0  0  0  0  0  0  0  0  0  0  0  0
  153.3349  143.8810  160.9204 H   0  0  0  0  0  0  0  0  0  0  0  0
  151.7660  143.1816  161.1667 H   0  0  0  0  0  0  0  0  0  0  0  0
  1  2  1  0  0  0  0
  1 31  1  0  0  0  0
  1 32  1  0  0  0  0
  1 33  1  0  0  0  0
  2  3  1  0  0  0  0
  2  4  1  0  0  0  0
  2 34  1  0  0  0  0
  3 35  1  0  0  0  0
  3 36  1  0  0  0  0
  3 37  1  0  0  0  0
  4 25  1  0  0  0  0
  4  5  1  0  0  0  0
  4 38  1  0  0  0  0
  5  6  1  0  0  0  0
  5 24  1  0  0  0  0
  6 11  1  0  0  0  0
  6  7  2  0  0  0  0
  7  8  1  0  0  0  0
  8  9  2  0  0  0  0
  8 39  1  0  0  0  0
  9 10  1  0  0  0  0
 10 14  1  0  0  0  0
 10 11  2  0  0  0  0
 11 12  1  0  0  0  0
 12 13  2  0  0  0  0
 13 14  1  0  0  0  0
 13 40  1  0  0  0  0
 14 15  1  0  0  0  0
 15 16  1  0  0  0  0
 15 41  1  0  0  0  0
 15 42  1  0  0  0  0
 16 17  1  0  0  0  0
 16 19  1  0  0  0  0
 16 43  1  0  0  0  0
 17 18  1  0  0  0  0
 17 44  1  0  0  0  0
 17 45  1  0  0  0  0
 18 46  1  0  0  0  0
 19 23  1  0  0  0  0
 19 20  1  0  0  0  0
 19 47  1  0  0  0  0
 20 21  1  0  0  0  0
 20 48  1  0  0  0  0
 20 49  1  0  0  0  0
 21 22  1  0  0  0  0
 21 50  1  0  0  0  0
 21 51  1  0  0  0  0
 22 23  1  0  0  0  0
 23 52  1  0  0  0  0
 23 53  1  0  0  0  0
 24 25  1  0  0  0  0
 24 54  1  0  0  0  0
 24 55  1  0  0  0  0
 25 30  1  0  0  0  0
 25 26  1  0  0  0  0
 26 27  1  0  0  0  0
 26 56  1  0  0  0  0
 26 57  1  0  0  0  0
 27 28  1  0  0  0  0
 27 58  1  0  0  0  0
 27 59  1  0  0  0  0
 28 29  1  0  0  0  0
 28 60  1  0  0  0  0
 28 61  1  0  0  0  0
 29 30  1  0  0  0  0
 29 62  1  0  0  0  0
 29 63  1  0  0  0  0
 30 64  1  0  0  0  0
 30 65  1  0  0  0  0
M  END
> <s_m_source_file>
AV-unprocessed.smi

> <i_m_source_file_index>
275

> <i_lp_mmshare_version>
43012

> <i_f3d_flags>
0

> <s_epik_input>
W0NIMl0xW0NIMl1bQ0gyXVtDSDJdW0NIMl1DMTJbQ0BIXShbQ0hdKFtDSDNdKVtDSDNdKU4oW0NIMl0yKWMobltjSF1uMyljKGMzNCluW2NIXW40W0NIMl1bQ0BIXShbQ0gyXVtPSF0pW0NAQEhdNVtDSDJdW0NIMl1PW0NIMl01

> <s_epik_cmdline>
J2VwaWtfcHl0aG9uJywgJy1waCcsICc3LjAnLCAnLXRuJywgJzgnLCAnLW1hJywgJzIwMCcsICctbWV0YWxfYmluZGluZycsICctaW1hZScsICc8aW5maWxlLm1hZT4nLCAnLW9tYWUnLCAnPG91dGZpbGUubWFlPic=

> <r_lp_tautomer_probability>
1

> <r_epik_Ionization_Penalty>
0.00375122

> <r_epik_Ionization_Penalty_Charging>
0

> <r_epik_Ionization_Penalty_Neutral>
0.00375122

> <r_epik_State_Penalty>
0.00260593

> <r_epik_Charging_Adjusted_Penalty>
0.00260593

> <i_epik_Tot_Q>
0

> <i_epik_Tot_abs_Q>
0

> <r_epik_Metal_State_Penalty>
-0

> <b_epik_Metal_Only>
0

> <s_lp_Force_Field>
OPLS_2005

> <r_lp_Energy>
62.8916

> <b_lp_Chiralities_Consistent>
1

> <s_lp_Variant>
AV-unprocessed.smi:275-5

> <Gold.Version>
5.8.1

> <Gold.Id.Protein>
6NUR|6NUR_protein|mol2

> <Gold.PLP.Fitness>
53.1503

> <Gold.PLP.PLP>
-55.0080

> <Gold.PLP.part.hbond>
-2.1661

> <Gold.PLP.part.metal>
0.0000

> <Gold.PLP.part.buried>
-4.0963

> <Gold.PLP.part.nonpolar>
-48.7051

> <Gold.PLP.part.repulsive>
0.4498

> <Gold.PLP.ligand.clash>
0.0000

> <Gold.PLP.ligand.torsion>
1.3880

> <Gold.PLP.Chemscore.Hbond>
0.0998

> <Gold.PLP.Chemscore.CHOScore>
0.0000

> <Gold.PLP.Chemscore.Metal>
0.0000

> <Gold.PLP.Chemscore.Internal.Correction>
0.6187

> <Gold.Rescore>
     Score         DG    S(hbond)    S(metal)    S(lipo)     H(rot)  DE(clash)    DE(int)     intcor
     13.96     -18.01       0.37        0.00     152.00       2.54       0.78       3.27       ----

> <Gold.Chemscore.Fitness>
13.9630

> <Gold.Chemscore.DG>
-18.0130

> <Gold.Chemscore.ZeroCoef>
-5.4800

> <Gold.Chemscore.Hbond>
0.3728

> <Gold.Chemscore.Metal>
0.0000

> <Gold.Chemscore.Lipo>
152.0043

> <Gold.Chemscore.Internal_Hbond>
0.0000

> <Gold.Chemscore.DEClash>
0.7799

> <Gold.Chemscore.DEInternal>
3.2700

> <Gold.Chemscore.Rot>
2.5377

> <Gold.Chemscore.Internal.Correction>
   9.000000E+99

> <Gold.Chemscore.Hbond.Weighted>
-1.2450

> <Gold.Chemscore.Metal.Weighted>
-0.0000

> <Gold.Chemscore.Lipo.Weighted>
-17.7845

> <Gold.Chemscore.Internal_Hbond.Weighted>
0.0000

> <Gold.Chemscore.DEClash.Weighted>
0.7799

> <Gold.Chemscore.DEInternal.Weighted>
3.2700

> <Gold.Chemscore.Rot.Weighted>
6.4966

> <Gold.Chemscore.Internal.Correction.Weighted>
   9.000000E+99

> <Gold.Protein.RotatedTorsions>
[ 6907 6896 6895 6894 ] final -106.01 input  -60.11 | X-H torsion
[ 7974 7965 7964 7962 ] final  -11.96 input  175.53 | X-H torsion
[ 8008 7997 7996 7995 ] final   87.95 input   59.86 | X-H torsion
[ 10167 10162 10161 10158 ] final -155.63 input  -65.29 | X-H torsion
[ 10718 10713 10712 10709 ] final   77.94 input   66.30 | X-H torsion
[ 10763 10752 10751 10750 ] final   72.36 input  -60.55 | X-H torsion
[ 11005 11000 10999 10996 ] final -143.67 input  -57.11 | X-H torsion

> <Gold.Protein.ActiveResidues>
 VAL166  LYS551  ARG553  GLY616  TRP617  ASP618  TYR619  PRO620  LYS621  CYS622 
 ASP623  PHE694  ASN695  SER759  ASP760  ASP761  ALA762  ILE779  LEU786  VAL792 
 PHE793  MET794  SER795  GLU796  ALA797  LYS798  CYS799  TRP800  GLU811  SER814 

> <Gold.Protein.RotatedAtoms>
  150.7366  134.0040  159.3647 H   0  0  0  0  0  0  0  0  0  0  0  0  # atno 6907 bound_to 6896
  151.7996  135.0710  160.0408 H   0  0  0  0  0  0  0  0  0  0  0  0  # atno 6908 bound_to 6896
  152.3150  133.5756  159.5742 H   0  0  0  0  0  0  0  0  0  0  0  0  # atno 6909 bound_to 6896
  146.2169  140.2988  142.8373 H   0  0  0  0  0  0  0  0  0  0  0  0  # atno 7974 bound_to 7965
  155.9817  140.3377  155.6669 H   0  0  0  0  0  0  0  0  0  0  0  0  # atno 8008 bound_to 7997
  155.6539  140.0708  157.2595 H   0  0  0  0  0  0  0  0  0  0  0  0  # atno 8009 bound_to 7997
  154.4194  140.1720  156.1692 H   0  0  0  0  0  0  0  0  0  0  0  0  # atno 8010 bound_to 7997
  139.6916  143.9411  152.2387 H   0  0  0  0  0  0  0  0  0  0  0  0  # atno 10167 bound_to 10162
  157.6728  130.9845  150.1714 H   0  0  0  0  0  0  0  0  0  0  0  0  # atno 10718 bound_to 10713
  153.0454  135.5103  154.7731 H   0  0  0  0  0  0  0  0  0  0  0  0  # atno 10763 bound_to 10752
  154.6636  135.2942  154.9837 H   0  0  0  0  0  0  0  0  0  0  0  0  # atno 10764 bound_to 10752
  154.0679  135.6681  153.4873 H   0  0  0  0  0  0  0  0  0  0  0  0  # atno 10765 bound_to 10752
  140.8102  134.2753  157.4944 H   0  0  0  0  0  0  0  0  0  0  0  0  # atno 11005 bound_to 11000
  144.9073  140.7715  143.5830 LP  0  0  0  0  0  0  0  0  0  0  0  0  # atno 17320 bound_to 7965
  145.2916  139.1881  143.4737 LP  0  0  0  0  0  0  0  0  0  0  0  0  # atno 17321 bound_to 7965
  139.9229  144.6788  150.8442 LP  0  0  0  0  0  0  0  0  0  0  0  0  # atno 17342 bound_to 10162
  140.7684  143.3362  151.2304 LP  0  0  0  0  0  0  0  0  0  0  0  0  # atno 17343 bound_to 10162
  156.2468  130.3696  149.8276 LP  0  0  0  0  0  0  0  0  0  0  0  0  # atno 17370 bound_to 10713
  156.6061  130.8567  151.3443 LP  0  0  0  0  0  0  0  0  0  0  0  0  # atno 17371 bound_to 10713
  139.8714  134.9479  156.3980 LP  0  0  0  0  0  0  0  0  0  0  0  0  # atno 17394 bound_to 11000
  140.9205  133.7648  155.9901 LP  0  0  0  0  0  0  0  0  0  0  0  0  # atno 17395 bound_to 11000

$$$$
