AV-unprocessed.smi:978|AV-procd|sdf|4308|dock3
  -GOLD-   22720 2213D 1   1.00000     0.00000
 Structure written by MMmdl.
 39 40  0  0  0  0  0  0  0  0  2 V2000
  150.7416  136.1904  156.0398 C   0  0  0  0  0  0  0  0  0  0  0  0
  150.6762  134.6936  155.9138 C   0  0  0  0  0  0  0  0  0  0  0  0
  151.4116  133.9480  156.7257 N   0  0  0  0  0  0  0  0  0  0  0  0
  151.2094  132.6132  156.3427 O   0  0  0  0  0  0  0  0  0  0  0  0
  150.3442  132.5831  155.2959 C   0  0  0  0  0  0  0  0  0  0  0  0
  150.0129  131.2443  154.7284 C   0  0  0  0  0  0  0  0  0  0  0  0
  149.9584  133.8589  155.0071 C   0  0  0  0  0  0  0  0  0  0  0  0
  149.0790  134.2142  153.9533 N   0  0  0  0  0  0  0  0  0  0  0  0
  148.0156  133.5188  153.5223 C   0  0  0  0  0  0  0  0  0  0  0  0
  147.6489  132.4363  153.9782 O   0  0  0  0  0  0  0  0  0  0  0  0
  147.4021  134.1407  152.5051 N   0  0  0  0  0  0  0  0  0  0  0  0
  146.2293  133.6336  151.7984 C   0  0  2  0  0  0  0  0  0  0  0  0
  146.6539  132.5656  150.7770 C   0  0  0  0  0  0  0  0  0  0  0  0
  145.4497  132.0682  149.9589 C   0  0  0  0  0  0  0  0  0  0  0  0
  144.7586  133.1962  149.2856 N   0  3  1  0  0  0  0  0  0  0  0  0
  143.6674  132.7394  148.3984 C   0  0  0  0  0  0  0  0  0  0  0  0
  144.3057  134.2276  150.2518 C   0  0  0  0  0  0  0  0  0  0  0  0
  145.4853  134.7720  151.0745 C   0  0  0  0  0  0  0  0  0  0  0  0
  150.6427  136.6733  155.0677 H   0  0  0  0  0  0  0  0  0  0  0  0
  151.6916  136.5140  156.4665 H   0  0  0  0  0  0  0  0  0  0  0  0
  149.9468  136.5642  156.6851 H   0  0  0  0  0  0  0  0  0  0  0  0
  149.4584  131.3400  153.7948 H   0  0  0  0  0  0  0  0  0  0  0  0
  149.4035  130.6700  155.4262 H   0  0  0  0  0  0  0  0  0  0  0  0
  150.9205  130.6760  154.5240 H   0  0  0  0  0  0  0  0  0  0  0  0
  149.3420  135.0255  153.4132 H   0  0  0  0  0  0  0  0  0  0  0  0
  147.7779  135.0245  152.1931 H   0  0  0  0  0  0  0  0  0  0  0  0
  145.5541  133.1683  152.5197 H   0  0  0  0  0  0  0  0  0  0  0  0
  147.4056  132.9757  150.1005 H   0  0  0  0  0  0  0  0  0  0  0  0
  147.1238  131.7242  151.2882 H   0  0  0  0  0  0  0  0  0  0  0  0
  145.7904  131.3505  149.2117 H   0  0  0  0  0  0  0  0  0  0  0  0
  144.7466  131.5422  150.6068 H   0  0  0  0  0  0  0  0  0  0  0  0
  142.8758  132.2522  148.9693 H   0  0  0  0  0  0  0  0  0  0  0  0
  144.0422  132.0310  147.6589 H   0  0  0  0  0  0  0  0  0  0  0  0
  143.2318  133.5814  147.8597 H   0  0  0  0  0  0  0  0  0  0  0  0
  143.8285  135.0479  149.7141 H   0  0  0  0  0  0  0  0  0  0  0  0
  143.5511  133.8017  150.9151 H   0  0  0  0  0  0  0  0  0  0  0  0
  145.1194  135.5045  151.7951 H   0  0  0  0  0  0  0  0  0  0  0  0
  146.1728  135.3045  150.4151 H   0  0  0  0  0  0  0  0  0  0  0  0
  145.4436  133.6396  148.6901 H   0  0  0  0  0  0  0  0  0  0  0  0
  1  2  1  0  0  0  0
  1 19  1  0  0  0  0
  1 20  1  0  0  0  0
  1 21  1  0  0  0  0
  2  7  1  0  0  0  0
  2  3  2  0  0  0  0
  3  4  1  0  0  0  0
  4  5  1  0  0  0  0
  5  6  1  0  0  0  0
  5  7  2  0  0  0  0
  6 22  1  0  0  0  0
  6 23  1  0  0  0  0
  6 24  1  0  0  0  0
  7  8  1  0  0  0  0
  8  9  1  0  0  0  0
  8 25  1  0  0  0  0
  9 10  2  0  0  0  0
  9 11  1  0  0  0  0
 11 12  1  0  0  0  0
 11 26  1  0  0  0  0
 12 18  1  0  0  0  0
 12 13  1  0  0  0  0
 12 27  1  0  0  0  0
 13 14  1  0  0  0  0
 13 28  1  0  0  0  0
 13 29  1  0  0  0  0
 14 15  1  0  0  0  0
 14 30  1  0  0  0  0
 14 31  1  0  0  0  0
 15 16  1  0  0  0  0
 15 17  1  0  0  0  0
 15 39  1  0  0  0  0
 16 32  1  0  0  0  0
 16 33  1  0  0  0  0
 16 34  1  0  0  0  0
 17 18  1  0  0  0  0
 17 35  1  0  0  0  0
 17 36  1  0  0  0  0
 18 37  1  0  0  0  0
 18 38  1  0  0  0  0
M  CHG  1  15   1
M  END
> <s_m_source_file>
AV-unprocessed.smi

> <i_m_source_file_index>
978

> <i_lp_mmshare_version>
43012

> <i_f3d_flags>
0

> <s_epik_input>
W0NIM11jMW5vYyhbQ0gzXSljMVtOSF1DKD1PKVtOSF1bQ0hdMltDSDJdW0NIMl1OKFtDSDNdKVtDSDJdW0NIMl0y

> <s_epik_cmdline>
J2VwaWtfcHl0aG9uJywgJy1waCcsICc3LjAnLCAnLXRuJywgJzgnLCAnLW1hJywgJzIwMCcsICctbWV0YWxfYmluZGluZycsICctaW1hZScsICc8aW5maWxlLm1hZT4nLCAnLW9tYWUnLCAnPG91dGZpbGUubWFlPic=

> <r_epik_Ionization_Penalty>
0.00369783

> <r_epik_Ionization_Penalty_Charging>
0.00366825

> <r_epik_Ionization_Penalty_Neutral>
2.95799e-05

> <r_epik_State_Penalty>
0.00261101

> <r_epik_Charging_Adjusted_Penalty>
0.00627926

> <i_epik_Tot_Q>
1

> <i_epik_Tot_abs_Q>
1

> <r_epik_Metal_State_Penalty>
-0

> <b_epik_Metal_Only>
0

> <s_lp_Force_Field>
OPLS_2005

> <r_lp_Energy>
17.6402

> <b_lp_Chiralities_Consistent>
1

> <s_lp_Variant>
AV-unprocessed.smi:978-1

> <Gold.Version>
5.8.1

> <Gold.Id.Protein>
6NUR|6NUR_protein|mol2

> <Gold.PLP.Fitness>
40.2272

> <Gold.PLP.PLP>
-32.8125

> <Gold.PLP.part.hbond>
-3.7246

> <Gold.PLP.part.metal>
0.0000

> <Gold.PLP.part.buried>
-2.4504

> <Gold.PLP.part.nonpolar>
-26.7337

> <Gold.PLP.part.repulsive>
0.2367

> <Gold.PLP.ligand.clash>
0.0000

> <Gold.PLP.ligand.torsion>
0.5181

> <Gold.PLP.Chemscore.Hbond>
2.7320

> <Gold.PLP.Chemscore.CHOScore>
0.0000

> <Gold.PLP.Chemscore.Metal>
0.0000

> <Gold.Chemscore.Hbonds>
donor molecule, donor type, donor heavy atom, donor atom, acceptor molecule, acceptor atom, score
      L1  H     8    25       P1  7948  0.67
      L1  H    11    26       P1  7948  1.00
      L1  H    15    39       P1  7921  1.00

> <Gold.PLP.Chemscore.Internal.Correction>
0.2549

> <Gold.Rescore>
     Score         DG    S(hbond)    S(metal)    S(lipo)     H(rot)  DE(clash)    DE(int)     intcor
     16.79     -19.98       2.52        0.00      73.78       1.00       0.11       3.08       ----

> <Gold.Chemscore.Fitness>
16.7907

> <Gold.Chemscore.DG>
-19.9763

> <Gold.Chemscore.ZeroCoef>
-5.4800

> <Gold.Chemscore.Hbond>
2.5221

> <Gold.Chemscore.Metal>
0.0000

> <Gold.Chemscore.Lipo>
73.7815

> <Gold.Chemscore.Internal_Hbond>
0.0000

> <Gold.Chemscore.DEClash>
0.1103

> <Gold.Chemscore.DEInternal>
3.0754

> <Gold.Chemscore.Rot>
1.0000

> <Gold.Chemscore.Internal.Correction>
   9.000000E+99

> <Gold.Chemscore.Hbonds>
donor molecule, donor type, donor heavy atom, donor atom, acceptor molecule, acceptor atom, score
      L1  H     8    25       P1  7948  0.07
      L1  H    11    26       P1  7948  0.87
      L1  H    15    39       P1  7921  0.45

> <Gold.Chemscore.Hbond.Weighted>
-8.4239

> <Gold.Chemscore.Metal.Weighted>
-0.0000

> <Gold.Chemscore.Lipo.Weighted>
-8.6324

> <Gold.Chemscore.Internal_Hbond.Weighted>
0.0000

> <Gold.Chemscore.DEClash.Weighted>
0.1103

> <Gold.Chemscore.DEInternal.Weighted>
3.0754

> <Gold.Chemscore.Rot.Weighted>
2.5600

> <Gold.Chemscore.Internal.Correction.Weighted>
   9.000000E+99

> <Gold.Protein.RotatedTorsions>
[ 6907 6896 6895 6894 ] final   19.50 input  -60.11 | X-H torsion
[ 7974 7965 7964 7962 ] final -120.71 input  175.53 | X-H torsion
[ 8008 7997 7996 7995 ] final   97.46 input   59.86 | X-H torsion
[ 10167 10162 10161 10158 ] final   35.77 input  -65.29 | X-H torsion
[ 10718 10713 10712 10709 ] final  147.34 input   66.30 | X-H torsion
[ 10763 10752 10751 10750 ] final   87.00 input  -60.55 | X-H torsion
[ 11005 11000 10999 10996 ] final -108.80 input  -57.11 | X-H torsion

> <Gold.Protein.ActiveResidues>
 VAL166  LYS551  ARG553  GLY616  TRP617  ASP618  TYR619  PRO620  LYS621  CYS622 
 ASP623  PHE694  ASN695  SER759  ASP760  ASP761  ALA762  ILE779  LEU786  VAL792 
 PHE793  MET794  SER795  GLU796  ALA797  LYS798  CYS799  TRP800  GLU811  SER814 

> <Gold.Protein.RotatedAtoms>
  151.8819  135.0450  160.0489 H   0  0  0  0  0  0  0  0  0  0  0  0  # atno 6907 bound_to 6896
  152.2506  133.5207  159.5331 H   0  0  0  0  0  0  0  0  0  0  0  0  # atno 6908 bound_to 6896
  150.7082  134.0882  159.3964 H   0  0  0  0  0  0  0  0  0  0  0  0  # atno 6909 bound_to 6896
  145.0484  140.8199  143.4224 H   0  0  0  0  0  0  0  0  0  0  0  0  # atno 7974 bound_to 7965
  156.0904  140.3258  155.7808 H   0  0  0  0  0  0  0  0  0  0  0  0  # atno 8008 bound_to 7997
  155.5006  140.0569  157.2957 H   0  0  0  0  0  0  0  0  0  0  0  0  # atno 8009 bound_to 7997
  154.4634  140.1977  156.0199 H   0  0  0  0  0  0  0  0  0  0  0  0  # atno 8010 bound_to 7997
  140.4190  144.1486  150.6146 H   0  0  0  0  0  0  0  0  0  0  0  0  # atno 10167 bound_to 10162
  157.3222  131.0906  151.1231 H   0  0  0  0  0  0  0  0  0  0  0  0  # atno 10718 bound_to 10713
  153.1625  135.4559  154.9792 H   0  0  0  0  0  0  0  0  0  0  0  0  # atno 10763 bound_to 10752
  154.7908  135.3220  154.7784 H   0  0  0  0  0  0  0  0  0  0  0  0  # atno 10764 bound_to 10752
  153.8271  135.6942  153.4874 H   0  0  0  0  0  0  0  0  0  0  0  0  # atno 10765 bound_to 10752
  141.0882  133.9101  157.2136 H   0  0  0  0  0  0  0  0  0  0  0  0  # atno 11005 bound_to 11000
  145.1559  139.2487  143.5417 LP  0  0  0  0  0  0  0  0  0  0  0  0  # atno 17320 bound_to 7965
  146.3516  140.1273  142.8598 LP  0  0  0  0  0  0  0  0  0  0  0  0  # atno 17321 bound_to 7965
  140.4554  143.2470  151.9291 LP  0  0  0  0  0  0  0  0  0  0  0  0  # atno 17342 bound_to 10162
  139.4782  144.5520  151.8371 LP  0  0  0  0  0  0  0  0  0  0  0  0  # atno 17343 bound_to 10162
  157.2511  130.6614  149.5932 LP  0  0  0  0  0  0  0  0  0  0  0  0  # atno 17370 bound_to 10713
  155.9687  130.4538  150.5825 LP  0  0  0  0  0  0  0  0  0  0  0  0  # atno 17371 bound_to 10713
  139.9704  135.0130  156.9496 LP  0  0  0  0  0  0  0  0  0  0  0  0  # atno 17394 bound_to 11000
  140.5313  134.0810  155.7316 LP  0  0  0  0  0  0  0  0  0  0  0  0  # atno 17395 bound_to 11000

$$$$
