AV-unprocessed.smi:2940|AV-procd|sdf|11262|dock2
  -GOLD-   2272016153D 1   1.00000     0.00000
 Structure written by MMmdl.
 26 27  0  0  0  0  0  0  0  0  1 V2000
  148.6615  140.3062  153.7815 N   0  0  0  0  0  0  0  0  0  0  0  0
  149.4334  140.6854  154.8766 C   0  0  0  0  0  0  0  0  0  0  0  0
  148.8456  141.3934  155.9441 C   0  0  0  0  0  0  0  0  0  0  0  0
  149.6580  141.7598  157.0342 C   0  0  0  0  0  0  0  0  0  0  0  0
  151.0264  141.4058  157.0176 C   0  0  0  0  0  0  0  0  0  0  0  0
  151.8993  141.7364  158.0638 N   0  0  0  0  0  0  0  0  0  0  0  0
  151.3602  142.7428  158.9698 C   0  0  0  0  0  0  0  0  0  0  0  0
  152.4212  143.1345  160.0135 C   0  0  0  0  0  0  0  0  0  0  0  0
  152.8687  141.9693  160.7009 O   0  0  0  0  0  0  0  0  0  0  0  0
  153.4624  141.0224  159.8172 C   0  0  0  0  0  0  0  0  0  0  0  0
  152.4279  140.5754  158.7691 C   0  0  0  0  0  0  0  0  0  0  0  0
  151.5110  140.6967  155.8980 C   0  0  0  0  0  0  0  0  0  0  0  0
  150.7382  140.3415  154.8487 N   0  0  0  0  0  0  0  0  0  0  0  0
  149.0583  139.7987  153.0042 H   0  0  0  0  0  0  0  0  0  0  0  0
  147.6782  140.5302  153.7307 H   0  0  0  0  0  0  0  0  0  0  0  0
  147.7966  141.6516  155.9311 H   0  0  0  0  0  0  0  0  0  0  0  0
  149.2339  142.3036  157.8655 H   0  0  0  0  0  0  0  0  0  0  0  0
  151.0505  143.6225  158.4042 H   0  0  0  0  0  0  0  0  0  0  0  0
  150.4746  142.3521  159.4730 H   0  0  0  0  0  0  0  0  0  0  0  0
  153.2662  143.6369  159.5398 H   0  0  0  0  0  0  0  0  0  0  0  0
  151.9987  143.8330  160.7356 H   0  0  0  0  0  0  0  0  0  0  0  0
  154.3401  141.4581  159.3368 H   0  0  0  0  0  0  0  0  0  0  0  0
  153.8076  140.1650  160.3948 H   0  0  0  0  0  0  0  0  0  0  0  0
  151.6158  140.0372  159.2597 H   0  0  0  0  0  0  0  0  0  0  0  0
  152.8894  139.8889  158.0582 H   0  0  0  0  0  0  0  0  0  0  0  0
  152.5495  140.4049  155.8407 H   0  0  0  0  0  0  0  0  0  0  0  0
  1  2  1  0  0  0  0
  1 14  1  0  0  0  0
  1 15  1  0  0  0  0
  2 13  1  0  0  0  0
  2  3  2  0  0  0  0
  3  4  1  0  0  0  0
  3 16  1  0  0  0  0
  4  5  2  0  0  0  0
  4 17  1  0  0  0  0
  5  6  1  0  0  0  0
  5 12  1  0  0  0  0
  6 11  1  0  0  0  0
  6  7  1  0  0  0  0
  7  8  1  0  0  0  0
  7 18  1  0  0  0  0
  7 19  1  0  0  0  0
  8  9  1  0  0  0  0
  8 20  1  0  0  0  0
  8 21  1  0  0  0  0
  9 10  1  0  0  0  0
 10 11  1  0  0  0  0
 10 22  1  0  0  0  0
 10 23  1  0  0  0  0
 11 24  1  0  0  0  0
 11 25  1  0  0  0  0
 12 13  2  0  0  0  0
 12 26  1  0  0  0  0
M  END
> <s_m_source_file>
AV-unprocessed.smi

> <i_m_source_file_index>
2940

> <i_lp_mmshare_version>
43012

> <i_f3d_flags>
0

> <s_epik_input>
W05IMl1jMVtjSF1bY0hdYyhbY0hdbjEpTjJbQ0gyXVtDSDJdT1tDSDJdW0NIMl0y

> <s_epik_cmdline>
J2VwaWtfcHl0aG9uJywgJy1waCcsICc3LjAnLCAnLXRuJywgJzgnLCAnLW1hJywgJzIwMCcsICctbWV0YWxfYmluZGluZycsICctaW1hZScsICc8aW5maWxlLm1hZT4nLCAnLW9tYWUnLCAnPG91dGZpbGUubWFlPic=

> <r_lp_tautomer_probability>
1

> <r_epik_Ionization_Penalty>
0.109499

> <r_epik_Ionization_Penalty_Charging>
0

> <r_epik_Ionization_Penalty_Neutral>
0.109499

> <r_epik_State_Penalty>
0.0992404

> <r_epik_Charging_Adjusted_Penalty>
0.0992404

> <i_epik_Tot_Q>
0

> <i_epik_Tot_abs_Q>
0

> <r_epik_Metal_State_Penalty>
0.000108026

> <b_epik_Metal_Only>
0

> <s_lp_Force_Field>
OPLS_2005

> <r_lp_Energy>
21.5337

> <b_lp_Chiralities_Consistent>
1

> <s_lp_Variant>
AV-unprocessed.smi:2940-1

> <Gold.Version>
5.8.1

> <Gold.Id.Protein>
6NUR|6NUR_protein|mol2

> <Gold.PLP.Fitness>
30.4576

> <Gold.PLP.PLP>
-25.2646

> <Gold.PLP.part.hbond>
-2.0000

> <Gold.PLP.part.metal>
0.0000

> <Gold.PLP.part.buried>
-4.6636

> <Gold.PLP.part.nonpolar>
-18.6754

> <Gold.PLP.part.repulsive>
0.2139

> <Gold.PLP.ligand.clash>
0.0000

> <Gold.PLP.ligand.torsion>
0.2031

> <Gold.PLP.Chemscore.Hbond>
1.8320

> <Gold.PLP.Chemscore.CHOScore>
0.0000

> <Gold.PLP.Chemscore.Metal>
0.0000

> <Gold.Chemscore.Hbonds>
donor molecule, donor type, donor heavy atom, donor atom, acceptor molecule, acceptor atom, score
      L1  H     1    14       P1  7957  0.83
      P1  H  7989  7998       L1    13  1.00

> <Gold.PLP.Chemscore.Internal.Correction>
0.1032

> <Gold.Rescore>
     Score         DG    S(hbond)    S(metal)    S(lipo)     H(rot)  DE(clash)    DE(int)     intcor
     15.29     -15.71       1.75        0.00      59.36       1.00       0.14       0.29       ----

> <Gold.Chemscore.Fitness>
15.2921

> <Gold.Chemscore.DG>
-15.7145

> <Gold.Chemscore.ZeroCoef>
-5.4800

> <Gold.Chemscore.Hbond>
1.7514

> <Gold.Chemscore.Metal>
0.0000

> <Gold.Chemscore.Lipo>
59.3586

> <Gold.Chemscore.Internal_Hbond>
0.0000

> <Gold.Chemscore.DEClash>
0.1357

> <Gold.Chemscore.DEInternal>
0.2866

> <Gold.Chemscore.Rot>
1.0000

> <Gold.Chemscore.Internal.Correction>
   9.000000E+99

> <Gold.Chemscore.Hbonds>
donor molecule, donor type, donor heavy atom, donor atom, acceptor molecule, acceptor atom, score
      L1  H     1    14       P1  7957  0.82
      P1  H  7989  7998       L1    13  0.36

> <Gold.Chemscore.Hbond.Weighted>
-5.8495

> <Gold.Chemscore.Metal.Weighted>
-0.0000

> <Gold.Chemscore.Lipo.Weighted>
-6.9450

> <Gold.Chemscore.Internal_Hbond.Weighted>
0.0000

> <Gold.Chemscore.DEClash.Weighted>
0.1357

> <Gold.Chemscore.DEInternal.Weighted>
0.2866

> <Gold.Chemscore.Rot.Weighted>
2.5600

> <Gold.Chemscore.Internal.Correction.Weighted>
   9.000000E+99

> <Gold.Protein.RotatedTorsions>
[ 6907 6896 6895 6894 ] final  -55.53 input  -60.11 | X-H torsion
[ 7974 7965 7964 7962 ] final   92.49 input  175.53 | X-H torsion
[ 8008 7997 7996 7995 ] final   64.44 input   59.86 | X-H torsion
[ 10167 10162 10161 10158 ] final  117.12 input  -65.29 | X-H torsion
[ 10718 10713 10712 10709 ] final  -97.44 input   66.30 | X-H torsion
[ 10763 10752 10751 10750 ] final  108.11 input  -60.55 | X-H torsion
[ 11005 11000 10999 10996 ] final  -65.33 input  -57.11 | X-H torsion

> <Gold.Protein.ActiveResidues>
 VAL166  LYS551  ARG553  GLY616  TRP617  ASP618  TYR619  PRO620  LYS621  CYS622 
 ASP623  PHE694  ASN695  SER759  ASP760  ASP761  ALA762  ILE779  LEU786  VAL792 
 PHE793  MET794  SER795  GLU796  ALA797  LYS798  CYS799  TRP800  GLU811  SER814 

> <Gold.Protein.RotatedAtoms>
  150.8244  134.7468  159.6799 H   0  0  0  0  0  0  0  0  0  0  0  0  # atno 6907 bound_to 6896
  152.4356  134.5689  159.9925 H   0  0  0  0  0  0  0  0  0  0  0  0  # atno 6908 bound_to 6896
  151.5865  133.3334  159.3055 H   0  0  0  0  0  0  0  0  0  0  0  0  # atno 6909 bound_to 6896
  145.4916  139.2276  143.2826 H   0  0  0  0  0  0  0  0  0  0  0  0  # atno 7974 bound_to 7965
  155.6460  140.3497  155.4731 H   0  0  0  0  0  0  0  0  0  0  0  0  # atno 8008 bound_to 7997
  155.9887  140.1189  157.0682 H   0  0  0  0  0  0  0  0  0  0  0  0  # atno 8009 bound_to 7997
  154.4212  140.1124  156.5522 H   0  0  0  0  0  0  0  0  0  0  0  0  # atno 8010 bound_to 7997
  139.6200  144.7099  151.2655 H   0  0  0  0  0  0  0  0  0  0  0  0  # atno 10167 bound_to 10162
  156.0083  130.5194  150.6374 H   0  0  0  0  0  0  0  0  0  0  0  0  # atno 10718 bound_to 10713
  153.4160  135.3823  155.2081 H   0  0  0  0  0  0  0  0  0  0  0  0  # atno 10763 bound_to 10752
  154.8741  135.3806  154.4442 H   0  0  0  0  0  0  0  0  0  0  0  0  # atno 10764 bound_to 10752
  153.4956  135.7088  153.5922 H   0  0  0  0  0  0  0  0  0  0  0  0  # atno 10765 bound_to 10752
  141.1451  133.6680  156.5970 H   0  0  0  0  0  0  0  0  0  0  0  0  # atno 11005 bound_to 11000
  146.2280  140.5711  142.8988 LP  0  0  0  0  0  0  0  0  0  0  0  0  # atno 17320 bound_to 7965
  144.7830  140.5880  143.6592 LP  0  0  0  0  0  0  0  0  0  0  0  0  # atno 17321 bound_to 7965
  140.7376  143.6674  150.8111 LP  0  0  0  0  0  0  0  0  0  0  0  0  # atno 17342 bound_to 10162
  140.0283  143.5470  152.2771 LP  0  0  0  0  0  0  0  0  0  0  0  0  # atno 17343 bound_to 10162
  157.4161  131.0830  151.1175 LP  0  0  0  0  0  0  0  0  0  0  0  0  # atno 17370 bound_to 10713
  157.1792  130.6302  149.5666 LP  0  0  0  0  0  0  0  0  0  0  0  0  # atno 17371 bound_to 10713
  140.3718  134.7599  157.4604 LP  0  0  0  0  0  0  0  0  0  0  0  0  # atno 17394 bound_to 11000
  140.0705  134.5870  155.8648 LP  0  0  0  0  0  0  0  0  0  0  0  0  # atno 17395 bound_to 11000

$$$$
