AV-unprocessed.smi:3228|AV-procd|sdf|12321|dock7
  -GOLD-   2272018173D 1   1.00000     0.00000
 Structure written by MMmdl.
 31 32  0  0  0  0  0  0  0  0  1 V2000
  145.2368  138.4027  152.7554 O   0  0  0  0  0  0  0  0  0  0  0  0
  146.2154  137.6696  152.6088 C   0  0  0  0  0  0  0  0  0  0  0  0
  146.1417  136.4347  152.0918 N   0  0  0  0  0  0  0  0  0  0  0  0
  144.9125  135.7894  151.6413 C   0  0  0  0  0  0  0  0  0  0  0  0
  145.0982  134.2740  151.4123 C   0  0  2  0  0  0  0  0  0  0  0  0
  146.4643  133.8877  150.8339 C   0  0  0  0  0  0  0  0  0  0  0  0
  146.2665  132.5117  150.1794 C   0  0  0  0  0  0  0  0  0  0  0  0
  144.7513  132.2558  150.1440 C   0  0  0  0  0  0  0  0  0  0  0  0
  144.0881  133.5977  150.4714 C   0  0  2  0  0  0  0  0  0  0  0  0
  143.9229  134.3333  149.2729 O   0  0  0  0  0  0  0  0  0  0  0  0
  147.4807  137.9878  152.9345 N   0  0  0  0  0  0  0  0  0  0  0  0
  147.9600  139.1894  153.5194 C   0  0  0  0  0  0  0  0  0  0  0  0
  149.0774  139.2801  154.2502 N   0  0  0  0  0  0  0  0  0  0  0  0
  149.3086  140.5839  154.6958 C   0  0  0  0  0  0  0  0  0  0  0  0
  148.3500  141.4798  154.2923 C   0  0  0  0  0  0  0  0  0  0  0  0
  147.1114  140.7171  153.3312 S   0  0  0  0  0  0  0  0  0  0  0  0
  146.9941  135.9002  152.0094 H   0  0  0  0  0  0  0  0  0  0  0  0
  144.1399  135.9711  152.3887 H   0  0  0  0  0  0  0  0  0  0  0  0
  144.5616  136.2655  150.7242 H   0  0  0  0  0  0  0  0  0  0  0  0
  145.0152  133.7753  152.3798 H   0  0  0  0  0  0  0  0  0  0  0  0
  146.7663  134.6099  150.0740 H   0  0  0  0  0  0  0  0  0  0  0  0
  147.2424  133.8740  151.5978 H   0  0  0  0  0  0  0  0  0  0  0  0
  146.6858  132.5090  149.1729 H   0  0  0  0  0  0  0  0  0  0  0  0
  146.7727  131.7286  150.7445 H   0  0  0  0  0  0  0  0  0  0  0  0
  144.4172  131.8345  149.1948 H   0  0  0  0  0  0  0  0  0  0  0  0
  144.4968  131.5348  150.9217 H   0  0  0  0  0  0  0  0  0  0  0  0
  143.1135  133.4645  150.9417 H   0  0  0  0  0  0  0  0  0  0  0  0
  144.7097  134.2473  148.7572 H   0  0  0  0  0  0  0  0  0  0  0  0
  148.1826  137.2866  152.7493 H   0  0  0  0  0  0  0  0  0  0  0  0
  150.1826  140.7858  155.2974 H   0  0  0  0  0  0  0  0  0  0  0  0
  148.2980  142.5378  154.5013 H   0  0  0  0  0  0  0  0  0  0  0  0
  1  2  2  0  0  0  0
  2  3  1  0  0  0  0
  2 11  1  0  0  0  0
  3  4  1  0  0  0  0
  3 17  1  0  0  0  0
  4  5  1  0  0  0  0
  4 18  1  0  0  0  0
  4 19  1  0  0  0  0
  5  9  1  0  0  0  0
  5  6  1  0  0  0  0
  5 20  1  0  0  0  0
  6  7  1  0  0  0  0
  6 21  1  0  0  0  0
  6 22  1  0  0  0  0
  7  8  1  0  0  0  0
  7 23  1  0  0  0  0
  7 24  1  0  0  0  0
  8  9  1  0  0  0  0
  8 25  1  0  0  0  0
  8 26  1  0  0  0  0
  9 10  1  0  0  0  0
  9 27  1  0  0  0  0
 10 28  1  0  0  0  0
 11 12  1  0  0  0  0
 11 29  1  0  0  0  0
 12 16  1  0  0  0  0
 12 13  2  0  0  0  0
 13 14  1  0  0  0  0
 14 15  2  0  0  0  0
 14 30  1  0  0  0  0
 15 16  1  0  0  0  0
 15 31  1  0  0  0  0
M  END
> <s_m_source_file>
AV-unprocessed.smi

> <i_m_source_file_index>
3228

> <i_lp_mmshare_version>
43012

> <i_f3d_flags>
0

> <s_epik_input>
czFbY0hdW2NIXW5jMVtOSF1DKD1PKVtOSF1bQ0gyXVtDQEBIXTJbQ0gyXVtDSDJdW0NIMl1bQ0BIXTJbT0hd

> <s_epik_cmdline>
J2VwaWtfcHl0aG9uJywgJy1waCcsICc3LjAnLCAnLXRuJywgJzgnLCAnLW1hJywgJzIwMCcsICctbWV0YWxfYmluZGluZycsICctaW1hZScsICc8aW5maWxlLm1hZT4nLCAnLW9tYWUnLCAnPG91dGZpbGUubWFlPic=

> <r_lp_tautomer_probability>
0.999

> <r_epik_Ionization_Penalty>
0.000399498

> <r_epik_Ionization_Penalty_Charging>
0

> <r_epik_Ionization_Penalty_Neutral>
0.000399498

> <r_epik_State_Penalty>
0.000177984

> <r_epik_Charging_Adjusted_Penalty>
0.000177984

> <i_epik_Tot_Q>
0

> <i_epik_Tot_abs_Q>
0

> <r_epik_Metal_State_Penalty>
0.0060793

> <b_epik_Metal_Only>
0

> <s_lp_Force_Field>
OPLS_2005

> <r_lp_Energy>
23.3722

> <b_lp_Chiralities_Consistent>
1

> <s_lp_Variant>
AV-unprocessed.smi:3228-3

> <Gold.Version>
5.8.1

> <Gold.Id.Protein>
6NUR|6NUR_protein|mol2

> <Gold.PLP.Fitness>
38.8868

> <Gold.PLP.PLP>
-28.4445

> <Gold.PLP.part.hbond>
-3.9618

> <Gold.PLP.part.metal>
0.0000

> <Gold.PLP.part.buried>
-3.8157

> <Gold.PLP.part.nonpolar>
-24.6658

> <Gold.PLP.part.repulsive>
3.9027

> <Gold.PLP.ligand.clash>
0.0000

> <Gold.PLP.ligand.torsion>
0.4554

> <Gold.PLP.Chemscore.Hbond>
2.7840

> <Gold.PLP.Chemscore.CHOScore>
1.0000

> <Gold.PLP.Chemscore.Metal>
0.0000

> <Gold.Chemscore.Hbonds>
donor molecule, donor type, donor heavy atom, donor atom, acceptor molecule, acceptor atom, score
      L1  H     3    17       P1  7948  0.78
      L1  H    10    28       P1  7921  1.00
      L1  H    11    29       P1  7948  1.00
      L1  C    15    31       P1  8028  1.00

> <Gold.PLP.Chemscore.Internal.Correction>
0.0011

> <Gold.Rescore>
     Score         DG    S(hbond)    S(metal)    S(lipo)     H(rot)  DE(clash)    DE(int)     intcor
     15.54     -17.82       2.83        0.00      65.76       1.88       1.61       0.67       ----

> <Gold.Chemscore.Fitness>
15.5436

> <Gold.Chemscore.DG>
-17.8217

> <Gold.Chemscore.ZeroCoef>
-5.4800

> <Gold.Chemscore.Hbond>
2.8314

> <Gold.Chemscore.Metal>
0.0000

> <Gold.Chemscore.Lipo>
65.7605

> <Gold.Chemscore.Internal_Hbond>
0.0000

> <Gold.Chemscore.DEClash>
1.6089

> <Gold.Chemscore.DEInternal>
0.6692

> <Gold.Chemscore.Rot>
1.8786

> <Gold.Chemscore.Internal.Correction>
   9.000000E+99

> <Gold.Chemscore.Hbonds>
donor molecule, donor type, donor heavy atom, donor atom, acceptor molecule, acceptor atom, score
      L1  H     3    17       P1  7948  0.76
      L1  H    10    28       P1  7921  0.99
      L1  H    11    29       P1  7948  0.95

> <Gold.Chemscore.Hbond.Weighted>
-9.4568

> <Gold.Chemscore.Metal.Weighted>
-0.0000

> <Gold.Chemscore.Lipo.Weighted>
-7.6940

> <Gold.Chemscore.Internal_Hbond.Weighted>
0.0000

> <Gold.Chemscore.DEClash.Weighted>
1.6089

> <Gold.Chemscore.DEInternal.Weighted>
0.6692

> <Gold.Chemscore.Rot.Weighted>
4.8091

> <Gold.Chemscore.Internal.Correction.Weighted>
   9.000000E+99

> <Gold.Protein.RotatedTorsions>
[ 6907 6896 6895 6894 ] final -165.29 input  -60.11 | X-H torsion
[ 7974 7965 7964 7962 ] final -133.63 input  175.53 | X-H torsion
[ 8008 7997 7996 7995 ] final  151.13 input   59.86 | X-H torsion
[ 10167 10162 10161 10158 ] final  141.60 input  -65.29 | X-H torsion
[ 10718 10713 10712 10709 ] final  -84.38 input   66.30 | X-H torsion
[ 10763 10752 10751 10750 ] final  -24.78 input  -60.55 | X-H torsion
[ 11005 11000 10999 10996 ] final  -45.20 input  -57.11 | X-H torsion

> <Gold.Protein.ActiveResidues>
 VAL166  LYS551  ARG553  GLY616  TRP617  ASP618  TYR619  PRO620  LYS621  CYS622 
 ASP623  PHE694  ASN695  SER759  ASP760  ASP761  ALA762  ILE779  LEU786  VAL792 
 PHE793  MET794  SER795  GLU796  ALA797  LYS798  CYS799  TRP800  GLU811  SER814 

> <Gold.Protein.RotatedAtoms>
  151.4254  133.3686  159.2761 H   0  0  0  0  0  0  0  0  0  0  0  0  # atno 6907 bound_to 6896
  150.9263  134.8681  159.7533 H   0  0  0  0  0  0  0  0  0  0  0  0  # atno 6908 bound_to 6896
  152.5007  134.4195  159.9528 H   0  0  0  0  0  0  0  0  0  0  0  0  # atno 6909 bound_to 6896
  144.9176  140.6974  143.4985 H   0  0  0  0  0  0  0  0  0  0  0  0  # atno 7974 bound_to 7965
  156.2687  140.2056  156.6126 H   0  0  0  0  0  0  0  0  0  0  0  0  # atno 8008 bound_to 7997
  154.6819  140.0539  157.0299 H   0  0  0  0  0  0  0  0  0  0  0  0  # atno 8009 bound_to 7997
  155.0988  140.3204  155.4556 H   0  0  0  0  0  0  0  0  0  0  0  0  # atno 8010 bound_to 7997
  139.5016  144.6161  151.6161 H   0  0  0  0  0  0  0  0  0  0  0  0  # atno 10167 bound_to 10162
  156.0007  130.4696  150.4401 H   0  0  0  0  0  0  0  0  0  0  0  0  # atno 10718 bound_to 10713
  153.6893  135.6962  153.5094 H   0  0  0  0  0  0  0  0  0  0  0  0  # atno 10763 bound_to 10752
  153.2425  135.4301  155.0712 H   0  0  0  0  0  0  0  0  0  0  0  0  # atno 10764 bound_to 10752
  154.8377  135.3511  154.6435 H   0  0  0  0  0  0  0  0  0  0  0  0  # atno 10765 bound_to 10752
  141.0500  133.6746  156.2980 H   0  0  0  0  0  0  0  0  0  0  0  0  # atno 11005 bound_to 11000
  145.3349  139.1748  143.4517 LP  0  0  0  0  0  0  0  0  0  0  0  0  # atno 17320 bound_to 7965
  146.3189  140.3384  142.8646 LP  0  0  0  0  0  0  0  0  0  0  0  0  # atno 17321 bound_to 7965
  140.5849  143.9881  150.6290 LP  0  0  0  0  0  0  0  0  0  0  0  0  # atno 17342 bound_to 10162
  140.3042  143.3240  152.0942 LP  0  0  0  0  0  0  0  0  0  0  0  0  # atno 17343 bound_to 10162
  157.2443  131.0532  151.2418 LP  0  0  0  0  0  0  0  0  0  0  0  0  # atno 17370 bound_to 10713
  157.3590  130.7121  149.6489 LP  0  0  0  0  0  0  0  0  0  0  0  0  # atno 17371 bound_to 10713
  140.6073  134.5494  157.5528 LP  0  0  0  0  0  0  0  0  0  0  0  0  # atno 17394 bound_to 11000
  139.9343  134.7905  156.0846 LP  0  0  0  0  0  0  0  0  0  0  0  0  # atno 17395 bound_to 11000

$$$$
