AV-unprocessed.smi:126|AV-procd|sdf|1152|dock2
  -GOLD-   2262018283D 1   1.00000     0.00000
 Structure written by MMmdl.
 40 42  0  0  0  0  0  0  0  0  1 V2000
  151.8836  136.0409  156.3877 O   0  0  0  0  0  0  0  0  0  0  0  0
  151.5619  137.1689  156.7641 C   0  0  0  0  0  0  0  0  0  0  0  0
  152.3328  138.4027  156.2690 C   0  0  0  0  0  0  0  0  0  0  0  0
  151.5578  139.6590  156.3699 N   0  0  0  0  0  0  0  0  0  0  0  0
  150.7304  140.0310  155.2814 C   0  0  0  0  0  0  0  0  0  0  0  0
  150.6452  139.3256  154.2748 O   0  0  0  0  0  0  0  0  0  0  0  0
  150.0079  141.2881  155.4395 C   0  0  0  0  0  0  0  0  0  0  0  0
  149.1930  141.7149  154.4598 F   0  0  0  0  0  0  0  0  0  0  0  0
  150.1427  142.0316  156.5569 C   0  0  0  0  0  0  0  0  0  0  0  0
  150.9627  141.6613  157.6078 N   0  0  0  0  0  0  0  0  0  0  0  0
  151.1049  142.5088  158.8541 C   0  0  1  0  0  0  0  0  0  0  0  0
  152.5811  142.8746  159.0951 C   0  0  0  0  0  0  0  0  0  0  0  0
  152.5227  144.3754  159.2978 C   0  0  0  0  0  0  0  0  0  0  0  0
  151.3272  144.7607  158.4397 C   0  0  0  0  0  0  0  0  0  0  0  0
  150.4043  143.7100  158.6954 O   0  0  0  0  0  0  0  0  0  0  0  0
  151.6934  140.4557  157.5315 C   0  0  0  0  0  0  0  0  0  0  0  0
  152.4356  140.1134  158.4547 O   0  0  0  0  0  0  0  0  0  0  0  0
  150.5744  137.4255  157.6410 N   0  0  0  0  0  0  0  0  0  0  0  0
  149.6694  136.5134  158.2480 C   0  0  0  0  0  0  0  0  0  0  0  0
  149.1725  136.8474  159.5255 C   0  0  0  0  0  0  0  0  0  0  0  0
  148.2550  136.0020  160.1787 C   0  0  0  0  0  0  0  0  0  0  0  0
  147.8170  134.8201  159.5524 C   0  0  0  0  0  0  0  0  0  0  0  0
  148.2934  134.4874  158.2705 C   0  0  0  0  0  0  0  0  0  0  0  0
  149.2125  135.3308  157.6163 C   0  0  0  0  0  0  0  0  0  0  0  0
  153.2660  138.4877  156.8287 H   0  0  0  0  0  0  0  0  0  0  0  0
  152.6564  138.2128  155.2446 H   0  0  0  0  0  0  0  0  0  0  0  0
  149.5784  142.9497  156.6120 H   0  0  0  0  0  0  0  0  0  0  0  0
  150.6496  141.9312  159.6602 H   0  0  0  0  0  0  0  0  0  0  0  0
  152.9831  142.3372  159.9545 H   0  0  0  0  0  0  0  0  0  0  0  0
  153.1783  142.6330  158.2141 H   0  0  0  0  0  0  0  0  0  0  0  0
  152.3216  144.6060  160.3448 H   0  0  0  0  0  0  0  0  0  0  0  0
  153.4415  144.8831  159.0038 H   0  0  0  0  0  0  0  0  0  0  0  0
  150.9116  145.7331  158.7048 H   0  0  0  0  0  0  0  0  0  0  0  0
  151.5974  144.7771  157.3829 H   0  0  0  0  0  0  0  0  0  0  0  0
  150.4934  138.3844  157.9467 H   0  0  0  0  0  0  0  0  0  0  0  0
  149.4986  137.7540  160.0142 H   0  0  0  0  0  0  0  0  0  0  0  0
  147.8856  136.2617  161.1597 H   0  0  0  0  0  0  0  0  0  0  0  0
  147.1115  134.1726  160.0523 H   0  0  0  0  0  0  0  0  0  0  0  0
  147.9494  133.5863  157.7844 H   0  0  0  0  0  0  0  0  0  0  0  0
  149.5409  135.0592  156.6250 H   0  0  0  0  0  0  0  0  0  0  0  0
  1  2  2  0  0  0  0
  2  3  1  0  0  0  0
  2 18  1  0  0  0  0
  3  4  1  0  0  0  0
  3 25  1  0  0  0  0
  3 26  1  0  0  0  0
  4 16  1  0  0  0  0
  4  5  1  0  0  0  0
  5  6  2  0  0  0  0
  5  7  1  0  0  0  0
  7  8  1  0  0  0  0
  7  9  2  0  0  0  0
  9 10  1  0  0  0  0
  9 27  1  0  0  0  0
 10 11  1  0  0  0  0
 10 16  1  0  0  0  0
 11 15  1  0  0  0  0
 11 12  1  0  0  0  0
 11 28  1  0  0  0  0
 12 13  1  0  0  0  0
 12 29  1  0  0  0  0
 12 30  1  0  0  0  0
 13 14  1  0  0  0  0
 13 31  1  0  0  0  0
 13 32  1  0  0  0  0
 14 15  1  0  0  0  0
 14 33  1  0  0  0  0
 14 34  1  0  0  0  0
 16 17  2  0  0  0  0
 18 19  1  0  0  0  0
 18 35  1  0  0  0  0
 19 24  1  0  0  0  0
 19 20  2  0  0  0  0
 20 21  1  0  0  0  0
 20 36  1  0  0  0  0
 21 22  2  0  0  0  0
 21 37  1  0  0  0  0
 22 23  1  0  0  0  0
 22 38  1  0  0  0  0
 23 24  2  0  0  0  0
 23 39  1  0  0  0  0
 24 40  1  0  0  0  0
M  END
> <s_m_source_file>
AV-unprocessed.smi

> <i_m_source_file_index>
126

> <i_lp_mmshare_version>
43012

> <i_f3d_flags>
0

> <s_epik_input>
W2NIXTFbY0hdW2NIXVtjSF1bY0hdYzFbTkhdQyg9TylbQ0gyXW4yYyg9TyljKEYpW2NIXW4oYzI9TylbQ0BASF0zW0NIMl1bQ0gyXVtDSDJdTzM=

> <s_epik_cmdline>
J2VwaWtfcHl0aG9uJywgJy1waCcsICc3LjAnLCAnLXRuJywgJzgnLCAnLW1hJywgJzIwMCcsICctbWV0YWxfYmluZGluZycsICctaW1hZScsICc8aW5maWxlLm1hZT4nLCAnLW9tYWUnLCAnPG91dGZpbGUubWFlPic=

> <r_lp_tautomer_probability>
1

> <r_epik_Ionization_Penalty>
1.86934e-06

> <r_epik_Ionization_Penalty_Charging>
3.88729e-08

> <r_epik_Ionization_Penalty_Neutral>
1.83046e-06

> <r_epik_State_Penalty>
-0

> <r_epik_Charging_Adjusted_Penalty>
3.88729e-08

> <i_epik_Tot_Q>
0

> <i_epik_Tot_abs_Q>
0

> <r_epik_Metal_State_Penalty>
-0

> <b_epik_Metal_Only>
0

> <s_epik_Chemistry_Notes>
This compound contains an acetal/aminal-like group ( X-CH(R)-Y where X, Y are N, S, or O) that may be acid/base labile, releasing an aldehyde.

> <s_lp_Force_Field>
OPLS_2005

> <r_lp_Energy>
33.9476

> <b_lp_Chiralities_Consistent>
1

> <s_lp_Variant>
AV-unprocessed.smi:126-2

> <Gold.Version>
5.8.1

> <Gold.Id.Protein>
6NUR|6NUR_protein|mol2

> <Gold.PLP.Fitness>
45.1072

> <Gold.PLP.PLP>
-40.5964

> <Gold.PLP.part.hbond>
-2.0000

> <Gold.PLP.part.metal>
0.0000

> <Gold.PLP.part.buried>
-1.3442

> <Gold.PLP.part.nonpolar>
-37.2618

> <Gold.PLP.part.repulsive>
0.3687

> <Gold.PLP.ligand.clash>
0.0000

> <Gold.PLP.ligand.torsion>
0.9234

> <Gold.PLP.Chemscore.Hbond>
1.1000

> <Gold.PLP.Chemscore.CHOScore>
1.0000

> <Gold.PLP.Chemscore.Metal>
0.0000

> <Gold.Chemscore.Hbonds>
donor molecule, donor type, donor heavy atom, donor atom, acceptor molecule, acceptor atom, score
      P1  H  7989  7998       L1     6  0.10
      P1  H 10752 10764       L1     1  1.00
      L1  C     9    27       P1  8028  1.00

> <Gold.PLP.Chemscore.Internal.Correction>
0.0576

> <Gold.Rescore>
     Score         DG    S(hbond)    S(metal)    S(lipo)     H(rot)  DE(clash)    DE(int)     intcor
     11.20     -14.30       1.14        0.00      79.20       1.66       0.18       2.92       ----

> <Gold.Chemscore.Fitness>
11.2019

> <Gold.Chemscore.DG>
-14.3001

> <Gold.Chemscore.ZeroCoef>
-5.4800

> <Gold.Chemscore.Hbond>
1.1402

> <Gold.Chemscore.Metal>
0.0000

> <Gold.Chemscore.Lipo>
79.2031

> <Gold.Chemscore.Internal_Hbond>
0.0000

> <Gold.Chemscore.DEClash>
0.1784

> <Gold.Chemscore.DEInternal>
2.9198

> <Gold.Chemscore.Rot>
1.6621

> <Gold.Chemscore.Internal.Correction>
   9.000000E+99

> <Gold.Chemscore.Hbonds>
donor molecule, donor type, donor heavy atom, donor atom, acceptor molecule, acceptor atom, score
      P1  H 10752 10764       L1     1  1.00

> <Gold.Chemscore.Hbond.Weighted>
-3.8083

> <Gold.Chemscore.Metal.Weighted>
-0.0000

> <Gold.Chemscore.Lipo.Weighted>
-9.2668

> <Gold.Chemscore.Internal_Hbond.Weighted>
0.0000

> <Gold.Chemscore.DEClash.Weighted>
0.1784

> <Gold.Chemscore.DEInternal.Weighted>
2.9198

> <Gold.Chemscore.Rot.Weighted>
4.2550

> <Gold.Chemscore.Internal.Correction.Weighted>
   9.000000E+99

> <Gold.Protein.RotatedTorsions>
[ 6907 6896 6895 6894 ] final -174.05 input  -60.11 | X-H torsion
[ 7974 7965 7964 7962 ] final   42.43 input  175.53 | X-H torsion
[ 8008 7997 7996 7995 ] final  124.64 input   59.86 | X-H torsion
[ 10167 10162 10161 10158 ] final -134.22 input  -65.29 | X-H torsion
[ 10718 10713 10712 10709 ] final    1.31 input   66.30 | X-H torsion
[ 10763 10752 10751 10750 ] final  -20.42 input  -60.55 | X-H torsion
[ 11005 11000 10999 10996 ] final  -61.48 input  -57.11 | X-H torsion

> <Gold.Protein.ActiveResidues>
 VAL166  LYS551  ARG553  GLY616  TRP617  ASP618  TYR619  PRO620  LYS621  CYS622 
 ASP623  PHE694  ASN695  SER759  ASP760  ASP761  ALA762  ILE779  LEU786  VAL792 
 PHE793  MET794  SER795  GLU796  ALA797  LYS798  CYS799  TRP800  GLU811  SER814 

> <Gold.Protein.RotatedAtoms>
  151.5662  133.3396  159.2980 H   0  0  0  0  0  0  0  0  0  0  0  0  # atno 6907 bound_to 6896
  150.8394  134.7683  159.6931 H   0  0  0  0  0  0  0  0  0  0  0  0  # atno 6908 bound_to 6896
  152.4464  134.5492  159.9913 H   0  0  0  0  0  0  0  0  0  0  0  0  # atno 6909 bound_to 6896
  146.0741  139.5301  142.9579 H   0  0  0  0  0  0  0  0  0  0  0  0  # atno 7974 bound_to 7965
  156.2808  140.2735  156.1821 H   0  0  0  0  0  0  0  0  0  0  0  0  # atno 8008 bound_to 7997
  155.0546  140.0386  157.2573 H   0  0  0  0  0  0  0  0  0  0  0  0  # atno 8009 bound_to 7997
  154.7167  140.2679  155.6584 H   0  0  0  0  0  0  0  0  0  0  0  0  # atno 8010 bound_to 7997
  139.8903  143.6731  152.2613 H   0  0  0  0  0  0  0  0  0  0  0  0  # atno 10167 bound_to 10162
  156.8464  130.5538  149.5673 H   0  0  0  0  0  0  0  0  0  0  0  0  # atno 10718 bound_to 10713
  153.6202  135.6993  153.5313 H   0  0  0  0  0  0  0  0  0  0  0  0  # atno 10763 bound_to 10752
  153.2944  135.4147  155.1196 H   0  0  0  0  0  0  0  0  0  0  0  0  # atno 10764 bound_to 10752
  154.8545  135.3633  154.5742 H   0  0  0  0  0  0  0  0  0  0  0  0  # atno 10765 bound_to 10752
  141.1326  133.6630  156.5382 H   0  0  0  0  0  0  0  0  0  0  0  0  # atno 11005 bound_to 11000
  145.6338  141.0298  143.1848 LP  0  0  0  0  0  0  0  0  0  0  0  0  # atno 17320 bound_to 7965
  144.7250  139.7905  143.7368 LP  0  0  0  0  0  0  0  0  0  0  0  0  # atno 17321 bound_to 7965
  139.7116  144.7619  151.1103 LP  0  0  0  0  0  0  0  0  0  0  0  0  # atno 17342 bound_to 10162
  140.7728  143.5323  150.9408 LP  0  0  0  0  0  0  0  0  0  0  0  0  # atno 17343 bound_to 10162
  156.0852  130.5852  150.9636 LP  0  0  0  0  0  0  0  0  0  0  0  0  # atno 17370 bound_to 10713
  157.6328  131.0919  150.8408 LP  0  0  0  0  0  0  0  0  0  0  0  0  # atno 17371 bound_to 10713
  140.4161  134.7229  157.4863 LP  0  0  0  0  0  0  0  0  0  0  0  0  # atno 17394 bound_to 11000
  140.0393  134.6291  155.9002 LP  0  0  0  0  0  0  0  0  0  0  0  0  # atno 17395 bound_to 11000

$$$$
