AV-unprocessed.smi:3116|AV-procd|sdf|11863|dock7
  -GOLD-   2272017243D 1   1.00000     0.00000
 Structure written by MMmdl.
 34 34  0  0  0  0  0  0  0  0  2 V2000
  147.1462  137.3461  154.4202 C   0  0  0  0  0  0  0  0  0  0  0  0
  147.3240  138.5360  153.4651 C   0  0  1  0  0  0  0  0  0  0  0  0
  148.7374  138.6161  153.0249 N   0  3  0  0  0  0  0  0  0  0  0  0
  149.7109  139.0660  154.0489 C   0  0  2  0  0  0  0  0  0  0  0  0
  150.1904  137.8391  154.8463 C   0  0  0  0  0  0  0  0  0  0  0  0
  149.0870  140.1657  154.9516 C   0  0  2  0  0  0  0  0  0  0  0  0
  148.5599  141.3757  154.1568 C   0  0  0  0  0  0  0  0  0  0  0  0
  150.0137  140.6151  155.9828 N   0  0  0  0  0  0  0  0  0  0  0  0
  150.4880  141.8911  156.2088 C   0  0  0  0  0  0  0  0  0  0  0  0
  151.3288  141.8303  157.2830 C   0  0  0  0  0  0  0  0  0  0  0  0
  151.3088  140.4563  157.6509 C   0  0  0  0  0  0  0  0  0  0  0  0
  150.5227  139.7317  156.8715 N   0  0  0  0  0  0  0  0  0  0  0  0
  146.3657  138.4006  152.2730 C   0  0  0  0  0  0  0  0  0  0  0  0
  145.0672  138.2565  152.5495 N   0  0  0  0  0  0  0  0  0  0  0  0
  146.7909  138.4133  151.1191 O   0  0  0  0  0  0  0  0  0  0  0  0
  146.1216  137.2814  154.7883 H   0  0  0  0  0  0  0  0  0  0  0  0
  147.7978  137.4423  155.2894 H   0  0  0  0  0  0  0  0  0  0  0  0
  147.3843  136.4001  153.9314 H   0  0  0  0  0  0  0  0  0  0  0  0
  147.0775  139.4467  154.0130 H   0  0  0  0  0  0  0  0  0  0  0  0
  149.0275  137.7032  152.7062 H   0  0  0  0  0  0  0  0  0  0  0  0
  150.5891  139.4813  153.5513 H   0  0  0  0  0  0  0  0  0  0  0  0
  150.9870  138.0942  155.5455 H   0  0  0  0  0  0  0  0  0  0  0  0
  150.5872  137.0710  154.1816 H   0  0  0  0  0  0  0  0  0  0  0  0
  149.3753  137.3942  155.4183 H   0  0  0  0  0  0  0  0  0  0  0  0
  148.2357  139.7245  155.4729 H   0  0  0  0  0  0  0  0  0  0  0  0
  147.7473  141.0921  153.4881 H   0  0  0  0  0  0  0  0  0  0  0  0
  149.3450  141.8319  153.5530 H   0  0  0  0  0  0  0  0  0  0  0  0
  148.1693  142.1426  154.8266 H   0  0  0  0  0  0  0  0  0  0  0  0
  150.1904  142.7286  155.5948 H   0  0  0  0  0  0  0  0  0  0  0  0
  151.8757  142.6435  157.7366 H   0  0  0  0  0  0  0  0  0  0  0  0
  151.8382  139.9674  158.4555 H   0  0  0  0  0  0  0  0  0  0  0  0
  144.3942  138.1664  151.8018 H   0  0  0  0  0  0  0  0  0  0  0  0
  144.7596  138.2411  153.5115 H   0  0  0  0  0  0  0  0  0  0  0  0
  148.7753  139.2540  152.2424 H   0  0  0  0  0  0  0  0  0  0  0  0
  1  2  1  0  0  0  0
  1 16  1  0  0  0  0
  1 17  1  0  0  0  0
  1 18  1  0  0  0  0
  2  3  1  0  0  0  0
  2 13  1  0  0  0  0
  2 19  1  0  0  0  0
  3  4  1  0  0  0  0
  3 20  1  0  0  0  0
  3 34  1  0  0  0  0
  4  5  1  0  0  0  0
  4  6  1  0  0  0  0
  4 21  1  0  0  0  0
  5 22  1  0  0  0  0
  5 23  1  0  0  0  0
  5 24  1  0  0  0  0
  6  7  1  0  0  0  0
  6  8  1  0  0  0  0
  6 25  1  0  0  0  0
  7 26  1  0  0  0  0
  7 27  1  0  0  0  0
  7 28  1  0  0  0  0
  8 12  1  0  0  0  0
  8  9  1  0  0  0  0
  9 10  2  0  0  0  0
  9 29  1  0  0  0  0
 10 11  1  0  0  0  0
 10 30  1  0  0  0  0
 11 12  2  0  0  0  0
 11 31  1  0  0  0  0
 13 14  1  0  0  0  0
 13 15  2  0  0  0  0
 14 32  1  0  0  0  0
 14 33  1  0  0  0  0
M  CHG  1   3   1
M  END
> <s_m_source_file>
AV-unprocessed.smi

> <i_m_source_file_index>
3116

> <i_lp_mmshare_version>
43012

> <i_f3d_flags>
0

> <s_epik_input>
W05IMl1DKD1PKVtDQEhdKFtDSDNdKVtOSF1bQ0BIXShbQ0gzXSlbQ0BIXShbQ0gzXSluMVtjSF1bY0hdW2NIXW4x

> <s_epik_cmdline>
J2VwaWtfcHl0aG9uJywgJy1waCcsICc3LjAnLCAnLXRuJywgJzgnLCAnLW1hJywgJzIwMCcsICctbWV0YWxfYmluZGluZycsICctaW1hZScsICc8aW5maWxlLm1hZT4nLCAnLW9tYWUnLCAnPG91dGZpbGUubWFlPic=

> <r_lp_tautomer_probability>
1

> <r_epik_Ionization_Penalty>
0.15658

> <r_epik_Ionization_Penalty_Charging>
0.156568

> <r_epik_Ionization_Penalty_Neutral>
1.19778e-05

> <r_epik_State_Penalty>
0.145866

> <r_epik_Charging_Adjusted_Penalty>
0.302434

> <i_epik_Tot_Q>
1

> <i_epik_Tot_abs_Q>
1

> <r_epik_Metal_State_Penalty>
0.146064

> <b_epik_Metal_Only>
0

> <s_lp_Force_Field>
OPLS_2005

> <r_lp_Energy>
10.4239

> <b_lp_Chiralities_Consistent>
1

> <s_lp_Variant>
AV-unprocessed.smi:3116-2

> <Gold.Version>
5.8.1

> <Gold.Id.Protein>
6NUR|6NUR_protein|mol2

> <Gold.PLP.Fitness>
44.7177

> <Gold.PLP.PLP>
-27.4323

> <Gold.PLP.part.hbond>
-4.6432

> <Gold.PLP.part.metal>
0.0000

> <Gold.PLP.part.buried>
-3.2580

> <Gold.PLP.part.nonpolar>
-21.2215

> <Gold.PLP.part.repulsive>
0.4344

> <Gold.PLP.ligand.clash>
0.0000

> <Gold.PLP.ligand.torsion>
0.4297

> <Gold.PLP.Chemscore.Hbond>
5.0000

> <Gold.PLP.Chemscore.CHOScore>
1.0000

> <Gold.PLP.Chemscore.Metal>
0.0000

> <Gold.Chemscore.Hbonds>
donor molecule, donor type, donor heavy atom, donor atom, acceptor molecule, acceptor atom, score
      L1  H     3    20       P1  7948  2.00
      L1  H     3    34       P1  7957  1.00
      L1  H    14    32       P1 10171  0.81
      P1  H  7954  7966       L1    15  1.00
      L1  C     9    29       P1  8028  1.00

> <Gold.PLP.Chemscore.Internal.Correction>
0.1448

> <Gold.Rescore>
     Score         DG    S(hbond)    S(metal)    S(lipo)     H(rot)  DE(clash)    DE(int)     intcor
     16.58     -18.54       3.91        0.00      53.44       2.45       0.13       1.83       ----

> <Gold.Chemscore.Fitness>
16.5797

> <Gold.Chemscore.DG>
-18.5402

> <Gold.Chemscore.ZeroCoef>
-5.4800

> <Gold.Chemscore.Hbond>
3.9134

> <Gold.Chemscore.Metal>
0.0000

> <Gold.Chemscore.Lipo>
53.4403

> <Gold.Chemscore.Internal_Hbond>
0.0000

> <Gold.Chemscore.DEClash>
0.1269

> <Gold.Chemscore.DEInternal>
1.8336

> <Gold.Chemscore.Rot>
2.4465

> <Gold.Chemscore.Internal.Correction>
   9.000000E+99

> <Gold.Chemscore.Hbonds>
donor molecule, donor type, donor heavy atom, donor atom, acceptor molecule, acceptor atom, score
      L1  H     3    20       P1  7948  0.99
      L1  H     3    34       P1  7957  0.91
      L1  H    14    32       P1 10171  0.76
      P1  H  7954  7966       L1    15  0.98

> <Gold.Chemscore.Hbond.Weighted>
-13.0708

> <Gold.Chemscore.Metal.Weighted>
-0.0000

> <Gold.Chemscore.Lipo.Weighted>
-6.2525

> <Gold.Chemscore.Internal_Hbond.Weighted>
0.0000

> <Gold.Chemscore.DEClash.Weighted>
0.1269

> <Gold.Chemscore.DEInternal.Weighted>
1.8336

> <Gold.Chemscore.Rot.Weighted>
6.2631

> <Gold.Chemscore.Internal.Correction.Weighted>
   9.000000E+99

> <Gold.Protein.RotatedTorsions>
[ 6907 6896 6895 6894 ] final  -24.94 input  -60.11 | X-H torsion
[ 7974 7965 7964 7962 ] final -160.89 input  175.53 | X-H torsion
[ 8008 7997 7996 7995 ] final  -64.01 input   59.86 | X-H torsion
[ 10167 10162 10161 10158 ] final  112.48 input  -65.29 | X-H torsion
[ 10718 10713 10712 10709 ] final  -62.16 input   66.30 | X-H torsion
[ 10763 10752 10751 10750 ] final   83.87 input  -60.55 | X-H torsion
[ 11005 11000 10999 10996 ] final  111.03 input  -57.11 | X-H torsion

> <Gold.Protein.ActiveResidues>
 VAL166  LYS551  ARG553  GLY616  TRP617  ASP618  TYR619  PRO620  LYS621  CYS622 
 ASP623  PHE694  ASN695  SER759  ASP760  ASP761  ALA762  ILE779  LEU786  VAL792 
 PHE793  MET794  SER795  GLU796  ALA797  LYS798  CYS799  TRP800  GLU811  SER814 

> <Gold.Protein.RotatedAtoms>
  151.1823  135.0366  159.8797 H   0  0  0  0  0  0  0  0  0  0  0  0  # atno 6907 bound_to 6896
  152.5444  134.1049  159.8344 H   0  0  0  0  0  0  0  0  0  0  0  0  # atno 6908 bound_to 6896
  151.1168  133.5086  159.2636 H   0  0  0  0  0  0  0  0  0  0  0  0  # atno 6909 bound_to 6896
  144.7411  140.3477  143.6122 H   0  0  0  0  0  0  0  0  0  0  0  0  # atno 7974 bound_to 7965
  154.4587  140.0963  156.6831 H   0  0  0  0  0  0  0  0  0  0  0  0  # atno 8008 bound_to 7997
  155.5060  140.3475  155.4361 H   0  0  0  0  0  0  0  0  0  0  0  0  # atno 8009 bound_to 7997
  156.0828  140.1377  156.9680 H   0  0  0  0  0  0  0  0  0  0  0  0  # atno 8010 bound_to 7997
  139.6532  144.7128  151.2007 H   0  0  0  0  0  0  0  0  0  0  0  0  # atno 10167 bound_to 10162
  156.0874  130.4206  150.1095 H   0  0  0  0  0  0  0  0  0  0  0  0  # atno 10718 bound_to 10713
  153.1330  135.4675  154.9378 H   0  0  0  0  0  0  0  0  0  0  0  0  # atno 10763 bound_to 10752
  154.7681  135.3150  154.8248 H   0  0  0  0  0  0  0  0  0  0  0  0  # atno 10764 bound_to 10752
  153.8787  135.6896  153.4822 H   0  0  0  0  0  0  0  0  0  0  0  0  # atno 10765 bound_to 10752
  139.8894  134.9498  156.6369 H   0  0  0  0  0  0  0  0  0  0  0  0  # atno 11005 bound_to 11000
  145.7309  139.1736  143.2431 LP  0  0  0  0  0  0  0  0  0  0  0  0  # atno 17320 bound_to 7965
  146.1207  140.7312  142.9459 LP  0  0  0  0  0  0  0  0  0  0  0  0  # atno 17321 bound_to 7965
  140.7547  143.6115  150.8601 LP  0  0  0  0  0  0  0  0  0  0  0  0  # atno 17342 bound_to 10162
  139.9765  143.5999  152.2957 LP  0  0  0  0  0  0  0  0  0  0  0  0  # atno 17343 bound_to 10162
  156.9113  130.9653  151.3562 LP  0  0  0  0  0  0  0  0  0  0  0  0  # atno 17370 bound_to 10713
  157.6012  130.8514  149.8805 LP  0  0  0  0  0  0  0  0  0  0  0  0  # atno 17371 bound_to 10713
  140.7623  133.8807  155.8428 LP  0  0  0  0  0  0  0  0  0  0  0  0  # atno 17394 bound_to 11000
  140.9911  134.1277  157.4407 LP  0  0  0  0  0  0  0  0  0  0  0  0  # atno 17395 bound_to 11000

$$$$
