AV-unprocessed.smi:807|AV-procd|sdf|3802|dock3
  -GOLD-   22720 1243D 1   1.00000     0.00000
 Structure written by MMmdl.
 35 37  0  0  0  0  0  0  0  0  1 V2000
  146.2629  142.4003  156.3305 C   0  0  0  0  0  0  0  0  0  0  0  0
  147.5914  142.2771  155.7524 N   0  0  0  0  0  0  0  0  0  0  0  0
  147.9739  141.1012  155.0920 C   0  0  0  0  0  0  0  0  0  0  0  0
  147.0541  140.3763  154.4141 N   0  0  0  0  0  0  0  0  0  0  0  0
  147.4661  139.2596  153.7994 C   0  0  0  0  0  0  0  0  0  0  0  0
  148.6972  138.7277  153.7472 N   0  0  0  0  0  0  0  0  0  0  0  0
  149.6153  139.4386  154.4160 C   0  0  0  0  0  0  0  0  0  0  0  0
  150.9583  139.1249  154.5346 N   0  0  0  0  0  0  0  0  0  0  0  0
  151.4051  140.1283  155.2855 C   0  0  0  0  0  0  0  0  0  0  0  0
  150.5120  141.0595  155.6747 N   0  0  0  0  0  0  0  0  0  0  0  0
  150.7771  142.2199  156.5071 C   0  0  0  0  0  0  0  0  0  0  0  0
  151.4588  141.8422  157.8379 C   0  0  2  0  0  0  0  0  0  0  0  0
  150.7181  140.7915  158.4253 O   0  0  0  0  0  0  0  0  0  0  0  0
  151.6080  143.0403  158.7753 C   0  0  0  0  0  0  0  0  0  0  0  0
  151.0330  144.2784  158.4071 C   0  0  0  0  0  0  0  0  0  0  0  0
  151.1629  145.4074  159.2373 C   0  0  0  0  0  0  0  0  0  0  0  0
  151.8738  145.3113  160.4467 C   0  0  0  0  0  0  0  0  0  0  0  0
  152.4558  144.0865  160.8213 C   0  0  0  0  0  0  0  0  0  0  0  0
  152.3300  142.9520  159.9943 C   0  0  0  0  0  0  0  0  0  0  0  0
  153.0852  141.4826  160.5064 Cl  0  0  0  0  0  0  0  0  0  0  0  0
  149.3065  140.6450  155.1135 C   0  0  0  0  0  0  0  0  0  0  0  0
  146.1614  143.3661  156.8254 H   0  0  0  0  0  0  0  0  0  0  0  0
  146.0891  141.6185  157.0705 H   0  0  0  0  0  0  0  0  0  0  0  0
  145.4962  142.3297  155.5583 H   0  0  0  0  0  0  0  0  0  0  0  0
  148.2683  143.0082  155.9170 H   0  0  0  0  0  0  0  0  0  0  0  0
  146.7004  138.7111  153.2712 H   0  0  0  0  0  0  0  0  0  0  0  0
  152.4432  140.1849  155.5792 H   0  0  0  0  0  0  0  0  0  0  0  0
  151.3933  142.9232  155.9449 H   0  0  0  0  0  0  0  0  0  0  0  0
  149.8284  142.7242  156.6932 H   0  0  0  0  0  0  0  0  0  0  0  0
  152.4360  141.4115  157.6277 H   0  0  0  0  0  0  0  0  0  0  0  0
  151.0043  139.9738  158.0483 H   0  0  0  0  0  0  0  0  0  0  0  0
  150.4899  144.3705  157.4782 H   0  0  0  0  0  0  0  0  0  0  0  0
  150.7185  146.3475  158.9450 H   0  0  0  0  0  0  0  0  0  0  0  0
  151.9757  146.1769  161.0846 H   0  0  0  0  0  0  0  0  0  0  0  0
  153.0055  144.0184  161.7486 H   0  0  0  0  0  0  0  0  0  0  0  0
  1  2  1  0  0  0  0
  1 22  1  0  0  0  0
  1 23  1  0  0  0  0
  1 24  1  0  0  0  0
  2  3  1  0  0  0  0
  2 25  1  0  0  0  0
  3 21  1  0  0  0  0
  3  4  2  0  0  0  0
  4  5  1  0  0  0  0
  5  6  2  0  0  0  0
  5 26  1  0  0  0  0
  6  7  1  0  0  0  0
  7 21  2  0  0  0  0
  7  8  1  0  0  0  0
  8  9  2  0  0  0  0
  9 10  1  0  0  0  0
  9 27  1  0  0  0  0
 10 11  1  0  0  0  0
 10 21  1  0  0  0  0
 11 12  1  0  0  0  0
 11 28  1  0  0  0  0
 11 29  1  0  0  0  0
 12 13  1  0  0  0  0
 12 14  1  0  0  0  0
 12 30  1  0  0  0  0
 13 31  1  0  0  0  0
 14 19  1  0  0  0  0
 14 15  2  0  0  0  0
 15 16  1  0  0  0  0
 15 32  1  0  0  0  0
 16 17  2  0  0  0  0
 16 33  1  0  0  0  0
 17 18  1  0  0  0  0
 17 34  1  0  0  0  0
 18 19  2  0  0  0  0
 18 35  1  0  0  0  0
 19 20  1  0  0  0  0
M  END
> <s_m_source_file>
AV-unprocessed.smi

> <i_m_source_file_index>
807

> <i_lp_mmshare_version>
43012

> <i_f3d_flags>
0

> <s_epik_input>
bjFbY0hdbmMoW05IXVtDSDNdKWMoYzEyKW4oW2NIXW4yKVtDSDJdW0NASF0oW09IXSljM1tjSF1bY0hdW2NIXVtjSF1jM0Ns

> <s_epik_cmdline>
J2VwaWtfcHl0aG9uJywgJy1waCcsICc3LjAnLCAnLXRuJywgJzgnLCAnLW1hJywgJzIwMCcsICctbWV0YWxfYmluZGluZycsICctaW1hZScsICc8aW5maWxlLm1hZT4nLCAnLW9tYWUnLCAnPG91dGZpbGUubWFlPic=

> <r_lp_tautomer_probability>
1

> <r_epik_Ionization_Penalty>
0.00695285

> <r_epik_Ionization_Penalty_Charging>
0

> <r_epik_Ionization_Penalty_Neutral>
0.00695285

> <r_epik_State_Penalty>
-0

> <r_epik_Charging_Adjusted_Penalty>
0

> <i_epik_Tot_Q>
0

> <i_epik_Tot_abs_Q>
0

> <r_epik_Metal_State_Penalty>
-0

> <b_epik_Metal_Only>
0

> <s_lp_Force_Field>
OPLS_2005

> <r_lp_Energy>
11.3951

> <b_lp_Chiralities_Consistent>
1

> <s_lp_Variant>
AV-unprocessed.smi:807-1

> <Gold.Version>
5.8.1

> <Gold.Id.Protein>
6NUR|6NUR_protein|mol2

> <Gold.PLP.Fitness>
45.2575

> <Gold.PLP.PLP>
-42.9274

> <Gold.PLP.part.hbond>
-1.7290

> <Gold.PLP.part.metal>
0.0000

> <Gold.PLP.part.buried>
-3.8065

> <Gold.PLP.part.nonpolar>
-38.7628

> <Gold.PLP.part.repulsive>
1.3792

> <Gold.PLP.ligand.clash>
0.0000

> <Gold.PLP.ligand.torsion>
0.3380

> <Gold.PLP.Chemscore.Hbond>
0.9920

> <Gold.PLP.Chemscore.CHOScore>
0.0000

> <Gold.PLP.Chemscore.Metal>
0.0000

> <Gold.Chemscore.Hbonds>
donor molecule, donor type, donor heavy atom, donor atom, acceptor molecule, acceptor atom, score
      L1  H     2    25       P1  8028  1.00

> <Gold.PLP.Chemscore.Internal.Correction>
0.0303

> <Gold.Rescore>
     Score         DG    S(hbond)    S(metal)    S(lipo)     H(rot)  DE(clash)    DE(int)     intcor
     14.07     -14.69       0.93        0.00     102.72       2.31       0.09       0.53       ----

> <Gold.Chemscore.Fitness>
14.0665

> <Gold.Chemscore.DG>
-14.6933

> <Gold.Chemscore.ZeroCoef>
-5.4800

> <Gold.Chemscore.Hbond>
0.9318

> <Gold.Chemscore.Metal>
0.0000

> <Gold.Chemscore.Lipo>
102.7228

> <Gold.Chemscore.Internal_Hbond>
0.0000

> <Gold.Chemscore.DEClash>
0.0923

> <Gold.Chemscore.DEInternal>
0.5344

> <Gold.Chemscore.Rot>
2.3115

> <Gold.Chemscore.Internal.Correction>
   9.000000E+99

> <Gold.Chemscore.Hbonds>
donor molecule, donor type, donor heavy atom, donor atom, acceptor molecule, acceptor atom, score
      L1  H     2    25       P1  8028  0.83

> <Gold.Chemscore.Hbond.Weighted>
-3.1121

> <Gold.Chemscore.Metal.Weighted>
-0.0000

> <Gold.Chemscore.Lipo.Weighted>
-12.0186

> <Gold.Chemscore.Internal_Hbond.Weighted>
0.0000

> <Gold.Chemscore.DEClash.Weighted>
0.0923

> <Gold.Chemscore.DEInternal.Weighted>
0.5344

> <Gold.Chemscore.Rot.Weighted>
5.9174

> <Gold.Chemscore.Internal.Correction.Weighted>
   9.000000E+99

> <Gold.Protein.RotatedTorsions>
[ 6907 6896 6895 6894 ] final -158.20 input  -60.11 | X-H torsion
[ 7974 7965 7964 7962 ] final  111.41 input  175.53 | X-H torsion
[ 8008 7997 7996 7995 ] final  -12.94 input   59.86 | X-H torsion
[ 10167 10162 10161 10158 ] final   -8.36 input  -65.29 | X-H torsion
[ 10718 10713 10712 10709 ] final -139.15 input   66.30 | X-H torsion
[ 10763 10752 10751 10750 ] final -175.39 input  -60.55 | X-H torsion
[ 11005 11000 10999 10996 ] final  121.45 input  -57.11 | X-H torsion

> <Gold.Protein.ActiveResidues>
 VAL166  LYS551  ARG553  GLY616  TRP617  ASP618  TYR619  PRO620  LYS621  CYS622 
 ASP623  PHE694  ASN695  SER759  ASP760  ASP761  ALA762  ILE779  LEU786  VAL792 
 PHE793  MET794  SER795  GLU796  ALA797  LYS798  CYS799  TRP800  GLU811  SER814 

> <Gold.Protein.RotatedAtoms>
  151.3146  133.4066  159.2649 H   0  0  0  0  0  0  0  0  0  0  0  0  # atno 6907 bound_to 6896
  151.0085  134.9379  159.8004 H   0  0  0  0  0  0  0  0  0  0  0  0  # atno 6908 bound_to 6896
  152.5294  134.3111  159.9166 H   0  0  0  0  0  0  0  0  0  0  0  0  # atno 6909 bound_to 6896
  145.2426  139.2772  143.4110 H   0  0  0  0  0  0  0  0  0  0  0  0  # atno 7974 bound_to 7965
  154.5334  140.2262  155.8765 H   0  0  0  0  0  0  0  0  0  0  0  0  # atno 8008 bound_to 7997
  156.1787  140.3105  155.9070 H   0  0  0  0  0  0  0  0  0  0  0  0  # atno 8009 bound_to 7997
  155.3404  140.0450  157.3035 H   0  0  0  0  0  0  0  0  0  0  0  0  # atno 8010 bound_to 7997
  140.7056  143.5978  150.8828 H   0  0  0  0  0  0  0  0  0  0  0  0  # atno 10167 bound_to 10162
  156.3075  130.7463  151.1531 H   0  0  0  0  0  0  0  0  0  0  0  0  # atno 10718 bound_to 10713
  154.5849  135.2839  155.0695 H   0  0  0  0  0  0  0  0  0  0  0  0  # atno 10763 bound_to 10752
  154.2017  135.6423  153.5093 H   0  0  0  0  0  0  0  0  0  0  0  0  # atno 10764 bound_to 10752
  153.0101  135.5470  154.6515 H   0  0  0  0  0  0  0  0  0  0  0  0  # atno 10765 bound_to 10752
  139.9226  134.9639  156.7960 H   0  0  0  0  0  0  0  0  0  0  0  0  # atno 11005 bound_to 11000
  146.3324  140.2793  142.8609 LP  0  0  0  0  0  0  0  0  0  0  0  0  # atno 17320 bound_to 7965
  144.9575  140.8242  143.5534 LP  0  0  0  0  0  0  0  0  0  0  0  0  # atno 17321 bound_to 7965
  139.9703  143.6065  152.2976 LP  0  0  0  0  0  0  0  0  0  0  0  0  # atno 17342 bound_to 10162
  139.6649  144.7662  151.1892 LP  0  0  0  0  0  0  0  0  0  0  0  0  # atno 17343 bound_to 10162
  157.7383  131.0542  150.5303 LP  0  0  0  0  0  0  0  0  0  0  0  0  # atno 17370 bound_to 10713
  156.5438  130.4214  149.6141 LP  0  0  0  0  0  0  0  0  0  0  0  0  # atno 17371 bound_to 10713
  140.6428  133.9802  155.7716 LP  0  0  0  0  0  0  0  0  0  0  0  0  # atno 17394 bound_to 11000
  141.0760  134.0134  157.3457 LP  0  0  0  0  0  0  0  0  0  0  0  0  # atno 17395 bound_to 11000

$$$$
