AV-unprocessed.smi:604|AV-procd|sdf|3037|dock8
  -GOLD-   2262023553D 1   1.00000     0.00000
 Structure written by MMmdl.
 49 51  0  0  0  0  0  0  0  0  2 V2000
  150.4800  136.6697  156.1648 O   0  0  0  0  0  0  0  0  0  0  0  0
  150.0354  136.6088  155.0189 C   0  0  0  0  0  0  0  0  0  0  0  0
  149.7304  135.4771  154.3611 N   0  0  0  0  0  0  0  0  0  0  0  0
  149.8399  134.1353  154.8162 C   0  0  0  0  0  0  0  0  0  0  0  0
  149.3948  133.1079  153.9590 C   0  0  0  0  0  0  0  0  0  0  0  0
  149.4768  131.7704  154.3898 C   0  0  0  0  0  0  0  0  0  0  0  0
  149.9951  131.5113  155.6732 C   0  0  0  0  0  0  0  0  0  0  0  0
  150.4099  132.4825  156.5136 N   0  0  0  0  0  0  0  0  0  0  0  0
  150.3301  133.7636  156.0930 C   0  0  0  0  0  0  0  0  0  0  0  0
  149.8127  137.6890  154.2563 N   0  0  0  0  0  0  0  0  0  0  0  0
  150.0798  139.0678  154.6558 C   0  0  2  0  0  0  0  0  0  0  0  0
  151.3902  139.1691  155.4579 C   0  0  0  0  0  0  0  0  0  0  0  0
  151.6233  140.6031  155.9638 C   0  0  0  0  0  0  0  0  0  0  0  0
  150.4725  141.0827  156.7725 N   0  3  1  0  0  0  0  0  0  0  0  0
  150.7158  142.4094  157.3962 C   0  0  0  0  0  0  0  0  0  0  0  0
  151.9216  142.3817  158.3546 C   0  0  0  0  0  0  0  0  0  0  0  0
  151.8713  141.2983  159.4363 C   0  0  0  0  0  0  0  0  0  0  0  0
  152.8493  141.7685  160.5176 C   0  0  0  0  0  0  0  0  0  0  0  0
  152.9635  143.2917  160.3589 C   0  0  0  0  0  0  0  0  0  0  0  0
  152.0694  143.6678  159.1725 C   0  0  0  0  0  0  0  0  0  0  0  0
  149.2030  141.0280  156.0009 C   0  0  0  0  0  0  0  0  0  0  0  0
  148.9160  139.6009  155.5063 C   0  0  0  0  0  0  0  0  0  0  0  0
  149.4515  135.5842  153.3970 H   0  0  0  0  0  0  0  0  0  0  0  0
  149.0000  133.3385  152.9800 H   0  0  0  0  0  0  0  0  0  0  0  0
  149.1495  130.9625  153.7524 H   0  0  0  0  0  0  0  0  0  0  0  0
  150.0728  130.4972  156.0368 H   0  0  0  0  0  0  0  0  0  0  0  0
  150.6516  134.4955  156.8173 H   0  0  0  0  0  0  0  0  0  0  0  0
  149.4483  137.5456  153.3257 H   0  0  0  0  0  0  0  0  0  0  0  0
  150.1608  139.6880  153.7605 H   0  0  0  0  0  0  0  0  0  0  0  0
  151.3592  138.4857  156.3080 H   0  0  0  0  0  0  0  0  0  0  0  0
  152.2354  138.8579  154.8428 H   0  0  0  0  0  0  0  0  0  0  0  0
  152.5309  140.6231  156.5686 H   0  0  0  0  0  0  0  0  0  0  0  0
  151.7855  141.2789  155.1224 H   0  0  0  0  0  0  0  0  0  0  0  0
  150.9300  143.1440  156.6183 H   0  0  0  0  0  0  0  0  0  0  0  0
  149.8189  142.7721  157.9012 H   0  0  0  0  0  0  0  0  0  0  0  0
  152.8359  142.2491  157.7734 H   0  0  0  0  0  0  0  0  0  0  0  0
  150.8674  141.2410  159.8598 H   0  0  0  0  0  0  0  0  0  0  0  0
  152.1283  140.3100  159.0538 H   0  0  0  0  0  0  0  0  0  0  0  0
  152.5093  141.4846  161.5140 H   0  0  0  0  0  0  0  0  0  0  0  0
  153.8268  141.3097  160.3639 H   0  0  0  0  0  0  0  0  0  0  0  0
  152.6630  143.8194  161.2647 H   0  0  0  0  0  0  0  0  0  0  0  0
  153.9991  143.5644  160.1519 H   0  0  0  0  0  0  0  0  0  0  0  0
  152.4825  144.4902  158.5874 H   0  0  0  0  0  0  0  0  0  0  0  0
  151.0937  143.9866  159.5430 H   0  0  0  0  0  0  0  0  0  0  0  0
  148.3721  141.3671  156.6185 H   0  0  0  0  0  0  0  0  0  0  0  0
  149.2617  141.7118  155.1524 H   0  0  0  0  0  0  0  0  0  0  0  0
  147.9931  139.5920  154.9252 H   0  0  0  0  0  0  0  0  0  0  0  0
  148.7490  138.9467  156.3637 H   0  0  0  0  0  0  0  0  0  0  0  0
  150.3800  140.4284  157.5365 H   0  0  0  0  0  0  0  0  0  0  0  0
  1  2  2  0  0  0  0
  2  3  1  0  0  0  0
  2 10  1  0  0  0  0
  3  4  1  0  0  0  0
  3 23  1  0  0  0  0
  4  9  1  0  0  0  0
  4  5  2  0  0  0  0
  5  6  1  0  0  0  0
  5 24  1  0  0  0  0
  6  7  2  0  0  0  0
  6 25  1  0  0  0  0
  7  8  1  0  0  0  0
  7 26  1  0  0  0  0
  8  9  2  0  0  0  0
  9 27  1  0  0  0  0
 10 11  1  0  0  0  0
 10 28  1  0  0  0  0
 11 22  1  0  0  0  0
 11 12  1  0  0  0  0
 11 29  1  0  0  0  0
 12 13  1  0  0  0  0
 12 30  1  0  0  0  0
 12 31  1  0  0  0  0
 13 14  1  0  0  0  0
 13 32  1  0  0  0  0
 13 33  1  0  0  0  0
 14 15  1  0  0  0  0
 14 21  1  0  0  0  0
 14 49  1  0  0  0  0
 15 16  1  0  0  0  0
 15 34  1  0  0  0  0
 15 35  1  0  0  0  0
 16 20  1  0  0  0  0
 16 17  1  0  0  0  0
 16 36  1  0  0  0  0
 17 18  1  0  0  0  0
 17 37  1  0  0  0  0
 17 38  1  0  0  0  0
 18 19  1  0  0  0  0
 18 39  1  0  0  0  0
 18 40  1  0  0  0  0
 19 20  1  0  0  0  0
 19 41  1  0  0  0  0
 19 42  1  0  0  0  0
 20 43  1  0  0  0  0
 20 44  1  0  0  0  0
 21 22  1  0  0  0  0
 21 45  1  0  0  0  0
 21 46  1  0  0  0  0
 22 47  1  0  0  0  0
 22 48  1  0  0  0  0
M  CHG  1  14   1
M  END
> <s_m_source_file>
AV-unprocessed.smi

> <i_m_source_file_index>
604

> <i_lp_mmshare_version>
43012

> <i_f3d_flags>
0

> <s_epik_input>
W2NIXTFuW2NIXVtjSF1bY0hdYzFbTkhdQyg9TylbTkhdW0NIXTJbQ0gyXVtDSDJdTihbQ0gyXVtDSDJdMilbQ0gyXVtDSF0zW0NIMl1bQ0gyXVtDSDJdW0NIMl0z

> <s_epik_cmdline>
J2VwaWtfcHl0aG9uJywgJy1waCcsICc3LjAnLCAnLXRuJywgJzgnLCAnLW1hJywgJzIwMCcsICctbWV0YWxfYmluZGluZycsICctaW1hZScsICc8aW5maWxlLm1hZT4nLCAnLW9tYWUnLCAnPG91dGZpbGUubWFlPic=

> <r_lp_tautomer_probability>
1

> <r_epik_Ionization_Penalty>
0.00608112

> <r_epik_Ionization_Penalty_Charging>
0.00207989

> <r_epik_Ionization_Penalty_Neutral>
0.00400122

> <r_epik_State_Penalty>
-0

> <r_epik_Charging_Adjusted_Penalty>
0.00207989

> <i_epik_Tot_Q>
1

> <i_epik_Tot_abs_Q>
1

> <r_epik_Metal_State_Penalty>
-0

> <b_epik_Metal_Only>
0

> <s_lp_Force_Field>
OPLS_2005

> <r_lp_Energy>
41.6956

> <b_lp_Chiralities_Consistent>
1

> <s_lp_Variant>
AV-unprocessed.smi:604-1

> <Gold.Version>
5.8.1

> <Gold.Id.Protein>
6NUR|6NUR_protein|mol2

> <Gold.PLP.Fitness>
47.4385

> <Gold.PLP.PLP>
-42.3373

> <Gold.PLP.part.hbond>
-2.3711

> <Gold.PLP.part.metal>
0.0000

> <Gold.PLP.part.buried>
-4.7131

> <Gold.PLP.part.nonpolar>
-35.4545

> <Gold.PLP.part.repulsive>
0.1467

> <Gold.PLP.ligand.clash>
0.0000

> <Gold.PLP.ligand.torsion>
0.3526

> <Gold.PLP.Chemscore.Hbond>
1.9280

> <Gold.PLP.Chemscore.CHOScore>
0.0000

> <Gold.PLP.Chemscore.Metal>
0.0000

> <Gold.Chemscore.Hbonds>
donor molecule, donor type, donor heavy atom, donor atom, acceptor molecule, acceptor atom, score
      L1  H     3    23       P1  7948  0.90
      L1  H    10    28       P1  7948  0.96

> <Gold.PLP.Chemscore.Internal.Correction>
0.0224

> <Gold.Rescore>
     Score         DG    S(hbond)    S(metal)    S(lipo)     H(rot)  DE(clash)    DE(int)     intcor
     17.83     -21.02       1.57        0.00     117.32       1.35       0.30       2.89       ----

> <Gold.Chemscore.Fitness>
17.8301

> <Gold.Chemscore.DG>
-21.0205

> <Gold.Chemscore.ZeroCoef>
-5.4800

> <Gold.Chemscore.Hbond>
1.5746

> <Gold.Chemscore.Metal>
0.0000

> <Gold.Chemscore.Lipo>
117.3154

> <Gold.Chemscore.Internal_Hbond>
0.0000

> <Gold.Chemscore.DEClash>
0.3044

> <Gold.Chemscore.DEInternal>
2.8860

> <Gold.Chemscore.Rot>
1.3455

> <Gold.Chemscore.Internal.Correction>
   9.000000E+99

> <Gold.Chemscore.Hbonds>
donor molecule, donor type, donor heavy atom, donor atom, acceptor molecule, acceptor atom, score
      L1  H     3    23       P1  7948  0.18
      L1  H    10    28       P1  7948  0.82

> <Gold.Chemscore.Hbond.Weighted>
-5.2590

> <Gold.Chemscore.Metal.Weighted>
-0.0000

> <Gold.Chemscore.Lipo.Weighted>
-13.7259

> <Gold.Chemscore.Internal_Hbond.Weighted>
0.0000

> <Gold.Chemscore.DEClash.Weighted>
0.3044

> <Gold.Chemscore.DEInternal.Weighted>
2.8860

> <Gold.Chemscore.Rot.Weighted>
3.4445

> <Gold.Chemscore.Internal.Correction.Weighted>
   9.000000E+99

> <Gold.Protein.RotatedTorsions>
[ 6907 6896 6895 6894 ] final -128.06 input  -60.11 | X-H torsion
[ 7974 7965 7964 7962 ] final -136.79 input  175.53 | X-H torsion
[ 8008 7997 7996 7995 ] final  -44.38 input   59.86 | X-H torsion
[ 10167 10162 10161 10158 ] final -113.07 input  -65.29 | X-H torsion
[ 10718 10713 10712 10709 ] final   70.56 input   66.30 | X-H torsion
[ 10763 10752 10751 10750 ] final -155.35 input  -60.55 | X-H torsion
[ 11005 11000 10999 10996 ] final   22.23 input  -57.11 | X-H torsion

> <Gold.Protein.ActiveResidues>
 VAL166  LYS551  ARG553  GLY616  TRP617  ASP618  TYR619  PRO620  LYS621  CYS622 
 ASP623  PHE694  ASN695  SER759  ASP760  ASP761  ALA762  ILE779  LEU786  VAL792 
 PHE793  MET794  SER795  GLU796  ALA797  LYS798  CYS799  TRP800  GLU811  SER814 

> <Gold.Protein.RotatedAtoms>
  150.9138  133.6964  159.2848 H   0  0  0  0  0  0  0  0  0  0  0  0  # atno 6907 bound_to 6896
  151.4441  135.1022  159.9688 H   0  0  0  0  0  0  0  0  0  0  0  0  # atno 6908 bound_to 6896
  152.4944  133.8540  159.7271 H   0  0  0  0  0  0  0  0  0  0  0  0  # atno 6909 bound_to 6896
  144.8897  140.6625  143.5153 H   0  0  0  0  0  0  0  0  0  0  0  0  # atno 7974 bound_to 7965
  154.3997  140.1424  156.3673 H   0  0  0  0  0  0  0  0  0  0  0  0  # atno 8008 bound_to 7997
  155.8125  140.3472  155.5445 H   0  0  0  0  0  0  0  0  0  0  0  0  # atno 8009 bound_to 7997
  155.8371  140.0921  157.1747 H   0  0  0  0  0  0  0  0  0  0  0  0  # atno 8010 bound_to 7997
  140.1158  143.4487  152.1723 H   0  0  0  0  0  0  0  0  0  0  0  0  # atno 10167 bound_to 10162
  157.6406  130.9483  150.0668 H   0  0  0  0  0  0  0  0  0  0  0  0  # atno 10718 bound_to 10713
  154.7793  135.3169  154.8024 H   0  0  0  0  0  0  0  0  0  0  0  0  # atno 10763 bound_to 10752
  153.8739  135.6841  153.4776 H   0  0  0  0  0  0  0  0  0  0  0  0  # atno 10764 bound_to 10752
  153.1425  135.4733  154.9454 H   0  0  0  0  0  0  0  0  0  0  0  0  # atno 10765 bound_to 10752
  140.3829  134.1901  155.7663 H   0  0  0  0  0  0  0  0  0  0  0  0  # atno 11005 bound_to 11000
  145.3805  139.1638  143.4283 LP  0  0  0  0  0  0  0  0  0  0  0  0  # atno 17320 bound_to 7965
  146.3046  140.3885  142.8692 LP  0  0  0  0  0  0  0  0  0  0  0  0  # atno 17321 bound_to 7965
  139.5595  144.7396  151.4197 LP  0  0  0  0  0  0  0  0  0  0  0  0  # atno 17342 bound_to 10162
  140.6900  143.7884  150.7241 LP  0  0  0  0  0  0  0  0  0  0  0  0  # atno 17343 bound_to 10162
  156.1684  130.3645  149.9200 LP  0  0  0  0  0  0  0  0  0  0  0  0  # atno 17370 bound_to 10713
  156.7181  130.8996  151.3615 LP  0  0  0  0  0  0  0  0  0  0  0  0  # atno 17371 bound_to 10713
  141.1917  133.8189  157.0868 LP  0  0  0  0  0  0  0  0  0  0  0  0  # atno 17394 bound_to 11000
  140.0465  134.9828  157.1058 LP  0  0  0  0  0  0  0  0  0  0  0  0  # atno 17395 bound_to 11000

$$$$
