AV-unprocessed.smi:160|AV-procd|sdf|1348|dock6
  -GOLD-   2262019 53D 1   1.00000     0.00000
 Structure written by MMmdl.
 29 30  0  0  0  0  0  0  0  0  1 V2000
  154.3361  136.1391  158.0432 N   0  0  0  0  0  0  0  0  0  0  0  0
  154.2739  137.4357  157.7230 C   0  0  0  0  0  0  0  0  0  0  0  0
  155.0888  138.2573  158.1397 O   0  0  0  0  0  0  0  0  0  0  0  0
  153.1499  137.8397  156.8094 C   0  0  0  0  0  0  0  0  0  0  0  0
  152.2977  136.9104  156.2838 N   0  0  0  0  0  0  0  0  0  0  0  0
  151.5162  137.7191  155.5798 C   0  0  0  0  0  0  0  0  0  0  0  0
  151.8533  139.0106  155.6556 N   0  0  0  0  0  0  0  0  0  0  0  0
  151.2188  140.2055  155.0076 C   0  0  1  0  0  0  0  0  0  0  0  0
  150.2474  139.7579  154.1095 O   0  0  0  0  0  0  0  0  0  0  0  0
  148.9536  139.9237  154.6800 C   0  0  2  0  0  0  0  0  0  0  0  0
  147.8582  139.9075  153.5996 C   0  0  0  0  0  0  0  0  0  0  0  0
  147.9137  138.6980  152.8736 O   0  0  0  0  0  0  0  0  0  0  0  0
  149.1016  141.2379  155.4592 C   0  0  2  0  0  0  0  0  0  0  0  0
  148.9740  142.3562  154.5991 O   0  0  0  0  0  0  0  0  0  0  0  0
  150.5204  141.1545  156.0127 C   0  0  1  0  0  0  0  0  0  0  0  0
  150.4967  140.6799  157.3481 O   0  0  0  0  0  0  0  0  0  0  0  0
  152.9370  139.1111  156.4664 N   0  0  0  0  0  0  0  0  0  0  0  0
  152.0343  140.6815  154.4620 H   0  0  0  0  0  0  0  0  0  0  0  0
  148.7725  139.1235  155.4000 H   0  0  0  0  0  0  0  0  0  0  0  0
  148.3490  141.3305  156.2437 H   0  0  0  0  0  0  0  0  0  0  0  0
  151.0207  142.1240  156.0054 H   0  0  0  0  0  0  0  0  0  0  0  0
  155.0696  135.8044  158.6506 H   0  0  0  0  0  0  0  0  0  0  0  0
  153.6473  135.5013  157.6708 H   0  0  0  0  0  0  0  0  0  0  0  0
  150.6819  137.3625  154.9938 H   0  0  0  0  0  0  0  0  0  0  0  0
  146.8729  139.9635  154.0633 H   0  0  0  0  0  0  0  0  0  0  0  0
  147.9505  140.7583  152.9238 H   0  0  0  0  0  0  0  0  0  0  0  0
  148.4646  138.8258  152.1165 H   0  0  0  0  0  0  0  0  0  0  0  0
  149.2225  143.1329  155.0766 H   0  0  0  0  0  0  0  0  0  0  0  0
  150.0457  141.3132  157.8851 H   0  0  0  0  0  0  0  0  0  0  0  0
  1  2  1  0  0  0  0
  1 22  1  0  0  0  0
  1 23  1  0  0  0  0
  2  3  2  0  0  0  0
  2  4  1  0  0  0  0
  4 17  2  0  0  0  0
  4  5  1  0  0  0  0
  5  6  2  0  0  0  0
  6  7  1  0  0  0  0
  6 24  1  0  0  0  0
  7  8  1  0  0  0  0
  7 17  1  0  0  0  0
  8 18  1  0  0  0  0
  8 15  1  0  0  0  0
  8  9  1  0  0  0  0
  9 10  1  0  0  0  0
 10 19  1  0  0  0  0
 10 11  1  0  0  0  0
 10 13  1  0  0  0  0
 11 12  1  0  0  0  0
 11 25  1  0  0  0  0
 11 26  1  0  0  0  0
 12 27  1  0  0  0  0
 13 20  1  0  0  0  0
 13 14  1  0  0  0  0
 13 15  1  0  0  0  0
 14 28  1  0  0  0  0
 15 21  1  0  0  0  0
 15 16  1  0  0  0  0
 16 29  1  0  0  0  0
M  END
> <s_m_source_file>
AV-unprocessed.smi

> <i_m_source_file_index>
160

> <i_lp_mmshare_version>
43012

> <i_f3d_flags>
0

> <s_epik_input>
W05IMl1DKD1PKWMxbltjSF1uKG4xKVtDQEBIXTJPW0NASF0oW0NIMl1bT0hdKVtDQEBIXShbT0hdKVtDQEhdMltPSF0=

> <s_epik_cmdline>
J2VwaWtfcHl0aG9uJywgJy1waCcsICc3LjAnLCAnLXRuJywgJzgnLCAnLW1hJywgJzIwMCcsICctbWV0YWxfYmluZGluZycsICctaW1hZScsICc8aW5maWxlLm1hZT4nLCAnLW9tYWUnLCAnPG91dGZpbGUubWFlPic=

> <r_lp_tautomer_probability>
1

> <r_epik_Ionization_Penalty>
1.06932e-05

> <r_epik_Ionization_Penalty_Charging>
0

> <r_epik_Ionization_Penalty_Neutral>
1.06932e-05

> <r_epik_State_Penalty>
-0

> <r_epik_Charging_Adjusted_Penalty>
0

> <i_epik_Tot_Q>
0

> <i_epik_Tot_abs_Q>
0

> <r_epik_Metal_State_Penalty>
0.0142097

> <b_epik_Metal_Only>
0

> <s_epik_Chemistry_Notes>
This compound contains an acetal/aminal-like group ( X-CH(R)-Y where X, Y are N, S, or O) that may be acid/base labile, releasing an aldehyde.

> <s_lp_Force_Field>
OPLS_2005

> <r_lp_Energy>
42.6819

> <b_lp_Chiralities_Consistent>
1

> <s_lp_Variant>
AV-unprocessed.smi:160-6

> <Gold.Version>
5.8.1

> <Gold.Id.Protein>
6NUR|6NUR_protein|mol2

> <Gold.PLP.Fitness>
37.4898

> <Gold.PLP.PLP>
-23.8600

> <Gold.PLP.part.hbond>
-8.0000

> <Gold.PLP.part.metal>
0.0000

> <Gold.PLP.part.buried>
-0.6575

> <Gold.PLP.part.nonpolar>
-16.8139

> <Gold.PLP.part.repulsive>
1.0623

> <Gold.PLP.ligand.clash>
0.0000

> <Gold.PLP.ligand.torsion>
0.1382

> <Gold.PLP.Chemscore.Hbond>
4.6334

> <Gold.PLP.Chemscore.CHOScore>
0.0000

> <Gold.PLP.Chemscore.Metal>
0.0000

> <Gold.Chemscore.Hbonds>
donor molecule, donor type, donor heavy atom, donor atom, acceptor molecule, acceptor atom, score
      L1  H    12    27       P1  7957  0.94
      L1  H    14    28       P1  8028  1.00
      P1  H  7997  8009       L1     3  0.66
      P1  H  7997  8010       L1    17  0.98
      P1  H  8011  8017       L1    14  0.02
      P1  H 10752 10765       L1     5  0.91

> <Gold.PLP.Chemscore.Internal.Correction>
0.0061

> <Gold.Rescore>
     Score         DG    S(hbond)    S(metal)    S(lipo)     H(rot)  DE(clash)    DE(int)     intcor
      9.65     -11.28       4.04        0.00      23.04       4.06       1.31       0.32       ----

> <Gold.Chemscore.Fitness>
9.6531

> <Gold.Chemscore.DG>
-11.2832

> <Gold.Chemscore.ZeroCoef>
-5.4800

> <Gold.Chemscore.Hbond>
4.0422

> <Gold.Chemscore.Metal>
0.0000

> <Gold.Chemscore.Lipo>
23.0407

> <Gold.Chemscore.Internal_Hbond>
0.0000

> <Gold.Chemscore.DEClash>
1.3124

> <Gold.Chemscore.DEInternal>
0.3177

> <Gold.Chemscore.Rot>
4.0600

> <Gold.Chemscore.Internal.Correction>
   9.000000E+99

> <Gold.Chemscore.Hbonds>
donor molecule, donor type, donor heavy atom, donor atom, acceptor molecule, acceptor atom, score
      L1  H    12    27       P1  7957  0.87
      L1  H    14    28       P1  8028  0.94
      P1  H  7997  8009       L1     3  0.63
      P1  H  7997  8010       L1    17  0.89
      P1  H  8011  8017       L1    14  0.02
      P1  H 10752 10765       L1     5  0.55

> <Gold.Chemscore.Hbond.Weighted>
-13.5010

> <Gold.Chemscore.Metal.Weighted>
-0.0000

> <Gold.Chemscore.Lipo.Weighted>
-2.6958

> <Gold.Chemscore.Internal_Hbond.Weighted>
0.0000

> <Gold.Chemscore.DEClash.Weighted>
1.3124

> <Gold.Chemscore.DEInternal.Weighted>
0.3177

> <Gold.Chemscore.Rot.Weighted>
10.3936

> <Gold.Chemscore.Internal.Correction.Weighted>
   9.000000E+99

> <Gold.Protein.RotatedTorsions>
[ 6907 6896 6895 6894 ] final  -20.22 input  -60.11 | X-H torsion
[ 7974 7965 7964 7962 ] final  119.75 input  175.53 | X-H torsion
[ 8008 7997 7996 7995 ] final   90.73 input   59.86 | X-H torsion
[ 10167 10162 10161 10158 ] final  117.75 input  -65.29 | X-H torsion
[ 10718 10713 10712 10709 ] final  -85.41 input   66.30 | X-H torsion
[ 10763 10752 10751 10750 ] final -153.38 input  -60.55 | X-H torsion
[ 11005 11000 10999 10996 ] final   62.84 input  -57.11 | X-H torsion

> <Gold.Protein.ActiveResidues>
 VAL166  LYS551  ARG553  GLY616  TRP617  ASP618  TYR619  PRO620  LYS621  CYS622 
 ASP623  PHE694  ASN695  SER759  ASP760  ASP761  ALA762  ILE779  LEU786  VAL792 
 PHE793  MET794  SER795  GLU796  ALA797  LYS798  CYS799  TRP800  GLU811  SER814 

> <Gold.Protein.RotatedAtoms>
  151.2514  135.0623  159.9063 H   0  0  0  0  0  0  0  0  0  0  0  0  # atno 6907 bound_to 6896
  152.5379  134.0328  159.8042 H   0  0  0  0  0  0  0  0  0  0  0  0  # atno 6908 bound_to 6896
  151.0536  133.5553  159.2671 H   0  0  0  0  0  0  0  0  0  0  0  0  # atno 6909 bound_to 6896
  145.1393  139.3278  143.4624 H   0  0  0  0  0  0  0  0  0  0  0  0  # atno 7974 bound_to 7965
  156.0154  140.3346  155.6983 H   0  0  0  0  0  0  0  0  0  0  0  0  # atno 8008 bound_to 7997
  155.6098  140.0664  157.2727 H   0  0  0  0  0  0  0  0  0  0  0  0  # atno 8009 bound_to 7997
  154.4296  140.1795  156.1248 H   0  0  0  0  0  0  0  0  0  0  0  0  # atno 8010 bound_to 7997
  139.6157  144.7091  151.2744 H   0  0  0  0  0  0  0  0  0  0  0  0  # atno 10167 bound_to 10162
  155.9997  130.4730  150.4559 H   0  0  0  0  0  0  0  0  0  0  0  0  # atno 10718 bound_to 10713
  154.7932  135.3214  154.7729 H   0  0  0  0  0  0  0  0  0  0  0  0  # atno 10763 bound_to 10752
  153.8414  135.6870  153.4807 H   0  0  0  0  0  0  0  0  0  0  0  0  # atno 10764 bound_to 10752
  153.1611  135.4660  154.9714 H   0  0  0  0  0  0  0  0  0  0  0  0  # atno 10765 bound_to 10752
  140.0065  134.6362  155.9848 H   0  0  0  0  0  0  0  0  0  0  0  0  # atno 11005 bound_to 11000
  146.3506  140.1424  142.8594 LP  0  0  0  0  0  0  0  0  0  0  0  0  # atno 17320 bound_to 7965
  145.0549  140.9045  143.4973 LP  0  0  0  0  0  0  0  0  0  0  0  0  # atno 17321 bound_to 7965
  140.7349  143.6751  150.8048 LP  0  0  0  0  0  0  0  0  0  0  0  0  # atno 17342 bound_to 10162
  140.0354  143.5401  152.2742 LP  0  0  0  0  0  0  0  0  0  0  0  0  # atno 17343 bound_to 10162
  157.2587  131.0562  151.2334 LP  0  0  0  0  0  0  0  0  0  0  0  0  # atno 17370 bound_to 10713
  157.3456  130.7056  149.6408 LP  0  0  0  0  0  0  0  0  0  0  0  0  # atno 17371 bound_to 10713
  141.1680  133.6537  156.4549 LP  0  0  0  0  0  0  0  0  0  0  0  0  # atno 17394 bound_to 11000
  140.4632  134.6821  157.5095 LP  0  0  0  0  0  0  0  0  0  0  0  0  # atno 17395 bound_to 11000

$$$$
