AV-unprocessed.smi:772|AV-procd|sdf|3686|dock2
  -GOLD-   22720 1103D 1   1.00000     0.00000
 Structure written by MMmdl.
 46 47  0  0  0  0  0  0  0  0  1 V2000
  145.8438  136.2635  153.3057 C   0  0  0  0  0  0  0  0  0  0  0  0
  146.4777  137.5307  153.8402 C   0  0  0  0  0  0  0  0  0  0  0  0
  146.9702  138.5196  152.9628 C   0  0  0  0  0  0  0  0  0  0  0  0
  147.5505  139.6770  153.5157 C   0  0  0  0  0  0  0  0  0  0  0  0
  147.6177  139.8007  154.9189 C   0  0  0  0  0  0  0  0  0  0  0  0
  148.2533  141.0175  155.5681 C   0  0  0  0  0  0  0  0  0  0  0  0
  149.7920  141.0160  155.5040 C   0  0  0  0  0  0  0  0  0  0  0  0
  150.3768  142.0582  156.3441 N   0  0  0  0  0  0  0  0  0  0  0  0
  151.2336  141.8620  157.3620 C   0  0  0  0  0  0  0  0  0  0  0  0
  151.5906  140.7364  157.7123 O   0  0  0  0  0  0  0  0  0  0  0  0
  151.6843  142.9987  157.9514 N   0  0  0  0  0  0  0  0  0  0  0  0
  150.9616  144.2782  158.0314 C   0  0  0  0  0  0  0  0  0  0  0  0
  150.2692  144.3740  159.3993 C   0  0  0  0  0  0  0  0  0  0  0  0
  151.4912  144.3697  160.7475 S   0  0  0  0  0  0  0  0  0  0  0  0
  152.4962  142.9174  160.2726 C   0  0  2  0  0  0  0  0  0  0  0  0
  153.7117  142.7106  161.2115 C   0  0  0  0  0  0  0  0  0  0  0  0
  154.3681  141.3341  161.0095 C   0  0  0  0  0  0  0  0  0  0  0  0
  153.4015  142.9573  162.6998 C   0  0  0  0  0  0  0  0  0  0  0  0
  152.8945  143.0071  158.7823 C   0  0  0  0  0  0  0  0  0  0  0  0
  147.0944  138.7541  155.7069 C   0  0  0  0  0  0  0  0  0  0  0  0
  146.5347  137.6414  155.1856 N   0  0  0  0  0  0  0  0  0  0  0  0
  145.8492  136.2473  152.2155 H   0  0  0  0  0  0  0  0  0  0  0  0
  144.8095  136.1859  153.6416 H   0  0  0  0  0  0  0  0  0  0  0  0
  146.3882  135.3882  153.6612 H   0  0  0  0  0  0  0  0  0  0  0  0
  146.9078  138.3962  151.8917 H   0  0  0  0  0  0  0  0  0  0  0  0
  147.9442  140.4501  152.8723 H   0  0  0  0  0  0  0  0  0  0  0  0
  147.8676  141.9186  155.0894 H   0  0  0  0  0  0  0  0  0  0  0  0
  147.9305  141.0664  156.6088 H   0  0  0  0  0  0  0  0  0  0  0  0
  150.1702  140.0523  155.8453 H   0  0  0  0  0  0  0  0  0  0  0  0
  150.1226  141.1200  154.4691 H   0  0  0  0  0  0  0  0  0  0  0  0
  150.1323  143.0110  156.1172 H   0  0  0  0  0  0  0  0  0  0  0  0
  151.6594  145.1080  157.9093 H   0  0  0  0  0  0  0  0  0  0  0  0
  150.2312  144.4094  157.2329 H   0  0  0  0  0  0  0  0  0  0  0  0
  149.6806  145.2891  159.4648 H   0  0  0  0  0  0  0  0  0  0  0  0
  149.5810  143.5394  159.5384 H   0  0  0  0  0  0  0  0  0  0  0  0
  151.8493  142.0456  160.3840 H   0  0  0  0  0  0  0  0  0  0  0  0
  154.4616  143.4477  160.9211 H   0  0  0  0  0  0  0  0  0  0  0  0
  153.7059  140.5226  161.3117 H   0  0  0  0  0  0  0  0  0  0  0  0
  155.2823  141.2469  161.5972 H   0  0  0  0  0  0  0  0  0  0  0  0
  154.6359  141.1743  159.9649 H   0  0  0  0  0  0  0  0  0  0  0  0
  152.6667  142.2498  163.0837 H   0  0  0  0  0  0  0  0  0  0  0  0
  153.0195  143.9629  162.8721 H   0  0  0  0  0  0  0  0  0  0  0  0
  154.3020  142.8502  163.3050 H   0  0  0  0  0  0  0  0  0  0  0  0
  153.5659  142.1875  158.5211 H   0  0  0  0  0  0  0  0  0  0  0  0
  153.4647  143.9162  158.5885 H   0  0  0  0  0  0  0  0  0  0  0  0
  147.1314  138.8078  156.7850 H   0  0  0  0  0  0  0  0  0  0  0  0
  1  2  1  0  0  0  0
  1 22  1  0  0  0  0
  1 23  1  0  0  0  0
  1 24  1  0  0  0  0
  2 21  1  0  0  0  0
  2  3  2  0  0  0  0
  3  4  1  0  0  0  0
  3 25  1  0  0  0  0
  4  5  2  0  0  0  0
  4 26  1  0  0  0  0
  5  6  1  0  0  0  0
  5 20  1  0  0  0  0
  6  7  1  0  0  0  0
  6 27  1  0  0  0  0
  6 28  1  0  0  0  0
  7  8  1  0  0  0  0
  7 29  1  0  0  0  0
  7 30  1  0  0  0  0
  8  9  1  0  0  0  0
  8 31  1  0  0  0  0
  9 10  2  0  0  0  0
  9 11  1  0  0  0  0
 11 19  1  0  0  0  0
 11 12  1  0  0  0  0
 12 13  1  0  0  0  0
 12 32  1  0  0  0  0
 12 33  1  0  0  0  0
 13 14  1  0  0  0  0
 13 34  1  0  0  0  0
 13 35  1  0  0  0  0
 14 15  1  0  0  0  0
 15 16  1  0  0  0  0
 15 19  1  0  0  0  0
 15 36  1  0  0  0  0
 16 17  1  0  0  0  0
 16 18  1  0  0  0  0
 16 37  1  0  0  0  0
 17 38  1  0  0  0  0
 17 39  1  0  0  0  0
 17 40  1  0  0  0  0
 18 41  1  0  0  0  0
 18 42  1  0  0  0  0
 18 43  1  0  0  0  0
 19 44  1  0  0  0  0
 19 45  1  0  0  0  0
 20 21  2  0  0  0  0
 20 46  1  0  0  0  0
M  END
> <s_m_source_file>
AV-unprocessed.smi

> <i_m_source_file_index>
772

> <i_lp_mmshare_version>
43012

> <i_f3d_flags>
0

> <s_epik_input>
W0NIM11jMVtjSF1bY0hdYyhbY0hdbjEpW0NIMl1bQ0gyXVtOSF1DKD1PKU4yW0NIMl1bQ0gyXVNbQ0BIXShbQ0gyXTIpW0NIXShbQ0gzXSlbQ0gzXQ==

> <s_epik_cmdline>
J2VwaWtfcHl0aG9uJywgJy1waCcsICc3LjAnLCAnLXRuJywgJzgnLCAnLW1hJywgJzIwMCcsICctbWV0YWxfYmluZGluZycsICctaW1hZScsICc8aW5maWxlLm1hZT4nLCAnLW9tYWUnLCAnPG91dGZpbGUubWFlPic=

> <r_epik_Ionization_Penalty>
0.0566916

> <r_epik_Ionization_Penalty_Charging>
0

> <r_epik_Ionization_Penalty_Neutral>
0.0566916

> <r_epik_State_Penalty>
0.0488669

> <r_epik_Charging_Adjusted_Penalty>
0.0488669

> <i_epik_Tot_Q>
0

> <i_epik_Tot_abs_Q>
0

> <r_epik_Metal_State_Penalty>
0.0445784

> <b_epik_Metal_Only>
0

> <s_lp_Force_Field>
OPLS_2005

> <r_lp_Energy>
25.5588

> <b_lp_Chiralities_Consistent>
1

> <s_lp_Variant>
AV-unprocessed.smi:772-2

> <Gold.Version>
5.8.1

> <Gold.Id.Protein>
6NUR|6NUR_protein|mol2

> <Gold.PLP.Fitness>
46.9404

> <Gold.PLP.PLP>
-45.2689

> <Gold.PLP.part.hbond>
-1.0000

> <Gold.PLP.part.metal>
0.0000

> <Gold.PLP.part.buried>
-2.6039

> <Gold.PLP.part.nonpolar>
-43.1349

> <Gold.PLP.part.repulsive>
0.1928

> <Gold.PLP.ligand.clash>
0.0000

> <Gold.PLP.ligand.torsion>
0.6588

> <Gold.PLP.Chemscore.Hbond>
0.9600

> <Gold.PLP.Chemscore.CHOScore>
0.0000

> <Gold.PLP.Chemscore.Metal>
0.0000

> <Gold.Chemscore.Hbonds>
donor molecule, donor type, donor heavy atom, donor atom, acceptor molecule, acceptor atom, score
      L1  H     8    31       P1  8028  0.67

> <Gold.PLP.Chemscore.Internal.Correction>
0.1090

> <Gold.Rescore>
     Score         DG    S(hbond)    S(metal)    S(lipo)     H(rot)  DE(clash)    DE(int)     intcor
     18.79     -19.82       0.95        0.00     124.29       1.32       0.38       0.64       ----

> <Gold.Chemscore.Fitness>
18.7922

> <Gold.Chemscore.DG>
-19.8203

> <Gold.Chemscore.ZeroCoef>
-5.4800

> <Gold.Chemscore.Hbond>
0.9537

> <Gold.Chemscore.Metal>
0.0000

> <Gold.Chemscore.Lipo>
124.2945

> <Gold.Chemscore.Internal_Hbond>
0.0000

> <Gold.Chemscore.DEClash>
0.3835

> <Gold.Chemscore.DEInternal>
0.6446

> <Gold.Chemscore.Rot>
1.3233

> <Gold.Chemscore.Internal.Correction>
   9.000000E+99

> <Gold.Chemscore.Hbonds>
donor molecule, donor type, donor heavy atom, donor atom, acceptor molecule, acceptor atom, score
      L1  H     8    31       P1  8028  0.66

> <Gold.Chemscore.Hbond.Weighted>
-3.1854

> <Gold.Chemscore.Metal.Weighted>
-0.0000

> <Gold.Chemscore.Lipo.Weighted>
-14.5425

> <Gold.Chemscore.Internal_Hbond.Weighted>
0.0000

> <Gold.Chemscore.DEClash.Weighted>
0.3835

> <Gold.Chemscore.DEInternal.Weighted>
0.6446

> <Gold.Chemscore.Rot.Weighted>
3.3876

> <Gold.Chemscore.Internal.Correction.Weighted>
   9.000000E+99

> <Gold.Protein.RotatedTorsions>
[ 6907 6896 6895 6894 ] final  147.11 input  -60.11 | X-H torsion
[ 7974 7965 7964 7962 ] final  146.28 input  175.53 | X-H torsion
[ 8008 7997 7996 7995 ] final -174.06 input   59.86 | X-H torsion
[ 10167 10162 10161 10158 ] final  -83.91 input  -65.29 | X-H torsion
[ 10718 10713 10712 10709 ] final  -37.44 input   66.30 | X-H torsion
[ 10763 10752 10751 10750 ] final   72.27 input  -60.55 | X-H torsion
[ 11005 11000 10999 10996 ] final  -20.86 input  -57.11 | X-H torsion

> <Gold.Protein.ActiveResidues>
 VAL166  LYS551  ARG553  GLY616  TRP617  ASP618  TYR619  PRO620  LYS621  CYS622 
 ASP623  PHE694  ASN695  SER759  ASP760  ASP761  ALA762  ILE779  LEU786  VAL792 
 PHE793  MET794  SER795  GLU796  ALA797  LYS798  CYS799  TRP800  GLU811  SER814 

> <Gold.Protein.RotatedAtoms>
  152.1592  133.4570  159.4851 H   0  0  0  0  0  0  0  0  0  0  0  0  # atno 6907 bound_to 6896
  150.6904  134.2093  159.4362 H   0  0  0  0  0  0  0  0  0  0  0  0  # atno 6908 bound_to 6896
  151.9994  134.9936  160.0615 H   0  0  0  0  0  0  0  0  0  0  0  0  # atno 6909 bound_to 6896
  144.8683  139.5886  143.5898 H   0  0  0  0  0  0  0  0  0  0  0  0  # atno 7974 bound_to 7965
  155.9653  140.1152  157.0860 H   0  0  0  0  0  0  0  0  0  0  0  0  # atno 8008 bound_to 7997
  154.4142  140.1174  156.5301 H   0  0  0  0  0  0  0  0  0  0  0  0  # atno 8009 bound_to 7997
  155.6667  140.3473  155.4805 H   0  0  0  0  0  0  0  0  0  0  0  0  # atno 8010 bound_to 7997
  140.4182  143.2595  151.8925 H   0  0  0  0  0  0  0  0  0  0  0  0  # atno 10167 bound_to 10162
  156.3152  130.4258  149.8012 H   0  0  0  0  0  0  0  0  0  0  0  0  # atno 10718 bound_to 10713
  153.0448  135.5106  154.7718 H   0  0  0  0  0  0  0  0  0  0  0  0  # atno 10763 bound_to 10752
  154.6627  135.2941  154.9848 H   0  0  0  0  0  0  0  0  0  0  0  0  # atno 10764 bound_to 10752
  154.0694  135.6680  153.4875 H   0  0  0  0  0  0  0  0  0  0  0  0  # atno 10765 bound_to 10752
  140.8506  133.7860  155.9961 H   0  0  0  0  0  0  0  0  0  0  0  0  # atno 11005 bound_to 11000
  146.2912  139.7145  142.9159 LP  0  0  0  0  0  0  0  0  0  0  0  0  # atno 17320 bound_to 7965
  145.4178  141.0403  143.2981 LP  0  0  0  0  0  0  0  0  0  0  0  0  # atno 17321 bound_to 7965
  139.4782  144.5465  151.8450 LP  0  0  0  0  0  0  0  0  0  0  0  0  # atno 17342 bound_to 10162
  140.4563  144.1785  150.5902 LP  0  0  0  0  0  0  0  0  0  0  0  0  # atno 17343 bound_to 10162
  156.5341  130.8270  151.3247 LP  0  0  0  0  0  0  0  0  0  0  0  0  # atno 17370 bound_to 10713
  157.7400  130.9842  150.2349 LP  0  0  0  0  0  0  0  0  0  0  0  0  # atno 17371 bound_to 10713
  140.8795  134.2629  157.5151 LP  0  0  0  0  0  0  0  0  0  0  0  0  # atno 17394 bound_to 11000
  139.8704  134.9608  156.4374 LP  0  0  0  0  0  0  0  0  0  0  0  0  # atno 17395 bound_to 11000

$$$$
