AV-unprocessed.smi:1829|AV-procd|sdf|7429|dock3
  -GOLD-   22720 9113D 1   1.00000     0.00000
 Structure written by MMmdl.
 45 47  0  0  0  0  0  0  0  0  1 V2000
  153.0182  145.0267  157.5600 C   0  0  0  0  0  0  0  0  0  0  0  0
  151.9280  144.4945  158.5035 C   0  0  0  0  0  0  0  0  0  0  0  0
  151.8105  145.3515  159.7738 C   0  0  0  0  0  0  0  0  0  0  0  0
  152.1401  143.0232  158.8383 C   0  0  0  0  0  0  0  0  0  0  0  0
  151.2924  142.0421  158.2811 C   0  0  0  0  0  0  0  0  0  0  0  0
  151.4791  140.6807  158.5902 C   0  0  0  0  0  0  0  0  0  0  0  0
  152.5176  140.2834  159.4580 C   0  0  0  0  0  0  0  0  0  0  0  0
  152.7065  138.8129  159.7959 C   0  0  1  0  0  0  0  0  0  0  0  0
  151.8071  137.9826  159.0870 O   0  0  0  0  0  0  0  0  0  0  0  0
  154.1578  138.3619  159.5369 C   0  0  0  0  0  0  0  0  0  0  0  0
  154.4371  137.0355  160.0715 N   0  0  0  0  0  0  0  0  0  0  0  0
  154.7568  135.9020  159.3965 C   0  0  0  0  0  0  0  0  0  0  0  0
  154.8689  135.8877  157.8980 C   0  0  0  0  0  0  0  0  0  0  0  0
  153.9031  135.0792  157.2559 O   0  0  0  0  0  0  0  0  0  0  0  0
  154.9659  134.8214  160.1532 N   0  0  0  0  0  0  0  0  0  0  0  0
  154.7616  135.2980  161.4328 C   0  0  0  0  0  0  0  0  0  0  0  0
  154.8328  134.6397  162.6815 C   0  0  0  0  0  0  0  0  0  0  0  0
  154.5811  135.3461  163.8761 C   0  0  0  0  0  0  0  0  0  0  0  0
  154.2555  136.7175  163.8396 C   0  0  0  0  0  0  0  0  0  0  0  0
  154.1793  137.3922  162.6059 C   0  0  0  0  0  0  0  0  0  0  0  0
  154.4310  136.6821  161.4167 C   0  0  0  0  0  0  0  0  0  0  0  0
  153.3647  141.2639  160.0183 C   0  0  0  0  0  0  0  0  0  0  0  0
  153.1774  142.6248  159.7095 C   0  0  0  0  0  0  0  0  0  0  0  0
  153.0615  144.4410  156.6411 H   0  0  0  0  0  0  0  0  0  0  0  0
  154.0045  144.9935  158.0237 H   0  0  0  0  0  0  0  0  0  0  0  0
  152.8213  146.0621  157.2806 H   0  0  0  0  0  0  0  0  0  0  0  0
  150.9785  144.5787  157.9730 H   0  0  0  0  0  0  0  0  0  0  0  0
  150.9975  144.9994  160.4095 H   0  0  0  0  0  0  0  0  0  0  0  0
  151.6059  146.3932  159.5251 H   0  0  0  0  0  0  0  0  0  0  0  0
  152.7280  145.3277  160.3625 H   0  0  0  0  0  0  0  0  0  0  0  0
  150.4918  142.3284  157.6147 H   0  0  0  0  0  0  0  0  0  0  0  0
  150.8183  139.9428  158.1589 H   0  0  0  0  0  0  0  0  0  0  0  0
  152.4810  138.6770  160.8545 H   0  0  0  0  0  0  0  0  0  0  0  0
  152.2243  137.7057  158.2856 H   0  0  0  0  0  0  0  0  0  0  0  0
  154.3841  138.3852  158.4710 H   0  0  0  0  0  0  0  0  0  0  0  0
  154.8503  139.0622  160.0059 H   0  0  0  0  0  0  0  0  0  0  0  0
  154.7693  136.9045  157.5185 H   0  0  0  0  0  0  0  0  0  0  0  0
  155.8604  135.5294  157.6202 H   0  0  0  0  0  0  0  0  0  0  0  0
  153.5392  134.4834  157.8924 H   0  0  0  0  0  0  0  0  0  0  0  0
  155.0816  133.5895  162.7198 H   0  0  0  0  0  0  0  0  0  0  0  0
  154.6383  134.8330  164.8249 H   0  0  0  0  0  0  0  0  0  0  0  0
  154.0640  137.2511  164.7591 H   0  0  0  0  0  0  0  0  0  0  0  0
  153.9301  138.4425  162.5735 H   0  0  0  0  0  0  0  0  0  0  0  0
  154.1593  140.9755  160.6907 H   0  0  0  0  0  0  0  0  0  0  0  0
  153.8342  143.3623  160.1475 H   0  0  0  0  0  0  0  0  0  0  0  0
  1  2  1  0  0  0  0
  1 24  1  0  0  0  0
  1 25  1  0  0  0  0
  1 26  1  0  0  0  0
  2  3  1  0  0  0  0
  2  4  1  0  0  0  0
  2 27  1  0  0  0  0
  3 28  1  0  0  0  0
  3 29  1  0  0  0  0
  3 30  1  0  0  0  0
  4 23  1  0  0  0  0
  4  5  2  0  0  0  0
  5  6  1  0  0  0  0
  5 31  1  0  0  0  0
  6  7  2  0  0  0  0
  6 32  1  0  0  0  0
  7  8  1  0  0  0  0
  7 22  1  0  0  0  0
  8  9  1  0  0  0  0
  8 10  1  0  0  0  0
  8 33  1  0  0  0  0
  9 34  1  0  0  0  0
 10 11  1  0  0  0  0
 10 35  1  0  0  0  0
 10 36  1  0  0  0  0
 11 21  1  0  0  0  0
 11 12  1  0  0  0  0
 12 13  1  0  0  0  0
 12 15  2  0  0  0  0
 13 14  1  0  0  0  0
 13 37  1  0  0  0  0
 13 38  1  0  0  0  0
 14 39  1  0  0  0  0
 15 16  1  0  0  0  0
 16 21  2  0  0  0  0
 16 17  1  0  0  0  0
 17 18  2  0  0  0  0
 17 40  1  0  0  0  0
 18 19  1  0  0  0  0
 18 41  1  0  0  0  0
 19 20  2  0  0  0  0
 19 42  1  0  0  0  0
 20 21  1  0  0  0  0
 20 43  1  0  0  0  0
 22 23  2  0  0  0  0
 22 44  1  0  0  0  0
 23 45  1  0  0  0  0
M  END
> <s_m_source_file>
AV-unprocessed.smi

> <i_m_source_file_index>
1829

> <i_lp_mmshare_version>
43012

> <i_f3d_flags>
0

> <s_epik_input>
W0NIM11bQ0hdKFtDSDNdKWMxW2NIXVtjSF1jKFtjSF1bY0hdMSlbQ0BIXShbT0hdKVtDSDJdbihjKG4yKVtDSDJdW09IXSljKGMyMylbY0hdW2NIXVtjSF1bY0hdMw==

> <s_epik_cmdline>
J2VwaWtfcHl0aG9uJywgJy1waCcsICc3LjAnLCAnLXRuJywgJzgnLCAnLW1hJywgJzIwMCcsICctbWV0YWxfYmluZGluZycsICctaW1hZScsICc8aW5maWxlLm1hZT4nLCAnLW9tYWUnLCAnPG91dGZpbGUubWFlPic=

> <r_epik_Ionization_Penalty>
0.0634718

> <r_epik_Ionization_Penalty_Charging>
0

> <r_epik_Ionization_Penalty_Neutral>
0.0634718

> <r_epik_State_Penalty>
0.0551572

> <r_epik_Charging_Adjusted_Penalty>
0.0551572

> <i_epik_Tot_Q>
0

> <i_epik_Tot_abs_Q>
0

> <r_epik_Metal_State_Penalty>
5.78034e-05

> <b_epik_Metal_Only>
0

> <s_lp_Force_Field>
OPLS_2005

> <r_lp_Energy>
13.3672

> <b_lp_Chiralities_Consistent>
1

> <s_lp_Variant>
AV-unprocessed.smi:1829-2

> <Gold.Version>
5.8.1

> <Gold.Id.Protein>
6NUR|6NUR_protein|mol2

> <Gold.PLP.Fitness>
51.7708

> <Gold.PLP.PLP>
-49.1146

> <Gold.PLP.part.hbond>
-1.0735

> <Gold.PLP.part.metal>
0.0000

> <Gold.PLP.part.buried>
-6.2527

> <Gold.PLP.part.nonpolar>
-41.5320

> <Gold.PLP.part.repulsive>
0.0000

> <Gold.PLP.ligand.clash>
0.0000

> <Gold.PLP.ligand.torsion>
0.3406

> <Gold.PLP.Chemscore.Hbond>
1.0665

> <Gold.PLP.Chemscore.CHOScore>
0.0000

> <Gold.PLP.Chemscore.Metal>
0.0000

> <Gold.Chemscore.Hbonds>
donor molecule, donor type, donor heavy atom, donor atom, acceptor molecule, acceptor atom, score
      P1  H 10752 10764       L1    14  1.00

> <Gold.PLP.Chemscore.Internal.Correction>
0.1378

> <Gold.Rescore>
     Score         DG    S(hbond)    S(metal)    S(lipo)     H(rot)  DE(clash)    DE(int)     intcor
     18.88     -19.80       0.99        0.00     152.58       2.68       0.63       0.29       ----

> <Gold.Chemscore.Fitness>
18.8831

> <Gold.Chemscore.DG>
-19.7991

> <Gold.Chemscore.ZeroCoef>
-5.4800

> <Gold.Chemscore.Hbond>
0.9935

> <Gold.Chemscore.Metal>
0.0000

> <Gold.Chemscore.Lipo>
152.5773

> <Gold.Chemscore.Internal_Hbond>
0.0000

> <Gold.Chemscore.DEClash>
0.6282

> <Gold.Chemscore.DEInternal>
0.2879

> <Gold.Chemscore.Rot>
2.6761

> <Gold.Chemscore.Internal.Correction>
   9.000000E+99

> <Gold.Chemscore.Hbonds>
donor molecule, donor type, donor heavy atom, donor atom, acceptor molecule, acceptor atom, score
      P1  H 10752 10764       L1    14  0.64

> <Gold.Chemscore.Hbond.Weighted>
-3.3183

> <Gold.Chemscore.Metal.Weighted>
-0.0000

> <Gold.Chemscore.Lipo.Weighted>
-17.8515

> <Gold.Chemscore.Internal_Hbond.Weighted>
0.0000

> <Gold.Chemscore.DEClash.Weighted>
0.6282

> <Gold.Chemscore.DEInternal.Weighted>
0.2879

> <Gold.Chemscore.Rot.Weighted>
6.8507

> <Gold.Chemscore.Internal.Correction.Weighted>
   9.000000E+99

> <Gold.Protein.RotatedTorsions>
[ 6907 6896 6895 6894 ] final  -38.61 input  -60.11 | X-H torsion
[ 7974 7965 7964 7962 ] final  110.56 input  175.53 | X-H torsion
[ 8008 7997 7996 7995 ] final   68.00 input   59.86 | X-H torsion
[ 10167 10162 10161 10158 ] final -119.47 input  -65.29 | X-H torsion
[ 10718 10713 10712 10709 ] final   81.26 input   66.30 | X-H torsion
[ 10763 10752 10751 10750 ] final   33.69 input  -60.55 | X-H torsion
[ 11005 11000 10999 10996 ] final  162.11 input  -57.11 | X-H torsion

> <Gold.Protein.ActiveResidues>
 VAL166  LYS551  ARG553  GLY616  TRP617  ASP618  TYR619  PRO620  LYS621  CYS622 
 ASP623  PHE694  ASN695  SER759  ASP760  ASP761  ALA762  ILE779  LEU786  VAL792 
 PHE793  MET794  SER795  GLU796  ALA797  LYS798  CYS799  TRP800  GLU811  SER814 

> <Gold.Protein.RotatedAtoms>
  151.0004  134.9317  159.7950 H   0  0  0  0  0  0  0  0  0  0  0  0  # atno 6907 bound_to 6896
  152.5276  134.3162  159.9141 H   0  0  0  0  0  0  0  0  0  0  0  0  # atno 6908 bound_to 6896
  151.3168  133.4015  159.2685 H   0  0  0  0  0  0  0  0  0  0  0  0  # atno 6909 bound_to 6896
  145.2534  139.2730  143.4055 H   0  0  0  0  0  0  0  0  0  0  0  0  # atno 7974 bound_to 7965
  155.7016  140.3495  155.4935 H   0  0  0  0  0  0  0  0  0  0  0  0  # atno 8008 bound_to 7997
  155.9435  140.1106  157.1058 H   0  0  0  0  0  0  0  0  0  0  0  0  # atno 8009 bound_to 7997
  154.4107  140.1208  156.4945 H   0  0  0  0  0  0  0  0  0  0  0  0  # atno 8010 bound_to 7997
  140.0463  143.5104  152.2105 H   0  0  0  0  0  0  0  0  0  0  0  0  # atno 10167 bound_to 10162
  157.6828  130.9996  150.2201 H   0  0  0  0  0  0  0  0  0  0  0  0  # atno 10718 bound_to 10713
  153.0199  135.6380  154.1551 H   0  0  0  0  0  0  0  0  0  0  0  0  # atno 10763 bound_to 10752
  154.1287  135.2842  155.3192 H   0  0  0  0  0  0  0  0  0  0  0  0  # atno 10764 bound_to 10752
  154.6210  135.5524  153.7637 H   0  0  0  0  0  0  0  0  0  0  0  0  # atno 10765 bound_to 10752
  140.2225  134.8185  157.3234 H   0  0  0  0  0  0  0  0  0  0  0  0  # atno 11005 bound_to 11000
  146.3296  140.2931  142.8616 LP  0  0  0  0  0  0  0  0  0  0  0  0  # atno 17320 bound_to 7965
  144.9482  140.8151  143.5588 LP  0  0  0  0  0  0  0  0  0  0  0  0  # atno 17321 bound_to 7965
  139.5982  144.7574  151.3236 LP  0  0  0  0  0  0  0  0  0  0  0  0  # atno 17342 bound_to 10162
  140.7237  143.7063  150.7805 LP  0  0  0  0  0  0  0  0  0  0  0  0  # atno 17343 bound_to 10162
  156.2854  130.3739  149.7894 LP  0  0  0  0  0  0  0  0  0  0  0  0  # atno 17370 bound_to 10713
  156.5569  130.8366  151.3317 LP  0  0  0  0  0  0  0  0  0  0  0  0  # atno 17371 bound_to 10713
  140.1835  134.4460  155.7758 LP  0  0  0  0  0  0  0  0  0  0  0  0  # atno 17394 bound_to 11000
  141.2222  133.6994  156.7908 LP  0  0  0  0  0  0  0  0  0  0  0  0  # atno 17395 bound_to 11000

$$$$
