AV-unprocessed.smi:921|AV-procd|sdf|4169|dock5
  -GOLD-   22720 2 73D 1   1.00000     0.00000
 Structure written by MMmdl.
 39 41  0  0  0  0  0  0  0  0  1 V2000
  148.5070  137.2100  158.2427 N   0  0  0  0  0  0  0  0  0  0  0  0
  149.7378  137.0990  158.7501 C   0  0  0  0  0  0  0  0  0  0  0  0
  149.9424  136.6557  159.8782 O   0  0  0  0  0  0  0  0  0  0  0  0
  150.9045  137.5582  157.8671 C   0  0  0  0  0  0  0  0  0  0  0  0
  151.5288  138.7985  158.4593 C   0  0  0  0  0  0  0  0  0  0  0  0
  152.6707  138.7484  159.1531 N   0  0  0  0  0  0  0  0  0  0  0  0
  152.8818  140.0659  159.5038 C   0  0  0  0  0  0  0  0  0  0  0  0
  153.9187  140.6619  160.2567 C   0  0  0  0  0  0  0  0  0  0  0  0
  153.9239  142.0533  160.4874 C   0  0  0  0  0  0  0  0  0  0  0  0
  152.8955  142.8661  159.9682 C   0  0  0  0  0  0  0  0  0  0  0  0
  151.8547  142.2917  159.2137 C   0  0  0  0  0  0  0  0  0  0  0  0
  151.8538  140.9020  158.9877 C   0  0  0  0  0  0  0  0  0  0  0  0
  151.0013  140.0434  158.3001 N   0  0  0  0  0  0  0  0  0  0  0  0
  149.8091  140.4606  157.5709 C   0  0  0  0  0  0  0  0  0  0  0  0
  150.1334  141.3103  156.3265 C   0  0  2  0  0  0  0  0  0  0  0  0
  150.1926  142.6789  156.6757 O   0  0  0  0  0  0  0  0  0  0  0  0
  149.1378  141.0429  155.2063 C   0  0  0  0  0  0  0  0  0  0  0  0
  148.1278  141.9862  154.9115 C   0  0  0  0  0  0  0  0  0  0  0  0
  147.1990  141.7376  153.8827 C   0  0  0  0  0  0  0  0  0  0  0  0
  146.2354  142.6478  153.6059 F   0  0  0  0  0  0  0  0  0  0  0  0
  147.2707  140.5422  153.1432 C   0  0  0  0  0  0  0  0  0  0  0  0
  148.2698  139.5946  153.4359 C   0  0  0  0  0  0  0  0  0  0  0  0
  149.1996  139.8407  154.4652 C   0  0  0  0  0  0  0  0  0  0  0  0
  150.1481  138.9126  154.7387 F   0  0  0  0  0  0  0  0  0  0  0  0
  147.7127  136.9064  158.7868 H   0  0  0  0  0  0  0  0  0  0  0  0
  148.3748  137.5837  157.3141 H   0  0  0  0  0  0  0  0  0  0  0  0
  151.6619  136.7770  157.7928 H   0  0  0  0  0  0  0  0  0  0  0  0
  150.5227  137.7310  156.8636 H   0  0  0  0  0  0  0  0  0  0  0  0
  154.7111  140.0476  160.6580 H   0  0  0  0  0  0  0  0  0  0  0  0
  154.7207  142.4988  161.0648 H   0  0  0  0  0  0  0  0  0  0  0  0
  152.9067  143.9310  160.1489 H   0  0  0  0  0  0  0  0  0  0  0  0
  151.0658  142.9118  158.8143 H   0  0  0  0  0  0  0  0  0  0  0  0
  149.2810  139.5580  157.2607 H   0  0  0  0  0  0  0  0  0  0  0  0
  149.1210  140.9770  158.2386 H   0  0  0  0  0  0  0  0  0  0  0  0
  151.1314  141.0466  155.9748 H   0  0  0  0  0  0  0  0  0  0  0  0
  149.5020  143.1362  156.2208 H   0  0  0  0  0  0  0  0  0  0  0  0
  148.0596  142.9041  155.4770 H   0  0  0  0  0  0  0  0  0  0  0  0
  146.5584  140.3505  152.3544 H   0  0  0  0  0  0  0  0  0  0  0  0
  148.3219  138.6759  152.8709 H   0  0  0  0  0  0  0  0  0  0  0  0
  1  2  1  0  0  0  0
  1 25  1  0  0  0  0
  1 26  1  0  0  0  0
  2  3  2  0  0  0  0
  2  4  1  0  0  0  0
  4  5  1  0  0  0  0
  4 27  1  0  0  0  0
  4 28  1  0  0  0  0
  5 13  1  0  0  0  0
  5  6  2  0  0  0  0
  6  7  1  0  0  0  0
  7 12  2  0  0  0  0
  7  8  1  0  0  0  0
  8  9  2  0  0  0  0
  8 29  1  0  0  0  0
  9 10  1  0  0  0  0
  9 30  1  0  0  0  0
 10 11  2  0  0  0  0
 10 31  1  0  0  0  0
 11 12  1  0  0  0  0
 11 32  1  0  0  0  0
 12 13  1  0  0  0  0
 13 14  1  0  0  0  0
 14 15  1  0  0  0  0
 14 33  1  0  0  0  0
 14 34  1  0  0  0  0
 15 16  1  0  0  0  0
 15 17  1  0  0  0  0
 15 35  1  0  0  0  0
 16 36  1  0  0  0  0
 17 23  1  0  0  0  0
 17 18  2  0  0  0  0
 18 19  1  0  0  0  0
 18 37  1  0  0  0  0
 19 20  1  0  0  0  0
 19 21  2  0  0  0  0
 21 22  1  0  0  0  0
 21 38  1  0  0  0  0
 22 23  2  0  0  0  0
 22 39  1  0  0  0  0
 23 24  1  0  0  0  0
M  END
> <s_m_source_file>
AV-unprocessed.smi

> <i_m_source_file_index>
921

> <i_lp_mmshare_version>
43012

> <i_f3d_flags>
0

> <s_epik_input>
W2NIXTFbY0hdW2NIXVtjSF1jKGMxMiluKGMobjIpW0NIMl1DKD1PKVtOSDJdKVtDSDJdW0NASF0oW09IXSljM1tjSF1jKEYpW2NIXVtjSF1jM0Y=

> <s_epik_cmdline>
J2VwaWtfcHl0aG9uJywgJy1waCcsICc3LjAnLCAnLXRuJywgJzgnLCAnLW1hJywgJzIwMCcsICctbWV0YWxfYmluZGluZycsICctaW1hZScsICc8aW5maWxlLm1hZT4nLCAnLW9tYWUnLCAnPG91dGZpbGUubWFlPic=

> <r_epik_Ionization_Penalty>
0.0366909

> <r_epik_Ionization_Penalty_Charging>
0

> <r_epik_Ionization_Penalty_Neutral>
0.0366909

> <r_epik_State_Penalty>
0.0306642

> <r_epik_Charging_Adjusted_Penalty>
0.0306642

> <i_epik_Tot_Q>
0

> <i_epik_Tot_abs_Q>
0

> <r_epik_Metal_State_Penalty>
0.028853

> <b_epik_Metal_Only>
0

> <s_lp_Force_Field>
OPLS_2005

> <r_lp_Energy>
14.0365

> <b_lp_Chiralities_Consistent>
1

> <s_lp_Variant>
AV-unprocessed.smi:921-1

> <Gold.Version>
5.8.1

> <Gold.Id.Protein>
6NUR|6NUR_protein|mol2

> <Gold.PLP.Fitness>
48.6744

> <Gold.PLP.PLP>
-45.1131

> <Gold.PLP.part.hbond>
-2.0000

> <Gold.PLP.part.metal>
0.0000

> <Gold.PLP.part.buried>
-2.0479

> <Gold.PLP.part.nonpolar>
-41.8030

> <Gold.PLP.part.repulsive>
0.0957

> <Gold.PLP.ligand.clash>
0.0000

> <Gold.PLP.ligand.torsion>
1.2273

> <Gold.PLP.Chemscore.Hbond>
1.9920

> <Gold.PLP.Chemscore.CHOScore>
0.0000

> <Gold.PLP.Chemscore.Metal>
0.0000

> <Gold.Chemscore.Hbonds>
donor molecule, donor type, donor heavy atom, donor atom, acceptor molecule, acceptor atom, score
      L1  H    16    36       P1  8028  0.93
      P1  H  6896  6909       L1     3  1.00

> <Gold.PLP.Chemscore.Internal.Correction>
0.0399

> <Gold.Rescore>
     Score         DG    S(hbond)    S(metal)    S(lipo)     H(rot)  DE(clash)    DE(int)     intcor
     13.65     -14.96       1.80        0.00      97.83       3.11       0.11       1.20       ----

> <Gold.Chemscore.Fitness>
13.6521

> <Gold.Chemscore.DG>
-14.9625

> <Gold.Chemscore.ZeroCoef>
-5.4800

> <Gold.Chemscore.Hbond>
1.7976

> <Gold.Chemscore.Metal>
0.0000

> <Gold.Chemscore.Lipo>
97.8257

> <Gold.Chemscore.Internal_Hbond>
0.0000

> <Gold.Chemscore.DEClash>
0.1081

> <Gold.Chemscore.DEInternal>
1.2023

> <Gold.Chemscore.Rot>
3.1121

> <Gold.Chemscore.Internal.Correction>
   9.000000E+99

> <Gold.Chemscore.Hbonds>
donor molecule, donor type, donor heavy atom, donor atom, acceptor molecule, acceptor atom, score
      L1  H    16    36       P1  8028  0.90
      P1  H  6896  6909       L1     3  0.73

> <Gold.Chemscore.Hbond.Weighted>
-6.0039

> <Gold.Chemscore.Metal.Weighted>
-0.0000

> <Gold.Chemscore.Lipo.Weighted>
-11.4456

> <Gold.Chemscore.Internal_Hbond.Weighted>
0.0000

> <Gold.Chemscore.DEClash.Weighted>
0.1081

> <Gold.Chemscore.DEInternal.Weighted>
1.2023

> <Gold.Chemscore.Rot.Weighted>
7.9670

> <Gold.Chemscore.Internal.Correction.Weighted>
   9.000000E+99

> <Gold.Protein.RotatedTorsions>
[ 6907 6896 6895 6894 ] final   77.83 input  -60.11 | X-H torsion
[ 7974 7965 7964 7962 ] final   51.78 input  175.53 | X-H torsion
[ 8008 7997 7996 7995 ] final  -19.85 input   59.86 | X-H torsion
[ 10167 10162 10161 10158 ] final   63.58 input  -65.29 | X-H torsion
[ 10718 10713 10712 10709 ] final   95.03 input   66.30 | X-H torsion
[ 10763 10752 10751 10750 ] final   70.03 input  -60.55 | X-H torsion
[ 11005 11000 10999 10996 ] final   80.29 input  -57.11 | X-H torsion

> <Gold.Protein.ActiveResidues>
 VAL166  LYS551  ARG553  GLY616  TRP617  ASP618  TYR619  PRO620  LYS621  CYS622 
 ASP623  PHE694  ASN695  SER759  ASP760  ASP761  ALA762  ILE779  LEU786  VAL792 
 PHE793  MET794  SER795  GLU796  ALA797  LYS798  CYS799  TRP800  GLU811  SER814 

> <Gold.Protein.RotatedAtoms>
  152.5134  134.3757  159.9333 H   0  0  0  0  0  0  0  0  0  0  0  0  # atno 6907 bound_to 6896
  151.3712  133.3848  159.2707 H   0  0  0  0  0  0  0  0  0  0  0  0  # atno 6908 bound_to 6896
  150.9576  134.8988  159.7769 H   0  0  0  0  0  0  0  0  0  0  0  0  # atno 6909 bound_to 6896
  145.9879  139.4308  143.0092 H   0  0  0  0  0  0  0  0  0  0  0  0  # atno 7974 bound_to 7965
  154.4809  140.2077  155.9767 H   0  0  0  0  0  0  0  0  0  0  0  0  # atno 8008 bound_to 7997
  156.1163  140.3221  155.8113 H   0  0  0  0  0  0  0  0  0  0  0  0  # atno 8009 bound_to 7997
  155.4547  140.0519  157.2988 H   0  0  0  0  0  0  0  0  0  0  0  0  # atno 8010 bound_to 7997
  140.1315  144.4638  150.6862 H   0  0  0  0  0  0  0  0  0  0  0  0  # atno 10167 bound_to 10162
  157.6942  131.0532  150.4277 H   0  0  0  0  0  0  0  0  0  0  0  0  # atno 10718 bound_to 10713
  153.0319  135.5188  154.7379 H   0  0  0  0  0  0  0  0  0  0  0  0  # atno 10763 bound_to 10752
  154.6387  135.2909  155.0131 H   0  0  0  0  0  0  0  0  0  0  0  0  # atno 10764 bound_to 10752
  154.1057  135.6629  153.4928 H   0  0  0  0  0  0  0  0  0  0  0  0  # atno 10765 bound_to 10752
  139.9140  134.7909  156.1890 H   0  0  0  0  0  0  0  0  0  0  0  0  # atno 11005 bound_to 11000
  145.7674  140.9911  143.1168 LP  0  0  0  0  0  0  0  0  0  0  0  0  # atno 17320 bound_to 7965
  144.6880  139.9405  143.7475 LP  0  0  0  0  0  0  0  0  0  0  0  0  # atno 17321 bound_to 7965
  140.6814  143.2328  151.5374 LP  0  0  0  0  0  0  0  0  0  0  0  0  # atno 17342 bound_to 10162
  139.5517  144.2379  152.1542 LP  0  0  0  0  0  0  0  0  0  0  0  0  # atno 17343 bound_to 10162
  156.4646  130.4039  149.6555 LP  0  0  0  0  0  0  0  0  0  0  0  0  # atno 17370 bound_to 10713
  156.3657  130.7505  151.2482 LP  0  0  0  0  0  0  0  0  0  0  0  0  # atno 17371 bound_to 10713
  141.0595  133.6848  156.1925 LP  0  0  0  0  0  0  0  0  0  0  0  0  # atno 17394 bound_to 11000
  140.6683  134.4895  157.5586 LP  0  0  0  0  0  0  0  0  0  0  0  0  # atno 17395 bound_to 11000

$$$$
