AV-unprocessed.smi:2178|AV-procd|sdf|8854|dock1
  -GOLD-   2272012 43D 1   1.00000     0.00000
 Structure written by MMmdl.
 47 49  0  0  0  0  0  0  0  0  2 V2000
  153.8342  140.4112  160.7710 C   0  0  0  0  0  0  0  0  0  0  0  0
  153.1982  141.7880  160.8273 C   0  0  0  0  0  0  0  0  0  0  0  0
  153.2232  142.5104  162.0381 C   0  0  0  0  0  0  0  0  0  0  0  0
  152.6218  143.7797  162.1201 C   0  0  0  0  0  0  0  0  0  0  0  0
  151.9871  144.3314  160.9920 C   0  0  0  0  0  0  0  0  0  0  0  0
  151.9586  143.6200  159.7748 C   0  0  0  0  0  0  0  0  0  0  0  0
  151.2644  144.2231  158.5680 C   0  0  0  0  0  0  0  0  0  0  0  0
  152.5777  142.3512  159.6860 C   0  0  0  0  0  0  0  0  0  0  0  0
  152.5470  141.6642  158.4996 O   0  0  0  0  0  0  0  0  0  0  0  0
  151.8029  140.4561  158.5586 C   0  0  0  0  0  0  0  0  0  0  0  0
  150.7500  140.4645  157.4400 C   0  0  2  0  0  0  0  0  0  0  0  0
  149.9275  139.3237  157.5868 O   0  0  0  0  0  0  0  0  0  0  0  0
  151.3967  140.4474  156.0406 C   0  0  0  0  0  0  0  0  0  0  0  0
  150.4788  139.9681  154.9942 N   0  0  0  0  0  0  0  0  0  0  0  0
  150.5989  138.9049  154.1478 C   0  0  0  0  0  0  0  0  0  0  0  0
  151.7325  137.9353  154.0829 C   0  0  0  0  0  0  0  0  0  0  0  0
  151.2906  136.5985  154.0002 O   0  0  0  0  0  0  0  0  0  0  0  0
  149.4811  138.8798  153.3690 N   0  3  0  0  0  0  0  0  0  0  0  0
  148.6397  139.9371  153.7158 C   0  0  0  0  0  0  0  0  0  0  0  0
  147.4031  140.3203  153.2058 C   0  0  0  0  0  0  0  0  0  0  0  0
  146.8048  141.4585  153.7851 C   0  0  0  0  0  0  0  0  0  0  0  0
  147.4339  142.1667  154.8295 C   0  0  0  0  0  0  0  0  0  0  0  0
  148.6868  141.7674  155.3394 C   0  0  0  0  0  0  0  0  0  0  0  0
  149.2730  140.6414  154.7607 C   0  0  0  0  0  0  0  0  0  0  0  0
  153.8310  139.9415  161.7549 H   0  0  0  0  0  0  0  0  0  0  0  0
  154.8677  140.4861  160.4333 H   0  0  0  0  0  0  0  0  0  0  0  0
  153.2936  139.7546  160.0884 H   0  0  0  0  0  0  0  0  0  0  0  0
  153.7009  142.0906  162.9114 H   0  0  0  0  0  0  0  0  0  0  0  0
  152.6417  144.3277  163.0505 H   0  0  0  0  0  0  0  0  0  0  0  0
  151.5209  145.3031  161.0661 H   0  0  0  0  0  0  0  0  0  0  0  0
  150.6130  143.4889  158.0932 H   0  0  0  0  0  0  0  0  0  0  0  0
  151.9998  144.5557  157.8354 H   0  0  0  0  0  0  0  0  0  0  0  0
  150.6531  145.0809  158.8500 H   0  0  0  0  0  0  0  0  0  0  0  0
  152.4922  139.6242  158.4053 H   0  0  0  0  0  0  0  0  0  0  0  0
  151.3403  140.3068  159.5353 H   0  0  0  0  0  0  0  0  0  0  0  0
  150.1308  141.3575  157.5328 H   0  0  0  0  0  0  0  0  0  0  0  0
  149.0246  139.6014  157.5752 H   0  0  0  0  0  0  0  0  0  0  0  0
  151.6982  141.4573  155.7595 H   0  0  0  0  0  0  0  0  0  0  0  0
  152.3080  139.8490  156.0293 H   0  0  0  0  0  0  0  0  0  0  0  0
  152.3530  138.1587  153.2147 H   0  0  0  0  0  0  0  0  0  0  0  0
  152.3626  138.0500  154.9648 H   0  0  0  0  0  0  0  0  0  0  0  0
  151.0657  136.4108  153.1015 H   0  0  0  0  0  0  0  0  0  0  0  0
  146.9198  139.7792  152.4055 H   0  0  0  0  0  0  0  0  0  0  0  0
  145.8449  141.7951  153.4209 H   0  0  0  0  0  0  0  0  0  0  0  0
  146.9458  143.0349  155.2481 H   0  0  0  0  0  0  0  0  0  0  0  0
  149.1591  142.3210  156.1368 H   0  0  0  0  0  0  0  0  0  0  0  0
  149.3086  138.1858  152.6533 H   0  0  0  0  0  0  0  0  0  0  0  0
  1  2  1  0  0  0  0
  1 25  1  0  0  0  0
  1 26  1  0  0  0  0
  1 27  1  0  0  0  0
  2  8  1  0  0  0  0
  2  3  2  0  0  0  0
  3  4  1  0  0  0  0
  3 28  1  0  0  0  0
  4  5  2  0  0  0  0
  4 29  1  0  0  0  0
  5  6  1  0  0  0  0
  5 30  1  0  0  0  0
  6  7  1  0  0  0  0
  6  8  2  0  0  0  0
  7 31  1  0  0  0  0
  7 32  1  0  0  0  0
  7 33  1  0  0  0  0
  8  9  1  0  0  0  0
  9 10  1  0  0  0  0
 10 11  1  0  0  0  0
 10 34  1  0  0  0  0
 10 35  1  0  0  0  0
 11 12  1  0  0  0  0
 11 13  1  0  0  0  0
 11 36  1  0  0  0  0
 12 37  1  0  0  0  0
 13 14  1  0  0  0  0
 13 38  1  0  0  0  0
 13 39  1  0  0  0  0
 14 24  1  0  0  0  0
 14 15  1  0  0  0  0
 15 16  1  0  0  0  0
 15 18  2  0  0  0  0
 16 17  1  0  0  0  0
 16 40  1  0  0  0  0
 16 41  1  0  0  0  0
 17 42  1  0  0  0  0
 18 19  1  0  0  0  0
 18 47  1  0  0  0  0
 19 24  2  0  0  0  0
 19 20  1  0  0  0  0
 20 21  2  0  0  0  0
 20 43  1  0  0  0  0
 21 22  1  0  0  0  0
 21 44  1  0  0  0  0
 22 23  2  0  0  0  0
 22 45  1  0  0  0  0
 23 24  1  0  0  0  0
 23 46  1  0  0  0  0
M  CHG  1  18   1
M  END
> <s_m_source_file>
AV-unprocessed.smi

> <i_m_source_file_index>
2178

> <i_lp_mmshare_version>
43012

> <i_f3d_flags>
0

> <s_epik_input>
W0NIM11jMVtjSF1bY0hdW2NIXWMoW0NIM10pYzFPW0NIMl1bQ0BIXShbT0hdKVtDSDJdbihjKG4yKVtDSDJdW09IXSljKGMyMylbY0hdW2NIXVtjSF1bY0hdMw==

> <s_epik_cmdline>
J2VwaWtfcHl0aG9uJywgJy1waCcsICc3LjAnLCAnLXRuJywgJzgnLCAnLW1hJywgJzIwMCcsICctbWV0YWxfYmluZGluZycsICctaW1hZScsICc8aW5maWxlLm1hZT4nLCAnLW9tYWUnLCAnPG91dGZpbGUubWFlPic=

> <r_lp_tautomer_probability>
1

> <r_epik_Ionization_Penalty>
1.43125

> <r_epik_Ionization_Penalty_Charging>
1.43039

> <r_epik_Ionization_Penalty_Neutral>
0.000858184

> <r_epik_State_Penalty>
1.51493

> <r_epik_Charging_Adjusted_Penalty>
2.94531

> <i_epik_Tot_Q>
1

> <i_epik_Tot_abs_Q>
1

> <r_epik_Metal_State_Penalty>
5.5599

> <b_epik_Metal_Only>
0

> <s_lp_Force_Field>
OPLS_2005

> <r_lp_Energy>
23.8242

> <b_lp_Chiralities_Consistent>
1

> <s_lp_Variant>
AV-unprocessed.smi:2178-3

> <Gold.Version>
5.8.1

> <Gold.Id.Protein>
6NUR|6NUR_protein|mol2

> <Gold.PLP.Fitness>
70.9614

> <Gold.PLP.PLP>
-60.2006

> <Gold.PLP.part.hbond>
-4.2683

> <Gold.PLP.part.metal>
0.0000

> <Gold.PLP.part.buried>
1.3242

> <Gold.PLP.part.nonpolar>
-55.0576

> <Gold.PLP.part.repulsive>
0.0927

> <Gold.PLP.ligand.clash>
0.0000

> <Gold.PLP.ligand.torsion>
0.7959

> <Gold.PLP.Chemscore.Hbond>
4.0000

> <Gold.PLP.Chemscore.CHOScore>
0.0000

> <Gold.PLP.Chemscore.Metal>
0.0000

> <Gold.Chemscore.Hbonds>
donor molecule, donor type, donor heavy atom, donor atom, acceptor molecule, acceptor atom, score
      L1  H    17    42       P1  7949  1.00
      L1  H    18    47       P1  7948  1.66
      P1  H 10752 10763       L1    17  0.96

> <Gold.PLP.Chemscore.Internal.Correction>
0.3526

> <Gold.Rescore>
     Score         DG    S(hbond)    S(metal)    S(lipo)     H(rot)  DE(clash)    DE(int)     intcor
     19.91     -23.35       2.33        0.00     152.92       3.05       1.31       2.13       ----

> <Gold.Chemscore.Fitness>
19.9127

> <Gold.Chemscore.DG>
-23.3547

> <Gold.Chemscore.ZeroCoef>
-5.4800

> <Gold.Chemscore.Hbond>
2.3307

> <Gold.Chemscore.Metal>
0.0000

> <Gold.Chemscore.Lipo>
152.9213

> <Gold.Chemscore.Internal_Hbond>
0.0000

> <Gold.Chemscore.DEClash>
1.3083

> <Gold.Chemscore.DEInternal>
2.1337

> <Gold.Chemscore.Rot>
3.0476

> <Gold.Chemscore.Internal.Correction>
   9.000000E+99

> <Gold.Chemscore.Hbonds>
donor molecule, donor type, donor heavy atom, donor atom, acceptor molecule, acceptor atom, score
      L1  H    17    42       P1  7949  0.30
      L1  H    18    47       P1  7948  0.74
      P1  H 10752 10763       L1    17  0.24

> <Gold.Chemscore.Hbond.Weighted>
-7.7847

> <Gold.Chemscore.Metal.Weighted>
-0.0000

> <Gold.Chemscore.Lipo.Weighted>
-17.8918

> <Gold.Chemscore.Internal_Hbond.Weighted>
0.0000

> <Gold.Chemscore.DEClash.Weighted>
1.3083

> <Gold.Chemscore.DEInternal.Weighted>
2.1337

> <Gold.Chemscore.Rot.Weighted>
7.8018

> <Gold.Chemscore.Internal.Correction.Weighted>
   9.000000E+99

> <Gold.Protein.RotatedTorsions>
[ 6907 6896 6895 6894 ] final  -90.09 input  -60.11 | X-H torsion
[ 7974 7965 7964 7962 ] final  -68.11 input  175.53 | X-H torsion
[ 8008 7997 7996 7995 ] final  129.62 input   59.86 | X-H torsion
[ 10167 10162 10161 10158 ] final  -12.80 input  -65.29 | X-H torsion
[ 10718 10713 10712 10709 ] final -152.11 input   66.30 | X-H torsion
[ 10763 10752 10751 10750 ] final   60.94 input  -60.55 | X-H torsion
[ 11005 11000 10999 10996 ] final  -81.31 input  -57.11 | X-H torsion

> <Gold.Protein.ActiveResidues>
 VAL166  LYS551  ARG553  GLY616  TRP617  ASP618  TYR619  PRO620  LYS621  CYS622 
 ASP623  PHE694  ASN695  SER759  ASP760  ASP761  ALA762  ILE779  LEU786  VAL792 
 PHE793  MET794  SER795  GLU796  ALA797  LYS798  CYS799  TRP800  GLU811  SER814 

> <Gold.Protein.RotatedAtoms>
  150.6879  134.2486  159.4501 H   0  0  0  0  0  0  0  0  0  0  0  0  # atno 6907 bound_to 6896
  152.0425  134.9700  160.0583 H   0  0  0  0  0  0  0  0  0  0  0  0  # atno 6908 bound_to 6896
  152.1196  133.4311  159.4706 H   0  0  0  0  0  0  0  0  0  0  0  0  # atno 6909 bound_to 6896
  145.7207  140.9040  143.0632 H   0  0  0  0  0  0  0  0  0  0  0  0  # atno 7974 bound_to 7965
  156.2939  140.2616  156.2628 H   0  0  0  0  0  0  0  0  0  0  0  0  # atno 8008 bound_to 7997
  154.9772  140.0390  157.2280 H   0  0  0  0  0  0  0  0  0  0  0  0  # atno 8009 bound_to 7997
  154.7805  140.2794  155.6072 H   0  0  0  0  0  0  0  0  0  0  0  0  # atno 8010 bound_to 7997
  140.7169  143.5494  150.9319 H   0  0  0  0  0  0  0  0  0  0  0  0  # atno 10167 bound_to 10162
  156.4682  130.8246  151.2475 H   0  0  0  0  0  0  0  0  0  0  0  0  # atno 10718 bound_to 10713
  152.9935  135.5518  154.5954 H   0  0  0  0  0  0  0  0  0  0  0  0  # atno 10763 bound_to 10752
  154.5307  135.2813  155.1185 H   0  0  0  0  0  0  0  0  0  0  0  0  # atno 10764 bound_to 10752
  154.2501  135.6400  153.5290 H   0  0  0  0  0  0  0  0  0  0  0  0  # atno 10765 bound_to 10752
  141.1666  133.7190  156.8403 H   0  0  0  0  0  0  0  0  0  0  0  0  # atno 11005 bound_to 11000
  144.6917  139.9198  143.7467 LP  0  0  0  0  0  0  0  0  0  0  0  0  # atno 17320 bound_to 7965
  146.0629  139.3621  143.0570 LP  0  0  0  0  0  0  0  0  0  0  0  0  # atno 17321 bound_to 7965
  139.9218  143.6597  152.3095 LP  0  0  0  0  0  0  0  0  0  0  0  0  # atno 17342 bound_to 10162
  139.7017  144.7634  151.1262 LP  0  0  0  0  0  0  0  0  0  0  0  0  # atno 17343 bound_to 10162
  157.7493  131.0085  150.3230 LP  0  0  0  0  0  0  0  0  0  0  0  0  # atno 17370 bound_to 10713
  156.3646  130.3853  149.7224 LP  0  0  0  0  0  0  0  0  0  0  0  0  # atno 17371 bound_to 10713
  140.1988  134.8912  157.3145 LP  0  0  0  0  0  0  0  0  0  0  0  0  # atno 17394 bound_to 11000
  140.2210  134.4023  155.7566 LP  0  0  0  0  0  0  0  0  0  0  0  0  # atno 17395 bound_to 11000

$$$$
