AV-unprocessed.smi:234|AV-procd|sdf|1795|dock3
  -GOLD-   2262020363D 1   1.00000     0.00000
 Structure written by MMmdl.
 59 62  0  0  0  0  0  0  0  0  1 V2000
  151.4000  145.1076  159.5749 C   0  0  0  0  0  0  0  0  0  0  0  0
  152.2895  144.5750  158.4440 C   0  0  0  0  0  0  0  0  0  0  0  0
  151.6221  143.6183  157.6317 O   0  0  0  0  0  0  0  0  0  0  0  0
  151.1942  142.4461  158.3134 C   0  0  2  0  0  0  0  0  0  0  0  0
  152.1993  141.2905  158.3206 C   0  0  0  0  0  0  0  0  0  0  0  0
  150.9826  140.3791  158.1440 C   0  0  2  0  0  0  0  0  0  0  0  0
  151.2412  139.2146  157.2938 N   0  0  0  0  0  0  0  0  0  0  0  0
  152.6312  138.9718  156.9304 C   0  0  0  0  0  0  0  0  0  0  0  0
  150.6423  138.0639  157.6795 C   0  0  0  0  0  0  0  0  0  0  0  0
  150.1105  137.9514  158.9257 N   0  0  0  0  0  0  0  0  0  0  0  0
  149.5102  136.8165  159.2958 C   0  0  0  0  0  0  0  0  0  0  0  0
  149.3362  135.6959  158.5915 N   0  0  0  0  0  0  0  0  0  0  0  0
  149.8787  135.8044  157.3444 C   0  0  0  0  0  0  0  0  0  0  0  0
  150.5536  136.9398  156.8170 C   0  0  0  0  0  0  0  0  0  0  0  0
  150.9747  136.6864  155.5183 N   0  0  0  0  0  0  0  0  0  0  0  0
  150.5647  135.4691  155.2870 C   0  0  0  0  0  0  0  0  0  0  0  0
  149.8827  134.8703  156.3233 N   0  0  0  0  0  0  0  0  0  0  0  0
  149.2972  133.5387  156.3260 C   0  0  0  0  0  0  0  0  0  0  0  0
  148.3534  133.2804  155.1256 C   0  0  1  0  0  0  0  0  0  0  0  0
  147.4595  134.3760  155.0198 O   0  0  0  0  0  0  0  0  0  0  0  0
  149.1195  133.1608  153.8039 C   0  0  0  0  0  0  0  0  0  0  0  0
  148.9411  131.7014  153.4016 C   0  0  0  0  0  0  0  0  0  0  0  0
  147.6591  131.3850  153.9128 O   0  0  0  0  0  0  0  0  0  0  0  0
  147.5883  131.9338  155.2201 C   0  0  2  0  0  0  0  0  0  0  0  0
  146.1306  131.9843  155.7082 C   0  0  0  0  0  0  0  0  0  0  0  0
  150.2526  141.5668  157.4508 C   0  0  0  0  0  0  0  0  0  0  0  0
  148.7619  141.7189  157.7545 C   0  0  0  0  0  0  0  0  0  0  0  0
  150.4186  141.7178  155.9266 C   0  0  0  0  0  0  0  0  0  0  0  0
  151.9770  145.7367  160.2526 H   0  0  0  0  0  0  0  0  0  0  0  0
  150.9776  144.2896  160.1589 H   0  0  0  0  0  0  0  0  0  0  0  0
  150.5784  145.7122  159.1939 H   0  0  0  0  0  0  0  0  0  0  0  0
  152.6875  145.3914  157.8398 H   0  0  0  0  0  0  0  0  0  0  0  0
  153.1506  144.0742  158.8869 H   0  0  0  0  0  0  0  0  0  0  0  0
  150.7698  142.6460  159.3005 H   0  0  0  0  0  0  0  0  0  0  0  0
  152.8781  141.3004  157.4661 H   0  0  0  0  0  0  0  0  0  0  0  0
  152.7315  141.1507  159.2615 H   0  0  0  0  0  0  0  0  0  0  0  0
  150.5385  140.1282  159.1098 H   0  0  0  0  0  0  0  0  0  0  0  0
  153.2356  138.7928  157.8203 H   0  0  0  0  0  0  0  0  0  0  0  0
  153.0457  139.8322  156.4051 H   0  0  0  0  0  0  0  0  0  0  0  0
  152.7258  138.1075  156.2715 H   0  0  0  0  0  0  0  0  0  0  0  0
  149.1088  136.8061  160.2984 H   0  0  0  0  0  0  0  0  0  0  0  0
  150.7367  134.9757  154.3414 H   0  0  0  0  0  0  0  0  0  0  0  0
  150.1078  132.8087  156.3371 H   0  0  0  0  0  0  0  0  0  0  0  0
  148.7554  133.4057  157.2632 H   0  0  0  0  0  0  0  0  0  0  0  0
  146.9984  134.4635  155.8401 H   0  0  0  0  0  0  0  0  0  0  0  0
  148.6794  133.7965  153.0336 H   0  0  0  0  0  0  0  0  0  0  0  0
  150.1719  133.4344  153.8858 H   0  0  0  0  0  0  0  0  0  0  0  0
  148.9947  131.5515  152.3232 H   0  0  0  0  0  0  0  0  0  0  0  0
  149.6933  131.0700  153.8772 H   0  0  0  0  0  0  0  0  0  0  0  0
  148.1438  131.2492  155.8622 H   0  0  0  0  0  0  0  0  0  0  0  0
  146.0611  132.4213  156.7046 H   0  0  0  0  0  0  0  0  0  0  0  0
  145.7080  130.9811  155.7599 H   0  0  0  0  0  0  0  0  0  0  0  0
  145.5013  132.5696  155.0377 H   0  0  0  0  0  0  0  0  0  0  0  0
  148.1581  141.0160  157.1799 H   0  0  0  0  0  0  0  0  0  0  0  0
  148.4094  142.7232  157.5181 H   0  0  0  0  0  0  0  0  0  0  0  0
  148.5488  141.5399  158.8085 H   0  0  0  0  0  0  0  0  0  0  0  0
  149.8039  141.0035  155.3788 H   0  0  0  0  0  0  0  0  0  0  0  0
  151.4493  141.5650  155.6064 H   0  0  0  0  0  0  0  0  0  0  0  0
  150.1238  142.7126  155.5919 H   0  0  0  0  0  0  0  0  0  0  0  0
  1  2  1  0  0  0  0
  1 29  1  0  0  0  0
  1 30  1  0  0  0  0
  1 31  1  0  0  0  0
  2  3  1  0  0  0  0
  2 32  1  0  0  0  0
  2 33  1  0  0  0  0
  3  4  1  0  0  0  0
  4 26  1  0  0  0  0
  4  5  1  0  0  0  0
  4 34  1  0  0  0  0
  5  6  1  0  0  0  0
  5 35  1  0  0  0  0
  5 36  1  0  0  0  0
  6  7  1  0  0  0  0
  6 26  1  0  0  0  0
  6 37  1  0  0  0  0
  7  8  1  0  0  0  0
  7  9  1  0  0  0  0
  8 38  1  0  0  0  0
  8 39  1  0  0  0  0
  8 40  1  0  0  0  0
  9 14  1  0  0  0  0
  9 10  2  0  0  0  0
 10 11  1  0  0  0  0
 11 12  2  0  0  0  0
 11 41  1  0  0  0  0
 12 13  1  0  0  0  0
 13 17  1  0  0  0  0
 13 14  2  0  0  0  0
 14 15  1  0  0  0  0
 15 16  2  0  0  0  0
 16 17  1  0  0  0  0
 16 42  1  0  0  0  0
 17 18  1  0  0  0  0
 18 19  1  0  0  0  0
 18 43  1  0  0  0  0
 18 44  1  0  0  0  0
 19 24  1  0  0  0  0
 19 20  1  0  0  0  0
 19 21  1  0  0  0  0
 20 45  1  0  0  0  0
 21 22  1  0  0  0  0
 21 46  1  0  0  0  0
 21 47  1  0  0  0  0
 22 23  1  0  0  0  0
 22 48  1  0  0  0  0
 22 49  1  0  0  0  0
 23 24  1  0  0  0  0
 24 25  1  0  0  0  0
 24 50  1  0  0  0  0
 25 51  1  0  0  0  0
 25 52  1  0  0  0  0
 25 53  1  0  0  0  0
 26 27  1  0  0  0  0
 26 28  1  0  0  0  0
 27 54  1  0  0  0  0
 27 55  1  0  0  0  0
 27 56  1  0  0  0  0
 28 57  1  0  0  0  0
 28 58  1  0  0  0  0
 28 59  1  0  0  0  0
M  END
> <s_m_source_file>
AV-unprocessed.smi

> <i_m_source_file_index>
234

> <i_lp_mmshare_version>
43012

> <i_f3d_flags>
0

> <s_epik_input>
W0NIM11bQ0gyXU9bQ0BASF0oQzEoW0NIM10pW0NIM10pW0NIMl1bQ0BIXTFOKFtDSDNdKWMobltjSF1uMiljKGMyMyluW2NIXW4zW0NIMl1bQ0BAXTQoW09IXSlbQ0gyXVtDSDJdT1tDQEhdNFtDSDNd

> <s_epik_cmdline>
J2VwaWtfcHl0aG9uJywgJy1waCcsICc3LjAnLCAnLXRuJywgJzgnLCAnLW1hJywgJzIwMCcsICctbWV0YWxfYmluZGluZycsICctaW1hZScsICc8aW5maWxlLm1hZT4nLCAnLW9tYWUnLCAnPG91dGZpbGUubWFlPic=

> <r_lp_tautomer_probability>
1

> <r_epik_Ionization_Penalty>
0.00349132

> <r_epik_Ionization_Penalty_Charging>
0

> <r_epik_Ionization_Penalty_Neutral>
0.00349132

> <r_epik_State_Penalty>
0.00242418

> <r_epik_Charging_Adjusted_Penalty>
0.00242418

> <i_epik_Tot_Q>
0

> <i_epik_Tot_abs_Q>
0

> <r_epik_Metal_State_Penalty>
-0

> <b_epik_Metal_Only>
0

> <s_lp_Force_Field>
OPLS_2005

> <r_lp_Energy>
47.8509

> <b_lp_Chiralities_Consistent>
1

> <s_lp_Variant>
AV-unprocessed.smi:234-11

> <Gold.Version>
5.8.1

> <Gold.Id.Protein>
6NUR|6NUR_protein|mol2

> <Gold.PLP.Fitness>
37.4307

> <Gold.PLP.PLP>
-37.8507

> <Gold.PLP.part.hbond>
-1.0870

> <Gold.PLP.part.metal>
0.0000

> <Gold.PLP.part.buried>
-6.0535

> <Gold.PLP.part.nonpolar>
-30.4002

> <Gold.PLP.part.repulsive>
0.2545

> <Gold.PLP.ligand.clash>
0.4427

> <Gold.PLP.ligand.torsion>
1.8614

> <Gold.PLP.Chemscore.Hbond>
1.0000

> <Gold.PLP.Chemscore.CHOScore>
0.0000

> <Gold.PLP.Chemscore.Metal>
0.0000

> <Gold.Chemscore.Hbonds>
donor molecule, donor type, donor heavy atom, donor atom, acceptor molecule, acceptor atom, score
      P1  H  6896  6907       L1    12  1.00

> <Gold.PLP.Chemscore.Internal.Correction>
0.7455

> <Gold.Rescore>
     Score         DG    S(hbond)    S(metal)    S(lipo)     H(rot)  DE(clash)    DE(int)     intcor
      9.09     -11.35       0.45        0.00      94.77       2.62       0.27       1.99       ----

> <Gold.Chemscore.Fitness>
9.0900

> <Gold.Chemscore.DG>
-11.3525

> <Gold.Chemscore.ZeroCoef>
-5.4800

> <Gold.Chemscore.Hbond>
0.4480

> <Gold.Chemscore.Metal>
0.0000

> <Gold.Chemscore.Lipo>
94.7715

> <Gold.Chemscore.Internal_Hbond>
0.0000

> <Gold.Chemscore.DEClash>
0.2718

> <Gold.Chemscore.DEInternal>
1.9908

> <Gold.Chemscore.Rot>
2.6219

> <Gold.Chemscore.Internal.Correction>
   9.000000E+99

> <Gold.Chemscore.Hbonds>
donor molecule, donor type, donor heavy atom, donor atom, acceptor molecule, acceptor atom, score
      P1  H  6896  6907       L1    12  0.10

> <Gold.Chemscore.Hbond.Weighted>
-1.4964

> <Gold.Chemscore.Metal.Weighted>
-0.0000

> <Gold.Chemscore.Lipo.Weighted>
-11.0883

> <Gold.Chemscore.Internal_Hbond.Weighted>
0.0000

> <Gold.Chemscore.DEClash.Weighted>
0.2718

> <Gold.Chemscore.DEInternal.Weighted>
1.9908

> <Gold.Chemscore.Rot.Weighted>
6.7121

> <Gold.Chemscore.Internal.Correction.Weighted>
   9.000000E+99

> <Gold.Protein.RotatedTorsions>
[ 6907 6896 6895 6894 ] final  -80.02 input  -60.11 | X-H torsion
[ 7974 7965 7964 7962 ] final   31.51 input  175.53 | X-H torsion
[ 8008 7997 7996 7995 ] final  166.78 input   59.86 | X-H torsion
[ 10167 10162 10161 10158 ] final  -44.11 input  -65.29 | X-H torsion
[ 10718 10713 10712 10709 ] final  -96.49 input   66.30 | X-H torsion
[ 10763 10752 10751 10750 ] final   71.49 input  -60.55 | X-H torsion
[ 11005 11000 10999 10996 ] final   29.82 input  -57.11 | X-H torsion

> <Gold.Protein.ActiveResidues>
 VAL166  LYS551  ARG553  GLY616  TRP617  ASP618  TYR619  PRO620  LYS621  CYS622 
 ASP623  PHE694  ASN695  SER759  ASP760  ASP761  ALA762  ILE779  LEU786  VAL792 
 PHE793  MET794  SER795  GLU796  ALA797  LYS798  CYS799  TRP800  GLU811  SER814 

> <Gold.Protein.RotatedAtoms>
  150.6937  134.4032  159.5128 H   0  0  0  0  0  0  0  0  0  0  0  0  # atno 6907 bound_to 6896
  152.1803  134.8757  160.0536 H   0  0  0  0  0  0  0  0  0  0  0  0  # atno 6908 bound_to 6896
  151.9750  133.3704  159.4123 H   0  0  0  0  0  0  0  0  0  0  0  0  # atno 6909 bound_to 6896
  146.1545  139.6647  142.9076 H   0  0  0  0  0  0  0  0  0  0  0  0  # atno 7974 bound_to 7965
  156.1690  140.1634  156.8481 H   0  0  0  0  0  0  0  0  0  0  0  0  # atno 8008 bound_to 7997
  154.5237  140.0772  156.8253 H   0  0  0  0  0  0  0  0  0  0  0  0  # atno 8009 bound_to 7997
  155.3552  140.3392  155.4242 H   0  0  0  0  0  0  0  0  0  0  0  0  # atno 8010 bound_to 7997
  140.6909  143.2947  151.3448 H   0  0  0  0  0  0  0  0  0  0  0  0  # atno 10167 bound_to 10162
  156.0063  130.5153  150.6233 H   0  0  0  0  0  0  0  0  0  0  0  0  # atno 10718 bound_to 10713
  153.0402  135.5135  154.7600 H   0  0  0  0  0  0  0  0  0  0  0  0  # atno 10763 bound_to 10752
  154.6544  135.2929  154.9948 H   0  0  0  0  0  0  0  0  0  0  0  0  # atno 10764 bound_to 10752
  154.0821  135.6662  153.4892 H   0  0  0  0  0  0  0  0  0  0  0  0  # atno 10765 bound_to 10752
  140.3009  134.2757  155.7754 H   0  0  0  0  0  0  0  0  0  0  0  0  # atno 11005 bound_to 11000
  145.4742  141.0437  143.2682 LP  0  0  0  0  0  0  0  0  0  0  0  0  # atno 17320 bound_to 7965
  144.7946  139.6260  143.7098 LP  0  0  0  0  0  0  0  0  0  0  0  0  # atno 17321 bound_to 7965
  139.6311  144.0719  152.2477 LP  0  0  0  0  0  0  0  0  0  0  0  0  # atno 17342 bound_to 10162
  140.0194  144.6164  150.7579 LP  0  0  0  0  0  0  0  0  0  0  0  0  # atno 17343 bound_to 10162
  157.4044  131.0814  151.1278 LP  0  0  0  0  0  0  0  0  0  0  0  0  # atno 17370 bound_to 10713
  157.1930  130.6360  149.5711 LP  0  0  0  0  0  0  0  0  0  0  0  0  # atno 17371 bound_to 10713
  141.2128  133.7646  156.9766 LP  0  0  0  0  0  0  0  0  0  0  0  0  # atno 17394 bound_to 11000
  140.1110  134.9477  157.2065 LP  0  0  0  0  0  0  0  0  0  0  0  0  # atno 17395 bound_to 11000

$$$$
