AV-unprocessed.smi:3253|AV-procd|sdf|12452|dock8
  -GOLD-   2272018343D 1   1.00000     0.00000
 Structure written by MMmdl.
 36 37  0  0  0  0  0  0  0  0  1 V2000
  148.1130  141.6849  156.5823 C   0  0  0  0  0  0  0  0  0  0  0  0
  149.4086  141.0007  156.1261 C   0  0  1  0  0  0  0  0  0  0  0  0
  149.4702  140.8807  154.5880 C   0  0  0  0  0  0  0  0  0  0  0  0
  150.5940  140.0831  154.1307 N   0  0  0  0  0  0  0  0  0  0  0  0
  151.9389  140.2952  154.4058 C   0  0  0  0  0  0  0  0  0  0  0  0
  152.6327  139.2860  153.7774 C   0  0  0  0  0  0  0  0  0  0  0  0
  151.7414  138.4517  153.1071 N   0  0  0  0  0  0  0  0  0  0  0  0
  150.5542  138.9878  153.3598 C   0  0  0  0  0  0  0  0  0  0  0  0
  150.5522  141.7589  156.6323 N   0  0  0  0  0  0  0  0  0  0  0  0
  150.6708  142.2592  157.8725 C   0  0  0  0  0  0  0  0  0  0  0  0
  149.7852  142.1760  158.7244 O   0  0  0  0  0  0  0  0  0  0  0  0
  152.0087  142.9322  158.2137 C   0  0  1  0  0  0  0  0  0  0  0  0
  151.8329  144.4329  158.5246 C   0  0  0  0  0  0  0  0  0  0  0  0
  152.1213  144.5343  160.0136 C   0  0  0  0  0  0  0  0  0  0  0  0
  151.9724  145.5741  160.6539 O   0  0  0  0  0  0  0  0  0  0  0  0
  152.5348  143.3612  160.5010 N   0  0  0  0  0  0  0  0  0  0  0  0
  152.8747  143.0870  161.8903 C   0  0  0  0  0  0  0  0  0  0  0  0
  152.6472  142.3301  159.4842 C   0  0  0  0  0  0  0  0  0  0  0  0
  147.2373  141.1334  156.2392 H   0  0  0  0  0  0  0  0  0  0  0  0
  148.0400  142.7005  156.1921 H   0  0  0  0  0  0  0  0  0  0  0  0
  148.0605  141.7405  157.6702 H   0  0  0  0  0  0  0  0  0  0  0  0
  149.4085  139.9967  156.5543 H   0  0  0  0  0  0  0  0  0  0  0  0
  148.5569  140.4184  154.2111 H   0  0  0  0  0  0  0  0  0  0  0  0
  149.5321  141.8683  154.1288 H   0  0  0  0  0  0  0  0  0  0  0  0
  152.2806  141.1178  155.0164 H   0  0  0  0  0  0  0  0  0  0  0  0
  153.6958  139.0978  153.7561 H   0  0  0  0  0  0  0  0  0  0  0  0
  149.6329  138.5684  152.9829 H   0  0  0  0  0  0  0  0  0  0  0  0
  151.3316  141.8766  156.0013 H   0  0  0  0  0  0  0  0  0  0  0  0
  152.6915  142.8112  157.3708 H   0  0  0  0  0  0  0  0  0  0  0  0
  152.5564  145.0349  157.9744 H   0  0  0  0  0  0  0  0  0  0  0  0
  150.8363  144.8161  158.2993 H   0  0  0  0  0  0  0  0  0  0  0  0
  153.6196  143.7964  162.2523 H   0  0  0  0  0  0  0  0  0  0  0  0
  153.2826  142.0821  162.0039 H   0  0  0  0  0  0  0  0  0  0  0  0
  151.9882  143.1664  162.5203 H   0  0  0  0  0  0  0  0  0  0  0  0
  152.1588  141.4115  159.8151 H   0  0  0  0  0  0  0  0  0  0  0  0
  153.7005  142.1008  159.3170 H   0  0  0  0  0  0  0  0  0  0  0  0
  1  2  1  0  0  0  0
  1 19  1  0  0  0  0
  1 20  1  0  0  0  0
  1 21  1  0  0  0  0
  2  3  1  0  0  0  0
  2  9  1  0  0  0  0
  2 22  1  0  0  0  0
  3  4  1  0  0  0  0
  3 23  1  0  0  0  0
  3 24  1  0  0  0  0
  4  8  1  0  0  0  0
  4  5  1  0  0  0  0
  5  6  2  0  0  0  0
  5 25  1  0  0  0  0
  6  7  1  0  0  0  0
  6 26  1  0  0  0  0
  7  8  2  0  0  0  0
  8 27  1  0  0  0  0
  9 10  1  0  0  0  0
  9 28  1  0  0  0  0
 10 11  2  0  0  0  0
 10 12  1  0  0  0  0
 12 18  1  0  0  0  0
 12 13  1  0  0  0  0
 12 29  1  0  0  0  0
 13 14  1  0  0  0  0
 13 30  1  0  0  0  0
 13 31  1  0  0  0  0
 14 15  2  0  0  0  0
 14 16  1  0  0  0  0
 16 17  1  0  0  0  0
 16 18  1  0  0  0  0
 17 32  1  0  0  0  0
 17 33  1  0  0  0  0
 17 34  1  0  0  0  0
 18 35  1  0  0  0  0
 18 36  1  0  0  0  0
M  END
> <s_m_source_file>
AV-unprocessed.smi

> <i_m_source_file_index>
3253

> <i_lp_mmshare_version>
43012

> <i_f3d_flags>
0

> <s_epik_input>
W2NIXTFuW2NIXVtjSF1uMVtDSDJdW0NAQEhdKFtDSDNdKVtOSF1DKD1PKVtDQEBIXTJbQ0gyXUMoPU8pTihbQ0gzXSlbQ0gyXTI=

> <s_epik_cmdline>
J2VwaWtfcHl0aG9uJywgJy1waCcsICc3LjAnLCAnLXRuJywgJzgnLCAnLW1hJywgJzIwMCcsICctbWV0YWxfYmluZGluZycsICctaW1hZScsICc8aW5maWxlLm1hZT4nLCAnLW9tYWUnLCAnPG91dGZpbGUubWFlPic=

> <r_lp_tautomer_probability>
1

> <r_epik_Ionization_Penalty>
0.628884

> <r_epik_Ionization_Penalty_Charging>
0.628884

> <r_epik_Ionization_Penalty_Neutral>
2.35084e-08

> <r_epik_State_Penalty>
0.64556

> <r_epik_Charging_Adjusted_Penalty>
1.27444

> <i_epik_Tot_Q>
0

> <i_epik_Tot_abs_Q>
0

> <r_epik_Metal_State_Penalty>
0.308736

> <b_epik_Metal_Only>
0

> <s_lp_Force_Field>
OPLS_2005

> <r_lp_Energy>
12.6198

> <b_lp_Chiralities_Consistent>
1

> <s_lp_Variant>
AV-unprocessed.smi:3253-8

> <Gold.Version>
5.8.1

> <Gold.Id.Protein>
6NUR|6NUR_protein|mol2

> <Gold.PLP.Fitness>
50.5306

> <Gold.PLP.PLP>
-45.2502

> <Gold.PLP.part.hbond>
-2.1880

> <Gold.PLP.part.metal>
0.0000

> <Gold.PLP.part.buried>
-3.8122

> <Gold.PLP.part.nonpolar>
-39.0625

> <Gold.PLP.part.repulsive>
0.5373

> <Gold.PLP.ligand.clash>
0.0000

> <Gold.PLP.ligand.torsion>
0.2790

> <Gold.PLP.Chemscore.Hbond>
0.9357

> <Gold.PLP.Chemscore.CHOScore>
1.0000

> <Gold.PLP.Chemscore.Metal>
0.0000

> <Gold.Chemscore.Hbonds>
donor molecule, donor type, donor heavy atom, donor atom, acceptor molecule, acceptor atom, score
      L1  C     8    27       P1  7948  0.74
      L1  C     8    27       P1  7957  0.25

> <Gold.PLP.Chemscore.Internal.Correction>
0.0312

> <Gold.Rescore>
     Score         DG    S(hbond)    S(metal)    S(lipo)     H(rot)  DE(clash)    DE(int)     intcor
     10.07     -12.33       0.71        0.00      81.16       1.97       0.05       2.20       ----

> <Gold.Chemscore.Fitness>
10.0735

> <Gold.Chemscore.DG>
-12.3262

> <Gold.Chemscore.ZeroCoef>
-5.4800

> <Gold.Chemscore.Hbond>
0.7143

> <Gold.Chemscore.Metal>
0.0000

> <Gold.Chemscore.Lipo>
81.1580

> <Gold.Chemscore.Internal_Hbond>
0.0000

> <Gold.Chemscore.DEClash>
0.0522

> <Gold.Chemscore.DEInternal>
2.2006

> <Gold.Chemscore.Rot>
1.9669

> <Gold.Chemscore.Internal.Correction>
   9.000000E+99

> <Gold.Chemscore.Hbond.Weighted>
-2.3859

> <Gold.Chemscore.Metal.Weighted>
-0.0000

> <Gold.Chemscore.Lipo.Weighted>
-9.4955

> <Gold.Chemscore.Internal_Hbond.Weighted>
0.0000

> <Gold.Chemscore.DEClash.Weighted>
0.0522

> <Gold.Chemscore.DEInternal.Weighted>
2.2006

> <Gold.Chemscore.Rot.Weighted>
5.0352

> <Gold.Chemscore.Internal.Correction.Weighted>
   9.000000E+99

> <Gold.Protein.RotatedTorsions>
[ 6907 6896 6895 6894 ] final   55.44 input  -60.11 | X-H torsion
[ 7974 7965 7964 7962 ] final  116.71 input  175.53 | X-H torsion
[ 8008 7997 7996 7995 ] final  -67.66 input   59.86 | X-H torsion
[ 10167 10162 10161 10158 ] final  -24.77 input  -65.29 | X-H torsion
[ 10718 10713 10712 10709 ] final  -17.15 input   66.30 | X-H torsion
[ 10763 10752 10751 10750 ] final   36.07 input  -60.55 | X-H torsion
[ 11005 11000 10999 10996 ] final   14.48 input  -57.11 | X-H torsion

> <Gold.Protein.ActiveResidues>
 VAL166  LYS551  ARG553  GLY616  TRP617  ASP618  TYR619  PRO620  LYS621  CYS622 
 ASP623  PHE694  ASN695  SER759  ASP760  ASP761  ALA762  ILE779  LEU786  VAL792 
 PHE793  MET794  SER795  GLU796  ALA797  LYS798  CYS799  TRP800  GLU811  SER814 

> <Gold.Protein.RotatedAtoms>
  152.3539  134.6967  160.0227 H   0  0  0  0  0  0  0  0  0  0  0  0  # atno 6907 bound_to 6896
  151.7312  133.3312  159.3349 H   0  0  0  0  0  0  0  0  0  0  0  0  # atno 6908 bound_to 6896
  150.7558  134.6295  159.6223 H   0  0  0  0  0  0  0  0  0  0  0  0  # atno 6909 bound_to 6896
  145.1762  139.3074  143.4442 H   0  0  0  0  0  0  0  0  0  0  0  0  # atno 7974 bound_to 7965
  154.4815  140.0888  156.7388 H   0  0  0  0  0  0  0  0  0  0  0  0  # atno 8008 bound_to 7997
  155.4459  140.3455  155.4277 H   0  0  0  0  0  0  0  0  0  0  0  0  # atno 8009 bound_to 7997
  156.1198  140.1471  156.9209 H   0  0  0  0  0  0  0  0  0  0  0  0  # atno 8010 bound_to 7997
  140.7288  143.4323  151.0782 H   0  0  0  0  0  0  0  0  0  0  0  0  # atno 10167 bound_to 10162
  156.5776  130.4766  149.6334 H   0  0  0  0  0  0  0  0  0  0  0  0  # atno 10718 bound_to 10713
  153.0092  135.6316  154.1927 H   0  0  0  0  0  0  0  0  0  0  0  0  # atno 10763 bound_to 10752
  154.1669  135.2820  155.3094 H   0  0  0  0  0  0  0  0  0  0  0  0  # atno 10764 bound_to 10752
  154.5938  135.5609  153.7365 H   0  0  0  0  0  0  0  0  0  0  0  0  # atno 10765 bound_to 10752
  140.4690  134.1050  155.7729 H   0  0  0  0  0  0  0  0  0  0  0  0  # atno 11005 bound_to 11000
  146.3460  140.1926  142.8589 LP  0  0  0  0  0  0  0  0  0  0  0  0  # atno 17320 bound_to 7965
  145.0182  140.8771  143.5183 LP  0  0  0  0  0  0  0  0  0  0  0  0  # atno 17321 bound_to 7965
  139.7982  143.8122  152.3160 LP  0  0  0  0  0  0  0  0  0  0  0  0  # atno 17342 bound_to 10162
  139.8129  144.7328  150.9673 LP  0  0  0  0  0  0  0  0  0  0  0  0  # atno 17343 bound_to 10162
  156.2659  130.6989  151.1772 LP  0  0  0  0  0  0  0  0  0  0  0  0  # atno 17370 bound_to 10713
  157.7334  131.0591  150.5579 LP  0  0  0  0  0  0  0  0  0  0  0  0  # atno 17371 bound_to 10713
  141.1586  133.8836  157.1911 LP  0  0  0  0  0  0  0  0  0  0  0  0  # atno 17394 bound_to 11000
  139.9897  135.0069  156.9946 LP  0  0  0  0  0  0  0  0  0  0  0  0  # atno 17395 bound_to 11000

$$$$
