AV-unprocessed.smi:263|AV-procd|sdf|2005|dock7
  -GOLD-   2262021203D 1   1.00000     0.00000
 Structure written by MMmdl.
 57 61  0  0  0  0  0  0  0  0  1 V2000
  149.4358  142.7054  158.4991 O   0  0  0  0  0  0  0  0  0  0  0  0
  150.4593  142.1170  157.7153 C   0  0  0  0  0  0  0  0  0  0  0  0
  149.8130  141.0208  156.8315 C   0  0  0  0  0  0  0  0  0  0  0  0
  149.1708  139.9537  157.5837 N   0  0  0  0  0  0  0  0  0  0  0  0
  147.8237  139.8162  157.8317 C   0  0  0  0  0  0  0  0  0  0  0  0
  147.4916  138.7698  158.5368 N   0  0  0  0  0  0  0  0  0  0  0  0
  148.6998  138.1276  158.7821 C   0  0  0  0  0  0  0  0  0  0  0  0
  149.0690  136.9442  159.4820 C   0  0  0  0  0  0  0  0  0  0  0  0
  148.1609  136.1369  160.0862 N   0  0  0  0  0  0  0  0  0  0  0  0
  147.8766  134.8971  159.3669 C   0  0  0  0  0  0  0  0  0  0  0  0
  146.5681  134.2590  159.8644 C   0  0  0  0  0  0  0  0  0  0  0  0
  146.5563  134.0728  161.4004 C   0  0  2  0  0  0  0  0  0  0  0  0
  147.5292  133.0927  161.7162 O   0  0  0  0  0  0  0  0  0  0  0  0
  145.2100  133.5160  161.9207 C   0  0  0  0  0  0  0  0  0  0  0  0
  144.0766  134.5544  161.8879 C   0  0  0  0  0  0  0  0  0  0  0  0
  144.4728  135.8286  162.6457 C   0  0  0  0  0  0  0  0  0  0  0  0
  145.7755  136.4209  162.0897 C   0  0  0  0  0  0  0  0  0  0  0  0
  146.9330  135.3978  162.1204 C   0  0  2  0  0  0  0  0  0  0  0  0
  148.2299  136.0054  161.5429 C   0  0  0  0  0  0  0  0  0  0  0  0
  150.3924  136.6322  159.5269 N   0  0  0  0  0  0  0  0  0  0  0  0
  151.2915  137.4131  158.9209 C   0  0  0  0  0  0  0  0  0  0  0  0
  151.0901  138.5352  158.2277 N   0  0  0  0  0  0  0  0  0  0  0  0
  149.7664  138.8612  158.1895 C   0  0  0  0  0  0  0  0  0  0  0  0
  151.1321  143.2314  156.8845 C   0  0  0  0  0  0  0  0  0  0  0  0
  151.9468  144.1967  157.7637 C   0  0  0  0  0  0  0  0  0  0  0  0
  152.9000  143.4734  158.5326 O   0  0  0  0  0  0  0  0  0  0  0  0
  152.2929  142.5628  159.4411 C   0  0  0  0  0  0  0  0  0  0  0  0
  151.5028  141.4944  158.6648 C   0  0  0  0  0  0  0  0  0  0  0  0
  148.9364  142.0164  158.9101 H   0  0  0  0  0  0  0  0  0  0  0  0
  149.0615  141.4663  156.1781 H   0  0  0  0  0  0  0  0  0  0  0  0
  150.5588  140.5745  156.1720 H   0  0  0  0  0  0  0  0  0  0  0  0
  147.0905  140.5261  157.4772 H   0  0  0  0  0  0  0  0  0  0  0  0
  147.8055  135.0652  158.2930 H   0  0  0  0  0  0  0  0  0  0  0  0
  148.7095  134.2089  159.5163 H   0  0  0  0  0  0  0  0  0  0  0  0
  145.7395  134.8968  159.5574 H   0  0  0  0  0  0  0  0  0  0  0  0
  146.4108  133.3028  159.3638 H   0  0  0  0  0  0  0  0  0  0  0  0
  147.2690  132.6574  162.5135 H   0  0  0  0  0  0  0  0  0  0  0  0
  144.9192  132.6332  161.3495 H   0  0  0  0  0  0  0  0  0  0  0  0
  145.3311  133.1800  162.9521 H   0  0  0  0  0  0  0  0  0  0  0  0
  143.8208  134.8011  160.8574 H   0  0  0  0  0  0  0  0  0  0  0  0
  143.1757  134.1282  162.3304 H   0  0  0  0  0  0  0  0  0  0  0  0
  143.6717  136.5651  162.5774 H   0  0  0  0  0  0  0  0  0  0  0  0
  144.5953  135.6024  163.7057 H   0  0  0  0  0  0  0  0  0  0  0  0
  145.6054  136.7695  161.0706 H   0  0  0  0  0  0  0  0  0  0  0  0
  146.0475  137.3036  162.6692 H   0  0  0  0  0  0  0  0  0  0  0  0
  147.1185  135.1726  163.1718 H   0  0  0  0  0  0  0  0  0  0  0  0
  149.0801  135.3711  161.7984 H   0  0  0  0  0  0  0  0  0  0  0  0
  148.4129  136.9780  162.0020 H   0  0  0  0  0  0  0  0  0  0  0  0
  152.3195  137.0925  159.0034 H   0  0  0  0  0  0  0  0  0  0  0  0
  151.8016  142.7796  156.1514 H   0  0  0  0  0  0  0  0  0  0  0  0
  150.3905  143.7954  156.3174 H   0  0  0  0  0  0  0  0  0  0  0  0
  152.4753  144.9143  157.1359 H   0  0  0  0  0  0  0  0  0  0  0  0
  151.2947  144.7742  158.4207 H   0  0  0  0  0  0  0  0  0  0  0  0
  153.0740  142.0884  160.0353 H   0  0  0  0  0  0  0  0  0  0  0  0
  151.6494  143.1000  160.1395 H   0  0  0  0  0  0  0  0  0  0  0  0
  151.0251  140.8031  159.3602 H   0  0  0  0  0  0  0  0  0  0  0  0
  152.2100  140.9009  158.0837 H   0  0  0  0  0  0  0  0  0  0  0  0
  1  2  1  0  0  0  0
  1 29  1  0  0  0  0
  2 28  1  0  0  0  0
  2  3  1  0  0  0  0
  2 24  1  0  0  0  0
  3  4  1  0  0  0  0
  3 30  1  0  0  0  0
  3 31  1  0  0  0  0
  4 23  1  0  0  0  0
  4  5  1  0  0  0  0
  5  6  2  0  0  0  0
  5 32  1  0  0  0  0
  6  7  1  0  0  0  0
  7 23  2  0  0  0  0
  7  8  1  0  0  0  0
  8  9  1  0  0  0  0
  8 20  2  0  0  0  0
  9 19  1  0  0  0  0
  9 10  1  0  0  0  0
 10 11  1  0  0  0  0
 10 33  1  0  0  0  0
 10 34  1  0  0  0  0
 11 12  1  0  0  0  0
 11 35  1  0  0  0  0
 11 36  1  0  0  0  0
 12 18  1  0  0  0  0
 12 13  1  0  0  0  0
 12 14  1  0  0  0  0
 13 37  1  0  0  0  0
 14 15  1  0  0  0  0
 14 38  1  0  0  0  0
 14 39  1  0  0  0  0
 15 16  1  0  0  0  0
 15 40  1  0  0  0  0
 15 41  1  0  0  0  0
 16 17  1  0  0  0  0
 16 42  1  0  0  0  0
 16 43  1  0  0  0  0
 17 18  1  0  0  0  0
 17 44  1  0  0  0  0
 17 45  1  0  0  0  0
 18 19  1  0  0  0  0
 18 46  1  0  0  0  0
 19 47  1  0  0  0  0
 19 48  1  0  0  0  0
 20 21  1  0  0  0  0
 21 22  2  0  0  0  0
 21 49  1  0  0  0  0
 22 23  1  0  0  0  0
 24 25  1  0  0  0  0
 24 50  1  0  0  0  0
 24 51  1  0  0  0  0
 25 26  1  0  0  0  0
 25 52  1  0  0  0  0
 25 53  1  0  0  0  0
 26 27  1  0  0  0  0
 27 28  1  0  0  0  0
 27 54  1  0  0  0  0
 27 55  1  0  0  0  0
 28 56  1  0  0  0  0
 28 57  1  0  0  0  0
M  END
> <s_m_source_file>
AV-unprocessed.smi

> <i_m_source_file_index>
263

> <i_lp_mmshare_version>
43012

> <i_f3d_flags>
0

> <s_epik_input>
W0NIMl0xW0NIMl1PW0NIMl1bQ0gyXUMxKFtPSF0pW0NIMl1uKFtjSF1uMiljKGMyMyluW2NIXW5jM04oW0NIMl1bQ0gyXTQpW0NIMl1bQ0BASF0oW0NAXTQ1W09IXSlbQ0gyXVtDSDJdW0NIMl1bQ0gyXTU=

> <s_epik_cmdline>
J2VwaWtfcHl0aG9uJywgJy1waCcsICc3LjAnLCAnLXRuJywgJzgnLCAnLW1hJywgJzIwMCcsICctbWV0YWxfYmluZGluZycsICctaW1hZScsICc8aW5maWxlLm1hZT4nLCAnLW9tYWUnLCAnPG91dGZpbGUubWFlPic=

> <r_lp_tautomer_probability>
1

> <r_epik_Ionization_Penalty>
0.00747493

> <r_epik_Ionization_Penalty_Charging>
0

> <r_epik_Ionization_Penalty_Neutral>
0.00747493

> <r_epik_State_Penalty>
0.00549307

> <r_epik_Charging_Adjusted_Penalty>
0.00549307

> <i_epik_Tot_Q>
0

> <i_epik_Tot_abs_Q>
0

> <r_epik_Metal_State_Penalty>
-0

> <b_epik_Metal_Only>
0

> <s_lp_Force_Field>
OPLS_2005

> <r_lp_Energy>
40.0447

> <b_lp_Chiralities_Consistent>
1

> <s_lp_Variant>
AV-unprocessed.smi:263-3

> <Gold.Version>
5.8.1

> <Gold.Id.Protein>
6NUR|6NUR_protein|mol2

> <Gold.PLP.Fitness>
41.5175

> <Gold.PLP.PLP>
-39.1426

> <Gold.PLP.part.hbond>
-2.0000

> <Gold.PLP.part.metal>
0.0000

> <Gold.PLP.part.buried>
-4.5808

> <Gold.PLP.part.nonpolar>
-33.5202

> <Gold.PLP.part.repulsive>
0.0000

> <Gold.PLP.ligand.clash>
0.0000

> <Gold.PLP.ligand.torsion>
0.5002

> <Gold.PLP.Chemscore.Hbond>
1.0000

> <Gold.PLP.Chemscore.CHOScore>
0.0000

> <Gold.PLP.Chemscore.Metal>
0.0000

> <Gold.Chemscore.Hbonds>
donor molecule, donor type, donor heavy atom, donor atom, acceptor molecule, acceptor atom, score
      P1  H  6896  6907       L1    20  1.00

> <Gold.PLP.Chemscore.Internal.Correction>
0.3754

> <Gold.Rescore>
     Score         DG    S(hbond)    S(metal)    S(lipo)     H(rot)  DE(clash)    DE(int)     intcor
     13.43     -14.02       0.90        0.00     104.62       2.62       0.04       0.55       ----

> <Gold.Chemscore.Fitness>
13.4288

> <Gold.Chemscore.DG>
-14.0206

> <Gold.Chemscore.ZeroCoef>
-5.4800

> <Gold.Chemscore.Hbond>
0.9028

> <Gold.Chemscore.Metal>
0.0000

> <Gold.Chemscore.Lipo>
104.6234

> <Gold.Chemscore.Internal_Hbond>
0.0000

> <Gold.Chemscore.DEClash>
0.0422

> <Gold.Chemscore.DEInternal>
0.5496

> <Gold.Chemscore.Rot>
2.6232

> <Gold.Chemscore.Internal.Correction>
   9.000000E+99

> <Gold.Chemscore.Hbonds>
donor molecule, donor type, donor heavy atom, donor atom, acceptor molecule, acceptor atom, score
      P1  H  6896  6907       L1    20  0.74

> <Gold.Chemscore.Hbond.Weighted>
-3.0152

> <Gold.Chemscore.Metal.Weighted>
-0.0000

> <Gold.Chemscore.Lipo.Weighted>
-12.2409

> <Gold.Chemscore.Internal_Hbond.Weighted>
0.0000

> <Gold.Chemscore.DEClash.Weighted>
0.0422

> <Gold.Chemscore.DEInternal.Weighted>
0.5496

> <Gold.Chemscore.Rot.Weighted>
6.7155

> <Gold.Chemscore.Internal.Correction.Weighted>
   9.000000E+99

> <Gold.Protein.RotatedTorsions>
[ 6907 6896 6895 6894 ] final  -30.81 input  -60.11 | X-H torsion
[ 7974 7965 7964 7962 ] final   31.81 input  175.53 | X-H torsion
[ 8008 7997 7996 7995 ] final   94.30 input   59.86 | X-H torsion
[ 10167 10162 10161 10158 ] final  105.82 input  -65.29 | X-H torsion
[ 10718 10713 10712 10709 ] final   94.94 input   66.30 | X-H torsion
[ 10763 10752 10751 10750 ] final  -11.98 input  -60.55 | X-H torsion
[ 11005 11000 10999 10996 ] final  172.94 input  -57.11 | X-H torsion

> <Gold.Protein.ActiveResidues>
 VAL166  LYS551  ARG553  GLY616  TRP617  ASP618  TYR619  PRO620  LYS621  CYS622 
 ASP623  PHE694  ASN695  SER759  ASP760  ASP761  ALA762  ILE779  LEU786  VAL792 
 PHE793  MET794  SER795  GLU796  ALA797  LYS798  CYS799  TRP800  GLU811  SER814 

> <Gold.Protein.RotatedAtoms>
  151.1006  134.9970  159.8446 H   0  0  0  0  0  0  0  0  0  0  0  0  # atno 6907 bound_to 6896
  152.5436  134.1955  159.8701 H   0  0  0  0  0  0  0  0  0  0  0  0  # atno 6908 bound_to 6896
  151.1998  133.4573  159.2629 H   0  0  0  0  0  0  0  0  0  0  0  0  # atno 6909 bound_to 6896
  146.1526  139.6608  142.9088 H   0  0  0  0  0  0  0  0  0  0  0  0  # atno 7974 bound_to 7965
  156.0564  140.3301  155.7410 H   0  0  0  0  0  0  0  0  0  0  0  0  # atno 8008 bound_to 7997
  155.5523  140.0611  157.2865 H   0  0  0  0  0  0  0  0  0  0  0  0  # atno 8009 bound_to 7997
  154.4460  140.1892  156.0687 H   0  0  0  0  0  0  0  0  0  0  0  0  # atno 8010 bound_to 7997
  139.7060  144.7086  151.1105 H   0  0  0  0  0  0  0  0  0  0  0  0  # atno 10167 bound_to 10162
  157.6943  131.0529  150.4262 H   0  0  0  0  0  0  0  0  0  0  0  0  # atno 10718 bound_to 10713
  153.4918  135.7017  153.5880 H   0  0  0  0  0  0  0  0  0  0  0  0  # atno 10763 bound_to 10752
  153.4049  135.3863  155.2012 H   0  0  0  0  0  0  0  0  0  0  0  0  # atno 10764 bound_to 10752
  154.8716  135.3890  154.4379 H   0  0  0  0  0  0  0  0  0  0  0  0  # atno 10765 bound_to 10752
  140.3351  134.7324  157.4162 H   0  0  0  0  0  0  0  0  0  0  0  0  # atno 11005 bound_to 11000
  145.4785  141.0437  143.2659 LP  0  0  0  0  0  0  0  0  0  0  0  0  # atno 17320 bound_to 7965
  144.7923  139.6303  143.7108 LP  0  0  0  0  0  0  0  0  0  0  0  0  # atno 17321 bound_to 7965
  140.7722  143.5358  150.9370 LP  0  0  0  0  0  0  0  0  0  0  0  0  # atno 17342 bound_to 10162
  139.9041  143.6800  152.3126 LP  0  0  0  0  0  0  0  0  0  0  0  0  # atno 17343 bound_to 10162
  156.4633  130.4036  149.6563 LP  0  0  0  0  0  0  0  0  0  0  0  0  # atno 17370 bound_to 10713
  156.3670  130.7511  151.2490 LP  0  0  0  0  0  0  0  0  0  0  0  0  # atno 17371 bound_to 10713
  140.0828  134.5708  155.8523 LP  0  0  0  0  0  0  0  0  0  0  0  0  # atno 17394 bound_to 11000
  141.2053  133.6646  156.6174 LP  0  0  0  0  0  0  0  0  0  0  0  0  # atno 17395 bound_to 11000

$$$$
