AV-unprocessed.smi:1537|AV-procd|sdf|6190|dock10
  -GOLD-   22720 6353D 1   1.00000     0.00000
 Structure written by MMmdl.
 43 43  0  0  0  0  0  0  0  0  1 V2000
  152.5954  144.6664  158.7399 C   0  0  0  0  0  0  0  0  0  0  0  0
  151.8384  143.7849  159.7391 C   0  0  0  0  0  0  0  0  0  0  0  0
  152.4249  142.4181  159.8550 C   0  0  0  0  0  0  0  0  0  0  0  0
  152.0076  141.3735  159.1348 N   0  0  0  0  0  0  0  0  0  0  0  0
  152.6839  140.1916  159.4562 C   0  0  0  0  0  0  0  0  0  0  0  0
  152.3425  138.9081  158.7496 C   0  0  0  0  0  0  0  0  0  0  0  0
  152.0493  139.1280  157.2594 C   0  0  0  0  0  0  0  0  0  0  0  0
  152.3579  140.1959  156.7306 O   0  0  0  0  0  0  0  0  0  0  0  0
  151.4781  138.1156  156.5843 N   0  0  0  0  0  0  0  0  0  0  0  0
  151.1492  138.1216  155.1608 C   0  0  2  0  0  0  0  0  0  0  0  0
  152.4515  138.3553  154.3772 C   0  0  0  0  0  0  0  0  0  0  0  0
  150.1896  139.2775  154.8365 C   0  0  0  0  0  0  0  0  0  0  0  0
  150.5401  140.4456  155.0110 O   0  0  0  0  0  0  0  0  0  0  0  0
  148.9887  138.9214  154.3463 N   0  0  0  0  0  0  0  0  0  0  0  0
  147.8771  139.7874  153.9359 C   0  0  0  0  0  0  0  0  0  0  0  0
  147.1523  139.0707  152.7834 C   0  0  0  0  0  0  0  0  0  0  0  0
  148.4036  141.1460  153.4269 C   0  0  0  0  0  0  0  0  0  0  0  0
  146.8865  139.9898  155.1019 C   0  0  0  0  0  0  0  0  0  0  0  0
  153.6283  140.3608  160.4390 C   0  0  0  0  0  0  0  0  0  0  0  0
  153.6885  142.0058  161.0081 S   0  0  0  0  0  0  0  0  0  0  0  0
  152.1428  145.6560  158.6739 H   0  0  0  0  0  0  0  0  0  0  0  0
  152.5851  144.2277  157.7418 H   0  0  0  0  0  0  0  0  0  0  0  0
  153.6361  144.7949  159.0391 H   0  0  0  0  0  0  0  0  0  0  0  0
  151.8381  144.2532  160.7241 H   0  0  0  0  0  0  0  0  0  0  0  0
  150.7949  143.6922  159.4369 H   0  0  0  0  0  0  0  0  0  0  0  0
  153.1596  138.1926  158.8505 H   0  0  0  0  0  0  0  0  0  0  0  0
  151.4685  138.4411  159.2045 H   0  0  0  0  0  0  0  0  0  0  0  0
  151.2656  137.2708  157.0948 H   0  0  0  0  0  0  0  0  0  0  0  0
  150.7093  137.1658  154.8685 H   0  0  0  0  0  0  0  0  0  0  0  0
  152.2704  138.3709  153.3016 H   0  0  0  0  0  0  0  0  0  0  0  0
  153.1700  137.5584  154.5725 H   0  0  0  0  0  0  0  0  0  0  0  0
  152.9264  139.2993  154.6490 H   0  0  0  0  0  0  0  0  0  0  0  0
  148.8222  137.9302  154.2499 H   0  0  0  0  0  0  0  0  0  0  0  0
  146.3045  139.6549  152.4234 H   0  0  0  0  0  0  0  0  0  0  0  0
  146.7698  138.0981  153.0962 H   0  0  0  0  0  0  0  0  0  0  0  0
  147.8184  138.9050  151.9358 H   0  0  0  0  0  0  0  0  0  0  0  0
  149.1330  141.0145  152.6268 H   0  0  0  0  0  0  0  0  0  0  0  0
  148.8819  141.7241  154.2176 H   0  0  0  0  0  0  0  0  0  0  0  0
  147.5919  141.7580  153.0320 H   0  0  0  0  0  0  0  0  0  0  0  0
  146.0120  140.5556  154.7790 H   0  0  0  0  0  0  0  0  0  0  0  0
  147.3332  140.5399  155.9302 H   0  0  0  0  0  0  0  0  0  0  0  0
  146.5330  139.0348  155.4926 H   0  0  0  0  0  0  0  0  0  0  0  0
  154.2830  139.6169  160.8682 H   0  0  0  0  0  0  0  0  0  0  0  0
  1  2  1  0  0  0  0
  1 21  1  0  0  0  0
  1 22  1  0  0  0  0
  1 23  1  0  0  0  0
  2  3  1  0  0  0  0
  2 24  1  0  0  0  0
  2 25  1  0  0  0  0
  3 20  1  0  0  0  0
  3  4  2  0  0  0  0
  4  5  1  0  0  0  0
  5  6  1  0  0  0  0
  5 19  2  0  0  0  0
  6  7  1  0  0  0  0
  6 26  1  0  0  0  0
  6 27  1  0  0  0  0
  7  8  2  0  0  0  0
  7  9  1  0  0  0  0
  9 10  1  0  0  0  0
  9 28  1  0  0  0  0
 10 11  1  0  0  0  0
 10 12  1  0  0  0  0
 10 29  1  0  0  0  0
 11 30  1  0  0  0  0
 11 31  1  0  0  0  0
 11 32  1  0  0  0  0
 12 13  2  0  0  0  0
 12 14  1  0  0  0  0
 14 15  1  0  0  0  0
 14 33  1  0  0  0  0
 15 16  1  0  0  0  0
 15 17  1  0  0  0  0
 15 18  1  0  0  0  0
 16 34  1  0  0  0  0
 16 35  1  0  0  0  0
 16 36  1  0  0  0  0
 17 37  1  0  0  0  0
 17 38  1  0  0  0  0
 17 39  1  0  0  0  0
 18 40  1  0  0  0  0
 18 41  1  0  0  0  0
 18 42  1  0  0  0  0
 19 20  1  0  0  0  0
 19 43  1  0  0  0  0
M  END
> <s_m_source_file>
AV-unprocessed.smi

> <i_m_source_file_index>
1537

> <i_lp_mmshare_version>
43012

> <i_f3d_flags>
0

> <s_epik_input>
W0NIM11bQ0gyXWMxbmMoW2NIXXMxKVtDSDJdQyg9TylbTkhdW0NASF0oW0NIM10pQyg9TylbTkhdQyhbQ0gzXSkoW0NIM10pW0NIM10=

> <s_epik_cmdline>
J2VwaWtfcHl0aG9uJywgJy1waCcsICc3LjAnLCAnLXRuJywgJzgnLCAnLW1hJywgJzIwMCcsICctbWV0YWxfYmluZGluZycsICctaW1hZScsICc8aW5maWxlLm1hZT4nLCAnLW9tYWUnLCAnPG91dGZpbGUubWFlPic=

> <r_lp_tautomer_probability>
1

> <r_epik_Ionization_Penalty>
4.05444e-05

> <r_epik_Ionization_Penalty_Charging>
0

> <r_epik_Ionization_Penalty_Neutral>
4.05444e-05

> <r_epik_State_Penalty>
-0

> <r_epik_Charging_Adjusted_Penalty>
0

> <i_epik_Tot_Q>
0

> <i_epik_Tot_abs_Q>
0

> <r_epik_Metal_State_Penalty>
-0

> <b_epik_Metal_Only>
0

> <s_lp_Force_Field>
OPLS_2005

> <r_lp_Energy>
-1.93446

> <b_lp_Chiralities_Consistent>
1

> <s_lp_Variant>
AV-unprocessed.smi:1537-1

> <Gold.Version>
5.8.1

> <Gold.Id.Protein>
6NUR|6NUR_protein|mol2

> <Gold.PLP.Fitness>
41.8452

> <Gold.PLP.PLP>
-38.6127

> <Gold.PLP.part.hbond>
-2.0000

> <Gold.PLP.part.metal>
0.0000

> <Gold.PLP.part.buried>
-1.9701

> <Gold.PLP.part.nonpolar>
-33.6727

> <Gold.PLP.part.repulsive>
0.1613

> <Gold.PLP.ligand.clash>
0.0000

> <Gold.PLP.ligand.torsion>
1.4134

> <Gold.PLP.Chemscore.Hbond>
2.0000

> <Gold.PLP.Chemscore.CHOScore>
0.0000

> <Gold.PLP.Chemscore.Metal>
0.0000

> <Gold.Chemscore.Hbonds>
donor molecule, donor type, donor heavy atom, donor atom, acceptor molecule, acceptor atom, score
      P1  H  7989  7998       L1    13  1.00
      P1  H  7997  8010       L1     8  1.00

> <Gold.PLP.Chemscore.Internal.Correction>
0.0593

> <Gold.Rescore>
     Score         DG    S(hbond)    S(metal)    S(lipo)     H(rot)  DE(clash)    DE(int)     intcor
     11.48     -19.72       1.94        0.00     107.37       1.88       0.88       7.36       ----

> <Gold.Chemscore.Fitness>
11.4812

> <Gold.Chemscore.DG>
-19.7235

> <Gold.Chemscore.ZeroCoef>
-5.4800

> <Gold.Chemscore.Hbond>
1.9416

> <Gold.Chemscore.Metal>
0.0000

> <Gold.Chemscore.Lipo>
107.3746

> <Gold.Chemscore.Internal_Hbond>
0.0000

> <Gold.Chemscore.DEClash>
0.8830

> <Gold.Chemscore.DEInternal>
7.3592

> <Gold.Chemscore.Rot>
1.8766

> <Gold.Chemscore.Internal.Correction>
   9.000000E+99

> <Gold.Chemscore.Hbonds>
donor molecule, donor type, donor heavy atom, donor atom, acceptor molecule, acceptor atom, score
      P1  H  7989  7998       L1    13  0.53
      P1  H  7997  8010       L1     8  0.47

> <Gold.Chemscore.Hbond.Weighted>
-6.4848

> <Gold.Chemscore.Metal.Weighted>
-0.0000

> <Gold.Chemscore.Lipo.Weighted>
-12.5628

> <Gold.Chemscore.Internal_Hbond.Weighted>
0.0000

> <Gold.Chemscore.DEClash.Weighted>
0.8830

> <Gold.Chemscore.DEInternal.Weighted>
7.3592

> <Gold.Chemscore.Rot.Weighted>
4.8042

> <Gold.Chemscore.Internal.Correction.Weighted>
   9.000000E+99

> <Gold.Protein.RotatedTorsions>
[ 6907 6896 6895 6894 ] final   84.98 input  -60.11 | X-H torsion
[ 7974 7965 7964 7962 ] final   33.97 input  175.53 | X-H torsion
[ 8008 7997 7996 7995 ] final   65.25 input   59.86 | X-H torsion
[ 10167 10162 10161 10158 ] final  -96.33 input  -65.29 | X-H torsion
[ 10718 10713 10712 10709 ] final -158.43 input   66.30 | X-H torsion
[ 10763 10752 10751 10750 ] final  174.92 input  -60.55 | X-H torsion
[ 11005 11000 10999 10996 ] final  -88.09 input  -57.11 | X-H torsion

> <Gold.Protein.ActiveResidues>
 VAL166  LYS551  ARG553  GLY616  TRP617  ASP618  TYR619  PRO620  LYS621  CYS622 
 ASP623  PHE694  ASN695  SER759  ASP760  ASP761  ALA762  ILE779  LEU786  VAL792 
 PHE793  MET794  SER795  GLU796  ALA797  LYS798  CYS799  TRP800  GLU811  SER814 

> <Gold.Protein.RotatedAtoms>
  152.5365  134.2657  159.8952 H   0  0  0  0  0  0  0  0  0  0  0  0  # atno 6907 bound_to 6896
  151.2615  133.4293  159.2624 H   0  0  0  0  0  0  0  0  0  0  0  0  # atno 6908 bound_to 6896
  151.0448  134.9647  159.8237 H   0  0  0  0  0  0  0  0  0  0  0  0  # atno 6909 bound_to 6896
  146.1385  139.6329  142.9179 H   0  0  0  0  0  0  0  0  0  0  0  0  # atno 7974 bound_to 7965
  155.6588  140.3497  155.4775 H   0  0  0  0  0  0  0  0  0  0  0  0  # atno 8008 bound_to 7997
  155.9786  140.1170  157.0770 H   0  0  0  0  0  0  0  0  0  0  0  0  # atno 8009 bound_to 7997
  154.4185  140.1143  156.5390 H   0  0  0  0  0  0  0  0  0  0  0  0  # atno 8010 bound_to 7997
  140.2949  143.3198  152.0308 H   0  0  0  0  0  0  0  0  0  0  0  0  # atno 10167 bound_to 10162
  156.5540  130.8618  151.2789 H   0  0  0  0  0  0  0  0  0  0  0  0  # atno 10718 bound_to 10713
  154.4605  135.2767  155.1716 H   0  0  0  0  0  0  0  0  0  0  0  0  # atno 10763 bound_to 10752
  154.3506  135.6151  153.5644 H   0  0  0  0  0  0  0  0  0  0  0  0  # atno 10764 bound_to 10752
  152.9854  135.5810  154.4967 H   0  0  0  0  0  0  0  0  0  0  0  0  # atno 10765 bound_to 10752
  141.1607  133.7549  156.9401 H   0  0  0  0  0  0  0  0  0  0  0  0  # atno 11005 bound_to 11000
  145.5101  141.0435  143.2492 LP  0  0  0  0  0  0  0  0  0  0  0  0  # atno 17320 bound_to 7965
  144.7766  139.6617  143.7172 LP  0  0  0  0  0  0  0  0  0  0  0  0  # atno 17321 bound_to 7965
  139.4929  144.6498  151.6700 LP  0  0  0  0  0  0  0  0  0  0  0  0  # atno 17342 bound_to 10162
  140.5701  144.0124  150.6212 LP  0  0  0  0  0  0  0  0  0  0  0  0  # atno 17343 bound_to 10162
  157.7382  130.9809  150.2237 LP  0  0  0  0  0  0  0  0  0  0  0  0  # atno 17370 bound_to 10713
  156.2859  130.3739  149.7889 LP  0  0  0  0  0  0  0  0  0  0  0  0  # atno 17371 bound_to 10713
  140.1328  134.9345  157.2360 LP  0  0  0  0  0  0  0  0  0  0  0  0  # atno 17394 bound_to 11000
  140.2932  134.3216  155.7309 LP  0  0  0  0  0  0  0  0  0  0  0  0  # atno 17395 bound_to 11000

$$$$
