AV-unprocessed.smi:2361|AV-procd|sdf|9412|dock4
  -GOLD-   2272013 53D 1   1.00000     0.00000
 Structure written by MMmdl.
 26 27  0  0  0  0  0  0  0  0  1 V2000
  153.1283  140.1749  158.3015 O   0  0  0  0  0  0  0  0  0  0  0  0
  152.1472  140.9181  158.3295 C   0  0  0  0  0  0  0  0  0  0  0  0
  151.1345  140.8791  157.4446 N   0  0  0  0  0  0  0  0  0  0  0  0
  150.9692  140.0248  156.3184 C   0  0  0  0  0  0  0  0  0  0  0  0
  152.0129  139.2324  155.7791 C   0  0  0  0  0  0  0  0  0  0  0  0
  151.8641  138.4382  154.6979 N   0  0  0  0  0  0  0  0  0  0  0  0
  150.6568  138.4052  154.0975 C   0  0  0  0  0  0  0  0  0  0  0  0
  149.5535  139.1621  154.5364 C   0  0  0  0  0  0  0  0  0  0  0  0
  148.0481  139.0622  153.6943 Cl  0  0  0  0  0  0  0  0  0  0  0  0
  149.7140  139.9922  155.6670 C   0  0  0  0  0  0  0  0  0  0  0  0
  148.3916  140.9488  156.2461 Cl  0  0  0  0  0  0  0  0  0  0  0  0
  152.0181  141.9737  159.4344 C   0  0  1  0  0  0  0  0  0  0  0  0
  153.1505  143.0184  159.4498 C   0  0  0  0  0  0  0  0  0  0  0  0
  152.4689  144.2930  158.9922 C   0  0  0  0  0  0  0  0  0  0  0  0
  151.0450  144.0783  159.4838 C   0  0  0  0  0  0  0  0  0  0  0  0
  150.8152  142.7059  159.2075 O   0  0  0  0  0  0  0  0  0  0  0  0
  150.3561  141.4920  157.6403 H   0  0  0  0  0  0  0  0  0  0  0  0
  153.0075  139.2379  156.1965 H   0  0  0  0  0  0  0  0  0  0  0  0
  150.5705  137.7594  153.2361 H   0  0  0  0  0  0  0  0  0  0  0  0
  151.9588  141.4888  160.4105 H   0  0  0  0  0  0  0  0  0  0  0  0
  153.5211  143.1411  160.4681 H   0  0  0  0  0  0  0  0  0  0  0  0
  154.0062  142.7640  158.8230 H   0  0  0  0  0  0  0  0  0  0  0  0
  152.9300  145.1947  159.3957 H   0  0  0  0  0  0  0  0  0  0  0  0
  152.4827  144.3562  157.9033 H   0  0  0  0  0  0  0  0  0  0  0  0
  150.9720  144.2527  160.5585 H   0  0  0  0  0  0  0  0  0  0  0  0
  150.3209  144.7172  158.9780 H   0  0  0  0  0  0  0  0  0  0  0  0
  1  2  2  0  0  0  0
  2  3  1  0  0  0  0
  2 12  1  0  0  0  0
  3  4  1  0  0  0  0
  3 17  1  0  0  0  0
  4 10  1  0  0  0  0
  4  5  2  0  0  0  0
  5  6  1  0  0  0  0
  5 18  1  0  0  0  0
  6  7  2  0  0  0  0
  7  8  1  0  0  0  0
  7 19  1  0  0  0  0
  8  9  1  0  0  0  0
  8 10  2  0  0  0  0
 10 11  1  0  0  0  0
 12 16  1  0  0  0  0
 12 13  1  0  0  0  0
 12 20  1  0  0  0  0
 13 14  1  0  0  0  0
 13 21  1  0  0  0  0
 13 22  1  0  0  0  0
 14 15  1  0  0  0  0
 14 23  1  0  0  0  0
 14 24  1  0  0  0  0
 15 16  1  0  0  0  0
 15 25  1  0  0  0  0
 15 26  1  0  0  0  0
M  END
> <s_m_source_file>
AV-unprocessed.smi

> <i_m_source_file_index>
2361

> <i_lp_mmshare_version>
43012

> <i_f3d_flags>
0

> <s_epik_input>
TzFbQ0gyXVtDSDJdW0NIMl1bQ0BIXTFDKD1PKVtOSF1jMltjSF1uW2NIXWMoQ2wpYzJDbA==

> <s_epik_cmdline>
J2VwaWtfcHl0aG9uJywgJy1waCcsICc3LjAnLCAnLXRuJywgJzgnLCAnLW1hJywgJzIwMCcsICctbWV0YWxfYmluZGluZycsICctaW1hZScsICc8aW5maWxlLm1hZT4nLCAnLW9tYWUnLCAnPG91dGZpbGUubWFlPic=

> <r_lp_tautomer_probability>
1

> <r_epik_Ionization_Penalty>
7.18707e-06

> <r_epik_Ionization_Penalty_Charging>
0

> <r_epik_Ionization_Penalty_Neutral>
7.18707e-06

> <r_epik_State_Penalty>
-0

> <r_epik_Charging_Adjusted_Penalty>
0

> <i_epik_Tot_Q>
0

> <i_epik_Tot_abs_Q>
0

> <r_epik_Metal_State_Penalty>
-0

> <b_epik_Metal_Only>
0

> <s_lp_Force_Field>
OPLS_2005

> <r_lp_Energy>
24.5043

> <b_lp_Chiralities_Consistent>
1

> <s_lp_Variant>
AV-unprocessed.smi:2361-2

> <Gold.Version>
5.8.1

> <Gold.Id.Protein>
6NUR|6NUR_protein|mol2

> <Gold.PLP.Fitness>
36.7830

> <Gold.PLP.PLP>
-30.4528

> <Gold.PLP.part.hbond>
-1.3452

> <Gold.PLP.part.metal>
0.0000

> <Gold.PLP.part.buried>
-3.6853

> <Gold.PLP.part.nonpolar>
-26.0276

> <Gold.PLP.part.repulsive>
0.1891

> <Gold.PLP.ligand.clash>
0.0000

> <Gold.PLP.ligand.torsion>
0.0394

> <Gold.PLP.Chemscore.Hbond>
0.9760

> <Gold.PLP.Chemscore.CHOScore>
1.1580

> <Gold.PLP.Chemscore.Metal>
0.0000

> <Gold.Chemscore.Hbonds>
donor molecule, donor type, donor heavy atom, donor atom, acceptor molecule, acceptor atom, score
      P1  H  7997  8010       L1     1  0.98
      L1  C     7    19       P1  7948  0.55
      L1  C     7    19       P1  7949  0.57

> <Gold.PLP.Chemscore.Internal.Correction>
0.0069

> <Gold.Rescore>
     Score         DG    S(hbond)    S(metal)    S(lipo)     H(rot)  DE(clash)    DE(int)     intcor
     15.15     -16.50       0.98        0.00      88.06       1.00       0.07       1.28       ----

> <Gold.Chemscore.Fitness>
15.1481

> <Gold.Chemscore.DG>
-16.4978

> <Gold.Chemscore.ZeroCoef>
-5.4800

> <Gold.Chemscore.Hbond>
0.9804

> <Gold.Chemscore.Metal>
0.0000

> <Gold.Chemscore.Lipo>
88.0623

> <Gold.Chemscore.Internal_Hbond>
0.0000

> <Gold.Chemscore.DEClash>
0.0737

> <Gold.Chemscore.DEInternal>
1.2760

> <Gold.Chemscore.Rot>
1.0000

> <Gold.Chemscore.Internal.Correction>
   9.000000E+99

> <Gold.Chemscore.Hbonds>
donor molecule, donor type, donor heavy atom, donor atom, acceptor molecule, acceptor atom, score
      P1  H  7997  8010       L1     1  0.93

> <Gold.Chemscore.Hbond.Weighted>
-3.2745

> <Gold.Chemscore.Metal.Weighted>
-0.0000

> <Gold.Chemscore.Lipo.Weighted>
-10.3033

> <Gold.Chemscore.Internal_Hbond.Weighted>
0.0000

> <Gold.Chemscore.DEClash.Weighted>
0.0737

> <Gold.Chemscore.DEInternal.Weighted>
1.2760

> <Gold.Chemscore.Rot.Weighted>
2.5600

> <Gold.Chemscore.Internal.Correction.Weighted>
   9.000000E+99

> <Gold.Protein.RotatedTorsions>
[ 6907 6896 6895 6894 ] final  -76.60 input  -60.11 | X-H torsion
[ 7974 7965 7964 7962 ] final -141.99 input  175.53 | X-H torsion
[ 8008 7997 7996 7995 ] final   34.63 input   59.86 | X-H torsion
[ 10167 10162 10161 10158 ] final -111.99 input  -65.29 | X-H torsion
[ 10718 10713 10712 10709 ] final -134.56 input   66.30 | X-H torsion
[ 10763 10752 10751 10750 ] final  -90.75 input  -60.55 | X-H torsion
[ 11005 11000 10999 10996 ] final  160.53 input  -57.11 | X-H torsion

> <Gold.Protein.ActiveResidues>
 VAL166  LYS551  ARG553  GLY616  TRP617  ASP618  TYR619  PRO620  LYS621  CYS622 
 ASP623  PHE694  ASN695  SER759  ASP760  ASP761  ALA762  ILE779  LEU786  VAL792 
 PHE793  MET794  SER795  GLU796  ALA797  LYS798  CYS799  TRP800  GLU811  SER814 

> <Gold.Protein.RotatedAtoms>
  150.7023  134.4548  159.5352 H   0  0  0  0  0  0  0  0  0  0  0  0  # atno 6907 bound_to 6896
  152.2233  134.8389  160.0492 H   0  0  0  0  0  0  0  0  0  0  0  0  # atno 6908 bound_to 6896
  151.9231  133.3556  159.3941 H   0  0  0  0  0  0  0  0  0  0  0  0  # atno 6909 bound_to 6896
  144.8477  140.6012  143.5410 H   0  0  0  0  0  0  0  0  0  0  0  0  # atno 7974 bound_to 7965
  155.1579  140.3281  155.4417 H   0  0  0  0  0  0  0  0  0  0  0  0  # atno 8008 bound_to 7997
  156.2552  140.1965  156.6638 H   0  0  0  0  0  0  0  0  0  0  0  0  # atno 8009 bound_to 7997
  154.6426  140.0568  156.9849 H   0  0  0  0  0  0  0  0  0  0  0  0  # atno 8010 bound_to 7997
  140.1276  143.4388  152.1649 H   0  0  0  0  0  0  0  0  0  0  0  0  # atno 10167 bound_to 10162
  156.2567  130.7185  151.1105 H   0  0  0  0  0  0  0  0  0  0  0  0  # atno 10718 bound_to 10713
  154.6689  135.5293  153.8113 H   0  0  0  0  0  0  0  0  0  0  0  0  # atno 10763 bound_to 10752
  153.0489  135.6524  154.0755 H   0  0  0  0  0  0  0  0  0  0  0  0  # atno 10764 bound_to 10752
  154.0656  135.2958  155.3297 H   0  0  0  0  0  0  0  0  0  0  0  0  # atno 10765 bound_to 10752
  140.2069  134.8296  157.3078 H   0  0  0  0  0  0  0  0  0  0  0  0  # atno 11005 bound_to 11000
  145.4563  139.1518  143.3891 LP  0  0  0  0  0  0  0  0  0  0  0  0  # atno 17320 bound_to 7965
  146.2758  140.4691  142.8796 LP  0  0  0  0  0  0  0  0  0  0  0  0  # atno 17321 bound_to 7965
  139.5536  144.7356  151.4361 LP  0  0  0  0  0  0  0  0  0  0  0  0  # atno 17342 bound_to 10162
  140.6836  143.8026  150.7155 LP  0  0  0  0  0  0  0  0  0  0  0  0  # atno 17343 bound_to 10162
  157.7235  131.0666  150.6033 LP  0  0  0  0  0  0  0  0  0  0  0  0  # atno 17370 bound_to 10713
  156.6117  130.4382  149.5856 LP  0  0  0  0  0  0  0  0  0  0  0  0  # atno 17371 bound_to 10713
  140.1993  134.4274  155.7671 LP  0  0  0  0  0  0  0  0  0  0  0  0  # atno 17394 bound_to 11000
  141.2227  133.7064  156.8157 LP  0  0  0  0  0  0  0  0  0  0  0  0  # atno 17395 bound_to 11000

$$$$
