AV-unprocessed.smi:2802|AV-procd|sdf|10806|dock8
  -GOLD-   2272015243D 1   1.00000     0.00000
 Structure written by MMmdl.
 47 48  0  0  0  0  0  0  0  0  1 V2000
  146.0936  143.2290  153.7498 C   0  0  0  0  0  0  0  0  0  0  0  0
  146.8649  142.5184  154.8715 C   0  0  1  0  0  0  0  0  0  0  0  0
  145.9170  141.6868  155.7554 C   0  0  0  0  0  0  0  0  0  0  0  0
  146.6385  140.9458  156.9047 C   0  0  0  0  0  0  0  0  0  0  0  0
  147.0538  141.9349  158.0154 C   0  0  0  0  0  0  0  0  0  0  0  0
  145.6511  139.9456  157.5401 C   0  0  0  0  0  0  0  0  0  0  0  0
  147.8489  140.1441  156.3460 C   0  0  0  0  0  0  0  0  0  0  0  0
  148.8190  140.8984  155.3824 C   0  0  2  0  0  0  0  0  0  0  0  0
  149.7844  139.9248  154.6417 C   0  0  0  0  0  0  0  0  0  0  0  0
  149.1285  139.0244  153.7710 O   0  0  0  0  0  0  0  0  0  0  0  0
  149.6119  141.9423  156.0478 N   0  0  0  0  0  0  0  0  0  0  0  0
  150.3674  141.8565  157.1580 C   0  0  0  0  0  0  0  0  0  0  0  0
  150.5046  140.8328  157.8253 O   0  0  0  0  0  0  0  0  0  0  0  0
  151.0807  143.1403  157.5860 C   0  0  0  0  0  0  0  0  0  0  0  0
  151.9308  142.8888  158.8186 C   0  0  0  0  0  0  0  0  0  0  0  0
  151.8006  143.6964  159.9678 C   0  0  0  0  0  0  0  0  0  0  0  0
  152.5918  143.4042  161.0951 C   0  0  0  0  0  0  0  0  0  0  0  0
  153.4841  142.3159  161.0241 C   0  0  0  0  0  0  0  0  0  0  0  0
  153.6202  141.5384  159.9285 N   0  0  0  0  0  0  0  0  0  0  0  0
  152.8584  141.8253  158.8511 C   0  0  0  0  0  0  0  0  0  0  0  0
  147.9754  141.6172  154.2989 C   0  0  0  0  0  0  0  0  0  0  0  0
  145.6021  142.5133  153.0899 H   0  0  0  0  0  0  0  0  0  0  0  0
  146.7605  143.8398  153.1408 H   0  0  0  0  0  0  0  0  0  0  0  0
  145.3261  143.8874  154.1576 H   0  0  0  0  0  0  0  0  0  0  0  0
  147.3233  143.2992  155.4779 H   0  0  0  0  0  0  0  0  0  0  0  0
  145.1334  142.3271  156.1628 H   0  0  0  0  0  0  0  0  0  0  0  0
  145.4064  140.9589  155.1227 H   0  0  0  0  0  0  0  0  0  0  0  0
  147.6286  141.4366  158.7968 H   0  0  0  0  0  0  0  0  0  0  0  0
  146.1816  142.3853  158.4899 H   0  0  0  0  0  0  0  0  0  0  0  0
  147.6572  142.7566  157.6400 H   0  0  0  0  0  0  0  0  0  0  0  0
  146.1155  139.3968  158.3603 H   0  0  0  0  0  0  0  0  0  0  0  0
  145.2989  139.2111  156.8147 H   0  0  0  0  0  0  0  0  0  0  0  0
  144.7720  140.4518  157.9404 H   0  0  0  0  0  0  0  0  0  0  0  0
  148.3955  139.6958  157.1757 H   0  0  0  0  0  0  0  0  0  0  0  0
  147.4496  139.2959  155.7872 H   0  0  0  0  0  0  0  0  0  0  0  0
  150.4774  140.4846  154.0128 H   0  0  0  0  0  0  0  0  0  0  0  0
  150.4016  139.3656  155.3465 H   0  0  0  0  0  0  0  0  0  0  0  0
  149.2103  139.3462  152.8865 H   0  0  0  0  0  0  0  0  0  0  0  0
  149.5807  142.8483  155.6038 H   0  0  0  0  0  0  0  0  0  0  0  0
  151.7125  143.5032  156.7741 H   0  0  0  0  0  0  0  0  0  0  0  0
  150.3447  143.9196  157.7878 H   0  0  0  0  0  0  0  0  0  0  0  0
  151.0993  144.5176  159.9913 H   0  0  0  0  0  0  0  0  0  0  0  0
  152.5147  143.9975  161.9941 H   0  0  0  0  0  0  0  0  0  0  0  0
  154.1044  142.0624  161.8711 H   0  0  0  0  0  0  0  0  0  0  0  0
  152.9835  141.1792  157.9947 H   0  0  0  0  0  0  0  0  0  0  0  0
  147.5063  140.8756  153.6500 H   0  0  0  0  0  0  0  0  0  0  0  0
  148.6288  142.2052  153.6521 H   0  0  0  0  0  0  0  0  0  0  0  0
  1  2  1  0  0  0  0
  1 22  1  0  0  0  0
  1 23  1  0  0  0  0
  1 24  1  0  0  0  0
  2 21  1  0  0  0  0
  2  3  1  0  0  0  0
  2 25  1  0  0  0  0
  3  4  1  0  0  0  0
  3 26  1  0  0  0  0
  3 27  1  0  0  0  0
  4  5  1  0  0  0  0
  4  6  1  0  0  0  0
  4  7  1  0  0  0  0
  5 28  1  0  0  0  0
  5 29  1  0  0  0  0
  5 30  1  0  0  0  0
  6 31  1  0  0  0  0
  6 32  1  0  0  0  0
  6 33  1  0  0  0  0
  7  8  1  0  0  0  0
  7 34  1  0  0  0  0
  7 35  1  0  0  0  0
  8  9  1  0  0  0  0
  8 11  1  0  0  0  0
  8 21  1  0  0  0  0
  9 10  1  0  0  0  0
  9 36  1  0  0  0  0
  9 37  1  0  0  0  0
 10 38  1  0  0  0  0
 11 12  1  0  0  0  0
 11 39  1  0  0  0  0
 12 13  2  0  0  0  0
 12 14  1  0  0  0  0
 14 15  1  0  0  0  0
 14 40  1  0  0  0  0
 14 41  1  0  0  0  0
 15 20  1  0  0  0  0
 15 16  2  0  0  0  0
 16 17  1  0  0  0  0
 16 42  1  0  0  0  0
 17 18  2  0  0  0  0
 17 43  1  0  0  0  0
 18 19  1  0  0  0  0
 18 44  1  0  0  0  0
 19 20  2  0  0  0  0
 20 45  1  0  0  0  0
 21 46  1  0  0  0  0
 21 47  1  0  0  0  0
M  END
> <s_m_source_file>
AV-unprocessed.smi

> <i_m_source_file_index>
2802

> <i_lp_mmshare_version>
43012

> <i_f3d_flags>
0

> <s_epik_input>
W0NIM11DMShbQ0gzXSlbQ0gyXVtDQEBIXShbQ0gzXSlbQ0gyXVtDQF0oW0NIMl0xKShbQ0gyXVtPSF0pW05IXUMoPU8pW0NIMl1jMltjSF1bY0hdW2NIXW5bY0hdMg==

> <s_epik_cmdline>
J2VwaWtfcHl0aG9uJywgJy1waCcsICc3LjAnLCAnLXRuJywgJzgnLCAnLW1hJywgJzIwMCcsICctbWV0YWxfYmluZGluZycsICctaW1hZScsICc8aW5maWxlLm1hZT4nLCAnLW9tYWUnLCAnPG91dGZpbGUubWFlPic=

> <r_epik_Ionization_Penalty>
0.004793

> <r_epik_Ionization_Penalty_Charging>
0

> <r_epik_Ionization_Penalty_Neutral>
0.004793

> <r_epik_State_Penalty>
0.00347421

> <r_epik_Charging_Adjusted_Penalty>
0.00347421

> <i_epik_Tot_Q>
0

> <i_epik_Tot_abs_Q>
0

> <r_epik_Metal_State_Penalty>
-0

> <b_epik_Metal_Only>
0

> <s_lp_Force_Field>
OPLS_2005

> <r_lp_Energy>
17.3779

> <b_lp_Chiralities_Consistent>
1

> <s_lp_Variant>
AV-unprocessed.smi:2802-4

> <Gold.Version>
5.8.1

> <Gold.Id.Protein>
6NUR|6NUR_protein|mol2

> <Gold.PLP.Fitness>
45.8491

> <Gold.PLP.PLP>
-40.3340

> <Gold.PLP.part.hbond>
-2.0000

> <Gold.PLP.part.metal>
0.0000

> <Gold.PLP.part.buried>
-5.3459

> <Gold.PLP.part.nonpolar>
-32.8538

> <Gold.PLP.part.repulsive>
0.1082

> <Gold.PLP.ligand.clash>
0.0000

> <Gold.PLP.ligand.torsion>
0.2654

> <Gold.PLP.Chemscore.Hbond>
2.0000

> <Gold.PLP.Chemscore.CHOScore>
0.0000

> <Gold.PLP.Chemscore.Metal>
0.0000

> <Gold.Chemscore.Hbonds>
donor molecule, donor type, donor heavy atom, donor atom, acceptor molecule, acceptor atom, score
      L1  H    10    38       P1  7957  1.00
      L1  H    11    39       P1  8028  0.94

> <Gold.PLP.Chemscore.Internal.Correction>
0.0459

> <Gold.Rescore>
     Score         DG    S(hbond)    S(metal)    S(lipo)     H(rot)  DE(clash)    DE(int)     intcor
     17.52     -18.94       1.98        0.00     102.22       2.00       0.02       1.40       ----

> <Gold.Chemscore.Fitness>
17.5207

> <Gold.Chemscore.DG>
-18.9424

> <Gold.Chemscore.ZeroCoef>
-5.4800

> <Gold.Chemscore.Hbond>
1.9850

> <Gold.Chemscore.Metal>
0.0000

> <Gold.Chemscore.Lipo>
102.2155

> <Gold.Chemscore.Internal_Hbond>
0.0000

> <Gold.Chemscore.DEClash>
0.0185

> <Gold.Chemscore.DEInternal>
1.4032

> <Gold.Chemscore.Rot>
2.0026

> <Gold.Chemscore.Internal.Correction>
   9.000000E+99

> <Gold.Chemscore.Hbonds>
donor molecule, donor type, donor heavy atom, donor atom, acceptor molecule, acceptor atom, score
      L1  H    10    38       P1  7957  1.00
      L1  H    11    39       P1  8028  0.89

> <Gold.Chemscore.Hbond.Weighted>
-6.6299

> <Gold.Chemscore.Metal.Weighted>
-0.0000

> <Gold.Chemscore.Lipo.Weighted>
-11.9592

> <Gold.Chemscore.Internal_Hbond.Weighted>
0.0000

> <Gold.Chemscore.DEClash.Weighted>
0.0185

> <Gold.Chemscore.DEInternal.Weighted>
1.4032

> <Gold.Chemscore.Rot.Weighted>
5.1267

> <Gold.Chemscore.Internal.Correction.Weighted>
   9.000000E+99

> <Gold.Protein.RotatedTorsions>
[ 6907 6896 6895 6894 ] final  -74.34 input  -60.11 | X-H torsion
[ 7974 7965 7964 7962 ] final   97.05 input  175.53 | X-H torsion
[ 8008 7997 7996 7995 ] final -157.63 input   59.86 | X-H torsion
[ 10167 10162 10161 10158 ] final   56.20 input  -65.29 | X-H torsion
[ 10718 10713 10712 10709 ] final   83.02 input   66.30 | X-H torsion
[ 10763 10752 10751 10750 ] final  131.40 input  -60.55 | X-H torsion
[ 11005 11000 10999 10996 ] final  -63.33 input  -57.11 | X-H torsion

> <Gold.Protein.ActiveResidues>
 VAL166  LYS551  ARG553  GLY616  TRP617  ASP618  TYR619  PRO620  LYS621  CYS622 
 ASP623  PHE694  ASN695  SER759  ASP760  ASP761  ALA762  ILE779  LEU786  VAL792 
 PHE793  MET794  SER795  GLU796  ALA797  LYS798  CYS799  TRP800  GLU811  SER814 

> <Gold.Protein.RotatedAtoms>
  150.7096  134.4883  159.5502 H   0  0  0  0  0  0  0  0  0  0  0  0  # atno 6907 bound_to 6896
  152.2506  134.8134  160.0455 H   0  0  0  0  0  0  0  0  0  0  0  0  # atno 6908 bound_to 6896
  151.8883  133.3475  159.3826 H   0  0  0  0  0  0  0  0  0  0  0  0  # atno 6909 bound_to 6896
  145.4306  139.2311  143.3146 H   0  0  0  0  0  0  0  0  0  0  0  0  # atno 7974 bound_to 7965
  155.7353  140.0807  157.2270 H   0  0  0  0  0  0  0  0  0  0  0  0  # atno 8008 bound_to 7997
  154.4028  140.1588  156.2609 H   0  0  0  0  0  0  0  0  0  0  0  0  # atno 8009 bound_to 7997
  155.9071  140.3406  155.6073 H   0  0  0  0  0  0  0  0  0  0  0  0  # atno 8010 bound_to 7997
  140.2113  144.3886  150.6487 H   0  0  0  0  0  0  0  0  0  0  0  0  # atno 10167 bound_to 10162
  157.6870  131.0073  150.2462 H   0  0  0  0  0  0  0  0  0  0  0  0  # atno 10718 bound_to 10713
  153.7737  135.3178  155.3356 H   0  0  0  0  0  0  0  0  0  0  0  0  # atno 10763 bound_to 10752
  154.8187  135.4618  154.0719 H   0  0  0  0  0  0  0  0  0  0  0  0  # atno 10764 bound_to 10752
  153.1986  135.6919  153.8344 H   0  0  0  0  0  0  0  0  0  0  0  0  # atno 10765 bound_to 10752
  141.1389  133.6650  156.5663 H   0  0  0  0  0  0  0  0  0  0  0  0  # atno 11005 bound_to 11000
  146.2609  140.5042  142.8854 LP  0  0  0  0  0  0  0  0  0  0  0  0  # atno 17320 bound_to 7965
  144.8185  140.6509  143.6368 LP  0  0  0  0  0  0  0  0  0  0  0  0  # atno 17321 bound_to 7965
  140.6321  143.2189  151.6473 LP  0  0  0  0  0  0  0  0  0  0  0  0  # atno 17342 bound_to 10162
  139.5179  144.3302  152.0833 LP  0  0  0  0  0  0  0  0  0  0  0  0  # atno 17343 bound_to 10162
  156.3067  130.3766  149.7699 LP  0  0  0  0  0  0  0  0  0  0  0  0  # atno 17370 bound_to 10713
  156.5313  130.8259  151.3238 LP  0  0  0  0  0  0  0  0  0  0  0  0  # atno 17371 bound_to 10713
  140.3948  134.7409  157.4744 LP  0  0  0  0  0  0  0  0  0  0  0  0  # atno 17394 bound_to 11000
  140.0539  134.6091  155.8828 LP  0  0  0  0  0  0  0  0  0  0  0  0  # atno 17395 bound_to 11000

$$$$
