AV-unprocessed.smi:1473|AV-procd|sdf|5973|dock1
  -GOLD-   22720 6 63D 1   1.00000     0.00000
 Structure written by MMmdl.
 34 35  0  0  0  0  0  0  0  0  3 V2000
  152.7457  136.7748  159.2005 N   0  5  0  0  0  0  0  0  0  0  0  0
  153.1959  137.4245  157.7926 S   0  0  0  0  0  0  0  0  0  0  0  0
  153.7863  138.7646  157.9290 O   0  0  0  0  0  0  0  0  0  0  0  0
  153.8365  136.4569  156.8889 O   0  0  0  0  0  0  0  0  0  0  0  0
  151.6057  137.6618  157.1713 N   0  0  0  0  0  0  0  0  0  0  0  0
  151.4210  138.2548  155.8467 C   0  0  0  0  0  0  0  0  0  0  0  0
  150.9982  139.7051  155.9361 C   0  0  0  0  0  0  0  0  0  0  0  0
  150.0807  140.2340  155.0035 C   0  0  0  0  0  0  0  0  0  0  0  0
  149.7170  141.5917  155.0932 C   0  0  0  0  0  0  0  0  0  0  0  0
  150.2499  142.3676  156.0628 N   0  3  0  0  0  0  0  0  0  0  0  0
  151.1334  141.9073  156.9767 C   0  0  0  0  0  0  0  0  0  0  0  0
  151.6174  142.8240  157.9191 N   0  0  0  0  0  0  0  0  0  0  0  0
  150.5770  143.6317  158.5434 C   0  0  0  0  0  0  0  0  0  0  0  0
  151.2129  144.6744  159.4788 C   0  0  0  0  0  0  0  0  0  0  0  0
  152.0332  144.0132  160.4377 O   0  0  0  0  0  0  0  0  0  0  0  0
  153.0943  143.2863  159.8248 C   0  0  0  0  0  0  0  0  0  0  0  0
  152.5101  142.2101  158.8934 C   0  0  0  0  0  0  0  0  0  0  0  0
  151.5329  140.5510  156.9316 C   0  0  0  0  0  0  0  0  0  0  0  0
  153.0441  137.4046  159.9549 H   0  0  0  0  0  0  0  0  0  0  0  0
  150.9680  138.0322  157.8748 H   0  0  0  0  0  0  0  0  0  0  0  0
  152.3470  138.1911  155.2737 H   0  0  0  0  0  0  0  0  0  0  0  0
  150.6775  137.6743  155.3001 H   0  0  0  0  0  0  0  0  0  0  0  0
  149.6668  139.6068  154.2262 H   0  0  0  0  0  0  0  0  0  0  0  0
  149.0244  142.0771  154.4212 H   0  0  0  0  0  0  0  0  0  0  0  0
  149.9846  144.1292  157.7746 H   0  0  0  0  0  0  0  0  0  0  0  0
  149.8997  142.9937  159.1124 H   0  0  0  0  0  0  0  0  0  0  0  0
  151.8046  145.3968  158.9140 H   0  0  0  0  0  0  0  0  0  0  0  0
  150.4377  145.2358  160.0004 H   0  0  0  0  0  0  0  0  0  0  0  0
  153.7449  143.9670  159.2735 H   0  0  0  0  0  0  0  0  0  0  0  0
  153.7028  142.8223  160.6011 H   0  0  0  0  0  0  0  0  0  0  0  0
  151.9625  141.4703  159.4794 H   0  0  0  0  0  0  0  0  0  0  0  0
  153.3151  141.6833  158.3792 H   0  0  0  0  0  0  0  0  0  0  0  0
  152.2471  140.1629  157.6434 H   0  0  0  0  0  0  0  0  0  0  0  0
  149.9729  143.3485  156.1056 H   0  0  0  0  0  0  0  0  0  0  0  0
  1  2  1  0  0  0  0
  1 19  1  0  0  0  0
  2  3  2  0  0  0  0
  2  4  2  0  0  0  0
  2  5  1  0  0  0  0
  5  6  1  0  0  0  0
  5 20  1  0  0  0  0
  6  7  1  0  0  0  0
  6 21  1  0  0  0  0
  6 22  1  0  0  0  0
  7 18  1  0  0  0  0
  7  8  2  0  0  0  0
  8  9  1  0  0  0  0
  8 23  1  0  0  0  0
  9 10  2  0  0  0  0
  9 24  1  0  0  0  0
 10 11  1  0  0  0  0
 10 34  1  0  0  0  0
 11 12  1  0  0  0  0
 11 18  2  0  0  0  0
 12 17  1  0  0  0  0
 12 13  1  0  0  0  0
 13 14  1  0  0  0  0
 13 25  1  0  0  0  0
 13 26  1  0  0  0  0
 14 15  1  0  0  0  0
 14 27  1  0  0  0  0
 14 28  1  0  0  0  0
 15 16  1  0  0  0  0
 16 17  1  0  0  0  0
 16 29  1  0  0  0  0
 16 30  1  0  0  0  0
 17 31  1  0  0  0  0
 17 32  1  0  0  0  0
 18 33  1  0  0  0  0
M  CHG  1   1  -1
M  CHG  1  10   1
M  END
> <s_m_source_file>
AV-unprocessed.smi

> <i_m_source_file_index>
1473

> <i_lp_mmshare_version>
43012

> <i_f3d_flags>
0

> <s_epik_input>
W05IMl1TKD1PKSg9TylbTkhdW0NIMl1jMVtjSF1bY0hdbmMoW2NIXTEpTjJbQ0gyXVtDSDJdT1tDSDJdW0NIMl0y

> <s_epik_cmdline>
J2VwaWtfcHl0aG9uJywgJy1waCcsICc3LjAnLCAnLXRuJywgJzgnLCAnLW1hJywgJzIwMCcsICctbWV0YWxfYmluZGluZycsICctaW1hZScsICc8aW5maWxlLm1hZT4nLCAnLW9tYWUnLCAnPG91dGZpbGUubWFlPic=

> <r_lp_tautomer_probability>
0.999994

> <r_epik_Ionization_Penalty>
4.01131

> <r_epik_Ionization_Penalty_Charging>
4.01082

> <r_epik_Ionization_Penalty_Neutral>
0.000490975

> <r_epik_State_Penalty>
4.3422

> <r_epik_Charging_Adjusted_Penalty>
8.35301

> <i_epik_Tot_Q>
0

> <i_epik_Tot_abs_Q>
2

> <r_epik_Metal_State_Penalty>
2.5645

> <b_epik_Metal_Only>
1

> <s_lp_Force_Field>
OPLS_2005

> <r_lp_Energy>
15.7261

> <b_lp_Chiralities_Consistent>
1

> <s_lp_Variant>
AV-unprocessed.smi:1473-8

> <Gold.Version>
5.8.1

> <Gold.Id.Protein>
6NUR|6NUR_protein|mol2

> <Gold.PLP.Fitness>
47.1178

> <Gold.PLP.PLP>
-30.6301

> <Gold.PLP.part.hbond>
-4.0000

> <Gold.PLP.part.metal>
0.0000

> <Gold.PLP.part.buried>
-4.2937

> <Gold.PLP.part.nonpolar>
-22.8030

> <Gold.PLP.part.repulsive>
0.2551

> <Gold.PLP.ligand.clash>
0.0442

> <Gold.PLP.ligand.torsion>
0.8060

> <Gold.PLP.Chemscore.Hbond>
6.0000

> <Gold.PLP.Chemscore.CHOScore>
0.0000

> <Gold.PLP.Chemscore.Metal>
0.0000

> <Gold.Chemscore.Hbonds>
donor molecule, donor type, donor heavy atom, donor atom, acceptor molecule, acceptor atom, score
      L1  H    10    34       P1  8028  2.00
      P1  H  6896  6909       L1     1  1.92
      P1  H  7997  8010       L1     3  1.00
      P1  H 10752 10763       L1     4  1.00

> <Gold.PLP.Chemscore.Internal.Correction>
0.1440

> <Gold.Rescore>
     Score         DG    S(hbond)    S(metal)    S(lipo)     H(rot)  DE(clash)    DE(int)     intcor
     20.13     -20.84       3.94        0.00      73.38       2.49       0.00       0.70       ----

> <Gold.Chemscore.Fitness>
20.1341

> <Gold.Chemscore.DG>
-20.8357

> <Gold.Chemscore.ZeroCoef>
-5.4800

> <Gold.Chemscore.Hbond>
3.9368

> <Gold.Chemscore.Metal>
0.0000

> <Gold.Chemscore.Lipo>
73.3784

> <Gold.Chemscore.Internal_Hbond>
0.0000

> <Gold.Chemscore.DEClash>
0.0038

> <Gold.Chemscore.DEInternal>
0.6978

> <Gold.Chemscore.Rot>
2.4917

> <Gold.Chemscore.Internal.Correction>
   9.000000E+99

> <Gold.Chemscore.Hbonds>
donor molecule, donor type, donor heavy atom, donor atom, acceptor molecule, acceptor atom, score
      L1  H    10    34       P1  8028  0.97
      P1  H  6896  6909       L1     1  0.60
      P1  H  7997  8010       L1     3  0.99
      P1  H 10752 10763       L1     4  0.95

> <Gold.Chemscore.Hbond.Weighted>
-13.1490

> <Gold.Chemscore.Metal.Weighted>
-0.0000

> <Gold.Chemscore.Lipo.Weighted>
-8.5853

> <Gold.Chemscore.Internal_Hbond.Weighted>
0.0000

> <Gold.Chemscore.DEClash.Weighted>
0.0038

> <Gold.Chemscore.DEInternal.Weighted>
0.6978

> <Gold.Chemscore.Rot.Weighted>
6.3786

> <Gold.Chemscore.Internal.Correction.Weighted>
   9.000000E+99

> <Gold.Protein.RotatedTorsions>
[ 6907 6896 6895 6894 ] final  139.06 input  -60.11 | X-H torsion
[ 7974 7965 7964 7962 ] final -176.15 input  175.53 | X-H torsion
[ 8008 7997 7996 7995 ] final   17.91 input   59.86 | X-H torsion
[ 10167 10162 10161 10158 ] final   50.88 input  -65.29 | X-H torsion
[ 10718 10713 10712 10709 ] final   73.36 input   66.30 | X-H torsion
[ 10763 10752 10751 10750 ] final  139.81 input  -60.55 | X-H torsion
[ 11005 11000 10999 10996 ] final -124.64 input  -57.11 | X-H torsion

> <Gold.Protein.ActiveResidues>
 VAL166  LYS551  ARG553  GLY616  TRP617  ASP618  TYR619  PRO620  LYS621  CYS622 
 ASP623  PHE694  ASN695  SER759  ASP760  ASP761  ALA762  ILE779  LEU786  VAL792 
 PHE793  MET794  SER795  GLU796  ALA797  LYS798  CYS799  TRP800  GLU811  SER814 

> <Gold.Protein.RotatedAtoms>
  152.2593  133.5283  159.5371 H   0  0  0  0  0  0  0  0  0  0  0  0  # atno 6907 bound_to 6896
  150.7119  134.0852  159.3921 H   0  0  0  0  0  0  0  0  0  0  0  0  # atno 6908 bound_to 6896
  151.8770  135.0468  160.0536 H   0  0  0  0  0  0  0  0  0  0  0  0  # atno 6909 bound_to 6896
  144.7127  140.1213  143.6405 H   0  0  0  0  0  0  0  0  0  0  0  0  # atno 7974 bound_to 7965
  154.8982  140.2997  155.5332 H   0  0  0  0  0  0  0  0  0  0  0  0  # atno 8008 bound_to 7997
  156.3019  140.2411  156.3942 H   0  0  0  0  0  0  0  0  0  0  0  0  # atno 8009 bound_to 7997
  154.8548  140.0408  157.1616 H   0  0  0  0  0  0  0  0  0  0  0  0  # atno 8010 bound_to 7997
  140.2678  144.3300  150.6299 H   0  0  0  0  0  0  0  0  0  0  0  0  # atno 10167 bound_to 10162
  157.6544  130.9624  150.1058 H   0  0  0  0  0  0  0  0  0  0  0  0  # atno 10718 bound_to 10713
  153.9122  135.3010  155.3448 H   0  0  0  0  0  0  0  0  0  0  0  0  # atno 10763 bound_to 10752
  154.7617  135.4930  153.9481 H   0  0  0  0  0  0  0  0  0  0  0  0  # atno 10764 bound_to 10752
  153.1186  135.6777  153.9476 H   0  0  0  0  0  0  0  0  0  0  0  0  # atno 10765 bound_to 10752
  140.9825  134.0653  157.3749 H   0  0  0  0  0  0  0  0  0  0  0  0  # atno 11005 bound_to 11000
  145.9368  139.2642  143.1292 LP  0  0  0  0  0  0  0  0  0  0  0  0  # atno 17320 bound_to 7965
  145.9465  140.8941  143.0281 LP  0  0  0  0  0  0  0  0  0  0  0  0  # atno 17321 bound_to 7965
  140.5914  143.2168  151.7245 LP  0  0  0  0  0  0  0  0  0  0  0  0  # atno 17342 bound_to 10162
  139.4998  144.3933  152.0258 LP  0  0  0  0  0  0  0  0  0  0  0  0  # atno 17343 bound_to 10162
  156.1968  130.3658  149.8839 LP  0  0  0  0  0  0  0  0  0  0  0  0  # atno 17370 bound_to 10713
  156.6753  130.8836  151.3568 LP  0  0  0  0  0  0  0  0  0  0  0  0  # atno 17371 bound_to 10713
  139.8956  135.0142  156.7010 LP  0  0  0  0  0  0  0  0  0  0  0  0  # atno 17394 bound_to 11000
  140.7165  133.9178  155.8118 LP  0  0  0  0  0  0  0  0  0  0  0  0  # atno 17395 bound_to 11000

$$$$
