AV-unprocessed.smi:671|AV-procd|sdf|3274|dock4
  -GOLD-   22720 0233D 1   1.00000     0.00000
 Structure written by MMmdl.
 49 50  0  0  0  0  0  0  0  0  1 V2000
  152.6882  138.6779  154.9567 C   0  0  0  0  0  0  0  0  0  0  0  0
  151.4198  137.9277  155.2469 C   0  0  0  0  0  0  0  0  0  0  0  0
  151.3177  136.6604  154.8821 N   0  0  0  0  0  0  0  0  0  0  0  0
  150.0786  136.2908  155.2640 N   0  0  0  0  0  0  0  0  0  0  0  0
  149.6273  134.9382  155.0011 C   0  0  0  0  0  0  0  0  0  0  0  0
  149.4000  137.3244  155.8795 C   0  0  0  0  0  0  0  0  0  0  0  0
  148.0042  137.1706  156.3915 C   0  0  0  0  0  0  0  0  0  0  0  0
  150.2383  138.4068  155.8851 C   0  0  0  0  0  0  0  0  0  0  0  0
  149.9779  139.7941  156.4192 C   0  0  0  0  0  0  0  0  0  0  0  0
  150.1974  140.8849  155.3528 C   0  0  1  0  0  0  0  0  0  0  0  0
  149.0916  140.8770  154.2868 C   0  0  0  0  0  0  0  0  0  0  0  0
  150.2785  142.2050  155.9875 N   0  0  0  0  0  0  0  0  0  0  0  0
  150.8931  142.5494  157.1329 C   0  0  0  0  0  0  0  0  0  0  0  0
  151.4857  141.7234  157.8244 O   0  0  0  0  0  0  0  0  0  0  0  0
  150.7907  143.8486  157.4568 N   0  0  0  0  0  0  0  0  0  0  0  0
  151.3923  144.4753  158.6293 C   0  0  2  0  0  0  0  0  0  0  0  0
  152.8133  143.9376  158.8997 C   0  0  0  0  0  0  0  0  0  0  0  0
  152.7536  143.2224  160.2510 C   0  0  0  0  0  0  0  0  0  0  0  0
  151.6030  143.8985  160.9892 C   0  0  0  0  0  0  0  0  0  0  0  0
  150.5671  144.1627  159.8942 C   0  0  1  0  0  0  0  0  0  0  0  0
  149.5477  145.2513  160.2556 C   0  0  0  0  0  0  0  0  0  0  0  0
  152.4745  139.6349  154.4801 H   0  0  0  0  0  0  0  0  0  0  0  0
  153.3455  138.1189  154.2893 H   0  0  0  0  0  0  0  0  0  0  0  0
  153.2401  138.8794  155.8749 H   0  0  0  0  0  0  0  0  0  0  0  0
  148.6693  134.9659  154.4812 H   0  0  0  0  0  0  0  0  0  0  0  0
  149.5074  134.4030  155.9432 H   0  0  0  0  0  0  0  0  0  0  0  0
  150.3488  134.4046  154.3805 H   0  0  0  0  0  0  0  0  0  0  0  0
  147.7356  137.9915  157.0564 H   0  0  0  0  0  0  0  0  0  0  0  0
  147.8919  136.2418  156.9512 H   0  0  0  0  0  0  0  0  0  0  0  0
  147.2909  137.1596  155.5672 H   0  0  0  0  0  0  0  0  0  0  0  0
  148.9593  139.8682  156.8012 H   0  0  0  0  0  0  0  0  0  0  0  0
  150.6209  139.9982  157.2762 H   0  0  0  0  0  0  0  0  0  0  0  0
  151.1436  140.6549  154.8611 H   0  0  0  0  0  0  0  0  0  0  0  0
  149.0249  139.9041  153.7992 H   0  0  0  0  0  0  0  0  0  0  0  0
  149.2856  141.6193  153.5120 H   0  0  0  0  0  0  0  0  0  0  0  0
  148.1170  141.0982  154.7233 H   0  0  0  0  0  0  0  0  0  0  0  0
  149.7584  142.9379  155.5269 H   0  0  0  0  0  0  0  0  0  0  0  0
  150.2739  144.4516  156.8339 H   0  0  0  0  0  0  0  0  0  0  0  0
  151.4453  145.5559  158.4804 H   0  0  0  0  0  0  0  0  0  0  0  0
  153.1823  143.2753  158.1150 H   0  0  0  0  0  0  0  0  0  0  0  0
  153.5084  144.7760  158.9604 H   0  0  0  0  0  0  0  0  0  0  0  0
  152.5202  142.1680  160.0981 H   0  0  0  0  0  0  0  0  0  0  0  0
  153.6948  143.2794  160.7983 H   0  0  0  0  0  0  0  0  0  0  0  0
  151.2091  143.2853  161.8000 H   0  0  0  0  0  0  0  0  0  0  0  0
  151.9476  144.8404  161.4187 H   0  0  0  0  0  0  0  0  0  0  0  0
  150.0249  143.2276  159.7394 H   0  0  0  0  0  0  0  0  0  0  0  0
  150.0355  146.2102  160.4325 H   0  0  0  0  0  0  0  0  0  0  0  0
  148.9965  144.9852  161.1578 H   0  0  0  0  0  0  0  0  0  0  0  0
  148.8233  145.3887  159.4523 H   0  0  0  0  0  0  0  0  0  0  0  0
  1  2  1  0  0  0  0
  1 22  1  0  0  0  0
  1 23  1  0  0  0  0
  1 24  1  0  0  0  0
  2  8  1  0  0  0  0
  2  3  2  0  0  0  0
  3  4  1  0  0  0  0
  4  5  1  0  0  0  0
  4  6  1  0  0  0  0
  5 25  1  0  0  0  0
  5 26  1  0  0  0  0
  5 27  1  0  0  0  0
  6  7  1  0  0  0  0
  6  8  2  0  0  0  0
  7 28  1  0  0  0  0
  7 29  1  0  0  0  0
  7 30  1  0  0  0  0
  8  9  1  0  0  0  0
  9 10  1  0  0  0  0
  9 31  1  0  0  0  0
  9 32  1  0  0  0  0
 10 11  1  0  0  0  0
 10 12  1  0  0  0  0
 10 33  1  0  0  0  0
 11 34  1  0  0  0  0
 11 35  1  0  0  0  0
 11 36  1  0  0  0  0
 12 13  1  0  0  0  0
 12 37  1  0  0  0  0
 13 14  2  0  0  0  0
 13 15  1  0  0  0  0
 15 16  1  0  0  0  0
 15 38  1  0  0  0  0
 16 20  1  0  0  0  0
 16 17  1  0  0  0  0
 16 39  1  0  0  0  0
 17 18  1  0  0  0  0
 17 40  1  0  0  0  0
 17 41  1  0  0  0  0
 18 19  1  0  0  0  0
 18 42  1  0  0  0  0
 18 43  1  0  0  0  0
 19 20  1  0  0  0  0
 19 44  1  0  0  0  0
 19 45  1  0  0  0  0
 20 21  1  0  0  0  0
 20 46  1  0  0  0  0
 21 47  1  0  0  0  0
 21 48  1  0  0  0  0
 21 49  1  0  0  0  0
M  END
> <s_m_source_file>
AV-unprocessed.smi

> <i_m_source_file_index>
671

> <i_lp_mmshare_version>
43012

> <i_f3d_flags>
0

> <s_epik_input>
W0NIM11jMW5uKFtDSDNdKWMoW0NIM10pYzFbQ0gyXVtDQEhdKFtDSDNdKVtOSF1DKD1PKVtOSF1bQ0BASF0yW0NIMl1bQ0gyXVtDSDJdW0NASF0yW0NIM10=

> <s_epik_cmdline>
J2VwaWtfcHl0aG9uJywgJy1waCcsICc3LjAnLCAnLXRuJywgJzgnLCAnLW1hJywgJzIwMCcsICctbWV0YWxfYmluZGluZycsICctaW1hZScsICc8aW5maWxlLm1hZT4nLCAnLW9tYWUnLCAnPG91dGZpbGUubWFlPic=

> <r_lp_tautomer_probability>
1

> <r_epik_Ionization_Penalty>
0.0126855

> <r_epik_Ionization_Penalty_Charging>
0

> <r_epik_Ionization_Penalty_Neutral>
0.0126855

> <r_epik_State_Penalty>
0.00977547

> <r_epik_Charging_Adjusted_Penalty>
0.00977547

> <i_epik_Tot_Q>
0

> <i_epik_Tot_abs_Q>
0

> <r_epik_Metal_State_Penalty>
0.00957132

> <b_epik_Metal_Only>
0

> <s_lp_Force_Field>
OPLS_2005

> <r_lp_Energy>
23.179

> <b_lp_Chiralities_Consistent>
1

> <s_lp_Variant>
AV-unprocessed.smi:671-2

> <Gold.Version>
5.8.1

> <Gold.Id.Protein>
6NUR|6NUR_protein|mol2

> <Gold.PLP.Fitness>
51.5218

> <Gold.PLP.PLP>
-43.6834

> <Gold.PLP.part.hbond>
-3.0000

> <Gold.PLP.part.metal>
0.0000

> <Gold.PLP.part.buried>
-6.1485

> <Gold.PLP.part.nonpolar>
-35.8061

> <Gold.PLP.part.repulsive>
0.3022

> <Gold.PLP.ligand.clash>
0.0000

> <Gold.PLP.ligand.torsion>
0.6087

> <Gold.PLP.Chemscore.Hbond>
3.0000

> <Gold.PLP.Chemscore.CHOScore>
0.0000

> <Gold.PLP.Chemscore.Metal>
0.0000

> <Gold.Chemscore.Hbonds>
donor molecule, donor type, donor heavy atom, donor atom, acceptor molecule, acceptor atom, score
      L1  H    12    37       P1  8028  0.96
      L1  H    15    38       P1  8028  1.00
      P1  H 10752 10763       L1     3  1.00

> <Gold.PLP.Chemscore.Internal.Correction>
0.0558

> <Gold.Rescore>
     Score         DG    S(hbond)    S(metal)    S(lipo)     H(rot)  DE(clash)    DE(int)     intcor
     21.57     -24.96       2.79        0.00     118.68       1.45       0.13       3.25       ----

> <Gold.Chemscore.Fitness>
21.5741

> <Gold.Chemscore.DG>
-24.9568

> <Gold.Chemscore.ZeroCoef>
-5.4800

> <Gold.Chemscore.Hbond>
2.7854

> <Gold.Chemscore.Metal>
0.0000

> <Gold.Chemscore.Lipo>
118.6779

> <Gold.Chemscore.Internal_Hbond>
0.0000

> <Gold.Chemscore.DEClash>
0.1288

> <Gold.Chemscore.DEInternal>
3.2540

> <Gold.Chemscore.Rot>
1.4499

> <Gold.Chemscore.Internal.Correction>
   9.000000E+99

> <Gold.Chemscore.Hbonds>
donor molecule, donor type, donor heavy atom, donor atom, acceptor molecule, acceptor atom, score
      L1  H    12    37       P1  8028  0.90
      L1  H    15    38       P1  8028  0.85
      P1  H 10752 10763       L1     3  0.96

> <Gold.Chemscore.Hbond.Weighted>
-9.3033

> <Gold.Chemscore.Metal.Weighted>
-0.0000

> <Gold.Chemscore.Lipo.Weighted>
-13.8853

> <Gold.Chemscore.Internal_Hbond.Weighted>
0.0000

> <Gold.Chemscore.DEClash.Weighted>
0.1288

> <Gold.Chemscore.DEInternal.Weighted>
3.2540

> <Gold.Chemscore.Rot.Weighted>
3.7118

> <Gold.Chemscore.Internal.Correction.Weighted>
   9.000000E+99

> <Gold.Protein.RotatedTorsions>
[ 6907 6896 6895 6894 ] final   90.81 input  -60.11 | X-H torsion
[ 7974 7965 7964 7962 ] final  102.02 input  175.53 | X-H torsion
[ 8008 7997 7996 7995 ] final  -45.79 input   59.86 | X-H torsion
[ 10167 10162 10161 10158 ] final   15.18 input  -65.29 | X-H torsion
[ 10718 10713 10712 10709 ] final -135.71 input   66.30 | X-H torsion
[ 10763 10752 10751 10750 ] final   52.42 input  -60.55 | X-H torsion
[ 11005 11000 10999 10996 ] final  -26.74 input  -57.11 | X-H torsion

> <Gold.Protein.ActiveResidues>
 VAL166  LYS551  ARG553  GLY616  TRP617  ASP618  TYR619  PRO620  LYS621  CYS622 
 ASP623  PHE694  ASN695  SER759  ASP760  ASP761  ALA762  ILE779  LEU786  VAL792 
 PHE793  MET794  SER795  GLU796  ALA797  LYS798  CYS799  TRP800  GLU811  SER814 

> <Gold.Protein.RotatedAtoms>
  152.5447  134.1754  159.8613 H   0  0  0  0  0  0  0  0  0  0  0  0  # atno 6907 bound_to 6896
  151.1760  133.4747  159.2601 H   0  0  0  0  0  0  0  0  0  0  0  0  # atno 6908 bound_to 6896
  151.1226  135.0099  159.8601 H   0  0  0  0  0  0  0  0  0  0  0  0  # atno 6909 bound_to 6896
  145.3646  139.2410  143.3488 H   0  0  0  0  0  0  0  0  0  0  0  0  # atno 7974 bound_to 7965
  154.4003  140.1388  156.3906 H   0  0  0  0  0  0  0  0  0  0  0  0  # atno 8008 bound_to 7997
  155.7918  140.3478  155.5333 H   0  0  0  0  0  0  0  0  0  0  0  0  # atno 8009 bound_to 7997
  155.8571  140.0950  157.1627 H   0  0  0  0  0  0  0  0  0  0  0  0  # atno 8010 bound_to 7997
  140.5885  143.8842  150.6852 H   0  0  0  0  0  0  0  0  0  0  0  0  # atno 10167 bound_to 10162
  156.2691  130.7255  151.1216 H   0  0  0  0  0  0  0  0  0  0  0  0  # atno 10718 bound_to 10713
  152.9789  135.5813  154.4576 H   0  0  0  0  0  0  0  0  0  0  0  0  # atno 10763 bound_to 10752
  154.4156  135.2771  155.2010 H   0  0  0  0  0  0  0  0  0  0  0  0  # atno 10764 bound_to 10752
  154.3781  135.6153  153.5830 H   0  0  0  0  0  0  0  0  0  0  0  0  # atno 10765 bound_to 10752
  140.9056  133.7495  156.0602 H   0  0  0  0  0  0  0  0  0  0  0  0  # atno 11005 bound_to 11000
  146.2912  140.4286  142.8739 LP  0  0  0  0  0  0  0  0  0  0  0  0  # atno 17320 bound_to 7965
  144.8621  140.7154  143.6101 LP  0  0  0  0  0  0  0  0  0  0  0  0  # atno 17321 bound_to 7965
  140.2359  143.3700  152.1527 LP  0  0  0  0  0  0  0  0  0  0  0  0  # atno 17342 bound_to 10162
  139.5212  144.7043  151.5400 LP  0  0  0  0  0  0  0  0  0  0  0  0  # atno 17343 bound_to 10162
  157.7278  131.0637  150.5851 LP  0  0  0  0  0  0  0  0  0  0  0  0  # atno 17370 bound_to 10713
  156.5945  130.4338  149.5922 LP  0  0  0  0  0  0  0  0  0  0  0  0  # atno 17371 bound_to 10713
  140.8175  134.3328  157.5392 LP  0  0  0  0  0  0  0  0  0  0  0  0  # atno 17394 bound_to 11000
  139.8749  134.9290  156.3464 LP  0  0  0  0  0  0  0  0  0  0  0  0  # atno 17395 bound_to 11000

$$$$
