AV-unprocessed.smi:671|AV-procd|sdf|3274|dock8
  -GOLD-   22720 0233D 1   1.00000     0.00000
 Structure written by MMmdl.
 49 50  0  0  0  0  0  0  0  0  1 V2000
  152.9723  138.7849  154.6832 C   0  0  0  0  0  0  0  0  0  0  0  0
  152.1530  139.5376  155.6923 C   0  0  0  0  0  0  0  0  0  0  0  0
  152.6979  139.8738  156.8496 N   0  0  0  0  0  0  0  0  0  0  0  0
  151.7168  140.5102  157.5203 N   0  0  0  0  0  0  0  0  0  0  0  0
  151.9776  141.0114  158.8557 C   0  0  0  0  0  0  0  0  0  0  0  0
  150.5523  140.5843  156.7813 C   0  0  0  0  0  0  0  0  0  0  0  0
  149.3146  141.2392  157.3040 C   0  0  0  0  0  0  0  0  0  0  0  0
  150.7954  139.9604  155.5871 C   0  0  0  0  0  0  0  0  0  0  0  0
  149.8506  139.7449  154.4302 C   0  0  0  0  0  0  0  0  0  0  0  0
  148.5849  138.9680  154.8422 C   0  0  1  0  0  0  0  0  0  0  0  0
  147.3067  139.6204  154.2946 C   0  0  0  0  0  0  0  0  0  0  0  0
  148.6755  137.5754  154.3901 N   0  0  0  0  0  0  0  0  0  0  0  0
  148.6882  136.4520  155.1293 C   0  0  0  0  0  0  0  0  0  0  0  0
  148.6333  136.4832  156.3571 O   0  0  0  0  0  0  0  0  0  0  0  0
  148.7807  135.3147  154.4213 N   0  0  0  0  0  0  0  0  0  0  0  0
  148.7838  133.9686  154.9846 C   0  0  2  0  0  0  0  0  0  0  0  0
  149.7850  133.8392  156.1518 C   0  0  0  0  0  0  0  0  0  0  0  0
  150.8470  132.8348  155.6994 C   0  0  0  0  0  0  0  0  0  0  0  0
  150.1321  131.9606  154.6743 C   0  0  0  0  0  0  0  0  0  0  0  0
  149.2245  132.9386  153.9247 C   0  0  1  0  0  0  0  0  0  0  0  0
  148.0576  132.2631  153.1920 C   0  0  0  0  0  0  0  0  0  0  0  0
  152.4303  137.9146  154.3124 H   0  0  0  0  0  0  0  0  0  0  0  0
  153.9116  138.4292  155.1087 H   0  0  0  0  0  0  0  0  0  0  0  0
  153.2128  139.4164  153.8279 H   0  0  0  0  0  0  0  0  0  0  0  0
  151.2117  140.6462  159.5405 H   0  0  0  0  0  0  0  0  0  0  0  0
  151.9594  142.1013  158.8474 H   0  0  0  0  0  0  0  0  0  0  0  0
  152.9540  140.6767  159.2095 H   0  0  0  0  0  0  0  0  0  0  0  0
  148.5976  141.4222  156.5037 H   0  0  0  0  0  0  0  0  0  0  0  0
  149.5445  142.1988  157.7676 H   0  0  0  0  0  0  0  0  0  0  0  0
  148.8309  140.6081  158.0498 H   0  0  0  0  0  0  0  0  0  0  0  0
  149.5570  140.7016  153.9972 H   0  0  0  0  0  0  0  0  0  0  0  0
  150.3526  139.2078  153.6245 H   0  0  0  0  0  0  0  0  0  0  0  0
  148.5408  138.9985  155.9318 H   0  0  0  0  0  0  0  0  0  0  0  0
  147.2205  140.6543  154.6296 H   0  0  0  0  0  0  0  0  0  0  0  0
  146.4166  139.0902  154.6347 H   0  0  0  0  0  0  0  0  0  0  0  0
  147.2970  139.6219  153.2040 H   0  0  0  0  0  0  0  0  0  0  0  0
  148.7968  137.4516  153.3953 H   0  0  0  0  0  0  0  0  0  0  0  0
  148.8330  135.3868  153.4159 H   0  0  0  0  0  0  0  0  0  0  0  0
  147.7839  133.7209  155.3472 H   0  0  0  0  0  0  0  0  0  0  0  0
  150.2348  134.7893  156.4438 H   0  0  0  0  0  0  0  0  0  0  0  0
  149.2652  133.4512  157.0287 H   0  0  0  0  0  0  0  0  0  0  0  0
  151.6705  133.3636  155.2177 H   0  0  0  0  0  0  0  0  0  0  0  0
  151.2600  132.2586  156.5276 H   0  0  0  0  0  0  0  0  0  0  0  0
  150.8253  131.4406  154.0127 H   0  0  0  0  0  0  0  0  0  0  0  0
  149.5332  131.2084  155.1898 H   0  0  0  0  0  0  0  0  0  0  0  0
  149.8467  133.4414  153.1816 H   0  0  0  0  0  0  0  0  0  0  0  0
  147.4047  131.7338  153.8865 H   0  0  0  0  0  0  0  0  0  0  0  0
  148.4219  131.5420  152.4601 H   0  0  0  0  0  0  0  0  0  0  0  0
  147.4530  132.9989  152.6608 H   0  0  0  0  0  0  0  0  0  0  0  0
  1  2  1  0  0  0  0
  1 22  1  0  0  0  0
  1 23  1  0  0  0  0
  1 24  1  0  0  0  0
  2  8  1  0  0  0  0
  2  3  2  0  0  0  0
  3  4  1  0  0  0  0
  4  5  1  0  0  0  0
  4  6  1  0  0  0  0
  5 25  1  0  0  0  0
  5 26  1  0  0  0  0
  5 27  1  0  0  0  0
  6  7  1  0  0  0  0
  6  8  2  0  0  0  0
  7 28  1  0  0  0  0
  7 29  1  0  0  0  0
  7 30  1  0  0  0  0
  8  9  1  0  0  0  0
  9 10  1  0  0  0  0
  9 31  1  0  0  0  0
  9 32  1  0  0  0  0
 10 11  1  0  0  0  0
 10 12  1  0  0  0  0
 10 33  1  0  0  0  0
 11 34  1  0  0  0  0
 11 35  1  0  0  0  0
 11 36  1  0  0  0  0
 12 13  1  0  0  0  0
 12 37  1  0  0  0  0
 13 14  2  0  0  0  0
 13 15  1  0  0  0  0
 15 16  1  0  0  0  0
 15 38  1  0  0  0  0
 16 20  1  0  0  0  0
 16 17  1  0  0  0  0
 16 39  1  0  0  0  0
 17 18  1  0  0  0  0
 17 40  1  0  0  0  0
 17 41  1  0  0  0  0
 18 19  1  0  0  0  0
 18 42  1  0  0  0  0
 18 43  1  0  0  0  0
 19 20  1  0  0  0  0
 19 44  1  0  0  0  0
 19 45  1  0  0  0  0
 20 21  1  0  0  0  0
 20 46  1  0  0  0  0
 21 47  1  0  0  0  0
 21 48  1  0  0  0  0
 21 49  1  0  0  0  0
M  END
> <s_m_source_file>
AV-unprocessed.smi

> <i_m_source_file_index>
671

> <i_lp_mmshare_version>
43012

> <i_f3d_flags>
0

> <s_epik_input>
W0NIM11jMW5uKFtDSDNdKWMoW0NIM10pYzFbQ0gyXVtDQEhdKFtDSDNdKVtOSF1DKD1PKVtOSF1bQ0BASF0yW0NIMl1bQ0gyXVtDSDJdW0NASF0yW0NIM10=

> <s_epik_cmdline>
J2VwaWtfcHl0aG9uJywgJy1waCcsICc3LjAnLCAnLXRuJywgJzgnLCAnLW1hJywgJzIwMCcsICctbWV0YWxfYmluZGluZycsICctaW1hZScsICc8aW5maWxlLm1hZT4nLCAnLW9tYWUnLCAnPG91dGZpbGUubWFlPic=

> <r_lp_tautomer_probability>
1

> <r_epik_Ionization_Penalty>
0.0126855

> <r_epik_Ionization_Penalty_Charging>
0

> <r_epik_Ionization_Penalty_Neutral>
0.0126855

> <r_epik_State_Penalty>
0.00977547

> <r_epik_Charging_Adjusted_Penalty>
0.00977547

> <i_epik_Tot_Q>
0

> <i_epik_Tot_abs_Q>
0

> <r_epik_Metal_State_Penalty>
0.00957132

> <b_epik_Metal_Only>
0

> <s_lp_Force_Field>
OPLS_2005

> <r_lp_Energy>
23.179

> <b_lp_Chiralities_Consistent>
1

> <s_lp_Variant>
AV-unprocessed.smi:671-2

> <Gold.Version>
5.8.1

> <Gold.Id.Protein>
6NUR|6NUR_protein|mol2

> <Gold.PLP.Fitness>
43.3448

> <Gold.PLP.PLP>
-35.8820

> <Gold.PLP.part.hbond>
-3.0000

> <Gold.PLP.part.metal>
0.0000

> <Gold.PLP.part.buried>
-2.2583

> <Gold.PLP.part.nonpolar>
-30.2542

> <Gold.PLP.part.repulsive>
0.0252

> <Gold.PLP.ligand.clash>
0.0000

> <Gold.PLP.ligand.torsion>
0.7736

> <Gold.PLP.Chemscore.Hbond>
2.9920

> <Gold.PLP.Chemscore.CHOScore>
0.0000

> <Gold.PLP.Chemscore.Metal>
0.0000

> <Gold.Chemscore.Hbonds>
donor molecule, donor type, donor heavy atom, donor atom, acceptor molecule, acceptor atom, score
      L1  H    12    37       P1  7948  0.99
      L1  H    15    38       P1  7948  1.00
      P1  H  7997  8010       L1     3  1.00

> <Gold.PLP.Chemscore.Internal.Correction>
0.0341

> <Gold.Rescore>
     Score         DG    S(hbond)    S(metal)    S(lipo)     H(rot)  DE(clash)    DE(int)     intcor
     19.09     -21.13       2.78        0.00      86.02       1.45       0.00       2.03       ----

> <Gold.Chemscore.Fitness>
19.0900

> <Gold.Chemscore.DG>
-21.1270

> <Gold.Chemscore.ZeroCoef>
-5.4800

> <Gold.Chemscore.Hbond>
2.7830

> <Gold.Chemscore.Metal>
0.0000

> <Gold.Chemscore.Lipo>
86.0154

> <Gold.Chemscore.Internal_Hbond>
0.0000

> <Gold.Chemscore.DEClash>
0.0048

> <Gold.Chemscore.DEInternal>
2.0323

> <Gold.Chemscore.Rot>
1.4499

> <Gold.Chemscore.Internal.Correction>
   9.000000E+99

> <Gold.Chemscore.Hbonds>
donor molecule, donor type, donor heavy atom, donor atom, acceptor molecule, acceptor atom, score
      L1  H    12    37       P1  7948  0.92
      L1  H    15    38       P1  7948  0.78
      P1  H  7997  8010       L1     3  0.25

> <Gold.Chemscore.Hbond.Weighted>
-9.2951

> <Gold.Chemscore.Metal.Weighted>
-0.0000

> <Gold.Chemscore.Lipo.Weighted>
-10.0638

> <Gold.Chemscore.Internal_Hbond.Weighted>
0.0000

> <Gold.Chemscore.DEClash.Weighted>
0.0048

> <Gold.Chemscore.DEInternal.Weighted>
2.0323

> <Gold.Chemscore.Rot.Weighted>
3.7118

> <Gold.Chemscore.Internal.Correction.Weighted>
   9.000000E+99

> <Gold.Protein.RotatedTorsions>
[ 6907 6896 6895 6894 ] final   84.89 input  -60.11 | X-H torsion
[ 7974 7965 7964 7962 ] final -141.18 input  175.53 | X-H torsion
[ 8008 7997 7996 7995 ] final   77.27 input   59.86 | X-H torsion
[ 10167 10162 10161 10158 ] final  -31.31 input  -65.29 | X-H torsion
[ 10718 10713 10712 10709 ] final  139.79 input   66.30 | X-H torsion
[ 10763 10752 10751 10750 ] final  -38.73 input  -60.55 | X-H torsion
[ 11005 11000 10999 10996 ] final  -65.04 input  -57.11 | X-H torsion

> <Gold.Protein.ActiveResidues>
 VAL166  LYS551  ARG553  GLY616  TRP617  ASP618  TYR619  PRO620  LYS621  CYS622 
 ASP623  PHE694  ASN695  SER759  ASP760  ASP761  ALA762  ILE779  LEU786  VAL792 
 PHE793  MET794  SER795  GLU796  ALA797  LYS798  CYS799  TRP800  GLU811  SER814 

> <Gold.Protein.RotatedAtoms>
  152.5363  134.2671  159.8956 H   0  0  0  0  0  0  0  0  0  0  0  0  # atno 6907 bound_to 6896
  151.2628  133.4287  159.2624 H   0  0  0  0  0  0  0  0  0  0  0  0  # atno 6908 bound_to 6896
  151.0437  134.9639  159.8231 H   0  0  0  0  0  0  0  0  0  0  0  0  # atno 6909 bound_to 6896
  144.8539  140.6110  143.5372 H   0  0  0  0  0  0  0  0  0  0  0  0  # atno 7974 bound_to 7965
  155.8392  140.3463  155.5621 H   0  0  0  0  0  0  0  0  0  0  0  0  # atno 8008 bound_to 7997
  155.8158  140.0905  157.1897 H   0  0  0  0  0  0  0  0  0  0  0  0  # atno 8009 bound_to 7997
  154.4005  140.1439  156.3429 H   0  0  0  0  0  0  0  0  0  0  0  0  # atno 8010 bound_to 7997
  140.7238  143.3780  151.1653 H   0  0  0  0  0  0  0  0  0  0  0  0  # atno 10167 bound_to 10162
  157.4105  131.1027  151.0459 H   0  0  0  0  0  0  0  0  0  0  0  0  # atno 10718 bound_to 10713
  153.9177  135.6785  153.4748 H   0  0  0  0  0  0  0  0  0  0  0  0  # atno 10763 bound_to 10752
  153.1045  135.4812  154.8923 H   0  0  0  0  0  0  0  0  0  0  0  0  # atno 10764 bound_to 10752
  154.7494  135.3181  154.8541 H   0  0  0  0  0  0  0  0  0  0  0  0  # atno 10765 bound_to 10752
  141.1443  133.6675  156.5925 H   0  0  0  0  0  0  0  0  0  0  0  0  # atno 11005 bound_to 11000
  145.4445  139.1531  143.3952 LP  0  0  0  0  0  0  0  0  0  0  0  0  # atno 17320 bound_to 7965
  146.2807  140.4568  142.8777 LP  0  0  0  0  0  0  0  0  0  0  0  0  # atno 17321 bound_to 7965
  139.7364  143.8992  152.3036 LP  0  0  0  0  0  0  0  0  0  0  0  0  # atno 17342 bound_to 10162
  139.8798  144.7023  150.8890 LP  0  0  0  0  0  0  0  0  0  0  0  0  # atno 17343 bound_to 10162
  157.1425  130.6149  149.5559 LP  0  0  0  0  0  0  0  0  0  0  0  0  # atno 17370 bound_to 10713
  155.9849  130.4876  150.7006 LP  0  0  0  0  0  0  0  0  0  0  0  0  # atno 17371 bound_to 10713
  140.3752  134.7571  157.4625 LP  0  0  0  0  0  0  0  0  0  0  0  0  # atno 17394 bound_to 11000
  140.0680  134.5902  155.8674 LP  0  0  0  0  0  0  0  0  0  0  0  0  # atno 17395 bound_to 11000

$$$$
