AV-unprocessed.smi:2474|AV-procd|sdf|9753|dock6
  -GOLD-   2272013393D 1   1.00000     0.00000
 Structure written by MMmdl.
 40 41  0  0  0  0  0  0  0  0  1 V2000
  145.4335  135.6091  151.2750 C   0  0  0  0  0  0  0  0  0  0  0  0
  145.9263  136.9523  151.6941 C   0  0  0  0  0  0  0  0  0  0  0  0
  146.2409  138.0205  150.8910 C   0  0  0  0  0  0  0  0  0  0  0  0
  146.6827  139.1439  151.5931 N   0  0  0  0  0  0  0  0  0  0  0  0
  146.6995  138.9467  152.9145 C   0  0  0  0  0  0  0  0  0  0  0  0
  147.1500  139.9765  153.9061 C   0  0  2  0  0  0  0  0  0  0  0  0
  146.7879  141.4023  153.4669 C   0  0  0  0  0  0  0  0  0  0  0  0
  148.6355  139.8284  154.3070 C   0  0  0  0  0  0  0  0  0  0  0  0
  148.9866  140.5936  155.5006 N   0  0  0  0  0  0  0  0  0  0  0  0
  150.2352  140.8798  155.8929 C   0  0  0  0  0  0  0  0  0  0  0  0
  151.2476  140.4960  155.3072 O   0  0  0  0  0  0  0  0  0  0  0  0
  150.2456  141.6540  156.9866 N   0  0  0  0  0  0  0  0  0  0  0  0
  151.4428  142.1863  157.6303 C   0  0  1  0  0  0  0  0  0  0  0  0
  151.3462  143.7225  157.7393 C   0  0  0  0  0  0  0  0  0  0  0  0
  152.6025  144.3505  158.3641 C   0  0  0  0  0  0  0  0  0  0  0  0
  152.8619  143.8480  159.7912 C   0  0  0  0  0  0  0  0  0  0  0  0
  153.1494  142.0578  159.8151 S   0  0  0  0  0  0  0  0  0  0  0  0
  151.6135  141.5261  159.0093 C   0  0  0  0  0  0  0  0  0  0  0  0
  146.1722  137.3322  153.3781 S   0  0  0  0  0  0  0  0  0  0  0  0
  145.3286  135.5490  150.1915 H   0  0  0  0  0  0  0  0  0  0  0  0
  144.4604  135.3992  151.7193 H   0  0  0  0  0  0  0  0  0  0  0  0
  146.1256  134.8281  151.5901 H   0  0  0  0  0  0  0  0  0  0  0  0
  146.1828  138.0676  149.8136 H   0  0  0  0  0  0  0  0  0  0  0  0
  146.5672  139.7923  154.8093 H   0  0  0  0  0  0  0  0  0  0  0  0
  145.7150  141.5007  153.2998 H   0  0  0  0  0  0  0  0  0  0  0  0
  147.2958  141.6731  152.5407 H   0  0  0  0  0  0  0  0  0  0  0  0
  147.0722  142.1312  154.2265 H   0  0  0  0  0  0  0  0  0  0  0  0
  148.8496  138.7818  154.5254 H   0  0  0  0  0  0  0  0  0  0  0  0
  149.2872  140.1091  153.4782 H   0  0  0  0  0  0  0  0  0  0  0  0
  148.2201  140.9570  156.0481 H   0  0  0  0  0  0  0  0  0  0  0  0
  149.3587  141.9147  157.3921 H   0  0  0  0  0  0  0  0  0  0  0  0
  152.3126  141.9281  157.0226 H   0  0  0  0  0  0  0  0  0  0  0  0
  151.1962  144.1526  156.7481 H   0  0  0  0  0  0  0  0  0  0  0  0
  150.4686  143.9987  158.3255 H   0  0  0  0  0  0  0  0  0  0  0  0
  153.4701  144.1427  157.7365 H   0  0  0  0  0  0  0  0  0  0  0  0
  152.4906  145.4350  158.3810 H   0  0  0  0  0  0  0  0  0  0  0  0
  153.7336  144.3472  160.2144 H   0  0  0  0  0  0  0  0  0  0  0  0
  152.0146  144.0809  160.4373 H   0  0  0  0  0  0  0  0  0  0  0  0
  150.7719  141.7692  159.6590 H   0  0  0  0  0  0  0  0  0  0  0  0
  151.6389  140.4404  158.9109 H   0  0  0  0  0  0  0  0  0  0  0  0
  1  2  1  0  0  0  0
  1 20  1  0  0  0  0
  1 21  1  0  0  0  0
  1 22  1  0  0  0  0
  2 19  1  0  0  0  0
  2  3  2  0  0  0  0
  3  4  1  0  0  0  0
  3 23  1  0  0  0  0
  4  5  2  0  0  0  0
  5  6  1  0  0  0  0
  5 19  1  0  0  0  0
  6  7  1  0  0  0  0
  6  8  1  0  0  0  0
  6 24  1  0  0  0  0
  7 25  1  0  0  0  0
  7 26  1  0  0  0  0
  7 27  1  0  0  0  0
  8  9  1  0  0  0  0
  8 28  1  0  0  0  0
  8 29  1  0  0  0  0
  9 10  1  0  0  0  0
  9 30  1  0  0  0  0
 10 11  2  0  0  0  0
 10 12  1  0  0  0  0
 12 13  1  0  0  0  0
 12 31  1  0  0  0  0
 13 18  1  0  0  0  0
 13 14  1  0  0  0  0
 13 32  1  0  0  0  0
 14 15  1  0  0  0  0
 14 33  1  0  0  0  0
 14 34  1  0  0  0  0
 15 16  1  0  0  0  0
 15 35  1  0  0  0  0
 15 36  1  0  0  0  0
 16 17  1  0  0  0  0
 16 37  1  0  0  0  0
 16 38  1  0  0  0  0
 17 18  1  0  0  0  0
 18 39  1  0  0  0  0
 18 40  1  0  0  0  0
M  END
> <s_m_source_file>
AV-unprocessed.smi

> <i_m_source_file_index>
2474

> <i_lp_mmshare_version>
43012

> <i_f3d_flags>
0

> <s_epik_input>
W0NIM11jMVtjSF1uYyhzMSlbQ0BIXShbQ0gzXSlbQ0gyXVtOSF1DKD1PKVtOSF1bQ0BASF0yW0NIMl1bQ0gyXVtDSDJdU1tDSDJdMg==

> <s_epik_cmdline>
J2VwaWtfcHl0aG9uJywgJy1waCcsICc3LjAnLCAnLXRuJywgJzgnLCAnLW1hJywgJzIwMCcsICctbWV0YWxfYmluZGluZycsICctaW1hZScsICc8aW5maWxlLm1hZT4nLCAnLW9tYWUnLCAnPG91dGZpbGUubWFlPic=

> <r_epik_Ionization_Penalty>
0.000644338

> <r_epik_Ionization_Penalty_Charging>
0

> <r_epik_Ionization_Penalty_Neutral>
0.000644338

> <r_epik_State_Penalty>
0.000374131

> <r_epik_Charging_Adjusted_Penalty>
0.000374131

> <i_epik_Tot_Q>
0

> <i_epik_Tot_abs_Q>
0

> <r_epik_Metal_State_Penalty>
-0

> <b_epik_Metal_Only>
0

> <s_lp_Force_Field>
OPLS_2005

> <r_lp_Energy>
-6.48006

> <b_lp_Chiralities_Consistent>
1

> <s_lp_Variant>
AV-unprocessed.smi:2474-3

> <Gold.Version>
5.8.1

> <Gold.Id.Protein>
6NUR|6NUR_protein|mol2

> <Gold.PLP.Fitness>
39.7522

> <Gold.PLP.PLP>
-37.7579

> <Gold.PLP.part.hbond>
-1.0000

> <Gold.PLP.part.metal>
0.0000

> <Gold.PLP.part.buried>
-0.4332

> <Gold.PLP.part.nonpolar>
-38.2443

> <Gold.PLP.part.repulsive>
0.9852

> <Gold.PLP.ligand.clash>
0.0000

> <Gold.PLP.ligand.torsion>
0.9004

> <Gold.PLP.Chemscore.Hbond>
0.9280

> <Gold.PLP.Chemscore.CHOScore>
0.2964

> <Gold.PLP.Chemscore.Metal>
0.0000

> <Gold.Chemscore.Hbonds>
donor molecule, donor type, donor heavy atom, donor atom, acceptor molecule, acceptor atom, score
      P1  H  7989  7998       L1    11  0.91
      L1  C     3    23       P1 10171  0.30

> <Gold.PLP.Chemscore.Internal.Correction>
0.1219

> <Gold.Rescore>
     Score         DG    S(hbond)    S(metal)    S(lipo)     H(rot)  DE(clash)    DE(int)     intcor
     16.59     -18.84       0.94        0.00     119.33       1.46       1.49       0.76       ----

> <Gold.Chemscore.Fitness>
16.5890

> <Gold.Chemscore.DG>
-18.8427

> <Gold.Chemscore.ZeroCoef>
-5.4800

> <Gold.Chemscore.Hbond>
0.9408

> <Gold.Chemscore.Metal>
0.0000

> <Gold.Chemscore.Lipo>
119.3341

> <Gold.Chemscore.Internal_Hbond>
0.0000

> <Gold.Chemscore.DEClash>
1.4938

> <Gold.Chemscore.DEInternal>
0.7599

> <Gold.Chemscore.Rot>
1.4616

> <Gold.Chemscore.Internal.Correction>
   9.000000E+99

> <Gold.Chemscore.Hbonds>
donor molecule, donor type, donor heavy atom, donor atom, acceptor molecule, acceptor atom, score
      P1  H  7989  7998       L1    11  0.89

> <Gold.Chemscore.Hbond.Weighted>
-3.1422

> <Gold.Chemscore.Metal.Weighted>
-0.0000

> <Gold.Chemscore.Lipo.Weighted>
-13.9621

> <Gold.Chemscore.Internal_Hbond.Weighted>
0.0000

> <Gold.Chemscore.DEClash.Weighted>
1.4938

> <Gold.Chemscore.DEInternal.Weighted>
0.7599

> <Gold.Chemscore.Rot.Weighted>
3.7416

> <Gold.Chemscore.Internal.Correction.Weighted>
   9.000000E+99

> <Gold.Protein.RotatedTorsions>
[ 6907 6896 6895 6894 ] final   86.94 input  -60.11 | X-H torsion
[ 7974 7965 7964 7962 ] final  -93.54 input  175.53 | X-H torsion
[ 8008 7997 7996 7995 ] final  -89.93 input   59.86 | X-H torsion
[ 10167 10162 10161 10158 ] final -106.95 input  -65.29 | X-H torsion
[ 10718 10713 10712 10709 ] final -121.10 input   66.30 | X-H torsion
[ 10763 10752 10751 10750 ] final  -87.55 input  -60.55 | X-H torsion
[ 11005 11000 10999 10996 ] final  -10.44 input  -57.11 | X-H torsion

> <Gold.Protein.ActiveResidues>
 VAL166  LYS551  ARG553  GLY616  TRP617  ASP618  TYR619  PRO620  LYS621  CYS622 
 ASP623  PHE694  ASN695  SER759  ASP760  ASP761  ALA762  ILE779  LEU786  VAL792 
 PHE793  MET794  SER795  GLU796  ALA797  LYS798  CYS799  TRP800  GLU811  SER814 

> <Gold.Protein.RotatedAtoms>
  152.5403  134.2354  159.8840 H   0  0  0  0  0  0  0  0  0  0  0  0  # atno 6907 bound_to 6896
  151.2324  133.4436  159.2612 H   0  0  0  0  0  0  0  0  0  0  0  0  # atno 6908 bound_to 6896
  151.0703  134.9807  159.8361 H   0  0  0  0  0  0  0  0  0  0  0  0  # atno 6909 bound_to 6896
  145.3852  140.9522  143.2371 H   0  0  0  0  0  0  0  0  0  0  0  0  # atno 7974 bound_to 7965
  154.6925  140.0536  157.0377 H   0  0  0  0  0  0  0  0  0  0  0  0  # atno 8008 bound_to 7997
  155.0797  140.3208  155.4586 H   0  0  0  0  0  0  0  0  0  0  0  0  # atno 8009 bound_to 7997
  156.2733  140.2067  156.5925 H   0  0  0  0  0  0  0  0  0  0  0  0  # atno 8010 bound_to 7997
  140.1823  143.3957  152.1272 H   0  0  0  0  0  0  0  0  0  0  0  0  # atno 10167 bound_to 10162
  156.1311  130.6396  150.9622 H   0  0  0  0  0  0  0  0  0  0  0  0  # atno 10718 bound_to 10713
  154.6348  135.5409  153.7722 H   0  0  0  0  0  0  0  0  0  0  0  0  # atno 10763 bound_to 10752
  153.0303  135.6445  154.1247 H   0  0  0  0  0  0  0  0  0  0  0  0  # atno 10764 bound_to 10752
  154.1175  135.2922  155.3196 H   0  0  0  0  0  0  0  0  0  0  0  0  # atno 10765 bound_to 10752
  140.7448  133.8640  155.8997 H   0  0  0  0  0  0  0  0  0  0  0  0  # atno 11005 bound_to 11000
  144.8479  139.5367  143.6870 LP  0  0  0  0  0  0  0  0  0  0  0  0  # atno 17320 bound_to 7965
  146.2824  139.6912  142.9220 LP  0  0  0  0  0  0  0  0  0  0  0  0  # atno 17321 bound_to 7965
  139.5291  144.7138  151.5121 LP  0  0  0  0  0  0  0  0  0  0  0  0  # atno 17342 bound_to 10162
  140.6512  143.8693  150.6787 LP  0  0  0  0  0  0  0  0  0  0  0  0  # atno 17343 bound_to 10162
  157.6488  131.0900  150.8095 LP  0  0  0  0  0  0  0  0  0  0  0  0  # atno 17370 bound_to 10713
  156.8180  130.4974  149.5347 LP  0  0  0  0  0  0  0  0  0  0  0  0  # atno 17371 bound_to 10713
  140.9804  134.1413  157.4499 LP  0  0  0  0  0  0  0  0  0  0  0  0  # atno 17394 bound_to 11000
  139.8799  135.0008  156.6034 LP  0  0  0  0  0  0  0  0  0  0  0  0  # atno 17395 bound_to 11000

$$$$
