AV-unprocessed.smi:784|AV-procd|sdf|3719|dock7
  -GOLD-   22720 1143D 1   1.00000     0.00000
 Structure written by MMmdl.
 37 38  0  0  0  0  0  0  0  0  2 V2000
  147.6031  141.1526  153.7895 C   0  0  0  0  0  0  0  0  0  0  0  0
  148.8921  140.6844  154.3975 C   0  0  0  0  0  0  0  0  0  0  0  0
  149.3264  139.3509  154.6278 C   0  0  0  0  0  0  0  0  0  0  0  0
  150.5548  139.5060  155.2056 C   0  0  0  0  0  0  0  0  0  0  0  0
  151.5738  138.5361  155.7076 C   0  0  0  0  0  0  0  0  0  0  0  0
  151.8534  138.7718  157.5167 S   0  0  0  0  0  0  0  0  0  0  0  0
  150.5141  138.8264  158.1247 O   0  0  0  0  0  0  0  0  0  0  0  0
  152.7426  137.6801  157.9483 O   0  0  0  0  0  0  0  0  0  0  0  0
  152.5831  140.2218  157.5243 N   0  5  0  0  0  0  0  0  0  0  0  0
  152.1462  141.2447  158.4644 C   0  0  0  0  0  0  0  0  0  0  0  0
  151.5978  142.4455  157.6561 C   0  0  0  0  0  0  0  0  0  0  0  0
  150.9328  143.5817  158.4648 C   0  0  0  0  0  0  0  0  0  0  0  0
  151.8337  144.3055  159.4875 C   0  0  0  0  0  0  0  0  0  0  0  0
  152.0193  143.4980  160.7828 C   0  0  0  0  0  0  0  0  0  0  0  0
  153.0238  142.3230  160.7178 C   0  0  0  0  0  0  0  0  0  0  0  0
  153.3443  141.6748  159.3476 C   0  0  0  0  0  0  0  0  0  0  0  0
  150.8562  140.8261  155.3152 O   0  0  0  0  0  0  0  0  0  0  0  0
  149.7897  141.5698  154.7973 N   0  0  0  0  0  0  0  0  0  0  0  0
  147.1095  140.3465  153.2466 H   0  0  0  0  0  0  0  0  0  0  0  0
  147.7693  141.9704  153.0877 H   0  0  0  0  0  0  0  0  0  0  0  0
  146.9152  141.5054  154.5581 H   0  0  0  0  0  0  0  0  0  0  0  0
  148.8156  138.4239  154.4136 H   0  0  0  0  0  0  0  0  0  0  0  0
  151.2699  137.5058  155.5255 H   0  0  0  0  0  0  0  0  0  0  0  0
  152.5253  138.6970  155.2011 H   0  0  0  0  0  0  0  0  0  0  0  0
  151.3493  140.8702  159.1084 H   0  0  0  0  0  0  0  0  0  0  0  0
  152.3974  142.8697  157.0470 H   0  0  0  0  0  0  0  0  0  0  0  0
  150.8559  142.0779  156.9454 H   0  0  0  0  0  0  0  0  0  0  0  0
  150.5844  144.3255  157.7474 H   0  0  0  0  0  0  0  0  0  0  0  0
  150.0279  143.2193  158.9563 H   0  0  0  0  0  0  0  0  0  0  0  0
  152.7956  144.5727  159.0483 H   0  0  0  0  0  0  0  0  0  0  0  0
  151.3518  145.2484  159.7477 H   0  0  0  0  0  0  0  0  0  0  0  0
  152.3344  144.1721  161.5800 H   0  0  0  0  0  0  0  0  0  0  0  0
  151.0475  143.1188  161.1015 H   0  0  0  0  0  0  0  0  0  0  0  0
  153.9714  142.6734  161.1285 H   0  0  0  0  0  0  0  0  0  0  0  0
  152.6900  141.5503  161.4124 H   0  0  0  0  0  0  0  0  0  0  0  0
  153.9680  140.8054  159.5615 H   0  0  0  0  0  0  0  0  0  0  0  0
  153.9897  142.3431  158.7759 H   0  0  0  0  0  0  0  0  0  0  0  0
  1  2  1  0  0  0  0
  1 19  1  0  0  0  0
  1 20  1  0  0  0  0
  1 21  1  0  0  0  0
  2 18  2  0  0  0  0
  2  3  1  0  0  0  0
  3  4  2  0  0  0  0
  3 22  1  0  0  0  0
  4  5  1  0  0  0  0
  4 17  1  0  0  0  0
  5  6  1  0  0  0  0
  5 23  1  0  0  0  0
  5 24  1  0  0  0  0
  6  7  2  0  0  0  0
  6  8  2  0  0  0  0
  6  9  1  0  0  0  0
  9 10  1  0  0  0  0
 10 16  1  0  0  0  0
 10 11  1  0  0  0  0
 10 25  1  0  0  0  0
 11 12  1  0  0  0  0
 11 26  1  0  0  0  0
 11 27  1  0  0  0  0
 12 13  1  0  0  0  0
 12 28  1  0  0  0  0
 12 29  1  0  0  0  0
 13 14  1  0  0  0  0
 13 30  1  0  0  0  0
 13 31  1  0  0  0  0
 14 15  1  0  0  0  0
 14 32  1  0  0  0  0
 14 33  1  0  0  0  0
 15 16  1  0  0  0  0
 15 34  1  0  0  0  0
 15 35  1  0  0  0  0
 16 36  1  0  0  0  0
 16 37  1  0  0  0  0
 17 18  1  0  0  0  0
M  CHG  1   9  -1
M  END
> <s_m_source_file>
AV-unprocessed.smi

> <i_m_source_file_index>
784

> <i_lp_mmshare_version>
43012

> <i_f3d_flags>
0

> <s_epik_input>
W0NIM11jMVtjSF1jKG9uMSlbQ0gyXVMoPU8pKD1PKVtOSF1bQ0hdMltDSDJdW0NIMl1bQ0gyXVtDSDJdW0NIMl1bQ0gyXTI=

> <s_epik_cmdline>
J2VwaWtfcHl0aG9uJywgJy1waCcsICc3LjAnLCAnLXRuJywgJzgnLCAnLW1hJywgJzIwMCcsICctbWV0YWxfYmluZGluZycsICctaW1hZScsICc8aW5maWxlLm1hZT4nLCAnLW9tYWUnLCAnPG91dGZpbGUubWFlPic=

> <r_lp_tautomer_probability>
1

> <r_epik_Ionization_Penalty>
5.56674

> <r_epik_Ionization_Penalty_Charging>
5.56674

> <r_epik_Ionization_Penalty_Neutral>
9.19761e-10

> <r_epik_State_Penalty>
5.56669

> <r_epik_Charging_Adjusted_Penalty>
11.1334

> <i_epik_Tot_Q>
-1

> <i_epik_Tot_abs_Q>
1

> <r_epik_Metal_State_Penalty>
1.56499

> <b_epik_Metal_Only>
1

> <s_lp_Force_Field>
OPLS_2005

> <r_lp_Energy>
11.8728

> <b_lp_Chiralities_Consistent>
1

> <s_lp_Variant>
AV-unprocessed.smi:784-2

> <Gold.Version>
5.8.1

> <Gold.Id.Protein>
6NUR|6NUR_protein|mol2

> <Gold.PLP.Fitness>
42.2575

> <Gold.PLP.PLP>
-36.1013

> <Gold.PLP.part.hbond>
-3.3333

> <Gold.PLP.part.metal>
0.0000

> <Gold.PLP.part.buried>
-3.4166

> <Gold.PLP.part.nonpolar>
-29.3263

> <Gold.PLP.part.repulsive>
0.2223

> <Gold.PLP.ligand.clash>
0.0000

> <Gold.PLP.ligand.torsion>
0.6908

> <Gold.PLP.Chemscore.Hbond>
2.1820

> <Gold.PLP.Chemscore.CHOScore>
0.0000

> <Gold.PLP.Chemscore.Metal>
0.0000

> <Gold.Chemscore.Hbonds>
donor molecule, donor type, donor heavy atom, donor atom, acceptor molecule, acceptor atom, score
      P1  H  7989  7998       L1    17  0.18
      P1  H  7997  8010       L1     9  2.00

> <Gold.PLP.Chemscore.Internal.Correction>
0.9918

> <Gold.Rescore>
     Score         DG    S(hbond)    S(metal)    S(lipo)     H(rot)  DE(clash)    DE(int)     intcor
     15.22     -17.32       0.90        0.00     104.95       1.34       0.13       1.97       ----

> <Gold.Chemscore.Fitness>
15.2238

> <Gold.Chemscore.DG>
-17.3243

> <Gold.Chemscore.ZeroCoef>
-5.4800

> <Gold.Chemscore.Hbond>
0.8972

> <Gold.Chemscore.Metal>
0.0000

> <Gold.Chemscore.Lipo>
104.9530

> <Gold.Chemscore.Internal_Hbond>
0.0000

> <Gold.Chemscore.DEClash>
0.1335

> <Gold.Chemscore.DEInternal>
1.9670

> <Gold.Chemscore.Rot>
1.3405

> <Gold.Chemscore.Internal.Correction>
   9.000000E+99

> <Gold.Chemscore.Hbonds>
donor molecule, donor type, donor heavy atom, donor atom, acceptor molecule, acceptor atom, score
      P1  H  7997  8010       L1     9  0.72

> <Gold.Chemscore.Hbond.Weighted>
-2.9965

> <Gold.Chemscore.Metal.Weighted>
-0.0000

> <Gold.Chemscore.Lipo.Weighted>
-12.2795

> <Gold.Chemscore.Internal_Hbond.Weighted>
0.0000

> <Gold.Chemscore.DEClash.Weighted>
0.1335

> <Gold.Chemscore.DEInternal.Weighted>
1.9670

> <Gold.Chemscore.Rot.Weighted>
3.4318

> <Gold.Chemscore.Internal.Correction.Weighted>
   9.000000E+99

> <Gold.Protein.RotatedTorsions>
[ 6907 6896 6895 6894 ] final   92.30 input  -60.11 | X-H torsion
[ 7974 7965 7964 7962 ] final -170.55 input  175.53 | X-H torsion
[ 8008 7997 7996 7995 ] final   56.78 input   59.86 | X-H torsion
[ 10167 10162 10161 10158 ] final  -71.33 input  -65.29 | X-H torsion
[ 10718 10713 10712 10709 ] final  -21.98 input   66.30 | X-H torsion
[ 10763 10752 10751 10750 ] final   63.11 input  -60.55 | X-H torsion
[ 11005 11000 10999 10996 ] final  -81.64 input  -57.11 | X-H torsion

> <Gold.Protein.ActiveResidues>
 VAL166  LYS551  ARG553  GLY616  TRP617  ASP618  TYR619  PRO620  LYS621  CYS622 
 ASP623  PHE694  ASN695  SER759  ASP760  ASP761  ALA762  ILE779  LEU786  VAL792 
 PHE793  MET794  SER795  GLU796  ALA797  LYS798  CYS799  TRP800  GLU811  SER814 

> <Gold.Protein.RotatedAtoms>
  152.5452  134.1523  159.8523 H   0  0  0  0  0  0  0  0  0  0  0  0  # atno 6907 bound_to 6896
  151.1549  133.4876  159.2602 H   0  0  0  0  0  0  0  0  0  0  0  0  # atno 6908 bound_to 6896
  151.1434  135.0201  159.8690 H   0  0  0  0  0  0  0  0  0  0  0  0  # atno 6909 bound_to 6896
  144.7168  140.2055  143.6333 H   0  0  0  0  0  0  0  0  0  0  0  0  # atno 7974 bound_to 7965
  155.5230  140.3480  155.4410 H   0  0  0  0  0  0  0  0  0  0  0  0  # atno 8008 bound_to 7997
  156.0771  140.1377  156.9785 H   0  0  0  0  0  0  0  0  0  0  0  0  # atno 8009 bound_to 7997
  154.4559  140.0953  156.6731 H   0  0  0  0  0  0  0  0  0  0  0  0  # atno 8010 bound_to 7997
  140.5281  143.2324  151.7311 H   0  0  0  0  0  0  0  0  0  0  0  0  # atno 10167 bound_to 10162
  156.5107  130.4609  149.6649 H   0  0  0  0  0  0  0  0  0  0  0  0  # atno 10718 bound_to 10713
  153.0006  135.5441  154.6300 H   0  0  0  0  0  0  0  0  0  0  0  0  # atno 10763 bound_to 10752
  154.5579  135.2831  155.0949 H   0  0  0  0  0  0  0  0  0  0  0  0  # atno 10764 bound_to 10752
  154.2163  135.6458  153.5183 H   0  0  0  0  0  0  0  0  0  0  0  0  # atno 10765 bound_to 10752
  141.1666  133.7206  156.8453 H   0  0  0  0  0  0  0  0  0  0  0  0  # atno 11005 bound_to 11000
  145.8640  139.2237  143.1700 LP  0  0  0  0  0  0  0  0  0  0  0  0  # atno 17320 bound_to 7965
  146.0147  140.8403  142.9953 LP  0  0  0  0  0  0  0  0  0  0  0  0  # atno 17321 bound_to 7965
  139.4945  144.4155  152.0034 LP  0  0  0  0  0  0  0  0  0  0  0  0  # atno 17342 bound_to 10162
  140.3256  144.3377  150.5999 LP  0  0  0  0  0  0  0  0  0  0  0  0  # atno 17343 bound_to 10162
  156.3243  130.7297  151.2215 LP  0  0  0  0  0  0  0  0  0  0  0  0  # atno 17370 bound_to 10713
  157.7451  131.0447  150.4807 LP  0  0  0  0  0  0  0  0  0  0  0  0  # atno 17371 bound_to 10713
  140.1954  134.8935  157.3108 LP  0  0  0  0  0  0  0  0  0  0  0  0  # atno 17394 bound_to 11000
  140.2245  134.3984  155.7550 LP  0  0  0  0  0  0  0  0  0  0  0  0  # atno 17395 bound_to 11000

$$$$
