AV-unprocessed.smi:3019|AV-procd|sdf|11485|dock2
  -GOLD-   2272016423D 1   1.00000     0.00000
 Structure written by MMmdl.
 31 32  0  0  0  0  0  0  0  0  2 V2000
  152.1622  144.5396  157.9566 C   0  0  0  0  0  0  0  0  0  0  0  0
  151.6967  143.2098  158.5678 C   0  0  0  0  0  0  0  0  0  0  0  0
  152.7244  142.6385  159.5556 C   0  0  0  0  0  0  0  0  0  0  0  0
  151.3303  142.2128  157.5112 C   0  0  0  0  0  0  0  0  0  0  0  0
  150.4171  142.4727  156.5728 N   0  0  0  0  0  0  0  0  0  0  0  0
  150.2860  141.3997  155.7647 N   0  0  0  0  0  0  0  0  0  0  0  0
  151.1732  140.5514  156.2827 C   0  0  0  0  0  0  0  0  0  0  0  0
  151.3434  139.1779  155.7124 C   0  0  2  0  0  0  0  0  0  0  0  0
  150.3827  138.9108  154.5380 C   0  0  0  0  0  0  0  0  0  0  0  0
  150.5251  137.5143  154.0822 N   0  3  0  0  0  0  0  0  0  0  0  0
  150.3330  136.5605  155.1929 C   0  0  0  0  0  0  0  0  0  0  0  0
  151.2799  136.9026  156.3573 C   0  0  0  0  0  0  0  0  0  0  0  0
  151.0772  138.2519  156.7637 O   0  0  0  0  0  0  0  0  0  0  0  0
  151.8465  140.9932  157.3889 N   0  0  0  0  0  0  0  0  0  0  0  0
  151.3949  144.9628  157.3079 H   0  0  0  0  0  0  0  0  0  0  0  0
  153.0664  144.4085  157.3614 H   0  0  0  0  0  0  0  0  0  0  0  0
  152.3794  145.2738  158.7328 H   0  0  0  0  0  0  0  0  0  0  0  0
  150.7917  143.4226  159.1389 H   0  0  0  0  0  0  0  0  0  0  0  0
  152.3531  141.7267  160.0243 H   0  0  0  0  0  0  0  0  0  0  0  0
  152.9437  143.3519  160.3505 H   0  0  0  0  0  0  0  0  0  0  0  0
  153.6639  142.3983  159.0570 H   0  0  0  0  0  0  0  0  0  0  0  0
  152.3785  139.0605  155.3849 H   0  0  0  0  0  0  0  0  0  0  0  0
  149.3495  139.0830  154.8431 H   0  0  0  0  0  0  0  0  0  0  0  0
  150.5907  139.5859  153.7074 H   0  0  0  0  0  0  0  0  0  0  0  0
  149.8486  137.3264  153.3558 H   0  0  0  0  0  0  0  0  0  0  0  0
  149.2953  136.6029  155.5267 H   0  0  0  0  0  0  0  0  0  0  0  0
  150.5153  135.5470  154.8349 H   0  0  0  0  0  0  0  0  0  0  0  0
  151.0862  136.2451  157.2050 H   0  0  0  0  0  0  0  0  0  0  0  0
  152.3215  136.7515  156.0693 H   0  0  0  0  0  0  0  0  0  0  0  0
  151.4545  137.3907  153.7068 H   0  0  0  0  0  0  0  0  0  0  0  0
  149.8808  143.3210  156.4561 H   0  0  0  0  0  0  0  0  0  0  0  0
  1  2  1  0  0  0  0
  1 15  1  0  0  0  0
  1 16  1  0  0  0  0
  1 17  1  0  0  0  0
  2  3  1  0  0  0  0
  2  4  1  0  0  0  0
  2 18  1  0  0  0  0
  3 19  1  0  0  0  0
  3 20  1  0  0  0  0
  3 21  1  0  0  0  0
  4 14  2  0  0  0  0
  4  5  1  0  0  0  0
  5  6  1  0  0  0  0
  5 31  1  0  0  0  0
  6  7  2  0  0  0  0
  7  8  1  0  0  0  0
  7 14  1  0  0  0  0
  8 13  1  0  0  0  0
  8  9  1  0  0  0  0
  8 22  1  0  0  0  0
  9 10  1  0  0  0  0
  9 23  1  0  0  0  0
  9 24  1  0  0  0  0
 10 11  1  0  0  0  0
 10 25  1  0  0  0  0
 10 30  1  0  0  0  0
 11 12  1  0  0  0  0
 11 26  1  0  0  0  0
 11 27  1  0  0  0  0
 12 13  1  0  0  0  0
 12 28  1  0  0  0  0
 12 29  1  0  0  0  0
M  CHG  1  10   1
M  END
> <s_m_source_file>
AV-unprocessed.smi

> <i_m_source_file_index>
3019

> <i_lp_mmshare_version>
43012

> <i_f3d_flags>
0

> <s_epik_input>
W0NIM11bQ0hdKFtDSDNdKWMxbltuSF1jKG4xKVtDQEBIXTJbQ0gyXVtOSF1bQ0gyXVtDSDJdTzI=

> <s_epik_cmdline>
J2VwaWtfcHl0aG9uJywgJy1waCcsICc3LjAnLCAnLXRuJywgJzgnLCAnLW1hJywgJzIwMCcsICctbWV0YWxfYmluZGluZycsICctaW1hZScsICc8aW5maWxlLm1hZT4nLCAnLW9tYWUnLCAnPG91dGZpbGUubWFlPic=

> <r_lp_tautomer_probability>
0.948284

> <r_epik_Ionization_Penalty>
0.108767

> <r_epik_Ionization_Penalty_Charging>
0.100865

> <r_epik_Ionization_Penalty_Neutral>
0.00790271

> <r_epik_State_Penalty>
0.197684

> <r_epik_Charging_Adjusted_Penalty>
0.298549

> <i_epik_Tot_Q>
1

> <i_epik_Tot_abs_Q>
1

> <r_epik_Metal_State_Penalty>
0.508163

> <b_epik_Metal_Only>
0

> <s_lp_Force_Field>
OPLS_2005

> <r_lp_Energy>
9.87406

> <b_lp_Chiralities_Consistent>
1

> <s_lp_Variant>
AV-unprocessed.smi:3019-1

> <Gold.Version>
5.8.1

> <Gold.Id.Protein>
6NUR|6NUR_protein|mol2

> <Gold.PLP.Fitness>
37.5892

> <Gold.PLP.PLP>
-28.6259

> <Gold.PLP.part.hbond>
-3.1330

> <Gold.PLP.part.metal>
0.0000

> <Gold.PLP.part.buried>
-3.9599

> <Gold.PLP.part.nonpolar>
-22.4471

> <Gold.PLP.part.repulsive>
0.2417

> <Gold.PLP.ligand.clash>
0.0000

> <Gold.PLP.ligand.torsion>
0.0457

> <Gold.PLP.Chemscore.Hbond>
3.0000

> <Gold.PLP.Chemscore.CHOScore>
0.0000

> <Gold.PLP.Chemscore.Metal>
0.0000

> <Gold.Chemscore.Hbonds>
donor molecule, donor type, donor heavy atom, donor atom, acceptor molecule, acceptor atom, score
      L1  H     5    31       P1  8028  1.00
      L1  H    10    25       P1  7948  2.00

> <Gold.PLP.Chemscore.Internal.Correction>
0.0548

> <Gold.Rescore>
     Score         DG    S(hbond)    S(metal)    S(lipo)     H(rot)  DE(clash)    DE(int)     intcor
     14.90     -15.09       1.78        0.00      59.36       1.28       0.04       0.15       ----

> <Gold.Chemscore.Fitness>
14.9015

> <Gold.Chemscore.DG>
-15.0877

> <Gold.Chemscore.ZeroCoef>
-5.4800

> <Gold.Chemscore.Hbond>
1.7777

> <Gold.Chemscore.Metal>
0.0000

> <Gold.Chemscore.Lipo>
59.3649

> <Gold.Chemscore.Internal_Hbond>
0.0000

> <Gold.Chemscore.DEClash>
0.0405

> <Gold.Chemscore.DEInternal>
0.1457

> <Gold.Chemscore.Rot>
1.2795

> <Gold.Chemscore.Internal.Correction>
   9.000000E+99

> <Gold.Chemscore.Hbonds>
donor molecule, donor type, donor heavy atom, donor atom, acceptor molecule, acceptor atom, score
      L1  H     5    31       P1  8028  1.00
      L1  H    10    25       P1  7948  0.46

> <Gold.Chemscore.Hbond.Weighted>
-5.9375

> <Gold.Chemscore.Metal.Weighted>
-0.0000

> <Gold.Chemscore.Lipo.Weighted>
-6.9457

> <Gold.Chemscore.Internal_Hbond.Weighted>
0.0000

> <Gold.Chemscore.DEClash.Weighted>
0.0405

> <Gold.Chemscore.DEInternal.Weighted>
0.1457

> <Gold.Chemscore.Rot.Weighted>
3.2754

> <Gold.Chemscore.Internal.Correction.Weighted>
   9.000000E+99

> <Gold.Protein.RotatedTorsions>
[ 6907 6896 6895 6894 ] final  -28.03 input  -60.11 | X-H torsion
[ 7974 7965 7964 7962 ] final -158.52 input  175.53 | X-H torsion
[ 8008 7997 7996 7995 ] final -113.99 input   59.86 | X-H torsion
[ 10167 10162 10161 10158 ] final  -87.87 input  -65.29 | X-H torsion
[ 10718 10713 10712 10709 ] final   61.43 input   66.30 | X-H torsion
[ 10763 10752 10751 10750 ] final   57.79 input  -60.55 | X-H torsion
[ 11005 11000 10999 10996 ] final  166.75 input  -57.11 | X-H torsion

> <Gold.Protein.ActiveResidues>
 VAL166  LYS551  ARG553  GLY616  TRP617  ASP618  TYR619  PRO620  LYS621  CYS622 
 ASP623  PHE694  ASN695  SER759  ASP760  ASP761  ALA762  ILE779  LEU786  VAL792 
 PHE793  MET794  SER795  GLU796  ALA797  LYS798  CYS799  TRP800  GLU811  SER814 

> <Gold.Protein.RotatedAtoms>
  151.1387  135.0168  159.8615 H   0  0  0  0  0  0  0  0  0  0  0  0  # atno 6907 bound_to 6896
  152.5452  134.1525  159.8534 H   0  0  0  0  0  0  0  0  0  0  0  0  # atno 6908 bound_to 6896
  151.1598  133.4807  159.2627 H   0  0  0  0  0  0  0  0  0  0  0  0  # atno 6909 bound_to 6896
  144.7502  140.3815  143.6054 H   0  0  0  0  0  0  0  0  0  0  0  0  # atno 7974 bound_to 7965
  155.0293  140.0393  157.2468 H   0  0  0  0  0  0  0  0  0  0  0  0  # atno 8008 bound_to 7997
  154.7310  140.2730  155.6432 H   0  0  0  0  0  0  0  0  0  0  0  0  # atno 8009 bound_to 7997
  156.2841  140.2684  156.2010 H   0  0  0  0  0  0  0  0  0  0  0  0  # atno 8010 bound_to 7997
  140.3802  143.2752  151.9392 H   0  0  0  0  0  0  0  0  0  0  0  0  # atno 10167 bound_to 10162
  157.5827  130.8994  149.9459 H   0  0  0  0  0  0  0  0  0  0  0  0  # atno 10718 bound_to 10713
  152.9857  135.5629  154.5447 H   0  0  0  0  0  0  0  0  0  0  0  0  # atno 10763 bound_to 10752
  154.4895  135.2792  155.1510 H   0  0  0  0  0  0  0  0  0  0  0  0  # atno 10764 bound_to 10752
  154.2985  135.6312  153.5468 H   0  0  0  0  0  0  0  0  0  0  0  0  # atno 10765 bound_to 10752
  140.2697  134.7836  157.3664 H   0  0  0  0  0  0  0  0  0  0  0  0  # atno 11005 bound_to 11000
  145.6972  139.1652  143.2613 LP  0  0  0  0  0  0  0  0  0  0  0  0  # atno 17320 bound_to 7965
  146.1441  140.7017  142.9353 LP  0  0  0  0  0  0  0  0  0  0  0  0  # atno 17321 bound_to 7965
  139.4796  144.5825  151.7908 LP  0  0  0  0  0  0  0  0  0  0  0  0  # atno 17342 bound_to 10162
  140.4945  144.1262  150.5957 LP  0  0  0  0  0  0  0  0  0  0  0  0  # atno 17343 bound_to 10162
  156.0874  130.3666  150.0461 LP  0  0  0  0  0  0  0  0  0  0  0  0  # atno 17370 bound_to 10713
  156.8598  130.9488  151.3619 LP  0  0  0  0  0  0  0  0  0  0  0  0  # atno 17371 bound_to 10713
  140.1385  134.5003  155.8050 LP  0  0  0  0  0  0  0  0  0  0  0  0  # atno 17394 bound_to 11000
  141.2179  133.6816  156.7167 LP  0  0  0  0  0  0  0  0  0  0  0  0  # atno 17395 bound_to 11000

$$$$
