AV-unprocessed.smi:2228|AV-procd|sdf|9026|dock5
  -GOLD-   2272012233D 1   1.00000     0.00000
 Structure written by MMmdl.
 40 41  0  0  0  0  0  0  0  0  1 V2000
  146.8011  140.2654  152.8080 C   0  0  0  0  0  0  0  0  0  0  0  0
  146.6699  140.4591  154.2079 O   0  0  0  0  0  0  0  0  0  0  0  0
  147.8406  140.1263  154.9415 C   0  0  1  0  0  0  0  0  0  0  0  0
  148.0780  138.6154  154.8712 C   0  0  0  0  0  0  0  0  0  0  0  0
  149.5854  138.4625  155.0406 C   0  0  0  0  0  0  0  0  0  0  0  0
  150.1645  139.6425  154.2598 C   0  0  0  0  0  0  0  0  0  0  0  0
  149.1213  140.7718  154.3643 C   0  0  2  0  0  0  0  0  0  0  0  0
  149.5960  141.8383  155.2424 N   0  0  0  0  0  0  0  0  0  0  0  0
  150.2898  141.6579  156.3749 C   0  0  0  0  0  0  0  0  0  0  0  0
  150.5856  140.5493  156.8221 O   0  0  0  0  0  0  0  0  0  0  0  0
  150.6124  142.8358  156.9374 N   0  0  0  0  0  0  0  0  0  0  0  0
  151.3671  143.0676  158.1177 C   0  0  0  0  0  0  0  0  0  0  0  0
  151.3203  144.3921  158.6076 C   0  0  0  0  0  0  0  0  0  0  0  0
  152.0386  144.7274  159.7729 C   0  0  0  0  0  0  0  0  0  0  0  0
  152.0025  146.1413  160.3143 C   0  0  0  0  0  0  0  0  0  0  0  0
  152.7849  143.7240  160.4196 C   0  0  0  0  0  0  0  0  0  0  0  0
  152.7769  142.4286  159.8662 C   0  0  0  0  0  0  0  0  0  0  0  0
  153.5538  141.3005  160.5119 C   0  0  0  0  0  0  0  0  0  0  0  0
  152.0892  142.1090  158.7493 N   0  0  0  0  0  0  0  0  0  0  0  0
  145.8813  140.5730  152.3108 H   0  0  0  0  0  0  0  0  0  0  0  0
  146.9779  139.2184  152.5598 H   0  0  0  0  0  0  0  0  0  0  0  0
  147.6180  140.8625  152.4013 H   0  0  0  0  0  0  0  0  0  0  0  0
  147.7124  140.3939  155.9928 H   0  0  0  0  0  0  0  0  0  0  0  0
  147.5095  138.0652  155.6217 H   0  0  0  0  0  0  0  0  0  0  0  0
  147.7866  138.2369  153.8902 H   0  0  0  0  0  0  0  0  0  0  0  0
  149.8483  138.5515  156.0954 H   0  0  0  0  0  0  0  0  0  0  0  0
  149.9539  137.5006  154.6833 H   0  0  0  0  0  0  0  0  0  0  0  0
  151.1530  139.9284  154.6227 H   0  0  0  0  0  0  0  0  0  0  0  0
  150.2794  139.3581  153.2130 H   0  0  0  0  0  0  0  0  0  0  0  0
  148.9205  141.1584  153.3631 H   0  0  0  0  0  0  0  0  0  0  0  0
  149.3936  142.7844  154.9542 H   0  0  0  0  0  0  0  0  0  0  0  0
  150.2959  143.6641  156.4557 H   0  0  0  0  0  0  0  0  0  0  0  0
  150.7408  145.1468  158.0955 H   0  0  0  0  0  0  0  0  0  0  0  0
  152.6608  146.2531  161.1763 H   0  0  0  0  0  0  0  0  0  0  0  0
  150.9898  146.4015  160.6225 H   0  0  0  0  0  0  0  0  0  0  0  0
  152.3215  146.8485  159.5484 H   0  0  0  0  0  0  0  0  0  0  0  0
  153.3476  143.9408  161.3159 H   0  0  0  0  0  0  0  0  0  0  0  0
  154.1717  141.6656  161.3325 H   0  0  0  0  0  0  0  0  0  0  0  0
  154.2076  140.8208  159.7828 H   0  0  0  0  0  0  0  0  0  0  0  0
  152.8696  140.5493  160.9074 H   0  0  0  0  0  0  0  0  0  0  0  0
  1  2  1  0  0  0  0
  1 20  1  0  0  0  0
  1 21  1  0  0  0  0
  1 22  1  0  0  0  0
  2  3  1  0  0  0  0
  3  7  1  0  0  0  0
  3  4  1  0  0  0  0
  3 23  1  0  0  0  0
  4  5  1  0  0  0  0
  4 24  1  0  0  0  0
  4 25  1  0  0  0  0
  5  6  1  0  0  0  0
  5 26  1  0  0  0  0
  5 27  1  0  0  0  0
  6  7  1  0  0  0  0
  6 28  1  0  0  0  0
  6 29  1  0  0  0  0
  7  8  1  0  0  0  0
  7 30  1  0  0  0  0
  8  9  1  0  0  0  0
  8 31  1  0  0  0  0
  9 10  2  0  0  0  0
  9 11  1  0  0  0  0
 11 12  1  0  0  0  0
 11 32  1  0  0  0  0
 12 19  1  0  0  0  0
 12 13  2  0  0  0  0
 13 14  1  0  0  0  0
 13 33  1  0  0  0  0
 14 15  1  0  0  0  0
 14 16  2  0  0  0  0
 15 34  1  0  0  0  0
 15 35  1  0  0  0  0
 15 36  1  0  0  0  0
 16 17  1  0  0  0  0
 16 37  1  0  0  0  0
 17 18  1  0  0  0  0
 17 19  2  0  0  0  0
 18 38  1  0  0  0  0
 18 39  1  0  0  0  0
 18 40  1  0  0  0  0
M  END
> <s_m_source_file>
AV-unprocessed.smi

> <i_m_source_file_index>
2228

> <i_lp_mmshare_version>
43012

> <i_f3d_flags>
0

> <s_epik_input>
W0NIM11PW0NAQEhdMVtDSDJdW0NIMl1bQ0gyXVtDQEhdMVtOSF1DKD1PKVtOSF1jMltjSF1jKFtDSDNdKVtjSF1jKG4yKVtDSDNd

> <s_epik_cmdline>
J2VwaWtfcHl0aG9uJywgJy1waCcsICc3LjAnLCAnLXRuJywgJzgnLCAnLW1hJywgJzIwMCcsICctbWV0YWxfYmluZGluZycsICctaW1hZScsICc8aW5maWxlLm1hZT4nLCAnLW9tYWUnLCAnPG91dGZpbGUubWFlPic=

> <r_lp_tautomer_probability>
1

> <r_epik_Ionization_Penalty>
0.000275391

> <r_epik_Ionization_Penalty_Charging>
0

> <r_epik_Ionization_Penalty_Neutral>
0.000275391

> <r_epik_State_Penalty>
-0

> <r_epik_Charging_Adjusted_Penalty>
0

> <i_epik_Tot_Q>
0

> <i_epik_Tot_abs_Q>
0

> <r_epik_Metal_State_Penalty>
-0

> <b_epik_Metal_Only>
0

> <s_lp_Force_Field>
OPLS_2005

> <r_lp_Energy>
19.8708

> <b_lp_Chiralities_Consistent>
1

> <s_lp_Variant>
AV-unprocessed.smi:2228-4

> <Gold.Version>
5.8.1

> <Gold.Id.Protein>
6NUR|6NUR_protein|mol2

> <Gold.PLP.Fitness>
41.7019

> <Gold.PLP.PLP>
-36.6549

> <Gold.PLP.part.hbond>
-2.0000

> <Gold.PLP.part.metal>
0.0000

> <Gold.PLP.part.buried>
0.0257

> <Gold.PLP.part.nonpolar>
-35.5839

> <Gold.PLP.part.repulsive>
0.3545

> <Gold.PLP.ligand.clash>
0.0000

> <Gold.PLP.ligand.torsion>
0.3601

> <Gold.PLP.Chemscore.Hbond>
1.9204

> <Gold.PLP.Chemscore.CHOScore>
0.0000

> <Gold.PLP.Chemscore.Metal>
0.0000

> <Gold.Chemscore.Hbonds>
donor molecule, donor type, donor heavy atom, donor atom, acceptor molecule, acceptor atom, score
      L1  H     8    31       P1  8028  0.71
      L1  H    11    32       P1  8028  1.00

> <Gold.PLP.Chemscore.Internal.Correction>
0.0059

> <Gold.Rescore>
     Score         DG    S(hbond)    S(metal)    S(lipo)     H(rot)  DE(clash)    DE(int)     intcor
     16.06     -20.72       1.84        0.00     104.28       1.21       0.31       4.35       ----

> <Gold.Chemscore.Fitness>
16.0636

> <Gold.Chemscore.DG>
-20.7214

> <Gold.Chemscore.ZeroCoef>
-5.4800

> <Gold.Chemscore.Hbond>
1.8391

> <Gold.Chemscore.Metal>
0.0000

> <Gold.Chemscore.Lipo>
104.2847

> <Gold.Chemscore.Internal_Hbond>
0.0000

> <Gold.Chemscore.DEClash>
0.3111

> <Gold.Chemscore.DEInternal>
4.3467

> <Gold.Chemscore.Rot>
1.2119

> <Gold.Chemscore.Internal.Correction>
   9.000000E+99

> <Gold.Chemscore.Hbonds>
donor molecule, donor type, donor heavy atom, donor atom, acceptor molecule, acceptor atom, score
      L1  H     8    31       P1  8028  0.69
      L1  H    11    32       P1  8028  0.96

> <Gold.Chemscore.Hbond.Weighted>
-6.1427

> <Gold.Chemscore.Metal.Weighted>
-0.0000

> <Gold.Chemscore.Lipo.Weighted>
-12.2013

> <Gold.Chemscore.Internal_Hbond.Weighted>
0.0000

> <Gold.Chemscore.DEClash.Weighted>
0.3111

> <Gold.Chemscore.DEInternal.Weighted>
4.3467

> <Gold.Chemscore.Rot.Weighted>
3.1026

> <Gold.Chemscore.Internal.Correction.Weighted>
   9.000000E+99

> <Gold.Protein.RotatedTorsions>
[ 6907 6896 6895 6894 ] final  -69.67 input  -60.11 | X-H torsion
[ 7974 7965 7964 7962 ] final -162.28 input  175.53 | X-H torsion
[ 8008 7997 7996 7995 ] final  -17.81 input   59.86 | X-H torsion
[ 10167 10162 10161 10158 ] final    0.36 input  -65.29 | X-H torsion
[ 10718 10713 10712 10709 ] final -107.72 input   66.30 | X-H torsion
[ 10763 10752 10751 10750 ] final   24.26 input  -60.55 | X-H torsion
[ 11005 11000 10999 10996 ] final  114.88 input  -57.11 | X-H torsion

> <Gold.Protein.ActiveResidues>
 VAL166  LYS551  ARG553  GLY616  TRP617  ASP618  TYR619  PRO620  LYS621  CYS622 
 ASP623  PHE694  ASN695  SER759  ASP760  ASP761  ALA762  ILE779  LEU786  VAL792 
 PHE793  MET794  SER795  GLU796  ALA797  LYS798  CYS799  TRP800  GLU811  SER814 

> <Gold.Protein.RotatedAtoms>
  150.7294  134.5564  159.5819 H   0  0  0  0  0  0  0  0  0  0  0  0  # atno 6907 bound_to 6896
  152.3038  134.7576  160.0361 H   0  0  0  0  0  0  0  0  0  0  0  0  # atno 6908 bound_to 6896
  151.8147  133.3351  159.3603 H   0  0  0  0  0  0  0  0  0  0  0  0  # atno 6909 bound_to 6896
  144.7362  140.3275  143.6159 H   0  0  0  0  0  0  0  0  0  0  0  0  # atno 7974 bound_to 7965
  154.4951  140.2133  155.9464 H   0  0  0  0  0  0  0  0  0  0  0  0  # atno 8008 bound_to 7997
  156.1359  140.3188  155.8388 H   0  0  0  0  0  0  0  0  0  0  0  0  # atno 8009 bound_to 7997
  155.4210  140.0497  157.3016 H   0  0  0  0  0  0  0  0  0  0  0  0  # atno 8010 bound_to 7997
  140.6732  143.6990  150.7967 H   0  0  0  0  0  0  0  0  0  0  0  0  # atno 10167 bound_to 10162
  156.0450  130.5677  150.7862 H   0  0  0  0  0  0  0  0  0  0  0  0  # atno 10718 bound_to 10713
  153.0777  135.6609  154.0110 H   0  0  0  0  0  0  0  0  0  0  0  0  # atno 10763 bound_to 10752
  153.9740  135.2961  155.3426 H   0  0  0  0  0  0  0  0  0  0  0  0  # atno 10764 bound_to 10752
  154.7169  135.5181  153.8823 H   0  0  0  0  0  0  0  0  0  0  0  0  # atno 10765 bound_to 10752
  139.8993  134.9575  156.6960 H   0  0  0  0  0  0  0  0  0  0  0  0  # atno 11005 bound_to 11000
  145.7505  139.1792  143.2324 LP  0  0  0  0  0  0  0  0  0  0  0  0  # atno 17320 bound_to 7965
  146.1064  140.7482  142.9524 LP  0  0  0  0  0  0  0  0  0  0  0  0  # atno 17321 bound_to 7965
  140.0679  143.5090  152.2595 LP  0  0  0  0  0  0  0  0  0  0  0  0  # atno 17342 bound_to 10162
  139.6011  144.7582  151.3170 LP  0  0  0  0  0  0  0  0  0  0  0  0  # atno 17343 bound_to 10162
  157.5315  131.0937  150.9948 LP  0  0  0  0  0  0  0  0  0  0  0  0  # atno 17370 bound_to 10713
  157.0253  130.5690  149.5336 LP  0  0  0  0  0  0  0  0  0  0  0  0  # atno 17371 bound_to 10713
  140.7188  133.9159  155.8133 LP  0  0  0  0  0  0  0  0  0  0  0  0  # atno 17394 bound_to 11000
  141.0244  134.0844  157.4085 LP  0  0  0  0  0  0  0  0  0  0  0  0  # atno 17395 bound_to 11000

$$$$
