AV-unprocessed.smi:848|AV-procd|sdf|3939|dock10
  -GOLD-   22720 1403D 1   1.00000     0.00000
 Structure written by MMmdl.
 46 48  0  0  0  0  0  0  0  0  1 V2000
  142.6678  143.1003  156.9320 C   0  0  0  0  0  0  0  0  0  0  0  0
  143.9277  143.1213  156.0910 C   0  0  0  0  0  0  0  0  0  0  0  0
  143.9450  143.7925  154.8522 C   0  0  0  0  0  0  0  0  0  0  0  0
  145.1188  143.8083  154.0744 C   0  0  0  0  0  0  0  0  0  0  0  0
  145.1303  144.5299  152.7424 C   0  0  0  0  0  0  0  0  0  0  0  0
  146.2766  143.1540  154.5420 C   0  0  0  0  0  0  0  0  0  0  0  0
  146.2773  142.4802  155.7804 C   0  0  0  0  0  0  0  0  0  0  0  0
  147.4552  141.8725  156.1592 O   0  0  0  0  0  0  0  0  0  0  0  0
  148.3537  141.4488  155.1428 C   0  0  0  0  0  0  0  0  0  0  0  0
  149.7209  141.1513  155.7791 C   0  0  2  0  0  0  0  0  0  0  0  0
  150.4912  140.4005  154.8606 O   0  0  0  0  0  0  0  0  0  0  0  0
  149.5793  140.3567  157.0942 C   0  0  0  0  0  0  0  0  0  0  0  0
  150.7527  140.4622  157.9520 N   0  0  0  0  0  0  0  0  0  0  0  0
  151.4274  139.4612  158.5720 C   0  0  0  0  0  0  0  0  0  0  0  0
  151.0102  138.0254  158.4201 C   0  0  0  0  0  0  0  0  0  0  0  0
  151.7730  137.1198  159.1923 O   0  0  0  0  0  0  0  0  0  0  0  0
  152.4767  139.8413  159.3053 N   0  0  0  0  0  0  0  0  0  0  0  0
  152.4833  141.2124  159.1441 C   0  0  0  0  0  0  0  0  0  0  0  0
  153.3520  142.1946  159.6712 C   0  0  0  0  0  0  0  0  0  0  0  0
  153.1622  143.5568  159.3591 C   0  0  0  0  0  0  0  0  0  0  0  0
  152.1038  143.9553  158.5174 C   0  0  0  0  0  0  0  0  0  0  0  0
  151.2257  142.9930  157.9832 C   0  0  0  0  0  0  0  0  0  0  0  0
  151.4190  141.6344  158.2985 C   0  0  0  0  0  0  0  0  0  0  0  0
  145.0886  142.4681  156.5530 C   0  0  0  0  0  0  0  0  0  0  0  0
  141.8176  143.5108  156.3865 H   0  0  0  0  0  0  0  0  0  0  0  0
  142.8099  143.6902  157.8377 H   0  0  0  0  0  0  0  0  0  0  0  0
  142.4223  142.0783  157.2223 H   0  0  0  0  0  0  0  0  0  0  0  0
  143.0580  144.2960  154.4954 H   0  0  0  0  0  0  0  0  0  0  0  0
  146.0485  144.3298  152.1894 H   0  0  0  0  0  0  0  0  0  0  0  0
  145.0511  145.6061  152.8964 H   0  0  0  0  0  0  0  0  0  0  0  0
  144.2884  144.2073  152.1292 H   0  0  0  0  0  0  0  0  0  0  0  0
  147.1784  143.1665  153.9472 H   0  0  0  0  0  0  0  0  0  0  0  0
  147.9596  140.5343  154.6964 H   0  0  0  0  0  0  0  0  0  0  0  0
  148.4476  142.1935  154.3501 H   0  0  0  0  0  0  0  0  0  0  0  0
  150.2386  142.0894  155.9807 H   0  0  0  0  0  0  0  0  0  0  0  0
  149.9187  139.8036  154.4036 H   0  0  0  0  0  0  0  0  0  0  0  0
  148.7067  140.6987  157.6513 H   0  0  0  0  0  0  0  0  0  0  0  0
  149.4013  139.3020  156.8799 H   0  0  0  0  0  0  0  0  0  0  0  0
  149.9641  137.9202  158.7058 H   0  0  0  0  0  0  0  0  0  0  0  0
  151.0938  137.7405  157.3712 H   0  0  0  0  0  0  0  0  0  0  0  0
  151.9951  137.5352  160.0112 H   0  0  0  0  0  0  0  0  0  0  0  0
  154.1660  141.8989  160.3164 H   0  0  0  0  0  0  0  0  0  0  0  0
  153.8323  144.2990  159.7677 H   0  0  0  0  0  0  0  0  0  0  0  0
  151.9661  145.0007  158.2827 H   0  0  0  0  0  0  0  0  0  0  0  0
  150.4128  143.2964  157.3408 H   0  0  0  0  0  0  0  0  0  0  0  0
  145.0437  141.9643  157.5065 H   0  0  0  0  0  0  0  0  0  0  0  0
  1  2  1  0  0  0  0
  1 25  1  0  0  0  0
  1 26  1  0  0  0  0
  1 27  1  0  0  0  0
  2 24  1  0  0  0  0
  2  3  2  0  0  0  0
  3  4  1  0  0  0  0
  3 28  1  0  0  0  0
  4  5  1  0  0  0  0
  4  6  2  0  0  0  0
  5 29  1  0  0  0  0
  5 30  1  0  0  0  0
  5 31  1  0  0  0  0
  6  7  1  0  0  0  0
  6 32  1  0  0  0  0
  7  8  1  0  0  0  0
  7 24  2  0  0  0  0
  8  9  1  0  0  0  0
  9 10  1  0  0  0  0
  9 33  1  0  0  0  0
  9 34  1  0  0  0  0
 10 11  1  0  0  0  0
 10 12  1  0  0  0  0
 10 35  1  0  0  0  0
 11 36  1  0  0  0  0
 12 13  1  0  0  0  0
 12 37  1  0  0  0  0
 12 38  1  0  0  0  0
 13 23  1  0  0  0  0
 13 14  1  0  0  0  0
 14 15  1  0  0  0  0
 14 17  2  0  0  0  0
 15 16  1  0  0  0  0
 15 39  1  0  0  0  0
 15 40  1  0  0  0  0
 16 41  1  0  0  0  0
 17 18  1  0  0  0  0
 18 23  2  0  0  0  0
 18 19  1  0  0  0  0
 19 20  2  0  0  0  0
 19 42  1  0  0  0  0
 20 21  1  0  0  0  0
 20 43  1  0  0  0  0
 21 22  2  0  0  0  0
 21 44  1  0  0  0  0
 22 23  1  0  0  0  0
 22 45  1  0  0  0  0
 24 46  1  0  0  0  0
M  END
> <s_m_source_file>
AV-unprocessed.smi

> <i_m_source_file_index>
848

> <i_lp_mmshare_version>
43012

> <i_f3d_flags>
0

> <s_epik_input>
W0NIM11jMVtjSF1jKFtDSDNdKVtjSF1jKFtjSF0xKU9bQ0gyXVtDQEhdKFtPSF0pW0NIMl1uKGMobjIpW0NIMl1bT0hdKWMoYzIzKVtjSF1bY0hdW2NIXVtjSF0z

> <s_epik_cmdline>
J2VwaWtfcHl0aG9uJywgJy1waCcsICc3LjAnLCAnLXRuJywgJzgnLCAnLW1hJywgJzIwMCcsICctbWV0YWxfYmluZGluZycsICctaW1hZScsICc8aW5maWxlLm1hZT4nLCAnLW9tYWUnLCAnPG91dGZpbGUubWFlPic=

> <r_lp_tautomer_probability>
1

> <r_epik_Ionization_Penalty>
0.0554234

> <r_epik_Ionization_Penalty_Charging>
0

> <r_epik_Ionization_Penalty_Neutral>
0.0554234

> <r_epik_State_Penalty>
0.0476717

> <r_epik_Charging_Adjusted_Penalty>
0.0476717

> <i_epik_Tot_Q>
0

> <i_epik_Tot_abs_Q>
0

> <r_epik_Metal_State_Penalty>
4.96399e-05

> <b_epik_Metal_Only>
0

> <s_lp_Force_Field>
OPLS_2005

> <r_lp_Energy>
17.4445

> <b_lp_Chiralities_Consistent>
1

> <s_lp_Variant>
AV-unprocessed.smi:848-1

> <Gold.Version>
5.8.1

> <Gold.Id.Protein>
6NUR|6NUR_protein|mol2

> <Gold.PLP.Fitness>
49.3894

> <Gold.PLP.PLP>
-45.2157

> <Gold.PLP.part.hbond>
-2.0000

> <Gold.PLP.part.metal>
0.0000

> <Gold.PLP.part.buried>
-6.4742

> <Gold.PLP.part.nonpolar>
-37.5180

> <Gold.PLP.part.repulsive>
0.1929

> <Gold.PLP.ligand.clash>
0.0000

> <Gold.PLP.ligand.torsion>
0.8746

> <Gold.PLP.Chemscore.Hbond>
1.9588

> <Gold.PLP.Chemscore.CHOScore>
0.0000

> <Gold.PLP.Chemscore.Metal>
0.0000

> <Gold.Chemscore.Hbonds>
donor molecule, donor type, donor heavy atom, donor atom, acceptor molecule, acceptor atom, score
      P1  H  6896  6908       L1    16  0.68
      P1  H  7989  7998       L1    11  1.00

> <Gold.PLP.Chemscore.Internal.Correction>
0.0467

> <Gold.Rescore>
     Score         DG    S(hbond)    S(metal)    S(lipo)     H(rot)  DE(clash)    DE(int)     intcor
     16.10     -17.24       1.71        0.00     116.35       2.96       0.09       1.05       ----

> <Gold.Chemscore.Fitness>
16.0956

> <Gold.Chemscore.DG>
-17.2397

> <Gold.Chemscore.ZeroCoef>
-5.4800

> <Gold.Chemscore.Hbond>
1.7109

> <Gold.Chemscore.Metal>
0.0000

> <Gold.Chemscore.Lipo>
116.3495

> <Gold.Chemscore.Internal_Hbond>
0.0000

> <Gold.Chemscore.DEClash>
0.0935

> <Gold.Chemscore.DEInternal>
1.0506

> <Gold.Chemscore.Rot>
2.9561

> <Gold.Chemscore.Internal.Correction>
   9.000000E+99

> <Gold.Chemscore.Hbonds>
donor molecule, donor type, donor heavy atom, donor atom, acceptor molecule, acceptor atom, score
      P1  H  6896  6908       L1    16  0.11
      P1  H  7989  7998       L1    11  0.25

> <Gold.Chemscore.Hbond.Weighted>
-5.7145

> <Gold.Chemscore.Metal.Weighted>
-0.0000

> <Gold.Chemscore.Lipo.Weighted>
-13.6129

> <Gold.Chemscore.Internal_Hbond.Weighted>
0.0000

> <Gold.Chemscore.DEClash.Weighted>
0.0935

> <Gold.Chemscore.DEInternal.Weighted>
1.0506

> <Gold.Chemscore.Rot.Weighted>
7.5677

> <Gold.Chemscore.Internal.Correction.Weighted>
   9.000000E+99

> <Gold.Protein.RotatedTorsions>
[ 6907 6896 6895 6894 ] final -124.75 input  -60.11 | X-H torsion
[ 7974 7965 7964 7962 ] final  -18.38 input  175.53 | X-H torsion
[ 8008 7997 7996 7995 ] final  172.51 input   59.86 | X-H torsion
[ 10167 10162 10161 10158 ] final   14.99 input  -65.29 | X-H torsion
[ 10718 10713 10712 10709 ] final  -53.25 input   66.30 | X-H torsion
[ 10763 10752 10751 10750 ] final   22.51 input  -60.55 | X-H torsion
[ 11005 11000 10999 10996 ] final  112.32 input  -57.11 | X-H torsion

> <Gold.Protein.ActiveResidues>
 VAL166  LYS551  ARG553  GLY616  TRP617  ASP618  TYR619  PRO620  LYS621  CYS622 
 ASP623  PHE694  ASN695  SER759  ASP760  ASP761  ALA762  ILE779  LEU786  VAL792 
 PHE793  MET794  SER795  GLU796  ALA797  LYS798  CYS799  TRP800  GLU811  SER814 

> <Gold.Protein.RotatedAtoms>
  150.8798  133.7387  159.2935 H   0  0  0  0  0  0  0  0  0  0  0  0  # atno 6907 bound_to 6896
  151.4972  135.1059  159.9829 H   0  0  0  0  0  0  0  0  0  0  0  0  # atno 6908 bound_to 6896
  152.4752  133.8076  159.7042 H   0  0  0  0  0  0  0  0  0  0  0  0  # atno 6909 bound_to 6896
  146.1895  140.3913  142.8463 H   0  0  0  0  0  0  0  0  0  0  0  0  # atno 7974 bound_to 7965
  156.1168  140.1484  156.9262 H   0  0  0  0  0  0  0  0  0  0  0  0  # atno 8008 bound_to 7997
  154.4806  140.0880  156.7410 H   0  0  0  0  0  0  0  0  0  0  0  0  # atno 8009 bound_to 7997
  155.4500  140.3434  155.4302 H   0  0  0  0  0  0  0  0  0  0  0  0  # atno 8010 bound_to 7997
  140.5898  143.8818  150.6863 H   0  0  0  0  0  0  0  0  0  0  0  0  # atno 10167 bound_to 10162
  156.1551  130.4150  149.9881 H   0  0  0  0  0  0  0  0  0  0  0  0  # atno 10718 bound_to 10713
  153.0910  135.6647  153.9854 H   0  0  0  0  0  0  0  0  0  0  0  0  # atno 10763 bound_to 10752
  153.9451  135.2990  155.3442 H   0  0  0  0  0  0  0  0  0  0  0  0  # atno 10764 bound_to 10752
  154.7324  135.5117  153.9059 H   0  0  0  0  0  0  0  0  0  0  0  0  # atno 10765 bound_to 10752
  139.8924  134.9527  156.6567 H   0  0  0  0  0  0  0  0  0  0  0  0  # atno 11005 bound_to 11000
  144.8459  140.6929  143.6199 LP  0  0  0  0  0  0  0  0  0  0  0  0  # atno 17320 bound_to 7965
  145.3836  139.1631  143.4267 LP  0  0  0  0  0  0  0  0  0  0  0  0  # atno 17321 bound_to 7965
  140.2338  143.3716  152.1544 LP  0  0  0  0  0  0  0  0  0  0  0  0  # atno 17342 bound_to 10162
  139.5220  144.7054  151.5371 LP  0  0  0  0  0  0  0  0  0  0  0  0  # atno 17343 bound_to 10162
  156.7727  130.9192  151.3644 LP  0  0  0  0  0  0  0  0  0  0  0  0  # atno 17370 bound_to 10713
  157.6689  130.9032  149.9994 LP  0  0  0  0  0  0  0  0  0  0  0  0  # atno 17371 bound_to 10713
  140.7478  133.8923  155.8325 LP  0  0  0  0  0  0  0  0  0  0  0  0  # atno 17394 bound_to 11000
  141.0025  134.1131  157.4303 LP  0  0  0  0  0  0  0  0  0  0  0  0  # atno 17395 bound_to 11000

$$$$
