AV-unprocessed.smi:1762|AV-procd|sdf|7119|dock10
  -GOLD-   22720 8353D 1   1.00000     0.00000
 Structure written by MMmdl.
 52 53  0  0  0  0  0  0  0  0  3 V2000
  150.9529  134.5970  155.6490 C   0  0  0  0  0  0  0  0  0  0  0  0
  149.7568  135.1835  154.8908 C   0  0  2  0  0  0  0  0  0  0  0  0
  149.7586  136.7234  154.9138 C   0  0  0  0  0  0  0  0  0  0  0  0
  148.5444  137.2684  154.2477 N   0  3  2  0  0  0  0  0  0  0  0  0
  148.4951  138.7651  154.1309 C   0  0  2  0  0  0  0  0  0  0  0  0
  148.7659  139.4285  155.5037 C   0  0  0  0  0  0  0  0  0  0  0  0
  148.0458  139.1233  156.4607 O   0  0  0  0  0  0  0  0  0  0  0  0
  149.8356  140.2665  155.4423 N   0  5  0  0  0  0  0  0  0  0  0  0
  150.0266  141.4232  156.3154 C   0  0  0  0  0  0  0  0  0  0  0  0
  151.4168  141.3622  156.9902 C   0  0  0  0  0  0  0  0  0  0  0  0
  151.7121  142.4869  157.9804 C   0  0  0  0  0  0  0  0  0  0  0  0
  151.6520  143.8391  157.5720 C   0  0  0  0  0  0  0  0  0  0  0  0
  151.9430  144.8434  158.5146 C   0  0  0  0  0  0  0  0  0  0  0  0
  152.2910  144.4638  159.8248 C   0  0  0  0  0  0  0  0  0  0  0  0
  152.3324  143.0901  160.1347 C   0  0  0  0  0  0  0  0  0  0  0  0
  152.0554  142.1185  159.2389 N   0  0  0  0  0  0  0  0  0  0  0  0
  147.1878  139.3314  153.4782 C   0  0  0  0  0  0  0  0  0  0  0  0
  146.8573  138.6677  152.1267 C   0  0  0  0  0  0  0  0  0  0  0  0
  147.1552  140.8678  153.3357 C   0  0  0  0  0  0  0  0  0  0  0  0
  147.3360  136.6963  154.9094 C   0  0  0  0  0  0  0  0  0  0  0  0
  147.3622  135.1577  154.9126 C   0  0  1  0  0  0  0  0  0  0  0  0
  147.1052  134.5370  153.5277 C   0  0  0  0  0  0  0  0  0  0  0  0
  148.5715  134.6914  155.5051 O   0  0  0  0  0  0  0  0  0  0  0  0
  151.8960  134.9254  155.2112 H   0  0  0  0  0  0  0  0  0  0  0  0
  150.9360  133.5071  155.6199 H   0  0  0  0  0  0  0  0  0  0  0  0
  150.9454  134.9021  156.6958 H   0  0  0  0  0  0  0  0  0  0  0  0
  149.8096  134.8339  153.8595 H   0  0  0  0  0  0  0  0  0  0  0  0
  149.8065  137.0923  155.9397 H   0  0  0  0  0  0  0  0  0  0  0  0
  150.6676  137.0484  154.4126 H   0  0  0  0  0  0  0  0  0  0  0  0
  149.3046  139.0234  153.4430 H   0  0  0  0  0  0  0  0  0  0  0  0
  149.9303  142.3608  155.7674 H   0  0  0  0  0  0  0  0  0  0  0  0
  149.2725  141.4643  157.1028 H   0  0  0  0  0  0  0  0  0  0  0  0
  151.5095  140.4127  157.5192 H   0  0  0  0  0  0  0  0  0  0  0  0
  152.1962  141.3481  156.2270 H   0  0  0  0  0  0  0  0  0  0  0  0
  151.3787  144.0985  156.5597 H   0  0  0  0  0  0  0  0  0  0  0  0
  151.9001  145.8862  158.2369 H   0  0  0  0  0  0  0  0  0  0  0  0
  152.5212  145.2066  160.5739 H   0  0  0  0  0  0  0  0  0  0  0  0
  152.5973  142.7623  161.1290 H   0  0  0  0  0  0  0  0  0  0  0  0
  146.3535  139.0492  154.1189 H   0  0  0  0  0  0  0  0  0  0  0  0
  147.5716  138.9436  151.3504 H   0  0  0  0  0  0  0  0  0  0  0  0
  145.8683  138.9646  151.7770 H   0  0  0  0  0  0  0  0  0  0  0  0
  146.8617  137.5804  152.2105 H   0  0  0  0  0  0  0  0  0  0  0  0
  147.8603  141.2191  152.5826 H   0  0  0  0  0  0  0  0  0  0  0  0
  147.3931  141.3732  154.2711 H   0  0  0  0  0  0  0  0  0  0  0  0
  146.1651  141.2047  153.0280 H   0  0  0  0  0  0  0  0  0  0  0  0
  147.2898  137.0625  155.9362 H   0  0  0  0  0  0  0  0  0  0  0  0
  146.4143  137.0206  154.4271 H   0  0  0  0  0  0  0  0  0  0  0  0
  146.5582  134.8147  155.5646 H   0  0  0  0  0  0  0  0  0  0  0  0
  146.1122  134.8036  153.1647 H   0  0  0  0  0  0  0  0  0  0  0  0
  147.1576  133.4492  153.5730 H   0  0  0  0  0  0  0  0  0  0  0  0
  147.8219  134.8773  152.7807 H   0  0  0  0  0  0  0  0  0  0  0  0
  148.5515  136.9200  153.2997 H   0  0  0  0  0  0  0  0  0  0  0  0
  1  2  1  0  0  0  0
  1 24  1  0  0  0  0
  1 25  1  0  0  0  0
  1 26  1  0  0  0  0
  2 23  1  0  0  0  0
  2  3  1  0  0  0  0
  2 27  1  0  0  0  0
  3  4  1  0  0  0  0
  3 28  1  0  0  0  0
  3 29  1  0  0  0  0
  4  5  1  0  0  0  0
  4 20  1  0  0  0  0
  4 52  1  0  0  0  0
  5  6  1  0  0  0  0
  5 17  1  0  0  0  0
  5 30  1  0  0  0  0
  6  7  2  0  0  0  0
  6  8  1  0  0  0  0
  8  9  1  0  0  0  0
  9 10  1  0  0  0  0
  9 31  1  0  0  0  0
  9 32  1  0  0  0  0
 10 11  1  0  0  0  0
 10 33  1  0  0  0  0
 10 34  1  0  0  0  0
 11 16  1  0  0  0  0
 11 12  2  0  0  0  0
 12 13  1  0  0  0  0
 12 35  1  0  0  0  0
 13 14  2  0  0  0  0
 13 36  1  0  0  0  0
 14 15  1  0  0  0  0
 14 37  1  0  0  0  0
 15 16  2  0  0  0  0
 15 38  1  0  0  0  0
 17 18  1  0  0  0  0
 17 19  1  0  0  0  0
 17 39  1  0  0  0  0
 18 40  1  0  0  0  0
 18 41  1  0  0  0  0
 18 42  1  0  0  0  0
 19 43  1  0  0  0  0
 19 44  1  0  0  0  0
 19 45  1  0  0  0  0
 20 21  1  0  0  0  0
 20 46  1  0  0  0  0
 20 47  1  0  0  0  0
 21 22  1  0  0  0  0
 21 23  1  0  0  0  0
 21 48  1  0  0  0  0
 22 49  1  0  0  0  0
 22 50  1  0  0  0  0
 22 51  1  0  0  0  0
M  CHG  1   4   1
M  CHG  1   8  -1
M  END
> <s_m_source_file>
AV-unprocessed.smi

> <i_m_source_file_index>
1762

> <i_lp_mmshare_version>
43012

> <i_f3d_flags>
0

> <s_epik_input>
W0NIM11bQ0BASF0xW0NIMl1OKFtDSDJdW0NASF0oTzEpW0NIM10pW0NAQEhdKFtDSF0oW0NIM10pW0NIM10pQyg9TylbTkhdW0NIMl1bQ0gyXWMyW2NIXVtjSF1bY0hdW2NIXW4y

> <s_epik_cmdline>
J2VwaWtfcHl0aG9uJywgJy1waCcsICc3LjAnLCAnLXRuJywgJzgnLCAnLW1hJywgJzIwMCcsICctbWV0YWxfYmluZGluZycsICctaW1hZScsICc8aW5maWxlLm1hZT4nLCAnLW9tYWUnLCAnPG91dGZpbGUubWFlPic=

> <r_epik_Ionization_Penalty>
7.82966

> <r_epik_Ionization_Penalty_Charging>
7.7461

> <r_epik_Ionization_Penalty_Neutral>
0.0835571

> <r_epik_State_Penalty>
8.52273

> <r_epik_Charging_Adjusted_Penalty>
16.2688

> <i_epik_Tot_Q>
0

> <i_epik_Tot_abs_Q>
2

> <r_epik_Metal_State_Penalty>
4.47451

> <b_epik_Metal_Only>
1

> <s_lp_Force_Field>
OPLS_2005

> <r_lp_Energy>
24.7252

> <b_lp_Chiralities_Consistent>
1

> <s_lp_Variant>
AV-unprocessed.smi:1762-21

> <Gold.Version>
5.8.1

> <Gold.Id.Protein>
6NUR|6NUR_protein|mol2

> <Gold.PLP.Fitness>
44.9694

> <Gold.PLP.PLP>
-39.5179

> <Gold.PLP.part.hbond>
-1.0000

> <Gold.PLP.part.metal>
0.0000

> <Gold.PLP.part.buried>
-3.5005

> <Gold.PLP.part.nonpolar>
-35.1879

> <Gold.PLP.part.repulsive>
0.1064

> <Gold.PLP.ligand.clash>
0.0000

> <Gold.PLP.ligand.torsion>
0.4505

> <Gold.PLP.Chemscore.Hbond>
2.0000

> <Gold.PLP.Chemscore.CHOScore>
0.0000

> <Gold.PLP.Chemscore.Metal>
0.0000

> <Gold.Chemscore.Hbonds>
donor molecule, donor type, donor heavy atom, donor atom, acceptor molecule, acceptor atom, score
      L1  H     4    52       P1  7948  2.00

> <Gold.PLP.Chemscore.Internal.Correction>
0.3526

> <Gold.Rescore>
     Score         DG    S(hbond)    S(metal)    S(lipo)     H(rot)  DE(clash)    DE(int)     intcor
     17.90     -18.58       1.00        0.00     118.48       1.60       0.03       0.64       ----

> <Gold.Chemscore.Fitness>
17.9040

> <Gold.Chemscore.DG>
-18.5834

> <Gold.Chemscore.ZeroCoef>
-5.4800

> <Gold.Chemscore.Hbond>
1.0000

> <Gold.Chemscore.Metal>
0.0000

> <Gold.Chemscore.Lipo>
118.4816

> <Gold.Chemscore.Internal_Hbond>
0.0000

> <Gold.Chemscore.DEClash>
0.0345

> <Gold.Chemscore.DEInternal>
0.6448

> <Gold.Chemscore.Rot>
1.6012

> <Gold.Chemscore.Internal.Correction>
   9.000000E+99

> <Gold.Chemscore.Hbonds>
donor molecule, donor type, donor heavy atom, donor atom, acceptor molecule, acceptor atom, score
      L1  H     4    52       P1  7948  0.99

> <Gold.Chemscore.Hbond.Weighted>
-3.3400

> <Gold.Chemscore.Metal.Weighted>
-0.0000

> <Gold.Chemscore.Lipo.Weighted>
-13.8623

> <Gold.Chemscore.Internal_Hbond.Weighted>
0.0000

> <Gold.Chemscore.DEClash.Weighted>
0.0345

> <Gold.Chemscore.DEInternal.Weighted>
0.6448

> <Gold.Chemscore.Rot.Weighted>
4.0990

> <Gold.Chemscore.Internal.Correction.Weighted>
   9.000000E+99

> <Gold.Protein.RotatedTorsions>
[ 6907 6896 6895 6894 ] final  -70.31 input  -60.11 | X-H torsion
[ 7974 7965 7964 7962 ] final  -27.79 input  175.53 | X-H torsion
[ 8008 7997 7996 7995 ] final  -28.29 input   59.86 | X-H torsion
[ 10167 10162 10161 10158 ] final  142.56 input  -65.29 | X-H torsion
[ 10718 10713 10712 10709 ] final  -36.15 input   66.30 | X-H torsion
[ 10763 10752 10751 10750 ] final  101.87 input  -60.55 | X-H torsion
[ 11005 11000 10999 10996 ] final  -59.38 input  -57.11 | X-H torsion

> <Gold.Protein.ActiveResidues>
 VAL166  LYS551  ARG553  GLY616  TRP617  ASP618  TYR619  PRO620  LYS621  CYS622 
 ASP623  PHE694  ASN695  SER759  ASP760  ASP761  ALA762  ILE779  LEU786  VAL792 
 PHE793  MET794  SER795  GLU796  ALA797  LYS798  CYS799  TRP800  GLU811  SER814 

> <Gold.Protein.RotatedAtoms>
  150.7264  134.5472  159.5776 H   0  0  0  0  0  0  0  0  0  0  0  0  # atno 6907 bound_to 6896
  152.2968  134.7655  160.0375 H   0  0  0  0  0  0  0  0  0  0  0  0  # atno 6908 bound_to 6896
  151.8249  133.3364  159.3632 H   0  0  0  0  0  0  0  0  0  0  0  0  # atno 6909 bound_to 6896
  146.1333  140.5198  142.8684 H   0  0  0  0  0  0  0  0  0  0  0  0  # atno 7974 bound_to 7965
  154.4339  140.1849  156.1067 H   0  0  0  0  0  0  0  0  0  0  0  0  # atno 8008 bound_to 7997
  156.0250  140.3336  155.7053 H   0  0  0  0  0  0  0  0  0  0  0  0  # atno 8009 bound_to 7997
  155.5922  140.0632  157.2746 H   0  0  0  0  0  0  0  0  0  0  0  0  # atno 8010 bound_to 7997
  139.4991  144.6099  151.6296 H   0  0  0  0  0  0  0  0  0  0  0  0  # atno 10167 bound_to 10162
  156.3302  130.4278  149.7879 H   0  0  0  0  0  0  0  0  0  0  0  0  # atno 10718 bound_to 10713
  153.3323  135.4029  155.1505 H   0  0  0  0  0  0  0  0  0  0  0  0  # atno 10763 bound_to 10752
  154.8626  135.3613  154.5454 H   0  0  0  0  0  0  0  0  0  0  0  0  # atno 10764 bound_to 10752
  153.5894  135.7074  153.5489 H   0  0  0  0  0  0  0  0  0  0  0  0  # atno 10765 bound_to 10752
  141.1246  133.6616  156.5062 H   0  0  0  0  0  0  0  0  0  0  0  0  # atno 11005 bound_to 11000
  144.7713  140.5644  143.6668 LP  0  0  0  0  0  0  0  0  0  0  0  0  # atno 17320 bound_to 7965
  145.5212  139.1476  143.3551 LP  0  0  0  0  0  0  0  0  0  0  0  0  # atno 17321 bound_to 7965
  140.5770  144.0011  150.6247 LP  0  0  0  0  0  0  0  0  0  0  0  0  # atno 17342 bound_to 10162
  140.3147  143.3175  152.0843 LP  0  0  0  0  0  0  0  0  0  0  0  0  # atno 17343 bound_to 10162
  156.5154  130.8191  151.3184 LP  0  0  0  0  0  0  0  0  0  0  0  0  # atno 17370 bound_to 10713
  157.7429  130.9900  150.2550 LP  0  0  0  0  0  0  0  0  0  0  0  0  # atno 17371 bound_to 10713
  140.4406  134.7019  157.4989 LP  0  0  0  0  0  0  0  0  0  0  0  0  # atno 17394 bound_to 11000
  140.0232  134.6516  155.9210 LP  0  0  0  0  0  0  0  0  0  0  0  0  # atno 17395 bound_to 11000

$$$$
