AV-unprocessed.smi:1128|AV-procd|sdf|4842|dock6
  -GOLD-   22720 3413D 1   1.00000     0.00000
 Structure written by MMmdl.
 38 39  0  0  0  0  0  0  0  0  1 V2000
  149.8317  136.3336  158.9513 O   0  0  0  0  0  0  0  0  0  0  0  0
  149.2932  137.3753  159.3234 C   0  0  0  0  0  0  0  0  0  0  0  0
  149.5747  138.5769  158.7988 N   0  0  0  0  0  0  0  0  0  0  0  0
  150.5432  138.8382  157.7375 C   0  0  0  0  0  0  0  0  0  0  0  0
  151.5618  139.9269  158.1321 C   0  0  2  0  0  0  0  0  0  0  0  0
  152.3866  139.5479  159.3855 C   0  0  0  0  0  0  0  0  0  0  0  0
  153.1792  140.7171  159.9423 C   0  0  0  0  0  0  0  0  0  0  0  0
  152.9556  141.9955  159.5954 C   0  0  0  0  0  0  0  0  0  0  0  0
  151.8784  142.4157  158.6134 C   0  0  0  0  0  0  0  0  0  0  0  0
  150.8675  141.2868  158.3385 C   0  0  0  0  0  0  0  0  0  0  0  0
  148.3655  137.4859  160.2925 N   0  0  0  0  0  0  0  0  0  0  0  0
  147.7858  136.4966  161.1065 C   0  0  0  0  0  0  0  0  0  0  0  0
  147.8048  135.1607  160.8556 C   0  0  0  0  0  0  0  0  0  0  0  0
  147.1845  134.1984  161.7511 C   0  0  0  0  0  0  0  0  0  0  0  0
  147.1657  132.7119  161.4296 C   0  0  0  0  0  0  0  0  0  0  0  0
  145.9215  132.2316  161.4235 F   0  0  0  0  0  0  0  0  0  0  0  0
  147.7114  132.4755  160.2365 F   0  0  0  0  0  0  0  0  0  0  0  0
  147.8651  132.0423  162.3445 F   0  0  0  0  0  0  0  0  0  0  0  0
  146.5632  134.6992  162.8345 C   0  0  0  0  0  0  0  0  0  0  0  0
  146.5419  136.0693  163.1022 N   0  0  0  0  0  0  0  0  0  0  0  0
  147.1109  137.0069  162.3122 C   0  0  0  0  0  0  0  0  0  0  0  0
  147.0453  138.1972  162.6178 O   0  0  0  0  0  0  0  0  0  0  0  0
  146.0648  136.3657  163.9414 H   0  0  0  0  0  0  0  0  0  0  0  0
  149.0842  139.3785  159.1675 H   0  0  0  0  0  0  0  0  0  0  0  0
  151.0662  137.9019  157.5414 H   0  0  0  0  0  0  0  0  0  0  0  0
  150.0448  139.1046  156.8037 H   0  0  0  0  0  0  0  0  0  0  0  0
  152.2573  140.0451  157.2992 H   0  0  0  0  0  0  0  0  0  0  0  0
  151.7324  139.1801  160.1767 H   0  0  0  0  0  0  0  0  0  0  0  0
  153.0809  138.7414  159.1481 H   0  0  0  0  0  0  0  0  0  0  0  0
  153.9520  140.4833  160.6598 H   0  0  0  0  0  0  0  0  0  0  0  0
  153.5664  142.7812  160.0152 H   0  0  0  0  0  0  0  0  0  0  0  0
  151.3587  143.2922  159.0012 H   0  0  0  0  0  0  0  0  0  0  0  0
  152.3660  142.7196  157.6867 H   0  0  0  0  0  0  0  0  0  0  0  0
  150.2661  141.5452  157.4663 H   0  0  0  0  0  0  0  0  0  0  0  0
  150.1733  141.2103  159.1766 H   0  0  0  0  0  0  0  0  0  0  0  0
  148.0416  138.4220  160.4883 H   0  0  0  0  0  0  0  0  0  0  0  0
  148.2827  134.7616  159.9772 H   0  0  0  0  0  0  0  0  0  0  0  0
  146.0406  134.1022  163.5674 H   0  0  0  0  0  0  0  0  0  0  0  0
  1  2  2  0  0  0  0
  2  3  1  0  0  0  0
  2 11  1  0  0  0  0
  3  4  1  0  0  0  0
  3 24  1  0  0  0  0
  4  5  1  0  0  0  0
  4 25  1  0  0  0  0
  4 26  1  0  0  0  0
  5 10  1  0  0  0  0
  5  6  1  0  0  0  0
  5 27  1  0  0  0  0
  6  7  1  0  0  0  0
  6 28  1  0  0  0  0
  6 29  1  0  0  0  0
  7  8  2  0  0  0  0
  7 30  1  0  0  0  0
  8  9  1  0  0  0  0
  8 31  1  0  0  0  0
  9 10  1  0  0  0  0
  9 32  1  0  0  0  0
  9 33  1  0  0  0  0
 10 34  1  0  0  0  0
 10 35  1  0  0  0  0
 11 12  1  0  0  0  0
 11 36  1  0  0  0  0
 12 21  1  0  0  0  0
 12 13  2  0  0  0  0
 13 14  1  0  0  0  0
 13 37  1  0  0  0  0
 14 15  1  0  0  0  0
 14 19  2  0  0  0  0
 15 16  1  0  0  0  0
 15 17  1  0  0  0  0
 15 18  1  0  0  0  0
 19 20  1  0  0  0  0
 19 38  1  0  0  0  0
 20 23  1  0  0  0  0
 20 21  1  0  0  0  0
 21 22  2  0  0  0  0
M  END
> <s_m_source_file>
AV-unprocessed.smi

> <i_m_source_file_index>
1128

> <i_lp_mmshare_version>
43012

> <i_f3d_flags>
0

> <s_epik_input>
Tz1jMVtuSF1bY0hdYyhDKEYpKEYpRilbY0hdYzFbTkhdQyg9TylbTkhdW0NIMl1bQ0BASF0yW0NIMl1bQ0hdPVtDSF1bQ0gyXVtDSDJdMg==

> <s_epik_cmdline>
J2VwaWtfcHl0aG9uJywgJy1waCcsICc3LjAnLCAnLXRuJywgJzgnLCAnLW1hJywgJzIwMCcsICctbWV0YWxfYmluZGluZycsICctaW1hZScsICc8aW5maWxlLm1hZT4nLCAnLW9tYWUnLCAnPG91dGZpbGUubWFlPic=

> <r_lp_tautomer_probability>
1

> <r_epik_Ionization_Penalty>
0.00381734

> <r_epik_Ionization_Penalty_Charging>
0.00379608

> <r_epik_Ionization_Penalty_Neutral>
2.12611e-05

> <r_epik_State_Penalty>
-0

> <r_epik_Charging_Adjusted_Penalty>
0.00379608

> <i_epik_Tot_Q>
0

> <i_epik_Tot_abs_Q>
0

> <r_epik_Metal_State_Penalty>
0.371155

> <b_epik_Metal_Only>
0

> <s_lp_Force_Field>
OPLS_2005

> <r_lp_Energy>
20.2087

> <b_lp_Chiralities_Consistent>
1

> <s_lp_Variant>
AV-unprocessed.smi:1128-1

> <Gold.Version>
5.8.1

> <Gold.Id.Protein>
6NUR|6NUR_protein|mol2

> <Gold.PLP.Fitness>
43.6664

> <Gold.PLP.PLP>
-38.0980

> <Gold.PLP.part.hbond>
-3.0000

> <Gold.PLP.part.metal>
0.0000

> <Gold.PLP.part.buried>
-6.0087

> <Gold.PLP.part.nonpolar>
-30.1441

> <Gold.PLP.part.repulsive>
1.2174

> <Gold.PLP.ligand.clash>
0.0000

> <Gold.PLP.ligand.torsion>
0.2013

> <Gold.PLP.Chemscore.Hbond>
1.9785

> <Gold.PLP.Chemscore.CHOScore>
0.0000

> <Gold.PLP.Chemscore.Metal>
0.0000

> <Gold.Chemscore.Hbonds>
donor molecule, donor type, donor heavy atom, donor atom, acceptor molecule, acceptor atom, score
      P1  H  6896  6907       L1     1  0.98
      P1  H  6931  6943       L1    22  0.05
      P1  H  6934  6947       L1    22  0.21

> <Gold.PLP.Chemscore.Internal.Correction>
0.0354

> <Gold.Rescore>
     Score         DG    S(hbond)    S(metal)    S(lipo)     H(rot)  DE(clash)    DE(int)     intcor
     16.50     -17.67       2.08        0.00      73.43       1.30       0.01       1.16       ----

> <Gold.Chemscore.Fitness>
16.4951

> <Gold.Chemscore.DG>
-17.6734

> <Gold.Chemscore.ZeroCoef>
-5.4800

> <Gold.Chemscore.Hbond>
2.0779

> <Gold.Chemscore.Metal>
0.0000

> <Gold.Chemscore.Lipo>
73.4268

> <Gold.Chemscore.Internal_Hbond>
0.0000

> <Gold.Chemscore.DEClash>
0.0149

> <Gold.Chemscore.DEInternal>
1.1635

> <Gold.Chemscore.Rot>
1.3038

> <Gold.Chemscore.Internal.Correction>
   9.000000E+99

> <Gold.Chemscore.Hbonds>
donor molecule, donor type, donor heavy atom, donor atom, acceptor molecule, acceptor atom, score
      P1  H  6896  6907       L1     1  0.89
      P1  H  6934  6947       L1    22  0.08

> <Gold.Chemscore.Hbond.Weighted>
-6.9402

> <Gold.Chemscore.Metal.Weighted>
-0.0000

> <Gold.Chemscore.Lipo.Weighted>
-8.5909

> <Gold.Chemscore.Internal_Hbond.Weighted>
0.0000

> <Gold.Chemscore.DEClash.Weighted>
0.0149

> <Gold.Chemscore.DEInternal.Weighted>
1.1635

> <Gold.Chemscore.Rot.Weighted>
3.3377

> <Gold.Chemscore.Internal.Correction.Weighted>
   9.000000E+99

> <Gold.Protein.RotatedTorsions>
[ 6907 6896 6895 6894 ] final  -69.00 input  -60.11 | X-H torsion
[ 7974 7965 7964 7962 ] final    3.19 input  175.53 | X-H torsion
[ 8008 7997 7996 7995 ] final -174.82 input   59.86 | X-H torsion
[ 10167 10162 10161 10158 ] final  140.99 input  -65.29 | X-H torsion
[ 10718 10713 10712 10709 ] final   58.50 input   66.30 | X-H torsion
[ 10763 10752 10751 10750 ] final  178.86 input  -60.55 | X-H torsion
[ 11005 11000 10999 10996 ] final   40.78 input  -57.11 | X-H torsion

> <Gold.Protein.ActiveResidues>
 VAL166  LYS551  ARG553  GLY616  TRP617  ASP618  TYR619  PRO620  LYS621  CYS622 
 ASP623  PHE694  ASN695  SER759  ASP760  ASP761  ALA762  ILE779  LEU786  VAL792 
 PHE793  MET794  SER795  GLU796  ALA797  LYS798  CYS799  TRP800  GLU811  SER814 

> <Gold.Protein.RotatedAtoms>
  150.7327  134.5659  159.5865 H   0  0  0  0  0  0  0  0  0  0  0  0  # atno 6907 bound_to 6896
  152.3110  134.7494  160.0345 H   0  0  0  0  0  0  0  0  0  0  0  0  # atno 6908 bound_to 6896
  151.8042  133.3338  159.3572 H   0  0  0  0  0  0  0  0  0  0  0  0  # atno 6909 bound_to 6896
  146.2445  140.0722  142.8362 H   0  0  0  0  0  0  0  0  0  0  0  0  # atno 7974 bound_to 7965
  155.9749  140.1170  157.0779 H   0  0  0  0  0  0  0  0  0  0  0  0  # atno 8008 bound_to 7997
  154.4166  140.1156  156.5424 H   0  0  0  0  0  0  0  0  0  0  0  0  # atno 8009 bound_to 7997
  155.6548  140.3473  155.4763 H   0  0  0  0  0  0  0  0  0  0  0  0  # atno 8010 bound_to 7997
  139.5033  144.6200  151.6074 H   0  0  0  0  0  0  0  0  0  0  0  0  # atno 10167 bound_to 10162
  157.5601  130.8829  149.9097 H   0  0  0  0  0  0  0  0  0  0  0  0  # atno 10718 bound_to 10713
  154.5132  135.2789  155.1325 H   0  0  0  0  0  0  0  0  0  0  0  0  # atno 10763 bound_to 10752
  154.2912  135.6266  153.5390 H   0  0  0  0  0  0  0  0  0  0  0  0  # atno 10764 bound_to 10752
  152.9922  135.5674  154.5602 H   0  0  0  0  0  0  0  0  0  0  0  0  # atno 10765 bound_to 10752
  140.1897  134.4001  155.8153 H   0  0  0  0  0  0  0  0  0  0  0  0  # atno 11005 bound_to 11000
  145.0806  140.9218  143.4827 LP  0  0  0  0  0  0  0  0  0  0  0  0  # atno 17320 bound_to 7965
  145.0874  139.2915  143.5752 LP  0  0  0  0  0  0  0  0  0  0  0  0  # atno 17321 bound_to 7965
  140.5899  143.9798  150.6318 LP  0  0  0  0  0  0  0  0  0  0  0  0  # atno 17342 bound_to 10162
  140.2975  143.3283  152.1004 LP  0  0  0  0  0  0  0  0  0  0  0  0  # atno 17343 bound_to 10162
  156.0655  130.3693  150.0889 LP  0  0  0  0  0  0  0  0  0  0  0  0  # atno 17370 bound_to 10713
  156.9053  130.9634  151.3570 LP  0  0  0  0  0  0  0  0  0  0  0  0  # atno 17371 bound_to 10713
  141.2226  133.7040  156.8074 LP  0  0  0  0  0  0  0  0  0  0  0  0  # atno 17394 bound_to 11000
  140.2173  134.8783  157.3339 LP  0  0  0  0  0  0  0  0  0  0  0  0  # atno 17395 bound_to 11000

$$$$
