AV-unprocessed.smi:2855|AV-procd|sdf|10988|dock2
  -GOLD-   2272015443D 1   1.00000     0.00000
 Structure written by MMmdl.
 46 47  0  0  0  0  0  0  0  0  2 V2000
  152.2343  145.0633  158.7781 C   0  0  0  0  0  0  0  0  0  0  0  0
  152.4812  143.5514  158.6752 C   0  0  1  0  0  0  0  0  0  0  0  0
  152.5423  142.8957  160.0641 C   0  0  0  0  0  0  0  0  0  0  0  0
  152.8000  141.3859  159.9574 C   0  0  0  0  0  0  0  0  0  0  0  0
  151.7289  140.6722  159.0984 C   0  0  2  0  0  0  0  0  0  0  0  0
  151.9146  139.1249  159.0561 C   0  0  0  0  0  0  0  0  0  0  0  0
  153.0987  138.6996  158.1708 C   0  0  0  0  0  0  0  0  0  0  0  0
  150.6426  138.3492  158.6666 C   0  0  0  0  0  0  0  0  0  0  0  0
  151.6336  141.3431  157.6972 C   0  0  1  0  0  0  0  0  0  0  0  0
  150.5312  140.7835  156.9161 N   0  0  0  0  0  0  0  0  0  0  0  0
  150.6114  140.2819  155.6738 C   0  0  0  0  0  0  0  0  0  0  0  0
  151.6558  140.2474  155.0226 O   0  0  0  0  0  0  0  0  0  0  0  0
  149.2982  139.7467  155.0879 C   0  0  0  0  0  0  0  0  0  0  0  0
  148.2285  140.7566  155.0589 N   0  0  0  0  0  0  0  0  0  0  0  0
  147.8151  141.2185  153.7970 C   0  0  0  0  0  0  0  0  0  0  0  0
  146.8411  142.1379  153.6599 C   0  0  0  0  0  0  0  0  0  0  0  0
  146.2091  142.6577  154.8661 C   0  0  0  0  0  0  0  0  0  0  0  0
  145.3102  143.4897  154.7599 O   0  0  0  0  0  0  0  0  0  0  0  0
  146.6530  142.1871  156.0683 N   0  5  0  0  0  0  0  0  0  0  0  0
  147.6479  141.2541  156.1925 C   0  0  0  0  0  0  0  0  0  0  0  0
  148.0350  140.8470  157.2884 O   0  0  0  0  0  0  0  0  0  0  0  0
  151.4071  142.8638  157.8155 C   0  0  0  0  0  0  0  0  0  0  0  0
  151.2784  145.2777  159.2571 H   0  0  0  0  0  0  0  0  0  0  0  0
  152.2236  145.5272  157.7914 H   0  0  0  0  0  0  0  0  0  0  0  0
  153.0158  145.5501  159.3625 H   0  0  0  0  0  0  0  0  0  0  0  0
  153.4475  143.4075  158.1891 H   0  0  0  0  0  0  0  0  0  0  0  0
  153.3302  143.3577  160.6604 H   0  0  0  0  0  0  0  0  0  0  0  0
  151.6079  143.0697  160.5997 H   0  0  0  0  0  0  0  0  0  0  0  0
  153.7905  141.2281  159.5300 H   0  0  0  0  0  0  0  0  0  0  0  0
  152.8276  140.9674  160.9627 H   0  0  0  0  0  0  0  0  0  0  0  0
  150.7694  140.8507  159.5869 H   0  0  0  0  0  0  0  0  0  0  0  0
  152.1827  138.7972  160.0601 H   0  0  0  0  0  0  0  0  0  0  0  0
  152.9065  138.8872  157.1147 H   0  0  0  0  0  0  0  0  0  0  0  0
  153.2987  137.6332  158.2780 H   0  0  0  0  0  0  0  0  0  0  0  0
  154.0099  139.2306  158.4465 H   0  0  0  0  0  0  0  0  0  0  0  0
  150.3418  138.5536  157.6392 H   0  0  0  0  0  0  0  0  0  0  0  0
  149.8027  138.5920  159.3156 H   0  0  0  0  0  0  0  0  0  0  0  0
  150.8068  137.2743  158.7475 H   0  0  0  0  0  0  0  0  0  0  0  0
  152.5784  141.1981  157.1713 H   0  0  0  0  0  0  0  0  0  0  0  0
  149.6260  140.7728  157.3628 H   0  0  0  0  0  0  0  0  0  0  0  0
  149.4763  139.3826  154.0745 H   0  0  0  0  0  0  0  0  0  0  0  0
  148.9979  138.8651  155.6561 H   0  0  0  0  0  0  0  0  0  0  0  0
  148.3385  140.7858  152.9569 H   0  0  0  0  0  0  0  0  0  0  0  0
  146.5364  142.4833  152.6829 H   0  0  0  0  0  0  0  0  0  0  0  0
  150.4228  143.0550  158.2463 H   0  0  0  0  0  0  0  0  0  0  0  0
  151.3965  143.3094  156.8194 H   0  0  0  0  0  0  0  0  0  0  0  0
  1  2  1  0  0  0  0
  1 23  1  0  0  0  0
  1 24  1  0  0  0  0
  1 25  1  0  0  0  0
  2 22  1  0  0  0  0
  2  3  1  0  0  0  0
  2 26  1  0  0  0  0
  3  4  1  0  0  0  0
  3 27  1  0  0  0  0
  3 28  1  0  0  0  0
  4  5  1  0  0  0  0
  4 29  1  0  0  0  0
  4 30  1  0  0  0  0
  5  6  1  0  0  0  0
  5  9  1  0  0  0  0
  5 31  1  0  0  0  0
  6  7  1  0  0  0  0
  6  8  1  0  0  0  0
  6 32  1  0  0  0  0
  7 33  1  0  0  0  0
  7 34  1  0  0  0  0
  7 35  1  0  0  0  0
  8 36  1  0  0  0  0
  8 37  1  0  0  0  0
  8 38  1  0  0  0  0
  9 10  1  0  0  0  0
  9 22  1  0  0  0  0
  9 39  1  0  0  0  0
 10 11  1  0  0  0  0
 10 40  1  0  0  0  0
 11 12  2  0  0  0  0
 11 13  1  0  0  0  0
 13 14  1  0  0  0  0
 13 41  1  0  0  0  0
 13 42  1  0  0  0  0
 14 20  1  0  0  0  0
 14 15  1  0  0  0  0
 15 16  2  0  0  0  0
 15 43  1  0  0  0  0
 16 17  1  0  0  0  0
 16 44  1  0  0  0  0
 17 18  2  0  0  0  0
 17 19  1  0  0  0  0
 19 20  1  0  0  0  0
 20 21  2  0  0  0  0
 22 45  1  0  0  0  0
 22 46  1  0  0  0  0
M  CHG  1  19  -1
M  END
> <s_m_source_file>
AV-unprocessed.smi

> <i_m_source_file_index>
2855

> <i_lp_mmshare_version>
43012

> <i_f3d_flags>
0

> <s_epik_input>
W0NIM11bQ0BASF0xW0NIMl1bQ0gyXVtDQEBIXShbQ0hdKFtDSDNdKVtDSDNdKVtDQEhdKFtDSDJdMSlbTkhdQyg9TylbQ0gyXW4yW2NIXVtjSF1jKD1PKVtuSF1jMj1P

> <s_epik_cmdline>
J2VwaWtfcHl0aG9uJywgJy1waCcsICc3LjAnLCAnLXRuJywgJzgnLCAnLW1hJywgJzIwMCcsICctbWV0YWxfYmluZGluZycsICctaW1hZScsICc8aW5maWxlLm1hZT4nLCAnLW9tYWUnLCAnPG91dGZpbGUubWFlPic=

> <r_lp_tautomer_probability>
0.999537

> <r_epik_Ionization_Penalty>
3.12102

> <r_epik_Ionization_Penalty_Charging>
2.9581e-08

> <r_epik_Ionization_Penalty_Neutral>
3.12102

> <r_epik_State_Penalty>
3.12011

> <r_epik_Charging_Adjusted_Penalty>
3.12011

> <i_epik_Tot_Q>
-1

> <i_epik_Tot_abs_Q>
1

> <r_epik_Metal_State_Penalty>
0.463583

> <b_epik_Metal_Only>
1

> <s_lp_Force_Field>
OPLS_2005

> <r_lp_Energy>
25.0063

> <b_lp_Chiralities_Consistent>
1

> <s_lp_Variant>
AV-unprocessed.smi:2855-12

> <Gold.Version>
5.8.1

> <Gold.Id.Protein>
6NUR|6NUR_protein|mol2

> <Gold.PLP.Fitness>
48.1229

> <Gold.PLP.PLP>
-42.8982

> <Gold.PLP.part.hbond>
-1.0000

> <Gold.PLP.part.metal>
0.0000

> <Gold.PLP.part.buried>
-7.4827

> <Gold.PLP.part.nonpolar>
-35.4518

> <Gold.PLP.part.repulsive>
0.4618

> <Gold.PLP.ligand.clash>
0.0000

> <Gold.PLP.ligand.torsion>
0.3567

> <Gold.PLP.Chemscore.Hbond>
0.9440

> <Gold.PLP.Chemscore.CHOScore>
1.0000

> <Gold.PLP.Chemscore.Metal>
0.0000

> <Gold.Chemscore.Hbonds>
donor molecule, donor type, donor heavy atom, donor atom, acceptor molecule, acceptor atom, score
      P1  H  7989  7998       L1    12  0.94
      L1  C    15    43       P1  7957  1.00

> <Gold.PLP.Chemscore.Internal.Correction>
0.1060

> <Gold.Rescore>
     Score         DG    S(hbond)    S(metal)    S(lipo)     H(rot)  DE(clash)    DE(int)     intcor
     14.22     -16.35       0.94        0.00     105.75       1.81       0.03       2.10       ----

> <Gold.Chemscore.Fitness>
14.2191

> <Gold.Chemscore.DG>
-16.3491

> <Gold.Chemscore.ZeroCoef>
-5.4800

> <Gold.Chemscore.Hbond>
0.9372

> <Gold.Chemscore.Metal>
0.0000

> <Gold.Chemscore.Lipo>
105.7451

> <Gold.Chemscore.Internal_Hbond>
0.0000

> <Gold.Chemscore.DEClash>
0.0303

> <Gold.Chemscore.DEInternal>
2.0996

> <Gold.Chemscore.Rot>
1.8100

> <Gold.Chemscore.Internal.Correction>
   9.000000E+99

> <Gold.Chemscore.Hbonds>
donor molecule, donor type, donor heavy atom, donor atom, acceptor molecule, acceptor atom, score
      P1  H  7989  7998       L1    12  0.88

> <Gold.Chemscore.Hbond.Weighted>
-3.1304

> <Gold.Chemscore.Metal.Weighted>
-0.0000

> <Gold.Chemscore.Lipo.Weighted>
-12.3722

> <Gold.Chemscore.Internal_Hbond.Weighted>
0.0000

> <Gold.Chemscore.DEClash.Weighted>
0.0303

> <Gold.Chemscore.DEInternal.Weighted>
2.0996

> <Gold.Chemscore.Rot.Weighted>
4.6335

> <Gold.Chemscore.Internal.Correction.Weighted>
   9.000000E+99

> <Gold.Protein.RotatedTorsions>
[ 6907 6896 6895 6894 ] final   13.42 input  -60.11 | X-H torsion
[ 7974 7965 7964 7962 ] final -125.85 input  175.53 | X-H torsion
[ 8008 7997 7996 7995 ] final   20.65 input   59.86 | X-H torsion
[ 10167 10162 10161 10158 ] final  175.06 input  -65.29 | X-H torsion
[ 10718 10713 10712 10709 ] final  -46.75 input   66.30 | X-H torsion
[ 10763 10752 10751 10750 ] final   44.08 input  -60.55 | X-H torsion
[ 11005 11000 10999 10996 ] final -157.00 input  -57.11 | X-H torsion

> <Gold.Protein.ActiveResidues>
 VAL166  LYS551  ARG553  GLY616  TRP617  ASP618  TYR619  PRO620  LYS621  CYS622 
 ASP623  PHE694  ASN695  SER759  ASP760  ASP761  ALA762  ILE779  LEU786  VAL792 
 PHE793  MET794  SER795  GLU796  ALA797  LYS798  CYS799  TRP800  GLU811  SER814 

> <Gold.Protein.RotatedAtoms>
  151.7860  135.0749  160.0380 H   0  0  0  0  0  0  0  0  0  0  0  0  # atno 6907 bound_to 6896
  152.3190  133.5828  159.5740 H   0  0  0  0  0  0  0  0  0  0  0  0  # atno 6908 bound_to 6896
  150.7359  133.9956  159.3663 H   0  0  0  0  0  0  0  0  0  0  0  0  # atno 6909 bound_to 6896
  144.9934  140.7753  143.4540 H   0  0  0  0  0  0  0  0  0  0  0  0  # atno 7974 bound_to 7965
  154.9387  140.3050  155.5131 H   0  0  0  0  0  0  0  0  0  0  0  0  # atno 8008 bound_to 7997
  156.2998  140.2340  156.4392 H   0  0  0  0  0  0  0  0  0  0  0  0  # atno 8009 bound_to 7997
  154.8166  140.0425  157.1369 H   0  0  0  0  0  0  0  0  0  0  0  0  # atno 8010 bound_to 7997
  139.5163  144.3075  152.0322 H   0  0  0  0  0  0  0  0  0  0  0  0  # atno 10167 bound_to 10162
  156.2152  130.4163  149.9063 H   0  0  0  0  0  0  0  0  0  0  0  0  # atno 10718 bound_to 10713
  152.9848  135.6082  154.3216 H   0  0  0  0  0  0  0  0  0  0  0  0  # atno 10763 bound_to 10752
  154.2925  135.2774  155.2650 H   0  0  0  0  0  0  0  0  0  0  0  0  # atno 10764 bound_to 10752
  154.4939  135.5885  153.6536 H   0  0  0  0  0  0  0  0  0  0  0  0  # atno 10765 bound_to 10752
  140.6694  134.4264  157.5232 H   0  0  0  0  0  0  0  0  0  0  0  0  # atno 11005 bound_to 11000
  145.2254  139.2139  143.5071 LP  0  0  0  0  0  0  0  0  0  0  0  0  # atno 17320 bound_to 7965
  146.3436  140.2120  142.8590 LP  0  0  0  0  0  0  0  0  0  0  0  0  # atno 17321 bound_to 7965
  140.2521  144.4158  150.6218 LP  0  0  0  0  0  0  0  0  0  0  0  0  # atno 17342 bound_to 10162
  140.6217  143.2177  151.6680 LP  0  0  0  0  0  0  0  0  0  0  0  0  # atno 17343 bound_to 10162
  156.6728  130.8827  151.3565 LP  0  0  0  0  0  0  0  0  0  0  0  0  # atno 17370 bound_to 10713
  157.7059  130.9385  150.0930 LP  0  0  0  0  0  0  0  0  0  0  0  0  # atno 17371 bound_to 10713
  139.8986  134.8609  156.1992 LP  0  0  0  0  0  0  0  0  0  0  0  0  # atno 17394 bound_to 11000
  141.0404  133.6941  156.1587 LP  0  0  0  0  0  0  0  0  0  0  0  0  # atno 17395 bound_to 11000

$$$$
