AV-unprocessed.smi:1952|AV-procd|sdf|7888|dock7
  -GOLD-   2272010 43D 1   1.00000     0.00000
 Structure written by MMmdl.
 38 39  0  0  0  0  0  0  0  0  2 V2000
  146.0339  134.4551  162.3696 C   0  0  0  0  0  0  0  0  0  0  0  0
  147.0150  135.2290  161.5568 C   0  0  0  0  0  0  0  0  0  0  0  0
  148.0919  134.8581  160.8027 C   0  0  0  0  0  0  0  0  0  0  0  0
  148.5745  136.0954  160.2948 C   0  0  0  0  0  0  0  0  0  0  0  0
  149.6418  136.2583  159.4981 N   0  5  0  0  0  0  0  0  0  0  0  0
  149.6916  137.2950  158.6297 C   0  0  0  0  0  0  0  0  0  0  0  0
  148.8106  137.6214  157.8308 O   0  0  0  0  0  0  0  0  0  0  0  0
  150.8337  137.9956  158.6915 N   0  0  0  0  0  0  0  0  0  0  0  0
  151.1852  139.1515  157.8678 C   0  0  1  0  0  0  0  0  0  0  0  0
  149.9949  140.1196  157.7888 C   0  0  0  0  0  0  0  0  0  0  0  0
  152.4359  139.8476  158.4433 C   0  0  0  0  0  0  0  0  0  0  0  0
  152.1832  141.0382  159.2576 N   0  0  0  0  0  0  0  0  0  0  0  0
  153.2271  141.2794  160.2510 C   0  0  0  0  0  0  0  0  0  0  0  0
  152.9481  142.5461  161.0788 C   0  0  0  0  0  0  0  0  0  0  0  0
  152.8021  143.6649  160.2101 O   0  0  0  0  0  0  0  0  0  0  0  0
  151.7587  143.4855  159.2583 C   0  0  0  0  0  0  0  0  0  0  0  0
  152.0367  142.2246  158.4221 C   0  0  0  0  0  0  0  0  0  0  0  0
  147.8638  137.1273  160.7181 N   0  0  0  0  0  0  0  0  0  0  0  0
  146.8570  136.5797  161.5221 O   0  0  0  0  0  0  0  0  0  0  0  0
  146.5449  133.8602  163.1263 H   0  0  0  0  0  0  0  0  0  0  0  0
  145.4595  133.7781  161.7373 H   0  0  0  0  0  0  0  0  0  0  0  0
  145.3335  135.1183  162.8779 H   0  0  0  0  0  0  0  0  0  0  0  0
  148.4722  133.8616  160.6359 H   0  0  0  0  0  0  0  0  0  0  0  0
  151.5270  137.6877  159.3575 H   0  0  0  0  0  0  0  0  0  0  0  0
  151.4073  138.8235  156.8518 H   0  0  0  0  0  0  0  0  0  0  0  0
  150.2346  140.9852  157.1710 H   0  0  0  0  0  0  0  0  0  0  0  0
  149.7125  140.4833  158.7772 H   0  0  0  0  0  0  0  0  0  0  0  0
  149.1219  139.6350  157.3501 H   0  0  0  0  0  0  0  0  0  0  0  0
  153.0122  139.1261  159.0245 H   0  0  0  0  0  0  0  0  0  0  0  0
  153.0744  140.1295  157.6047 H   0  0  0  0  0  0  0  0  0  0  0  0
  153.3042  140.4331  160.9326 H   0  0  0  0  0  0  0  0  0  0  0  0
  154.1946  141.3749  159.7563 H   0  0  0  0  0  0  0  0  0  0  0  0
  152.0447  142.4225  161.6780 H   0  0  0  0  0  0  0  0  0  0  0  0
  153.7683  142.7353  161.7712 H   0  0  0  0  0  0  0  0  0  0  0  0
  150.7982  143.4059  159.7699 H   0  0  0  0  0  0  0  0  0  0  0  0
  151.7076  144.3640  158.6152 H   0  0  0  0  0  0  0  0  0  0  0  0
  152.9424  142.3756  157.8326 H   0  0  0  0  0  0  0  0  0  0  0  0
  151.2229  142.0786  157.7110 H   0  0  0  0  0  0  0  0  0  0  0  0
  1  2  1  0  0  0  0
  1 20  1  0  0  0  0
  1 21  1  0  0  0  0
  1 22  1  0  0  0  0
  2 19  1  0  0  0  0
  2  3  2  0  0  0  0
  3  4  1  0  0  0  0
  3 23  1  0  0  0  0
  4  5  1  0  0  0  0
  4 18  2  0  0  0  0
  5  6  1  0  0  0  0
  6  7  2  0  0  0  0
  6  8  1  0  0  0  0
  8  9  1  0  0  0  0
  8 24  1  0  0  0  0
  9 10  1  0  0  0  0
  9 11  1  0  0  0  0
  9 25  1  0  0  0  0
 10 26  1  0  0  0  0
 10 27  1  0  0  0  0
 10 28  1  0  0  0  0
 11 12  1  0  0  0  0
 11 29  1  0  0  0  0
 11 30  1  0  0  0  0
 12 17  1  0  0  0  0
 12 13  1  0  0  0  0
 13 14  1  0  0  0  0
 13 31  1  0  0  0  0
 13 32  1  0  0  0  0
 14 15  1  0  0  0  0
 14 33  1  0  0  0  0
 14 34  1  0  0  0  0
 15 16  1  0  0  0  0
 16 17  1  0  0  0  0
 16 35  1  0  0  0  0
 16 36  1  0  0  0  0
 17 37  1  0  0  0  0
 17 38  1  0  0  0  0
 18 19  1  0  0  0  0
M  CHG  1   5  -1
M  END
> <s_m_source_file>
AV-unprocessed.smi

> <i_m_source_file_index>
1952

> <i_lp_mmshare_version>
43012

> <i_f3d_flags>
0

> <s_epik_input>
W0NIM11jMVtjSF1jKG5vMSlbTkhdQyg9TylbTkhdW0NASF0oW0NIM10pW0NIMl1OMltDSDJdW0NIMl1PW0NIMl1bQ0gyXTI=

> <s_epik_cmdline>
J2VwaWtfcHl0aG9uJywgJy1waCcsICc3LjAnLCAnLXRuJywgJzgnLCAnLW1hJywgJzIwMCcsICctbWV0YWxfYmluZGluZycsICctaW1hZScsICc8aW5maWxlLm1hZT4nLCAnLW9tYWUnLCAnPG91dGZpbGUubWFlPic=

> <r_epik_Ionization_Penalty>
6.81701

> <r_epik_Ionization_Penalty_Charging>
6.50532

> <r_epik_Ionization_Penalty_Neutral>
0.311686

> <r_epik_State_Penalty>
6.70952

> <r_epik_Charging_Adjusted_Penalty>
13.2148

> <i_epik_Tot_Q>
-1

> <i_epik_Tot_abs_Q>
1

> <r_epik_Metal_State_Penalty>
2.64135

> <b_epik_Metal_Only>
1

> <s_lp_Force_Field>
OPLS_2005

> <r_lp_Energy>
19.0911

> <b_lp_Chiralities_Consistent>
1

> <s_lp_Variant>
AV-unprocessed.smi:1952-6

> <Gold.Version>
5.8.1

> <Gold.Id.Protein>
6NUR|6NUR_protein|mol2

> <Gold.PLP.Fitness>
40.7108

> <Gold.PLP.PLP>
-32.7387

> <Gold.PLP.part.hbond>
-3.0000

> <Gold.PLP.part.metal>
0.0000

> <Gold.PLP.part.buried>
-5.9245

> <Gold.PLP.part.nonpolar>
-24.2572

> <Gold.PLP.part.repulsive>
0.1661

> <Gold.PLP.ligand.clash>
0.0000

> <Gold.PLP.ligand.torsion>
1.6052

> <Gold.PLP.Chemscore.Hbond>
3.7008

> <Gold.PLP.Chemscore.CHOScore>
0.0000

> <Gold.PLP.Chemscore.Metal>
0.0000

> <Gold.Chemscore.Hbonds>
donor molecule, donor type, donor heavy atom, donor atom, acceptor molecule, acceptor atom, score
      P1  H  6896  6907       L1     5  2.00
      P1  H  6931  6943       L1    18  0.85
      P1  H  6934  6947       L1    18  0.59

> <Gold.PLP.Chemscore.Internal.Correction>
0.0800

> <Gold.Rescore>
     Score         DG    S(hbond)    S(metal)    S(lipo)     H(rot)  DE(clash)    DE(int)     intcor
     14.18     -17.57       2.11        0.00      76.70       1.53       0.00       3.39       ----

> <Gold.Chemscore.Fitness>
14.1779

> <Gold.Chemscore.DG>
-17.5665

> <Gold.Chemscore.ZeroCoef>
-5.4800

> <Gold.Chemscore.Hbond>
2.1059

> <Gold.Chemscore.Metal>
0.0000

> <Gold.Chemscore.Lipo>
76.6993

> <Gold.Chemscore.Internal_Hbond>
0.0000

> <Gold.Chemscore.DEClash>
0.0000

> <Gold.Chemscore.DEInternal>
3.3885

> <Gold.Chemscore.Rot>
1.5317

> <Gold.Chemscore.Internal.Correction>
   9.000000E+99

> <Gold.Chemscore.Hbonds>
donor molecule, donor type, donor heavy atom, donor atom, acceptor molecule, acceptor atom, score
      P1  H  6896  6907       L1     5  0.78
      P1  H  6931  6943       L1    18  0.35
      P1  H  6934  6947       L1    18  0.06

> <Gold.Chemscore.Hbond.Weighted>
-7.0338

> <Gold.Chemscore.Metal.Weighted>
-0.0000

> <Gold.Chemscore.Lipo.Weighted>
-8.9738

> <Gold.Chemscore.Internal_Hbond.Weighted>
0.0000

> <Gold.Chemscore.DEClash.Weighted>
0.0000

> <Gold.Chemscore.DEInternal.Weighted>
3.3885

> <Gold.Chemscore.Rot.Weighted>
3.9211

> <Gold.Chemscore.Internal.Correction.Weighted>
   9.000000E+99

> <Gold.Protein.RotatedTorsions>
[ 6907 6896 6895 6894 ] final  -50.67 input  -60.11 | X-H torsion
[ 7974 7965 7964 7962 ] final   55.96 input  175.53 | X-H torsion
[ 8008 7997 7996 7995 ] final  170.92 input   59.86 | X-H torsion
[ 10167 10162 10161 10158 ] final   -0.77 input  -65.29 | X-H torsion
[ 10718 10713 10712 10709 ] final   18.38 input   66.30 | X-H torsion
[ 10763 10752 10751 10750 ] final   75.74 input  -60.55 | X-H torsion
[ 11005 11000 10999 10996 ] final  -40.65 input  -57.11 | X-H torsion

> <Gold.Protein.ActiveResidues>
 VAL166  LYS551  ARG553  GLY616  TRP617  ASP618  TYR619  PRO620  LYS621  CYS622 
 ASP623  PHE694  ASN695  SER759  ASP760  ASP761  ALA762  ILE779  LEU786  VAL792 
 PHE793  MET794  SER795  GLU796  ALA797  LYS798  CYS799  TRP800  GLU811  SER814 

> <Gold.Protein.RotatedAtoms>
  150.8685  134.8053  159.7136 H   0  0  0  0  0  0  0  0  0  0  0  0  # atno 6907 bound_to 6896
  152.4698  134.4985  159.9727 H   0  0  0  0  0  0  0  0  0  0  0  0  # atno 6908 bound_to 6896
  151.5078  133.3453  159.2915 H   0  0  0  0  0  0  0  0  0  0  0  0  # atno 6909 bound_to 6896
  145.9448  139.3920  143.0341 H   0  0  0  0  0  0  0  0  0  0  0  0  # atno 7974 bound_to 7965
  156.1320  140.1525  156.9051 H   0  0  0  0  0  0  0  0  0  0  0  0  # atno 8008 bound_to 7997
  154.4917  140.0849  156.7648 H   0  0  0  0  0  0  0  0  0  0  0  0  # atno 8009 bound_to 7997
  155.4238  140.3424  155.4276 H   0  0  0  0  0  0  0  0  0  0  0  0  # atno 8010 bound_to 7997
  140.6782  143.6854  150.8071 H   0  0  0  0  0  0  0  0  0  0  0  0  # atno 10167 bound_to 10162
  157.0956  130.6446  149.5859 H   0  0  0  0  0  0  0  0  0  0  0  0  # atno 10718 bound_to 10713
  153.0676  135.4977  154.8234 H   0  0  0  0  0  0  0  0  0  0  0  0  # atno 10763 bound_to 10752
  154.6976  135.2995  154.9391 H   0  0  0  0  0  0  0  0  0  0  0  0  # atno 10764 bound_to 10752
  154.0125  135.6752  153.4819 H   0  0  0  0  0  0  0  0  0  0  0  0  # atno 10765 bound_to 10752
  141.0190  133.6871  156.2351 H   0  0  0  0  0  0  0  0  0  0  0  0  # atno 11005 bound_to 11000
  145.8251  140.9659  143.0878 LP  0  0  0  0  0  0  0  0  0  0  0  0  # atno 17320 bound_to 7965
  144.6785  140.0090  143.7484 LP  0  0  0  0  0  0  0  0  0  0  0  0  # atno 17321 bound_to 7965
  140.0551  143.5211  152.2655 LP  0  0  0  0  0  0  0  0  0  0  0  0  # atno 17342 bound_to 10162
  139.6087  144.7603  151.3002 LP  0  0  0  0  0  0  0  0  0  0  0  0  # atno 17343 bound_to 10162
  155.9887  130.4931  150.7180 LP  0  0  0  0  0  0  0  0  0  0  0  0  # atno 17370 bound_to 10713
  157.4684  131.0890  151.0669 LP  0  0  0  0  0  0  0  0  0  0  0  0  # atno 17371 bound_to 10713
  140.6605  134.4972  157.5583 LP  0  0  0  0  0  0  0  0  0  0  0  0  # atno 17394 bound_to 11000
  139.9134  134.8296  156.1448 LP  0  0  0  0  0  0  0  0  0  0  0  0  # atno 17395 bound_to 11000

$$$$
