AV-unprocessed.smi:299|AV-procd|sdf|2268|dock9
  -GOLD-   2262022163D 1   1.00000     0.00000
 Structure written by MMmdl.
 42 43  0  0  0  0  0  0  0  0  2 V2000
  146.4987  131.8854  154.0883 C   0  0  0  0  0  0  0  0  0  0  0  0
  145.8105  132.5545  152.8799 C   0  0  1  0  0  0  0  0  0  0  0  0
  145.3272  131.4468  151.9171 C   0  0  0  0  0  0  0  0  0  0  0  0
  144.6377  132.0213  150.6779 C   0  0  0  0  0  0  0  0  0  0  0  0
  143.4895  132.9299  151.1152 C   0  0  0  0  0  0  0  0  0  0  0  0
  143.9973  134.0252  152.0633 C   0  0  0  0  0  0  0  0  0  0  0  0
  144.6758  133.4582  153.2658 N   0  3  2  0  0  0  0  0  0  0  0  0
  145.0521  134.5235  154.2406 C   0  0  0  0  0  0  0  0  0  0  0  0
  146.0019  135.5871  153.6509 C   0  0  0  0  0  0  0  0  0  0  0  0
  146.8245  136.3338  154.7188 C   0  0  0  0  0  0  0  0  0  0  0  0
  148.2404  136.4326  154.3776 N   0  0  0  0  0  0  0  0  0  0  0  0
  149.2524  136.4117  155.2599 C   0  0  0  0  0  0  0  0  0  0  0  0
  149.0881  136.3340  156.4768 O   0  0  0  0  0  0  0  0  0  0  0  0
  150.6667  136.4997  154.6845 C   0  0  0  0  0  0  0  0  0  0  0  0
  151.2212  137.8302  154.8503 N   0  0  0  0  0  0  0  0  0  0  0  0
  150.8592  139.0030  154.3260 C   0  0  0  0  0  0  0  0  0  0  0  0
  151.6479  139.9855  154.7335 N   0  0  0  0  0  0  0  0  0  0  0  0
  152.5477  139.3413  155.5665 N   0  0  0  0  0  0  0  0  0  0  0  0
  152.2993  138.0626  155.6401 N   0  0  0  0  0  0  0  0  0  0  0  0
  147.1898  131.1080  153.7607 H   0  0  0  0  0  0  0  0  0  0  0  0
  145.7718  131.4174  154.7530 H   0  0  0  0  0  0  0  0  0  0  0  0
  147.0955  132.5871  154.6697 H   0  0  0  0  0  0  0  0  0  0  0  0
  146.5561  133.1571  152.3582 H   0  0  0  0  0  0  0  0  0  0  0  0
  146.1697  130.8300  151.6017 H   0  0  0  0  0  0  0  0  0  0  0  0
  144.6382  130.7802  152.4384 H   0  0  0  0  0  0  0  0  0  0  0  0
  145.3541  132.5850  150.0791 H   0  0  0  0  0  0  0  0  0  0  0  0
  144.2633  131.2159  150.0453 H   0  0  0  0  0  0  0  0  0  0  0  0
  143.0206  133.3821  150.2407 H   0  0  0  0  0  0  0  0  0  0  0  0
  142.7172  132.3403  151.6115 H   0  0  0  0  0  0  0  0  0  0  0  0
  144.6868  134.6857  151.5350 H   0  0  0  0  0  0  0  0  0  0  0  0
  143.1408  134.6323  152.3495 H   0  0  0  0  0  0  0  0  0  0  0  0
  144.1702  135.0655  154.5720 H   0  0  0  0  0  0  0  0  0  0  0  0
  145.4851  134.0650  155.1308 H   0  0  0  0  0  0  0  0  0  0  0  0
  146.6912  135.1399  152.9364 H   0  0  0  0  0  0  0  0  0  0  0  0
  145.4178  136.3181  153.0906 H   0  0  0  0  0  0  0  0  0  0  0  0
  146.4161  137.3335  154.8755 H   0  0  0  0  0  0  0  0  0  0  0  0
  146.7431  135.8181  155.6759 H   0  0  0  0  0  0  0  0  0  0  0  0
  148.4686  136.4951  153.3959 H   0  0  0  0  0  0  0  0  0  0  0  0
  151.3169  135.7795  155.1830 H   0  0  0  0  0  0  0  0  0  0  0  0
  150.6590  136.2459  153.6232 H   0  0  0  0  0  0  0  0  0  0  0  0
  150.0276  139.1349  153.6496 H   0  0  0  0  0  0  0  0  0  0  0  0
  143.9983  132.8716  153.7320 H   0  0  0  0  0  0  0  0  0  0  0  0
  1  2  1  0  0  0  0
  1 20  1  0  0  0  0
  1 21  1  0  0  0  0
  1 22  1  0  0  0  0
  2  7  1  0  0  0  0
  2  3  1  0  0  0  0
  2 23  1  0  0  0  0
  3  4  1  0  0  0  0
  3 24  1  0  0  0  0
  3 25  1  0  0  0  0
  4  5  1  0  0  0  0
  4 26  1  0  0  0  0
  4 27  1  0  0  0  0
  5  6  1  0  0  0  0
  5 28  1  0  0  0  0
  5 29  1  0  0  0  0
  6  7  1  0  0  0  0
  6 30  1  0  0  0  0
  6 31  1  0  0  0  0
  7  8  1  0  0  0  0
  7 42  1  0  0  0  0
  8  9  1  0  0  0  0
  8 32  1  0  0  0  0
  8 33  1  0  0  0  0
  9 10  1  0  0  0  0
  9 34  1  0  0  0  0
  9 35  1  0  0  0  0
 10 11  1  0  0  0  0
 10 36  1  0  0  0  0
 10 37  1  0  0  0  0
 11 12  1  0  0  0  0
 11 38  1  0  0  0  0
 12 13  2  0  0  0  0
 12 14  1  0  0  0  0
 14 15  1  0  0  0  0
 14 39  1  0  0  0  0
 14 40  1  0  0  0  0
 15 19  1  0  0  0  0
 15 16  1  0  0  0  0
 16 17  2  0  0  0  0
 16 41  1  0  0  0  0
 17 18  1  0  0  0  0
 18 19  2  0  0  0  0
M  CHG  1   7   1
M  END
> <s_m_source_file>
AV-unprocessed.smi

> <i_m_source_file_index>
299

> <i_lp_mmshare_version>
43012

> <i_f3d_flags>
0

> <s_epik_input>
W0NIM11bQ0BASF0xW0NIMl1bQ0gyXVtDSDJdW0NIMl1OMVtDSDJdW0NIMl1bQ0gyXVtOSF1DKD1PKVtDSDJdbjJbY0hdbm5uMg==

> <s_epik_cmdline>
J2VwaWtfcHl0aG9uJywgJy1waCcsICc3LjAnLCAnLXRuJywgJzgnLCAnLW1hJywgJzIwMCcsICctbWV0YWxfYmluZGluZycsICctaW1hZScsICc8aW5maWxlLm1hZT4nLCAnLW9tYWUnLCAnPG91dGZpbGUubWFlPic=

> <r_lp_tautomer_probability>
1

> <r_epik_Ionization_Penalty>
0.000544863

> <r_epik_Ionization_Penalty_Charging>
0.000543475

> <r_epik_Ionization_Penalty_Neutral>
1.38784e-06

> <r_epik_State_Penalty>
0.000340025

> <r_epik_Charging_Adjusted_Penalty>
0.0008835

> <i_epik_Tot_Q>
1

> <i_epik_Tot_abs_Q>
1

> <r_epik_Metal_State_Penalty>
-0

> <b_epik_Metal_Only>
0

> <s_lp_Force_Field>
OPLS_2005

> <r_lp_Energy>
25.9803

> <b_lp_Chiralities_Consistent>
1

> <s_lp_Variant>
AV-unprocessed.smi:299-4

> <Gold.Version>
5.8.1

> <Gold.Id.Protein>
6NUR|6NUR_protein|mol2

> <Gold.PLP.Fitness>
42.3544

> <Gold.PLP.PLP>
-27.6494

> <Gold.PLP.part.hbond>
-3.9409

> <Gold.PLP.part.metal>
0.0000

> <Gold.PLP.part.buried>
-5.0723

> <Gold.PLP.part.nonpolar>
-18.1952

> <Gold.PLP.part.repulsive>
0.0907

> <Gold.PLP.ligand.clash>
0.0000

> <Gold.PLP.ligand.torsion>
0.9061

> <Gold.PLP.Chemscore.Hbond>
4.9913

> <Gold.PLP.Chemscore.CHOScore>
0.4972

> <Gold.PLP.Chemscore.Metal>
0.0000

> <Gold.Chemscore.Hbonds>
donor molecule, donor type, donor heavy atom, donor atom, acceptor molecule, acceptor atom, score
      L1  H     7    42       P1 10957  2.00
      L1  H    11    38       P1  7948  1.00
      P1  H  7989  7998       L1    17  0.96
      P1  H  7997  8008       L1    18  0.91
      L1  C    16    41       P1  7957  0.64

> <Gold.PLP.Chemscore.Internal.Correction>
0.0519

> <Gold.Rescore>
     Score         DG    S(hbond)    S(metal)    S(lipo)     H(rot)  DE(clash)    DE(int)     intcor
     14.01     -14.88       3.51        0.00      44.94       2.97       0.03       0.84       ----

> <Gold.Chemscore.Fitness>
14.0087

> <Gold.Chemscore.DG>
-14.8773

> <Gold.Chemscore.ZeroCoef>
-5.4800

> <Gold.Chemscore.Hbond>
3.5142

> <Gold.Chemscore.Metal>
0.0000

> <Gold.Chemscore.Lipo>
44.9398

> <Gold.Chemscore.Internal_Hbond>
0.0000

> <Gold.Chemscore.DEClash>
0.0276

> <Gold.Chemscore.DEInternal>
0.8411

> <Gold.Chemscore.Rot>
2.9680

> <Gold.Chemscore.Internal.Correction>
   9.000000E+99

> <Gold.Chemscore.Hbonds>
donor molecule, donor type, donor heavy atom, donor atom, acceptor molecule, acceptor atom, score
      L1  H     7    42       P1 10957  0.81
      L1  H    11    38       P1  7948  0.99
      P1  H  7989  7998       L1    17  0.26
      P1  H  7997  8008       L1    18  0.87

> <Gold.Chemscore.Hbond.Weighted>
-11.7373

> <Gold.Chemscore.Metal.Weighted>
-0.0000

> <Gold.Chemscore.Lipo.Weighted>
-5.2580

> <Gold.Chemscore.Internal_Hbond.Weighted>
0.0000

> <Gold.Chemscore.DEClash.Weighted>
0.0276

> <Gold.Chemscore.DEInternal.Weighted>
0.8411

> <Gold.Chemscore.Rot.Weighted>
7.5980

> <Gold.Chemscore.Internal.Correction.Weighted>
   9.000000E+99

> <Gold.Protein.RotatedTorsions>
[ 6907 6896 6895 6894 ] final  130.56 input  -60.11 | X-H torsion
[ 7974 7965 7964 7962 ] final   73.13 input  175.53 | X-H torsion
[ 8008 7997 7996 7995 ] final  -30.27 input   59.86 | X-H torsion
[ 10167 10162 10161 10158 ] final  -73.53 input  -65.29 | X-H torsion
[ 10718 10713 10712 10709 ] final   45.53 input   66.30 | X-H torsion
[ 10763 10752 10751 10750 ] final -134.21 input  -60.55 | X-H torsion
[ 11005 11000 10999 10996 ] final  141.95 input  -57.11 | X-H torsion

> <Gold.Protein.ActiveResidues>
 VAL166  LYS551  ARG553  GLY616  TRP617  ASP618  TYR619  PRO620  LYS621  CYS622 
 ASP623  PHE694  ASN695  SER759  ASP760  ASP761  ALA762  ILE779  LEU786  VAL792 
 PHE793  MET794  SER795  GLU796  ALA797  LYS798  CYS799  TRP800  GLU811  SER814 

> <Gold.Protein.RotatedAtoms>
  152.3514  133.6184  159.5947 H   0  0  0  0  0  0  0  0  0  0  0  0  # atno 6907 bound_to 6896
  150.7540  133.9569  159.3512 H   0  0  0  0  0  0  0  0  0  0  0  0  # atno 6908 bound_to 6896
  151.7420  135.0853  160.0368 H   0  0  0  0  0  0  0  0  0  0  0  0  # atno 6909 bound_to 6896
  145.7447  139.2735  143.1466 H   0  0  0  0  0  0  0  0  0  0  0  0  # atno 7974 bound_to 7965
  154.4257  140.1796  156.1380 H   0  0  0  0  0  0  0  0  0  0  0  0  # atno 8008 bound_to 7997
  156.0014  140.3359  155.6824 H   0  0  0  0  0  0  0  0  0  0  0  0  # atno 8009 bound_to 7997
  155.6237  140.0662  157.2661 H   0  0  0  0  0  0  0  0  0  0  0  0  # atno 8010 bound_to 7997
  140.5103  143.2346  151.7605 H   0  0  0  0  0  0  0  0  0  0  0  0  # atno 10167 bound_to 10162
  157.4385  130.8067  149.7671 H   0  0  0  0  0  0  0  0  0  0  0  0  # atno 10718 bound_to 10713
  154.8722  135.3741  154.4699 H   0  0  0  0  0  0  0  0  0  0  0  0  # atno 10763 bound_to 10752
  153.5360  135.7027  153.5665 H   0  0  0  0  0  0  0  0  0  0  0  0  # atno 10764 bound_to 10752
  153.3848  135.3987  155.1847 H   0  0  0  0  0  0  0  0  0  0  0  0  # atno 10765 bound_to 10752
  140.0440  134.9290  157.0896 H   0  0  0  0  0  0  0  0  0  0  0  0  # atno 11005 bound_to 11000
  146.0414  140.8161  142.9826 LP  0  0  0  0  0  0  0  0  0  0  0  0  # atno 17320 bound_to 7965
  144.6863  140.2916  143.7277 LP  0  0  0  0  0  0  0  0  0  0  0  0  # atno 17321 bound_to 7965
  139.4894  144.4400  151.9775 LP  0  0  0  0  0  0  0  0  0  0  0  0  # atno 17342 bound_to 10162
  140.3492  144.3109  150.5952 LP  0  0  0  0  0  0  0  0  0  0  0  0  # atno 17343 bound_to 10162
  155.9939  130.3921  150.2879 LP  0  0  0  0  0  0  0  0  0  0  0  0  # atno 17370 bound_to 10713
  157.1042  131.0204  151.3073 LP  0  0  0  0  0  0  0  0  0  0  0  0  # atno 17371 bound_to 10713
  140.4023  134.2069  155.7163 LP  0  0  0  0  0  0  0  0  0  0  0  0  # atno 17394 bound_to 11000
  141.1897  133.8232  157.0945 LP  0  0  0  0  0  0  0  0  0  0  0  0  # atno 17395 bound_to 11000

$$$$
