AV-unprocessed.smi:236|AV-procd|sdf|1809|dock9
  -GOLD-   2262020393D 1   1.00000     0.00000
 Structure written by MMmdl.
 58 62  0  0  0  0  0  0  0  0  1 V2000
  144.8081  138.1529  161.0975 C   0  0  0  0  0  0  0  0  0  0  0  0
  145.5035  137.2764  162.1497 C   0  0  2  0  0  0  0  0  0  0  0  0
  146.8491  137.7013  162.3520 O   0  0  0  0  0  0  0  0  0  0  0  0
  147.6859  136.5790  162.6179 C   0  0  0  0  0  0  0  0  0  0  0  0
  146.7440  135.3879  162.7643 C   0  0  0  0  0  0  0  0  0  0  0  0
  145.5865  135.7677  161.8486 C   0  0  1  0  0  0  0  0  0  0  0  0
  144.4138  135.1124  162.2946 O   0  0  0  0  0  0  0  0  0  0  0  0
  145.8293  135.4321  160.3518 C   0  0  0  0  0  0  0  0  0  0  0  0
  147.0907  135.9384  159.8340 N   0  0  0  0  0  0  0  0  0  0  0  0
  148.3271  135.3426  159.9394 C   0  0  0  0  0  0  0  0  0  0  0  0
  149.3114  136.0038  159.3943 N   0  0  0  0  0  0  0  0  0  0  0  0
  148.7067  137.1359  158.8609 C   0  0  0  0  0  0  0  0  0  0  0  0
  149.1738  138.2733  158.1425 C   0  0  0  0  0  0  0  0  0  0  0  0
  150.4597  138.5017  157.8025 N   0  0  0  0  0  0  0  0  0  0  0  0
  150.6620  138.6098  156.3649 C   0  0  0  0  0  0  0  0  0  0  0  0
  152.1660  138.6826  156.0553 C   0  0  0  0  0  0  0  0  0  0  0  0
  152.7504  139.7567  156.7863 O   0  0  0  0  0  0  0  0  0  0  0  0
  152.6269  139.5878  158.1975 C   0  0  1  0  0  0  0  0  0  0  0  0
  153.3506  140.7527  158.8835 C   0  0  0  0  0  0  0  0  0  0  0  0
  152.7468  141.9718  158.4839 O   0  0  0  0  0  0  0  0  0  0  0  0
  152.7597  142.9485  159.5102 C   0  0  0  0  0  0  0  0  0  0  0  0
  152.6494  144.3237  158.8869 C   0  0  0  0  0  0  0  0  0  0  0  0
  151.5969  145.3040  159.3531 C   0  0  0  0  0  0  0  0  0  0  0  0
  151.4761  144.6613  157.9950 C   0  0  0  0  0  0  0  0  0  0  0  0
  151.1280  139.5578  158.5529 C   0  0  0  0  0  0  0  0  0  0  0  0
  148.2692  139.2187  157.7891 N   0  0  0  0  0  0  0  0  0  0  0  0
  146.9801  139.0608  158.1043 C   0  0  0  0  0  0  0  0  0  0  0  0
  146.3982  138.0559  158.7623 N   0  0  0  0  0  0  0  0  0  0  0  0
  147.3090  137.1084  159.1277 C   0  0  0  0  0  0  0  0  0  0  0  0
  143.7891  137.8118  160.9139 H   0  0  0  0  0  0  0  0  0  0  0  0
  145.3435  138.1476  160.1482 H   0  0  0  0  0  0  0  0  0  0  0  0
  144.7547  139.1883  161.4344 H   0  0  0  0  0  0  0  0  0  0  0  0
  144.9969  137.4165  163.1067 H   0  0  0  0  0  0  0  0  0  0  0  0
  148.3584  136.4361  161.7717 H   0  0  0  0  0  0  0  0  0  0  0  0
  148.2936  136.7373  163.5088 H   0  0  0  0  0  0  0  0  0  0  0  0
  147.2182  134.4344  162.5350 H   0  0  0  0  0  0  0  0  0  0  0  0
  146.4026  135.3351  163.7998 H   0  0  0  0  0  0  0  0  0  0  0  0
  143.6821  135.4299  161.7879 H   0  0  0  0  0  0  0  0  0  0  0  0
  145.8117  134.3528  160.1949 H   0  0  0  0  0  0  0  0  0  0  0  0
  145.0249  135.8392  159.7381 H   0  0  0  0  0  0  0  0  0  0  0  0
  148.4783  134.3988  160.4430 H   0  0  0  0  0  0  0  0  0  0  0  0
  150.2167  137.7528  155.8578 H   0  0  0  0  0  0  0  0  0  0  0  0
  150.1598  139.5034  155.9915 H   0  0  0  0  0  0  0  0  0  0  0  0
  152.6619  137.7442  156.3090 H   0  0  0  0  0  0  0  0  0  0  0  0
  152.3239  138.8495  154.9899 H   0  0  0  0  0  0  0  0  0  0  0  0
  153.0918  138.6479  158.5014 H   0  0  0  0  0  0  0  0  0  0  0  0
  153.3171  140.6370  159.9682 H   0  0  0  0  0  0  0  0  0  0  0  0
  154.4005  140.7635  158.5862 H   0  0  0  0  0  0  0  0  0  0  0  0
  151.9156  142.7982  160.1846 H   0  0  0  0  0  0  0  0  0  0  0  0
  153.6767  142.8794  160.0978 H   0  0  0  0  0  0  0  0  0  0  0  0
  153.6057  144.7480  158.5860 H   0  0  0  0  0  0  0  0  0  0  0  0
  150.9066  144.9759  160.1278 H   0  0  0  0  0  0  0  0  0  0  0  0
  151.8724  146.3559  159.3892 H   0  0  0  0  0  0  0  0  0  0  0  0
  151.6705  145.2837  157.1238 H   0  0  0  0  0  0  0  0  0  0  0  0
  150.7029  143.9063  157.8651 H   0  0  0  0  0  0  0  0  0  0  0  0
  150.6804  140.5241  158.3210 H   0  0  0  0  0  0  0  0  0  0  0  0
  150.9971  139.3872  159.6225 H   0  0  0  0  0  0  0  0  0  0  0  0
  146.3205  139.8543  157.7851 H   0  0  0  0  0  0  0  0  0  0  0  0
  1  2  1  0  0  0  0
  1 30  1  0  0  0  0
  1 31  1  0  0  0  0
  1 32  1  0  0  0  0
  2  6  1  0  0  0  0
  2  3  1  0  0  0  0
  2 33  1  0  0  0  0
  3  4  1  0  0  0  0
  4  5  1  0  0  0  0
  4 34  1  0  0  0  0
  4 35  1  0  0  0  0
  5  6  1  0  0  0  0
  5 36  1  0  0  0  0
  5 37  1  0  0  0  0
  6  7  1  0  0  0  0
  6  8  1  0  0  0  0
  7 38  1  0  0  0  0
  8  9  1  0  0  0  0
  8 39  1  0  0  0  0
  8 40  1  0  0  0  0
  9 29  1  0  0  0  0
  9 10  1  0  0  0  0
 10 11  2  0  0  0  0
 10 41  1  0  0  0  0
 11 12  1  0  0  0  0
 12 29  2  0  0  0  0
 12 13  1  0  0  0  0
 13 14  1  0  0  0  0
 13 26  2  0  0  0  0
 14 25  1  0  0  0  0
 14 15  1  0  0  0  0
 15 16  1  0  0  0  0
 15 42  1  0  0  0  0
 15 43  1  0  0  0  0
 16 17  1  0  0  0  0
 16 44  1  0  0  0  0
 16 45  1  0  0  0  0
 17 18  1  0  0  0  0
 18 19  1  0  0  0  0
 18 25  1  0  0  0  0
 18 46  1  0  0  0  0
 19 20  1  0  0  0  0
 19 47  1  0  0  0  0
 19 48  1  0  0  0  0
 20 21  1  0  0  0  0
 21 22  1  0  0  0  0
 21 49  1  0  0  0  0
 21 50  1  0  0  0  0
 22 24  1  0  0  0  0
 22 23  1  0  0  0  0
 22 51  1  0  0  0  0
 23 24  1  0  0  0  0
 23 52  1  0  0  0  0
 23 53  1  0  0  0  0
 24 54  1  0  0  0  0
 24 55  1  0  0  0  0
 25 56  1  0  0  0  0
 25 57  1  0  0  0  0
 26 27  1  0  0  0  0
 27 28  2  0  0  0  0
 27 58  1  0  0  0  0
 28 29  1  0  0  0  0
M  END
> <s_m_source_file>
AV-unprocessed.smi

> <i_m_source_file_index>
236

> <i_lp_mmshare_version>
43012

> <i_f3d_flags>
0

> <s_epik_input>
W0NIMl0xW0NIMl1PW0NAQEhdKFtDSDNdKVtDQEBdMShbT0hdKVtDSDJdbihbY0hdbjIpYyhjMjMpbltjSF1uYzNONFtDSDJdW0NIMl1PW0NASF0oW0NIMl00KVtDSDJdT1tDSDJdW0NIXTVbQ0gyXVtDSDJdNQ==

> <s_epik_cmdline>
J2VwaWtfcHl0aG9uJywgJy1waCcsICc3LjAnLCAnLXRuJywgJzgnLCAnLW1hJywgJzIwMCcsICctbWV0YWxfYmluZGluZycsICctaW1hZScsICc8aW5maWxlLm1hZT4nLCAnLW9tYWUnLCAnPG91dGZpbGUubWFlPic=

> <r_lp_tautomer_probability>
1

> <r_epik_Ionization_Penalty>
7.21838e-05

> <r_epik_Ionization_Penalty_Charging>
0

> <r_epik_Ionization_Penalty_Neutral>
7.21838e-05

> <r_epik_State_Penalty>
-0

> <r_epik_Charging_Adjusted_Penalty>
0

> <i_epik_Tot_Q>
0

> <i_epik_Tot_abs_Q>
0

> <r_epik_Metal_State_Penalty>
-0

> <b_epik_Metal_Only>
0

> <s_lp_Force_Field>
OPLS_2005

> <r_lp_Energy>
49.116

> <b_lp_Chiralities_Consistent>
1

> <s_lp_Variant>
AV-unprocessed.smi:236-1

> <Gold.Version>
5.8.1

> <Gold.Id.Protein>
6NUR|6NUR_protein|mol2

> <Gold.PLP.Fitness>
53.3780

> <Gold.PLP.PLP>
-47.5936

> <Gold.PLP.part.hbond>
-5.1696

> <Gold.PLP.part.metal>
0.0000

> <Gold.PLP.part.buried>
-4.8823

> <Gold.PLP.part.nonpolar>
-37.1500

> <Gold.PLP.part.repulsive>
0.0000

> <Gold.PLP.ligand.clash>
0.0000

> <Gold.PLP.ligand.torsion>
1.1976

> <Gold.PLP.Chemscore.Hbond>
2.4550

> <Gold.PLP.Chemscore.CHOScore>
0.0000

> <Gold.PLP.Chemscore.Metal>
0.0000

> <Gold.Chemscore.Hbonds>
donor molecule, donor type, donor heavy atom, donor atom, acceptor molecule, acceptor atom, score
      P1  H  6896  6909       L1    11  1.00
      P1  H  6934  6947       L1     3  0.54
      P1  H  7997  8008       L1    17  0.80

> <Gold.PLP.Chemscore.Internal.Correction>
0.8147

> <Gold.Rescore>
     Score         DG    S(hbond)    S(metal)    S(lipo)     H(rot)  DE(clash)    DE(int)     intcor
     16.66     -20.26       2.64        0.00     113.76       2.87       0.04       3.55       ----

> <Gold.Chemscore.Fitness>
16.6613

> <Gold.Chemscore.DG>
-20.2575

> <Gold.Chemscore.ZeroCoef>
-5.4800

> <Gold.Chemscore.Hbond>
2.6356

> <Gold.Chemscore.Metal>
0.0000

> <Gold.Chemscore.Lipo>
113.7639

> <Gold.Chemscore.Internal_Hbond>
0.0000

> <Gold.Chemscore.DEClash>
0.0417

> <Gold.Chemscore.DEInternal>
3.5545

> <Gold.Chemscore.Rot>
2.8655

> <Gold.Chemscore.Internal.Correction>
   9.000000E+99

> <Gold.Chemscore.Hbonds>
donor molecule, donor type, donor heavy atom, donor atom, acceptor molecule, acceptor atom, score
      P1  H  6896  6909       L1    11  0.35
      P1  H  6934  6947       L1     3  0.27
      P1  H  7997  8008       L1    17  0.11

> <Gold.Chemscore.Hbond.Weighted>
-8.8029

> <Gold.Chemscore.Metal.Weighted>
-0.0000

> <Gold.Chemscore.Lipo.Weighted>
-13.3104

> <Gold.Chemscore.Internal_Hbond.Weighted>
0.0000

> <Gold.Chemscore.DEClash.Weighted>
0.0417

> <Gold.Chemscore.DEInternal.Weighted>
3.5545

> <Gold.Chemscore.Rot.Weighted>
7.3358

> <Gold.Chemscore.Internal.Correction.Weighted>
   9.000000E+99

> <Gold.Protein.RotatedTorsions>
[ 6907 6896 6895 6894 ] final   66.27 input  -60.11 | X-H torsion
[ 7974 7965 7964 7962 ] final  -89.03 input  175.53 | X-H torsion
[ 8008 7997 7996 7995 ] final  -71.97 input   59.86 | X-H torsion
[ 10167 10162 10161 10158 ] final  -58.75 input  -65.29 | X-H torsion
[ 10718 10713 10712 10709 ] final  -99.46 input   66.30 | X-H torsion
[ 10763 10752 10751 10750 ] final -173.83 input  -60.55 | X-H torsion
[ 11005 11000 10999 10996 ] final -101.51 input  -57.11 | X-H torsion

> <Gold.Protein.ActiveResidues>
 VAL166  LYS551  ARG553  GLY616  TRP617  ASP618  TYR619  PRO620  LYS621  CYS622 
 ASP623  PHE694  ASN695  SER759  ASP760  ASP761  ALA762  ILE779  LEU786  VAL792 
 PHE793  MET794  SER795  GLU796  ALA797  LYS798  CYS799  TRP800  GLU811  SER814 

> <Gold.Protein.RotatedAtoms>
  152.4469  134.5476  159.9857 H   0  0  0  0  0  0  0  0  0  0  0  0  # atno 6907 bound_to 6896
  151.5559  133.3404  159.2970 H   0  0  0  0  0  0  0  0  0  0  0  0  # atno 6908 bound_to 6896
  150.8387  134.7703  159.6978 H   0  0  0  0  0  0  0  0  0  0  0  0  # atno 6909 bound_to 6896
  145.4453  140.9560  143.2052 H   0  0  0  0  0  0  0  0  0  0  0  0  # atno 7974 bound_to 7965
  154.5129  140.0806  156.8026 H   0  0  0  0  0  0  0  0  0  0  0  0  # atno 8008 bound_to 7997
  155.3744  140.3424  155.4226 H   0  0  0  0  0  0  0  0  0  0  0  0  # atno 8009 bound_to 7997
  156.1595  140.1584  156.8624 H   0  0  0  0  0  0  0  0  0  0  0  0  # atno 8010 bound_to 7997
  140.6178  143.2408  151.5554 H   0  0  0  0  0  0  0  0  0  0  0  0  # atno 10167 bound_to 10162
  156.0135  130.5283  150.6673 H   0  0  0  0  0  0  0  0  0  0  0  0  # atno 10718 bound_to 10713
  154.6033  135.2857  155.0512 H   0  0  0  0  0  0  0  0  0  0  0  0  # atno 10763 bound_to 10752
  154.1769  135.6463  153.5028 H   0  0  0  0  0  0  0  0  0  0  0  0  # atno 10764 bound_to 10752
  153.0165  135.5414  154.6759 H   0  0  0  0  0  0  0  0  0  0  0  0  # atno 10765 bound_to 10752
  141.1228  133.8483  157.1240 H   0  0  0  0  0  0  0  0  0  0  0  0  # atno 11005 bound_to 11000
  144.8095  139.5988  143.7035 LP  0  0  0  0  0  0  0  0  0  0  0  0  # atno 17320 bound_to 7965
  146.2534  139.6249  142.9411 LP  0  0  0  0  0  0  0  0  0  0  0  0  # atno 17321 bound_to 7965
  139.5413  144.2640  152.1356 LP  0  0  0  0  0  0  0  0  0  0  0  0  # atno 17342 bound_to 10162
  140.1853  144.4804  150.6507 LP  0  0  0  0  0  0  0  0  0  0  0  0  # atno 17343 bound_to 10162
  157.4403  131.0860  151.0950 LP  0  0  0  0  0  0  0  0  0  0  0  0  # atno 17370 bound_to 10713
  157.1496  130.6178  149.5578 LP  0  0  0  0  0  0  0  0  0  0  0  0  # atno 17371 bound_to 10713
  140.0199  134.9950  157.0571 LP  0  0  0  0  0  0  0  0  0  0  0  0  # atno 17394 bound_to 11000
  140.4456  134.1635  155.7177 LP  0  0  0  0  0  0  0  0  0  0  0  0  # atno 17395 bound_to 11000

$$$$
