AV-unprocessed.smi:3041|AV-procd|sdf|11597|dock4
  -GOLD-   2272016573D 1   1.00000     0.00000
 Structure written by MMmdl.
 38 39  0  0  0  0  0  0  0  0  1 V2000
  144.7195  131.1967  150.7682 C   0  0  0  0  0  0  0  0  0  0  0  0
  145.3014  132.5045  150.9820 N   0  0  0  0  0  0  0  0  0  0  0  0
  144.7658  133.7425  150.6980 C   0  0  0  0  0  0  0  0  0  0  0  0
  145.6836  134.6821  151.0752 C   0  0  0  0  0  0  0  0  0  0  0  0
  145.5927  136.1797  150.9842 C   0  0  0  0  0  0  0  0  0  0  0  0
  145.5602  136.8279  152.3777 C   0  0  0  0  0  0  0  0  0  0  0  0
  146.8989  137.1758  152.8398 N   0  0  0  0  0  0  0  0  0  0  0  0
  147.1662  137.9828  153.8762 C   0  0  0  0  0  0  0  0  0  0  0  0
  146.3047  138.5284  154.5661 O   0  0  0  0  0  0  0  0  0  0  0  0
  148.4845  138.1214  154.0727 N   0  0  0  0  0  0  0  0  0  0  0  0
  149.0943  138.9323  155.1214 C   0  0  0  0  0  0  0  0  0  0  0  0
  150.5584  139.2914  154.8023 C   0  0  2  0  0  0  0  0  0  0  0  0
  151.4604  138.0884  154.6203 C   0  0  0  0  0  0  0  0  0  0  0  0
  152.8446  138.7055  154.7936 C   0  0  0  0  0  0  0  0  0  0  0  0
  152.6781  139.7798  155.7145 O   0  0  0  0  0  0  0  0  0  0  0  0
  151.2924  140.0454  155.9126 C   0  0  0  0  0  0  0  0  0  0  0  0
  146.7621  133.9045  151.5850 C   0  0  0  0  0  0  0  0  0  0  0  0
  146.5312  132.6031  151.5268 N   0  0  0  0  0  0  0  0  0  0  0  0
  143.6846  131.2965  150.4400 H   0  0  0  0  0  0  0  0  0  0  0  0
  144.7424  130.6245  151.6964 H   0  0  0  0  0  0  0  0  0  0  0  0
  145.2846  130.6626  150.0040 H   0  0  0  0  0  0  0  0  0  0  0  0
  143.7857  133.8524  150.2575 H   0  0  0  0  0  0  0  0  0  0  0  0
  146.4375  136.5746  150.4185 H   0  0  0  0  0  0  0  0  0  0  0  0
  144.7018  136.4745  150.4281 H   0  0  0  0  0  0  0  0  0  0  0  0
  144.9645  137.7408  152.3494 H   0  0  0  0  0  0  0  0  0  0  0  0
  145.0771  136.1645  153.0974 H   0  0  0  0  0  0  0  0  0  0  0  0
  147.6751  136.7737  152.3345 H   0  0  0  0  0  0  0  0  0  0  0  0
  149.1130  137.6332  153.4514 H   0  0  0  0  0  0  0  0  0  0  0  0
  148.5005  139.8400  155.2308 H   0  0  0  0  0  0  0  0  0  0  0  0
  149.0344  138.4085  156.0769 H   0  0  0  0  0  0  0  0  0  0  0  0
  150.5988  139.8888  153.8899 H   0  0  0  0  0  0  0  0  0  0  0  0
  151.2794  137.3524  155.4052 H   0  0  0  0  0  0  0  0  0  0  0  0
  151.3327  137.5971  153.6553 H   0  0  0  0  0  0  0  0  0  0  0  0
  153.5802  137.9845  155.1504 H   0  0  0  0  0  0  0  0  0  0  0  0
  153.2005  139.1120  153.8460 H   0  0  0  0  0  0  0  0  0  0  0  0
  151.0871  141.1160  155.8947 H   0  0  0  0  0  0  0  0  0  0  0  0
  151.0072  139.6637  156.8938 H   0  0  0  0  0  0  0  0  0  0  0  0
  147.7010  134.2471  151.9943 H   0  0  0  0  0  0  0  0  0  0  0  0
  1  2  1  0  0  0  0
  1 19  1  0  0  0  0
  1 20  1  0  0  0  0
  1 21  1  0  0  0  0
  2 18  1  0  0  0  0
  2  3  1  0  0  0  0
  3  4  2  0  0  0  0
  3 22  1  0  0  0  0
  4  5  1  0  0  0  0
  4 17  1  0  0  0  0
  5  6  1  0  0  0  0
  5 23  1  0  0  0  0
  5 24  1  0  0  0  0
  6  7  1  0  0  0  0
  6 25  1  0  0  0  0
  6 26  1  0  0  0  0
  7  8  1  0  0  0  0
  7 27  1  0  0  0  0
  8  9  2  0  0  0  0
  8 10  1  0  0  0  0
 10 11  1  0  0  0  0
 10 28  1  0  0  0  0
 11 12  1  0  0  0  0
 11 29  1  0  0  0  0
 11 30  1  0  0  0  0
 12 16  1  0  0  0  0
 12 13  1  0  0  0  0
 12 31  1  0  0  0  0
 13 14  1  0  0  0  0
 13 32  1  0  0  0  0
 13 33  1  0  0  0  0
 14 15  1  0  0  0  0
 14 34  1  0  0  0  0
 14 35  1  0  0  0  0
 15 16  1  0  0  0  0
 16 36  1  0  0  0  0
 16 37  1  0  0  0  0
 17 18  2  0  0  0  0
 17 38  1  0  0  0  0
M  END
> <s_m_source_file>
AV-unprocessed.smi

> <i_m_source_file_index>
3041

> <i_lp_mmshare_version>
43012

> <i_f3d_flags>
0

> <s_epik_input>
W0NIM11uMVtjSF1jKFtjSF1uMSlbQ0gyXVtDSDJdW05IXUMoPU8pW05IXVtDSDJdW0NAQEhdMltDSDJdW0NIMl1PW0NIMl0y

> <s_epik_cmdline>
J2VwaWtfcHl0aG9uJywgJy1waCcsICc3LjAnLCAnLXRuJywgJzgnLCAnLW1hJywgJzIwMCcsICctbWV0YWxfYmluZGluZycsICctaW1hZScsICc8aW5maWxlLm1hZT4nLCAnLW9tYWUnLCAnPG91dGZpbGUubWFlPic=

> <r_lp_tautomer_probability>
1

> <r_epik_Ionization_Penalty>
0.000557811

> <r_epik_Ionization_Penalty_Charging>
0

> <r_epik_Ionization_Penalty_Neutral>
0.000557811

> <r_epik_State_Penalty>
-0

> <r_epik_Charging_Adjusted_Penalty>
0

> <i_epik_Tot_Q>
0

> <i_epik_Tot_abs_Q>
0

> <r_epik_Metal_State_Penalty>
-0

> <b_epik_Metal_Only>
0

> <s_lp_Force_Field>
OPLS_2005

> <r_lp_Energy>
13.0487

> <b_lp_Chiralities_Consistent>
1

> <s_lp_Variant>
AV-unprocessed.smi:3041-1

> <Gold.Version>
5.8.1

> <Gold.Id.Protein>
6NUR|6NUR_protein|mol2

> <Gold.PLP.Fitness>
48.1075

> <Gold.PLP.PLP>
-34.3901

> <Gold.PLP.part.hbond>
-3.0000

> <Gold.PLP.part.metal>
0.0000

> <Gold.PLP.part.buried>
-3.2945

> <Gold.PLP.part.nonpolar>
-29.7050

> <Gold.PLP.part.repulsive>
0.2831

> <Gold.PLP.ligand.clash>
0.0000

> <Gold.PLP.ligand.torsion>
0.4710

> <Gold.PLP.Chemscore.Hbond>
2.8800

> <Gold.PLP.Chemscore.CHOScore>
2.0000

> <Gold.PLP.Chemscore.Metal>
0.0000

> <Gold.Chemscore.Hbonds>
donor molecule, donor type, donor heavy atom, donor atom, acceptor molecule, acceptor atom, score
      L1  H     7    27       P1  7948  0.81
      L1  H    10    28       P1  7948  0.62
      P1  H  7997  8010       L1    15  1.00
      L1  C     3    22       P1 10186  0.02
      L1  C    17    38       P1  7948  0.96

> <Gold.PLP.Chemscore.Internal.Correction>
0.0195

> <Gold.Rescore>
     Score         DG    S(hbond)    S(metal)    S(lipo)     H(rot)  DE(clash)    DE(int)     intcor
     18.76     -19.11       2.89        0.00      74.52       1.85       0.09       0.27       ----

> <Gold.Chemscore.Fitness>
18.7564

> <Gold.Chemscore.DG>
-19.1135

> <Gold.Chemscore.ZeroCoef>
-5.4800

> <Gold.Chemscore.Hbond>
2.8917

> <Gold.Chemscore.Metal>
0.0000

> <Gold.Chemscore.Lipo>
74.5167

> <Gold.Chemscore.Internal_Hbond>
0.0000

> <Gold.Chemscore.DEClash>
0.0899

> <Gold.Chemscore.DEInternal>
0.2671

> <Gold.Chemscore.Rot>
1.8528

> <Gold.Chemscore.Internal.Correction>
   9.000000E+99

> <Gold.Chemscore.Hbonds>
donor molecule, donor type, donor heavy atom, donor atom, acceptor molecule, acceptor atom, score
      L1  H     7    27       P1  7948  0.80
      L1  H    10    28       P1  7948  0.61
      P1  H  7997  8010       L1    15  0.30

> <Gold.Chemscore.Hbond.Weighted>
-9.6583

> <Gold.Chemscore.Metal.Weighted>
-0.0000

> <Gold.Chemscore.Lipo.Weighted>
-8.7185

> <Gold.Chemscore.Internal_Hbond.Weighted>
0.0000

> <Gold.Chemscore.DEClash.Weighted>
0.0899

> <Gold.Chemscore.DEInternal.Weighted>
0.2671

> <Gold.Chemscore.Rot.Weighted>
4.7433

> <Gold.Chemscore.Internal.Correction.Weighted>
   9.000000E+99

> <Gold.Protein.RotatedTorsions>
[ 6907 6896 6895 6894 ] final -101.56 input  -60.11 | X-H torsion
[ 7974 7965 7964 7962 ] final -148.17 input  175.53 | X-H torsion
[ 8008 7997 7996 7995 ] final   90.24 input   59.86 | X-H torsion
[ 10167 10162 10161 10158 ] final  176.31 input  -65.29 | X-H torsion
[ 10718 10713 10712 10709 ] final  115.01 input   66.30 | X-H torsion
[ 10763 10752 10751 10750 ] final -146.00 input  -60.55 | X-H torsion
[ 11005 11000 10999 10996 ] final   72.78 input  -57.11 | X-H torsion

> <Gold.Protein.ActiveResidues>
 VAL166  LYS551  ARG553  GLY616  TRP617  ASP618  TYR619  PRO620  LYS621  CYS622 
 ASP623  PHE694  ASN695  SER759  ASP760  ASP761  ALA762  ILE779  LEU786  VAL792 
 PHE793  MET794  SER795  GLU796  ALA797  LYS798  CYS799  TRP800  GLU811  SER814 

> <Gold.Protein.RotatedAtoms>
  150.7160  134.0715  159.3865 H   0  0  0  0  0  0  0  0  0  0  0  0  # atno 6907 bound_to 6896
  151.8697  135.0492  160.0487 H   0  0  0  0  0  0  0  0  0  0  0  0  # atno 6908 bound_to 6896
  152.2653  133.5297  159.5442 H   0  0  0  0  0  0  0  0  0  0  0  0  # atno 6909 bound_to 6896
  144.8046  140.5231  143.5683 H   0  0  0  0  0  0  0  0  0  0  0  0  # atno 7974 bound_to 7965
  156.0096  140.3351  155.6927 H   0  0  0  0  0  0  0  0  0  0  0  0  # atno 8008 bound_to 7997
  155.6177  140.0672  157.2705 H   0  0  0  0  0  0  0  0  0  0  0  0  # atno 8009 bound_to 7997
  154.4276  140.1782  156.1326 H   0  0  0  0  0  0  0  0  0  0  0  0  # atno 8010 bound_to 7997
  139.5209  144.2930  152.0446 H   0  0  0  0  0  0  0  0  0  0  0  0  # atno 10167 bound_to 10162
  157.6247  131.1006  150.7268 H   0  0  0  0  0  0  0  0  0  0  0  0  # atno 10718 bound_to 10713
  154.8357  135.3398  154.6592 H   0  0  0  0  0  0  0  0  0  0  0  0  # atno 10763 bound_to 10752
  153.7208  135.6958  153.5018 H   0  0  0  0  0  0  0  0  0  0  0  0  # atno 10764 bound_to 10752
  153.2383  135.4393  155.0623 H   0  0  0  0  0  0  0  0  0  0  0  0  # atno 10765 bound_to 10752
  139.9473  134.7290  156.0948 H   0  0  0  0  0  0  0  0  0  0  0  0  # atno 11005 bound_to 11000
  145.5469  139.1476  143.3416 LP  0  0  0  0  0  0  0  0  0  0  0  0  # atno 17320 bound_to 7965
  146.2335  140.5607  142.8965 LP  0  0  0  0  0  0  0  0  0  0  0  0  # atno 17321 bound_to 7965
  140.2381  144.4298  150.6271 LP  0  0  0  0  0  0  0  0  0  0  0  0  # atno 17342 bound_to 10162
  140.6310  143.2187  151.6496 LP  0  0  0  0  0  0  0  0  0  0  0  0  # atno 17343 bound_to 10162
  156.7618  130.4801  149.5435 LP  0  0  0  0  0  0  0  0  0  0  0  0  # atno 17370 bound_to 10713
  156.1413  130.6246  151.0471 LP  0  0  0  0  0  0  0  0  0  0  0  0  # atno 17371 bound_to 10713
  141.1127  133.6638  156.3018 LP  0  0  0  0  0  0  0  0  0  0  0  0  # atno 17394 bound_to 11000
  140.5803  134.5752  157.5478 LP  0  0  0  0  0  0  0  0  0  0  0  0  # atno 17395 bound_to 11000

$$$$
