AV-unprocessed.smi:1464|AV-procd|sdf|5950|dock4
  -GOLD-   22720 6 33D 1   1.00000     0.00000
 Structure written by MMmdl.
 41 42  0  0  0  0  0  0  0  0  1 V2000
  153.4882  143.0499  162.6179 C   0  0  0  0  0  0  0  0  0  0  0  0
  152.7942  143.0076  161.2446 C   0  0  1  0  0  0  0  0  0  0  0  0
  152.0656  144.3431  160.9881 C   0  0  0  0  0  0  0  0  0  0  0  0
  151.3416  144.3575  159.6354 C   0  0  0  0  0  0  0  0  0  0  0  0
  152.3163  144.0544  158.4889 C   0  0  0  0  0  0  0  0  0  0  0  0
  153.0574  142.7202  158.7053 C   0  0  2  0  0  0  0  0  0  0  0  0
  152.1447  141.5863  158.5533 N   0  0  0  0  0  0  0  0  0  0  0  0
  152.5023  140.3281  158.2559 C   0  0  0  0  0  0  0  0  0  0  0  0
  153.6673  139.9876  158.0458 O   0  0  0  0  0  0  0  0  0  0  0  0
  151.3580  139.3089  158.1609 C   0  0  0  0  0  0  0  0  0  0  0  0
  150.8567  139.1299  156.7907 N   0  0  0  0  0  0  0  0  0  0  0  0
  151.5189  138.1496  156.0670 N   0  0  0  0  0  0  0  0  0  0  0  0
  151.1600  137.8906  154.8549 C   0  0  0  0  0  0  0  0  0  0  0  0
  151.8400  136.9096  154.1759 O   0  0  0  0  0  0  0  0  0  0  0  0
  150.0746  138.6101  154.2252 C   0  0  0  0  0  0  0  0  0  0  0  0
  149.4393  139.5668  154.9368 C   0  0  0  0  0  0  0  0  0  0  0  0
  149.8201  139.8856  156.3140 C   0  0  0  0  0  0  0  0  0  0  0  0
  149.2607  140.7532  156.9846 O   0  0  0  0  0  0  0  0  0  0  0  0
  153.7726  142.6824  160.0810 C   0  0  2  0  0  0  0  0  0  0  0  0
  154.5290  141.3529  160.2796 C   0  0  0  0  0  0  0  0  0  0  0  0
  151.2656  136.6472  153.4728 H   0  0  0  0  0  0  0  0  0  0  0  0
  154.3081  143.7687  162.6262 H   0  0  0  0  0  0  0  0  0  0  0  0
  153.8903  142.0770  162.8987 H   0  0  0  0  0  0  0  0  0  0  0  0
  152.7868  143.3393  163.4011 H   0  0  0  0  0  0  0  0  0  0  0  0
  152.0391  142.2214  161.2877 H   0  0  0  0  0  0  0  0  0  0  0  0
  151.3447  144.5331  161.7840 H   0  0  0  0  0  0  0  0  0  0  0  0
  152.7823  145.1650  161.0218 H   0  0  0  0  0  0  0  0  0  0  0  0
  150.5338  143.6247  159.6412 H   0  0  0  0  0  0  0  0  0  0  0  0
  150.8736  145.3293  159.4759 H   0  0  0  0  0  0  0  0  0  0  0  0
  151.7838  144.0469  157.5370 H   0  0  0  0  0  0  0  0  0  0  0  0
  153.0465  144.8618  158.4189 H   0  0  0  0  0  0  0  0  0  0  0  0
  153.8273  142.6389  157.9355 H   0  0  0  0  0  0  0  0  0  0  0  0
  151.1637  141.7747  158.7013 H   0  0  0  0  0  0  0  0  0  0  0  0
  151.6846  138.3481  158.5641 H   0  0  0  0  0  0  0  0  0  0  0  0
  150.5537  139.6435  158.8184 H   0  0  0  0  0  0  0  0  0  0  0  0
  149.7862  138.3807  153.2101 H   0  0  0  0  0  0  0  0  0  0  0  0
  148.6267  140.1116  154.4787 H   0  0  0  0  0  0  0  0  0  0  0  0
  154.5272  143.4704  160.0630 H   0  0  0  0  0  0  0  0  0  0  0  0
  153.8450  140.5190  160.4397 H   0  0  0  0  0  0  0  0  0  0  0  0
  155.2036  141.3980  161.1341 H   0  0  0  0  0  0  0  0  0  0  0  0
  155.1400  141.1175  159.4077 H   0  0  0  0  0  0  0  0  0  0  0  0
  1  2  1  0  0  0  0
  1 22  1  0  0  0  0
  1 23  1  0  0  0  0
  1 24  1  0  0  0  0
  2 19  1  0  0  0  0
  2  3  1  0  0  0  0
  2 25  1  0  0  0  0
  3  4  1  0  0  0  0
  3 26  1  0  0  0  0
  3 27  1  0  0  0  0
  4  5  1  0  0  0  0
  4 28  1  0  0  0  0
  4 29  1  0  0  0  0
  5  6  1  0  0  0  0
  5 30  1  0  0  0  0
  5 31  1  0  0  0  0
  6  7  1  0  0  0  0
  6 19  1  0  0  0  0
  6 32  1  0  0  0  0
  7  8  1  0  0  0  0
  7 33  1  0  0  0  0
  8  9  2  0  0  0  0
  8 10  1  0  0  0  0
 10 34  1  0  0  0  0
 10 35  1  0  0  0  0
 10 11  1  0  0  0  0
 11 12  1  0  0  0  0
 11 17  1  0  0  0  0
 12 13  2  0  0  0  0
 13 14  1  0  0  0  0
 13 15  1  0  0  0  0
 14 21  1  0  0  0  0
 15 36  1  0  0  0  0
 15 16  2  0  0  0  0
 16 37  1  0  0  0  0
 16 17  1  0  0  0  0
 17 18  2  0  0  0  0
 19 20  1  0  0  0  0
 19 38  1  0  0  0  0
 20 39  1  0  0  0  0
 20 40  1  0  0  0  0
 20 41  1  0  0  0  0
M  END
> <s_m_source_file>
AV-unprocessed.smi

> <i_m_source_file_index>
1464

> <i_lp_mmshare_version>
43012

> <i_f3d_flags>
0

> <s_epik_input>
W0NIM11bQ0BASF0xW0NIMl1bQ0gyXVtDSDJdW0NASF0oW0NASF0xW0NIM10pW05IXUMoPU8pW0NIMl1uMltuSF1jKD1PKVtjSF1bY0hdYzI9Tw==

> <s_epik_cmdline>
J2VwaWtfcHl0aG9uJywgJy1waCcsICc3LjAnLCAnLXRuJywgJzgnLCAnLW1hJywgJzIwMCcsICctbWV0YWxfYmluZGluZycsICctaW1hZScsICc8aW5maWxlLm1hZT4nLCAnLW9tYWUnLCAnPG91dGZpbGUubWFlPic=

> <r_lp_tautomer_probability>
0.9996

> <r_epik_Ionization_Penalty>
2.10335

> <r_epik_Ionization_Penalty_Charging>
3.98079e-08

> <r_epik_Ionization_Penalty_Neutral>
2.10335

> <r_epik_State_Penalty>
1.67957

> <r_epik_Charging_Adjusted_Penalty>
1.67957

> <i_epik_Tot_Q>
0

> <i_epik_Tot_abs_Q>
0

> <r_epik_Metal_State_Penalty>
1.67957

> <b_epik_Metal_Only>
0

> <s_lp_Force_Field>
OPLS_2005

> <r_lp_Energy>
23.2489

> <b_lp_Chiralities_Consistent>
1

> <s_lp_Variant>
AV-unprocessed.smi:1464-16

> <Gold.Version>
5.8.1

> <Gold.Id.Protein>
6NUR|6NUR_protein|mol2

> <Gold.PLP.Fitness>
53.1577

> <Gold.PLP.PLP>
-46.2383

> <Gold.PLP.part.hbond>
-3.0000

> <Gold.PLP.part.metal>
0.0000

> <Gold.PLP.part.buried>
-3.1086

> <Gold.PLP.part.nonpolar>
-38.5496

> <Gold.PLP.part.repulsive>
0.1589

> <Gold.PLP.ligand.clash>
0.0000

> <Gold.PLP.ligand.torsion>
1.0089

> <Gold.PLP.Chemscore.Hbond>
2.9750

> <Gold.PLP.Chemscore.CHOScore>
0.0000

> <Gold.PLP.Chemscore.Metal>
0.0000

> <Gold.Chemscore.Hbonds>
donor molecule, donor type, donor heavy atom, donor atom, acceptor molecule, acceptor atom, score
      L1  H    14    21       P1  7949  0.76
      P1  H  7997  8009       L1     9  0.65
      P1  H 10752 10765       L1    14  1.00

> <Gold.PLP.Chemscore.Internal.Correction>
0.0122

> <Gold.Rescore>
     Score         DG    S(hbond)    S(metal)    S(lipo)     H(rot)  DE(clash)    DE(int)     intcor
     16.30     -19.07       1.63        0.00     118.42       2.22       0.44       2.33       ----

> <Gold.Chemscore.Fitness>
16.3004

> <Gold.Chemscore.DG>
-19.0742

> <Gold.Chemscore.ZeroCoef>
-5.4800

> <Gold.Chemscore.Hbond>
1.6253

> <Gold.Chemscore.Metal>
0.0000

> <Gold.Chemscore.Lipo>
118.4182

> <Gold.Chemscore.Internal_Hbond>
0.0000

> <Gold.Chemscore.DEClash>
0.4413

> <Gold.Chemscore.DEInternal>
2.3326

> <Gold.Chemscore.Rot>
2.2224

> <Gold.Chemscore.Internal.Correction>
   9.000000E+99

> <Gold.Chemscore.Hbonds>
donor molecule, donor type, donor heavy atom, donor atom, acceptor molecule, acceptor atom, score
      L1  H    14    21       P1  7949  0.45
      P1  H  7997  8009       L1     9  0.61
      P1  H 10752 10765       L1    14  0.34

> <Gold.Chemscore.Hbond.Weighted>
-5.4286

> <Gold.Chemscore.Metal.Weighted>
-0.0000

> <Gold.Chemscore.Lipo.Weighted>
-13.8549

> <Gold.Chemscore.Internal_Hbond.Weighted>
0.0000

> <Gold.Chemscore.DEClash.Weighted>
0.4413

> <Gold.Chemscore.DEInternal.Weighted>
2.3326

> <Gold.Chemscore.Rot.Weighted>
5.6893

> <Gold.Chemscore.Internal.Correction.Weighted>
   9.000000E+99

> <Gold.Protein.RotatedTorsions>
[ 6907 6896 6895 6894 ] final  -96.25 input  -60.11 | X-H torsion
[ 7974 7965 7964 7962 ] final   99.20 input  175.53 | X-H torsion
[ 8008 7997 7996 7995 ] final  161.32 input   59.86 | X-H torsion
[ 10167 10162 10161 10158 ] final -168.62 input  -65.29 | X-H torsion
[ 10718 10713 10712 10709 ] final  -83.76 input   66.30 | X-H torsion
[ 10763 10752 10751 10750 ] final  154.07 input  -60.55 | X-H torsion
[ 11005 11000 10999 10996 ] final -117.04 input  -57.11 | X-H torsion

> <Gold.Protein.ActiveResidues>
 VAL166  LYS551  ARG553  GLY616  TRP617  ASP618  TYR619  PRO620  LYS621  CYS622 
 ASP623  PHE694  ASN695  SER759  ASP760  ASP761  ALA762  ILE779  LEU786  VAL792 
 PHE793  MET794  SER795  GLU796  ALA797  LYS798  CYS799  TRP800  GLU811  SER814 

> <Gold.Protein.RotatedAtoms>
  150.6984  134.1532  159.4147 H   0  0  0  0  0  0  0  0  0  0  0  0  # atno 6907 bound_to 6896
  151.9514  135.0165  160.0551 H   0  0  0  0  0  0  0  0  0  0  0  0  # atno 6908 bound_to 6896
  152.2007  133.4804  159.5094 H   0  0  0  0  0  0  0  0  0  0  0  0  # atno 6909 bound_to 6896
  145.4020  139.2346  143.3295 H   0  0  0  0  0  0  0  0  0  0  0  0  # atno 7974 bound_to 7965
  156.2111  140.1780  156.7692 H   0  0  0  0  0  0  0  0  0  0  0  0  # atno 8008 bound_to 7997
  154.5724  140.0680  156.9014 H   0  0  0  0  0  0  0  0  0  0  0  0  # atno 8009 bound_to 7997
  155.2649  140.3338  155.4272 H   0  0  0  0  0  0  0  0  0  0  0  0  # atno 8010 bound_to 7997
  139.5974  144.1084  152.1704 H   0  0  0  0  0  0  0  0  0  0  0  0  # atno 10167 bound_to 10162
  156.0014  130.4676  150.4306 H   0  0  0  0  0  0  0  0  0  0  0  0  # atno 10718 bound_to 10713
  154.1464  135.2817  155.3147 H   0  0  0  0  0  0  0  0  0  0  0  0  # atno 10763 bound_to 10752
  154.6249  135.5455  153.7619 H   0  0  0  0  0  0  0  0  0  0  0  0  # atno 10764 bound_to 10752
  153.0234  135.6448  154.1610 H   0  0  0  0  0  0  0  0  0  0  0  0  # atno 10765 bound_to 10752
  141.0382  133.9877  157.3038 H   0  0  0  0  0  0  0  0  0  0  0  0  # atno 11005 bound_to 11000
  146.2747  140.4719  142.8800 LP  0  0  0  0  0  0  0  0  0  0  0  0  # atno 17320 bound_to 7965
  144.8368  140.6794  143.6255 LP  0  0  0  0  0  0  0  0  0  0  0  0  # atno 17321 bound_to 7965
  140.0672  144.5809  150.7219 LP  0  0  0  0  0  0  0  0  0  0  0  0  # atno 17342 bound_to 10162
  140.7222  143.2600  151.4239 LP  0  0  0  0  0  0  0  0  0  0  0  0  # atno 17343 bound_to 10162
  157.2355  131.0514  151.2467 LP  0  0  0  0  0  0  0  0  0  0  0  0  # atno 17370 bound_to 10713
  157.3670  130.7161  149.6539 LP  0  0  0  0  0  0  0  0  0  0  0  0  # atno 17371 bound_to 10713
  139.9256  135.0201  156.8221 LP  0  0  0  0  0  0  0  0  0  0  0  0  # atno 17394 bound_to 11000
  140.6284  133.9929  155.7650 LP  0  0  0  0  0  0  0  0  0  0  0  0  # atno 17395 bound_to 11000

$$$$
