AV-unprocessed.smi:1244|AV-procd|sdf|5221|dock10
  -GOLD-   22720 4323D 1   1.00000     0.00000
 Structure written by MMmdl.
 54 56  0  0  0  0  0  0  0  0  1 V2000
  155.1188  141.1265  160.0979 C   0  0  0  0  0  0  0  0  0  0  0  0
  153.6628  140.9775  160.5715 C   0  0  2  0  0  0  0  0  0  0  0  0
  152.8095  140.0803  159.6527 C   0  0  0  0  0  0  0  0  0  0  0  0
  152.4654  140.7269  158.3906 N   0  0  0  0  0  0  0  0  0  0  0  0
  151.6569  139.8417  157.5536 C   0  0  0  0  0  0  0  0  0  0  0  0
  150.3545  139.3429  158.2087 C   0  0  0  0  0  0  0  0  0  0  0  0
  149.9917  138.0109  157.7394 N   0  0  0  0  0  0  0  0  0  0  0  0
  149.6464  136.9849  158.5298 C   0  0  0  0  0  0  0  0  0  0  0  0
  149.5775  137.0639  159.7565 O   0  0  0  0  0  0  0  0  0  0  0  0
  149.4122  135.8737  157.8117 N   0  0  0  0  0  0  0  0  0  0  0  0
  149.0419  134.5841  158.2881 C   0  0  0  0  0  0  0  0  0  0  0  0
  148.4578  134.4096  159.5666 C   0  0  0  0  0  0  0  0  0  0  0  0
  148.1236  133.1162  160.0029 C   0  0  0  0  0  0  0  0  0  0  0  0
  148.3828  132.0378  159.1415 C   0  0  0  0  0  0  0  0  0  0  0  0
  148.9198  132.1884  157.9146 N   0  0  0  0  0  0  0  0  0  0  0  0
  149.2338  133.4314  157.4724 C   0  0  0  0  0  0  0  0  0  0  0  0
  149.7783  133.5243  156.1705 N   0  0  0  0  0  0  0  0  0  0  0  0
  150.2603  132.3301  155.4841 C   0  0  0  0  0  0  0  0  0  0  0  0
  150.3998  132.7434  154.0219 C   0  0  0  0  0  0  0  0  0  0  0  0
  149.2288  133.7047  153.8443 C   0  0  0  0  0  0  0  0  0  0  0  0
  149.1231  134.4016  155.2049 C   0  0  0  0  0  0  0  0  0  0  0  0
  151.8012  141.9954  158.6741 C   0  0  0  0  0  0  0  0  0  0  0  0
  152.6728  142.9200  159.5434 C   0  0  1  0  0  0  0  0  0  0  0  0
  151.9415  144.2128  159.9203 C   0  0  0  0  0  0  0  0  0  0  0  0
  153.0294  142.2455  160.7486 O   0  0  0  0  0  0  0  0  0  0  0  0
  155.6221  140.1596  160.0829 H   0  0  0  0  0  0  0  0  0  0  0  0
  155.6801  141.7801  160.7662 H   0  0  0  0  0  0  0  0  0  0  0  0
  155.1831  141.5418  159.0923 H   0  0  0  0  0  0  0  0  0  0  0  0
  153.6955  140.5120  161.5571 H   0  0  0  0  0  0  0  0  0  0  0  0
  153.3400  139.1465  159.4623 H   0  0  0  0  0  0  0  0  0  0  0  0
  151.8936  139.8097  160.1804 H   0  0  0  0  0  0  0  0  0  0  0  0
  151.3893  140.3778  156.6419 H   0  0  0  0  0  0  0  0  0  0  0  0
  152.2561  138.9882  157.2326 H   0  0  0  0  0  0  0  0  0  0  0  0
  150.4635  139.2830  159.2907 H   0  0  0  0  0  0  0  0  0  0  0  0
  149.5380  140.0404  158.0145 H   0  0  0  0  0  0  0  0  0  0  0  0
  150.0230  137.8552  156.7426 H   0  0  0  0  0  0  0  0  0  0  0  0
  149.6170  135.9285  156.8249 H   0  0  0  0  0  0  0  0  0  0  0  0
  148.2548  135.2478  160.2156 H   0  0  0  0  0  0  0  0  0  0  0  0
  147.6813  132.9557  160.9750 H   0  0  0  0  0  0  0  0  0  0  0  0
  148.1454  131.0278  159.4412 H   0  0  0  0  0  0  0  0  0  0  0  0
  151.2070  131.9858  155.9016 H   0  0  0  0  0  0  0  0  0  0  0  0
  149.5350  131.5192  155.5621 H   0  0  0  0  0  0  0  0  0  0  0  0
  151.3425  133.2711  153.8699 H   0  0  0  0  0  0  0  0  0  0  0  0
  150.3680  131.8965  153.3358 H   0  0  0  0  0  0  0  0  0  0  0  0
  149.3712  134.4035  153.0194 H   0  0  0  0  0  0  0  0  0  0  0  0
  148.3173  133.1375  153.6509 H   0  0  0  0  0  0  0  0  0  0  0  0
  148.0844  134.6040  155.4700 H   0  0  0  0  0  0  0  0  0  0  0  0
  149.6577  135.3513  155.1761 H   0  0  0  0  0  0  0  0  0  0  0  0
  151.5680  142.5157  157.7460 H   0  0  0  0  0  0  0  0  0  0  0  0
  150.8506  141.8095  159.1762 H   0  0  0  0  0  0  0  0  0  0  0  0
  153.5781  143.1857  158.9968 H   0  0  0  0  0  0  0  0  0  0  0  0
  151.6553  144.7754  159.0314 H   0  0  0  0  0  0  0  0  0  0  0  0
  152.5769  144.8556  160.5298 H   0  0  0  0  0  0  0  0  0  0  0  0
  151.0360  144.0025  160.4902 H   0  0  0  0  0  0  0  0  0  0  0  0
  1  2  1  0  0  0  0
  1 26  1  0  0  0  0
  1 27  1  0  0  0  0
  1 28  1  0  0  0  0
  2 25  1  0  0  0  0
  2  3  1  0  0  0  0
  2 29  1  0  0  0  0
  3  4  1  0  0  0  0
  3 30  1  0  0  0  0
  3 31  1  0  0  0  0
  4  5  1  0  0  0  0
  4 22  1  0  0  0  0
  5  6  1  0  0  0  0
  5 32  1  0  0  0  0
  5 33  1  0  0  0  0
  6  7  1  0  0  0  0
  6 34  1  0  0  0  0
  6 35  1  0  0  0  0
  7  8  1  0  0  0  0
  7 36  1  0  0  0  0
  8  9  2  0  0  0  0
  8 10  1  0  0  0  0
 10 11  1  0  0  0  0
 10 37  1  0  0  0  0
 11 16  1  0  0  0  0
 11 12  2  0  0  0  0
 12 13  1  0  0  0  0
 12 38  1  0  0  0  0
 13 14  2  0  0  0  0
 13 39  1  0  0  0  0
 14 15  1  0  0  0  0
 14 40  1  0  0  0  0
 15 16  2  0  0  0  0
 16 17  1  0  0  0  0
 17 21  1  0  0  0  0
 17 18  1  0  0  0  0
 18 19  1  0  0  0  0
 18 41  1  0  0  0  0
 18 42  1  0  0  0  0
 19 20  1  0  0  0  0
 19 43  1  0  0  0  0
 19 44  1  0  0  0  0
 20 21  1  0  0  0  0
 20 45  1  0  0  0  0
 20 46  1  0  0  0  0
 21 47  1  0  0  0  0
 21 48  1  0  0  0  0
 22 23  1  0  0  0  0
 22 49  1  0  0  0  0
 22 50  1  0  0  0  0
 23 24  1  0  0  0  0
 23 25  1  0  0  0  0
 23 51  1  0  0  0  0
 24 52  1  0  0  0  0
 24 53  1  0  0  0  0
 24 54  1  0  0  0  0
M  END
> <s_m_source_file>
AV-unprocessed.smi

> <i_m_source_file_index>
1244

> <i_lp_mmshare_version>
43012

> <i_f3d_flags>
0

> <s_epik_input>
W0NIM11bQ0BASF0xW0NIMl1OKFtDSDJdW0NASF0oTzEpW0NIM10pW0NIMl1bQ0gyXVtOSF1DKD1PKVtOSF1jMltjSF1bY0hdW2NIXW5jMk4zW0NIMl1bQ0gyXVtDSDJdW0NIMl0z

> <s_epik_cmdline>
J2VwaWtfcHl0aG9uJywgJy1waCcsICc3LjAnLCAnLXRuJywgJzgnLCAnLW1hJywgJzIwMCcsICctbWV0YWxfYmluZGluZycsICctaW1hZScsICc8aW5maWxlLm1hZT4nLCAnLW9tYWUnLCAnPG91dGZpbGUubWFlPic=

> <r_lp_tautomer_probability>
1

> <r_epik_Ionization_Penalty>
0.363951

> <r_epik_Ionization_Penalty_Charging>
0

> <r_epik_Ionization_Penalty_Neutral>
0.363951

> <r_epik_State_Penalty>
0.349372

> <r_epik_Charging_Adjusted_Penalty>
0.349372

> <i_epik_Tot_Q>
0

> <i_epik_Tot_abs_Q>
0

> <r_epik_Metal_State_Penalty>
0.333054

> <b_epik_Metal_Only>
0

> <s_lp_Force_Field>
OPLS_2005

> <r_lp_Energy>
51.1959

> <b_lp_Chiralities_Consistent>
1

> <s_lp_Variant>
AV-unprocessed.smi:1244-1

> <Gold.Version>
5.8.1

> <Gold.Id.Protein>
6NUR|6NUR_protein|mol2

> <Gold.PLP.Fitness>
36.7010

> <Gold.PLP.PLP>
-37.0849

> <Gold.PLP.part.hbond>
-1.1595

> <Gold.PLP.part.metal>
0.0000

> <Gold.PLP.part.buried>
-5.8329

> <Gold.PLP.part.nonpolar>
-30.0517

> <Gold.PLP.part.repulsive>
0.1262

> <Gold.PLP.ligand.clash>
0.0000

> <Gold.PLP.ligand.torsion>
0.5555

> <Gold.PLP.Chemscore.Hbond>
0.1248

> <Gold.PLP.Chemscore.CHOScore>
0.0000

> <Gold.PLP.Chemscore.Metal>
0.0000

> <Gold.PLP.Chemscore.Internal.Correction>
0.3527

> <Gold.Rescore>
     Score         DG    S(hbond)    S(metal)    S(lipo)     H(rot)  DE(clash)    DE(int)     intcor
     12.68     -14.61       0.26        0.00     104.52       1.55       0.03       1.90       ----

> <Gold.Chemscore.Fitness>
12.6781

> <Gold.Chemscore.DG>
-14.6135

> <Gold.Chemscore.ZeroCoef>
-5.4800

> <Gold.Chemscore.Hbond>
0.2598

> <Gold.Chemscore.Metal>
0.0000

> <Gold.Chemscore.Lipo>
104.5165

> <Gold.Chemscore.Internal_Hbond>
0.0000

> <Gold.Chemscore.DEClash>
0.0346

> <Gold.Chemscore.DEInternal>
1.9009

> <Gold.Chemscore.Rot>
1.5479

> <Gold.Chemscore.Internal.Correction>
   9.000000E+99

> <Gold.Chemscore.Hbonds>
donor molecule, donor type, donor heavy atom, donor atom, acceptor molecule, acceptor atom, score
      P1  H  6931  6943       L1     9  0.01

> <Gold.Chemscore.Hbond.Weighted>
-0.8678

> <Gold.Chemscore.Metal.Weighted>
-0.0000

> <Gold.Chemscore.Lipo.Weighted>
-12.2284

> <Gold.Chemscore.Internal_Hbond.Weighted>
0.0000

> <Gold.Chemscore.DEClash.Weighted>
0.0346

> <Gold.Chemscore.DEInternal.Weighted>
1.9009

> <Gold.Chemscore.Rot.Weighted>
3.9627

> <Gold.Chemscore.Internal.Correction.Weighted>
   9.000000E+99

> <Gold.Protein.RotatedTorsions>
[ 6907 6896 6895 6894 ] final -152.44 input  -60.11 | X-H torsion
[ 7974 7965 7964 7962 ] final  -57.32 input  175.53 | X-H torsion
[ 8008 7997 7996 7995 ] final  -75.99 input   59.86 | X-H torsion
[ 10167 10162 10161 10158 ] final   88.38 input  -65.29 | X-H torsion
[ 10718 10713 10712 10709 ] final  107.01 input   66.30 | X-H torsion
[ 10763 10752 10751 10750 ] final -103.17 input  -60.55 | X-H torsion
[ 11005 11000 10999 10996 ] final -142.55 input  -57.11 | X-H torsion

> <Gold.Protein.ActiveResidues>
 VAL166  LYS551  ARG553  GLY616  TRP617  ASP618  TYR619  PRO620  LYS621  CYS622 
 ASP623  PHE694  ASN695  SER759  ASP760  ASP761  ALA762  ILE779  LEU786  VAL792 
 PHE793  MET794  SER795  GLU796  ALA797  LYS798  CYS799  TRP800  GLU811  SER814 

> <Gold.Protein.RotatedAtoms>
  151.2278  133.4467  159.2602 H   0  0  0  0  0  0  0  0  0  0  0  0  # atno 6907 bound_to 6896
  151.0824  134.9866  159.8372 H   0  0  0  0  0  0  0  0  0  0  0  0  # atno 6908 bound_to 6896
  152.5425  134.2216  159.8843 H   0  0  0  0  0  0  0  0  0  0  0  0  # atno 6909 bound_to 6896
  145.8524  140.8343  142.9979 H   0  0  0  0  0  0  0  0  0  0  0  0  # atno 7974 bound_to 7965
  154.5465  140.0735  156.8597 H   0  0  0  0  0  0  0  0  0  0  0  0  # atno 8008 bound_to 7997
  155.3077  140.3388  155.4227 H   0  0  0  0  0  0  0  0  0  0  0  0  # atno 8009 bound_to 7997
  156.1923  140.1690  156.8054 H   0  0  0  0  0  0  0  0  0  0  0  0  # atno 8010 bound_to 7997
  139.8679  144.6509  150.8983 H   0  0  0  0  0  0  0  0  0  0  0  0  # atno 10167 bound_to 10162
  157.6645  131.0863  150.6092 H   0  0  0  0  0  0  0  0  0  0  0  0  # atno 10718 bound_to 10713
  154.7788  135.4833  153.9800 H   0  0  0  0  0  0  0  0  0  0  0  0  # atno 10763 bound_to 10752
  153.1465  135.6783  153.8954 H   0  0  0  0  0  0  0  0  0  0  0  0  # atno 10764 bound_to 10752
  153.8612  135.3155  155.3416 H   0  0  0  0  0  0  0  0  0  0  0  0  # atno 10765 bound_to 10752
  140.8214  134.2626  157.4898 H   0  0  0  0  0  0  0  0  0  0  0  0  # atno 11005 bound_to 11000
  144.6729  140.0973  143.7462 LP  0  0  0  0  0  0  0  0  0  0  0  0  # atno 17320 bound_to 7965
  145.9342  139.2626  143.1307 LP  0  0  0  0  0  0  0  0  0  0  0  0  # atno 17321 bound_to 7965
  140.7765  143.3688  151.1687 LP  0  0  0  0  0  0  0  0  0  0  0  0  # atno 17342 bound_to 10162
  139.7312  143.9070  152.3020 LP  0  0  0  0  0  0  0  0  0  0  0  0  # atno 17343 bound_to 10162
  156.6394  130.4454  149.5758 LP  0  0  0  0  0  0  0  0  0  0  0  0  # atno 17370 bound_to 10713
  156.2221  130.6743  151.1379 LP  0  0  0  0  0  0  0  0  0  0  0  0  # atno 17371 bound_to 10713
  139.8708  134.9537  156.4154 LP  0  0  0  0  0  0  0  0  0  0  0  0  # atno 17394 bound_to 11000
  140.9094  133.7722  155.9774 LP  0  0  0  0  0  0  0  0  0  0  0  0  # atno 17395 bound_to 11000

$$$$
