AV-unprocessed.smi:1990|AV-procd|sdf|8063|dock6
  -GOLD-   2272010273D 1   1.00000     0.00000
 Structure written by MMmdl.
 46 47  0  0  0  0  0  0  0  0  1 V2000
  145.8605  131.8333  149.8468 C   0  0  0  0  0  0  0  0  0  0  0  0
  145.2086  131.6116  151.2235 C   0  0  2  0  0  0  0  0  0  0  0  0
  145.7129  132.5867  152.3058 C   0  0  0  0  0  0  0  0  0  0  0  0
  147.0513  132.2201  152.7610 N   0  0  0  0  0  0  0  0  0  0  0  0
  147.7298  133.1957  153.5233 C   0  0  0  0  0  0  0  0  0  0  0  0
  149.1226  133.0845  153.7447 C   0  0  0  0  0  0  0  0  0  0  0  0
  149.7814  134.0671  154.5084 C   0  0  0  0  0  0  0  0  0  0  0  0
  149.0284  135.1377  155.0450 C   0  0  0  0  0  0  0  0  0  0  0  0
  149.5697  136.2015  155.8172 N   0  0  0  0  0  0  0  0  0  0  0  0
  150.8347  136.6604  155.8619 C   0  0  0  0  0  0  0  0  0  0  0  0
  151.7779  136.1680  155.2438 O   0  0  0  0  0  0  0  0  0  0  0  0
  151.0724  137.8633  156.7859 C   0  0  1  0  0  0  0  0  0  0  0  0
  151.9626  137.4996  157.9862 C   0  0  0  0  0  0  0  0  0  0  0  0
  151.8396  139.2550  155.8303 S   0  0  0  0  0  0  0  0  0  0  0  0
  151.8065  140.6541  157.0289 C   0  0  0  0  0  0  0  0  0  0  0  0
  153.2448  138.9070  155.5705 O   0  0  0  0  0  0  0  0  0  0  0  0
  150.9626  139.6016  154.7015 O   0  0  0  0  0  0  0  0  0  0  0  0
  147.6481  135.1668  154.7638 C   0  0  0  0  0  0  0  0  0  0  0  0
  147.0133  134.2276  154.0325 N   0  0  0  0  0  0  0  0  0  0  0  0
  147.1531  130.8253  153.1816 C   0  0  0  0  0  0  0  0  0  0  0  0
  146.6621  129.8890  152.0633 C   0  0  1  0  0  0  0  0  0  0  0  0
  146.6282  128.4260  152.5175 C   0  0  0  0  0  0  0  0  0  0  0  0
  145.3410  130.2611  151.6729 O   0  0  0  0  0  0  0  0  0  0  0  0
  145.6299  132.8288  149.4670 H   0  0  0  0  0  0  0  0  0  0  0  0
  145.4903  131.1101  149.1200 H   0  0  0  0  0  0  0  0  0  0  0  0
  146.9462  131.7465  149.8834 H   0  0  0  0  0  0  0  0  0  0  0  0
  144.1397  131.7843  151.0959 H   0  0  0  0  0  0  0  0  0  0  0  0
  145.6734  133.6044  151.9198 H   0  0  0  0  0  0  0  0  0  0  0  0
  145.0428  132.5549  153.1659 H   0  0  0  0  0  0  0  0  0  0  0  0
  149.6906  132.2555  153.3498 H   0  0  0  0  0  0  0  0  0  0  0  0
  150.8462  133.9789  154.6544 H   0  0  0  0  0  0  0  0  0  0  0  0
  148.9164  136.6518  156.4414 H   0  0  0  0  0  0  0  0  0  0  0  0
  150.1143  138.2229  157.1632 H   0  0  0  0  0  0  0  0  0  0  0  0
  151.5500  136.6598  158.5465 H   0  0  0  0  0  0  0  0  0  0  0  0
  152.0492  138.3411  158.6737 H   0  0  0  0  0  0  0  0  0  0  0  0
  152.9712  137.2297  157.6707 H   0  0  0  0  0  0  0  0  0  0  0  0
  152.3388  141.5040  156.6026 H   0  0  0  0  0  0  0  0  0  0  0  0
  152.2922  140.3536  157.9567 H   0  0  0  0  0  0  0  0  0  0  0  0
  150.7767  140.9468  157.2312 H   0  0  0  0  0  0  0  0  0  0  0  0
  147.0290  135.9690  155.1391 H   0  0  0  0  0  0  0  0  0  0  0  0
  148.1869  130.5789  153.4274 H   0  0  0  0  0  0  0  0  0  0  0  0
  146.5592  130.6796  154.0851 H   0  0  0  0  0  0  0  0  0  0  0  0
  147.3326  129.9598  151.2065 H   0  0  0  0  0  0  0  0  0  0  0  0
  147.6186  128.0867  152.8215 H   0  0  0  0  0  0  0  0  0  0  0  0
  146.2869  127.7758  151.7117 H   0  0  0  0  0  0  0  0  0  0  0  0
  145.9533  128.2909  153.3632 H   0  0  0  0  0  0  0  0  0  0  0  0
  1  2  1  0  0  0  0
  1 24  1  0  0  0  0
  1 25  1  0  0  0  0
  1 26  1  0  0  0  0
  2 23  1  0  0  0  0
  2  3  1  0  0  0  0
  2 27  1  0  0  0  0
  3  4  1  0  0  0  0
  3 28  1  0  0  0  0
  3 29  1  0  0  0  0
  4  5  1  0  0  0  0
  4 20  1  0  0  0  0
  5 19  1  0  0  0  0
  5  6  2  0  0  0  0
  6  7  1  0  0  0  0
  6 30  1  0  0  0  0
  7  8  2  0  0  0  0
  7 31  1  0  0  0  0
  8  9  1  0  0  0  0
  8 18  1  0  0  0  0
  9 10  1  0  0  0  0
  9 32  1  0  0  0  0
 10 11  2  0  0  0  0
 10 12  1  0  0  0  0
 12 13  1  0  0  0  0
 12 14  1  0  0  0  0
 12 33  1  0  0  0  0
 13 34  1  0  0  0  0
 13 35  1  0  0  0  0
 13 36  1  0  0  0  0
 14 15  1  0  0  0  0
 14 16  2  0  0  0  0
 14 17  2  0  0  0  0
 15 37  1  0  0  0  0
 15 38  1  0  0  0  0
 15 39  1  0  0  0  0
 18 19  2  0  0  0  0
 18 40  1  0  0  0  0
 20 21  1  0  0  0  0
 20 41  1  0  0  0  0
 20 42  1  0  0  0  0
 21 22  1  0  0  0  0
 21 23  1  0  0  0  0
 21 43  1  0  0  0  0
 22 44  1  0  0  0  0
 22 45  1  0  0  0  0
 22 46  1  0  0  0  0
M  END
> <s_m_source_file>
AV-unprocessed.smi

> <i_m_source_file_index>
1990

> <i_lp_mmshare_version>
43012

> <i_f3d_flags>
0

> <s_epik_input>
W0NIM11bQ0BASF0xW0NIMl1OKFtDSDJdW0NASF0oTzEpW0NIM10pYzJbY0hdW2NIXWMoW2NIXW4yKVtOSF1DKD1PKVtDQEhdKFtDSDNdKVMoPU8pKD1PKVtDSDNd

> <s_epik_cmdline>
J2VwaWtfcHl0aG9uJywgJy1waCcsICc3LjAnLCAnLXRuJywgJzgnLCAnLW1hJywgJzIwMCcsICctbWV0YWxfYmluZGluZycsICctaW1hZScsICc8aW5maWxlLm1hZT4nLCAnLW9tYWUnLCAnPG91dGZpbGUubWFlPic=

> <r_lp_tautomer_probability>
1

> <r_epik_Ionization_Penalty>
0.000334888

> <r_epik_Ionization_Penalty_Charging>
0

> <r_epik_Ionization_Penalty_Neutral>
0.000334888

> <r_epik_State_Penalty>
0.000200905

> <r_epik_Charging_Adjusted_Penalty>
0.000200905

> <i_epik_Tot_Q>
0

> <i_epik_Tot_abs_Q>
0

> <r_epik_Metal_State_Penalty>
-0

> <b_epik_Metal_Only>
0

> <s_lp_Force_Field>
OPLS_2005

> <r_lp_Energy>
21.5475

> <b_lp_Chiralities_Consistent>
1

> <s_lp_Variant>
AV-unprocessed.smi:1990-3

> <Gold.Version>
5.8.1

> <Gold.Id.Protein>
6NUR|6NUR_protein|mol2

> <Gold.PLP.Fitness>
43.1058

> <Gold.PLP.PLP>
-34.7272

> <Gold.PLP.part.hbond>
-3.0000

> <Gold.PLP.part.metal>
0.0000

> <Gold.PLP.part.buried>
-6.1470

> <Gold.PLP.part.nonpolar>
-26.5642

> <Gold.PLP.part.repulsive>
0.5670

> <Gold.PLP.ligand.clash>
0.0000

> <Gold.PLP.ligand.torsion>
0.5546

> <Gold.PLP.Chemscore.Hbond>
3.0000

> <Gold.PLP.Chemscore.CHOScore>
0.0000

> <Gold.PLP.Chemscore.Metal>
0.0000

> <Gold.Chemscore.Hbonds>
donor molecule, donor type, donor heavy atom, donor atom, acceptor molecule, acceptor atom, score
      P1  H  7989  7998       L1    17  1.00
      P1  H  7997  8009       L1    16  1.00
      P1  H 10752 10765       L1    11  0.83

> <Gold.PLP.Chemscore.Internal.Correction>
0.4879

> <Gold.Rescore>
     Score         DG    S(hbond)    S(metal)    S(lipo)     H(rot)  DE(clash)    DE(int)     intcor
     17.82     -21.08       2.93        0.00      82.97       1.52       1.50       1.76       ----

> <Gold.Chemscore.Fitness>
17.8230

> <Gold.Chemscore.DG>
-21.0794

> <Gold.Chemscore.ZeroCoef>
-5.4800

> <Gold.Chemscore.Hbond>
2.9273

> <Gold.Chemscore.Metal>
0.0000

> <Gold.Chemscore.Lipo>
82.9692

> <Gold.Chemscore.Internal_Hbond>
0.0000

> <Gold.Chemscore.DEClash>
1.4963

> <Gold.Chemscore.DEInternal>
1.7601

> <Gold.Chemscore.Rot>
1.5177

> <Gold.Chemscore.Internal.Correction>
   9.000000E+99

> <Gold.Chemscore.Hbonds>
donor molecule, donor type, donor heavy atom, donor atom, acceptor molecule, acceptor atom, score
      P1  H  7989  7998       L1    17  0.93
      P1  H  7997  8009       L1    16  0.84
      P1  H 10752 10765       L1    11  0.82

> <Gold.Chemscore.Hbond.Weighted>
-9.7773

> <Gold.Chemscore.Metal.Weighted>
-0.0000

> <Gold.Chemscore.Lipo.Weighted>
-9.7074

> <Gold.Chemscore.Internal_Hbond.Weighted>
0.0000

> <Gold.Chemscore.DEClash.Weighted>
1.4963

> <Gold.Chemscore.DEInternal.Weighted>
1.7601

> <Gold.Chemscore.Rot.Weighted>
3.8853

> <Gold.Chemscore.Internal.Correction.Weighted>
   9.000000E+99

> <Gold.Protein.RotatedTorsions>
[ 6907 6896 6895 6894 ] final  -52.48 input  -60.11 | X-H torsion
[ 7974 7965 7964 7962 ] final   15.24 input  175.53 | X-H torsion
[ 8008 7997 7996 7995 ] final -151.26 input   59.86 | X-H torsion
[ 10167 10162 10161 10158 ] final   77.87 input  -65.29 | X-H torsion
[ 10718 10713 10712 10709 ] final  149.32 input   66.30 | X-H torsion
[ 10763 10752 10751 10750 ] final  175.30 input  -60.55 | X-H torsion
[ 11005 11000 10999 10996 ] final  -94.66 input  -57.11 | X-H torsion

> <Gold.Protein.ActiveResidues>
 VAL166  LYS551  ARG553  GLY616  TRP617  ASP618  TYR619  PRO620  LYS621  CYS622 
 ASP623  PHE694  ASN695  SER759  ASP760  ASP761  ALA762  ILE779  LEU786  VAL792 
 PHE793  MET794  SER795  GLU796  ALA797  LYS798  CYS799  TRP800  GLU811  SER814 

> <Gold.Protein.RotatedAtoms>
  150.8514  134.7840  159.7011 H   0  0  0  0  0  0  0  0  0  0  0  0  # atno 6907 bound_to 6896
  152.4577  134.5250  159.9804 H   0  0  0  0  0  0  0  0  0  0  0  0  # atno 6908 bound_to 6896
  151.5371  133.3401  159.2964 H   0  0  0  0  0  0  0  0  0  0  0  0  # atno 6909 bound_to 6896
  146.2283  139.8923  142.8553 H   0  0  0  0  0  0  0  0  0  0  0  0  # atno 7974 bound_to 7965
  155.6365  140.0697  157.2632 H   0  0  0  0  0  0  0  0  0  0  0  0  # atno 8008 bound_to 7997
  154.4193  140.1758  156.1577 H   0  0  0  0  0  0  0  0  0  0  0  0  # atno 8009 bound_to 7997
  155.9890  140.3347  155.6738 H   0  0  0  0  0  0  0  0  0  0  0  0  # atno 8010 bound_to 7997
  139.9770  144.5854  150.7934 H   0  0  0  0  0  0  0  0  0  0  0  0  # atno 10167 bound_to 10162
  157.2976  131.0865  151.1415 H   0  0  0  0  0  0  0  0  0  0  0  0  # atno 10718 bound_to 10713
  154.4657  135.2769  155.1680 H   0  0  0  0  0  0  0  0  0  0  0  0  # atno 10763 bound_to 10752
  154.3450  135.6162  153.5618 H   0  0  0  0  0  0  0  0  0  0  0  0  # atno 10764 bound_to 10752
  152.9859  135.5797  154.5028 H   0  0  0  0  0  0  0  0  0  0  0  0  # atno 10765 bound_to 10752
  141.1464  133.7971  157.0328 H   0  0  0  0  0  0  0  0  0  0  0  0  # atno 11005 bound_to 11000
  145.2406  141.0007  143.3938 LP  0  0  0  0  0  0  0  0  0  0  0  0  # atno 17320 bound_to 7965
  144.9455  139.4141  143.6428 LP  0  0  0  0  0  0  0  0  0  0  0  0  # atno 17321 bound_to 7965
  140.7502  143.2952  151.3224 LP  0  0  0  0  0  0  0  0  0  0  0  0  # atno 17342 bound_to 10162
  139.6438  144.0489  152.2575 LP  0  0  0  0  0  0  0  0  0  0  0  0  # atno 17343 bound_to 10162
  157.2786  130.6739  149.6055 LP  0  0  0  0  0  0  0  0  0  0  0  0  # atno 17370 bound_to 10713
  155.9670  130.4456  150.5510 LP  0  0  0  0  0  0  0  0  0  0  0  0  # atno 17371 bound_to 10713
  140.0743  134.9685  157.1519 LP  0  0  0  0  0  0  0  0  0  0  0  0  # atno 17394 bound_to 11000
  140.3667  134.2435  155.7181 LP  0  0  0  0  0  0  0  0  0  0  0  0  # atno 17395 bound_to 11000

$$$$
