AV-unprocessed.smi:275|AV-procd|sdf|2065|dock9
  -GOLD-   2262021313D 1   1.00000     0.00000
 Structure written by MMmdl.
 65 69  0  0  0  0  0  0  0  0  1 V2000
  147.9200  130.8332  156.5249 C   0  0  0  0  0  0  0  0  0  0  0  0
  148.8099  131.8918  157.1972 C   0  0  0  0  0  0  0  0  0  0  0  0
  147.8911  132.9015  157.9121 C   0  0  0  0  0  0  0  0  0  0  0  0
  149.7827  132.5989  156.2169 C   0  0  1  0  0  0  0  0  0  0  0  0
  150.6885  133.4266  157.0194 N   0  0  0  0  0  0  0  0  0  0  0  0
  150.9010  134.7731  156.5749 C   0  0  0  0  0  0  0  0  0  0  0  0
  150.9318  135.0326  155.2391 N   0  0  0  0  0  0  0  0  0  0  0  0
  151.1133  136.2695  154.7706 C   0  0  0  0  0  0  0  0  0  0  0  0
  151.2966  137.3980  155.4533 N   0  0  0  0  0  0  0  0  0  0  0  0
  151.3072  137.1574  156.7938 C   0  0  0  0  0  0  0  0  0  0  0  0
  151.1318  135.8936  157.4294 C   0  0  0  0  0  0  0  0  0  0  0  0
  151.2259  136.0545  158.8076 N   0  0  0  0  0  0  0  0  0  0  0  0
  151.4216  137.3324  158.9772 C   0  0  0  0  0  0  0  0  0  0  0  0
  151.4584  138.0732  157.8199 N   0  0  0  0  0  0  0  0  0  0  0  0
  151.6440  139.5085  157.7174 C   0  0  0  0  0  0  0  0  0  0  0  0
  152.0699  140.1958  159.0443 C   0  0  1  0  0  0  0  0  0  0  0  0
  153.3791  139.5430  159.5507 C   0  0  0  0  0  0  0  0  0  0  0  0
  154.4491  139.7849  158.6601 O   0  0  0  0  0  0  0  0  0  0  0  0
  152.2079  141.7439  158.9119 C   0  0  2  0  0  0  0  0  0  0  0  0
  152.4877  142.4861  160.2116 C   0  0  0  0  0  0  0  0  0  0  0  0
  152.0732  143.9088  159.8712 C   0  0  0  0  0  0  0  0  0  0  0  0
  150.8916  143.7369  159.1089 O   0  0  0  0  0  0  0  0  0  0  0  0
  150.9503  142.4899  158.4230 C   0  0  0  0  0  0  0  0  0  0  0  0
  151.7890  132.4871  156.8375 C   0  0  0  0  0  0  0  0  0  0  0  0
  151.0587  131.9410  155.6020 C   0  0  0  0  0  0  0  0  0  0  0  0
  151.5607  132.5364  154.2631 C   0  0  0  0  0  0  0  0  0  0  0  0
  150.7840  132.0443  153.0339 C   0  0  0  0  0  0  0  0  0  0  0  0
  150.8737  130.5215  152.9159 C   0  0  0  0  0  0  0  0  0  0  0  0
  150.3854  129.8610  154.2066 C   0  0  0  0  0  0  0  0  0  0  0  0
  151.1273  130.4081  155.4446 C   0  0  0  0  0  0  0  0  0  0  0  0
  147.4771  131.2115  155.6031 H   0  0  0  0  0  0  0  0  0  0  0  0
  147.1028  130.5314  157.1807 H   0  0  0  0  0  0  0  0  0  0  0  0
  148.4674  129.9216  156.2995 H   0  0  0  0  0  0  0  0  0  0  0  0
  149.3825  131.3776  157.9708 H   0  0  0  0  0  0  0  0  0  0  0  0
  147.2421  133.4161  157.2033 H   0  0  0  0  0  0  0  0  0  0  0  0
  148.4596  133.6574  158.4540 H   0  0  0  0  0  0  0  0  0  0  0  0
  147.2508  132.4041  158.6411 H   0  0  0  0  0  0  0  0  0  0  0  0
  149.2515  133.1541  155.4450 H   0  0  0  0  0  0  0  0  0  0  0  0
  151.1059  136.3685  153.6952 H   0  0  0  0  0  0  0  0  0  0  0  0
  151.5295  137.7749  159.9567 H   0  0  0  0  0  0  0  0  0  0  0  0
  152.3912  139.6744  156.9411 H   0  0  0  0  0  0  0  0  0  0  0  0
  150.7212  139.9560  157.3474 H   0  0  0  0  0  0  0  0  0  0  0  0
  151.3041  139.9976  159.7961 H   0  0  0  0  0  0  0  0  0  0  0  0
  153.6413  139.9152  160.5418 H   0  0  0  0  0  0  0  0  0  0  0  0
  153.2851  138.4610  159.6289 H   0  0  0  0  0  0  0  0  0  0  0  0
  155.1834  139.2488  158.9187 H   0  0  0  0  0  0  0  0  0  0  0  0
  153.0271  141.9673  158.2262 H   0  0  0  0  0  0  0  0  0  0  0  0
  151.8624  142.1005  161.0181 H   0  0  0  0  0  0  0  0  0  0  0  0
  153.5306  142.4263  160.5243 H   0  0  0  0  0  0  0  0  0  0  0  0
  151.8972  144.5229  160.7544 H   0  0  0  0  0  0  0  0  0  0  0  0
  152.8314  144.3960  159.2563 H   0  0  0  0  0  0  0  0  0  0  0  0
  150.9781  142.6679  157.3488 H   0  0  0  0  0  0  0  0  0  0  0  0
  150.0380  141.9384  158.6509 H   0  0  0  0  0  0  0  0  0  0  0  0
  152.7759  132.9007  156.6304 H   0  0  0  0  0  0  0  0  0  0  0  0
  151.8314  131.7707  157.6592 H   0  0  0  0  0  0  0  0  0  0  0  0
  151.5117  133.6243  154.2731 H   0  0  0  0  0  0  0  0  0  0  0  0
  152.6176  132.3020  154.1295 H   0  0  0  0  0  0  0  0  0  0  0  0
  149.7405  132.3522  153.1087 H   0  0  0  0  0  0  0  0  0  0  0  0
  151.1811  132.5104  152.1318 H   0  0  0  0  0  0  0  0  0  0  0  0
  150.2840  130.1728  152.0676 H   0  0  0  0  0  0  0  0  0  0  0  0
  151.9059  130.2281  152.7206 H   0  0  0  0  0  0  0  0  0  0  0  0
  149.3150  130.0351  154.2901 H   0  0  0  0  0  0  0  0  0  0  0  0
  150.5164  128.7804  154.1434 H   0  0  0  0  0  0  0  0  0  0  0  0
  152.1724  130.1036  155.3747 H   0  0  0  0  0  0  0  0  0  0  0  0
  150.7582  129.9141  156.3425 H   0  0  0  0  0  0  0  0  0  0  0  0
  1  2  1  0  0  0  0
  1 31  1  0  0  0  0
  1 32  1  0  0  0  0
  1 33  1  0  0  0  0
  2  3  1  0  0  0  0
  2  4  1  0  0  0  0
  2 34  1  0  0  0  0
  3 35  1  0  0  0  0
  3 36  1  0  0  0  0
  3 37  1  0  0  0  0
  4 25  1  0  0  0  0
  4  5  1  0  0  0  0
  4 38  1  0  0  0  0
  5  6  1  0  0  0  0
  5 24  1  0  0  0  0
  6 11  1  0  0  0  0
  6  7  2  0  0  0  0
  7  8  1  0  0  0  0
  8  9  2  0  0  0  0
  8 39  1  0  0  0  0
  9 10  1  0  0  0  0
 10 14  1  0  0  0  0
 10 11  2  0  0  0  0
 11 12  1  0  0  0  0
 12 13  2  0  0  0  0
 13 14  1  0  0  0  0
 13 40  1  0  0  0  0
 14 15  1  0  0  0  0
 15 16  1  0  0  0  0
 15 41  1  0  0  0  0
 15 42  1  0  0  0  0
 16 17  1  0  0  0  0
 16 19  1  0  0  0  0
 16 43  1  0  0  0  0
 17 18  1  0  0  0  0
 17 44  1  0  0  0  0
 17 45  1  0  0  0  0
 18 46  1  0  0  0  0
 19 23  1  0  0  0  0
 19 20  1  0  0  0  0
 19 47  1  0  0  0  0
 20 21  1  0  0  0  0
 20 48  1  0  0  0  0
 20 49  1  0  0  0  0
 21 22  1  0  0  0  0
 21 50  1  0  0  0  0
 21 51  1  0  0  0  0
 22 23  1  0  0  0  0
 23 52  1  0  0  0  0
 23 53  1  0  0  0  0
 24 25  1  0  0  0  0
 24 54  1  0  0  0  0
 24 55  1  0  0  0  0
 25 30  1  0  0  0  0
 25 26  1  0  0  0  0
 26 27  1  0  0  0  0
 26 56  1  0  0  0  0
 26 57  1  0  0  0  0
 27 28  1  0  0  0  0
 27 58  1  0  0  0  0
 27 59  1  0  0  0  0
 28 29  1  0  0  0  0
 28 60  1  0  0  0  0
 28 61  1  0  0  0  0
 29 30  1  0  0  0  0
 29 62  1  0  0  0  0
 29 63  1  0  0  0  0
 30 64  1  0  0  0  0
 30 65  1  0  0  0  0
M  END
> <s_m_source_file>
AV-unprocessed.smi

> <i_m_source_file_index>
275

> <i_lp_mmshare_version>
43012

> <i_f3d_flags>
0

> <s_epik_input>
W0NIMl0xW0NIMl1bQ0gyXVtDSDJdW0NIMl1DMTJbQ0BIXShbQ0hdKFtDSDNdKVtDSDNdKU4oW0NIMl0yKWMobltjSF1uMyljKGMzNCluW2NIXW40W0NIMl1bQ0BIXShbQ0gyXVtPSF0pW0NAQEhdNVtDSDJdW0NIMl1PW0NIMl01

> <s_epik_cmdline>
J2VwaWtfcHl0aG9uJywgJy1waCcsICc3LjAnLCAnLXRuJywgJzgnLCAnLW1hJywgJzIwMCcsICctbWV0YWxfYmluZGluZycsICctaW1hZScsICc8aW5maWxlLm1hZT4nLCAnLW9tYWUnLCAnPG91dGZpbGUubWFlPic=

> <r_lp_tautomer_probability>
1

> <r_epik_Ionization_Penalty>
0.00375122

> <r_epik_Ionization_Penalty_Charging>
0

> <r_epik_Ionization_Penalty_Neutral>
0.00375122

> <r_epik_State_Penalty>
0.00260593

> <r_epik_Charging_Adjusted_Penalty>
0.00260593

> <i_epik_Tot_Q>
0

> <i_epik_Tot_abs_Q>
0

> <r_epik_Metal_State_Penalty>
-0

> <b_epik_Metal_Only>
0

> <s_lp_Force_Field>
OPLS_2005

> <r_lp_Energy>
67.0366

> <b_lp_Chiralities_Consistent>
1

> <s_lp_Variant>
AV-unprocessed.smi:275-4

> <Gold.Version>
5.8.1

> <Gold.Id.Protein>
6NUR|6NUR_protein|mol2

> <Gold.PLP.Fitness>
42.8328

> <Gold.PLP.PLP>
-34.9703

> <Gold.PLP.part.hbond>
-2.0000

> <Gold.PLP.part.metal>
0.0000

> <Gold.PLP.part.buried>
-5.5924

> <Gold.PLP.part.nonpolar>
-28.6038

> <Gold.PLP.part.repulsive>
0.2139

> <Gold.PLP.ligand.clash>
0.0000

> <Gold.PLP.ligand.torsion>
0.7741

> <Gold.PLP.Chemscore.Hbond>
2.0000

> <Gold.PLP.Chemscore.CHOScore>
0.9584

> <Gold.PLP.Chemscore.Metal>
0.0000

> <Gold.Chemscore.Hbonds>
donor molecule, donor type, donor heavy atom, donor atom, acceptor molecule, acceptor atom, score
      P1  H  6896  6908       L1     5  0.02
      P1  H  6896  6909       L1    12  0.46
      P1  H  7997  8008       L1    18  0.46
      L1  C     8    39       P1  7949  1.00

> <Gold.PLP.Chemscore.Internal.Correction>
0.5354

> <Gold.Rescore>
     Score         DG    S(hbond)    S(metal)    S(lipo)     H(rot)  DE(clash)    DE(int)     intcor
     13.33     -16.60       1.88        0.00      96.87       2.54       0.03       3.24       ----

> <Gold.Chemscore.Fitness>
13.3266

> <Gold.Chemscore.DG>
-16.5952

> <Gold.Chemscore.ZeroCoef>
-5.4800

> <Gold.Chemscore.Hbond>
1.8796

> <Gold.Chemscore.Metal>
0.0000

> <Gold.Chemscore.Lipo>
96.8708

> <Gold.Chemscore.Internal_Hbond>
0.0000

> <Gold.Chemscore.DEClash>
0.0310

> <Gold.Chemscore.DEInternal>
3.2377

> <Gold.Chemscore.Rot>
2.5377

> <Gold.Chemscore.Internal.Correction>
   9.000000E+99

> <Gold.Chemscore.Hbonds>
donor molecule, donor type, donor heavy atom, donor atom, acceptor molecule, acceptor atom, score
      P1  H  6896  6909       L1    12  0.43
      P1  H  7997  8008       L1    18  0.02

> <Gold.Chemscore.Hbond.Weighted>
-6.2779

> <Gold.Chemscore.Metal.Weighted>
-0.0000

> <Gold.Chemscore.Lipo.Weighted>
-11.3339

> <Gold.Chemscore.Internal_Hbond.Weighted>
0.0000

> <Gold.Chemscore.DEClash.Weighted>
0.0310

> <Gold.Chemscore.DEInternal.Weighted>
3.2377

> <Gold.Chemscore.Rot.Weighted>
6.4966

> <Gold.Chemscore.Internal.Correction.Weighted>
   9.000000E+99

> <Gold.Protein.RotatedTorsions>
[ 6907 6896 6895 6894 ] final   73.39 input  -60.11 | X-H torsion
[ 7974 7965 7964 7962 ] final  107.65 input  175.53 | X-H torsion
[ 8008 7997 7996 7995 ] final -120.87 input   59.86 | X-H torsion
[ 10167 10162 10161 10158 ] final  135.69 input  -65.29 | X-H torsion
[ 10718 10713 10712 10709 ] final  143.10 input   66.30 | X-H torsion
[ 10763 10752 10751 10750 ] final  154.04 input  -60.55 | X-H torsion
[ 11005 11000 10999 10996 ] final -106.93 input  -57.11 | X-H torsion

> <Gold.Protein.ActiveResidues>
 VAL166  LYS551  ARG553  GLY616  TRP617  ASP618  TYR619  PRO620  LYS621  CYS622 
 ASP623  PHE694  ASN695  SER759  ASP760  ASP761  ALA762  ILE779  LEU786  VAL792 
 PHE793  MET794  SER795  GLU796  ALA797  LYS798  CYS799  TRP800  GLU811  SER814 

> <Gold.Protein.RotatedAtoms>
  152.4920  134.4429  159.9548 H   0  0  0  0  0  0  0  0  0  0  0  0  # atno 6907 bound_to 6896
  151.4414  133.3636  159.2790 H   0  0  0  0  0  0  0  0  0  0  0  0  # atno 6908 bound_to 6896
  150.9085  134.8524  159.7469 H   0  0  0  0  0  0  0  0  0  0  0  0  # atno 6909 bound_to 6896
  145.2909  139.2600  143.3865 H   0  0  0  0  0  0  0  0  0  0  0  0  # atno 7974 bound_to 7965
  155.1388  140.0401  157.2793 H   0  0  0  0  0  0  0  0  0  0  0  0  # atno 8008 bound_to 7997
  154.6488  140.2564  155.7211 H   0  0  0  0  0  0  0  0  0  0  0  0  # atno 8009 bound_to 7997
  156.2567  140.2840  156.0913 H   0  0  0  0  0  0  0  0  0  0  0  0  # atno 8010 bound_to 7997
  139.5207  144.6504  151.5319 H   0  0  0  0  0  0  0  0  0  0  0  0  # atno 10167 bound_to 10162
  157.3728  131.0981  151.0812 H   0  0  0  0  0  0  0  0  0  0  0  0  # atno 10718 bound_to 10713
  154.1459  135.2818  155.3148 H   0  0  0  0  0  0  0  0  0  0  0  0  # atno 10763 bound_to 10752
  154.6253  135.5453  153.7623 H   0  0  0  0  0  0  0  0  0  0  0  0  # atno 10764 bound_to 10752
  153.0236  135.6449  154.1604 H   0  0  0  0  0  0  0  0  0  0  0  0  # atno 10765 bound_to 10752
  141.0980  133.8937  157.1915 H   0  0  0  0  0  0  0  0  0  0  0  0  # atno 11005 bound_to 11000
  146.3185  140.3400  142.8647 LP  0  0  0  0  0  0  0  0  0  0  0  0  # atno 17320 bound_to 7965
  144.9173  140.7827  143.5770 LP  0  0  0  0  0  0  0  0  0  0  0  0  # atno 17321 bound_to 7965
  140.6306  143.9083  150.6602 LP  0  0  0  0  0  0  0  0  0  0  0  0  # atno 17342 bound_to 10162
  140.2386  143.3681  152.1505 LP  0  0  0  0  0  0  0  0  0  0  0  0  # atno 17343 bound_to 10162
  157.1910  130.6352  149.5704 LP  0  0  0  0  0  0  0  0  0  0  0  0  # atno 17370 bound_to 10713
  155.9759  130.4722  150.6492 LP  0  0  0  0  0  0  0  0  0  0  0  0  # atno 17371 bound_to 10713
  139.9822  135.0094  156.9776 LP  0  0  0  0  0  0  0  0  0  0  0  0  # atno 17394 bound_to 11000
  140.5093  134.1018  155.7267 LP  0  0  0  0  0  0  0  0  0  0  0  0  # atno 17395 bound_to 11000

$$$$
