AV-unprocessed.smi:2807|AV-procd|sdf|10816|dock1
  -GOLD-   2272015253D 1   1.00000     0.00000
 Structure written by MMmdl.
 32 33  0  0  0  0  0  0  0  0  1 V2000
  151.7720  139.6721  155.0899 O   0  0  0  0  0  0  0  0  0  0  0  0
  150.9918  139.9961  155.9863 C   0  0  0  0  0  0  0  0  0  0  0  0
  149.7264  140.3802  155.7516 N   0  0  0  0  0  0  0  0  0  0  0  0
  149.1037  140.4905  154.4361 C   0  0  2  0  0  0  0  0  0  0  0  0
  148.2683  141.7821  154.3442 C   0  0  0  0  0  0  0  0  0  0  0  0
  146.9259  141.3765  153.7353 C   0  0  0  0  0  0  0  0  0  0  0  0
  146.7209  139.9374  154.1996 C   0  0  0  0  0  0  0  0  0  0  0  0
  148.1239  139.3211  154.1835 C   0  0  1  0  0  0  0  0  0  0  0  0
  148.3730  138.7545  152.9124 O   0  0  0  0  0  0  0  0  0  0  0  0
  151.4439  139.9804  157.4548 C   0  0  0  0  0  0  0  0  0  0  0  0
  150.5543  139.2898  158.1721 F   0  0  0  0  0  0  0  0  0  0  0  0
  152.6173  139.3489  157.5425 F   0  0  0  0  0  0  0  0  0  0  0  0
  151.5734  141.4042  157.9909 C   0  0  0  0  0  0  0  0  0  0  0  0
  152.1109  141.6500  159.2747 C   0  0  0  0  0  0  0  0  0  0  0  0
  152.2303  142.9827  159.7135 C   0  0  0  0  0  0  0  0  0  0  0  0
  151.8126  144.0190  158.8574 C   0  0  0  0  0  0  0  0  0  0  0  0
  151.2914  143.6752  157.5952 C   0  0  0  0  0  0  0  0  0  0  0  0
  151.1734  142.4010  157.1647 N   0  0  0  0  0  0  0  0  0  0  0  0
  149.1567  140.6303  156.5473 H   0  0  0  0  0  0  0  0  0  0  0  0
  149.8804  140.5156  153.6686 H   0  0  0  0  0  0  0  0  0  0  0  0
  148.0934  142.1992  155.3376 H   0  0  0  0  0  0  0  0  0  0  0  0
  148.7663  142.5534  153.7560 H   0  0  0  0  0  0  0  0  0  0  0  0
  146.1120  142.0364  154.0372 H   0  0  0  0  0  0  0  0  0  0  0  0
  146.9918  141.4053  152.6469 H   0  0  0  0  0  0  0  0  0  0  0  0
  146.3423  139.9436  155.2228 H   0  0  0  0  0  0  0  0  0  0  0  0
  146.0004  139.3920  153.5889 H   0  0  0  0  0  0  0  0  0  0  0  0
  148.2113  138.5271  154.9266 H   0  0  0  0  0  0  0  0  0  0  0  0
  149.0159  139.2858  152.4684 H   0  0  0  0  0  0  0  0  0  0  0  0
  152.4327  140.8373  159.9090 H   0  0  0  0  0  0  0  0  0  0  0  0
  152.6381  143.2060  160.6881 H   0  0  0  0  0  0  0  0  0  0  0  0
  151.8907  145.0527  159.1600 H   0  0  0  0  0  0  0  0  0  0  0  0
  150.9623  144.4439  156.9116 H   0  0  0  0  0  0  0  0  0  0  0  0
  1  2  2  0  0  0  0
  2  3  1  0  0  0  0
  2 10  1  0  0  0  0
  3  4  1  0  0  0  0
  3 19  1  0  0  0  0
  4  8  1  0  0  0  0
  4  5  1  0  0  0  0
  4 20  1  0  0  0  0
  5  6  1  0  0  0  0
  5 21  1  0  0  0  0
  5 22  1  0  0  0  0
  6  7  1  0  0  0  0
  6 23  1  0  0  0  0
  6 24  1  0  0  0  0
  7  8  1  0  0  0  0
  7 25  1  0  0  0  0
  7 26  1  0  0  0  0
  8  9  1  0  0  0  0
  8 27  1  0  0  0  0
  9 28  1  0  0  0  0
 10 11  1  0  0  0  0
 10 12  1  0  0  0  0
 10 13  1  0  0  0  0
 13 18  1  0  0  0  0
 13 14  2  0  0  0  0
 14 15  1  0  0  0  0
 14 29  1  0  0  0  0
 15 16  2  0  0  0  0
 15 30  1  0  0  0  0
 16 17  1  0  0  0  0
 16 31  1  0  0  0  0
 17 18  2  0  0  0  0
 17 32  1  0  0  0  0
M  END
> <s_m_source_file>
AV-unprocessed.smi

> <i_m_source_file_index>
2807

> <i_lp_mmshare_version>
43012

> <i_f3d_flags>
0

> <s_epik_input>
bjFbY0hdW2NIXVtjSF1bY0hdYzFDKEYpKEYpQyg9TylbTkhdW0NAQEhdMltDSDJdW0NIMl1bQ0gyXVtDQEhdMltPSF0=

> <s_epik_cmdline>
J2VwaWtfcHl0aG9uJywgJy1waCcsICc3LjAnLCAnLXRuJywgJzgnLCAnLW1hJywgJzIwMCcsICctbWV0YWxfYmluZGluZycsICctaW1hZScsICc8aW5maWxlLm1hZT4nLCAnLW9tYWUnLCAnPG91dGZpbGUubWFlPic=

> <r_lp_tautomer_probability>
1

> <r_epik_Ionization_Penalty>
4.08325e-05

> <r_epik_Ionization_Penalty_Charging>
0

> <r_epik_Ionization_Penalty_Neutral>
4.08325e-05

> <r_epik_State_Penalty>
-0

> <r_epik_Charging_Adjusted_Penalty>
0

> <i_epik_Tot_Q>
0

> <i_epik_Tot_abs_Q>
0

> <r_epik_Metal_State_Penalty>
0.034564

> <b_epik_Metal_Only>
0

> <s_lp_Force_Field>
OPLS_2005

> <r_lp_Energy>
23.2382

> <b_lp_Chiralities_Consistent>
1

> <s_lp_Variant>
AV-unprocessed.smi:2807-1

> <Gold.Version>
5.8.1

> <Gold.Id.Protein>
6NUR|6NUR_protein|mol2

> <Gold.PLP.Fitness>
43.6311

> <Gold.PLP.PLP>
-35.8438

> <Gold.PLP.part.hbond>
-2.7812

> <Gold.PLP.part.metal>
0.0000

> <Gold.PLP.part.buried>
-2.5072

> <Gold.PLP.part.nonpolar>
-30.8517

> <Gold.PLP.part.repulsive>
0.1705

> <Gold.PLP.ligand.clash>
0.0000

> <Gold.PLP.ligand.torsion>
0.6160

> <Gold.PLP.Chemscore.Hbond>
2.0000

> <Gold.PLP.Chemscore.CHOScore>
1.0000

> <Gold.PLP.Chemscore.Metal>
0.0000

> <Gold.Chemscore.Hbonds>
donor molecule, donor type, donor heavy atom, donor atom, acceptor molecule, acceptor atom, score
      L1  H     9    28       P1  7957  1.00
      P1  H  7989  7998       L1     1  1.00
      L1  C    17    32       P1  8028  1.00

> <Gold.PLP.Chemscore.Internal.Correction>
0.0194

> <Gold.Rescore>
     Score         DG    S(hbond)    S(metal)    S(lipo)     H(rot)  DE(clash)    DE(int)     intcor
     14.33     -16.65       1.86        0.00      87.06       2.05       0.61       1.72       ----

> <Gold.Chemscore.Fitness>
14.3292

> <Gold.Chemscore.DG>
-16.6522

> <Gold.Chemscore.ZeroCoef>
-5.4800

> <Gold.Chemscore.Hbond>
1.8633

> <Gold.Chemscore.Metal>
0.0000

> <Gold.Chemscore.Lipo>
87.0587

> <Gold.Chemscore.Internal_Hbond>
0.0000

> <Gold.Chemscore.DEClash>
0.6063

> <Gold.Chemscore.DEInternal>
1.7167

> <Gold.Chemscore.Rot>
2.0457

> <Gold.Chemscore.Internal.Correction>
   9.000000E+99

> <Gold.Chemscore.Hbonds>
donor molecule, donor type, donor heavy atom, donor atom, acceptor molecule, acceptor atom, score
      L1  H     9    28       P1  7957  0.95
      P1  H  7989  7998       L1     1  0.79

> <Gold.Chemscore.Hbond.Weighted>
-6.2234

> <Gold.Chemscore.Metal.Weighted>
-0.0000

> <Gold.Chemscore.Lipo.Weighted>
-10.1859

> <Gold.Chemscore.Internal_Hbond.Weighted>
0.0000

> <Gold.Chemscore.DEClash.Weighted>
0.6063

> <Gold.Chemscore.DEInternal.Weighted>
1.7167

> <Gold.Chemscore.Rot.Weighted>
5.2371

> <Gold.Chemscore.Internal.Correction.Weighted>
   9.000000E+99

> <Gold.Protein.RotatedTorsions>
[ 6907 6896 6895 6894 ] final -116.75 input  -60.11 | X-H torsion
[ 7974 7965 7964 7962 ] final  145.90 input  175.53 | X-H torsion
[ 8008 7997 7996 7995 ] final    8.56 input   59.86 | X-H torsion
[ 10167 10162 10161 10158 ] final  -57.85 input  -65.29 | X-H torsion
[ 10718 10713 10712 10709 ] final  -35.45 input   66.30 | X-H torsion
[ 10763 10752 10751 10750 ] final  -77.36 input  -60.55 | X-H torsion
[ 11005 11000 10999 10996 ] final  -85.47 input  -57.11 | X-H torsion

> <Gold.Protein.ActiveResidues>
 VAL166  LYS551  ARG553  GLY616  TRP617  ASP618  TYR619  PRO620  LYS621  CYS622 
 ASP623  PHE694  ASN695  SER759  ASP760  ASP761  ALA762  ILE779  LEU786  VAL792 
 PHE793  MET794  SER795  GLU796  ALA797  LYS798  CYS799  TRP800  GLU811  SER814 

> <Gold.Protein.RotatedAtoms>
  150.8081  133.8473  159.3195 H   0  0  0  0  0  0  0  0  0  0  0  0  # atno 6907 bound_to 6896
  151.6266  135.1025  160.0122 H   0  0  0  0  0  0  0  0  0  0  0  0  # atno 6908 bound_to 6896
  152.4172  133.7017  159.6484 H   0  0  0  0  0  0  0  0  0  0  0  0  # atno 6909 bound_to 6896
  144.8715  139.5839  143.5885 H   0  0  0  0  0  0  0  0  0  0  0  0  # atno 7974 bound_to 7965
  154.7685  140.2797  155.6157 H   0  0  0  0  0  0  0  0  0  0  0  0  # atno 8008 bound_to 7997
  156.2929  140.2646  156.2409 H   0  0  0  0  0  0  0  0  0  0  0  0  # atno 8009 bound_to 7997
  154.9929  140.0373  157.2317 H   0  0  0  0  0  0  0  0  0  0  0  0  # atno 8010 bound_to 7997
  140.6233  143.2428  151.5426 H   0  0  0  0  0  0  0  0  0  0  0  0  # atno 10167 bound_to 10162
  156.3384  130.4290  149.7809 H   0  0  0  0  0  0  0  0  0  0  0  0  # atno 10718 bound_to 10713
  154.5119  135.5766  153.6612 H   0  0  0  0  0  0  0  0  0  0  0  0  # atno 10763 bound_to 10752
  152.9899  135.6161  154.2867 H   0  0  0  0  0  0  0  0  0  0  0  0  # atno 10764 bound_to 10752
  154.2782  135.2851  155.2688 H   0  0  0  0  0  0  0  0  0  0  0  0  # atno 10765 bound_to 10752
  141.1641  133.7401  156.9020 H   0  0  0  0  0  0  0  0  0  0  0  0  # atno 11005 bound_to 11000
  146.2933  139.7203  142.9145 LP  0  0  0  0  0  0  0  0  0  0  0  0  # atno 17320 bound_to 7965
  145.4122  141.0398  143.3010 LP  0  0  0  0  0  0  0  0  0  0  0  0  # atno 17321 bound_to 7965
  139.5458  144.2526  152.1438 LP  0  0  0  0  0  0  0  0  0  0  0  0  # atno 17342 bound_to 10162
  140.1751  144.4898  150.6558 LP  0  0  0  0  0  0  0  0  0  0  0  0  # atno 17343 bound_to 10162
  156.5054  130.8148  151.3149 LP  0  0  0  0  0  0  0  0  0  0  0  0  # atno 17370 bound_to 10713
  157.7443  130.9931  150.2660 LP  0  0  0  0  0  0  0  0  0  0  0  0  # atno 17371 bound_to 10713
  140.1576  134.9188  157.2673 LP  0  0  0  0  0  0  0  0  0  0  0  0  # atno 17394 bound_to 11000
  140.2649  134.3528  155.7393 LP  0  0  0  0  0  0  0  0  0  0  0  0  # atno 17395 bound_to 11000

$$$$
