AV-unprocessed.smi:3013|AV-procd|sdf|11464|dock10
  -GOLD-   2272016403D 1   1.00000     0.00000
 Structure written by MMmdl.
 45 46  0  0  0  0  0  0  0  0  2 V2000
  144.8608  136.2794  154.3861 C   0  0  0  0  0  0  0  0  0  0  0  0
  145.9439  136.6070  153.3360 C   0  0  2  0  0  0  0  0  0  0  0  0
  145.4866  137.6789  152.3224 C   0  0  0  0  0  0  0  0  0  0  0  0
  146.5082  138.8133  152.1131 C   0  0  0  0  0  0  0  0  0  0  0  0
  147.8465  138.4218  152.5419 N   0  0  0  0  0  0  0  0  0  0  0  0
  148.5041  138.9542  153.5825 C   0  0  0  0  0  0  0  0  0  0  0  0
  148.0288  139.8289  154.3073 O   0  0  0  0  0  0  0  0  0  0  0  0
  149.7268  138.4133  153.7198 N   0  0  0  0  0  0  0  0  0  0  0  0
  150.7048  138.7151  154.7056 C   0  0  0  0  0  0  0  0  0  0  0  0
  151.2668  139.9020  154.9128 N   0  0  0  0  0  0  0  0  0  0  0  0
  152.0917  139.5850  155.9544 C   0  0  0  0  0  0  0  0  0  0  0  0
  152.0525  138.3177  156.3664 N   0  0  0  0  0  0  0  0  0  0  0  0
  151.1384  137.7625  155.5365 N   0  0  0  0  0  0  0  0  0  0  0  0
  150.7864  136.3599  155.6461 C   0  0  0  0  0  0  0  0  0  0  0  0
  146.4527  135.3955  152.6275 N   0  3  0  0  0  0  0  0  0  0  0  0
  145.5687  134.8704  151.5501 C   0  0  0  0  0  0  0  0  0  0  0  0
  146.2867  133.7815  150.7357 C   0  0  0  0  0  0  0  0  0  0  0  0
  146.7705  132.6451  151.6466 C   0  0  0  0  0  0  0  0  0  0  0  0
  147.6468  133.2112  152.7719 C   0  0  0  0  0  0  0  0  0  0  0  0
  146.9072  134.3163  153.5454 C   0  0  0  0  0  0  0  0  0  0  0  0
  144.6232  137.1532  154.9922 H   0  0  0  0  0  0  0  0  0  0  0  0
  145.1885  135.5011  155.0751 H   0  0  0  0  0  0  0  0  0  0  0  0
  143.9324  135.9465  153.9219 H   0  0  0  0  0  0  0  0  0  0  0  0
  146.7955  137.0345  153.8673 H   0  0  0  0  0  0  0  0  0  0  0  0
  145.3043  137.1924  151.3631 H   0  0  0  0  0  0  0  0  0  0  0  0
  144.5327  138.1089  152.6294 H   0  0  0  0  0  0  0  0  0  0  0  0
  146.5666  139.0833  151.0591 H   0  0  0  0  0  0  0  0  0  0  0  0
  146.1984  139.7129  152.6477 H   0  0  0  0  0  0  0  0  0  0  0  0
  148.3092  137.7078  151.9983 H   0  0  0  0  0  0  0  0  0  0  0  0
  149.9917  137.7120  153.0439 H   0  0  0  0  0  0  0  0  0  0  0  0
  152.7394  140.3104  156.4242 H   0  0  0  0  0  0  0  0  0  0  0  0
  150.8986  135.8758  154.6757 H   0  0  0  0  0  0  0  0  0  0  0  0
  149.7509  136.2674  155.9740 H   0  0  0  0  0  0  0  0  0  0  0  0
  151.4327  135.8577  156.3670 H   0  0  0  0  0  0  0  0  0  0  0  0
  144.6562  134.4581  151.9826 H   0  0  0  0  0  0  0  0  0  0  0  0
  145.2677  135.6738  150.8786 H   0  0  0  0  0  0  0  0  0  0  0  0
  145.6178  133.3860  149.9708 H   0  0  0  0  0  0  0  0  0  0  0  0
  147.1364  134.2176  150.2086 H   0  0  0  0  0  0  0  0  0  0  0  0
  145.9127  132.1239  152.0737 H   0  0  0  0  0  0  0  0  0  0  0  0
  147.3280  131.9082  151.0678 H   0  0  0  0  0  0  0  0  0  0  0  0
  147.9411  132.4118  153.4526 H   0  0  0  0  0  0  0  0  0  0  0  0
  148.5691  133.6135  152.3505 H   0  0  0  0  0  0  0  0  0  0  0  0
  147.5763  134.7273  154.3022 H   0  0  0  0  0  0  0  0  0  0  0  0
  146.0530  133.8914  154.0735 H   0  0  0  0  0  0  0  0  0  0  0  0
  147.2931  135.7063  152.1612 H   0  0  0  0  0  0  0  0  0  0  0  0
  1  2  1  0  0  0  0
  1 21  1  0  0  0  0
  1 22  1  0  0  0  0
  1 23  1  0  0  0  0
  2  3  1  0  0  0  0
  2 15  1  0  0  0  0
  2 24  1  0  0  0  0
  3  4  1  0  0  0  0
  3 25  1  0  0  0  0
  3 26  1  0  0  0  0
  4  5  1  0  0  0  0
  4 27  1  0  0  0  0
  4 28  1  0  0  0  0
  5  6  1  0  0  0  0
  5 29  1  0  0  0  0
  6  7  2  0  0  0  0
  6  8  1  0  0  0  0
  8  9  1  0  0  0  0
  8 30  1  0  0  0  0
  9 13  1  0  0  0  0
  9 10  2  0  0  0  0
 10 11  1  0  0  0  0
 11 12  2  0  0  0  0
 11 31  1  0  0  0  0
 12 13  1  0  0  0  0
 13 14  1  0  0  0  0
 14 32  1  0  0  0  0
 14 33  1  0  0  0  0
 14 34  1  0  0  0  0
 15 20  1  0  0  0  0
 15 16  1  0  0  0  0
 15 45  1  0  0  0  0
 16 17  1  0  0  0  0
 16 35  1  0  0  0  0
 16 36  1  0  0  0  0
 17 18  1  0  0  0  0
 17 37  1  0  0  0  0
 17 38  1  0  0  0  0
 18 19  1  0  0  0  0
 18 39  1  0  0  0  0
 18 40  1  0  0  0  0
 19 20  1  0  0  0  0
 19 41  1  0  0  0  0
 19 42  1  0  0  0  0
 20 43  1  0  0  0  0
 20 44  1  0  0  0  0
M  CHG  1  15   1
M  END
> <s_m_source_file>
AV-unprocessed.smi

> <i_m_source_file_index>
3013

> <i_lp_mmshare_version>
43012

> <i_f3d_flags>
0

> <s_epik_input>
W0NIMl0xW0NIMl1bQ0gyXVtDSDJdW0NIMl1OMVtDQEhdKFtDSDNdKVtDSDJdW0NIMl1bTkhdQyg9TylbTkhdYzJuW2NIXW5uMltDSDNd

> <s_epik_cmdline>
J2VwaWtfcHl0aG9uJywgJy1waCcsICc3LjAnLCAnLXRuJywgJzgnLCAnLW1hJywgJzIwMCcsICctbWV0YWxfYmluZGluZycsICctaW1hZScsICc8aW5maWxlLm1hZT4nLCAnLW9tYWUnLCAnPG91dGZpbGUubWFlPic=

> <r_lp_tautomer_probability>
1

> <r_epik_Ionization_Penalty>
0.000375855

> <r_epik_Ionization_Penalty_Charging>
0.000355659

> <r_epik_Ionization_Penalty_Neutral>
2.01955e-05

> <r_epik_State_Penalty>
0.000216264

> <r_epik_Charging_Adjusted_Penalty>
0.000571923

> <i_epik_Tot_Q>
1

> <i_epik_Tot_abs_Q>
1

> <r_epik_Metal_State_Penalty>
-0

> <b_epik_Metal_Only>
0

> <s_lp_Force_Field>
OPLS_2005

> <r_lp_Energy>
21.7492

> <b_lp_Chiralities_Consistent>
1

> <s_lp_Variant>
AV-unprocessed.smi:3013-1

> <Gold.Version>
5.8.1

> <Gold.Id.Protein>
6NUR|6NUR_protein|mol2

> <Gold.PLP.Fitness>
42.4460

> <Gold.PLP.PLP>
-31.4327

> <Gold.PLP.part.hbond>
-5.9427

> <Gold.PLP.part.metal>
0.0000

> <Gold.PLP.part.buried>
-0.2164

> <Gold.PLP.part.nonpolar>
-26.5483

> <Gold.PLP.part.repulsive>
0.3408

> <Gold.PLP.ligand.clash>
0.1224

> <Gold.PLP.ligand.torsion>
1.6321

> <Gold.PLP.Chemscore.Hbond>
4.7454

> <Gold.PLP.Chemscore.CHOScore>
0.0000

> <Gold.PLP.Chemscore.Metal>
0.0000

> <Gold.Chemscore.Hbonds>
donor molecule, donor type, donor heavy atom, donor atom, acceptor molecule, acceptor atom, score
      L1  H     5    29       P1  7948  1.00
      L1  H     8    30       P1  7948  0.60
      L1  H    15    45       P1  7948  2.00
      P1  H  7989  7998       L1    10  1.00

> <Gold.PLP.Chemscore.Internal.Correction>
0.1637

> <Gold.Rescore>
     Score         DG    S(hbond)    S(metal)    S(lipo)     H(rot)  DE(clash)    DE(int)     intcor
     15.16     -17.06       3.34        0.00      47.75       2.01       0.05       1.85       ----

> <Gold.Chemscore.Fitness>
15.1608

> <Gold.Chemscore.DG>
-17.0630

> <Gold.Chemscore.ZeroCoef>
-5.4800

> <Gold.Chemscore.Hbond>
3.3394

> <Gold.Chemscore.Metal>
0.0000

> <Gold.Chemscore.Lipo>
47.7546

> <Gold.Chemscore.Internal_Hbond>
0.0000

> <Gold.Chemscore.DEClash>
0.0476

> <Gold.Chemscore.DEInternal>
1.8546

> <Gold.Chemscore.Rot>
2.0148

> <Gold.Chemscore.Internal.Correction>
   9.000000E+99

> <Gold.Chemscore.Hbonds>
donor molecule, donor type, donor heavy atom, donor atom, acceptor molecule, acceptor atom, score
      L1  H     5    29       P1  7948  0.95
      L1  H     8    30       P1  7948  0.17
      L1  H    15    45       P1  7948  1.00
      P1  H  7989  7998       L1    10  0.94

> <Gold.Chemscore.Hbond.Weighted>
-11.1535

> <Gold.Chemscore.Metal.Weighted>
-0.0000

> <Gold.Chemscore.Lipo.Weighted>
-5.5873

> <Gold.Chemscore.Internal_Hbond.Weighted>
0.0000

> <Gold.Chemscore.DEClash.Weighted>
0.0476

> <Gold.Chemscore.DEInternal.Weighted>
1.8546

> <Gold.Chemscore.Rot.Weighted>
5.1579

> <Gold.Chemscore.Internal.Correction.Weighted>
   9.000000E+99

> <Gold.Protein.RotatedTorsions>
[ 6907 6896 6895 6894 ] final  -98.00 input  -60.11 | X-H torsion
[ 7974 7965 7964 7962 ] final  -12.29 input  175.53 | X-H torsion
[ 8008 7997 7996 7995 ] final   76.68 input   59.86 | X-H torsion
[ 10167 10162 10161 10158 ] final   90.62 input  -65.29 | X-H torsion
[ 10718 10713 10712 10709 ] final    4.71 input   66.30 | X-H torsion
[ 10763 10752 10751 10750 ] final  -55.52 input  -60.55 | X-H torsion
[ 11005 11000 10999 10996 ] final  134.15 input  -57.11 | X-H torsion

> <Gold.Protein.ActiveResidues>
 VAL166  LYS551  ARG553  GLY616  TRP617  ASP618  TYR619  PRO620  LYS621  CYS622 
 ASP623  PHE694  ASN695  SER759  ASP760  ASP761  ALA762  ILE779  LEU786  VAL792 
 PHE793  MET794  SER795  GLU796  ALA797  LYS798  CYS799  TRP800  GLU811  SER814 

> <Gold.Protein.RotatedAtoms>
  150.7033  134.1262  159.4052 H   0  0  0  0  0  0  0  0  0  0  0  0  # atno 6907 bound_to 6896
  151.9248  135.0280  160.0534 H   0  0  0  0  0  0  0  0  0  0  0  0  # atno 6908 bound_to 6896
  152.2225  133.4960  159.5207 H   0  0  0  0  0  0  0  0  0  0  0  0  # atno 6909 bound_to 6896
  146.2157  140.3036  142.8377 H   0  0  0  0  0  0  0  0  0  0  0  0  # atno 7974 bound_to 7965
  155.8308  140.3466  155.5571 H   0  0  0  0  0  0  0  0  0  0  0  0  # atno 8008 bound_to 7997
  155.8244  140.0917  157.1850 H   0  0  0  0  0  0  0  0  0  0  0  0  # atno 8009 bound_to 7997
  154.4004  140.1424  156.3526 H   0  0  0  0  0  0  0  0  0  0  0  0  # atno 8010 bound_to 7997
  139.8455  144.6620  150.9232 H   0  0  0  0  0  0  0  0  0  0  0  0  # atno 10167 bound_to 10162
  156.8967  130.5707  149.5648 H   0  0  0  0  0  0  0  0  0  0  0  0  # atno 10718 bound_to 10713
  154.1921  135.6425  153.5063 H   0  0  0  0  0  0  0  0  0  0  0  0  # atno 10763 bound_to 10752
  153.0032  135.5431  154.6404 H   0  0  0  0  0  0  0  0  0  0  0  0  # atno 10764 bound_to 10752
  154.5795  135.2924  155.0720 H   0  0  0  0  0  0  0  0  0  0  0  0  # atno 10765 bound_to 10752
  139.9896  134.9519  156.9826 H   0  0  0  0  0  0  0  0  0  0  0  0  # atno 11005 bound_to 11000
  144.9039  140.7676  143.5850 LP  0  0  0  0  0  0  0  0  0  0  0  0  # atno 17320 bound_to 7965
  145.2964  139.1865  143.4713 LP  0  0  0  0  0  0  0  0  0  0  0  0  # atno 17321 bound_to 7965
  140.7793  143.3874  151.1369 LP  0  0  0  0  0  0  0  0  0  0  0  0  # atno 17342 bound_to 10162
  139.7517  143.8769  152.3078 LP  0  0  0  0  0  0  0  0  0  0  0  0  # atno 17343 bound_to 10162
  156.0602  130.5656  150.9177 LP  0  0  0  0  0  0  0  0  0  0  0  0  # atno 17370 bound_to 10713
  157.6051  131.0939  150.8893 LP  0  0  0  0  0  0  0  0  0  0  0  0  # atno 17371 bound_to 10713
  140.4934  134.1170  155.7237 LP  0  0  0  0  0  0  0  0  0  0  0  0  # atno 17394 bound_to 11000
  141.1555  133.8891  157.1989 LP  0  0  0  0  0  0  0  0  0  0  0  0  # atno 17395 bound_to 11000

$$$$
