AV-unprocessed.smi:2202|AV-procd|sdf|8931|dock3
  -GOLD-   2272012143D 1   1.00000     0.00000
 Structure written by MMmdl.
 42 44  0  0  0  0  0  0  0  0  1 V2000
  151.1741  137.0621  156.0203 O   0  0  0  0  0  0  0  0  0  0  0  0
  150.7600  137.9709  156.7418 C   0  0  0  0  0  0  0  0  0  0  0  0
  150.9664  139.4429  156.3567 C   0  0  0  0  0  0  0  0  0  0  0  0
  151.5188  140.2567  157.4472 N   0  0  0  0  0  0  0  0  0  0  0  0
  151.2412  141.5616  157.6375 C   0  0  0  0  0  0  0  0  0  0  0  0
  150.4484  142.2549  157.0009 O   0  0  0  0  0  0  0  0  0  0  0  0
  152.1341  142.0998  158.7453 C   0  0  1  0  0  0  0  0  0  0  0  0
  151.6661  143.1664  159.7426 C   0  0  0  0  0  0  0  0  0  0  0  0
  152.7150  143.2683  160.8551 C   0  0  0  0  0  0  0  0  0  0  0  0
  153.6734  142.3346  161.0738 C   0  0  0  0  0  0  0  0  0  0  0  0
  153.8019  141.0412  160.2622 C   0  0  0  0  0  0  0  0  0  0  0  0
  152.4920  140.8310  159.4932 C   0  0  2  0  0  0  0  0  0  0  0  0
  152.3344  139.7777  158.4075 C   0  0  0  0  0  0  0  0  0  0  0  0
  152.8315  138.6535  158.4684 O   0  0  0  0  0  0  0  0  0  0  0  0
  150.1161  137.7532  157.8983 N   0  0  0  0  0  0  0  0  0  0  0  0
  149.8025  136.4386  158.4465 C   0  0  0  0  0  0  0  0  0  0  0  0
  148.5117  136.4679  159.2826 C   0  0  0  0  0  0  0  0  0  0  0  0
  148.6354  135.6605  160.5609 C   0  0  0  0  0  0  0  0  0  0  0  0
  148.8150  134.2613  160.5154 C   0  0  0  0  0  0  0  0  0  0  0  0
  148.9205  133.5588  161.7317 C   0  0  0  0  0  0  0  0  0  0  0  0
  148.8415  134.2783  162.9397 C   0  0  0  0  0  0  0  0  0  0  0  0
  148.6590  135.6742  162.8776 C   0  0  0  0  0  0  0  0  0  0  0  0
  148.5565  136.3572  161.7170 N   0  0  0  0  0  0  0  0  0  0  0  0
  151.6275  139.4966  155.4898 H   0  0  0  0  0  0  0  0  0  0  0  0
  150.0099  139.8519  156.0272 H   0  0  0  0  0  0  0  0  0  0  0  0
  153.0221  142.4865  158.2394 H   0  0  0  0  0  0  0  0  0  0  0  0
  151.5703  144.1318  159.2449 H   0  0  0  0  0  0  0  0  0  0  0  0
  150.6954  142.9186  160.1737 H   0  0  0  0  0  0  0  0  0  0  0  0
  152.6694  144.1451  161.4842 H   0  0  0  0  0  0  0  0  0  0  0  0
  154.3964  142.4852  161.8621 H   0  0  0  0  0  0  0  0  0  0  0  0
  154.6583  141.1114  159.5906 H   0  0  0  0  0  0  0  0  0  0  0  0
  153.9799  140.2048  160.9387 H   0  0  0  0  0  0  0  0  0  0  0  0
  151.7114  140.6087  160.2249 H   0  0  0  0  0  0  0  0  0  0  0  0
  149.8148  138.5552  158.4328 H   0  0  0  0  0  0  0  0  0  0  0  0
  149.7230  135.7069  157.6404 H   0  0  0  0  0  0  0  0  0  0  0  0
  150.6398  136.1237  159.0699 H   0  0  0  0  0  0  0  0  0  0  0  0
  148.2539  137.4979  159.5327 H   0  0  0  0  0  0  0  0  0  0  0  0
  147.6749  136.0763  158.7022 H   0  0  0  0  0  0  0  0  0  0  0  0
  148.8700  133.7369  159.5727 H   0  0  0  0  0  0  0  0  0  0  0  0
  149.0591  132.4877  161.7377 H   0  0  0  0  0  0  0  0  0  0  0  0
  148.9182  133.7729  163.8910 H   0  0  0  0  0  0  0  0  0  0  0  0
  148.5932  136.2577  163.7840 H   0  0  0  0  0  0  0  0  0  0  0  0
  1  2  2  0  0  0  0
  2  3  1  0  0  0  0
  2 15  1  0  0  0  0
  3  4  1  0  0  0  0
  3 24  1  0  0  0  0
  3 25  1  0  0  0  0
  4 13  1  0  0  0  0
  4  5  1  0  0  0  0
  5  6  2  0  0  0  0
  5  7  1  0  0  0  0
  7 12  1  0  0  0  0
  7  8  1  0  0  0  0
  7 26  1  0  0  0  0
  8  9  1  0  0  0  0
  8 27  1  0  0  0  0
  8 28  1  0  0  0  0
  9 10  2  0  0  0  0
  9 29  1  0  0  0  0
 10 11  1  0  0  0  0
 10 30  1  0  0  0  0
 11 12  1  0  0  0  0
 11 31  1  0  0  0  0
 11 32  1  0  0  0  0
 12 13  1  0  0  0  0
 12 33  1  0  0  0  0
 13 14  2  0  0  0  0
 15 16  1  0  0  0  0
 15 34  1  0  0  0  0
 16 17  1  0  0  0  0
 16 35  1  0  0  0  0
 16 36  1  0  0  0  0
 17 18  1  0  0  0  0
 17 37  1  0  0  0  0
 17 38  1  0  0  0  0
 18 23  1  0  0  0  0
 18 19  2  0  0  0  0
 19 20  1  0  0  0  0
 19 39  1  0  0  0  0
 20 21  2  0  0  0  0
 20 40  1  0  0  0  0
 21 22  1  0  0  0  0
 21 41  1  0  0  0  0
 22 23  2  0  0  0  0
 22 42  1  0  0  0  0
M  END
> <s_m_source_file>
AV-unprocessed.smi

> <i_m_source_file_index>
2202

> <i_lp_mmshare_version>
43012

> <i_f3d_flags>
0

> <s_epik_input>
W0NIMl0xW0NIXT1bQ0hdW0NIMl1bQ0BIXShbQ0BIXTEyKUMoPU8pTihDMj1PKVtDSDJdQyg9TylbTkhdW0NIMl1bQ0gyXWMzW2NIXVtjSF1bY0hdW2NIXW4z

> <s_epik_cmdline>
J2VwaWtfcHl0aG9uJywgJy1waCcsICc3LjAnLCAnLXRuJywgJzgnLCAnLW1hJywgJzIwMCcsICctbWV0YWxfYmluZGluZycsICctaW1hZScsICc8aW5maWxlLm1hZT4nLCAnLW9tYWUnLCAnPG91dGZpbGUubWFlPic=

> <r_lp_tautomer_probability>
1

> <r_epik_Ionization_Penalty>
0.0244696

> <r_epik_Ionization_Penalty_Charging>
0

> <r_epik_Ionization_Penalty_Neutral>
0.0244696

> <r_epik_State_Penalty>
0.0198648

> <r_epik_Charging_Adjusted_Penalty>
0.0198648

> <i_epik_Tot_Q>
0

> <i_epik_Tot_abs_Q>
0

> <r_epik_Metal_State_Penalty>
0.0190699

> <b_epik_Metal_Only>
0

> <s_lp_Force_Field>
OPLS_2005

> <r_lp_Energy>
20.8302

> <b_lp_Chiralities_Consistent>
1

> <s_lp_Variant>
AV-unprocessed.smi:2202-3

> <Gold.Version>
5.8.1

> <Gold.Id.Protein>
6NUR|6NUR_protein|mol2

> <Gold.PLP.Fitness>
49.4506

> <Gold.PLP.PLP>
-46.0690

> <Gold.PLP.part.hbond>
-2.0000

> <Gold.PLP.part.metal>
0.0000

> <Gold.PLP.part.buried>
-6.3498

> <Gold.PLP.part.nonpolar>
-37.4632

> <Gold.PLP.part.repulsive>
0.2091

> <Gold.PLP.ligand.clash>
0.0000

> <Gold.PLP.ligand.torsion>
0.9879

> <Gold.PLP.Chemscore.Hbond>
1.7760

> <Gold.PLP.Chemscore.CHOScore>
0.0000

> <Gold.PLP.Chemscore.Metal>
0.0000

> <Gold.Chemscore.Hbonds>
donor molecule, donor type, donor heavy atom, donor atom, acceptor molecule, acceptor atom, score
      P1  H  6931  6943       L1    23  1.00

> <Gold.PLP.Chemscore.Internal.Correction>
0.0293

> <Gold.Rescore>
     Score         DG    S(hbond)    S(metal)    S(lipo)     H(rot)  DE(clash)    DE(int)     intcor
     15.29     -17.15       0.94        0.00     113.51       1.85       0.09       1.77       ----

> <Gold.Chemscore.Fitness>
15.2932

> <Gold.Chemscore.DG>
-17.1530

> <Gold.Chemscore.ZeroCoef>
-5.4800

> <Gold.Chemscore.Hbond>
0.9395

> <Gold.Chemscore.Metal>
0.0000

> <Gold.Chemscore.Lipo>
113.5139

> <Gold.Chemscore.Internal_Hbond>
0.0000

> <Gold.Chemscore.DEClash>
0.0871

> <Gold.Chemscore.DEInternal>
1.7727

> <Gold.Chemscore.Rot>
1.8540

> <Gold.Chemscore.Internal.Correction>
   9.000000E+99

> <Gold.Chemscore.Hbonds>
donor molecule, donor type, donor heavy atom, donor atom, acceptor molecule, acceptor atom, score
      P1  H  6931  6943       L1    23  0.81

> <Gold.Chemscore.Hbond.Weighted>
-3.1381

> <Gold.Chemscore.Metal.Weighted>
-0.0000

> <Gold.Chemscore.Lipo.Weighted>
-13.2811

> <Gold.Chemscore.Internal_Hbond.Weighted>
0.0000

> <Gold.Chemscore.DEClash.Weighted>
0.0871

> <Gold.Chemscore.DEInternal.Weighted>
1.7727

> <Gold.Chemscore.Rot.Weighted>
4.7462

> <Gold.Chemscore.Internal.Correction.Weighted>
   9.000000E+99

> <Gold.Protein.RotatedTorsions>
[ 6907 6896 6895 6894 ] final  175.14 input  -60.11 | X-H torsion
[ 7974 7965 7964 7962 ] final -150.66 input  175.53 | X-H torsion
[ 8008 7997 7996 7995 ] final   13.47 input   59.86 | X-H torsion
[ 10167 10162 10161 10158 ] final   89.28 input  -65.29 | X-H torsion
[ 10718 10713 10712 10709 ] final -163.49 input   66.30 | X-H torsion
[ 10763 10752 10751 10750 ] final  164.51 input  -60.55 | X-H torsion
[ 11005 11000 10999 10996 ] final  121.57 input  -57.11 | X-H torsion

> <Gold.Protein.ActiveResidues>
 VAL166  LYS551  ARG553  GLY616  TRP617  ASP618  TYR619  PRO620  LYS621  CYS622 
 ASP623  PHE694  ASN695  SER759  ASP760  ASP761  ALA762  ILE779  LEU786  VAL792 
 PHE793  MET794  SER795  GLU796  ALA797  LYS798  CYS799  TRP800  GLU811  SER814 

> <Gold.Protein.RotatedAtoms>
  151.7409  133.3322  159.3365 H   0  0  0  0  0  0  0  0  0  0  0  0  # atno 6907 bound_to 6896
  150.7574  134.6278  159.6180 H   0  0  0  0  0  0  0  0  0  0  0  0  # atno 6908 bound_to 6896
  152.3531  134.6980  160.0282 H   0  0  0  0  0  0  0  0  0  0  0  0  # atno 6909 bound_to 6896
  144.7895  140.4902  143.5783 H   0  0  0  0  0  0  0  0  0  0  0  0  # atno 7974 bound_to 7965
  154.8349  140.2905  155.5697 H   0  0  0  0  0  0  0  0  0  0  0  0  # atno 8008 bound_to 7997
  156.3008  140.2525  156.3213 H   0  0  0  0  0  0  0  0  0  0  0  0  # atno 8009 bound_to 7997
  154.9189  140.0386  157.1976 H   0  0  0  0  0  0  0  0  0  0  0  0  # atno 8010 bound_to 7997
  139.8588  144.6555  150.9082 H   0  0  0  0  0  0  0  0  0  0  0  0  # atno 10167 bound_to 10162
  156.6254  130.8907  151.2966 H   0  0  0  0  0  0  0  0  0  0  0  0  # atno 10718 bound_to 10713
  154.3100  135.2757  155.2570 H   0  0  0  0  0  0  0  0  0  0  0  0  # atno 10763 bound_to 10752
  154.4970  135.5818  153.6505 H   0  0  0  0  0  0  0  0  0  0  0  0  # atno 10764 bound_to 10752
  152.9889  135.6148  154.3276 H   0  0  0  0  0  0  0  0  0  0  0  0  # atno 10765 bound_to 10752
  139.9231  134.9639  156.7978 H   0  0  0  0  0  0  0  0  0  0  0  0  # atno 11005 bound_to 11000
  145.5833  139.1490  143.3223 LP  0  0  0  0  0  0  0  0  0  0  0  0  # atno 17320 bound_to 7965
  146.2141  140.5962  142.9046 LP  0  0  0  0  0  0  0  0  0  0  0  0  # atno 17321 bound_to 7965
  140.7778  143.3762  151.1559 LP  0  0  0  0  0  0  0  0  0  0  0  0  # atno 17342 bound_to 10162
  139.7393  143.8949  152.3045 LP  0  0  0  0  0  0  0  0  0  0  0  0  # atno 17343 bound_to 10162
  157.7215  130.9565  150.1460 LP  0  0  0  0  0  0  0  0  0  0  0  0  # atno 17370 bound_to 10713
  156.2278  130.3679  149.8480 LP  0  0  0  0  0  0  0  0  0  0  0  0  # atno 17371 bound_to 10713
  140.6414  133.9814  155.7709 LP  0  0  0  0  0  0  0  0  0  0  0  0  # atno 17394 bound_to 11000
  141.0768  134.0122  157.3445 LP  0  0  0  0  0  0  0  0  0  0  0  0  # atno 17395 bound_to 11000

$$$$
