AV-unprocessed.smi:3348|AV-procd|sdf|12927|dock6
  -GOLD-   2272019353D 1   1.00000     0.00000
 Structure written by MMmdl.
 46 47  0  0  0  0  0  0  0  0  1 V2000
  145.4981  135.7881  153.3271 C   0  0  0  0  0  0  0  0  0  0  0  0
  144.8599  136.3388  152.0402 C   0  0  2  0  0  0  0  0  0  0  0  0
  145.4758  135.7220  150.7602 C   0  0  0  0  0  0  0  0  0  0  0  0
  145.3214  134.2797  150.6907 N   0  0  0  0  0  0  0  0  0  0  0  0
  144.1589  133.5442  150.5905 C   0  0  0  0  0  0  0  0  0  0  0  0
  144.5133  132.2256  150.5683 C   0  0  0  0  0  0  0  0  0  0  0  0
  145.9327  132.2555  150.6669 C   0  0  0  0  0  0  0  0  0  0  0  0
  146.4131  133.4859  150.7443 N   0  0  0  0  0  0  0  0  0  0  0  0
  144.9597  137.8016  152.0445 N   0  0  0  0  0  0  0  0  0  0  0  0
  146.3157  138.3409  152.1454 C   0  0  0  0  0  0  0  0  0  0  0  0
  146.7281  138.5183  153.6102 C   0  0  0  0  0  0  0  0  0  0  0  0
  146.5411  139.8778  153.9742 O   0  0  0  0  0  0  0  0  0  0  0  0
  147.6679  140.7163  153.7415 C   0  0  2  0  0  0  0  0  0  0  0  0
  148.9413  140.0834  154.3424 C   0  0  0  0  0  0  0  0  0  0  0  0
  148.8596  139.9853  155.8748 C   0  0  0  0  0  0  0  0  0  0  0  0
  148.5753  141.3567  156.5062 C   0  0  0  0  0  0  0  0  0  0  0  0
  147.3072  141.9930  155.9148 C   0  0  0  0  0  0  0  0  0  0  0  0
  147.3904  142.0964  154.3784 C   0  0  2  0  0  0  0  0  0  0  0  0
  146.1429  142.7660  153.7812 C   0  0  0  0  0  0  0  0  0  0  0  0
  145.3474  134.7128  153.4234 H   0  0  0  0  0  0  0  0  0  0  0  0
  145.0607  136.2521  154.2118 H   0  0  0  0  0  0  0  0  0  0  0  0
  146.5720  135.9776  153.3484 H   0  0  0  0  0  0  0  0  0  0  0  0
  143.8041  136.0663  152.0691 H   0  0  0  0  0  0  0  0  0  0  0  0
  145.0193  136.1410  149.8632 H   0  0  0  0  0  0  0  0  0  0  0  0
  146.5402  135.9547  150.7071 H   0  0  0  0  0  0  0  0  0  0  0  0
  143.1880  134.0149  150.5419 H   0  0  0  0  0  0  0  0  0  0  0  0
  143.8588  131.3699  150.4944 H   0  0  0  0  0  0  0  0  0  0  0  0
  146.6235  131.4255  150.6860 H   0  0  0  0  0  0  0  0  0  0  0  0
  144.5079  138.1750  151.2159 H   0  0  0  0  0  0  0  0  0  0  0  0
  147.0374  137.6998  151.6398 H   0  0  0  0  0  0  0  0  0  0  0  0
  146.3552  139.3123  151.6514 H   0  0  0  0  0  0  0  0  0  0  0  0
  146.1070  137.8769  154.2354 H   0  0  0  0  0  0  0  0  0  0  0  0
  147.7652  138.2129  153.7590 H   0  0  0  0  0  0  0  0  0  0  0  0
  147.8063  140.8585  152.6679 H   0  0  0  0  0  0  0  0  0  0  0  0
  149.1251  139.0976  153.9164 H   0  0  0  0  0  0  0  0  0  0  0  0
  149.8048  140.6915  154.0700 H   0  0  0  0  0  0  0  0  0  0  0  0
  148.0737  139.2828  156.1555 H   0  0  0  0  0  0  0  0  0  0  0  0
  149.7914  139.5803  156.2709 H   0  0  0  0  0  0  0  0  0  0  0  0
  148.4705  141.2542  157.5868 H   0  0  0  0  0  0  0  0  0  0  0  0
  149.4267  142.0181  156.3401 H   0  0  0  0  0  0  0  0  0  0  0  0
  146.4353  141.4025  156.2001 H   0  0  0  0  0  0  0  0  0  0  0  0
  147.1619  142.9831  156.3477 H   0  0  0  0  0  0  0  0  0  0  0  0
  148.2385  142.7405  154.1413 H   0  0  0  0  0  0  0  0  0  0  0  0
  145.2408  142.1911  153.9929 H   0  0  0  0  0  0  0  0  0  0  0  0
  146.2297  142.8620  152.6985 H   0  0  0  0  0  0  0  0  0  0  0  0
  146.0017  143.7666  154.1902 H   0  0  0  0  0  0  0  0  0  0  0  0
  1  2  1  0  0  0  0
  1 20  1  0  0  0  0
  1 21  1  0  0  0  0
  1 22  1  0  0  0  0
  2  3  1  0  0  0  0
  2  9  1  0  0  0  0
  2 23  1  0  0  0  0
  3  4  1  0  0  0  0
  3 24  1  0  0  0  0
  3 25  1  0  0  0  0
  4  8  1  0  0  0  0
  4  5  1  0  0  0  0
  5  6  2  0  0  0  0
  5 26  1  0  0  0  0
  6  7  1  0  0  0  0
  6 27  1  0  0  0  0
  7  8  2  0  0  0  0
  7 28  1  0  0  0  0
  9 10  1  0  0  0  0
  9 29  1  0  0  0  0
 10 11  1  0  0  0  0
 10 30  1  0  0  0  0
 10 31  1  0  0  0  0
 11 12  1  0  0  0  0
 11 32  1  0  0  0  0
 11 33  1  0  0  0  0
 12 13  1  0  0  0  0
 13 18  1  0  0  0  0
 13 14  1  0  0  0  0
 13 34  1  0  0  0  0
 14 15  1  0  0  0  0
 14 35  1  0  0  0  0
 14 36  1  0  0  0  0
 15 16  1  0  0  0  0
 15 37  1  0  0  0  0
 15 38  1  0  0  0  0
 16 17  1  0  0  0  0
 16 39  1  0  0  0  0
 16 40  1  0  0  0  0
 17 18  1  0  0  0  0
 17 41  1  0  0  0  0
 17 42  1  0  0  0  0
 18 19  1  0  0  0  0
 18 43  1  0  0  0  0
 19 44  1  0  0  0  0
 19 45  1  0  0  0  0
 19 46  1  0  0  0  0
M  END
> <s_m_source_file>
AV-unprocessed.smi

> <i_m_source_file_index>
3348

> <i_lp_mmshare_version>
43012

> <i_f3d_flags>
0

> <s_epik_input>
bjFbY0hdW2NIXVtjSF1uMVtDSDJdW0NAQEhdKFtDSDNdKVtOSF1bQ0gyXVtDSDJdT1tDQEBIXTJbQ0gyXVtDSDJdW0NIMl1bQ0gyXVtDQEhdMltDSDNd

> <s_epik_cmdline>
J2VwaWtfcHl0aG9uJywgJy1waCcsICc3LjAnLCAnLXRuJywgJzgnLCAnLW1hJywgJzIwMCcsICctbWV0YWxfYmluZGluZycsICctaW1hZScsICc8aW5maWxlLm1hZT4nLCAnLW9tYWUnLCAnPG91dGZpbGUubWFlPic=

> <r_lp_tautomer_probability>
1

> <r_epik_Ionization_Penalty>
2.46945

> <r_epik_Ionization_Penalty_Charging>
0

> <r_epik_Ionization_Penalty_Neutral>
2.46945

> <r_epik_State_Penalty>
2.6322

> <r_epik_Charging_Adjusted_Penalty>
2.6322

> <i_epik_Tot_Q>
0

> <i_epik_Tot_abs_Q>
0

> <r_epik_Metal_State_Penalty>
2.63217

> <b_epik_Metal_Only>
0

> <s_lp_Force_Field>
OPLS_2005

> <r_lp_Energy>
16.5117

> <b_lp_Chiralities_Consistent>
1

> <s_lp_Variant>
AV-unprocessed.smi:3348-13

> <Gold.Version>
5.8.1

> <Gold.Id.Protein>
6NUR|6NUR_protein|mol2

> <Gold.PLP.Fitness>
44.3611

> <Gold.PLP.PLP>
-36.5887

> <Gold.PLP.part.hbond>
-2.0000

> <Gold.PLP.part.metal>
0.0000

> <Gold.PLP.part.buried>
-5.5224

> <Gold.PLP.part.nonpolar>
-30.9398

> <Gold.PLP.part.repulsive>
0.3468

> <Gold.PLP.ligand.clash>
0.0000

> <Gold.PLP.ligand.torsion>
0.7126

> <Gold.PLP.Chemscore.Hbond>
1.0000

> <Gold.PLP.Chemscore.CHOScore>
2.0000

> <Gold.PLP.Chemscore.Metal>
0.0000

> <Gold.Chemscore.Hbonds>
donor molecule, donor type, donor heavy atom, donor atom, acceptor molecule, acceptor atom, score
      L1  H     9    29       P1 10171  1.00
      L1  C     5    26       P1 10186  1.00
      L1  C     7    28       P1 10747  1.00

> <Gold.PLP.Chemscore.Internal.Correction>
0.1976

> <Gold.Rescore>
     Score         DG    S(hbond)    S(metal)    S(lipo)     H(rot)  DE(clash)    DE(int)     intcor
     14.39     -15.61       0.98        0.00      96.26       1.72       0.52       0.70       ----

> <Gold.Chemscore.Fitness>
14.3908

> <Gold.Chemscore.DG>
-15.6119

> <Gold.Chemscore.ZeroCoef>
-5.4800

> <Gold.Chemscore.Hbond>
0.9827

> <Gold.Chemscore.Metal>
0.0000

> <Gold.Chemscore.Lipo>
96.2580

> <Gold.Chemscore.Internal_Hbond>
0.0000

> <Gold.Chemscore.DEClash>
0.5229

> <Gold.Chemscore.DEInternal>
0.6982

> <Gold.Chemscore.Rot>
1.7237

> <Gold.Chemscore.Internal.Correction>
   9.000000E+99

> <Gold.Chemscore.Hbonds>
donor molecule, donor type, donor heavy atom, donor atom, acceptor molecule, acceptor atom, score
      L1  H     9    29       P1 10171  0.98

> <Gold.Chemscore.Hbond.Weighted>
-3.2823

> <Gold.Chemscore.Metal.Weighted>
-0.0000

> <Gold.Chemscore.Lipo.Weighted>
-11.2622

> <Gold.Chemscore.Internal_Hbond.Weighted>
0.0000

> <Gold.Chemscore.DEClash.Weighted>
0.5229

> <Gold.Chemscore.DEInternal.Weighted>
0.6982

> <Gold.Chemscore.Rot.Weighted>
4.4126

> <Gold.Chemscore.Internal.Correction.Weighted>
   9.000000E+99

> <Gold.Protein.RotatedTorsions>
[ 6907 6896 6895 6894 ] final -143.08 input  -60.11 | X-H torsion
[ 7974 7965 7964 7962 ] final   45.17 input  175.53 | X-H torsion
[ 8008 7997 7996 7995 ] final  125.95 input   59.86 | X-H torsion
[ 10167 10162 10161 10158 ] final   28.76 input  -65.29 | X-H torsion
[ 10718 10713 10712 10709 ] final   12.87 input   66.30 | X-H torsion
[ 10763 10752 10751 10750 ] final   41.08 input  -60.55 | X-H torsion
[ 11005 11000 10999 10996 ] final  175.56 input  -57.11 | X-H torsion

> <Gold.Protein.ActiveResidues>
 VAL166  LYS551  ARG553  GLY616  TRP617  ASP618  TYR619  PRO620  LYS621  CYS622 
 ASP623  PHE694  ASN695  SER759  ASP760  ASP761  ALA762  ILE779  LEU786  VAL792 
 PHE793  MET794  SER795  GLU796  ALA797  LYS798  CYS799  TRP800  GLU811  SER814 

> <Gold.Protein.RotatedAtoms>
  151.0956  133.5282  159.2612 H   0  0  0  0  0  0  0  0  0  0  0  0  # atno 6907 bound_to 6896
  151.2132  135.0489  159.8930 H   0  0  0  0  0  0  0  0  0  0  0  0  # atno 6908 bound_to 6896
  152.5438  134.0769  159.8272 H   0  0  0  0  0  0  0  0  0  0  0  0  # atno 6909 bound_to 6896
  146.0504  139.4993  142.9722 H   0  0  0  0  0  0  0  0  0  0  0  0  # atno 7974 bound_to 7965
  156.2850  140.2704  156.2033 H   0  0  0  0  0  0  0  0  0  0  0  0  # atno 8008 bound_to 7997
  155.0339  140.0386  157.2502 H   0  0  0  0  0  0  0  0  0  0  0  0  # atno 8009 bound_to 7997
  154.7331  140.2710  155.6444 H   0  0  0  0  0  0  0  0  0  0  0  0  # atno 8010 bound_to 7997
  140.4824  144.0595  150.6269 H   0  0  0  0  0  0  0  0  0  0  0  0  # atno 10167 bound_to 10162
  157.0164  130.6137  149.5715 H   0  0  0  0  0  0  0  0  0  0  0  0  # atno 10718 bound_to 10713
  152.9918  135.6172  154.2730 H   0  0  0  0  0  0  0  0  0  0  0  0  # atno 10763 bound_to 10752
  154.2462  135.2787  155.2836 H   0  0  0  0  0  0  0  0  0  0  0  0  # atno 10764 bound_to 10752
  154.5327  135.5783  153.6830 H   0  0  0  0  0  0  0  0  0  0  0  0  # atno 10765 bound_to 10752
  140.3635  134.7092  157.4346 H   0  0  0  0  0  0  0  0  0  0  0  0  # atno 11005 bound_to 11000
  145.6735  141.0210  143.1645 LP  0  0  0  0  0  0  0  0  0  0  0  0  # atno 17320 bound_to 7965
  144.7119  139.8338  143.7411 LP  0  0  0  0  0  0  0  0  0  0  0  0  # atno 17321 bound_to 7965
  140.3841  143.2787  152.0137 LP  0  0  0  0  0  0  0  0  0  0  0  0  # atno 17342 bound_to 10162
  139.4836  144.6131  151.7396 LP  0  0  0  0  0  0  0  0  0  0  0  0  # atno 17343 bound_to 10162
  156.0118  130.5210  150.8011 LP  0  0  0  0  0  0  0  0  0  0  0  0  # atno 17370 bound_to 10713
  157.5282  131.0935  150.9989 LP  0  0  0  0  0  0  0  0  0  0  0  0  # atno 17371 bound_to 10713
  140.0608  134.5999  155.8751 LP  0  0  0  0  0  0  0  0  0  0  0  0  # atno 17394 bound_to 11000
  141.1977  133.6597  156.5753 LP  0  0  0  0  0  0  0  0  0  0  0  0  # atno 17395 bound_to 11000

$$$$
