AV-unprocessed.smi:2091|AV-procd|sdf|8540|dock7
  -GOLD-   2272011263D 1   1.00000     0.00000
 Structure written by MMmdl.
 35 36  0  0  0  0  0  0  0  0  2 V2000
  148.0249  131.7739  153.7406 O   0  0  0  0  0  0  0  0  0  0  0  0
  148.3302  132.9077  153.3680 C   0  0  0  0  0  0  0  0  0  0  0  0
  149.6095  133.5836  153.8792 C   0  0  0  0  0  0  0  0  0  0  0  0
  149.4402  134.2129  155.1988 N   0  0  0  0  0  0  0  0  0  0  0  0
  148.7802  135.4532  155.2523 C   0  0  0  0  0  0  0  0  0  0  0  0
  148.5822  136.1031  156.4152 C   0  0  0  0  0  0  0  0  0  0  0  0
  149.0725  135.4877  157.6424 C   0  0  0  0  0  0  0  0  0  0  0  0
  148.9058  136.0697  158.7125 O   0  0  0  0  0  0  0  0  0  0  0  0
  149.7010  134.2799  157.5393 N   0  5  0  0  0  0  0  0  0  0  0  0
  149.8929  133.6293  156.3497 C   0  0  0  0  0  0  0  0  0  0  0  0
  150.4608  132.5385  156.2791 O   0  0  0  0  0  0  0  0  0  0  0  0
  147.5733  133.6352  152.5309 N   0  0  0  0  0  0  0  0  0  0  0  0
  146.3059  133.2027  151.9379 C   0  0  2  0  0  0  0  0  0  0  0  0
  146.5514  132.9701  150.4293 C   0  0  0  0  0  0  0  0  0  0  0  0
  145.5279  132.0273  149.7721 C   0  0  0  0  0  0  0  0  0  0  0  0
  144.0848  132.5538  149.7412 C   0  0  0  0  0  0  0  0  0  0  0  0
  143.4772  132.7789  151.1365 C   0  0  0  0  0  0  0  0  0  0  0  0
  143.9576  134.0096  151.7505 N   0  0  0  0  0  0  0  0  0  0  0  0
  145.2188  134.2890  152.1132 C   0  0  0  0  0  0  0  0  0  0  0  0
  145.5024  135.3957  152.5723 O   0  0  0  0  0  0  0  0  0  0  0  0
  150.4241  132.8575  153.9129 H   0  0  0  0  0  0  0  0  0  0  0  0
  149.9176  134.3244  153.1404 H   0  0  0  0  0  0  0  0  0  0  0  0
  148.4428  135.8363  154.3005 H   0  0  0  0  0  0  0  0  0  0  0  0
  148.0709  137.0541  156.4396 H   0  0  0  0  0  0  0  0  0  0  0  0
  147.8953  134.5609  152.2893 H   0  0  0  0  0  0  0  0  0  0  0  0
  145.9893  132.2731  152.4143 H   0  0  0  0  0  0  0  0  0  0  0  0
  146.5946  133.9175  149.8885 H   0  0  0  0  0  0  0  0  0  0  0  0
  147.5340  132.5146  150.2961 H   0  0  0  0  0  0  0  0  0  0  0  0
  145.8457  131.8317  148.7474 H   0  0  0  0  0  0  0  0  0  0  0  0
  145.5504  131.0611  150.2776 H   0  0  0  0  0  0  0  0  0  0  0  0
  144.0305  133.4720  149.1545 H   0  0  0  0  0  0  0  0  0  0  0  0
  143.4707  131.8244  149.2120 H   0  0  0  0  0  0  0  0  0  0  0  0
  142.3944  132.8678  151.0456 H   0  0  0  0  0  0  0  0  0  0  0  0
  143.6607  131.9256  151.7913 H   0  0  0  0  0  0  0  0  0  0  0  0
  143.2704  134.7366  151.8874 H   0  0  0  0  0  0  0  0  0  0  0  0
  1  2  2  0  0  0  0
  2  3  1  0  0  0  0
  2 12  1  0  0  0  0
  3  4  1  0  0  0  0
  3 21  1  0  0  0  0
  3 22  1  0  0  0  0
  4 10  1  0  0  0  0
  4  5  1  0  0  0  0
  5  6  2  0  0  0  0
  5 23  1  0  0  0  0
  6  7  1  0  0  0  0
  6 24  1  0  0  0  0
  7  8  2  0  0  0  0
  7  9  1  0  0  0  0
  9 10  1  0  0  0  0
 10 11  2  0  0  0  0
 12 13  1  0  0  0  0
 12 25  1  0  0  0  0
 13 19  1  0  0  0  0
 13 14  1  0  0  0  0
 13 26  1  0  0  0  0
 14 15  1  0  0  0  0
 14 27  1  0  0  0  0
 14 28  1  0  0  0  0
 15 16  1  0  0  0  0
 15 29  1  0  0  0  0
 15 30  1  0  0  0  0
 16 17  1  0  0  0  0
 16 31  1  0  0  0  0
 16 32  1  0  0  0  0
 17 18  1  0  0  0  0
 17 33  1  0  0  0  0
 17 34  1  0  0  0  0
 18 19  1  0  0  0  0
 18 35  1  0  0  0  0
 19 20  2  0  0  0  0
M  CHG  1   9  -1
M  END
> <s_m_source_file>
AV-unprocessed.smi

> <i_m_source_file_index>
2091

> <i_lp_mmshare_version>
43012

> <i_f3d_flags>
0

> <s_epik_input>
Tz1jMVtuSF1jKD1PKVtjSF1bY0hdbjFbQ0gyXUMoPU8pW05IXVtDQEBIXTJbQ0gyXVtDSDJdW0NIMl1bQ0gyXVtOSF1DMj1P

> <s_epik_cmdline>
J2VwaWtfcHl0aG9uJywgJy1waCcsICc3LjAnLCAnLXRuJywgJzgnLCAnLW1hJywgJzIwMCcsICctbWV0YWxfYmluZGluZycsICctaW1hZScsICc8aW5maWxlLm1hZT4nLCAnLW9tYWUnLCAnPG91dGZpbGUubWFlPic=

> <r_lp_tautomer_probability>
0.999537

> <r_epik_Ionization_Penalty>
3.03155

> <r_epik_Ionization_Penalty_Charging>
2.38195e-08

> <r_epik_Ionization_Penalty_Neutral>
3.03155

> <r_epik_State_Penalty>
3.03052

> <r_epik_Charging_Adjusted_Penalty>
3.03052

> <i_epik_Tot_Q>
-1

> <i_epik_Tot_abs_Q>
1

> <r_epik_Metal_State_Penalty>
0.455936

> <b_epik_Metal_Only>
1

> <s_lp_Force_Field>
OPLS_2005

> <r_lp_Energy>
21.0708

> <b_lp_Chiralities_Consistent>
1

> <s_lp_Variant>
AV-unprocessed.smi:2091-3

> <Gold.Version>
5.8.1

> <Gold.Id.Protein>
6NUR|6NUR_protein|mol2

> <Gold.PLP.Fitness>
41.8179

> <Gold.PLP.PLP>
-31.1693

> <Gold.PLP.part.hbond>
-2.3056

> <Gold.PLP.part.metal>
0.0000

> <Gold.PLP.part.buried>
-6.2035

> <Gold.PLP.part.nonpolar>
-22.9901

> <Gold.PLP.part.repulsive>
0.1840

> <Gold.PLP.ligand.clash>
0.0000

> <Gold.PLP.ligand.torsion>
0.6766

> <Gold.PLP.Chemscore.Hbond>
3.0000

> <Gold.PLP.Chemscore.CHOScore>
1.0000

> <Gold.PLP.Chemscore.Metal>
0.0000

> <Gold.Chemscore.Hbonds>
donor molecule, donor type, donor heavy atom, donor atom, acceptor molecule, acceptor atom, score
      L1  H    12    25       P1  7948  1.00
      P1  H  6896  6907       L1     9  1.89
      L1  C     5    23       P1  7948  1.00

> <Gold.PLP.Chemscore.Internal.Correction>
0.0018

> <Gold.Rescore>
     Score         DG    S(hbond)    S(metal)    S(lipo)     H(rot)  DE(clash)    DE(int)     intcor
     12.34     -12.83       1.77        0.00      52.74       1.85       0.00       0.49       ----

> <Gold.Chemscore.Fitness>
12.3369

> <Gold.Chemscore.DG>
-12.8254

> <Gold.Chemscore.ZeroCoef>
-5.4800

> <Gold.Chemscore.Hbond>
1.7713

> <Gold.Chemscore.Metal>
0.0000

> <Gold.Chemscore.Lipo>
52.7352

> <Gold.Chemscore.Internal_Hbond>
0.0000

> <Gold.Chemscore.DEClash>
0.0000

> <Gold.Chemscore.DEInternal>
0.4885

> <Gold.Chemscore.Rot>
1.8519

> <Gold.Chemscore.Internal.Correction>
   9.000000E+99

> <Gold.Chemscore.Hbonds>
donor molecule, donor type, donor heavy atom, donor atom, acceptor molecule, acceptor atom, score
      L1  H    12    25       P1  7948  0.44
      P1  H  6896  6907       L1     9  0.56

> <Gold.Chemscore.Hbond.Weighted>
-5.9161

> <Gold.Chemscore.Metal.Weighted>
-0.0000

> <Gold.Chemscore.Lipo.Weighted>
-6.1700

> <Gold.Chemscore.Internal_Hbond.Weighted>
0.0000

> <Gold.Chemscore.DEClash.Weighted>
0.0000

> <Gold.Chemscore.DEInternal.Weighted>
0.4885

> <Gold.Chemscore.Rot.Weighted>
4.7408

> <Gold.Chemscore.Internal.Correction.Weighted>
   9.000000E+99

> <Gold.Protein.RotatedTorsions>
[ 6907 6896 6895 6894 ] final -111.39 input  -60.11 | X-H torsion
[ 7974 7965 7964 7962 ] final   51.42 input  175.53 | X-H torsion
[ 8008 7997 7996 7995 ] final  -55.68 input   59.86 | X-H torsion
[ 10167 10162 10161 10158 ] final -112.32 input  -65.29 | X-H torsion
[ 10718 10713 10712 10709 ] final  -77.53 input   66.30 | X-H torsion
[ 10763 10752 10751 10750 ] final   48.33 input  -60.55 | X-H torsion
[ 11005 11000 10999 10996 ] final  -25.90 input  -57.11 | X-H torsion

> <Gold.Protein.ActiveResidues>
 VAL166  LYS551  ARG553  GLY616  TRP617  ASP618  TYR619  PRO620  LYS621  CYS622 
 ASP623  PHE694  ASN695  SER759  ASP760  ASP761  ALA762  ILE779  LEU786  VAL792 
 PHE793  MET794  SER795  GLU796  ALA797  LYS798  CYS799  TRP800  GLU811  SER814 

> <Gold.Protein.RotatedAtoms>
  150.7687  133.9242  159.3407 H   0  0  0  0  0  0  0  0  0  0  0  0  # atno 6907 bound_to 6896
  151.7134  135.0906  160.0281 H   0  0  0  0  0  0  0  0  0  0  0  0  # atno 6908 bound_to 6896
  152.3695  133.6363  159.6112 H   0  0  0  0  0  0  0  0  0  0  0  0  # atno 6909 bound_to 6896
  145.9915  139.4344  143.0071 H   0  0  0  0  0  0  0  0  0  0  0  0  # atno 7974 bound_to 7965
  154.4203  140.1147  156.5515 H   0  0  0  0  0  0  0  0  0  0  0  0  # atno 8008 bound_to 7997
  155.6405  140.3496  155.4694 H   0  0  0  0  0  0  0  0  0  0  0  0  # atno 8009 bound_to 7997
  155.9875  140.1172  157.0659 H   0  0  0  0  0  0  0  0  0  0  0  0  # atno 8010 bound_to 7997
  140.1240  143.4419  152.1672 H   0  0  0  0  0  0  0  0  0  0  0  0  # atno 10167 bound_to 10162
  156.0142  130.4494  150.3359 H   0  0  0  0  0  0  0  0  0  0  0  0  # atno 10718 bound_to 10713
  152.9793  135.5947  154.3909 H   0  0  0  0  0  0  0  0  0  0  0  0  # atno 10763 bound_to 10752
  154.3564  135.2767  155.2346 H   0  0  0  0  0  0  0  0  0  0  0  0  # atno 10764 bound_to 10752
  154.4362  135.6024  153.6155 H   0  0  0  0  0  0  0  0  0  0  0  0  # atno 10765 bound_to 10752
  140.8980  133.7543  156.0507 H   0  0  0  0  0  0  0  0  0  0  0  0  # atno 11005 bound_to 11000
  145.7623  140.9930  143.1193 LP  0  0  0  0  0  0  0  0  0  0  0  0  # atno 17320 bound_to 7965
  144.6890  139.9345  143.7473 LP  0  0  0  0  0  0  0  0  0  0  0  0  # atno 17321 bound_to 7965
  139.5554  144.7369  151.4310 LP  0  0  0  0  0  0  0  0  0  0  0  0  # atno 17342 bound_to 10162
  140.6856  143.7982  150.7181 LP  0  0  0  0  0  0  0  0  0  0  0  0  # atno 17343 bound_to 10162
  157.1456  131.0308  151.2908 LP  0  0  0  0  0  0  0  0  0  0  0  0  # atno 17370 bound_to 10713
  157.4435  130.7558  149.7090 LP  0  0  0  0  0  0  0  0  0  0  0  0  # atno 17371 bound_to 10713
  140.8265  134.3228  157.5364 LP  0  0  0  0  0  0  0  0  0  0  0  0  # atno 17394 bound_to 11000
  139.8738  134.9339  156.3592 LP  0  0  0  0  0  0  0  0  0  0  0  0  # atno 17395 bound_to 11000

$$$$
