AV-unprocessed.smi:3250|AV-procd|sdf|12431|dock4
  -GOLD-   2272018323D 1   1.00000     0.00000
 Structure written by MMmdl.
 40 41  0  0  0  0  0  0  0  0  3 V2000
  145.0198  131.9850  150.1199 C   0  0  0  0  0  0  0  0  0  0  0  0
  143.8098  132.8550  149.7521 C   0  0  0  0  0  0  0  0  0  0  0  0
  143.6623  134.0323  150.6440 N   0  3  1  0  0  0  0  0  0  0  0  0
  143.2578  133.6496  152.0171 C   0  0  0  0  0  0  0  0  0  0  0  0
  143.0711  134.8998  152.8909 C   0  0  0  0  0  0  0  0  0  0  0  0
  144.2739  135.6585  152.8956 O   0  0  0  0  0  0  0  0  0  0  0  0
  144.6284  136.1226  151.5967 C   0  0  1  0  0  0  0  0  0  0  0  0
  145.8936  136.9828  151.7293 C   0  0  0  0  0  0  0  0  0  0  0  0
  145.6031  138.2887  152.3025 N   0  0  0  0  0  0  0  0  0  0  0  0
  146.5013  139.0092  153.0677 C   0  0  0  0  0  0  0  0  0  0  0  0
  146.1034  140.2018  153.5351 N   0  3  0  0  0  0  0  0  0  0  0  0
  146.9497  140.9463  154.2888 C   0  0  0  0  0  0  0  0  0  0  0  0
  148.2409  140.4736  154.5841 C   0  0  0  0  0  0  0  0  0  0  0  0
  148.5922  139.2161  154.0666 C   0  0  0  0  0  0  0  0  0  0  0  0
  149.8437  138.6981  154.3291 O   0  0  0  0  0  0  0  0  0  0  0  0
  150.7731  139.5062  155.0433 C   0  0  0  0  0  0  0  0  0  0  0  0
  147.7187  138.5048  153.3148 N   0  0  0  0  0  0  0  0  0  0  0  0
  144.8650  134.9017  150.6842 C   0  0  0  0  0  0  0  0  0  0  0  0
  145.1494  131.1834  149.3923 H   0  0  0  0  0  0  0  0  0  0  0  0
  144.9068  131.5172  151.0976 H   0  0  0  0  0  0  0  0  0  0  0  0
  145.9388  132.5717  150.1294 H   0  0  0  0  0  0  0  0  0  0  0  0
  143.9484  133.2009  148.7268 H   0  0  0  0  0  0  0  0  0  0  0  0
  142.8937  132.2625  149.7569 H   0  0  0  0  0  0  0  0  0  0  0  0
  142.3265  133.0831  151.9864 H   0  0  0  0  0  0  0  0  0  0  0  0
  144.0160  132.9975  152.4541 H   0  0  0  0  0  0  0  0  0  0  0  0
  142.2415  135.5097  152.5297 H   0  0  0  0  0  0  0  0  0  0  0  0
  142.8319  134.6100  153.9141 H   0  0  0  0  0  0  0  0  0  0  0  0
  143.8189  136.7301  151.1869 H   0  0  0  0  0  0  0  0  0  0  0  0
  146.6364  136.4676  152.3395 H   0  0  0  0  0  0  0  0  0  0  0  0
  146.3390  137.1374  150.7458 H   0  0  0  0  0  0  0  0  0  0  0  0
  144.7061  138.7107  152.1104 H   0  0  0  0  0  0  0  0  0  0  0  0
  146.5646  141.8956  154.6317 H   0  0  0  0  0  0  0  0  0  0  0  0
  148.9307  141.0499  155.1836 H   0  0  0  0  0  0  0  0  0  0  0  0
  151.7079  138.9593  155.1652 H   0  0  0  0  0  0  0  0  0  0  0  0
  150.4034  139.7547  156.0393 H   0  0  0  0  0  0  0  0  0  0  0  0
  150.9972  140.4278  154.5041 H   0  0  0  0  0  0  0  0  0  0  0  0
  145.7192  134.3242  151.0418 H   0  0  0  0  0  0  0  0  0  0  0  0
  145.1118  135.2472  149.6806 H   0  0  0  0  0  0  0  0  0  0  0  0
  142.9046  134.5852  150.2686 H   0  0  0  0  0  0  0  0  0  0  0  0
  145.1700  140.5603  153.3319 H   0  0  0  0  0  0  0  0  0  0  0  0
  1  2  1  0  0  0  0
  1 19  1  0  0  0  0
  1 20  1  0  0  0  0
  1 21  1  0  0  0  0
  2  3  1  0  0  0  0
  2 22  1  0  0  0  0
  2 23  1  0  0  0  0
  3 18  1  0  0  0  0
  3  4  1  0  0  0  0
  3 39  1  0  0  0  0
  4  5  1  0  0  0  0
  4 24  1  0  0  0  0
  4 25  1  0  0  0  0
  5  6  1  0  0  0  0
  5 26  1  0  0  0  0
  5 27  1  0  0  0  0
  6  7  1  0  0  0  0
  7  8  1  0  0  0  0
  7 18  1  0  0  0  0
  7 28  1  0  0  0  0
  8  9  1  0  0  0  0
  8 29  1  0  0  0  0
  8 30  1  0  0  0  0
  9 10  1  0  0  0  0
  9 31  1  0  0  0  0
 10 17  1  0  0  0  0
 10 11  2  0  0  0  0
 11 12  1  0  0  0  0
 11 40  1  0  0  0  0
 12 13  2  0  0  0  0
 12 32  1  0  0  0  0
 13 14  1  0  0  0  0
 13 33  1  0  0  0  0
 14 15  1  0  0  0  0
 14 17  2  0  0  0  0
 15 16  1  0  0  0  0
 16 34  1  0  0  0  0
 16 35  1  0  0  0  0
 16 36  1  0  0  0  0
 18 37  1  0  0  0  0
 18 38  1  0  0  0  0
M  CHG  1   3   1
M  CHG  1  11   1
M  END
> <s_m_source_file>
AV-unprocessed.smi

> <i_m_source_file_index>
3250

> <i_lp_mmshare_version>
43012

> <i_f3d_flags>
0

> <s_epik_input>
W0NIM11bQ0gyXU4xW0NIMl1bQ0gyXU9bQ0BIXShbQ0gyXTEpW0NIMl1bTkhdYzJuW2NIXVtjSF1jKG4yKU9bQ0gzXQ==

> <s_epik_cmdline>
J2VwaWtfcHl0aG9uJywgJy1waCcsICc3LjAnLCAnLXRuJywgJzgnLCAnLW1hJywgJzIwMCcsICctbWV0YWxfYmluZGluZycsICctaW1hZScsICc8aW5maWxlLm1hZT4nLCAnLW9tYWUnLCAnPG91dGZpbGUubWFlPic=

> <r_lp_tautomer_probability>
0.999985

> <r_epik_Ionization_Penalty>
2.24691

> <r_epik_Ionization_Penalty_Charging>
2.24686

> <r_epik_Ionization_Penalty_Neutral>
4.52111e-05

> <r_epik_State_Penalty>
2.24709

> <r_epik_Charging_Adjusted_Penalty>
4.49395

> <i_epik_Tot_Q>
2

> <i_epik_Tot_abs_Q>
2

> <r_epik_Metal_State_Penalty>
2.26327

> <b_epik_Metal_Only>
0

> <s_lp_Force_Field>
OPLS_2005

> <r_lp_Energy>
18.3796

> <b_lp_Chiralities_Consistent>
1

> <s_lp_Variant>
AV-unprocessed.smi:3250-7

> <Gold.Version>
5.8.1

> <Gold.Id.Protein>
6NUR|6NUR_protein|mol2

> <Gold.PLP.Fitness>
45.1585

> <Gold.PLP.PLP>
-29.7965

> <Gold.PLP.part.hbond>
-4.0000

> <Gold.PLP.part.metal>
0.0000

> <Gold.PLP.part.buried>
-1.1931

> <Gold.PLP.part.nonpolar>
-26.9202

> <Gold.PLP.part.repulsive>
1.5990

> <Gold.PLP.ligand.clash>
0.0272

> <Gold.PLP.ligand.torsion>
0.3357

> <Gold.PLP.Chemscore.Hbond>
5.3457

> <Gold.PLP.Chemscore.CHOScore>
0.0000

> <Gold.PLP.Chemscore.Metal>
0.0000

> <Gold.Chemscore.Hbonds>
donor molecule, donor type, donor heavy atom, donor atom, acceptor molecule, acceptor atom, score
      L1  H     3    39       P1 10186  1.70
      L1  H     9    31       P1 10175  1.56
      L1  H    11    40       P1 10175  2.00

> <Gold.PLP.Chemscore.Internal.Correction>
0.0235

> <Gold.Rescore>
     Score         DG    S(hbond)    S(metal)    S(lipo)     H(rot)  DE(clash)    DE(int)     intcor
     16.04     -16.53       2.25        0.00      68.54       1.75       0.14       0.35       ----

> <Gold.Chemscore.Fitness>
16.0410

> <Gold.Chemscore.DG>
-16.5305

> <Gold.Chemscore.ZeroCoef>
-5.4800

> <Gold.Chemscore.Hbond>
2.2511

> <Gold.Chemscore.Metal>
0.0000

> <Gold.Chemscore.Lipo>
68.5429

> <Gold.Chemscore.Internal_Hbond>
0.0000

> <Gold.Chemscore.DEClash>
0.1416

> <Gold.Chemscore.DEInternal>
0.3479

> <Gold.Chemscore.Rot>
1.7530

> <Gold.Chemscore.Internal.Correction>
   9.000000E+99

> <Gold.Chemscore.Hbonds>
donor molecule, donor type, donor heavy atom, donor atom, acceptor molecule, acceptor atom, score
      L1  H     3    39       P1 10186  0.48
      L1  H     9    31       P1 10175  0.74
      L1  H    11    40       P1 10175  0.92

> <Gold.Chemscore.Hbond.Weighted>
-7.5186

> <Gold.Chemscore.Metal.Weighted>
-0.0000

> <Gold.Chemscore.Lipo.Weighted>
-8.0195

> <Gold.Chemscore.Internal_Hbond.Weighted>
0.0000

> <Gold.Chemscore.DEClash.Weighted>
0.1416

> <Gold.Chemscore.DEInternal.Weighted>
0.3479

> <Gold.Chemscore.Rot.Weighted>
4.4876

> <Gold.Chemscore.Internal.Correction.Weighted>
   9.000000E+99

> <Gold.Protein.RotatedTorsions>
[ 6907 6896 6895 6894 ] final    3.84 input  -60.11 | X-H torsion
[ 7974 7965 7964 7962 ] final -146.48 input  175.53 | X-H torsion
[ 8008 7997 7996 7995 ] final  153.97 input   59.86 | X-H torsion
[ 10167 10162 10161 10158 ] final -117.75 input  -65.29 | X-H torsion
[ 10718 10713 10712 10709 ] final  -13.43 input   66.30 | X-H torsion
[ 10763 10752 10751 10750 ] final  162.37 input  -60.55 | X-H torsion
[ 11005 11000 10999 10996 ] final  123.64 input  -57.11 | X-H torsion

> <Gold.Protein.ActiveResidues>
 VAL166  LYS551  ARG553  GLY616  TRP617  ASP618  TYR619  PRO620  LYS621  CYS622 
 ASP623  PHE694  ASN695  SER759  ASP760  ASP761  ALA762  ILE779  LEU786  VAL792 
 PHE793  MET794  SER795  GLU796  ALA797  LYS798  CYS799  TRP800  GLU811  SER814 

> <Gold.Protein.RotatedAtoms>
  151.6315  135.1022  160.0122 H   0  0  0  0  0  0  0  0  0  0  0  0  # atno 6907 bound_to 6896
  152.4103  133.6949  159.6401 H   0  0  0  0  0  0  0  0  0  0  0  0  # atno 6908 bound_to 6896
  150.7994  133.8552  159.3257 H   0  0  0  0  0  0  0  0  0  0  0  0  # atno 6909 bound_to 6896
  144.8156  140.5450  143.5613 H   0  0  0  0  0  0  0  0  0  0  0  0  # atno 7974 bound_to 7965
  156.2555  140.1979  156.6573 H   0  0  0  0  0  0  0  0  0  0  0  0  # atno 8008 bound_to 7997
  154.6491  140.0574  156.9960 H   0  0  0  0  0  0  0  0  0  0  0  0  # atno 8009 bound_to 7997
  155.1445  140.3245  155.4447 H   0  0  0  0  0  0  0  0  0  0  0  0  # atno 8010 bound_to 7997
  140.0650  143.4932  152.2011 H   0  0  0  0  0  0  0  0  0  0  0  0  # atno 10167 bound_to 10162
  156.6303  130.4900  149.6131 H   0  0  0  0  0  0  0  0  0  0  0  0  # atno 10718 bound_to 10713
  154.2774  135.2764  155.2712 H   0  0  0  0  0  0  0  0  0  0  0  0  # atno 10763 bound_to 10752
  154.5248  135.5746  153.6714 H   0  0  0  0  0  0  0  0  0  0  0  0  # atno 10764 bound_to 10752
  152.9935  135.6213  154.2931 H   0  0  0  0  0  0  0  0  0  0  0  0  # atno 10765 bound_to 10752
  139.9322  134.9641  156.8289 H   0  0  0  0  0  0  0  0  0  0  0  0  # atno 11005 bound_to 11000
  145.5222  139.1476  143.3546 LP  0  0  0  0  0  0  0  0  0  0  0  0  # atno 17320 bound_to 7965
  146.2459  140.5362  142.8914 LP  0  0  0  0  0  0  0  0  0  0  0  0  # atno 17321 bound_to 7965
  139.5871  144.7535  151.3494 LP  0  0  0  0  0  0  0  0  0  0  0  0  # atno 17342 bound_to 10162
  140.7154  143.7281  150.7644 LP  0  0  0  0  0  0  0  0  0  0  0  0  # atno 17343 bound_to 10162
  156.2240  130.6754  151.1397 LP  0  0  0  0  0  0  0  0  0  0  0  0  # atno 17370 bound_to 10713
  157.7202  131.0686  150.6168 LP  0  0  0  0  0  0  0  0  0  0  0  0  # atno 17371 bound_to 10713
  140.6172  134.0027  155.7602 LP  0  0  0  0  0  0  0  0  0  0  0  0  # atno 17394 bound_to 11000
  141.0916  133.9907  157.3227 LP  0  0  0  0  0  0  0  0  0  0  0  0  # atno 17395 bound_to 11000

$$$$
