AV-unprocessed.smi:1762|AV-procd|sdf|7112|dock4
  -GOLD-   22720 8333D 1   1.00000     0.00000
 Structure written by MMmdl.
 53 54  0  0  0  0  0  0  0  0  2 V2000
  149.1450  141.7148  154.5621 C   0  0  0  0  0  0  0  0  0  0  0  0
  149.4355  140.2517  154.9138 C   0  0  1  0  0  0  0  0  0  0  0  0
  148.8972  139.2807  153.8434 C   0  0  0  0  0  0  0  0  0  0  0  0
  149.2315  137.8688  154.1778 N   0  3  2  0  0  0  0  0  0  0  0  0
  148.4363  137.2340  155.2885 C   0  0  2  0  0  0  0  0  0  0  0  0
  148.7902  135.7394  155.4418 C   0  0  0  0  0  0  0  0  0  0  0  0
  149.1470  135.2957  156.5337 O   0  0  0  0  0  0  0  0  0  0  0  0
  148.6874  134.9800  154.3397 N   0  0  0  0  0  0  0  0  0  0  0  0
  148.9788  133.5530  154.2768 C   0  0  0  0  0  0  0  0  0  0  0  0
  150.2276  133.1923  155.0980 C   0  0  0  0  0  0  0  0  0  0  0  0
  150.5552  131.7136  155.0152 C   0  0  0  0  0  0  0  0  0  0  0  0
  149.7338  130.8339  154.2784 C   0  0  0  0  0  0  0  0  0  0  0  0
  150.0745  129.4676  154.2450 C   0  0  0  0  0  0  0  0  0  0  0  0
  151.2164  129.0362  154.9472 C   0  0  0  0  0  0  0  0  0  0  0  0
  151.9695  129.9939  155.6553 C   0  0  0  0  0  0  0  0  0  0  0  0
  151.6506  131.3059  155.6947 N   0  0  0  0  0  0  0  0  0  0  0  0
  146.8876  137.4227  155.1538 C   0  0  0  0  0  0  0  0  0  0  0  0
  146.1068  136.9730  156.4051 C   0  0  0  0  0  0  0  0  0  0  0  0
  146.2818  136.7738  153.8920 C   0  0  0  0  0  0  0  0  0  0  0  0
  150.7118  137.7700  154.3328 C   0  0  0  0  0  0  0  0  0  0  0  0
  151.2430  138.7775  155.3761 C   0  0  1  0  0  0  0  0  0  0  0  0
  152.7722  138.7506  155.4717 C   0  0  0  0  0  0  0  0  0  0  0  0
  150.8480  140.0936  155.0027 O   0  0  0  0  0  0  0  0  0  0  0  0
  148.0723  141.8958  154.4904 H   0  0  0  0  0  0  0  0  0  0  0  0
  149.5956  141.9893  153.6078 H   0  0  0  0  0  0  0  0  0  0  0  0
  149.5442  142.3854  155.3233 H   0  0  0  0  0  0  0  0  0  0  0  0
  148.9835  140.0360  155.8829 H   0  0  0  0  0  0  0  0  0  0  0  0
  147.8344  139.4317  153.6684 H   0  0  0  0  0  0  0  0  0  0  0  0
  149.3671  139.5150  152.8870 H   0  0  0  0  0  0  0  0  0  0  0  0
  148.7264  137.7284  156.2157 H   0  0  0  0  0  0  0  0  0  0  0  0
  148.3921  135.4221  153.4810 H   0  0  0  0  0  0  0  0  0  0  0  0
  148.1151  132.9789  154.6172 H   0  0  0  0  0  0  0  0  0  0  0  0
  149.1353  133.2869  153.2310 H   0  0  0  0  0  0  0  0  0  0  0  0
  151.0847  133.7700  154.7490 H   0  0  0  0  0  0  0  0  0  0  0  0
  150.0837  133.4628  156.1453 H   0  0  0  0  0  0  0  0  0  0  0  0
  148.8613  131.1945  153.7534 H   0  0  0  0  0  0  0  0  0  0  0  0
  149.4702  128.7636  153.6924 H   0  0  0  0  0  0  0  0  0  0  0  0
  151.5080  127.9961  154.9442 H   0  0  0  0  0  0  0  0  0  0  0  0
  152.8505  129.6982  156.2055 H   0  0  0  0  0  0  0  0  0  0  0  0
  146.6892  138.4919  155.0971 H   0  0  0  0  0  0  0  0  0  0  0  0
  146.1187  135.8896  156.5292 H   0  0  0  0  0  0  0  0  0  0  0  0
  145.0617  137.2771  156.3401 H   0  0  0  0  0  0  0  0  0  0  0  0
  146.5195  137.4194  157.3101 H   0  0  0  0  0  0  0  0  0  0  0  0
  146.3388  135.6858  153.9303 H   0  0  0  0  0  0  0  0  0  0  0  0
  146.7851  137.0982  152.9818 H   0  0  0  0  0  0  0  0  0  0  0  0
  145.2290  137.0382  153.7894 H   0  0  0  0  0  0  0  0  0  0  0  0
  151.0359  136.7598  154.5803 H   0  0  0  0  0  0  0  0  0  0  0  0
  151.1647  137.9861  153.3639 H   0  0  0  0  0  0  0  0  0  0  0  0
  150.8398  138.5504  156.3635 H   0  0  0  0  0  0  0  0  0  0  0  0
  153.1281  137.7649  155.7730 H   0  0  0  0  0  0  0  0  0  0  0  0
  153.1305  139.4713  156.2071 H   0  0  0  0  0  0  0  0  0  0  0  0
  153.2335  138.9950  154.5144 H   0  0  0  0  0  0  0  0  0  0  0  0
  148.9983  137.3268  153.3574 H   0  0  0  0  0  0  0  0  0  0  0  0
  1  2  1  0  0  0  0
  1 24  1  0  0  0  0
  1 25  1  0  0  0  0
  1 26  1  0  0  0  0
  2 23  1  0  0  0  0
  2  3  1  0  0  0  0
  2 27  1  0  0  0  0
  3  4  1  0  0  0  0
  3 28  1  0  0  0  0
  3 29  1  0  0  0  0
  4  5  1  0  0  0  0
  4 20  1  0  0  0  0
  4 53  1  0  0  0  0
  5  6  1  0  0  0  0
  5 17  1  0  0  0  0
  5 30  1  0  0  0  0
  6  7  2  0  0  0  0
  6  8  1  0  0  0  0
  8  9  1  0  0  0  0
  8 31  1  0  0  0  0
  9 10  1  0  0  0  0
  9 32  1  0  0  0  0
  9 33  1  0  0  0  0
 10 11  1  0  0  0  0
 10 34  1  0  0  0  0
 10 35  1  0  0  0  0
 11 16  1  0  0  0  0
 11 12  2  0  0  0  0
 12 13  1  0  0  0  0
 12 36  1  0  0  0  0
 13 14  2  0  0  0  0
 13 37  1  0  0  0  0
 14 15  1  0  0  0  0
 14 38  1  0  0  0  0
 15 16  2  0  0  0  0
 15 39  1  0  0  0  0
 17 18  1  0  0  0  0
 17 19  1  0  0  0  0
 17 40  1  0  0  0  0
 18 41  1  0  0  0  0
 18 42  1  0  0  0  0
 18 43  1  0  0  0  0
 19 44  1  0  0  0  0
 19 45  1  0  0  0  0
 19 46  1  0  0  0  0
 20 21  1  0  0  0  0
 20 47  1  0  0  0  0
 20 48  1  0  0  0  0
 21 22  1  0  0  0  0
 21 23  1  0  0  0  0
 21 49  1  0  0  0  0
 22 50  1  0  0  0  0
 22 51  1  0  0  0  0
 22 52  1  0  0  0  0
M  CHG  1   4   1
M  END
> <s_m_source_file>
AV-unprocessed.smi

> <i_m_source_file_index>
1762

> <i_lp_mmshare_version>
43012

> <i_f3d_flags>
0

> <s_epik_input>
W0NIM11bQ0BASF0xW0NIMl1OKFtDSDJdW0NASF0oTzEpW0NIM10pW0NAQEhdKFtDSF0oW0NIM10pW0NIM10pQyg9TylbTkhdW0NIMl1bQ0gyXWMyW2NIXVtjSF1bY0hdW2NIXW4y

> <s_epik_cmdline>
J2VwaWtfcHl0aG9uJywgJy1waCcsICc3LjAnLCAnLXRuJywgJzgnLCAnLW1hJywgJzIwMCcsICctbWV0YWxfYmluZGluZycsICctaW1hZScsICc8aW5maWxlLm1hZT4nLCAnLW9tYWUnLCAnPG91dGZpbGUubWFlPic=

> <r_epik_Ionization_Penalty>
2.27005

> <r_epik_Ionization_Penalty_Charging>
2.24983

> <r_epik_Ionization_Penalty_Neutral>
0.0202209

> <r_epik_State_Penalty>
2.40228

> <r_epik_Charging_Adjusted_Penalty>
4.65211

> <i_epik_Tot_Q>
1

> <i_epik_Tot_abs_Q>
1

> <r_epik_Metal_State_Penalty>
2.40762

> <b_epik_Metal_Only>
0

> <s_lp_Force_Field>
OPLS_2005

> <r_lp_Energy>
22.1735

> <b_lp_Chiralities_Consistent>
1

> <s_lp_Variant>
AV-unprocessed.smi:1762-14

> <Gold.Version>
5.8.1

> <Gold.Id.Protein>
6NUR|6NUR_protein|mol2

> <Gold.PLP.Fitness>
45.0420

> <Gold.PLP.PLP>
-33.9708

> <Gold.PLP.part.hbond>
-3.0000

> <Gold.PLP.part.metal>
0.0000

> <Gold.PLP.part.buried>
-0.6679

> <Gold.PLP.part.nonpolar>
-29.8000

> <Gold.PLP.part.repulsive>
0.0680

> <Gold.PLP.ligand.clash>
0.0000

> <Gold.PLP.ligand.torsion>
0.4044

> <Gold.PLP.Chemscore.Hbond>
3.8800

> <Gold.PLP.Chemscore.CHOScore>
0.0000

> <Gold.PLP.Chemscore.Metal>
0.0000

> <Gold.Chemscore.Hbonds>
donor molecule, donor type, donor heavy atom, donor atom, acceptor molecule, acceptor atom, score
      L1  H     4    53       P1  7948  2.00
      L1  H     8    31       P1  7948  0.90
      P1  H  7989  7998       L1    23  1.00

> <Gold.PLP.Chemscore.Internal.Correction>
0.2400

> <Gold.Rescore>
     Score         DG    S(hbond)    S(metal)    S(lipo)     H(rot)  DE(clash)    DE(int)     intcor
     17.49     -20.50       2.78        0.00      85.52       1.66       1.10       1.91       ----

> <Gold.Chemscore.Fitness>
17.4857

> <Gold.Chemscore.DG>
-20.4970

> <Gold.Chemscore.ZeroCoef>
-5.4800

> <Gold.Chemscore.Hbond>
2.7753

> <Gold.Chemscore.Metal>
0.0000

> <Gold.Chemscore.Lipo>
85.5216

> <Gold.Chemscore.Internal_Hbond>
0.0000

> <Gold.Chemscore.DEClash>
1.1010

> <Gold.Chemscore.DEInternal>
1.9102

> <Gold.Chemscore.Rot>
1.6635

> <Gold.Chemscore.Internal.Correction>
   9.000000E+99

> <Gold.Chemscore.Hbonds>
donor molecule, donor type, donor heavy atom, donor atom, acceptor molecule, acceptor atom, score
      L1  H     4    53       P1  7948  1.00
      L1  H     8    31       P1  7948  0.87
      P1  H  7989  7998       L1    23  0.68

> <Gold.Chemscore.Hbond.Weighted>
-9.2696

> <Gold.Chemscore.Metal.Weighted>
-0.0000

> <Gold.Chemscore.Lipo.Weighted>
-10.0060

> <Gold.Chemscore.Internal_Hbond.Weighted>
0.0000

> <Gold.Chemscore.DEClash.Weighted>
1.1010

> <Gold.Chemscore.DEInternal.Weighted>
1.9102

> <Gold.Chemscore.Rot.Weighted>
4.2586

> <Gold.Chemscore.Internal.Correction.Weighted>
   9.000000E+99

> <Gold.Protein.RotatedTorsions>
[ 6907 6896 6895 6894 ] final -178.07 input  -60.11 | X-H torsion
[ 7974 7965 7964 7962 ] final    5.58 input  175.53 | X-H torsion
[ 8008 7997 7996 7995 ] final  -82.09 input   59.86 | X-H torsion
[ 10167 10162 10161 10158 ] final  176.30 input  -65.29 | X-H torsion
[ 10718 10713 10712 10709 ] final  116.79 input   66.30 | X-H torsion
[ 10763 10752 10751 10750 ] final   85.17 input  -60.55 | X-H torsion
[ 11005 11000 10999 10996 ] final  -55.44 input  -57.11 | X-H torsion

> <Gold.Protein.ActiveResidues>
 VAL166  LYS551  ARG553  GLY616  TRP617  ASP618  TYR619  PRO620  LYS621  CYS622 
 ASP623  PHE694  ASN695  SER759  ASP760  ASP761  ALA762  ILE779  LEU786  VAL792 
 PHE793  MET794  SER795  GLU796  ALA797  LYS798  CYS799  TRP800  GLU811  SER814 

> <Gold.Protein.RotatedAtoms>
  151.6313  133.3332  159.3109 H   0  0  0  0  0  0  0  0  0  0  0  0  # atno 6907 bound_to 6896
  150.8055  134.7181  159.6652 H   0  0  0  0  0  0  0  0  0  0  0  0  # atno 6908 bound_to 6896
  152.4150  134.6062  160.0065 H   0  0  0  0  0  0  0  0  0  0  0  0  # atno 6909 bound_to 6896
  146.2440  140.0362  142.8386 H   0  0  0  0  0  0  0  0  0  0  0  0  # atno 7974 bound_to 7965
  154.6050  140.0638  156.9419 H   0  0  0  0  0  0  0  0  0  0  0  0  # atno 8008 bound_to 7997
  155.2067  140.3319  155.4316 H   0  0  0  0  0  0  0  0  0  0  0  0  # atno 8009 bound_to 7997
  156.2342  140.1855  156.7147 H   0  0  0  0  0  0  0  0  0  0  0  0  # atno 8010 bound_to 7997
  139.5209  144.2932  152.0445 H   0  0  0  0  0  0  0  0  0  0  0  0  # atno 10167 bound_to 10162
  157.6138  131.1029  150.7522 H   0  0  0  0  0  0  0  0  0  0  0  0  # atno 10718 bound_to 10713
  153.1450  135.4627  154.9552 H   0  0  0  0  0  0  0  0  0  0  0  0  # atno 10763 bound_to 10752
  154.7778  135.3179  154.8056 H   0  0  0  0  0  0  0  0  0  0  0  0  # atno 10764 bound_to 10752
  153.8572  135.6916  153.4840 H   0  0  0  0  0  0  0  0  0  0  0  0  # atno 10765 bound_to 10752
  141.1074  133.6612  156.4470 H   0  0  0  0  0  0  0  0  0  0  0  0  # atno 11005 bound_to 11000
  145.1110  140.9405  143.4656 LP  0  0  0  0  0  0  0  0  0  0  0  0  # atno 17320 bound_to 7965
  145.0576  139.3131  143.5897 LP  0  0  0  0  0  0  0  0  0  0  0  0  # atno 17321 bound_to 7965
  140.2382  144.4297  150.6271 LP  0  0  0  0  0  0  0  0  0  0  0  0  # atno 17342 bound_to 10162
  140.6309  143.2187  151.6498 LP  0  0  0  0  0  0  0  0  0  0  0  0  # atno 17343 bound_to 10162
  156.7894  130.4885  149.5387 LP  0  0  0  0  0  0  0  0  0  0  0  0  # atno 17370 bound_to 10713
  156.1252  130.6138  151.0252 LP  0  0  0  0  0  0  0  0  0  0  0  0  # atno 17371 bound_to 10713
  140.4866  134.6614  157.5193 LP  0  0  0  0  0  0  0  0  0  0  0  0  # atno 17394 bound_to 11000
  139.9950  134.6925  155.9624 LP  0  0  0  0  0  0  0  0  0  0  0  0  # atno 17395 bound_to 11000

$$$$
