AV-unprocessed.smi:114|AV-procd|sdf|1110|dock3
  -GOLD-   2262018223D 1   1.00000     0.00000
 Structure written by MMmdl.
 32 34  0  0  0  0  0  0  0  0  1 V2000
  150.9172  144.8839  157.8721 N   0  0  0  0  0  0  0  0  0  0  0  0
  151.3574  143.6441  158.1299 C   0  0  0  0  0  0  0  0  0  0  0  0
  152.1125  143.4449  159.2347 N   0  0  0  0  0  0  0  0  0  0  0  0
  152.5725  142.2224  159.5261 C   0  0  0  0  0  0  0  0  0  0  0  0
  153.3182  142.1115  160.6504 F   0  0  0  0  0  0  0  0  0  0  0  0
  152.3773  141.0970  158.8312 N   0  0  0  0  0  0  0  0  0  0  0  0
  151.6166  141.2894  157.7153 C   0  0  0  0  0  0  0  0  0  0  0  0
  151.0692  142.5337  157.2991 C   0  0  0  0  0  0  0  0  0  0  0  0
  150.3486  142.3677  156.1252 N   0  0  0  0  0  0  0  0  0  0  0  0
  150.4679  141.0940  155.8642 C   0  0  0  0  0  0  0  0  0  0  0  0
  151.2171  140.3686  156.7644 N   0  0  0  0  0  0  0  0  0  0  0  0
  151.5074  138.9014  156.6997 C   0  0  1  0  0  0  0  0  0  0  0  0
  150.3186  138.1841  156.8230 O   0  0  0  0  0  0  0  0  0  0  0  0
  150.2689  137.0934  155.8998 C   0  0  1  0  0  0  0  0  0  0  0  0
  149.0777  137.3298  154.9470 C   0  0  0  0  0  0  0  0  0  0  0  0
  148.9172  136.2173  154.0932 O   0  0  0  0  0  0  0  0  0  0  0  0
  151.6562  137.0883  155.2267 C   0  0  1  0  0  0  0  0  0  0  0  0
  151.6342  136.6721  153.8745 O   0  0  0  0  0  0  0  0  0  0  0  0
  152.1268  138.5281  155.3555 C   0  0  2  0  0  0  0  0  0  0  0  0
  153.5401  138.5555  155.4013 O   0  0  0  0  0  0  0  0  0  0  0  0
  152.1512  138.6936  157.5557 H   0  0  0  0  0  0  0  0  0  0  0  0
  150.1251  136.1557  156.4383 H   0  0  0  0  0  0  0  0  0  0  0  0
  152.3150  136.4267  155.7922 H   0  0  0  0  0  0  0  0  0  0  0  0
  151.7208  139.1612  154.5641 H   0  0  0  0  0  0  0  0  0  0  0  0
  150.3525  145.0558  157.0526 H   0  0  0  0  0  0  0  0  0  0  0  0
  151.1526  145.6433  158.4944 H   0  0  0  0  0  0  0  0  0  0  0  0
  150.0062  140.6415  154.9985 H   0  0  0  0  0  0  0  0  0  0  0  0
  148.1573  137.5367  155.4913 H   0  0  0  0  0  0  0  0  0  0  0  0
  149.2612  138.1861  154.2984 H   0  0  0  0  0  0  0  0  0  0  0  0
  149.1798  136.4680  153.2207 H   0  0  0  0  0  0  0  0  0  0  0  0
  150.8570  136.1538  153.7316 H   0  0  0  0  0  0  0  0  0  0  0  0
  153.8750  138.1856  154.5990 H   0  0  0  0  0  0  0  0  0  0  0  0
  1  2  1  0  0  0  0
  1 25  1  0  0  0  0
  1 26  1  0  0  0  0
  2  8  1  0  0  0  0
  2  3  2  0  0  0  0
  3  4  1  0  0  0  0
  4  5  1  0  0  0  0
  4  6  2  0  0  0  0
  6  7  1  0  0  0  0
  7 11  1  0  0  0  0
  7  8  2  0  0  0  0
  8  9  1  0  0  0  0
  9 10  2  0  0  0  0
 10 11  1  0  0  0  0
 10 27  1  0  0  0  0
 11 12  1  0  0  0  0
 12 21  1  0  0  0  0
 12 19  1  0  0  0  0
 12 13  1  0  0  0  0
 13 14  1  0  0  0  0
 14 22  1  0  0  0  0
 14 15  1  0  0  0  0
 14 17  1  0  0  0  0
 15 16  1  0  0  0  0
 15 28  1  0  0  0  0
 15 29  1  0  0  0  0
 16 30  1  0  0  0  0
 17 23  1  0  0  0  0
 17 18  1  0  0  0  0
 17 19  1  0  0  0  0
 18 31  1  0  0  0  0
 19 24  1  0  0  0  0
 19 20  1  0  0  0  0
 20 32  1  0  0  0  0
M  END
> <s_m_source_file>
AV-unprocessed.smi

> <i_m_source_file_index>
114

> <i_lp_mmshare_version>
43012

> <i_f3d_flags>
0

> <s_epik_input>
RmMobjEpbmMoW05IMl0pYyhjMTIpbltjSF1uMltDQEBIXTNPW0NASF0oW0NIMl1bT0hdKVtDQEBIXShbT0hdKVtDQEBIXTNbT0hd

> <s_epik_cmdline>
J2VwaWtfcHl0aG9uJywgJy1waCcsICc3LjAnLCAnLXRuJywgJzgnLCAnLW1hJywgJzIwMCcsICctbWV0YWxfYmluZGluZycsICctaW1hZScsICc8aW5maWxlLm1hZT4nLCAnLW9tYWUnLCAnPG91dGZpbGUubWFlPic=

> <r_lp_tautomer_probability>
1

> <r_epik_Ionization_Penalty>
1.13199e-05

> <r_epik_Ionization_Penalty_Charging>
0

> <r_epik_Ionization_Penalty_Neutral>
1.13199e-05

> <r_epik_State_Penalty>
-0

> <r_epik_Charging_Adjusted_Penalty>
0

> <i_epik_Tot_Q>
0

> <i_epik_Tot_abs_Q>
0

> <r_epik_Metal_State_Penalty>
-0

> <b_epik_Metal_Only>
0

> <s_epik_Chemistry_Notes>
This compound contains an acetal/aminal-like group ( X-CH(R)-Y where X, Y are N, S, or O) that may be acid/base labile, releasing an aldehyde.

> <s_lp_Force_Field>
OPLS_2005

> <r_lp_Energy>
42.0862

> <b_lp_Chiralities_Consistent>
1

> <s_lp_Variant>
AV-unprocessed.smi:114-4

> <Gold.Version>
5.8.1

> <Gold.Id.Protein>
6NUR|6NUR_protein|mol2

> <Gold.PLP.Fitness>
42.1187

> <Gold.PLP.PLP>
-30.7207

> <Gold.PLP.part.hbond>
-5.2264

> <Gold.PLP.part.metal>
0.0000

> <Gold.PLP.part.buried>
-4.5282

> <Gold.PLP.part.nonpolar>
-23.6036

> <Gold.PLP.part.repulsive>
2.3743

> <Gold.PLP.ligand.clash>
0.0000

> <Gold.PLP.ligand.torsion>
0.0762

> <Gold.PLP.Chemscore.Hbond>
3.8480

> <Gold.PLP.Chemscore.CHOScore>
0.0000

> <Gold.PLP.Chemscore.Metal>
0.0000

> <Gold.Chemscore.Hbonds>
donor molecule, donor type, donor heavy atom, donor atom, acceptor molecule, acceptor atom, score
      L1  H     1    25       P1  8028  0.95
      L1  H    16    30       P1  7948  0.55
      P1  H  7997  8010       L1    20  0.83
      P1  H 10752 10765       L1    18  0.70

> <Gold.PLP.Chemscore.Internal.Correction>
0.0066

> <Gold.Rescore>
     Score         DG    S(hbond)    S(metal)    S(lipo)     H(rot)  DE(clash)    DE(int)     intcor
      5.07      -6.14       2.43        0.00      24.45       4.03       1.02       0.05       ----

> <Gold.Chemscore.Fitness>
5.0677

> <Gold.Chemscore.DG>
-6.1427

> <Gold.Chemscore.ZeroCoef>
-5.4800

> <Gold.Chemscore.Hbond>
2.4291

> <Gold.Chemscore.Metal>
0.0000

> <Gold.Chemscore.Lipo>
24.4476

> <Gold.Chemscore.Internal_Hbond>
0.0000

> <Gold.Chemscore.DEClash>
1.0249

> <Gold.Chemscore.DEInternal>
0.0501

> <Gold.Chemscore.Rot>
4.0277

> <Gold.Chemscore.Internal.Correction>
   9.000000E+99

> <Gold.Chemscore.Hbonds>
donor molecule, donor type, donor heavy atom, donor atom, acceptor molecule, acceptor atom, score
      L1  H     1    25       P1  8028  0.21
      L1  H    16    30       P1  7948  0.51
      P1  H  7997  8010       L1    20  0.76
      P1  H 10752 10765       L1    18  0.06

> <Gold.Chemscore.Hbond.Weighted>
-8.1133

> <Gold.Chemscore.Metal.Weighted>
-0.0000

> <Gold.Chemscore.Lipo.Weighted>
-2.8604

> <Gold.Chemscore.Internal_Hbond.Weighted>
0.0000

> <Gold.Chemscore.DEClash.Weighted>
1.0249

> <Gold.Chemscore.DEInternal.Weighted>
0.0501

> <Gold.Chemscore.Rot.Weighted>
10.3110

> <Gold.Chemscore.Internal.Correction.Weighted>
   9.000000E+99

> <Gold.Protein.RotatedTorsions>
[ 6907 6896 6895 6894 ] final   45.75 input  -60.11 | X-H torsion
[ 7974 7965 7964 7962 ] final   59.00 input  175.53 | X-H torsion
[ 8008 7997 7996 7995 ] final   90.01 input   59.86 | X-H torsion
[ 10167 10162 10161 10158 ] final  -73.24 input  -65.29 | X-H torsion
[ 10718 10713 10712 10709 ] final -153.92 input   66.30 | X-H torsion
[ 10763 10752 10751 10750 ] final  145.25 input  -60.55 | X-H torsion
[ 11005 11000 10999 10996 ] final -105.32 input  -57.11 | X-H torsion

> <Gold.Protein.ActiveResidues>
 VAL166  LYS551  ARG553  GLY616  TRP617  ASP618  TYR619  PRO620  LYS621  CYS622 
 ASP623  PHE694  ASN695  SER759  ASP760  ASP761  ALA762  ILE779  LEU786  VAL792 
 PHE793  MET794  SER795  GLU796  ALA797  LYS798  CYS799  TRP800  GLU811  SER814 

> <Gold.Protein.RotatedAtoms>
  152.2483  134.8159  160.0449 H   0  0  0  0  0  0  0  0  0  0  0  0  # atno 6907 bound_to 6896
  151.8848  133.3498  159.3786 H   0  0  0  0  0  0  0  0  0  0  0  0  # atno 6908 bound_to 6896
  150.7075  134.4909  159.5559 H   0  0  0  0  0  0  0  0  0  0  0  0  # atno 6909 bound_to 6896
  145.9120  139.3661  143.0530 H   0  0  0  0  0  0  0  0  0  0  0  0  # atno 7974 bound_to 7965
  156.0069  140.3354  155.6901 H   0  0  0  0  0  0  0  0  0  0  0  0  # atno 8008 bound_to 7997
  155.6212  140.0675  157.2695 H   0  0  0  0  0  0  0  0  0  0  0  0  # atno 8009 bound_to 7997
  154.4268  140.1776  156.1362 H   0  0  0  0  0  0  0  0  0  0  0  0  # atno 8010 bound_to 7997
  140.5126  143.2342  151.7567 H   0  0  0  0  0  0  0  0  0  0  0  0  # atno 10167 bound_to 10162
  156.4923  130.8353  151.2575 H   0  0  0  0  0  0  0  0  0  0  0  0  # atno 10718 bound_to 10713
  154.0022  135.2922  155.3401 H   0  0  0  0  0  0  0  0  0  0  0  0  # atno 10763 bound_to 10752
  154.7152  135.5132  153.8730 H   0  0  0  0  0  0  0  0  0  0  0  0  # atno 10764 bound_to 10752
  153.0760  135.6664  154.0263 H   0  0  0  0  0  0  0  0  0  0  0  0  # atno 10765 bound_to 10752
  141.1059  133.8798  157.1720 H   0  0  0  0  0  0  0  0  0  0  0  0  # atno 11005 bound_to 11000
  145.8659  140.9448  143.0676 LP  0  0  0  0  0  0  0  0  0  0  0  0  # atno 17320 bound_to 7965
  144.6744  140.0591  143.7476 LP  0  0  0  0  0  0  0  0  0  0  0  0  # atno 17321 bound_to 7965
  139.4900  144.4369  151.9809 LP  0  0  0  0  0  0  0  0  0  0  0  0  # atno 17342 bound_to 10162
  140.3462  144.3144  150.5958 LP  0  0  0  0  0  0  0  0  0  0  0  0  # atno 17343 bound_to 10162
  157.7472  131.0009  150.2944 LP  0  0  0  0  0  0  0  0  0  0  0  0  # atno 17370 bound_to 10713
  156.3414  130.3816  149.7406 LP  0  0  0  0  0  0  0  0  0  0  0  0  # atno 17371 bound_to 10713
  139.9929  135.0058  157.0016 LP  0  0  0  0  0  0  0  0  0  0  0  0  # atno 17394 bound_to 11000
  140.4904  134.1199  155.7231 LP  0  0  0  0  0  0  0  0  0  0  0  0  # atno 17395 bound_to 11000

$$$$
