AV-unprocessed.smi:921|AV-procd|sdf|4169|dock10
  -GOLD-   22720 2 73D 1   1.00000     0.00000
 Structure written by MMmdl.
 39 41  0  0  0  0  0  0  0  0  1 V2000
  154.1759  137.5920  158.5068 N   0  0  0  0  0  0  0  0  0  0  0  0
  153.2603  138.3514  157.8987 C   0  0  0  0  0  0  0  0  0  0  0  0
  153.3838  138.7156  156.7312 O   0  0  0  0  0  0  0  0  0  0  0  0
  152.0349  138.7669  158.7219 C   0  0  0  0  0  0  0  0  0  0  0  0
  151.9825  140.2719  158.8256 C   0  0  0  0  0  0  0  0  0  0  0  0
  152.9192  140.9647  159.4818 N   0  0  0  0  0  0  0  0  0  0  0  0
  152.5015  142.2715  159.3358 C   0  0  0  0  0  0  0  0  0  0  0  0
  153.0641  143.4755  159.8168 C   0  0  0  0  0  0  0  0  0  0  0  0
  152.4496  144.7131  159.5340 C   0  0  0  0  0  0  0  0  0  0  0  0
  151.2678  144.7638  158.7670 C   0  0  0  0  0  0  0  0  0  0  0  0
  150.6929  143.5755  158.2767 C   0  0  0  0  0  0  0  0  0  0  0  0
  151.3098  142.3428  158.5632 C   0  0  0  0  0  0  0  0  0  0  0  0
  151.0125  141.0232  158.2357 N   0  0  0  0  0  0  0  0  0  0  0  0
  149.8822  140.6028  157.4155 C   0  0  0  0  0  0  0  0  0  0  0  0
  150.3095  140.0605  156.0375 C   0  0  2  0  0  0  0  0  0  0  0  0
  151.4520  140.7537  155.5764 O   0  0  0  0  0  0  0  0  0  0  0  0
  149.1576  140.1211  155.0440 C   0  0  0  0  0  0  0  0  0  0  0  0
  148.4796  141.3393  154.8137 C   0  0  0  0  0  0  0  0  0  0  0  0
  147.4071  141.3968  153.9029 C   0  0  0  0  0  0  0  0  0  0  0  0
  146.7641  142.5688  153.6872 F   0  0  0  0  0  0  0  0  0  0  0  0
  147.0020  140.2358  153.2182 C   0  0  0  0  0  0  0  0  0  0  0  0
  147.6681  139.0170  153.4478 C   0  0  0  0  0  0  0  0  0  0  0  0
  148.7407  138.9569  154.3591 C   0  0  0  0  0  0  0  0  0  0  0  0
  149.3634  137.7728  154.5741 F   0  0  0  0  0  0  0  0  0  0  0  0
  154.9909  137.2859  157.9957 H   0  0  0  0  0  0  0  0  0  0  0  0
  154.0451  137.3154  159.4689 H   0  0  0  0  0  0  0  0  0  0  0  0
  151.1173  138.4083  158.2542 H   0  0  0  0  0  0  0  0  0  0  0  0
  152.1046  138.2912  159.6974 H   0  0  0  0  0  0  0  0  0  0  0  0
  153.9695  143.4468  160.4048 H   0  0  0  0  0  0  0  0  0  0  0  0
  152.8873  145.6274  159.9070 H   0  0  0  0  0  0  0  0  0  0  0  0
  150.8033  145.7155  158.5543 H   0  0  0  0  0  0  0  0  0  0  0  0
  149.7879  143.6112  157.6885 H   0  0  0  0  0  0  0  0  0  0  0  0
  149.3540  139.8195  157.9607 H   0  0  0  0  0  0  0  0  0  0  0  0
  149.1639  141.4157  157.3193 H   0  0  0  0  0  0  0  0  0  0  0  0
  150.6154  139.0201  156.1519 H   0  0  0  0  0  0  0  0  0  0  0  0
  152.2226  140.3199  155.9092 H   0  0  0  0  0  0  0  0  0  0  0  0
  148.7781  142.2350  155.3386 H   0  0  0  0  0  0  0  0  0  0  0  0
  146.1792  140.2789  152.5200 H   0  0  0  0  0  0  0  0  0  0  0  0
  147.3543  138.1257  152.9252 H   0  0  0  0  0  0  0  0  0  0  0  0
  1  2  1  0  0  0  0
  1 25  1  0  0  0  0
  1 26  1  0  0  0  0
  2  3  2  0  0  0  0
  2  4  1  0  0  0  0
  4  5  1  0  0  0  0
  4 27  1  0  0  0  0
  4 28  1  0  0  0  0
  5 13  1  0  0  0  0
  5  6  2  0  0  0  0
  6  7  1  0  0  0  0
  7 12  2  0  0  0  0
  7  8  1  0  0  0  0
  8  9  2  0  0  0  0
  8 29  1  0  0  0  0
  9 10  1  0  0  0  0
  9 30  1  0  0  0  0
 10 11  2  0  0  0  0
 10 31  1  0  0  0  0
 11 12  1  0  0  0  0
 11 32  1  0  0  0  0
 12 13  1  0  0  0  0
 13 14  1  0  0  0  0
 14 15  1  0  0  0  0
 14 33  1  0  0  0  0
 14 34  1  0  0  0  0
 15 16  1  0  0  0  0
 15 17  1  0  0  0  0
 15 35  1  0  0  0  0
 16 36  1  0  0  0  0
 17 23  1  0  0  0  0
 17 18  2  0  0  0  0
 18 19  1  0  0  0  0
 18 37  1  0  0  0  0
 19 20  1  0  0  0  0
 19 21  2  0  0  0  0
 21 22  1  0  0  0  0
 21 38  1  0  0  0  0
 22 23  2  0  0  0  0
 22 39  1  0  0  0  0
 23 24  1  0  0  0  0
M  END
> <s_m_source_file>
AV-unprocessed.smi

> <i_m_source_file_index>
921

> <i_lp_mmshare_version>
43012

> <i_f3d_flags>
0

> <s_epik_input>
W2NIXTFbY0hdW2NIXVtjSF1jKGMxMiluKGMobjIpW0NIMl1DKD1PKVtOSDJdKVtDSDJdW0NASF0oW09IXSljM1tjSF1jKEYpW2NIXVtjSF1jM0Y=

> <s_epik_cmdline>
J2VwaWtfcHl0aG9uJywgJy1waCcsICc3LjAnLCAnLXRuJywgJzgnLCAnLW1hJywgJzIwMCcsICctbWV0YWxfYmluZGluZycsICctaW1hZScsICc8aW5maWxlLm1hZT4nLCAnLW9tYWUnLCAnPG91dGZpbGUubWFlPic=

> <r_epik_Ionization_Penalty>
0.0366909

> <r_epik_Ionization_Penalty_Charging>
0

> <r_epik_Ionization_Penalty_Neutral>
0.0366909

> <r_epik_State_Penalty>
0.0306642

> <r_epik_Charging_Adjusted_Penalty>
0.0306642

> <i_epik_Tot_Q>
0

> <i_epik_Tot_abs_Q>
0

> <r_epik_Metal_State_Penalty>
0.028853

> <b_epik_Metal_Only>
0

> <s_lp_Force_Field>
OPLS_2005

> <r_lp_Energy>
14.0365

> <b_lp_Chiralities_Consistent>
1

> <s_lp_Variant>
AV-unprocessed.smi:921-1

> <Gold.Version>
5.8.1

> <Gold.Id.Protein>
6NUR|6NUR_protein|mol2

> <Gold.PLP.Fitness>
48.9501

> <Gold.PLP.PLP>
-44.8899

> <Gold.PLP.part.hbond>
-2.0000

> <Gold.PLP.part.metal>
0.0000

> <Gold.PLP.part.buried>
-4.2325

> <Gold.PLP.part.nonpolar>
-37.8242

> <Gold.PLP.part.repulsive>
0.1010

> <Gold.PLP.ligand.clash>
0.0000

> <Gold.PLP.ligand.torsion>
0.4851

> <Gold.PLP.Chemscore.Hbond>
1.6635

> <Gold.PLP.Chemscore.CHOScore>
0.0000

> <Gold.PLP.Chemscore.Metal>
0.0000

> <Gold.Chemscore.Hbonds>
donor molecule, donor type, donor heavy atom, donor atom, acceptor molecule, acceptor atom, score
      P1  H  7989  7998       L1    16  0.63
      P1  H  7997  8008       L1     3  1.00

> <Gold.PLP.Chemscore.Internal.Correction>
0.0399

> <Gold.Rescore>
     Score         DG    S(hbond)    S(metal)    S(lipo)     H(rot)  DE(clash)    DE(int)     intcor
     15.87     -17.13       1.64        0.00     120.82       3.11       0.91       0.35       ----

> <Gold.Chemscore.Fitness>
15.8712

> <Gold.Chemscore.DG>
-17.1270

> <Gold.Chemscore.ZeroCoef>
-5.4800

> <Gold.Chemscore.Hbond>
1.6402

> <Gold.Chemscore.Metal>
0.0000

> <Gold.Chemscore.Lipo>
120.8181

> <Gold.Chemscore.Internal_Hbond>
0.0000

> <Gold.Chemscore.DEClash>
0.9053

> <Gold.Chemscore.DEInternal>
0.3505

> <Gold.Chemscore.Rot>
3.1121

> <Gold.Chemscore.Internal.Correction>
   9.000000E+99

> <Gold.Chemscore.Hbonds>
donor molecule, donor type, donor heavy atom, donor atom, acceptor molecule, acceptor atom, score
      P1  H  7989  7998       L1    16  0.37
      P1  H  7997  8008       L1     3  0.86

> <Gold.Chemscore.Hbond.Weighted>
-5.4783

> <Gold.Chemscore.Metal.Weighted>
-0.0000

> <Gold.Chemscore.Lipo.Weighted>
-14.1357

> <Gold.Chemscore.Internal_Hbond.Weighted>
0.0000

> <Gold.Chemscore.DEClash.Weighted>
0.9053

> <Gold.Chemscore.DEInternal.Weighted>
0.3505

> <Gold.Chemscore.Rot.Weighted>
7.9670

> <Gold.Chemscore.Internal.Correction.Weighted>
   9.000000E+99

> <Gold.Protein.RotatedTorsions>
[ 6907 6896 6895 6894 ] final  -52.94 input  -60.11 | X-H torsion
[ 7974 7965 7964 7962 ] final  -13.03 input  175.53 | X-H torsion
[ 8008 7997 7996 7995 ] final  -52.91 input   59.86 | X-H torsion
[ 10167 10162 10161 10158 ] final  104.58 input  -65.29 | X-H torsion
[ 10718 10713 10712 10709 ] final  -16.21 input   66.30 | X-H torsion
[ 10763 10752 10751 10750 ] final   24.49 input  -60.55 | X-H torsion
[ 11005 11000 10999 10996 ] final   95.71 input  -57.11 | X-H torsion

> <Gold.Protein.ActiveResidues>
 VAL166  LYS551  ARG553  GLY616  TRP617  ASP618  TYR619  PRO620  LYS621  CYS622 
 ASP623  PHE694  ASN695  SER759  ASP760  ASP761  ALA762  ILE779  LEU786  VAL792 
 PHE793  MET794  SER795  GLU796  ALA797  LYS798  CYS799  TRP800  GLU811  SER814 

> <Gold.Protein.RotatedAtoms>
  150.8471  134.7784  159.6979 H   0  0  0  0  0  0  0  0  0  0  0  0  # atno 6907 bound_to 6896
  152.4545  134.5317  159.9823 H   0  0  0  0  0  0  0  0  0  0  0  0  # atno 6908 bound_to 6896
  151.5446  133.3389  159.2977 H   0  0  0  0  0  0  0  0  0  0  0  0  # atno 6909 bound_to 6896
  146.2130  140.3144  142.8385 H   0  0  0  0  0  0  0  0  0  0  0  0  # atno 7974 bound_to 7965
  154.4119  140.1212  156.5067 H   0  0  0  0  0  0  0  0  0  0  0  0  # atno 8008 bound_to 7997
  155.6840  140.3496  155.4847 H   0  0  0  0  0  0  0  0  0  0  0  0  # atno 8009 bound_to 7997
  155.9527  140.1108  157.0953 H   0  0  0  0  0  0  0  0  0  0  0  0  # atno 8010 bound_to 7997
  139.7165  144.7067  151.0942 H   0  0  0  0  0  0  0  0  0  0  0  0  # atno 10167 bound_to 10162
  156.5908  130.4798  149.6280 H   0  0  0  0  0  0  0  0  0  0  0  0  # atno 10718 bound_to 10713
  153.0760  135.6604  154.0145 H   0  0  0  0  0  0  0  0  0  0  0  0  # atno 10763 bound_to 10752
  153.9779  135.2958  155.3424 H   0  0  0  0  0  0  0  0  0  0  0  0  # atno 10764 bound_to 10752
  154.7148  135.5190  153.8792 H   0  0  0  0  0  0  0  0  0  0  0  0  # atno 10765 bound_to 10752
  139.8787  134.8913  156.4052 H   0  0  0  0  0  0  0  0  0  0  0  0  # atno 11005 bound_to 11000
  144.8965  140.7589  143.5894 LP  0  0  0  0  0  0  0  0  0  0  0  0  # atno 17320 bound_to 7965
  145.3068  139.1832  143.4660 LP  0  0  0  0  0  0  0  0  0  0  0  0  # atno 17321 bound_to 7965
  140.7745  143.5223  150.9522 LP  0  0  0  0  0  0  0  0  0  0  0  0  # atno 17342 bound_to 10162
  139.8909  143.6954  152.3145 LP  0  0  0  0  0  0  0  0  0  0  0  0  # atno 17343 bound_to 10162
  156.2551  130.6930  151.1681 LP  0  0  0  0  0  0  0  0  0  0  0  0  # atno 17370 bound_to 10713
  157.7304  131.0616  150.5728 LP  0  0  0  0  0  0  0  0  0  0  0  0  # atno 17371 bound_to 10713
  140.9239  133.7626  155.9940 LP  0  0  0  0  0  0  0  0  0  0  0  0  # atno 17394 bound_to 11000
  140.8408  134.3069  157.5314 LP  0  0  0  0  0  0  0  0  0  0  0  0  # atno 17395 bound_to 11000

$$$$
