AV-unprocessed.smi:2247|AV-procd|sdf|9086|dock6
  -GOLD-   2272012293D 1   1.00000     0.00000
 Structure written by MMmdl.
 34 35  0  0  0  0  0  0  0  0  1 V2000
  150.9203  139.8210  155.2066 C   0  0  0  0  0  0  0  0  0  0  0  0
  149.7989  140.8648  155.0593 C   0  0  0  0  0  0  0  0  0  0  0  0
  149.4262  141.5028  156.4070 C   0  0  0  0  0  0  0  0  0  0  0  0
  148.6022  140.3183  154.4059 N   0  0  0  0  0  0  0  0  0  0  0  0
  147.7805  141.1041  153.4994 C   0  0  0  0  0  0  0  0  0  0  0  0
  146.8957  140.0737  152.7911 C   0  0  0  0  0  0  0  0  0  0  0  0
  146.8897  138.8301  153.6948 C   0  0  1  0  0  0  0  0  0  0  0  0
  146.9979  137.6175  152.8857 N   0  0  0  0  0  0  0  0  0  0  0  0
  145.9710  136.8269  152.5399 C   0  0  0  0  0  0  0  0  0  0  0  0
  144.8001  137.0637  152.8385 O   0  0  0  0  0  0  0  0  0  0  0  0
  146.3909  135.7594  151.8405 N   0  0  0  0  0  0  0  0  0  0  0  0
  145.6026  134.6960  151.3329 C   0  0  0  0  0  0  0  0  0  0  0  0
  146.0471  133.6050  150.7071 N   0  0  0  0  0  0  0  0  0  0  0  0
  144.9014  132.8822  150.4083 C   0  0  0  0  0  0  0  0  0  0  0  0
  143.8193  133.5827  150.8761 C   0  0  0  0  0  0  0  0  0  0  0  0
  144.2506  134.7398  151.4675 O   0  0  0  0  0  0  0  0  0  0  0  0
  148.1585  139.0587  154.5175 C   0  0  0  0  0  0  0  0  0  0  0  0
  148.6782  138.1751  155.1993 O   0  0  0  0  0  0  0  0  0  0  0  0
  151.8269  140.2814  155.6006 H   0  0  0  0  0  0  0  0  0  0  0  0
  151.1731  139.3751  154.2442 H   0  0  0  0  0  0  0  0  0  0  0  0
  150.6417  139.0175  155.8887 H   0  0  0  0  0  0  0  0  0  0  0  0
  150.1954  141.6554  154.4194 H   0  0  0  0  0  0  0  0  0  0  0  0
  150.2968  141.9576  156.8799 H   0  0  0  0  0  0  0  0  0  0  0  0
  149.0222  140.7615  157.0972 H   0  0  0  0  0  0  0  0  0  0  0  0
  148.6767  142.2849  156.2816 H   0  0  0  0  0  0  0  0  0  0  0  0
  147.1724  141.8038  154.0743 H   0  0  0  0  0  0  0  0  0  0  0  0
  148.3841  141.6711  152.7898 H   0  0  0  0  0  0  0  0  0  0  0  0
  145.8896  140.4547  152.6122 H   0  0  0  0  0  0  0  0  0  0  0  0
  147.3304  139.8431  151.8166 H   0  0  0  0  0  0  0  0  0  0  0  0
  146.0182  138.8232  154.3519 H   0  0  0  0  0  0  0  0  0  0  0  0
  147.9264  137.3455  152.5986 H   0  0  0  0  0  0  0  0  0  0  0  0
  147.3821  135.6906  151.6646 H   0  0  0  0  0  0  0  0  0  0  0  0
  144.9450  131.9347  149.8915 H   0  0  0  0  0  0  0  0  0  0  0  0
  142.7534  133.4089  150.8687 H   0  0  0  0  0  0  0  0  0  0  0  0
  1  2  1  0  0  0  0
  1 19  1  0  0  0  0
  1 20  1  0  0  0  0
  1 21  1  0  0  0  0
  2  3  1  0  0  0  0
  2  4  1  0  0  0  0
  2 22  1  0  0  0  0
  3 23  1  0  0  0  0
  3 24  1  0  0  0  0
  3 25  1  0  0  0  0
  4 17  1  0  0  0  0
  4  5  1  0  0  0  0
  5  6  1  0  0  0  0
  5 26  1  0  0  0  0
  5 27  1  0  0  0  0
  6  7  1  0  0  0  0
  6 28  1  0  0  0  0
  6 29  1  0  0  0  0
  7  8  1  0  0  0  0
  7 17  1  0  0  0  0
  7 30  1  0  0  0  0
  8  9  1  0  0  0  0
  8 31  1  0  0  0  0
  9 10  2  0  0  0  0
  9 11  1  0  0  0  0
 11 12  1  0  0  0  0
 11 32  1  0  0  0  0
 12 16  1  0  0  0  0
 12 13  2  0  0  0  0
 13 14  1  0  0  0  0
 14 15  2  0  0  0  0
 14 33  1  0  0  0  0
 15 16  1  0  0  0  0
 15 34  1  0  0  0  0
 17 18  2  0  0  0  0
M  END
> <s_m_source_file>
AV-unprocessed.smi

> <i_m_source_file_index>
2247

> <i_lp_mmshare_version>
43012

> <i_f3d_flags>
0

> <s_epik_input>
W0NIM11bQ0hdKFtDSDNdKU4xW0NIMl1bQ0gyXVtDQEhdKEMxPU8pW05IXUMoPU8pW05IXWMybltjSF1bY0hdbzI=

> <s_epik_cmdline>
J2VwaWtfcHl0aG9uJywgJy1waCcsICc3LjAnLCAnLXRuJywgJzgnLCAnLW1hJywgJzIwMCcsICctbWV0YWxfYmluZGluZycsICctaW1hZScsICc8aW5maWxlLm1hZT4nLCAnLW9tYWUnLCAnPG91dGZpbGUubWFlPic=

> <r_lp_tautomer_probability>
0.785861

> <r_epik_Ionization_Penalty>
5.15801e-05

> <r_epik_Ionization_Penalty_Charging>
0

> <r_epik_Ionization_Penalty_Neutral>
5.15801e-05

> <r_epik_State_Penalty>
0.0205761

> <r_epik_Charging_Adjusted_Penalty>
0.0205761

> <i_epik_Tot_Q>
0

> <i_epik_Tot_abs_Q>
0

> <r_epik_Metal_State_Penalty>
0.0168939

> <b_epik_Metal_Only>
0

> <s_lp_Force_Field>
OPLS_2005

> <r_lp_Energy>
20.5401

> <b_lp_Chiralities_Consistent>
1

> <s_lp_Variant>
AV-unprocessed.smi:2247-1

> <Gold.Version>
5.8.1

> <Gold.Id.Protein>
6NUR|6NUR_protein|mol2

> <Gold.PLP.Fitness>
32.9038

> <Gold.PLP.PLP>
-25.9391

> <Gold.PLP.part.hbond>
-2.0000

> <Gold.PLP.part.metal>
0.0000

> <Gold.PLP.part.buried>
-0.3500

> <Gold.PLP.part.nonpolar>
-23.6397

> <Gold.PLP.part.repulsive>
0.7114

> <Gold.PLP.ligand.clash>
0.0000

> <Gold.PLP.ligand.torsion>
1.0578

> <Gold.PLP.Chemscore.Hbond>
2.0000

> <Gold.PLP.Chemscore.CHOScore>
0.9994

> <Gold.PLP.Chemscore.Metal>
0.0000

> <Gold.Chemscore.Hbonds>
donor molecule, donor type, donor heavy atom, donor atom, acceptor molecule, acceptor atom, score
      L1  H     8    31       P1  7948  1.00
      L1  H    11    32       P1  7948  1.00
      L1  C    15    34       P1 10186  1.00

> <Gold.PLP.Chemscore.Internal.Correction>
0.0821

> <Gold.Rescore>
     Score         DG    S(hbond)    S(metal)    S(lipo)     H(rot)  DE(clash)    DE(int)     intcor
     11.06     -15.03       1.94        0.00      55.34       1.33       0.08       3.89       ----

> <Gold.Chemscore.Fitness>
11.0588

> <Gold.Chemscore.DG>
-15.0268

> <Gold.Chemscore.ZeroCoef>
-5.4800

> <Gold.Chemscore.Hbond>
1.9420

> <Gold.Chemscore.Metal>
0.0000

> <Gold.Chemscore.Lipo>
55.3432

> <Gold.Chemscore.Internal_Hbond>
0.0000

> <Gold.Chemscore.DEClash>
0.0814

> <Gold.Chemscore.DEInternal>
3.8865

> <Gold.Chemscore.Rot>
1.3338

> <Gold.Chemscore.Internal.Correction>
   9.000000E+99

> <Gold.Chemscore.Hbonds>
donor molecule, donor type, donor heavy atom, donor atom, acceptor molecule, acceptor atom, score
      L1  H     8    31       P1  7948  0.94
      L1  H    11    32       P1  7948  0.96

> <Gold.Chemscore.Hbond.Weighted>
-6.4861

> <Gold.Chemscore.Metal.Weighted>
-0.0000

> <Gold.Chemscore.Lipo.Weighted>
-6.4752

> <Gold.Chemscore.Internal_Hbond.Weighted>
0.0000

> <Gold.Chemscore.DEClash.Weighted>
0.0814

> <Gold.Chemscore.DEInternal.Weighted>
3.8865

> <Gold.Chemscore.Rot.Weighted>
3.4145

> <Gold.Chemscore.Internal.Correction.Weighted>
   9.000000E+99

> <Gold.Protein.RotatedTorsions>
[ 6907 6896 6895 6894 ] final -158.24 input  -60.11 | X-H torsion
[ 7974 7965 7964 7962 ] final  -99.67 input  175.53 | X-H torsion
[ 8008 7997 7996 7995 ] final    8.34 input   59.86 | X-H torsion
[ 10167 10162 10161 10158 ] final   55.82 input  -65.29 | X-H torsion
[ 10718 10713 10712 10709 ] final  171.08 input   66.30 | X-H torsion
[ 10763 10752 10751 10750 ] final -171.98 input  -60.55 | X-H torsion
[ 11005 11000 10999 10996 ] final   93.81 input  -57.11 | X-H torsion

> <Gold.Protein.ActiveResidues>
 VAL166  LYS551  ARG553  GLY616  TRP617  ASP618  TYR619  PRO620  LYS621  CYS622 
 ASP623  PHE694  ASN695  SER759  ASP760  ASP761  ALA762  ILE779  LEU786  VAL792 
 PHE793  MET794  SER795  GLU796  ALA797  LYS798  CYS799  TRP800  GLU811  SER814 

> <Gold.Protein.RotatedAtoms>
  151.3151  133.4063  159.2649 H   0  0  0  0  0  0  0  0  0  0  0  0  # atno 6907 bound_to 6896
  151.0081  134.9376  159.8002 H   0  0  0  0  0  0  0  0  0  0  0  0  # atno 6908 bound_to 6896
  152.5293  134.3116  159.9168 H   0  0  0  0  0  0  0  0  0  0  0  0  # atno 6909 bound_to 6896
  145.3045  140.9385  143.2805 H   0  0  0  0  0  0  0  0  0  0  0  0  # atno 7974 bound_to 7965
  154.7655  140.2792  155.6179 H   0  0  0  0  0  0  0  0  0  0  0  0  # atno 8008 bound_to 7997
  156.2924  140.2651  156.2372 H   0  0  0  0  0  0  0  0  0  0  0  0  # atno 8009 bound_to 7997
  154.9964  140.0373  157.2331 H   0  0  0  0  0  0  0  0  0  0  0  0  # atno 8010 bound_to 7997
  140.2153  144.3846  150.6472 H   0  0  0  0  0  0  0  0  0  0  0  0  # atno 10167 bound_to 10162
  156.9988  131.0170  151.2836 H   0  0  0  0  0  0  0  0  0  0  0  0  # atno 10718 bound_to 10713
  154.6244  135.2879  155.0288 H   0  0  0  0  0  0  0  0  0  0  0  0  # atno 10763 bound_to 10752
  154.1472  135.6509  153.4959 H   0  0  0  0  0  0  0  0  0  0  0  0  # atno 10764 bound_to 10752
  153.0251  135.5347  154.7047 H   0  0  0  0  0  0  0  0  0  0  0  0  # atno 10765 bound_to 10752
  139.8805  134.8811  156.3772 H   0  0  0  0  0  0  0  0  0  0  0  0  # atno 11005 bound_to 11000
  144.9066  139.4581  143.6607 LP  0  0  0  0  0  0  0  0  0  0  0  0  # atno 17320 bound_to 7965
  146.3140  139.7851  142.8998 LP  0  0  0  0  0  0  0  0  0  0  0  0  # atno 17321 bound_to 7965
  140.6294  143.2185  151.6527 LP  0  0  0  0  0  0  0  0  0  0  0  0  # atno 17342 bound_to 10162
  139.5164  144.3347  152.0795 LP  0  0  0  0  0  0  0  0  0  0  0  0  # atno 17343 bound_to 10162
  157.5405  130.8117  149.8023 LP  0  0  0  0  0  0  0  0  0  0  0  0  # atno 17370 bound_to 10713
  156.0179  130.3806  150.2053 LP  0  0  0  0  0  0  0  0  0  0  0  0  # atno 17371 bound_to 10713
  140.9423  133.7506  156.0163 LP  0  0  0  0  0  0  0  0  0  0  0  0  # atno 17394 bound_to 11000
  140.8204  134.3296  157.5383 LP  0  0  0  0  0  0  0  0  0  0  0  0  # atno 17395 bound_to 11000

$$$$
