AV-unprocessed.smi:697|AV-procd|sdf|3393|dock8
  -GOLD-   22720 0373D 1   1.00000     0.00000
 Structure written by MMmdl.
 43 44  0  0  0  0  0  0  0  0  2 V2000
  157.9674  144.1269  168.4291 C   0  0  0  0  0  0  0  0  0  0  0  0
  157.0693  144.2883  167.3388 O   0  0  0  0  0  0  0  0  0  0  0  0
  155.9251  143.4331  167.3294 C   0  0  1  0  0  0  0  0  0  0  0  0
  155.2399  143.4592  168.7047 C   0  0  0  0  0  0  0  0  0  0  0  0
  155.0471  143.6456  166.0822 C   0  0  0  0  0  0  0  0  0  0  0  0
  154.9540  142.1241  165.9981 C   0  0  1  0  0  0  0  0  0  0  0  0
  154.9490  141.6358  164.6238 N   0  0  0  0  0  0  0  0  0  0  0  0
  154.1346  142.0896  163.6620 C   0  0  0  0  0  0  0  0  0  0  0  0
  153.3069  142.9814  163.8480 O   0  0  0  0  0  0  0  0  0  0  0  0
  154.3650  141.4498  162.5013 N   0  0  0  0  0  0  0  0  0  0  0  0
  153.7299  141.5968  161.2561 C   0  0  0  0  0  0  0  0  0  0  0  0
  152.8190  142.5635  160.9544 C   0  0  0  0  0  0  0  0  0  0  0  0
  152.1861  142.6581  159.6450 C   0  0  0  0  0  0  0  0  0  0  0  0
  151.2432  143.7781  159.2423 C   0  0  0  0  0  0  0  0  0  0  0  0
  150.9838  144.5805  160.2749 F   0  0  0  0  0  0  0  0  0  0  0  0
  151.7952  144.5105  158.2761 F   0  0  0  0  0  0  0  0  0  0  0  0
  150.0886  143.2915  158.7873 F   0  0  0  0  0  0  0  0  0  0  0  0
  152.6257  141.6767  158.7782 C   0  0  0  0  0  0  0  0  0  0  0  0
  153.4991  140.6710  159.0041 N   0  5  0  0  0  0  0  0  0  0  0  0
  154.0827  140.5902  160.2332 C   0  0  0  0  0  0  0  0  0  0  0  0
  154.8904  139.7008  160.5052 O   0  0  0  0  0  0  0  0  0  0  0  0
  156.3288  142.0546  166.7116 C   0  0  0  0  0  0  0  0  0  0  0  0
  157.5807  142.0540  165.8106 C   0  0  0  0  0  0  0  0  0  0  0  0
  156.5156  140.8875  167.6859 C   0  0  0  0  0  0  0  0  0  0  0  0
  158.7433  144.8896  168.3671 H   0  0  0  0  0  0  0  0  0  0  0  0
  158.4651  143.1581  168.4070 H   0  0  0  0  0  0  0  0  0  0  0  0
  157.4678  144.2440  169.3909 H   0  0  0  0  0  0  0  0  0  0  0  0
  154.4452  142.7172  168.7772 H   0  0  0  0  0  0  0  0  0  0  0  0
  154.7761  144.4235  168.9100 H   0  0  0  0  0  0  0  0  0  0  0  0
  155.9508  143.2549  169.5055 H   0  0  0  0  0  0  0  0  0  0  0  0
  154.0964  144.1450  166.2704 H   0  0  0  0  0  0  0  0  0  0  0  0
  155.5776  144.1000  165.2432 H   0  0  0  0  0  0  0  0  0  0  0  0
  154.1352  141.7348  166.6075 H   0  0  0  0  0  0  0  0  0  0  0  0
  155.6052  140.9046  164.3915 H   0  0  0  0  0  0  0  0  0  0  0  0
  155.1239  140.7839  162.5006 H   0  0  0  0  0  0  0  0  0  0  0  0
  152.5177  143.2906  161.6900 H   0  0  0  0  0  0  0  0  0  0  0  0
  152.2161  141.7065  157.7459 H   0  0  0  0  0  0  0  0  0  0  0  0
  157.6860  141.1141  165.2676 H   0  0  0  0  0  0  0  0  0  0  0  0
  158.4915  142.1906  166.3945 H   0  0  0  0  0  0  0  0  0  0  0  0
  157.5573  142.8505  165.0668 H   0  0  0  0  0  0  0  0  0  0  0  0
  156.7066  139.9525  167.1583 H   0  0  0  0  0  0  0  0  0  0  0  0
  155.6309  140.7222  168.3002 H   0  0  0  0  0  0  0  0  0  0  0  0
  157.3538  141.0619  168.3613 H   0  0  0  0  0  0  0  0  0  0  0  0
  1  2  1  0  0  0  0
  1 25  1  0  0  0  0
  1 26  1  0  0  0  0
  1 27  1  0  0  0  0
  2  3  1  0  0  0  0
  3 22  1  0  0  0  0
  3  4  1  0  0  0  0
  3  5  1  0  0  0  0
  4 28  1  0  0  0  0
  4 29  1  0  0  0  0
  4 30  1  0  0  0  0
  5  6  1  0  0  0  0
  5 31  1  0  0  0  0
  5 32  1  0  0  0  0
  6  7  1  0  0  0  0
  6 22  1  0  0  0  0
  6 33  1  0  0  0  0
  7  8  1  0  0  0  0
  7 34  1  0  0  0  0
  8  9  2  0  0  0  0
  8 10  1  0  0  0  0
 10 11  1  0  0  0  0
 10 35  1  0  0  0  0
 11 20  1  0  0  0  0
 11 12  2  0  0  0  0
 12 13  1  0  0  0  0
 12 36  1  0  0  0  0
 13 14  1  0  0  0  0
 13 18  2  0  0  0  0
 14 15  1  0  0  0  0
 14 16  1  0  0  0  0
 14 17  1  0  0  0  0
 18 19  1  0  0  0  0
 18 37  1  0  0  0  0
 19 20  1  0  0  0  0
 20 21  2  0  0  0  0
 22 23  1  0  0  0  0
 22 24  1  0  0  0  0
 23 38  1  0  0  0  0
 23 39  1  0  0  0  0
 23 40  1  0  0  0  0
 24 41  1  0  0  0  0
 24 42  1  0  0  0  0
 24 43  1  0  0  0  0
M  CHG  1  19  -1
M  END
> <s_m_source_file>
AV-unprocessed.smi

> <i_m_source_file_index>
697

> <i_lp_mmshare_version>
43012

> <i_f3d_flags>
0

> <s_epik_input>
W0NIM11PW0NAQF0xKFtDSDNdKVtDSDJdW0NASF0oQzEoW0NIM10pW0NIM10pW05IXUMoPU8pW05IXWMyW2NIXWMoQyhGKShGKUYpW2NIXVtuSF1jMj1P

> <s_epik_cmdline>
J2VwaWtfcHl0aG9uJywgJy1waCcsICc3LjAnLCAnLXRuJywgJzgnLCAnLW1hJywgJzIwMCcsICctbWV0YWxfYmluZGluZycsICctaW1hZScsICc8aW5maWxlLm1hZT4nLCAnLW9tYWUnLCAnPG91dGZpbGUubWFlPic=

> <r_lp_tautomer_probability>
1

> <r_epik_Ionization_Penalty>
3.20094

> <r_epik_Ionization_Penalty_Charging>
0.180017

> <r_epik_Ionization_Penalty_Neutral>
3.02092

> <r_epik_State_Penalty>
3.01726

> <r_epik_Charging_Adjusted_Penalty>
3.19727

> <i_epik_Tot_Q>
-1

> <i_epik_Tot_abs_Q>
1

> <r_epik_Metal_State_Penalty>
0.455096

> <b_epik_Metal_Only>
1

> <s_lp_Force_Field>
OPLS_2005

> <r_lp_Energy>
36.1164

> <b_lp_Chiralities_Consistent>
1

> <s_lp_Variant>
AV-unprocessed.smi:697-5

> <Gold.Version>
5.8.1

> <Gold.Id.Protein>
6NUR|6NUR_protein|mol2

> <Gold.PLP.Fitness>
51.9287

> <Gold.PLP.PLP>
-51.2091

> <Gold.PLP.part.hbond>
-2.8675

> <Gold.PLP.part.metal>
0.0000

> <Gold.PLP.part.buried>
-4.8771

> <Gold.PLP.part.nonpolar>
-41.9712

> <Gold.PLP.part.repulsive>
0.2013

> <Gold.PLP.ligand.clash>
0.0000

> <Gold.PLP.ligand.torsion>
0.4476

> <Gold.PLP.Chemscore.Hbond>
0.3952

> <Gold.PLP.Chemscore.CHOScore>
0.0000

> <Gold.PLP.Chemscore.Metal>
0.0000

> <Gold.Chemscore.Hbonds>
donor molecule, donor type, donor heavy atom, donor atom, acceptor molecule, acceptor atom, score
      P1  H  7997  8008       L1    19  0.29

> <Gold.PLP.Chemscore.Internal.Correction>
0.4292

> <Gold.Rescore>
     Score         DG    S(hbond)    S(metal)    S(lipo)     H(rot)  DE(clash)    DE(int)     intcor
     10.94     -13.82       0.48        0.00      85.97       1.30       0.36       2.52       ----

> <Gold.Chemscore.Fitness>
10.9351

> <Gold.Chemscore.DG>
-13.8161

> <Gold.Chemscore.ZeroCoef>
-5.4800

> <Gold.Chemscore.Hbond>
0.4788

> <Gold.Chemscore.Metal>
0.0000

> <Gold.Chemscore.Lipo>
85.9651

> <Gold.Chemscore.Internal_Hbond>
0.0000

> <Gold.Chemscore.DEClash>
0.3638

> <Gold.Chemscore.DEInternal>
2.5172

> <Gold.Chemscore.Rot>
1.2973

> <Gold.Chemscore.Internal.Correction>
   9.000000E+99

> <Gold.Chemscore.Hbonds>
donor molecule, donor type, donor heavy atom, donor atom, acceptor molecule, acceptor atom, score
      P1  H  7997  8008       L1    19  0.12

> <Gold.Chemscore.Hbond.Weighted>
-1.5991

> <Gold.Chemscore.Metal.Weighted>
-0.0000

> <Gold.Chemscore.Lipo.Weighted>
-10.0579

> <Gold.Chemscore.Internal_Hbond.Weighted>
0.0000

> <Gold.Chemscore.DEClash.Weighted>
0.3638

> <Gold.Chemscore.DEInternal.Weighted>
2.5172

> <Gold.Chemscore.Rot.Weighted>
3.3210

> <Gold.Chemscore.Internal.Correction.Weighted>
   9.000000E+99

> <Gold.Protein.RotatedTorsions>
[ 6907 6896 6895 6894 ] final  -22.87 input  -60.11 | X-H torsion
[ 7974 7965 7964 7962 ] final  -71.40 input  175.53 | X-H torsion
[ 8008 7997 7996 7995 ] final -113.06 input   59.86 | X-H torsion
[ 10167 10162 10161 10158 ] final  -73.68 input  -65.29 | X-H torsion
[ 10718 10713 10712 10709 ] final -121.65 input   66.30 | X-H torsion
[ 10763 10752 10751 10750 ] final -150.03 input  -60.55 | X-H torsion
[ 11005 11000 10999 10996 ] final  -42.49 input  -57.11 | X-H torsion

> <Gold.Protein.ActiveResidues>
 VAL166  LYS551  ARG553  GLY616  TRP617  ASP618  TYR619  PRO620  LYS621  CYS622 
 ASP623  PHE694  ASN695  SER759  ASP760  ASP761  ALA762  ILE779  LEU786  VAL792 
 PHE793  MET794  SER795  GLU796  ALA797  LYS798  CYS799  TRP800  GLU811  SER814 

> <Gold.Protein.RotatedAtoms>
  151.2123  135.0486  159.8915 H   0  0  0  0  0  0  0  0  0  0  0  0  # atno 6907 bound_to 6896
  152.5423  134.0731  159.8213 H   0  0  0  0  0  0  0  0  0  0  0  0  # atno 6908 bound_to 6896
  151.0886  133.5285  159.2648 H   0  0  0  0  0  0  0  0  0  0  0  0  # atno 6909 bound_to 6896
  145.6786  140.9196  143.0844 H   0  0  0  0  0  0  0  0  0  0  0  0  # atno 7974 bound_to 7965
  155.0149  140.0393  157.2414 H   0  0  0  0  0  0  0  0  0  0  0  0  # atno 8008 bound_to 7997
  154.7428  140.2752  155.6335 H   0  0  0  0  0  0  0  0  0  0  0  0  # atno 8009 bound_to 7997
  156.2868  140.2662  156.2160 H   0  0  0  0  0  0  0  0  0  0  0  0  # atno 8010 bound_to 7997
  140.5090  143.2348  151.7625 H   0  0  0  0  0  0  0  0  0  0  0  0  # atno 10167 bound_to 10162
  156.1354  130.6427  150.9688 H   0  0  0  0  0  0  0  0  0  0  0  0  # atno 10718 bound_to 10713
  154.8143  135.3294  154.7219 H   0  0  0  0  0  0  0  0  0  0  0  0  # atno 10763 bound_to 10752
  153.7863  135.6914  153.4884 H   0  0  0  0  0  0  0  0  0  0  0  0  # atno 10764 bound_to 10752
  153.1946  135.4538  155.0139 H   0  0  0  0  0  0  0  0  0  0  0  0  # atno 10765 bound_to 10752
  141.0319  133.6816  156.2602 H   0  0  0  0  0  0  0  0  0  0  0  0  # atno 11005 bound_to 11000
  144.7033  139.8666  143.7437 LP  0  0  0  0  0  0  0  0  0  0  0  0  # atno 17320 bound_to 7965
  146.0984  139.3978  143.0362 LP  0  0  0  0  0  0  0  0  0  0  0  0  # atno 17321 bound_to 7965
  139.4891  144.4417  151.9757 LP  0  0  0  0  0  0  0  0  0  0  0  0  # atno 17342 bound_to 10162
  140.3509  144.3090  150.5949 LP  0  0  0  0  0  0  0  0  0  0  0  0  # atno 17343 bound_to 10162
  157.6527  131.0894  150.8014 LP  0  0  0  0  0  0  0  0  0  0  0  0  # atno 17370 bound_to 10713
  156.8095  130.4947  149.5358 LP  0  0  0  0  0  0  0  0  0  0  0  0  # atno 17371 bound_to 10713
  140.6391  134.5185  157.5567 LP  0  0  0  0  0  0  0  0  0  0  0  0  # atno 17394 bound_to 11000
  139.9214  134.8142  156.1201 LP  0  0  0  0  0  0  0  0  0  0  0  0  # atno 17395 bound_to 11000

$$$$
