AV-unprocessed.smi:41|AV-procd|sdf|384|dock10
  -GOLD-   2262016243D 1   1.00000     0.00000
 Structure written by MMmdl.
 26 27  0  0  0  0  0  0  0  0  1 V2000
  149.3487  139.0103  153.2576 N   0  0  0  0  0  0  0  0  0  0  0  0
  149.6692  139.8257  154.2725 C   0  0  0  0  0  0  0  0  0  0  0  0
  150.8327  139.6730  154.8742 N   0  0  0  0  0  0  0  0  0  0  0  0
  151.2468  140.4543  155.9211 C   0  0  0  0  0  0  0  0  0  0  0  0
  152.3343  140.2474  156.4580 O   0  0  0  0  0  0  0  0  0  0  0  0
  150.3813  141.4944  156.3470 N   0  0  0  0  0  0  0  0  0  0  0  0
  150.7190  142.3153  157.5076 C   0  0  1  0  0  0  0  0  0  0  0  0
  151.3465  141.5337  158.6816 C   0  0  0  0  0  0  0  0  0  0  0  0
  152.3485  142.7114  159.6047 S   0  0  0  0  0  0  0  0  0  0  0  0
  152.1282  143.9355  158.2925 C   0  0  2  0  0  0  0  0  0  0  0  0
  151.2099  145.0940  158.7256 C   0  0  0  0  0  0  0  0  0  0  0  0
  151.8525  145.8975  159.6929 O   0  0  0  0  0  0  0  0  0  0  0  0
  151.6139  143.3121  157.1248 O   0  0  0  0  0  0  0  0  0  0  0  0
  149.1407  141.6395  155.7374 C   0  0  0  0  0  0  0  0  0  0  0  0
  148.7523  140.8522  154.7114 C   0  0  0  0  0  0  0  0  0  0  0  0
  147.5517  141.0143  154.1290 F   0  0  0  0  0  0  0  0  0  0  0  0
  149.8234  142.8179  157.8741 H   0  0  0  0  0  0  0  0  0  0  0  0
  153.1064  144.3417  158.0327 H   0  0  0  0  0  0  0  0  0  0  0  0
  148.4577  139.1118  152.7925 H   0  0  0  0  0  0  0  0  0  0  0  0
  149.9972  138.2948  152.9621 H   0  0  0  0  0  0  0  0  0  0  0  0
  150.5644  141.0957  159.3022 H   0  0  0  0  0  0  0  0  0  0  0  0
  152.0001  140.7337  158.3417 H   0  0  0  0  0  0  0  0  0  0  0  0
  150.9716  145.7235  157.8677 H   0  0  0  0  0  0  0  0  0  0  0  0
  150.2659  144.7283  159.1305 H   0  0  0  0  0  0  0  0  0  0  0  0
  151.4337  145.7555  160.5281 H   0  0  0  0  0  0  0  0  0  0  0  0
  148.4429  142.3865  156.0848 H   0  0  0  0  0  0  0  0  0  0  0  0
  1  2  1  0  0  0  0
  1 19  1  0  0  0  0
  1 20  1  0  0  0  0
  2 15  1  0  0  0  0
  2  3  2  0  0  0  0
  3  4  1  0  0  0  0
  4  5  2  0  0  0  0
  4  6  1  0  0  0  0
  6  7  1  0  0  0  0
  6 14  1  0  0  0  0
  7 17  1  0  0  0  0
  7 13  1  0  0  0  0
  7  8  1  0  0  0  0
  8  9  1  0  0  0  0
  8 21  1  0  0  0  0
  8 22  1  0  0  0  0
  9 10  1  0  0  0  0
 10 18  1  0  0  0  0
 10 11  1  0  0  0  0
 10 13  1  0  0  0  0
 11 12  1  0  0  0  0
 11 23  1  0  0  0  0
 11 24  1  0  0  0  0
 12 25  1  0  0  0  0
 14 15  2  0  0  0  0
 14 26  1  0  0  0  0
 15 16  1  0  0  0  0
M  END
> <s_m_source_file>
AV-unprocessed.smi

> <i_m_source_file_index>
41

> <i_lp_mmshare_version>
43012

> <i_f3d_flags>
0

> <s_epik_input>
W05IMl1jMW5jKD1PKW4oW2NIXWMxRilbQ0BASF0yW0NIMl1TW0NAQEhdKE8yKVtDSDJdW09IXQ==

> <s_epik_cmdline>
J2VwaWtfcHl0aG9uJywgJy1waCcsICc3LjAnLCAnLXRuJywgJzgnLCAnLW1hJywgJzIwMCcsICctbWV0YWxfYmluZGluZycsICctaW1hZScsICc8aW5maWxlLm1hZT4nLCAnLW9tYWUnLCAnPG91dGZpbGUubWFlPic=

> <r_lp_tautomer_probability>
1

> <r_epik_Ionization_Penalty>
0.000101883

> <r_epik_Ionization_Penalty_Charging>
1.48607e-08

> <r_epik_Ionization_Penalty_Neutral>
0.000101868

> <r_epik_State_Penalty>
-0

> <r_epik_Charging_Adjusted_Penalty>
1.48607e-08

> <i_epik_Tot_Q>
0

> <i_epik_Tot_abs_Q>
0

> <r_epik_Metal_State_Penalty>
-0

> <b_epik_Metal_Only>
0

> <s_epik_Chemistry_Notes>
This compound contains an acetal/aminal-like group ( X-CH(R)-Y where X, Y are N, S, or O) that may be acid/base labile, releasing an aldehyde.

> <s_lp_Force_Field>
OPLS_2005

> <r_lp_Energy>
13.4753

> <b_lp_Chiralities_Consistent>
1

> <s_lp_Variant>
AV-unprocessed.smi:41-2

> <Gold.Version>
5.8.1

> <Gold.Id.Protein>
6NUR|6NUR_protein|mol2

> <Gold.PLP.Fitness>
38.9216

> <Gold.PLP.PLP>
-33.6043

> <Gold.PLP.part.hbond>
-4.2199

> <Gold.PLP.part.metal>
0.0000

> <Gold.PLP.part.buried>
-0.4768

> <Gold.PLP.part.nonpolar>
-29.1722

> <Gold.PLP.part.repulsive>
0.2849

> <Gold.PLP.ligand.clash>
0.0000

> <Gold.PLP.ligand.torsion>
0.5341

> <Gold.PLP.Chemscore.Hbond>
1.2800

> <Gold.PLP.Chemscore.CHOScore>
0.8320

> <Gold.PLP.Chemscore.Metal>
0.0000

> <Gold.Chemscore.Hbonds>
donor molecule, donor type, donor heavy atom, donor atom, acceptor molecule, acceptor atom, score
      P1  H  7989  7998       L1     3  0.28
      P1  H  7997  8010       L1     5  1.00
      L1  C    14    26       P1  8028  0.80

> <Gold.PLP.Chemscore.Internal.Correction>
0.0496

> <Gold.Rescore>
     Score         DG    S(hbond)    S(metal)    S(lipo)     H(rot)  DE(clash)    DE(int)     intcor
      7.44      -9.23       0.97        0.00      52.34       2.19       0.08       1.71       ----

> <Gold.Chemscore.Fitness>
7.4380

> <Gold.Chemscore.DG>
-9.2294

> <Gold.Chemscore.ZeroCoef>
-5.4800

> <Gold.Chemscore.Hbond>
0.9697

> <Gold.Chemscore.Metal>
0.0000

> <Gold.Chemscore.Lipo>
52.3449

> <Gold.Chemscore.Internal_Hbond>
0.0000

> <Gold.Chemscore.DEClash>
0.0814

> <Gold.Chemscore.DEInternal>
1.7100

> <Gold.Chemscore.Rot>
2.1929

> <Gold.Chemscore.Internal.Correction>
   9.000000E+99

> <Gold.Chemscore.Hbonds>
donor molecule, donor type, donor heavy atom, donor atom, acceptor molecule, acceptor atom, score
      P1  H  7997  8010       L1     5  0.94

> <Gold.Chemscore.Hbond.Weighted>
-3.2387

> <Gold.Chemscore.Metal.Weighted>
-0.0000

> <Gold.Chemscore.Lipo.Weighted>
-6.1244

> <Gold.Chemscore.Internal_Hbond.Weighted>
0.0000

> <Gold.Chemscore.DEClash.Weighted>
0.0814

> <Gold.Chemscore.DEInternal.Weighted>
1.7100

> <Gold.Chemscore.Rot.Weighted>
5.6137

> <Gold.Chemscore.Internal.Correction.Weighted>
   9.000000E+99

> <Gold.Protein.RotatedTorsions>
[ 6907 6896 6895 6894 ] final -108.80 input  -60.11 | X-H torsion
[ 7974 7965 7964 7962 ] final   38.16 input  175.53 | X-H torsion
[ 8008 7997 7996 7995 ] final   73.30 input   59.86 | X-H torsion
[ 10167 10162 10161 10158 ] final  -22.85 input  -65.29 | X-H torsion
[ 10718 10713 10712 10709 ] final   88.07 input   66.30 | X-H torsion
[ 10763 10752 10751 10750 ] final -102.63 input  -60.55 | X-H torsion
[ 11005 11000 10999 10996 ] final  -77.88 input  -57.11 | X-H torsion

> <Gold.Protein.ActiveResidues>
 VAL166  LYS551  ARG553  GLY616  TRP617  ASP618  TYR619  PRO620  LYS621  CYS622 
 ASP623  PHE694  ASN695  SER759  ASP760  ASP761  ALA762  ILE779  LEU786  VAL792 
 PHE793  MET794  SER795  GLU796  ALA797  LYS798  CYS799  TRP800  GLU811  SER814 

> <Gold.Protein.RotatedAtoms>
  150.7523  133.9624  159.3519 H   0  0  0  0  0  0  0  0  0  0  0  0  # atno 6907 bound_to 6896
  151.7551  135.0821  160.0346 H   0  0  0  0  0  0  0  0  0  0  0  0  # atno 6908 bound_to 6896
  152.3441  133.6064  159.5933 H   0  0  0  0  0  0  0  0  0  0  0  0  # atno 6909 bound_to 6896
  146.1083  139.5806  142.9369 H   0  0  0  0  0  0  0  0  0  0  0  0  # atno 7974 bound_to 7965
  155.7816  140.3481  155.5301 H   0  0  0  0  0  0  0  0  0  0  0  0  # atno 8008 bound_to 7997
  155.8722  140.0988  157.1563 H   0  0  0  0  0  0  0  0  0  0  0  0  # atno 8009 bound_to 7997
  154.4018  140.1338  156.4080 H   0  0  0  0  0  0  0  0  0  0  0  0  # atno 8010 bound_to 7997
  140.7287  143.4497  151.0534 H   0  0  0  0  0  0  0  0  0  0  0  0  # atno 10167 bound_to 10162
  157.6946  131.0280  150.3219 H   0  0  0  0  0  0  0  0  0  0  0  0  # atno 10718 bound_to 10713
  154.7748  135.4853  153.9722 H   0  0  0  0  0  0  0  0  0  0  0  0  # atno 10763 bound_to 10752
  153.1414  135.6773  153.9028 H   0  0  0  0  0  0  0  0  0  0  0  0  # atno 10764 bound_to 10752
  153.8701  135.3144  155.3420 H   0  0  0  0  0  0  0  0  0  0  0  0  # atno 10765 bound_to 10752
  141.1662  133.7040  156.7888 H   0  0  0  0  0  0  0  0  0  0  0  0  # atno 11005 bound_to 11000
  145.5716  141.0393  143.2171 LP  0  0  0  0  0  0  0  0  0  0  0  0  # atno 17320 bound_to 7965
  144.7489  139.7245  143.7281 LP  0  0  0  0  0  0  0  0  0  0  0  0  # atno 17321 bound_to 7965
  139.8172  143.7869  152.3175 LP  0  0  0  0  0  0  0  0  0  0  0  0  # atno 17342 bound_to 10162
  139.7939  144.7400  150.9916 LP  0  0  0  0  0  0  0  0  0  0  0  0  # atno 17343 bound_to 10162
  156.3705  130.3862  149.7179 LP  0  0  0  0  0  0  0  0  0  0  0  0  # atno 17370 bound_to 10713
  156.4595  130.7945  151.2965 LP  0  0  0  0  0  0  0  0  0  0  0  0  # atno 17371 bound_to 10713
  140.2340  134.8664  157.3506 LP  0  0  0  0  0  0  0  0  0  0  0  0  # atno 17394 bound_to 11000
  140.1862  134.4428  155.7742 LP  0  0  0  0  0  0  0  0  0  0  0  0  # atno 17395 bound_to 11000

$$$$
