AV-unprocessed.smi:2421|AV-procd|sdf|9555|dock8
  -GOLD-   2272013183D 1   1.00000     0.00000
 Structure written by MMmdl.
 44 46  0  0  0  0  0  0  0  0  1 V2000
  147.8002  132.2974  153.0903 C   0  0  0  0  0  0  0  0  0  0  0  0
  148.8565  132.4114  154.1510 C   0  0  0  0  0  0  0  0  0  0  0  0
  149.2687  131.3334  154.8010 N   0  0  0  0  0  0  0  0  0  0  0  0
  150.2539  131.7656  155.7057 O   0  0  0  0  0  0  0  0  0  0  0  0
  150.4146  133.1103  155.5769 C   0  0  0  0  0  0  0  0  0  0  0  0
  151.4284  133.7665  156.4511 C   0  0  0  0  0  0  0  0  0  0  0  0
  149.5512  133.5552  154.6213 C   0  0  0  0  0  0  0  0  0  0  0  0
  149.4111  134.8799  154.1592 N   0  0  0  0  0  0  0  0  0  0  0  0
  149.4145  135.9582  154.9600 C   0  0  0  0  0  0  0  0  0  0  0  0
  149.6220  135.9032  156.1710 O   0  0  0  0  0  0  0  0  0  0  0  0
  149.1824  137.1252  154.3322 N   0  0  0  0  0  0  0  0  0  0  0  0
  149.1209  138.4683  154.9128 C   0  0  2  0  0  0  0  0  0  0  0  0
  148.8005  139.4928  153.8176 C   0  0  0  0  0  0  0  0  0  0  0  0
  148.8186  140.9166  154.3914 C   0  0  0  0  0  0  0  0  0  0  0  0
  150.0703  141.1913  155.0180 O   0  0  0  0  0  0  0  0  0  0  0  0
  150.4522  140.3064  156.0779 C   0  0  0  0  0  0  0  0  0  0  0  0
  149.6069  140.5339  157.3441 C   0  0  0  0  0  0  0  0  0  0  0  0
  150.1416  141.8325  157.9549 C   0  0  0  0  0  0  0  0  0  0  0  0
  151.5912  141.9633  157.4665 C   0  0  0  0  0  0  0  0  0  0  0  0
  151.8399  140.7658  156.5412 C   0  0  0  0  0  0  0  0  0  0  0  0
  150.4593  138.8483  155.5699 C   0  0  0  0  0  0  0  0  0  0  0  0
  147.5466  133.2731  152.6753 H   0  0  0  0  0  0  0  0  0  0  0  0
  146.8856  131.8626  153.4938 H   0  0  0  0  0  0  0  0  0  0  0  0
  148.1370  131.6657  152.2680 H   0  0  0  0  0  0  0  0  0  0  0  0
  151.4305  134.8469  156.3047 H   0  0  0  0  0  0  0  0  0  0  0  0
  152.4281  133.3929  156.2300 H   0  0  0  0  0  0  0  0  0  0  0  0
  151.2168  133.5693  157.5019 H   0  0  0  0  0  0  0  0  0  0  0  0
  149.2505  135.0120  153.1712 H   0  0  0  0  0  0  0  0  0  0  0  0
  149.0608  137.0768  153.3308 H   0  0  0  0  0  0  0  0  0  0  0  0
  148.3223  138.5081  155.6556 H   0  0  0  0  0  0  0  0  0  0  0  0
  149.5333  139.4205  153.0124 H   0  0  0  0  0  0  0  0  0  0  0  0
  147.8264  139.2835  153.3739 H   0  0  0  0  0  0  0  0  0  0  0  0
  148.6713  141.6398  153.5892 H   0  0  0  0  0  0  0  0  0  0  0  0
  147.9944  141.0636  155.0884 H   0  0  0  0  0  0  0  0  0  0  0  0
  148.5323  140.5667  157.1703 H   0  0  0  0  0  0  0  0  0  0  0  0
  149.7838  139.7183  158.0468 H   0  0  0  0  0  0  0  0  0  0  0  0
  149.5560  142.6804  157.5976 H   0  0  0  0  0  0  0  0  0  0  0  0
  150.0728  141.8227  159.0431 H   0  0  0  0  0  0  0  0  0  0  0  0
  151.7128  142.8972  156.9162 H   0  0  0  0  0  0  0  0  0  0  0  0
  152.3007  141.9774  158.2946 H   0  0  0  0  0  0  0  0  0  0  0  0
  152.3186  139.9698  157.1137 H   0  0  0  0  0  0  0  0  0  0  0  0
  152.5032  141.0103  155.7105 H   0  0  0  0  0  0  0  0  0  0  0  0
  150.6943  138.1666  156.3882 H   0  0  0  0  0  0  0  0  0  0  0  0
  151.2610  138.7315  154.8388 H   0  0  0  0  0  0  0  0  0  0  0  0
  1  2  1  0  0  0  0
  1 22  1  0  0  0  0
  1 23  1  0  0  0  0
  1 24  1  0  0  0  0
  2  7  1  0  0  0  0
  2  3  2  0  0  0  0
  3  4  1  0  0  0  0
  4  5  1  0  0  0  0
  5  6  1  0  0  0  0
  5  7  2  0  0  0  0
  6 25  1  0  0  0  0
  6 26  1  0  0  0  0
  6 27  1  0  0  0  0
  7  8  1  0  0  0  0
  8  9  1  0  0  0  0
  8 28  1  0  0  0  0
  9 10  2  0  0  0  0
  9 11  1  0  0  0  0
 11 12  1  0  0  0  0
 11 29  1  0  0  0  0
 12 21  1  0  0  0  0
 12 13  1  0  0  0  0
 12 30  1  0  0  0  0
 13 14  1  0  0  0  0
 13 31  1  0  0  0  0
 13 32  1  0  0  0  0
 14 15  1  0  0  0  0
 14 33  1  0  0  0  0
 14 34  1  0  0  0  0
 15 16  1  0  0  0  0
 16 20  1  0  0  0  0
 16 17  1  0  0  0  0
 16 21  1  0  0  0  0
 17 18  1  0  0  0  0
 17 35  1  0  0  0  0
 17 36  1  0  0  0  0
 18 19  1  0  0  0  0
 18 37  1  0  0  0  0
 18 38  1  0  0  0  0
 19 20  1  0  0  0  0
 19 39  1  0  0  0  0
 19 40  1  0  0  0  0
 20 41  1  0  0  0  0
 20 42  1  0  0  0  0
 21 43  1  0  0  0  0
 21 44  1  0  0  0  0
M  END
> <s_m_source_file>
AV-unprocessed.smi

> <i_m_source_file_index>
2421

> <i_lp_mmshare_version>
43012

> <i_f3d_flags>
0

> <s_epik_input>
W0NIM11jMW5vYyhbQ0gzXSljMVtOSF1DKD1PKVtOSF1bQ0BASF0oW0NIMl0yKVtDSDJdW0NIMl1PQzIzW0NIMl1bQ0gyXVtDSDJdW0NIMl0z

> <s_epik_cmdline>
J2VwaWtfcHl0aG9uJywgJy1waCcsICc3LjAnLCAnLXRuJywgJzgnLCAnLW1hJywgJzIwMCcsICctbWV0YWxfYmluZGluZycsICctaW1hZScsICc8aW5maWxlLm1hZT4nLCAnLW9tYWUnLCAnPG91dGZpbGUubWFlPic=

> <r_lp_tautomer_probability>
1

> <r_epik_Ionization_Penalty>
3.59808e-05

> <r_epik_Ionization_Penalty_Charging>
0

> <r_epik_Ionization_Penalty_Neutral>
3.59808e-05

> <r_epik_State_Penalty>
-0

> <r_epik_Charging_Adjusted_Penalty>
0

> <i_epik_Tot_Q>
0

> <i_epik_Tot_abs_Q>
0

> <r_epik_Metal_State_Penalty>
-0

> <b_epik_Metal_Only>
0

> <s_lp_Force_Field>
OPLS_2005

> <r_lp_Energy>
43.4187

> <b_lp_Chiralities_Consistent>
1

> <s_lp_Variant>
AV-unprocessed.smi:2421-1

> <Gold.Version>
5.8.1

> <Gold.Id.Protein>
6NUR|6NUR_protein|mol2

> <Gold.PLP.Fitness>
33.9498

> <Gold.PLP.PLP>
-27.8178

> <Gold.PLP.part.hbond>
-3.0000

> <Gold.PLP.part.metal>
0.0000

> <Gold.PLP.part.buried>
-0.7693

> <Gold.PLP.part.nonpolar>
-23.0170

> <Gold.PLP.part.repulsive>
0.1885

> <Gold.PLP.ligand.clash>
0.0000

> <Gold.PLP.ligand.torsion>
0.3220

> <Gold.PLP.Chemscore.Hbond>
2.0912

> <Gold.PLP.Chemscore.CHOScore>
0.0000

> <Gold.PLP.Chemscore.Metal>
0.0000

> <Gold.Chemscore.Hbonds>
donor molecule, donor type, donor heavy atom, donor atom, acceptor molecule, acceptor atom, score
      L1  H     8    28       P1  7948  0.56
      L1  H    11    29       P1  7948  1.00
      P1  H  7989  7998       L1    15  0.38

> <Gold.PLP.Chemscore.Internal.Correction>
0.5025

> <Gold.Rescore>
     Score         DG    S(hbond)    S(metal)    S(lipo)     H(rot)  DE(clash)    DE(int)     intcor
     14.26     -17.00       1.76        0.00      70.18       1.00       0.04       2.70       ----

> <Gold.Chemscore.Fitness>
14.2589

> <Gold.Chemscore.DG>
-16.9996

> <Gold.Chemscore.ZeroCoef>
-5.4800

> <Gold.Chemscore.Hbond>
1.7571

> <Gold.Chemscore.Metal>
0.0000

> <Gold.Chemscore.Lipo>
70.1770

> <Gold.Chemscore.Internal_Hbond>
0.0000

> <Gold.Chemscore.DEClash>
0.0373

> <Gold.Chemscore.DEInternal>
2.7033

> <Gold.Chemscore.Rot>
1.0000

> <Gold.Chemscore.Internal.Correction>
   9.000000E+99

> <Gold.Chemscore.Hbonds>
donor molecule, donor type, donor heavy atom, donor atom, acceptor molecule, acceptor atom, score
      L1  H     8    28       P1  7948  0.04
      L1  H    11    29       P1  7948  0.97
      P1  H  7989  7998       L1    15  0.10

> <Gold.Chemscore.Hbond.Weighted>
-5.8688

> <Gold.Chemscore.Metal.Weighted>
-0.0000

> <Gold.Chemscore.Lipo.Weighted>
-8.2107

> <Gold.Chemscore.Internal_Hbond.Weighted>
0.0000

> <Gold.Chemscore.DEClash.Weighted>
0.0373

> <Gold.Chemscore.DEInternal.Weighted>
2.7033

> <Gold.Chemscore.Rot.Weighted>
2.5600

> <Gold.Chemscore.Internal.Correction.Weighted>
   9.000000E+99

> <Gold.Protein.RotatedTorsions>
[ 6907 6896 6895 6894 ] final   28.20 input  -60.11 | X-H torsion
[ 7974 7965 7964 7962 ] final  -39.25 input  175.53 | X-H torsion
[ 8008 7997 7996 7995 ] final   -3.51 input   59.86 | X-H torsion
[ 10167 10162 10161 10158 ] final  -21.36 input  -65.29 | X-H torsion
[ 10718 10713 10712 10709 ] final   59.25 input   66.30 | X-H torsion
[ 10763 10752 10751 10750 ] final  159.78 input  -60.55 | X-H torsion
[ 11005 11000 10999 10996 ] final  143.48 input  -57.11 | X-H torsion

> <Gold.Protein.ActiveResidues>
 VAL166  LYS551  ARG553  GLY616  TRP617  ASP618  TYR619  PRO620  LYS621  CYS622 
 ASP623  PHE694  ASN695  SER759  ASP760  ASP761  ALA762  ILE779  LEU786  VAL792 
 PHE793  MET794  SER795  GLU796  ALA797  LYS798  CYS799  TRP800  GLU811  SER814 

> <Gold.Protein.RotatedAtoms>
  152.0134  134.9863  160.0568 H   0  0  0  0  0  0  0  0  0  0  0  0  # atno 6907 bound_to 6896
  152.1407  133.4457  159.4773 H   0  0  0  0  0  0  0  0  0  0  0  0  # atno 6908 bound_to 6896
  150.6865  134.2227  159.4446 H   0  0  0  0  0  0  0  0  0  0  0  0  # atno 6909 bound_to 6896
  146.0413  140.6604  142.9085 H   0  0  0  0  0  0  0  0  0  0  0  0  # atno 7974 bound_to 7965
  154.6241  140.2507  155.7513 H   0  0  0  0  0  0  0  0  0  0  0  0  # atno 8008 bound_to 7997
  156.2443  140.2920  156.0482 H   0  0  0  0  0  0  0  0  0  0  0  0  # atno 8009 bound_to 7997
  155.1850  140.0390  157.2880 H   0  0  0  0  0  0  0  0  0  0  0  0  # atno 8010 bound_to 7997
  140.7281  143.4636  151.0345 H   0  0  0  0  0  0  0  0  0  0  0  0  # atno 10167 bound_to 10162
  157.5661  130.8872  149.9189 H   0  0  0  0  0  0  0  0  0  0  0  0  # atno 10718 bound_to 10713
  154.2372  135.2776  155.2867 H   0  0  0  0  0  0  0  0  0  0  0  0  # atno 10763 bound_to 10752
  154.5575  135.5657  153.6981 H   0  0  0  0  0  0  0  0  0  0  0  0  # atno 10764 bound_to 10752
  153.0007  135.6289  154.2515 H   0  0  0  0  0  0  0  0  0  0  0  0  # atno 10765 bound_to 10752
  140.0557  134.9232  157.1096 H   0  0  0  0  0  0  0  0  0  0  0  0  # atno 11005 bound_to 11000
  144.7076  140.3914  143.7106 LP  0  0  0  0  0  0  0  0  0  0  0  0  # atno 17320 bound_to 7965
  145.6879  139.1632  143.2663 LP  0  0  0  0  0  0  0  0  0  0  0  0  # atno 17321 bound_to 7965
  139.8322  143.7676  152.3180 LP  0  0  0  0  0  0  0  0  0  0  0  0  # atno 17342 bound_to 10162
  139.7795  144.7449  151.0108 LP  0  0  0  0  0  0  0  0  0  0  0  0  # atno 17343 bound_to 10162
  156.0709  130.3685  150.0778 LP  0  0  0  0  0  0  0  0  0  0  0  0  # atno 17370 bound_to 10713
  156.8936  130.9597  151.3585 LP  0  0  0  0  0  0  0  0  0  0  0  0  # atno 17371 bound_to 10713
  140.3848  134.2248  155.7169 LP  0  0  0  0  0  0  0  0  0  0  0  0  # atno 17394 bound_to 11000
  141.1951  133.8114  157.0730 LP  0  0  0  0  0  0  0  0  0  0  0  0  # atno 17395 bound_to 11000

$$$$
