AV-unprocessed.smi:1027|AV-procd|sdf|4471|dock1
  -GOLD-   22720 2443D 1   1.00000     0.00000
 Structure written by MMmdl.
 34 35  0  0  0  0  0  0  0  0  2 V2000
  154.2382  140.8087  161.5451 C   0  0  0  0  0  0  0  0  0  0  0  0
  153.6739  142.1213  160.9716 C   0  0  0  0  0  0  0  0  0  0  0  0
  152.5750  142.6589  161.9095 C   0  0  0  0  0  0  0  0  0  0  0  0
  153.1728  141.9631  159.5114 C   0  0  2  0  0  0  0  0  0  0  0  0
  152.4810  143.2260  158.9636 C   0  0  0  0  0  0  0  0  0  0  0  0
  152.2423  140.8372  159.4183 N   0  0  0  0  0  0  0  0  0  0  0  0
  152.4167  139.7143  158.7056 C   0  0  0  0  0  0  0  0  0  0  0  0
  153.4376  139.5636  158.0304 O   0  0  0  0  0  0  0  0  0  0  0  0
  151.3960  138.8342  158.8211 N   0  5  0  0  0  0  0  0  0  0  0  0
  151.3491  137.7527  158.0257 C   0  0  0  0  0  0  0  0  0  0  0  0
  152.4136  137.3226  157.3341 N   0  0  0  0  0  0  0  0  0  0  0  0
  152.1491  136.1919  156.5750 N   0  0  0  0  0  0  0  0  0  0  0  0
  150.8827  135.7874  156.6981 C   0  0  0  0  0  0  0  0  0  0  0  0
  150.3534  134.5892  155.9834 C   0  0  0  0  0  0  0  0  0  0  0  0
  149.6276  133.4843  156.7199 C   0  0  0  0  0  0  0  0  0  0  0  0
  151.0040  133.2360  156.1579 C   0  0  0  0  0  0  0  0  0  0  0  0
  149.9012  136.7811  157.7631 S   0  0  0  0  0  0  0  0  0  0  0  0
  153.4961  140.0106  161.5112 H   0  0  0  0  0  0  0  0  0  0  0  0
  154.5419  140.9337  162.5849 H   0  0  0  0  0  0  0  0  0  0  0  0
  155.1191  140.4726  160.9995 H   0  0  0  0  0  0  0  0  0  0  0  0
  154.4844  142.8518  160.9730 H   0  0  0  0  0  0  0  0  0  0  0  0
  151.7078  141.9979  161.9194 H   0  0  0  0  0  0  0  0  0  0  0  0
  152.2335  143.6506  161.6121 H   0  0  0  0  0  0  0  0  0  0  0  0
  152.9391  142.7434  162.9337 H   0  0  0  0  0  0  0  0  0  0  0  0
  154.0416  141.7522  158.8851 H   0  0  0  0  0  0  0  0  0  0  0  0
  153.1696  144.0673  158.8946 H   0  0  0  0  0  0  0  0  0  0  0  0
  151.6446  143.5258  159.5956 H   0  0  0  0  0  0  0  0  0  0  0  0
  152.0917  143.0570  157.9590 H   0  0  0  0  0  0  0  0  0  0  0  0
  151.3888  140.9122  159.9520 H   0  0  0  0  0  0  0  0  0  0  0  0
  149.9961  134.8598  154.9918 H   0  0  0  0  0  0  0  0  0  0  0  0
  149.5390  133.5580  157.8020 H   0  0  0  0  0  0  0  0  0  0  0  0
  148.7864  133.0143  156.2149 H   0  0  0  0  0  0  0  0  0  0  0  0
  151.0823  132.6001  155.2785 H   0  0  0  0  0  0  0  0  0  0  0  0
  151.8278  133.1591  156.8648 H   0  0  0  0  0  0  0  0  0  0  0  0
  1  2  1  0  0  0  0
  1 18  1  0  0  0  0
  1 19  1  0  0  0  0
  1 20  1  0  0  0  0
  2  3  1  0  0  0  0
  2  4  1  0  0  0  0
  2 21  1  0  0  0  0
  3 22  1  0  0  0  0
  3 23  1  0  0  0  0
  3 24  1  0  0  0  0
  4  5  1  0  0  0  0
  4  6  1  0  0  0  0
  4 25  1  0  0  0  0
  5 26  1  0  0  0  0
  5 27  1  0  0  0  0
  5 28  1  0  0  0  0
  6  7  1  0  0  0  0
  6 29  1  0  0  0  0
  7  8  2  0  0  0  0
  7  9  1  0  0  0  0
  9 10  1  0  0  0  0
 10 17  1  0  0  0  0
 10 11  2  0  0  0  0
 11 12  1  0  0  0  0
 12 13  2  0  0  0  0
 13 14  1  0  0  0  0
 13 17  1  0  0  0  0
 14 16  1  0  0  0  0
 14 15  1  0  0  0  0
 14 30  1  0  0  0  0
 15 16  1  0  0  0  0
 15 31  1  0  0  0  0
 15 32  1  0  0  0  0
 16 33  1  0  0  0  0
 16 34  1  0  0  0  0
M  CHG  1   9  -1
M  END
> <s_m_source_file>
AV-unprocessed.smi

> <i_m_source_file_index>
1027

> <i_lp_mmshare_version>
43012

> <i_f3d_flags>
0

> <s_epik_input>
W0NIM11bQ0hdKFtDSDNdKVtDQEhdKFtDSDNdKVtOSF1DKD1PKVtOSF1jMW5uYyhzMSlbQ0hdMltDSDJdW0NIMl0y

> <s_epik_cmdline>
J2VwaWtfcHl0aG9uJywgJy1waCcsICc3LjAnLCAnLXRuJywgJzgnLCAnLW1hJywgJzIwMCcsICctbWV0YWxfYmluZGluZycsICctaW1hZScsICc8aW5maWxlLm1hZT4nLCAnLW9tYWUnLCAnPG91dGZpbGUubWFlPic=

> <r_lp_tautomer_probability>
1

> <r_epik_Ionization_Penalty>
3.99975

> <r_epik_Ionization_Penalty_Charging>
3.83446

> <r_epik_Ionization_Penalty_Neutral>
0.165297

> <r_epik_State_Penalty>
3.83354

> <r_epik_Charging_Adjusted_Penalty>
7.668

> <i_epik_Tot_Q>
-1

> <i_epik_Tot_abs_Q>
1

> <r_epik_Metal_State_Penalty>
0.575872

> <b_epik_Metal_Only>
1

> <s_lp_Force_Field>
OPLS_2005

> <r_lp_Energy>
2.28672

> <b_lp_Chiralities_Consistent>
1

> <s_lp_Variant>
AV-unprocessed.smi:1027-3

> <Gold.Version>
5.8.1

> <Gold.Id.Protein>
6NUR|6NUR_protein|mol2

> <Gold.PLP.Fitness>
35.5054

> <Gold.PLP.PLP>
-29.7720

> <Gold.PLP.part.hbond>
-2.0000

> <Gold.PLP.part.metal>
0.0000

> <Gold.PLP.part.buried>
-3.5849

> <Gold.PLP.part.nonpolar>
-23.6301

> <Gold.PLP.part.repulsive>
0.1439

> <Gold.PLP.ligand.clash>
0.0000

> <Gold.PLP.ligand.torsion>
0.2336

> <Gold.PLP.Chemscore.Hbond>
2.0000

> <Gold.PLP.Chemscore.CHOScore>
0.0000

> <Gold.PLP.Chemscore.Metal>
0.0000

> <Gold.Chemscore.Hbonds>
donor molecule, donor type, donor heavy atom, donor atom, acceptor molecule, acceptor atom, score
      P1  H  7997  8008       L1     8  1.00
      P1  H 10752 10763       L1    12  1.00

> <Gold.PLP.Chemscore.Internal.Correction>
0.2007

> <Gold.Rescore>
     Score         DG    S(hbond)    S(metal)    S(lipo)     H(rot)  DE(clash)    DE(int)     intcor
     15.40     -17.31       1.98        0.00      74.35       1.36       0.00       1.91       ----

> <Gold.Chemscore.Fitness>
15.3985

> <Gold.Chemscore.DG>
-17.3122

> <Gold.Chemscore.ZeroCoef>
-5.4800

> <Gold.Chemscore.Hbond>
1.9820

> <Gold.Chemscore.Metal>
0.0000

> <Gold.Chemscore.Lipo>
74.3475

> <Gold.Chemscore.Internal_Hbond>
0.0000

> <Gold.Chemscore.DEClash>
0.0029

> <Gold.Chemscore.DEInternal>
1.9108

> <Gold.Chemscore.Rot>
1.3618

> <Gold.Chemscore.Internal.Correction>
   9.000000E+99

> <Gold.Chemscore.Hbonds>
donor molecule, donor type, donor heavy atom, donor atom, acceptor molecule, acceptor atom, score
      P1  H  7997  8008       L1     8  0.97
      P1  H 10752 10763       L1    12  0.96

> <Gold.Chemscore.Hbond.Weighted>
-6.6198

> <Gold.Chemscore.Metal.Weighted>
-0.0000

> <Gold.Chemscore.Lipo.Weighted>
-8.6987

> <Gold.Chemscore.Internal_Hbond.Weighted>
0.0000

> <Gold.Chemscore.DEClash.Weighted>
0.0029

> <Gold.Chemscore.DEInternal.Weighted>
1.9108

> <Gold.Chemscore.Rot.Weighted>
3.4863

> <Gold.Chemscore.Internal.Correction.Weighted>
   9.000000E+99

> <Gold.Protein.RotatedTorsions>
[ 6907 6896 6895 6894 ] final   -4.27 input  -60.11 | X-H torsion
[ 7974 7965 7964 7962 ] final  128.26 input  175.53 | X-H torsion
[ 8008 7997 7996 7995 ] final -101.42 input   59.86 | X-H torsion
[ 10167 10162 10161 10158 ] final  115.66 input  -65.29 | X-H torsion
[ 10718 10713 10712 10709 ] final -144.73 input   66.30 | X-H torsion
[ 10763 10752 10751 10750 ] final   96.56 input  -60.55 | X-H torsion
[ 11005 11000 10999 10996 ] final   63.07 input  -57.11 | X-H torsion

> <Gold.Protein.ActiveResidues>
 VAL166  LYS551  ARG553  GLY616  TRP617  ASP618  TYR619  PRO620  LYS621  CYS622 
 ASP623  PHE694  ASN695  SER759  ASP760  ASP761  ALA762  ILE779  LEU786  VAL792 
 PHE793  MET794  SER795  GLU796  ALA797  LYS798  CYS799  TRP800  GLU811  SER814 

> <Gold.Protein.RotatedAtoms>
  151.5003  135.1061  159.9826 H   0  0  0  0  0  0  0  0  0  0  0  0  # atno 6907 bound_to 6896
  152.4704  133.8013  159.6965 H   0  0  0  0  0  0  0  0  0  0  0  0  # atno 6908 bound_to 6896
  150.8710  133.7442  159.2987 H   0  0  0  0  0  0  0  0  0  0  0  0  # atno 6909 bound_to 6896
  145.0415  139.3959  143.5100 H   0  0  0  0  0  0  0  0  0  0  0  0  # atno 7974 bound_to 7965
  154.8423  140.0434  157.1549 H   0  0  0  0  0  0  0  0  0  0  0  0  # atno 8008 bound_to 7997
  154.9034  140.3003  155.5285 H   0  0  0  0  0  0  0  0  0  0  0  0  # atno 8009 bound_to 7997
  156.2993  140.2371  156.4064 H   0  0  0  0  0  0  0  0  0  0  0  0  # atno 8010 bound_to 7997
  139.6302  144.7114  151.2449 H   0  0  0  0  0  0  0  0  0  0  0  0  # atno 10167 bound_to 10162
  156.3737  130.7801  151.1985 H   0  0  0  0  0  0  0  0  0  0  0  0  # atno 10718 bound_to 10713
  153.2664  135.4214  155.0944 H   0  0  0  0  0  0  0  0  0  0  0  0  # atno 10763 bound_to 10752
  154.8439  135.3461  154.6306 H   0  0  0  0  0  0  0  0  0  0  0  0  # atno 10764 bound_to 10752
  153.6726  135.7043  153.5200 H   0  0  0  0  0  0  0  0  0  0  0  0  # atno 10765 bound_to 10752
  140.0049  134.6385  155.9871 H   0  0  0  0  0  0  0  0  0  0  0  0  # atno 11005 bound_to 11000
  146.3510  140.0018  142.8675 LP  0  0  0  0  0  0  0  0  0  0  0  0  # atno 17320 bound_to 7965
  145.1642  140.9688  143.4359 LP  0  0  0  0  0  0  0  0  0  0  0  0  # atno 17321 bound_to 7965
  140.7434  143.6495  150.8262 LP  0  0  0  0  0  0  0  0  0  0  0  0  # atno 17342 bound_to 10162
  140.0118  143.5634  152.2836 LP  0  0  0  0  0  0  0  0  0  0  0  0  # atno 17343 bound_to 10162
  157.7486  131.0364  150.4410 LP  0  0  0  0  0  0  0  0  0  0  0  0  # atno 17370 bound_to 10713
  156.4642  130.4038  149.6558 LP  0  0  0  0  0  0  0  0  0  0  0  0  # atno 17371 bound_to 10713
  141.1669  133.6537  156.4513 LP  0  0  0  0  0  0  0  0  0  0  0  0  # atno 17394 bound_to 11000
  140.4660  134.6798  157.5107 LP  0  0  0  0  0  0  0  0  0  0  0  0  # atno 17395 bound_to 11000

$$$$
