AV-unprocessed.smi:2810|AV-procd|sdf|10828|dock2
  -GOLD-   2272015263D 1   1.00000     0.00000
 Structure written by MMmdl.
 39 40  0  0  0  0  0  0  0  0  1 V2000
  154.8377  139.8388  161.3481 C   0  0  0  0  0  0  0  0  0  0  0  0
  153.7546  140.4849  160.5108 C   0  0  0  0  0  0  0  0  0  0  0  0
  153.1632  139.8105  159.4223 C   0  0  0  0  0  0  0  0  0  0  0  0
  152.1637  140.5101  158.7093 C   0  0  0  0  0  0  0  0  0  0  0  0
  151.5234  139.8989  157.6099 N   0  0  0  0  0  0  0  0  0  0  0  0
  151.7553  140.6750  156.3924 C   0  0  0  0  0  0  0  0  0  0  0  0
  150.9442  140.1127  155.2175 C   0  0  0  0  0  0  0  0  0  0  0  0
  151.2743  138.7431  155.0425 O   0  0  0  0  0  0  0  0  0  0  0  0
  150.9121  137.9727  156.1812 C   0  0  0  0  0  0  0  0  0  0  0  0
  151.6867  138.4423  157.4364 C   0  0  2  0  0  0  0  0  0  0  0  0
  151.2375  137.5545  158.6175 C   0  0  0  0  0  0  0  0  0  0  0  0
  149.9566  137.5973  158.9997 N   0  0  0  0  0  0  0  0  0  0  0  0
  152.0557  136.8382  159.1903 O   0  0  0  0  0  0  0  0  0  0  0  0
  151.7996  141.7612  159.0796 N   0  0  0  0  0  0  0  0  0  0  0  0
  152.4279  142.3100  160.1237 C   0  0  0  0  0  0  0  0  0  0  0  0
  152.0190  143.7266  160.5047 C   0  0  0  0  0  0  0  0  0  0  0  0
  152.3894  144.7443  159.4148 C   0  0  0  0  0  0  0  0  0  0  0  0
  152.5430  144.1182  161.8953 C   0  0  0  0  0  0  0  0  0  0  0  0
  153.3860  141.7366  160.8584 N   0  0  0  0  0  0  0  0  0  0  0  0
  155.1368  138.8769  160.9309 H   0  0  0  0  0  0  0  0  0  0  0  0
  154.4813  139.6737  162.3651 H   0  0  0  0  0  0  0  0  0  0  0  0
  155.7190  140.4793  161.3911 H   0  0  0  0  0  0  0  0  0  0  0  0
  153.4640  138.8108  159.1447 H   0  0  0  0  0  0  0  0  0  0  0  0
  151.4843  141.7213  156.5394 H   0  0  0  0  0  0  0  0  0  0  0  0
  152.8193  140.6537  156.1497 H   0  0  0  0  0  0  0  0  0  0  0  0
  149.8722  140.2289  155.3868 H   0  0  0  0  0  0  0  0  0  0  0  0
  151.1833  140.6547  154.3025 H   0  0  0  0  0  0  0  0  0  0  0  0
  149.8329  138.0377  156.3356 H   0  0  0  0  0  0  0  0  0  0  0  0
  151.1343  136.9270  155.9646 H   0  0  0  0  0  0  0  0  0  0  0  0
  152.7458  138.2437  157.2609 H   0  0  0  0  0  0  0  0  0  0  0  0
  149.6427  137.0218  159.7675 H   0  0  0  0  0  0  0  0  0  0  0  0
  149.3086  138.2023  158.5165 H   0  0  0  0  0  0  0  0  0  0  0  0
  150.9298  143.7390  160.5748 H   0  0  0  0  0  0  0  0  0  0  0  0
  151.9427  144.4723  158.4581 H   0  0  0  0  0  0  0  0  0  0  0  0
  153.4692  144.8029  159.2740 H   0  0  0  0  0  0  0  0  0  0  0  0
  152.0348  145.7424  159.6733 H   0  0  0  0  0  0  0  0  0  0  0  0
  152.2015  143.4137  162.6543 H   0  0  0  0  0  0  0  0  0  0  0  0
  152.1917  145.1095  162.1823 H   0  0  0  0  0  0  0  0  0  0  0  0
  153.6332  144.1329  161.9211 H   0  0  0  0  0  0  0  0  0  0  0  0
  1  2  1  0  0  0  0
  1 20  1  0  0  0  0
  1 21  1  0  0  0  0
  1 22  1  0  0  0  0
  2 19  1  0  0  0  0
  2  3  2  0  0  0  0
  3  4  1  0  0  0  0
  3 23  1  0  0  0  0
  4  5  1  0  0  0  0
  4 14  2  0  0  0  0
  5 10  1  0  0  0  0
  5  6  1  0  0  0  0
  6  7  1  0  0  0  0
  6 24  1  0  0  0  0
  6 25  1  0  0  0  0
  7  8  1  0  0  0  0
  7 26  1  0  0  0  0
  7 27  1  0  0  0  0
  8  9  1  0  0  0  0
  9 10  1  0  0  0  0
  9 28  1  0  0  0  0
  9 29  1  0  0  0  0
 10 11  1  0  0  0  0
 10 30  1  0  0  0  0
 11 12  1  0  0  0  0
 11 13  2  0  0  0  0
 12 31  1  0  0  0  0
 12 32  1  0  0  0  0
 14 15  1  0  0  0  0
 15 16  1  0  0  0  0
 15 19  2  0  0  0  0
 16 17  1  0  0  0  0
 16 18  1  0  0  0  0
 16 33  1  0  0  0  0
 17 34  1  0  0  0  0
 17 35  1  0  0  0  0
 17 36  1  0  0  0  0
 18 37  1  0  0  0  0
 18 38  1  0  0  0  0
 18 39  1  0  0  0  0
M  END
> <s_m_source_file>
AV-unprocessed.smi

> <i_m_source_file_index>
2810

> <i_lp_mmshare_version>
43012

> <i_f3d_flags>
0

> <s_epik_input>
W0NIM11bQ0hdKFtDSDNdKWMobjEpbmMoW2NIXWMxW0NIM10pTjJbQ0gyXVtDSDJdT1tDSDJdW0NASF0yQyg9TylbTkgyXQ==

> <s_epik_cmdline>
J2VwaWtfcHl0aG9uJywgJy1waCcsICc3LjAnLCAnLXRuJywgJzgnLCAnLW1hJywgJzIwMCcsICctbWV0YWxfYmluZGluZycsICctaW1hZScsICc8aW5maWxlLm1hZT4nLCAnLW9tYWUnLCAnPG91dGZpbGUubWFlPic=

> <r_lp_tautomer_probability>
1

> <r_epik_Ionization_Penalty>
0.00607782

> <r_epik_Ionization_Penalty_Charging>
0

> <r_epik_Ionization_Penalty_Neutral>
0.00607782

> <r_epik_State_Penalty>
0.00441345

> <r_epik_Charging_Adjusted_Penalty>
0.00441345

> <i_epik_Tot_Q>
0

> <i_epik_Tot_abs_Q>
0

> <r_epik_Metal_State_Penalty>
-0

> <b_epik_Metal_Only>
0

> <s_lp_Force_Field>
OPLS_2005

> <r_lp_Energy>
6.30102

> <b_lp_Chiralities_Consistent>
1

> <s_lp_Variant>
AV-unprocessed.smi:2810-2

> <Gold.Version>
5.8.1

> <Gold.Id.Protein>
6NUR|6NUR_protein|mol2

> <Gold.PLP.Fitness>
36.6555

> <Gold.PLP.PLP>
-34.1946

> <Gold.PLP.part.hbond>
-1.0000

> <Gold.PLP.part.metal>
0.0000

> <Gold.PLP.part.buried>
-5.5556

> <Gold.PLP.part.nonpolar>
-26.4011

> <Gold.PLP.part.repulsive>
0.2497

> <Gold.PLP.ligand.clash>
0.0000

> <Gold.PLP.ligand.torsion>
0.3998

> <Gold.PLP.Chemscore.Hbond>
1.0000

> <Gold.PLP.Chemscore.CHOScore>
0.0000

> <Gold.PLP.Chemscore.Metal>
0.0000

> <Gold.Chemscore.Hbonds>
donor molecule, donor type, donor heavy atom, donor atom, acceptor molecule, acceptor atom, score
      P1  H  6896  6907       L1    13  0.99

> <Gold.PLP.Chemscore.Internal.Correction>
0.2604

> <Gold.Rescore>
     Score         DG    S(hbond)    S(metal)    S(lipo)     H(rot)  DE(clash)    DE(int)     intcor
     13.50     -13.91       0.96        0.00      82.13       1.71       0.03       0.38       ----

> <Gold.Chemscore.Fitness>
13.4957

> <Gold.Chemscore.DG>
-13.9089

> <Gold.Chemscore.ZeroCoef>
-5.4800

> <Gold.Chemscore.Hbond>
0.9586

> <Gold.Chemscore.Metal>
0.0000

> <Gold.Chemscore.Lipo>
82.1313

> <Gold.Chemscore.Internal_Hbond>
0.0000

> <Gold.Chemscore.DEClash>
0.0346

> <Gold.Chemscore.DEInternal>
0.3787

> <Gold.Chemscore.Rot>
1.7117

> <Gold.Chemscore.Internal.Correction>
   9.000000E+99

> <Gold.Chemscore.Hbonds>
donor molecule, donor type, donor heavy atom, donor atom, acceptor molecule, acceptor atom, score
      P1  H  6896  6907       L1    13  0.94

> <Gold.Chemscore.Hbond.Weighted>
-3.2016

> <Gold.Chemscore.Metal.Weighted>
-0.0000

> <Gold.Chemscore.Lipo.Weighted>
-9.6094

> <Gold.Chemscore.Internal_Hbond.Weighted>
0.0000

> <Gold.Chemscore.DEClash.Weighted>
0.0346

> <Gold.Chemscore.DEInternal.Weighted>
0.3787

> <Gold.Chemscore.Rot.Weighted>
4.3820

> <Gold.Chemscore.Internal.Correction.Weighted>
   9.000000E+99

> <Gold.Protein.RotatedTorsions>
[ 6907 6896 6895 6894 ] final   13.79 input  -60.11 | X-H torsion
[ 7974 7965 7964 7962 ] final -154.17 input  175.53 | X-H torsion
[ 8008 7997 7996 7995 ] final   33.13 input   59.86 | X-H torsion
[ 10167 10162 10161 10158 ] final   62.94 input  -65.29 | X-H torsion
[ 10718 10713 10712 10709 ] final  119.35 input   66.30 | X-H torsion
[ 10763 10752 10751 10750 ] final   43.45 input  -60.55 | X-H torsion
[ 11005 11000 10999 10996 ] final   59.68 input  -57.11 | X-H torsion

> <Gold.Protein.ActiveResidues>
 VAL166  LYS551  ARG553  GLY616  TRP617  ASP618  TYR619  PRO620  LYS621  CYS622 
 ASP623  PHE694  ASN695  SER759  ASP760  ASP761  ALA762  ILE779  LEU786  VAL792 
 PHE793  MET794  SER795  GLU796  ALA797  LYS798  CYS799  TRP800  GLU811  SER814 

> <Gold.Protein.RotatedAtoms>
  151.7918  135.0733  160.0388 H   0  0  0  0  0  0  0  0  0  0  0  0  # atno 6907 bound_to 6896
  152.3151  133.5789  159.5715 H   0  0  0  0  0  0  0  0  0  0  0  0  # atno 6908 bound_to 6896
  150.7340  134.0011  159.3680 H   0  0  0  0  0  0  0  0  0  0  0  0  # atno 6909 bound_to 6896
  144.7703  140.4425  143.5912 H   0  0  0  0  0  0  0  0  0  0  0  0  # atno 7974 bound_to 7965
  155.1337  140.3259  155.4468 H   0  0  0  0  0  0  0  0  0  0  0  0  # atno 8008 bound_to 7997
  156.2626  140.2006  156.6404 H   0  0  0  0  0  0  0  0  0  0  0  0  # atno 8009 bound_to 7997
  154.6593  140.0549  157.0031 H   0  0  0  0  0  0  0  0  0  0  0  0  # atno 8010 bound_to 7997
  140.1385  144.4576  150.6824 H   0  0  0  0  0  0  0  0  0  0  0  0  # atno 10167 bound_to 10162
  157.5968  131.1057  150.7884 H   0  0  0  0  0  0  0  0  0  0  0  0  # atno 10718 bound_to 10713
  152.9860  135.6101  154.3114 H   0  0  0  0  0  0  0  0  0  0  0  0  # atno 10763 bound_to 10752
  154.2829  135.2776  155.2691 H   0  0  0  0  0  0  0  0  0  0  0  0  # atno 10764 bound_to 10752
  154.5022  135.5864  153.6596 H   0  0  0  0  0  0  0  0  0  0  0  0  # atno 10765 bound_to 10752
  140.0286  134.6046  155.9538 H   0  0  0  0  0  0  0  0  0  0  0  0  # atno 11005 bound_to 11000
  145.6344  139.1541  143.2951 LP  0  0  0  0  0  0  0  0  0  0  0  0  # atno 17320 bound_to 7965
  146.1844  140.6445  142.9174 LP  0  0  0  0  0  0  0  0  0  0  0  0  # atno 17321 bound_to 7965
  140.6775  143.2311  151.5470 LP  0  0  0  0  0  0  0  0  0  0  0  0  # atno 17342 bound_to 10162
  139.5484  144.2460  152.1485 LP  0  0  0  0  0  0  0  0  0  0  0  0  # atno 17343 bound_to 10162
  156.8292  130.5010  149.5333 LP  0  0  0  0  0  0  0  0  0  0  0  0  # atno 17370 bound_to 10713
  156.1032  130.5984  150.9928 LP  0  0  0  0  0  0  0  0  0  0  0  0  # atno 17371 bound_to 10713
  141.1817  133.6548  156.5050 LP  0  0  0  0  0  0  0  0  0  0  0  0  # atno 17394 bound_to 11000
  140.4264  134.7141  157.4918 LP  0  0  0  0  0  0  0  0  0  0  0  0  # atno 17395 bound_to 11000

$$$$
