AV-unprocessed.smi:11|AV-procd|sdf|57|dock5
  -GOLD-   2262015173D 1   1.00000     0.00000
 Structure written by MMmdl.
 34 36  0  0  0  0  0  0  0  0  2 V2000
  153.3626  141.4153  160.5149 C   0  0  0  0  0  0  0  0  0  0  0  0
  153.1157  142.4409  159.3961 C   0  0  0  0  0  0  0  0  0  0  0  0
  151.6274  142.7165  159.0662 C   0  0  1  0  0  0  0  0  0  0  0  0
  150.9630  143.0906  160.2570 O   0  0  0  0  0  0  0  0  0  0  0  0
  151.4160  143.7612  157.9595 C   0  0  0  0  0  0  0  0  0  0  0  0
  151.5308  142.9388  156.6774 C   0  0  0  0  0  0  0  0  0  0  0  0
  150.9903  141.6328  157.0270 N   0  0  0  0  0  0  0  0  0  0  0  0
  151.1375  140.5234  156.1703 C   0  0  0  0  0  0  0  0  0  0  0  0
  152.3358  139.8771  156.1665 N   0  0  0  0  0  0  0  0  0  0  0  0
  152.5776  138.8099  155.3920 C   0  0  0  0  0  0  0  0  0  0  0  0
  151.6653  138.3005  154.5586 N   0  3  0  0  0  0  0  0  0  0  0  0
  150.4600  138.9224  154.5186 C   0  0  0  0  0  0  0  0  0  0  0  0
  149.3580  138.6131  153.7490 N   0  0  0  0  0  0  0  0  0  0  0  0
  148.3355  139.5100  154.0055 C   0  0  0  0  0  0  0  0  0  0  0  0
  148.7594  140.4138  154.9474 C   0  0  0  0  0  0  0  0  0  0  0  0
  150.1114  140.0552  155.2988 C   0  0  0  0  0  0  0  0  0  0  0  0
  150.9541  141.4651  158.4738 C   0  0  0  0  0  0  0  0  0  0  0  0
  149.2779  137.8567  153.0841 H   0  0  0  0  0  0  0  0  0  0  0  0
  154.4312  141.2452  160.6461 H   0  0  0  0  0  0  0  0  0  0  0  0
  152.9054  140.4527  160.2855 H   0  0  0  0  0  0  0  0  0  0  0  0
  152.9706  141.7550  161.4727 H   0  0  0  0  0  0  0  0  0  0  0  0
  153.6118  143.3745  159.6637 H   0  0  0  0  0  0  0  0  0  0  0  0
  153.6192  142.0889  158.4945 H   0  0  0  0  0  0  0  0  0  0  0  0
  151.1255  142.4299  160.9131 H   0  0  0  0  0  0  0  0  0  0  0  0
  150.4072  144.1729  158.0243 H   0  0  0  0  0  0  0  0  0  0  0  0
  152.1095  144.6005  157.9887 H   0  0  0  0  0  0  0  0  0  0  0  0
  150.9789  143.3941  155.8545 H   0  0  0  0  0  0  0  0  0  0  0  0
  152.5762  142.8434  156.3808 H   0  0  0  0  0  0  0  0  0  0  0  0
  153.5403  138.3208  155.4208 H   0  0  0  0  0  0  0  0  0  0  0  0
  147.3869  139.4342  153.4936 H   0  0  0  0  0  0  0  0  0  0  0  0
  148.1894  141.2382  155.3494 H   0  0  0  0  0  0  0  0  0  0  0  0
  151.4545  140.5523  158.7993 H   0  0  0  0  0  0  0  0  0  0  0  0
  149.9080  141.4033  158.7765 H   0  0  0  0  0  0  0  0  0  0  0  0
  151.8602  137.4882  153.9733 H   0  0  0  0  0  0  0  0  0  0  0  0
  1  2  1  0  0  0  0
  1 19  1  0  0  0  0
  1 20  1  0  0  0  0
  1 21  1  0  0  0  0
  2  3  1  0  0  0  0
  2 22  1  0  0  0  0
  2 23  1  0  0  0  0
  3 17  1  0  0  0  0
  3  4  1  0  0  0  0
  3  5  1  0  0  0  0
  4 24  1  0  0  0  0
  5  6  1  0  0  0  0
  5 25  1  0  0  0  0
  5 26  1  0  0  0  0
  6  7  1  0  0  0  0
  6 27  1  0  0  0  0
  6 28  1  0  0  0  0
  7  8  1  0  0  0  0
  7 17  1  0  0  0  0
  8 16  1  0  0  0  0
  8  9  2  0  0  0  0
  9 10  1  0  0  0  0
 10 11  2  0  0  0  0
 10 29  1  0  0  0  0
 11 12  1  0  0  0  0
 11 34  1  0  0  0  0
 12 16  2  0  0  0  0
 12 13  1  0  0  0  0
 13 18  1  0  0  0  0
 13 14  1  0  0  0  0
 14 15  2  0  0  0  0
 14 30  1  0  0  0  0
 15 16  1  0  0  0  0
 15 31  1  0  0  0  0
 17 32  1  0  0  0  0
 17 33  1  0  0  0  0
M  CHG  1  11   1
M  END
> <s_m_source_file>
AV-unprocessed.smi

> <i_m_source_file_index>
11

> <i_lp_mmshare_version>
43012

> <i_f3d_flags>
0

> <s_epik_input>
W0NIM11bQ0gyXVtDQEBdMShbT0hdKVtDSDJdW0NIMl1OKFtDSDJdMSljKG5bY0hdbjIpYyhjMjMpW2NIXVtjSF1bbkhdMw==

> <s_epik_cmdline>
J2VwaWtfcHl0aG9uJywgJy1waCcsICc3LjAnLCAnLXRuJywgJzgnLCAnLW1hJywgJzIwMCcsICctbWV0YWxfYmluZGluZycsICctaW1hZScsICc8aW5maWxlLm1hZT4nLCAnLW9tYWUnLCAnPG91dGZpbGUubWFlPic=

> <r_lp_tautomer_probability>
1.75997e-05

> <r_epik_Ionization_Penalty>
1.53257

> <r_epik_Ionization_Penalty_Charging>
1.53255

> <r_epik_Ionization_Penalty_Neutral>
1.78556e-05

> <r_epik_State_Penalty>
1.6253

> <r_epik_Charging_Adjusted_Penalty>
3.15785

> <i_epik_Tot_Q>
1

> <i_epik_Tot_abs_Q>
1

> <r_epik_Metal_State_Penalty>
1.66891

> <b_epik_Metal_Only>
0

> <s_lp_Force_Field>
OPLS_2005

> <r_lp_Energy>
33.1489

> <b_lp_Chiralities_Consistent>
1

> <s_lp_Variant>
AV-unprocessed.smi:11-3

> <Gold.Version>
5.8.1

> <Gold.Id.Protein>
6NUR|6NUR_protein|mol2

> <Gold.PLP.Fitness>
41.5389

> <Gold.PLP.PLP>
-36.2144

> <Gold.PLP.part.hbond>
-4.0000

> <Gold.PLP.part.metal>
0.0000

> <Gold.PLP.part.buried>
-3.0555

> <Gold.PLP.part.nonpolar>
-29.2577

> <Gold.PLP.part.repulsive>
0.2331

> <Gold.PLP.ligand.clash>
0.0000

> <Gold.PLP.ligand.torsion>
1.3911

> <Gold.PLP.Chemscore.Hbond>
2.6232

> <Gold.PLP.Chemscore.CHOScore>
0.0000

> <Gold.PLP.Chemscore.Metal>
0.0000

> <Gold.Chemscore.Hbonds>
donor molecule, donor type, donor heavy atom, donor atom, acceptor molecule, acceptor atom, score
      L1  H    13    18       P1  7948  2.00
      P1  H  7997  8010       L1     9  0.49

> <Gold.PLP.Chemscore.Internal.Correction>
0.2371

> <Gold.Rescore>
     Score         DG    S(hbond)    S(metal)    S(lipo)     H(rot)  DE(clash)    DE(int)     intcor
     11.57     -14.45       1.06        0.00      77.87       1.44       1.45       1.43       ----

> <Gold.Chemscore.Fitness>
11.5745

> <Gold.Chemscore.DG>
-14.4523

> <Gold.Chemscore.ZeroCoef>
-5.4800

> <Gold.Chemscore.Hbond>
1.0615

> <Gold.Chemscore.Metal>
0.0000

> <Gold.Chemscore.Lipo>
77.8738

> <Gold.Chemscore.Internal_Hbond>
0.0000

> <Gold.Chemscore.DEClash>
1.4484

> <Gold.Chemscore.DEInternal>
1.4293

> <Gold.Chemscore.Rot>
1.4392

> <Gold.Chemscore.Internal.Correction>
   9.000000E+99

> <Gold.Chemscore.Hbonds>
donor molecule, donor type, donor heavy atom, donor atom, acceptor molecule, acceptor atom, score
      L1  H    13    18       P1  7948  0.91
      P1  H  7997  8010       L1     9  0.02

> <Gold.Chemscore.Hbond.Weighted>
-3.5455

> <Gold.Chemscore.Metal.Weighted>
-0.0000

> <Gold.Chemscore.Lipo.Weighted>
-9.1112

> <Gold.Chemscore.Internal_Hbond.Weighted>
0.0000

> <Gold.Chemscore.DEClash.Weighted>
1.4484

> <Gold.Chemscore.DEInternal.Weighted>
1.4293

> <Gold.Chemscore.Rot.Weighted>
3.6844

> <Gold.Chemscore.Internal.Correction.Weighted>
   9.000000E+99

> <Gold.Protein.RotatedTorsions>
[ 6907 6896 6895 6894 ] final  144.74 input  -60.11 | X-H torsion
[ 7974 7965 7964 7962 ] final  -54.44 input  175.53 | X-H torsion
[ 8008 7997 7996 7995 ] final   69.76 input   59.86 | X-H torsion
[ 10167 10162 10161 10158 ] final   84.37 input  -65.29 | X-H torsion
[ 10718 10713 10712 10709 ] final   73.39 input   66.30 | X-H torsion
[ 10763 10752 10751 10750 ] final  113.62 input  -60.55 | X-H torsion
[ 11005 11000 10999 10996 ] final  -74.56 input  -57.11 | X-H torsion

> <Gold.Protein.ActiveResidues>
 VAL166  LYS551  ARG553  GLY616  TRP617  ASP618  TYR619  PRO620  LYS621  CYS622 
 ASP623  PHE694  ASN695  SER759  ASP760  ASP761  ALA762  ILE779  LEU786  VAL792 
 PHE793  MET794  SER795  GLU796  ALA797  LYS798  CYS799  TRP800  GLU811  SER814 

> <Gold.Protein.RotatedAtoms>
  152.1898  133.4765  159.5001 H   0  0  0  0  0  0  0  0  0  0  0  0  # atno 6907 bound_to 6896
  150.6949  134.1726  159.4227 H   0  0  0  0  0  0  0  0  0  0  0  0  # atno 6908 bound_to 6896
  151.9641  135.0109  160.0600 H   0  0  0  0  0  0  0  0  0  0  0  0  # atno 6909 bound_to 6896
  145.8855  140.8111  142.9818 H   0  0  0  0  0  0  0  0  0  0  0  0  # atno 7974 bound_to 7965
  155.7285  140.3492  155.5048 H   0  0  0  0  0  0  0  0  0  0  0  0  # atno 8008 bound_to 7997
  155.9204  140.1066  157.1233 H   0  0  0  0  0  0  0  0  0  0  0  0  # atno 8009 bound_to 7997
  154.4069  140.1250  156.4659 H   0  0  0  0  0  0  0  0  0  0  0  0  # atno 8010 bound_to 7997
  139.9087  144.6285  150.8560 H   0  0  0  0  0  0  0  0  0  0  0  0  # atno 10167 bound_to 10162
  157.6546  130.9626  150.1063 H   0  0  0  0  0  0  0  0  0  0  0  0  # atno 10718 bound_to 10713
  153.4951  135.3650  155.2512 H   0  0  0  0  0  0  0  0  0  0  0  0  # atno 10763 bound_to 10752
  154.8750  135.3986  154.3543 H   0  0  0  0  0  0  0  0  0  0  0  0  # atno 10764 bound_to 10752
  153.4169  135.7079  153.6386 H   0  0  0  0  0  0  0  0  0  0  0  0  # atno 10765 bound_to 10752
  141.1636  133.6915  156.7382 H   0  0  0  0  0  0  0  0  0  0  0  0  # atno 11005 bound_to 11000
  144.6728  140.1449  143.7434 LP  0  0  0  0  0  0  0  0  0  0  0  0  # atno 17320 bound_to 7965
  145.8972  139.2409  143.1515 LP  0  0  0  0  0  0  0  0  0  0  0  0  # atno 17321 bound_to 7965
  140.7690  143.3381  151.2265 LP  0  0  0  0  0  0  0  0  0  0  0  0  # atno 17342 bound_to 10162
  139.6961  143.9611  152.2883 LP  0  0  0  0  0  0  0  0  0  0  0  0  # atno 17343 bound_to 10162
  156.1972  130.3658  149.8834 LP  0  0  0  0  0  0  0  0  0  0  0  0  # atno 17370 bound_to 10713
  156.6747  130.8834  151.3567 LP  0  0  0  0  0  0  0  0  0  0  0  0  # atno 17371 bound_to 10713
  140.2694  134.8404  157.3833 LP  0  0  0  0  0  0  0  0  0  0  0  0  # atno 17394 bound_to 11000
  140.1536  134.4818  155.7944 LP  0  0  0  0  0  0  0  0  0  0  0  0  # atno 17395 bound_to 11000

$$$$
