AV-unprocessed.smi:2532|AV-procd|sdf|9968|dock7
  -GOLD-   2272014 13D 1   1.00000     0.00000
 Structure written by MMmdl.
 36 38  0  0  0  0  0  0  0  0  1 V2000
  154.6965  138.7399  158.8668 O   0  0  0  0  0  0  0  0  0  0  0  0
  153.9679  139.5325  159.7846 C   0  0  2  0  0  0  0  0  0  0  0  0
  152.4868  139.5175  159.3743 C   0  0  0  0  0  0  0  0  0  0  0  0
  152.3119  140.3335  158.2280 O   0  0  0  0  0  0  0  0  0  0  0  0
  151.0036  140.2441  157.6868 C   0  0  0  0  0  0  0  0  0  0  0  0
  151.0613  139.3359  156.5003 C   0  0  0  0  0  0  0  0  0  0  0  0
  152.1003  139.2007  155.6147 C   0  0  0  0  0  0  0  0  0  0  0  0
  151.8524  138.2321  154.5980 C   0  0  0  0  0  0  0  0  0  0  0  0
  150.6283  137.6316  154.7239 C   0  0  0  0  0  0  0  0  0  0  0  0
  149.7538  138.2451  156.1003 S   0  0  0  0  0  0  0  0  0  0  0  0
  154.5469  140.9607  159.7835 C   0  0  0  0  0  0  0  0  0  0  0  0
  153.6987  141.9094  160.4838 N   0  0  0  0  0  0  0  0  0  0  0  0
  153.4053  141.9150  161.7984 C   0  0  0  0  0  0  0  0  0  0  0  0
  152.5992  142.8767  162.2391 N   0  0  0  0  0  0  0  0  0  0  0  0
  152.3376  143.5776  161.0742 C   0  0  0  0  0  0  0  0  0  0  0  0
  151.5403  144.7235  160.8526 C   0  0  0  0  0  0  0  0  0  0  0  0
  151.4216  145.2721  159.5585 C   0  0  0  0  0  0  0  0  0  0  0  0
  152.0976  144.6858  158.4686 C   0  0  0  0  0  0  0  0  0  0  0  0
  152.8974  143.5436  158.6645 C   0  0  0  0  0  0  0  0  0  0  0  0
  153.0117  142.9982  159.9569 C   0  0  0  0  0  0  0  0  0  0  0  0
  155.2790  138.1772  159.3539 H   0  0  0  0  0  0  0  0  0  0  0  0
  154.0754  139.1070  160.7834 H   0  0  0  0  0  0  0  0  0  0  0  0
  152.1886  138.5003  159.1145 H   0  0  0  0  0  0  0  0  0  0  0  0
  151.8460  139.8407  160.1968 H   0  0  0  0  0  0  0  0  0  0  0  0
  150.3099  139.8505  158.4313 H   0  0  0  0  0  0  0  0  0  0  0  0
  150.6478  141.2298  157.3841 H   0  0  0  0  0  0  0  0  0  0  0  0
  153.0225  139.7610  155.6602 H   0  0  0  0  0  0  0  0  0  0  0  0
  152.5715  138.0116  153.8227 H   0  0  0  0  0  0  0  0  0  0  0  0
  150.1900  136.8681  154.0982 H   0  0  0  0  0  0  0  0  0  0  0  0
  155.5376  140.9721  160.2401 H   0  0  0  0  0  0  0  0  0  0  0  0
  154.6741  141.3136  158.7593 H   0  0  0  0  0  0  0  0  0  0  0  0
  153.8071  141.1704  162.4701 H   0  0  0  0  0  0  0  0  0  0  0  0
  151.0187  145.1813  161.6801 H   0  0  0  0  0  0  0  0  0  0  0  0
  150.8093  146.1481  159.4014 H   0  0  0  0  0  0  0  0  0  0  0  0
  152.0021  145.1139  157.4813 H   0  0  0  0  0  0  0  0  0  0  0  0
  153.4181  143.0937  157.8321 H   0  0  0  0  0  0  0  0  0  0  0  0
  1  2  1  0  0  0  0
  1 21  1  0  0  0  0
  2  3  1  0  0  0  0
  2 11  1  0  0  0  0
  2 22  1  0  0  0  0
  3  4  1  0  0  0  0
  3 23  1  0  0  0  0
  3 24  1  0  0  0  0
  4  5  1  0  0  0  0
  5  6  1  0  0  0  0
  5 25  1  0  0  0  0
  5 26  1  0  0  0  0
  6 10  1  0  0  0  0
  6  7  2  0  0  0  0
  7  8  1  0  0  0  0
  7 27  1  0  0  0  0
  8  9  2  0  0  0  0
  8 28  1  0  0  0  0
  9 10  1  0  0  0  0
  9 29  1  0  0  0  0
 11 12  1  0  0  0  0
 11 30  1  0  0  0  0
 11 31  1  0  0  0  0
 12 20  1  0  0  0  0
 12 13  1  0  0  0  0
 13 14  2  0  0  0  0
 13 32  1  0  0  0  0
 14 15  1  0  0  0  0
 15 20  2  0  0  0  0
 15 16  1  0  0  0  0
 16 17  2  0  0  0  0
 16 33  1  0  0  0  0
 17 18  1  0  0  0  0
 17 34  1  0  0  0  0
 18 19  2  0  0  0  0
 18 35  1  0  0  0  0
 19 20  1  0  0  0  0
 19 36  1  0  0  0  0
M  END
> <s_m_source_file>
AV-unprocessed.smi

> <i_m_source_file_index>
2532

> <i_lp_mmshare_version>
43012

> <i_f3d_flags>
0

> <s_epik_input>
W2NIXTFbY0hdW2NIXVtjSF1jKGMxMiluKFtjSF1uMilbQ0gyXVtDQEhdKFtPSF0pW0NIMl1PW0NIMl1jM1tjSF1bY0hdW2NIXXMz

> <s_epik_cmdline>
J2VwaWtfcHl0aG9uJywgJy1waCcsICc3LjAnLCAnLXRuJywgJzgnLCAnLW1hJywgJzIwMCcsICctbWV0YWxfYmluZGluZycsICctaW1hZScsICc8aW5maWxlLm1hZT4nLCAnLW9tYWUnLCAnPG91dGZpbGUubWFlPic=

> <r_epik_Ionization_Penalty>
0.0678455

> <r_epik_Ionization_Penalty_Charging>
0

> <r_epik_Ionization_Penalty_Neutral>
0.0678455

> <r_epik_State_Penalty>
0.0593261

> <r_epik_Charging_Adjusted_Penalty>
0.0593261

> <i_epik_Tot_Q>
0

> <i_epik_Tot_abs_Q>
0

> <r_epik_Metal_State_Penalty>
6.23947e-05

> <b_epik_Metal_Only>
0

> <s_lp_Force_Field>
OPLS_2005

> <r_lp_Energy>
9.71279

> <b_lp_Chiralities_Consistent>
1

> <s_lp_Variant>
AV-unprocessed.smi:2532-1

> <Gold.Version>
5.8.1

> <Gold.Id.Protein>
6NUR|6NUR_protein|mol2

> <Gold.PLP.Fitness>
57.2185

> <Gold.PLP.PLP>
-52.4254

> <Gold.PLP.part.hbond>
-1.3611

> <Gold.PLP.part.metal>
0.0000

> <Gold.PLP.part.buried>
-6.0686

> <Gold.PLP.part.nonpolar>
-45.5370

> <Gold.PLP.part.repulsive>
0.1269

> <Gold.PLP.ligand.clash>
0.0000

> <Gold.PLP.ligand.torsion>
0.8491

> <Gold.PLP.Chemscore.Hbond>
1.0000

> <Gold.PLP.Chemscore.CHOScore>
1.0911

> <Gold.PLP.Chemscore.Metal>
0.0000

> <Gold.Chemscore.Hbonds>
donor molecule, donor type, donor heavy atom, donor atom, acceptor molecule, acceptor atom, score
      P1  H  7997  8010       L1     1  0.91
      L1  C     9    29       P1  7948  0.84
      L1  C     9    29       P1  7949  0.01

> <Gold.PLP.Chemscore.Internal.Correction>
0.2180

> <Gold.Rescore>
     Score         DG    S(hbond)    S(metal)    S(lipo)     H(rot)  DE(clash)    DE(int)     intcor
     17.90     -18.61       1.04        0.00     134.31       2.36       0.20       0.51       ----

> <Gold.Chemscore.Fitness>
17.9037

> <Gold.Chemscore.DG>
-18.6091

> <Gold.Chemscore.ZeroCoef>
-5.4800

> <Gold.Chemscore.Hbond>
1.0365

> <Gold.Chemscore.Metal>
0.0000

> <Gold.Chemscore.Lipo>
134.3075

> <Gold.Chemscore.Internal_Hbond>
0.0000

> <Gold.Chemscore.DEClash>
0.1982

> <Gold.Chemscore.DEInternal>
0.5072

> <Gold.Chemscore.Rot>
2.3620

> <Gold.Chemscore.Internal.Correction>
   9.000000E+99

> <Gold.Chemscore.Hbonds>
donor molecule, donor type, donor heavy atom, donor atom, acceptor molecule, acceptor atom, score
      P1  H  7997  8010       L1     1  0.52

> <Gold.Chemscore.Hbond.Weighted>
-3.4619

> <Gold.Chemscore.Metal.Weighted>
-0.0000

> <Gold.Chemscore.Lipo.Weighted>
-15.7140

> <Gold.Chemscore.Internal_Hbond.Weighted>
0.0000

> <Gold.Chemscore.DEClash.Weighted>
0.1982

> <Gold.Chemscore.DEInternal.Weighted>
0.5072

> <Gold.Chemscore.Rot.Weighted>
6.0468

> <Gold.Chemscore.Internal.Correction.Weighted>
   9.000000E+99

> <Gold.Protein.RotatedTorsions>
[ 6907 6896 6895 6894 ] final  118.57 input  -60.11 | X-H torsion
[ 7974 7965 7964 7962 ] final  165.50 input  175.53 | X-H torsion
[ 8008 7997 7996 7995 ] final  -13.40 input   59.86 | X-H torsion
[ 10167 10162 10161 10158 ] final  -94.49 input  -65.29 | X-H torsion
[ 10718 10713 10712 10709 ] final   18.32 input   66.30 | X-H torsion
[ 10763 10752 10751 10750 ] final   29.94 input  -60.55 | X-H torsion
[ 11005 11000 10999 10996 ] final  134.47 input  -57.11 | X-H torsion

> <Gold.Protein.ActiveResidues>
 VAL166  LYS551  ARG553  GLY616  TRP617  ASP618  TYR619  PRO620  LYS621  CYS622 
 ASP623  PHE694  ASN695  SER759  ASP760  ASP761  ALA762  ILE779  LEU786  VAL792 
 PHE793  MET794  SER795  GLU796  ALA797  LYS798  CYS799  TRP800  GLU811  SER814 

> <Gold.Protein.RotatedAtoms>
  152.4533  133.7673  159.6779 H   0  0  0  0  0  0  0  0  0  0  0  0  # atno 6907 bound_to 6896
  150.8452  133.7863  159.3052 H   0  0  0  0  0  0  0  0  0  0  0  0  # atno 6908 bound_to 6896
  151.5476  135.1070  159.9993 H   0  0  0  0  0  0  0  0  0  0  0  0  # atno 6909 bound_to 6896
  144.7500  139.8479  143.6369 H   0  0  0  0  0  0  0  0  0  0  0  0  # atno 7974 bound_to 7965
  154.5296  140.2250  155.8829 H   0  0  0  0  0  0  0  0  0  0  0  0  # atno 8008 bound_to 7997
  156.1749  140.3113  155.9005 H   0  0  0  0  0  0  0  0  0  0  0  0  # atno 8009 bound_to 7997
  155.3480  140.0454  157.3036 H   0  0  0  0  0  0  0  0  0  0  0  0  # atno 8010 bound_to 7997
  140.3139  143.3089  152.0119 H   0  0  0  0  0  0  0  0  0  0  0  0  # atno 10167 bound_to 10162
  157.0946  130.6442  149.5857 H   0  0  0  0  0  0  0  0  0  0  0  0  # atno 10718 bound_to 10713
  153.0400  135.6476  154.0969 H   0  0  0  0  0  0  0  0  0  0  0  0  # atno 10763 bound_to 10752
  154.0677  135.2883  155.3315 H   0  0  0  0  0  0  0  0  0  0  0  0  # atno 10764 bound_to 10752
  154.6615  135.5389  153.8089 H   0  0  0  0  0  0  0  0  0  0  0  0  # atno 10765 bound_to 10752
  139.9917  134.9512  156.9872 H   0  0  0  0  0  0  0  0  0  0  0  0  # atno 11005 bound_to 11000
  146.1436  139.4500  143.0093 LP  0  0  0  0  0  0  0  0  0  0  0  0  # atno 17320 bound_to 7965
  145.6979  141.0145  143.1520 LP  0  0  0  0  0  0  0  0  0  0  0  0  # atno 17321 bound_to 7965
  139.4888  144.6364  151.6967 LP  0  0  0  0  0  0  0  0  0  0  0  0  # atno 17342 bound_to 10162
  140.5544  144.0372  150.6141 LP  0  0  0  0  0  0  0  0  0  0  0  0  # atno 17343 bound_to 10162
  155.9889  130.4934  150.7190 LP  0  0  0  0  0  0  0  0  0  0  0  0  # atno 17370 bound_to 10713
  157.4692  131.0891  151.0661 LP  0  0  0  0  0  0  0  0  0  0  0  0  # atno 17371 bound_to 10713
  140.4895  134.1207  155.7230 LP  0  0  0  0  0  0  0  0  0  0  0  0  # atno 17394 bound_to 11000
  141.1571  133.8862  157.1947 LP  0  0  0  0  0  0  0  0  0  0  0  0  # atno 17395 bound_to 11000

$$$$
