AV-unprocessed.smi:2260|AV-procd|sdf|9132|dock4
  -GOLD-   2272012343D 1   1.00000     0.00000
 Structure written by MMmdl.
 43 44  0  0  0  0  0  0  0  0  2 V2000
  148.3501  140.3931  154.1185 C   0  0  0  0  0  0  0  0  0  0  0  0
  149.5465  139.5106  154.4289 C   0  0  0  0  0  0  0  0  0  0  0  0
  149.6990  138.2388  154.0447 C   0  0  0  0  0  0  0  0  0  0  0  0
  151.2223  137.5546  154.5613 S   0  0  0  0  0  0  0  0  0  0  0  0
  151.6693  139.1143  155.3416 C   0  0  0  0  0  0  0  0  0  0  0  0
  152.7380  139.2904  155.9242 O   0  0  0  0  0  0  0  0  0  0  0  0
  150.6270  140.0209  155.1592 N   0  0  0  0  0  0  0  0  0  0  0  0
  150.6880  141.3844  155.6931 C   0  0  0  0  0  0  0  0  0  0  0  0
  149.4833  141.6815  156.5990 C   0  0  0  0  0  0  0  0  0  0  0  0
  149.8214  142.7160  157.5982 N   0  3  0  0  0  0  0  0  0  0  0  0
  151.1856  142.6315  158.1725 C   0  0  2  0  0  0  0  0  0  0  0  0
  151.2981  141.4599  159.1762 C   0  0  0  0  0  0  0  0  0  0  0  0
  152.7090  141.3569  159.7713 C   0  0  0  0  0  0  0  0  0  0  0  0
  153.1387  142.6790  160.4175 C   0  0  0  0  0  0  0  0  0  0  0  0
  153.0289  143.8437  159.4194 C   0  0  0  0  0  0  0  0  0  0  0  0
  151.6164  143.9954  158.7969 C   0  0  0  0  0  0  0  0  0  0  0  0
  151.7047  145.0707  157.6920 C   0  0  0  0  0  0  0  0  0  0  0  0
  150.6170  144.4884  159.8714 C   0  0  0  0  0  0  0  0  0  0  0  0
  147.7707  139.9692  153.2977 H   0  0  0  0  0  0  0  0  0  0  0  0
  148.6530  141.3965  153.8202 H   0  0  0  0  0  0  0  0  0  0  0  0
  147.6983  140.4666  154.9893 H   0  0  0  0  0  0  0  0  0  0  0  0
  148.9957  137.6545  153.4694 H   0  0  0  0  0  0  0  0  0  0  0  0
  151.6218  141.5459  156.2317 H   0  0  0  0  0  0  0  0  0  0  0  0
  150.7100  142.0970  154.8666 H   0  0  0  0  0  0  0  0  0  0  0  0
  148.6399  142.0161  155.9949 H   0  0  0  0  0  0  0  0  0  0  0  0
  149.1709  140.7712  157.1120 H   0  0  0  0  0  0  0  0  0  0  0  0
  149.7480  143.6112  157.1362 H   0  0  0  0  0  0  0  0  0  0  0  0
  151.8712  142.4237  157.3489 H   0  0  0  0  0  0  0  0  0  0  0  0
  150.5685  141.5736  159.9781 H   0  0  0  0  0  0  0  0  0  0  0  0
  151.0625  140.5146  158.6878 H   0  0  0  0  0  0  0  0  0  0  0  0
  152.7456  140.5537  160.5076 H   0  0  0  0  0  0  0  0  0  0  0  0
  153.4168  141.0883  158.9862 H   0  0  0  0  0  0  0  0  0  0  0  0
  152.5297  142.8770  161.2998 H   0  0  0  0  0  0  0  0  0  0  0  0
  154.1662  142.5964  160.7730 H   0  0  0  0  0  0  0  0  0  0  0  0
  153.3265  144.7710  159.9110 H   0  0  0  0  0  0  0  0  0  0  0  0
  153.7597  143.6820  158.6255 H   0  0  0  0  0  0  0  0  0  0  0  0
  152.0684  146.0183  158.0915 H   0  0  0  0  0  0  0  0  0  0  0  0
  150.7341  145.2669  157.2356 H   0  0  0  0  0  0  0  0  0  0  0  0
  152.3864  144.7718  156.8949 H   0  0  0  0  0  0  0  0  0  0  0  0
  150.9593  145.4183  160.3266 H   0  0  0  0  0  0  0  0  0  0  0  0
  150.4803  143.7693  160.6778 H   0  0  0  0  0  0  0  0  0  0  0  0
  149.6326  144.6877  159.4474 H   0  0  0  0  0  0  0  0  0  0  0  0
  149.1476  142.6901  158.3502 H   0  0  0  0  0  0  0  0  0  0  0  0
  1  2  1  0  0  0  0
  1 19  1  0  0  0  0
  1 20  1  0  0  0  0
  1 21  1  0  0  0  0
  2  7  1  0  0  0  0
  2  3  2  0  0  0  0
  3  4  1  0  0  0  0
  3 22  1  0  0  0  0
  4  5  1  0  0  0  0
  5  6  2  0  0  0  0
  5  7  1  0  0  0  0
  7  8  1  0  0  0  0
  8  9  1  0  0  0  0
  8 23  1  0  0  0  0
  8 24  1  0  0  0  0
  9 10  1  0  0  0  0
  9 25  1  0  0  0  0
  9 26  1  0  0  0  0
 10 11  1  0  0  0  0
 10 27  1  0  0  0  0
 10 43  1  0  0  0  0
 11 16  1  0  0  0  0
 11 12  1  0  0  0  0
 11 28  1  0  0  0  0
 12 13  1  0  0  0  0
 12 29  1  0  0  0  0
 12 30  1  0  0  0  0
 13 14  1  0  0  0  0
 13 31  1  0  0  0  0
 13 32  1  0  0  0  0
 14 15  1  0  0  0  0
 14 33  1  0  0  0  0
 14 34  1  0  0  0  0
 15 16  1  0  0  0  0
 15 35  1  0  0  0  0
 15 36  1  0  0  0  0
 16 17  1  0  0  0  0
 16 18  1  0  0  0  0
 17 37  1  0  0  0  0
 17 38  1  0  0  0  0
 17 39  1  0  0  0  0
 18 40  1  0  0  0  0
 18 41  1  0  0  0  0
 18 42  1  0  0  0  0
M  CHG  1  10   1
M  END
> <s_m_source_file>
AV-unprocessed.smi

> <i_m_source_file_index>
2260

> <i_lp_mmshare_version>
43012

> <i_f3d_flags>
0

> <s_epik_input>
W0NIM11jMVtjSF1zYyg9TyluMVtDSDJdW0NIMl1bTkhdW0NAQEhdKEMyKFtDSDNdKVtDSDNdKVtDSDJdW0NIMl1bQ0gyXVtDSDJdMg==

> <s_epik_cmdline>
J2VwaWtfcHl0aG9uJywgJy1waCcsICc3LjAnLCAnLXRuJywgJzgnLCAnLW1hJywgJzIwMCcsICctbWV0YWxfYmluZGluZycsICctaW1hZScsICc8aW5maWxlLm1hZT4nLCAnLW9tYWUnLCAnPG91dGZpbGUubWFlPic=

> <r_epik_Ionization_Penalty>
0.0114277

> <r_epik_Ionization_Penalty_Charging>
0.0114277

> <r_epik_Ionization_Penalty_Neutral>
2.57259e-08

> <r_epik_State_Penalty>
0.0087935

> <r_epik_Charging_Adjusted_Penalty>
0.0202212

> <i_epik_Tot_Q>
1

> <i_epik_Tot_abs_Q>
1

> <r_epik_Metal_State_Penalty>
0.0087935

> <b_epik_Metal_Only>
0

> <s_lp_Force_Field>
OPLS_2005

> <r_lp_Energy>
26.3368

> <b_lp_Chiralities_Consistent>
1

> <s_lp_Variant>
AV-unprocessed.smi:2260-1

> <Gold.Version>
5.8.1

> <Gold.Id.Protein>
6NUR|6NUR_protein|mol2

> <Gold.PLP.Fitness>
52.2165

> <Gold.PLP.PLP>
-41.0907

> <Gold.PLP.part.hbond>
-2.0000

> <Gold.PLP.part.metal>
0.0000

> <Gold.PLP.part.buried>
-1.0309

> <Gold.PLP.part.nonpolar>
-37.6696

> <Gold.PLP.part.repulsive>
0.0362

> <Gold.PLP.ligand.clash>
0.0000

> <Gold.PLP.ligand.torsion>
0.4188

> <Gold.PLP.Chemscore.Hbond>
2.9840

> <Gold.PLP.Chemscore.CHOScore>
1.0000

> <Gold.PLP.Chemscore.Metal>
0.0000

> <Gold.Chemscore.Hbonds>
donor molecule, donor type, donor heavy atom, donor atom, acceptor molecule, acceptor atom, score
      L1  H    10    27       P1  8028  1.95
      P1  H  7997  8009       L1     6  1.00
      L1  C     3    22       P1  7948  1.00

> <Gold.PLP.Chemscore.Internal.Correction>
0.0115

> <Gold.Rescore>
     Score         DG    S(hbond)    S(metal)    S(lipo)     H(rot)  DE(clash)    DE(int)     intcor
     20.65     -22.67       1.93        0.00     124.15       1.48       1.64       0.39       ----

> <Gold.Chemscore.Fitness>
20.6474

> <Gold.Chemscore.DG>
-22.6747

> <Gold.Chemscore.ZeroCoef>
-5.4800

> <Gold.Chemscore.Hbond>
1.9324

> <Gold.Chemscore.Metal>
0.0000

> <Gold.Chemscore.Lipo>
124.1499

> <Gold.Chemscore.Internal_Hbond>
0.0000

> <Gold.Chemscore.DEClash>
1.6359

> <Gold.Chemscore.DEInternal>
0.3915

> <Gold.Chemscore.Rot>
1.4785

> <Gold.Chemscore.Internal.Correction>
   9.000000E+99

> <Gold.Chemscore.Hbonds>
donor molecule, donor type, donor heavy atom, donor atom, acceptor molecule, acceptor atom, score
      L1  H    10    27       P1  8028  0.81
      P1  H  7997  8009       L1     6  1.00

> <Gold.Chemscore.Hbond.Weighted>
-6.4542

> <Gold.Chemscore.Metal.Weighted>
-0.0000

> <Gold.Chemscore.Lipo.Weighted>
-14.5255

> <Gold.Chemscore.Internal_Hbond.Weighted>
0.0000

> <Gold.Chemscore.DEClash.Weighted>
1.6359

> <Gold.Chemscore.DEInternal.Weighted>
0.3915

> <Gold.Chemscore.Rot.Weighted>
3.7850

> <Gold.Chemscore.Internal.Correction.Weighted>
   9.000000E+99

> <Gold.Protein.RotatedTorsions>
[ 6907 6896 6895 6894 ] final  -81.36 input  -60.11 | X-H torsion
[ 7974 7965 7964 7962 ] final -126.13 input  175.53 | X-H torsion
[ 8008 7997 7996 7995 ] final -165.48 input   59.86 | X-H torsion
[ 10167 10162 10161 10158 ] final   98.42 input  -65.29 | X-H torsion
[ 10718 10713 10712 10709 ] final -136.47 input   66.30 | X-H torsion
[ 10763 10752 10751 10750 ] final -122.09 input  -60.55 | X-H torsion
[ 11005 11000 10999 10996 ] final -142.96 input  -57.11 | X-H torsion

> <Gold.Protein.ActiveResidues>
 VAL166  LYS551  ARG553  GLY616  TRP617  ASP618  TYR619  PRO620  LYS621  CYS622 
 ASP623  PHE694  ASN695  SER759  ASP760  ASP761  ALA762  ILE779  LEU786  VAL792 
 PHE793  MET794  SER795  GLU796  ALA797  LYS798  CYS799  TRP800  GLU811  SER814 

> <Gold.Protein.RotatedAtoms>
  150.6913  134.3829  159.5041 H   0  0  0  0  0  0  0  0  0  0  0  0  # atno 6907 bound_to 6896
  152.1629  134.8895  160.0549 H   0  0  0  0  0  0  0  0  0  0  0  0  # atno 6908 bound_to 6896
  151.9950  133.3770  159.4196 H   0  0  0  0  0  0  0  0  0  0  0  0  # atno 6909 bound_to 6896
  144.9904  140.7727  143.4557 H   0  0  0  0  0  0  0  0  0  0  0  0  # atno 7974 bound_to 7965
  155.8504  140.0962  157.1678 H   0  0  0  0  0  0  0  0  0  0  0  0  # atno 8008 bound_to 7997
  154.3985  140.1384  156.3899 H   0  0  0  0  0  0  0  0  0  0  0  0  # atno 8009 bound_to 7997
  155.7967  140.3454  155.5382 H   0  0  0  0  0  0  0  0  0  0  0  0  # atno 8010 bound_to 7997
  139.7710  144.6922  151.0156 H   0  0  0  0  0  0  0  0  0  0  0  0  # atno 10167 bound_to 10162
  156.2774  130.7300  151.1287 H   0  0  0  0  0  0  0  0  0  0  0  0  # atno 10718 bound_to 10713
  154.8682  135.4145  154.2726 H   0  0  0  0  0  0  0  0  0  0  0  0  # atno 10763 bound_to 10752
  153.3633  135.7004  153.6700 H   0  0  0  0  0  0  0  0  0  0  0  0  # atno 10764 bound_to 10752
  153.5592  135.3613  155.2764 H   0  0  0  0  0  0  0  0  0  0  0  0  # atno 10765 bound_to 10752
  140.8173  134.2673  157.4915 H   0  0  0  0  0  0  0  0  0  0  0  0  # atno 11005 bound_to 11000
  145.2293  139.2122  143.5051 LP  0  0  0  0  0  0  0  0  0  0  0  0  # atno 17320 bound_to 7965
  146.3430  140.2167  142.8591 LP  0  0  0  0  0  0  0  0  0  0  0  0  # atno 17321 bound_to 7965
  140.7814  143.4588  151.0307 LP  0  0  0  0  0  0  0  0  0  0  0  0  # atno 17342 bound_to 10162
  139.8272  143.7740  152.3179 LP  0  0  0  0  0  0  0  0  0  0  0  0  # atno 17343 bound_to 10162
  157.7303  131.0617  150.5731 LP  0  0  0  0  0  0  0  0  0  0  0  0  # atno 17370 bound_to 10713
  156.5833  130.4310  149.5968 LP  0  0  0  0  0  0  0  0  0  0  0  0  # atno 17371 bound_to 10713
  139.8710  134.9516  156.4090 LP  0  0  0  0  0  0  0  0  0  0  0  0  # atno 17394 bound_to 11000
  140.9136  133.7694  155.9821 LP  0  0  0  0  0  0  0  0  0  0  0  0  # atno 17395 bound_to 11000

$$$$
