AV-unprocessed.smi:1550|AV-procd|sdf|6230|dock2
  -GOLD-   22720 6413D 1   1.00000     0.00000
 Structure written by MMmdl.
 42 43  0  0  0  0  0  0  0  0  2 V2000
  150.9326  139.8873  155.7021 C   0  0  0  0  0  0  0  0  0  0  0  0
  150.3495  139.8018  157.1204 C   0  0  2  0  0  0  0  0  0  0  0  0
  151.1205  140.6616  157.9541 O   0  0  0  0  0  0  0  0  0  0  0  0
  150.8404  142.0514  157.8218 C   0  0  0  0  0  0  0  0  0  0  0  0
  151.4598  142.8182  158.9983 C   0  0  1  0  0  0  0  0  0  0  0  0
  151.0379  144.3007  159.0431 C   0  0  0  0  0  0  0  0  0  0  0  0
  151.6492  144.9930  160.2662 C   0  0  0  0  0  0  0  0  0  0  0  0
  151.3132  144.1955  161.5315 C   0  0  0  0  0  0  0  0  0  0  0  0
  151.7259  142.7238  161.3640 C   0  0  0  0  0  0  0  0  0  0  0  0
  151.0988  142.1647  160.2134 O   0  0  0  0  0  0  0  0  0  0  0  0
  150.3908  138.3628  157.6604 C   0  0  0  0  0  0  0  0  0  0  0  0
  151.4790  137.8129  157.8274 O   0  0  0  0  0  0  0  0  0  0  0  0
  149.1876  137.8139  157.9198 N   0  0  0  0  0  0  0  0  0  0  0  0
  148.8573  136.5480  158.4353 C   0  0  0  0  0  0  0  0  0  0  0  0
  148.1470  136.3228  159.5760 C   0  0  0  0  0  0  0  0  0  0  0  0
  147.8396  134.9795  160.0518 C   0  0  0  0  0  0  0  0  0  0  0  0
  146.9882  134.6930  161.2763 C   0  0  0  0  0  0  0  0  0  0  0  0
  147.5597  135.1725  162.3812 F   0  0  0  0  0  0  0  0  0  0  0  0
  145.7940  135.2685  161.1430 F   0  0  0  0  0  0  0  0  0  0  0  0
  146.8025  133.3823  161.4339 F   0  0  0  0  0  0  0  0  0  0  0  0
  148.3217  134.0000  159.2056 C   0  0  0  0  0  0  0  0  0  0  0  0
  149.0382  134.1359  158.0684 N   0  5  0  0  0  0  0  0  0  0  0  0
  149.3286  135.3959  157.6380 C   0  0  0  0  0  0  0  0  0  0  0  0
  149.9715  135.5903  156.6055 O   0  0  0  0  0  0  0  0  0  0  0  0
  150.3980  139.2316  155.0138 H   0  0  0  0  0  0  0  0  0  0  0  0
  151.9868  139.6076  155.6824 H   0  0  0  0  0  0  0  0  0  0  0  0
  150.8560  140.9035  155.3148 H   0  0  0  0  0  0  0  0  0  0  0  0
  149.3179  140.1581  157.0854 H   0  0  0  0  0  0  0  0  0  0  0  0
  151.2418  142.4263  156.8793 H   0  0  0  0  0  0  0  0  0  0  0  0
  149.7649  142.2301  157.8093 H   0  0  0  0  0  0  0  0  0  0  0  0
  152.5448  142.7622  158.8938 H   0  0  0  0  0  0  0  0  0  0  0  0
  151.3464  144.8103  158.1297 H   0  0  0  0  0  0  0  0  0  0  0  0
  149.9511  144.3789  159.0920 H   0  0  0  0  0  0  0  0  0  0  0  0
  152.7316  145.0583  160.1492 H   0  0  0  0  0  0  0  0  0  0  0  0
  151.2794  146.0153  160.3501 H   0  0  0  0  0  0  0  0  0  0  0  0
  151.8139  144.6317  162.3963 H   0  0  0  0  0  0  0  0  0  0  0  0
  150.2418  144.2528  161.7277 H   0  0  0  0  0  0  0  0  0  0  0  0
  152.8098  142.6320  161.2791 H   0  0  0  0  0  0  0  0  0  0  0  0
  151.4268  142.1496  162.2409 H   0  0  0  0  0  0  0  0  0  0  0  0
  148.3859  138.3890  157.7048 H   0  0  0  0  0  0  0  0  0  0  0  0
  147.7773  137.1378  160.1743 H   0  0  0  0  0  0  0  0  0  0  0  0
  148.0946  132.9482  159.4825 H   0  0  0  0  0  0  0  0  0  0  0  0
  1  2  1  0  0  0  0
  1 25  1  0  0  0  0
  1 26  1  0  0  0  0
  1 27  1  0  0  0  0
  2  3  1  0  0  0  0
  2 11  1  0  0  0  0
  2 28  1  0  0  0  0
  3  4  1  0  0  0  0
  4  5  1  0  0  0  0
  4 29  1  0  0  0  0
  4 30  1  0  0  0  0
  5 10  1  0  0  0  0
  5  6  1  0  0  0  0
  5 31  1  0  0  0  0
  6  7  1  0  0  0  0
  6 32  1  0  0  0  0
  6 33  1  0  0  0  0
  7  8  1  0  0  0  0
  7 34  1  0  0  0  0
  7 35  1  0  0  0  0
  8  9  1  0  0  0  0
  8 36  1  0  0  0  0
  8 37  1  0  0  0  0
  9 10  1  0  0  0  0
  9 38  1  0  0  0  0
  9 39  1  0  0  0  0
 11 12  2  0  0  0  0
 11 13  1  0  0  0  0
 13 14  1  0  0  0  0
 13 40  1  0  0  0  0
 14 23  1  0  0  0  0
 14 15  2  0  0  0  0
 15 16  1  0  0  0  0
 15 41  1  0  0  0  0
 16 17  1  0  0  0  0
 16 21  2  0  0  0  0
 17 18  1  0  0  0  0
 17 19  1  0  0  0  0
 17 20  1  0  0  0  0
 21 22  1  0  0  0  0
 21 42  1  0  0  0  0
 22 23  1  0  0  0  0
 23 24  2  0  0  0  0
M  CHG  1  22  -1
M  END
> <s_m_source_file>
AV-unprocessed.smi

> <i_m_source_file_index>
1550

> <i_lp_mmshare_version>
43012

> <i_f3d_flags>
0

> <s_epik_input>
TzFbQ0gyXVtDSDJdW0NIMl1bQ0gyXVtDQEhdMVtDSDJdT1tDQEBIXShbQ0gzXSlDKD1PKVtOSF1jMltjSF1jKEMoRikoRilGKVtjSF1bbkhdYzI9Tw==

> <s_epik_cmdline>
J2VwaWtfcHl0aG9uJywgJy1waCcsICc3LjAnLCAnLXRuJywgJzgnLCAnLW1hJywgJzIwMCcsICctbWV0YWxfYmluZGluZycsICctaW1hZScsICc8aW5maWxlLm1hZT4nLCAnLW9tYWUnLCAnPG91dGZpbGUubWFlPic=

> <r_epik_Ionization_Penalty>
2.54933

> <r_epik_Ionization_Penalty_Charging>
0.0583423

> <r_epik_Ionization_Penalty_Neutral>
2.49099

> <r_epik_State_Penalty>
2.65532

> <r_epik_Charging_Adjusted_Penalty>
2.71366

> <i_epik_Tot_Q>
-1

> <i_epik_Tot_abs_Q>
1

> <r_epik_Metal_State_Penalty>
0.516364

> <b_epik_Metal_Only>
0

> <s_lp_Force_Field>
OPLS_2005

> <r_lp_Energy>
26.7738

> <b_lp_Chiralities_Consistent>
1

> <s_lp_Variant>
AV-unprocessed.smi:1550-7

> <Gold.Version>
5.8.1

> <Gold.Id.Protein>
6NUR|6NUR_protein|mol2

> <Gold.PLP.Fitness>
51.8708

> <Gold.PLP.PLP>
-47.3243

> <Gold.PLP.part.hbond>
-1.0000

> <Gold.PLP.part.metal>
0.0000

> <Gold.PLP.part.buried>
-5.3847

> <Gold.PLP.part.nonpolar>
-40.4772

> <Gold.PLP.part.repulsive>
0.1101

> <Gold.PLP.ligand.clash>
0.0000

> <Gold.PLP.ligand.torsion>
0.8505

> <Gold.PLP.Chemscore.Hbond>
2.0000

> <Gold.PLP.Chemscore.CHOScore>
0.0000

> <Gold.PLP.Chemscore.Metal>
0.0000

> <Gold.Chemscore.Hbonds>
donor molecule, donor type, donor heavy atom, donor atom, acceptor molecule, acceptor atom, score
      P1  H  6896  6907       L1    22  0.25

> <Gold.PLP.Chemscore.Internal.Correction>
0.2474

> <Gold.Rescore>
     Score         DG    S(hbond)    S(metal)    S(lipo)     H(rot)  DE(clash)    DE(int)     intcor
     11.96     -13.50       0.06        0.00     106.88       1.82       0.02       1.52       ----

> <Gold.Chemscore.Fitness>
11.9584

> <Gold.Chemscore.DG>
-13.5038

> <Gold.Chemscore.ZeroCoef>
-5.4800

> <Gold.Chemscore.Hbond>
0.0561

> <Gold.Chemscore.Metal>
0.0000

> <Gold.Chemscore.Lipo>
106.8792

> <Gold.Chemscore.Internal_Hbond>
0.0000

> <Gold.Chemscore.DEClash>
0.0228

> <Gold.Chemscore.DEInternal>
1.5225

> <Gold.Chemscore.Rot>
1.8236

> <Gold.Chemscore.Internal.Correction>
   9.000000E+99

> <Gold.Chemscore.Hbond.Weighted>
-0.1873

> <Gold.Chemscore.Metal.Weighted>
-0.0000

> <Gold.Chemscore.Lipo.Weighted>
-12.5049

> <Gold.Chemscore.Internal_Hbond.Weighted>
0.0000

> <Gold.Chemscore.DEClash.Weighted>
0.0228

> <Gold.Chemscore.DEInternal.Weighted>
1.5225

> <Gold.Chemscore.Rot.Weighted>
4.6684

> <Gold.Chemscore.Internal.Correction.Weighted>
   9.000000E+99

> <Gold.Protein.RotatedTorsions>
[ 6907 6896 6895 6894 ] final -104.57 input  -60.11 | X-H torsion
[ 7974 7965 7964 7962 ] final  136.76 input  175.53 | X-H torsion
[ 8008 7997 7996 7995 ] final  123.08 input   59.86 | X-H torsion
[ 10167 10162 10161 10158 ] final   20.73 input  -65.29 | X-H torsion
[ 10718 10713 10712 10709 ] final -134.02 input   66.30 | X-H torsion
[ 10763 10752 10751 10750 ] final  -43.74 input  -60.55 | X-H torsion
[ 11005 11000 10999 10996 ] final  130.24 input  -57.11 | X-H torsion

> <Gold.Protein.ActiveResidues>
 VAL166  LYS551  ARG553  GLY616  TRP617  ASP618  TYR619  PRO620  LYS621  CYS622 
 ASP623  PHE694  ASN695  SER759  ASP760  ASP761  ALA762  ILE779  LEU786  VAL792 
 PHE793  MET794  SER795  GLU796  ALA797  LYS798  CYS799  TRP800  GLU811  SER814 

> <Gold.Protein.RotatedAtoms>
  150.7294  134.0257  159.3716 H   0  0  0  0  0  0  0  0  0  0  0  0  # atno 6907 bound_to 6896
  151.8224  135.0645  160.0436 H   0  0  0  0  0  0  0  0  0  0  0  0  # atno 6908 bound_to 6896
  152.2994  133.5604  159.5645 H   0  0  0  0  0  0  0  0  0  0  0  0  # atno 6909 bound_to 6896
  144.9534  139.4793  143.5515 H   0  0  0  0  0  0  0  0  0  0  0  0  # atno 7974 bound_to 7965
  156.2752  140.2771  156.1570 H   0  0  0  0  0  0  0  0  0  0  0  0  # atno 8008 bound_to 7997
  155.0793  140.0387  157.2652 H   0  0  0  0  0  0  0  0  0  0  0  0  # atno 8009 bound_to 7997
  154.6977  140.2642  155.6756 H   0  0  0  0  0  0  0  0  0  0  0  0  # atno 8010 bound_to 7997
  140.5481  143.9559  150.6560 H   0  0  0  0  0  0  0  0  0  0  0  0  # atno 10167 bound_to 10162
  156.2511  130.7153  151.1052 H   0  0  0  0  0  0  0  0  0  0  0  0  # atno 10718 bound_to 10713
  154.0006  135.6694  153.4759 H   0  0  0  0  0  0  0  0  0  0  0  0  # atno 10763 bound_to 10752
  153.0664  135.4998  154.8205 H   0  0  0  0  0  0  0  0  0  0  0  0  # atno 10764 bound_to 10752
  154.7055  135.3087  154.9240 H   0  0  0  0  0  0  0  0  0  0  0  0  # atno 10765 bound_to 10752
  139.9661  134.9590  156.9265 H   0  0  0  0  0  0  0  0  0  0  0  0  # atno 11005 bound_to 11000
  146.3329  139.8634  142.8852 LP  0  0  0  0  0  0  0  0  0  0  0  0  # atno 17320 bound_to 7965
  145.2810  141.0138  143.3717 LP  0  0  0  0  0  0  0  0  0  0  0  0  # atno 17321 bound_to 7965
  140.2977  143.3281  152.1002 LP  0  0  0  0  0  0  0  0  0  0  0  0  # atno 17342 bound_to 10162
  139.5016  144.6716  151.6229 LP  0  0  0  0  0  0  0  0  0  0  0  0  # atno 17343 bound_to 10162
  157.7214  131.0678  150.6117 LP  0  0  0  0  0  0  0  0  0  0  0  0  # atno 17370 bound_to 10713
  156.6197  130.4402  149.5827 LP  0  0  0  0  0  0  0  0  0  0  0  0  # atno 17371 bound_to 10713
  140.5394  134.0734  155.7337 LP  0  0  0  0  0  0  0  0  0  0  0  0  # atno 17394 bound_to 11000
  141.1340  133.9253  157.2474 LP  0  0  0  0  0  0  0  0  0  0  0  0  # atno 17395 bound_to 11000

$$$$
