AV-unprocessed.smi:2511|AV-procd|sdf|9886|dock9
  -GOLD-   2272013523D 1   1.00000     0.00000
 Structure written by MMmdl.
 40 41  0  0  0  0  0  0  0  0  1 V2000
  142.3798  132.3526  150.5123 N   0  0  0  0  0  0  0  0  0  0  0  0
  143.7138  132.3954  150.4279 C   0  0  0  0  0  0  0  0  0  0  0  0
  144.3595  131.5388  149.8258 O   0  0  0  0  0  0  0  0  0  0  0  0
  144.3923  133.5296  151.1494 C   0  0  0  0  0  0  0  0  0  0  0  0
  143.7048  134.2308  152.1661 C   0  0  0  0  0  0  0  0  0  0  0  0
  144.3572  135.2841  152.8348 C   0  0  0  0  0  0  0  0  0  0  0  0
  145.6829  135.6121  152.4659 C   0  0  0  0  0  0  0  0  0  0  0  0
  146.4550  136.6409  153.0700 N   0  0  0  0  0  0  0  0  0  0  0  0
  146.0960  137.5128  154.0327 C   0  0  0  0  0  0  0  0  0  0  0  0
  144.9910  137.5484  154.5692 O   0  0  0  0  0  0  0  0  0  0  0  0
  147.0576  138.3922  154.3688 N   0  0  0  0  0  0  0  0  0  0  0  0
  147.0120  139.4674  155.3656 C   0  0  2  0  0  0  0  0  0  0  0  0
  146.8007  140.8245  154.6672 C   0  0  0  0  0  0  0  0  0  0  0  0
  148.0442  141.2724  153.8807 C   0  0  0  0  0  0  0  0  0  0  0  0
  149.2934  141.3000  154.7752 C   0  0  0  0  0  0  0  0  0  0  0  0
  149.5431  139.9343  155.4490 C   0  0  1  0  0  0  0  0  0  0  0  0
  150.8050  139.9482  156.3365 C   0  0  0  0  0  0  0  0  0  0  0  0
  150.9301  138.7996  157.0019 F   0  0  0  0  0  0  0  0  0  0  0  0
  151.8899  140.1306  155.5837 F   0  0  0  0  0  0  0  0  0  0  0  0
  150.7351  140.9491  157.2144 F   0  0  0  0  0  0  0  0  0  0  0  0
  148.2881  139.4951  156.2370 C   0  0  0  0  0  0  0  0  0  0  0  0
  146.2900  134.8405  151.4548 C   0  0  0  0  0  0  0  0  0  0  0  0
  145.6691  133.8311  150.8093 N   0  0  0  0  0  0  0  0  0  0  0  0
  141.8678  131.6178  150.0468 H   0  0  0  0  0  0  0  0  0  0  0  0
  141.8934  133.0620  151.0414 H   0  0  0  0  0  0  0  0  0  0  0  0
  142.6915  133.9716  152.4374 H   0  0  0  0  0  0  0  0  0  0  0  0
  143.8323  135.8049  153.6200 H   0  0  0  0  0  0  0  0  0  0  0  0
  147.3741  136.7782  152.6752 H   0  0  0  0  0  0  0  0  0  0  0  0
  147.9283  138.3090  153.8639 H   0  0  0  0  0  0  0  0  0  0  0  0
  146.1490  139.3004  156.0125 H   0  0  0  0  0  0  0  0  0  0  0  0
  145.9354  140.7784  154.0047 H   0  0  0  0  0  0  0  0  0  0  0  0
  146.5656  141.5794  155.4187 H   0  0  0  0  0  0  0  0  0  0  0  0
  148.2125  140.6001  153.0387 H   0  0  0  0  0  0  0  0  0  0  0  0
  147.8737  142.2608  153.4531 H   0  0  0  0  0  0  0  0  0  0  0  0
  150.1584  141.5865  154.1763 H   0  0  0  0  0  0  0  0  0  0  0  0
  149.1774  142.0729  155.5362 H   0  0  0  0  0  0  0  0  0  0  0  0
  149.7158  139.2022  154.6584 H   0  0  0  0  0  0  0  0  0  0  0  0
  148.1293  140.1842  157.0674 H   0  0  0  0  0  0  0  0  0  0  0  0
  148.4547  138.5184  156.6920 H   0  0  0  0  0  0  0  0  0  0  0  0
  147.3060  135.0417  151.1478 H   0  0  0  0  0  0  0  0  0  0  0  0
  1  2  1  0  0  0  0
  1 24  1  0  0  0  0
  1 25  1  0  0  0  0
  2  3  2  0  0  0  0
  2  4  1  0  0  0  0
  4 23  1  0  0  0  0
  4  5  2  0  0  0  0
  5  6  1  0  0  0  0
  5 26  1  0  0  0  0
  6  7  2  0  0  0  0
  6 27  1  0  0  0  0
  7  8  1  0  0  0  0
  7 22  1  0  0  0  0
  8  9  1  0  0  0  0
  8 28  1  0  0  0  0
  9 10  2  0  0  0  0
  9 11  1  0  0  0  0
 11 12  1  0  0  0  0
 11 29  1  0  0  0  0
 12 21  1  0  0  0  0
 12 13  1  0  0  0  0
 12 30  1  0  0  0  0
 13 14  1  0  0  0  0
 13 31  1  0  0  0  0
 13 32  1  0  0  0  0
 14 15  1  0  0  0  0
 14 33  1  0  0  0  0
 14 34  1  0  0  0  0
 15 16  1  0  0  0  0
 15 35  1  0  0  0  0
 15 36  1  0  0  0  0
 16 17  1  0  0  0  0
 16 21  1  0  0  0  0
 16 37  1  0  0  0  0
 17 18  1  0  0  0  0
 17 19  1  0  0  0  0
 17 20  1  0  0  0  0
 21 38  1  0  0  0  0
 21 39  1  0  0  0  0
 22 23  2  0  0  0  0
 22 40  1  0  0  0  0
M  END
> <s_m_source_file>
AV-unprocessed.smi

> <i_m_source_file_index>
2511

> <i_lp_mmshare_version>
43012

> <i_f3d_flags>
0

> <s_epik_input>
W05IMl1DKD1PKWMxW2NIXVtjSF1jKFtjSF1uMSlbTkhdQyg9TylbTkhdW0NAQEhdMltDSDJdW0NIMl1bQ0gyXVtDQEBIXShDKEYpKEYpRilbQ0gyXTI=

> <s_epik_cmdline>
J2VwaWtfcHl0aG9uJywgJy1waCcsICc3LjAnLCAnLXRuJywgJzgnLCAnLW1hJywgJzIwMCcsICctbWV0YWxfYmluZGluZycsICctaW1hZScsICc8aW5maWxlLm1hZT4nLCAnLW9tYWUnLCAnPG91dGZpbGUubWFlPic=

> <r_lp_tautomer_probability>
1

> <r_epik_Ionization_Penalty>
4.28758e-05

> <r_epik_Ionization_Penalty_Charging>
0

> <r_epik_Ionization_Penalty_Neutral>
4.28758e-05

> <r_epik_State_Penalty>
-0

> <r_epik_Charging_Adjusted_Penalty>
0

> <i_epik_Tot_Q>
0

> <i_epik_Tot_abs_Q>
0

> <r_epik_Metal_State_Penalty>
-0

> <b_epik_Metal_Only>
0

> <s_lp_Force_Field>
OPLS_2005

> <r_lp_Energy>
27.7433

> <b_lp_Chiralities_Consistent>
1

> <s_lp_Variant>
AV-unprocessed.smi:2511-1

> <Gold.Version>
5.8.1

> <Gold.Id.Protein>
6NUR|6NUR_protein|mol2

> <Gold.PLP.Fitness>
41.0454

> <Gold.PLP.PLP>
-30.9157

> <Gold.PLP.part.hbond>
-3.3039

> <Gold.PLP.part.metal>
0.0000

> <Gold.PLP.part.buried>
-2.3715

> <Gold.PLP.part.nonpolar>
-25.6413

> <Gold.PLP.part.repulsive>
0.5269

> <Gold.PLP.ligand.clash>
0.0000

> <Gold.PLP.ligand.torsion>
0.4772

> <Gold.PLP.Chemscore.Hbond>
2.6873

> <Gold.PLP.Chemscore.CHOScore>
1.0000

> <Gold.PLP.Chemscore.Metal>
0.0000

> <Gold.Chemscore.Hbonds>
donor molecule, donor type, donor heavy atom, donor atom, acceptor molecule, acceptor atom, score
      L1  H     1    24       P1 10952  1.00
      L1  H     1    25       P1 10186  0.08
      L1  H     8    28       P1  7948  1.00
      P1  H 10785 10796       L1     3  0.43
      L1  C    22    40       P1  7948  1.00

> <Gold.PLP.Chemscore.Internal.Correction>
0.0222

> <Gold.Rescore>
     Score         DG    S(hbond)    S(metal)    S(lipo)     H(rot)  DE(clash)    DE(int)     intcor
     16.41     -18.37       2.64        0.00      56.70       1.00       0.29       1.67       ----

> <Gold.Chemscore.Fitness>
16.4066

> <Gold.Chemscore.DG>
-18.3748

> <Gold.Chemscore.ZeroCoef>
-5.4800

> <Gold.Chemscore.Hbond>
2.6409

> <Gold.Chemscore.Metal>
0.0000

> <Gold.Chemscore.Lipo>
56.7025

> <Gold.Chemscore.Internal_Hbond>
0.0000

> <Gold.Chemscore.DEClash>
0.2933

> <Gold.Chemscore.DEInternal>
1.6749

> <Gold.Chemscore.Rot>
1.0000

> <Gold.Chemscore.Internal.Correction>
   9.000000E+99

> <Gold.Chemscore.Hbonds>
donor molecule, donor type, donor heavy atom, donor atom, acceptor molecule, acceptor atom, score
      L1  H     1    24       P1 10952  0.82
      L1  H     1    25       P1 10186  0.08
      L1  H     8    28       P1  7948  0.98
      P1  H 10785 10796       L1     3  0.39

> <Gold.Chemscore.Hbond.Weighted>
-8.8206

> <Gold.Chemscore.Metal.Weighted>
-0.0000

> <Gold.Chemscore.Lipo.Weighted>
-6.6342

> <Gold.Chemscore.Internal_Hbond.Weighted>
0.0000

> <Gold.Chemscore.DEClash.Weighted>
0.2933

> <Gold.Chemscore.DEInternal.Weighted>
1.6749

> <Gold.Chemscore.Rot.Weighted>
2.5600

> <Gold.Chemscore.Internal.Correction.Weighted>
   9.000000E+99

> <Gold.Protein.RotatedTorsions>
[ 6907 6896 6895 6894 ] final    1.64 input  -60.11 | X-H torsion
[ 7974 7965 7964 7962 ] final   54.37 input  175.53 | X-H torsion
[ 8008 7997 7996 7995 ] final -118.09 input   59.86 | X-H torsion
[ 10167 10162 10161 10158 ] final  103.14 input  -65.29 | X-H torsion
[ 10718 10713 10712 10709 ] final -122.78 input   66.30 | X-H torsion
[ 10763 10752 10751 10750 ] final  -28.80 input  -60.55 | X-H torsion
[ 11005 11000 10999 10996 ] final  175.63 input  -57.11 | X-H torsion

> <Gold.Protein.ActiveResidues>
 VAL166  LYS551  ARG553  GLY616  TRP617  ASP618  TYR619  PRO620  LYS621  CYS622 
 ASP623  PHE694  ASN695  SER759  ASP760  ASP761  ALA762  ILE779  LEU786  VAL792 
 PHE793  MET794  SER795  GLU796  ALA797  LYS798  CYS799  TRP800  GLU811  SER814 

> <Gold.Protein.RotatedAtoms>
  151.5959  135.1050  160.0049 H   0  0  0  0  0  0  0  0  0  0  0  0  # atno 6907 bound_to 6896
  152.4283  133.7229  159.6554 H   0  0  0  0  0  0  0  0  0  0  0  0  # atno 6908 bound_to 6896
  150.8173  133.8243  159.3177 H   0  0  0  0  0  0  0  0  0  0  0  0  # atno 6909 bound_to 6896
  145.9616  139.4064  143.0245 H   0  0  0  0  0  0  0  0  0  0  0  0  # atno 7974 bound_to 7965
  155.0940  140.0395  157.2677 H   0  0  0  0  0  0  0  0  0  0  0  0  # atno 8008 bound_to 7997
  154.6809  140.2633  155.6884 H   0  0  0  0  0  0  0  0  0  0  0  0  # atno 8009 bound_to 7997
  156.2694  140.2778  156.1353 H   0  0  0  0  0  0  0  0  0  0  0  0  # atno 8010 bound_to 7997
  139.7289  144.7041  151.0754 H   0  0  0  0  0  0  0  0  0  0  0  0  # atno 10167 bound_to 10162
  156.1447  130.6491  150.9824 H   0  0  0  0  0  0  0  0  0  0  0  0  # atno 10718 bound_to 10713
  153.7543  135.6924  153.4939 H   0  0  0  0  0  0  0  0  0  0  0  0  # atno 10763 bound_to 10752
  153.1982  135.4446  155.0232 H   0  0  0  0  0  0  0  0  0  0  0  0  # atno 10764 bound_to 10752
  154.8176  135.3406  154.7062 H   0  0  0  0  0  0  0  0  0  0  0  0  # atno 10765 bound_to 10752
  140.3643  134.7085  157.4351 H   0  0  0  0  0  0  0  0  0  0  0  0  # atno 11005 bound_to 11000
  145.8032  140.9761  143.0988 LP  0  0  0  0  0  0  0  0  0  0  0  0  # atno 17320 bound_to 7965
  144.6816  139.9828  143.7483 LP  0  0  0  0  0  0  0  0  0  0  0  0  # atno 17321 bound_to 7965
  140.7767  143.5069  150.9701 LP  0  0  0  0  0  0  0  0  0  0  0  0  # atno 17342 bound_to 10162
  139.8757  143.7136  152.3162 LP  0  0  0  0  0  0  0  0  0  0  0  0  # atno 17343 bound_to 10162
  157.6606  131.0881  150.7847 LP  0  0  0  0  0  0  0  0  0  0  0  0  # atno 17370 bound_to 10713
  156.7920  130.4893  149.5383 LP  0  0  0  0  0  0  0  0  0  0  0  0  # atno 17371 bound_to 10713
  140.0602  134.6007  155.8758 LP  0  0  0  0  0  0  0  0  0  0  0  0  # atno 17394 bound_to 11000
  141.1974  133.6596  156.5741 LP  0  0  0  0  0  0  0  0  0  0  0  0  # atno 17395 bound_to 11000

$$$$
