AV-unprocessed.smi:2895|AV-procd|sdf|11130|dock4
  -GOLD-   2272016 03D 1   1.00000     0.00000
 Structure written by MMmdl.
 53 56  0  0  0  0  0  0  0  0  2 V2000
  149.5952  139.6089  157.1424 O   0  0  0  0  0  0  0  0  0  0  0  0
  150.3087  138.6060  157.1017 C   0  0  0  0  0  0  0  0  0  0  0  0
  151.6036  138.6399  157.4607 N   0  0  0  0  0  0  0  0  0  0  0  0
  152.3164  139.8213  157.9336 C   0  0  0  0  0  0  0  0  0  0  0  0
  151.5176  140.5812  159.0063 C   0  0  0  0  0  0  0  0  0  0  0  0
  151.7265  142.0807  158.9198 C   0  0  0  0  0  0  0  0  0  0  0  0
  152.3101  142.7871  159.9917 C   0  0  0  0  0  0  0  0  0  0  0  0
  152.4878  144.1792  159.8618 C   0  0  0  0  0  0  0  0  0  0  0  0
  152.1254  144.8736  158.7615 N   0  0  0  0  0  0  0  0  0  0  0  0
  151.5660  144.1904  157.7396 C   0  0  0  0  0  0  0  0  0  0  0  0
  151.3459  142.7985  157.7671 C   0  0  0  0  0  0  0  0  0  0  0  0
  149.8552  137.3883  156.7072 N   0  0  0  0  0  0  0  0  0  0  0  0
  150.6773  136.2156  156.3672 C   0  0  0  0  0  0  0  0  0  0  0  0
  150.5074  135.8854  154.8693 C   0  0  0  0  0  0  0  0  0  0  0  0
  149.0771  135.6743  154.4933 N   0  3  0  0  0  0  0  0  0  0  0  0
  148.5424  134.3323  154.8925 C   0  0  2  0  0  0  0  0  0  0  0  0
  149.5292  133.1725  154.5845 C   0  0  0  0  0  0  0  0  0  0  0  0
  148.6796  132.1691  153.7895 C   0  0  1  0  0  0  0  0  0  0  0  0
  147.6096  131.5487  154.7040 C   0  0  0  0  0  0  0  0  0  0  0  0
  146.6189  132.7106  154.8936 C   0  0  0  0  0  0  0  0  0  0  0  0
  147.2820  133.8603  154.1101 C   0  0  2  0  0  0  0  0  0  0  0  0
  147.8616  133.1090  152.9167 C   0  0  0  0  0  0  0  0  0  0  0  0
  148.2510  136.8361  154.9352 C   0  0  0  0  0  0  0  0  0  0  0  0
  148.4347  137.1399  156.4351 C   0  0  0  0  0  0  0  0  0  0  0  0
  152.1316  137.7809  157.4131 H   0  0  0  0  0  0  0  0  0  0  0  0
  153.2974  139.5337  158.3157 H   0  0  0  0  0  0  0  0  0  0  0  0
  152.4953  140.4716  157.0767 H   0  0  0  0  0  0  0  0  0  0  0  0
  150.4543  140.3585  158.9078 H   0  0  0  0  0  0  0  0  0  0  0  0
  151.8097  140.2508  160.0038 H   0  0  0  0  0  0  0  0  0  0  0  0
  152.6179  142.2761  160.8925 H   0  0  0  0  0  0  0  0  0  0  0  0
  152.9332  144.7500  160.6632 H   0  0  0  0  0  0  0  0  0  0  0  0
  151.2863  144.7703  156.8727 H   0  0  0  0  0  0  0  0  0  0  0  0
  150.8962  142.2986  156.9219 H   0  0  0  0  0  0  0  0  0  0  0  0
  151.7383  136.3390  156.5829 H   0  0  0  0  0  0  0  0  0  0  0  0
  150.3598  135.3728  156.9821 H   0  0  0  0  0  0  0  0  0  0  0  0
  150.8871  136.7208  154.2793 H   0  0  0  0  0  0  0  0  0  0  0  0
  151.1355  135.0370  154.6047 H   0  0  0  0  0  0  0  0  0  0  0  0
  148.3199  134.3543  155.9596 H   0  0  0  0  0  0  0  0  0  0  0  0
  150.3572  133.4929  153.9514 H   0  0  0  0  0  0  0  0  0  0  0  0
  149.9528  132.7363  155.4900 H   0  0  0  0  0  0  0  0  0  0  0  0
  149.2706  131.4323  153.2446 H   0  0  0  0  0  0  0  0  0  0  0  0
  147.1211  130.7032  154.2178 H   0  0  0  0  0  0  0  0  0  0  0  0
  148.0274  131.1981  155.6486 H   0  0  0  0  0  0  0  0  0  0  0  0
  145.6504  132.4581  154.4599 H   0  0  0  0  0  0  0  0  0  0  0  0
  146.4566  132.9557  155.9438 H   0  0  0  0  0  0  0  0  0  0  0  0
  146.5574  134.6253  153.8435 H   0  0  0  0  0  0  0  0  0  0  0  0
  148.4696  133.7365  152.2624 H   0  0  0  0  0  0  0  0  0  0  0  0
  147.1064  132.5950  152.3193 H   0  0  0  0  0  0  0  0  0  0  0  0
  148.5733  137.7063  154.3613 H   0  0  0  0  0  0  0  0  0  0  0  0
  147.1974  136.7226  154.6969 H   0  0  0  0  0  0  0  0  0  0  0  0
  148.0916  136.3026  157.0437 H   0  0  0  0  0  0  0  0  0  0  0  0
  147.7968  137.9803  156.7123 H   0  0  0  0  0  0  0  0  0  0  0  0
  149.0473  135.6767  153.4836 H   0  0  0  0  0  0  0  0  0  0  0  0
  1  2  2  0  0  0  0
  2  3  1  0  0  0  0
  2 12  1  0  0  0  0
  3  4  1  0  0  0  0
  3 25  1  0  0  0  0
  4  5  1  0  0  0  0
  4 26  1  0  0  0  0
  4 27  1  0  0  0  0
  5  6  1  0  0  0  0
  5 28  1  0  0  0  0
  5 29  1  0  0  0  0
  6 11  1  0  0  0  0
  6  7  2  0  0  0  0
  7  8  1  0  0  0  0
  7 30  1  0  0  0  0
  8  9  2  0  0  0  0
  8 31  1  0  0  0  0
  9 10  1  0  0  0  0
 10 11  2  0  0  0  0
 10 32  1  0  0  0  0
 11 33  1  0  0  0  0
 12 24  1  0  0  0  0
 12 13  1  0  0  0  0
 13 14  1  0  0  0  0
 13 34  1  0  0  0  0
 13 35  1  0  0  0  0
 14 15  1  0  0  0  0
 14 36  1  0  0  0  0
 14 37  1  0  0  0  0
 15 16  1  0  0  0  0
 15 23  1  0  0  0  0
 15 53  1  0  0  0  0
 16 21  1  0  0  0  0
 16 17  1  0  0  0  0
 16 38  1  0  0  0  0
 17 18  1  0  0  0  0
 17 39  1  0  0  0  0
 17 40  1  0  0  0  0
 18 22  1  0  0  0  0
 18 19  1  0  0  0  0
 18 41  1  0  0  0  0
 19 20  1  0  0  0  0
 19 42  1  0  0  0  0
 19 43  1  0  0  0  0
 20 21  1  0  0  0  0
 20 44  1  0  0  0  0
 20 45  1  0  0  0  0
 21 22  1  0  0  0  0
 21 46  1  0  0  0  0
 22 47  1  0  0  0  0
 22 48  1  0  0  0  0
 23 24  1  0  0  0  0
 23 49  1  0  0  0  0
 23 50  1  0  0  0  0
 24 51  1  0  0  0  0
 24 52  1  0  0  0  0
M  CHG  1  15   1
M  END
> <s_m_source_file>
AV-unprocessed.smi

> <i_m_source_file_index>
2895

> <i_lp_mmshare_version>
43012

> <i_f3d_flags>
0

> <s_epik_input>
W0NIMl0xW0NIMl1bQ0BASF0oW0NIMl0yKVtDQEBIXShbQ0gyXVtDQEhdMTIpTihbQ0gyXVtDSDJdMylbQ0gyXVtDSDJdTjNDKD1PKVtOSF1bQ0gyXVtDSDJdYzRbY0hdW2NIXW5bY0hdW2NIXTQ=

> <s_epik_cmdline>
J2VwaWtfcHl0aG9uJywgJy1waCcsICc3LjAnLCAnLXRuJywgJzgnLCAnLW1hJywgJzIwMCcsICctbWV0YWxfYmluZGluZycsICctaW1hZScsICc8aW5maWxlLm1hZT4nLCAnLW9tYWUnLCAnPG91dGZpbGUubWFlPic=

> <r_epik_Ionization_Penalty>
0.0566172

> <r_epik_Ionization_Penalty_Charging>
0.00262064

> <r_epik_Ionization_Penalty_Neutral>
0.0539965

> <r_epik_State_Penalty>
0.0463959

> <r_epik_Charging_Adjusted_Penalty>
0.0490165

> <i_epik_Tot_Q>
1

> <i_epik_Tot_abs_Q>
1

> <r_epik_Metal_State_Penalty>
0.0424856

> <b_epik_Metal_Only>
0

> <s_lp_Force_Field>
OPLS_2005

> <r_lp_Energy>
100.404

> <b_lp_Chiralities_Consistent>
1

> <s_lp_Variant>
AV-unprocessed.smi:2895-3

> <Gold.Version>
5.8.1

> <Gold.Id.Protein>
6NUR|6NUR_protein|mol2

> <Gold.PLP.Fitness>
45.0655

> <Gold.PLP.PLP>
-37.1339

> <Gold.PLP.part.hbond>
-1.0000

> <Gold.PLP.part.metal>
0.0000

> <Gold.PLP.part.buried>
-4.4904

> <Gold.PLP.part.nonpolar>
-32.0842

> <Gold.PLP.part.repulsive>
0.1164

> <Gold.PLP.ligand.clash>
0.0000

> <Gold.PLP.ligand.torsion>
0.5830

> <Gold.PLP.Chemscore.Hbond>
2.0000

> <Gold.PLP.Chemscore.CHOScore>
1.0000

> <Gold.PLP.Chemscore.Metal>
0.0000

> <Gold.Chemscore.Hbonds>
donor molecule, donor type, donor heavy atom, donor atom, acceptor molecule, acceptor atom, score
      L1  H    15    53       P1  7948  2.00
      L1  C    10    32       P1  8028  0.66

> <Gold.PLP.Chemscore.Internal.Correction>
0.0975

> <Gold.Rescore>
     Score         DG    S(hbond)    S(metal)    S(lipo)     H(rot)  DE(clash)    DE(int)     intcor
     16.06     -18.04       0.94        0.00     110.45       1.37       0.06       1.92       ----

> <Gold.Chemscore.Fitness>
16.0579

> <Gold.Chemscore.DG>
-18.0365

> <Gold.Chemscore.ZeroCoef>
-5.4800

> <Gold.Chemscore.Hbond>
0.9427

> <Gold.Chemscore.Metal>
0.0000

> <Gold.Chemscore.Lipo>
110.4532

> <Gold.Chemscore.Internal_Hbond>
0.0000

> <Gold.Chemscore.DEClash>
0.0556

> <Gold.Chemscore.DEInternal>
1.9230

> <Gold.Chemscore.Rot>
1.3731

> <Gold.Chemscore.Internal.Correction>
   9.000000E+99

> <Gold.Chemscore.Hbonds>
donor molecule, donor type, donor heavy atom, donor atom, acceptor molecule, acceptor atom, score
      L1  H    15    53       P1  7948  0.78

> <Gold.Chemscore.Hbond.Weighted>
-3.1487

> <Gold.Chemscore.Metal.Weighted>
-0.0000

> <Gold.Chemscore.Lipo.Weighted>
-12.9230

> <Gold.Chemscore.Internal_Hbond.Weighted>
0.0000

> <Gold.Chemscore.DEClash.Weighted>
0.0556

> <Gold.Chemscore.DEInternal.Weighted>
1.9230

> <Gold.Chemscore.Rot.Weighted>
3.5152

> <Gold.Chemscore.Internal.Correction.Weighted>
   9.000000E+99

> <Gold.Protein.RotatedTorsions>
[ 6907 6896 6895 6894 ] final  -18.07 input  -60.11 | X-H torsion
[ 7974 7965 7964 7962 ] final  -24.12 input  175.53 | X-H torsion
[ 8008 7997 7996 7995 ] final   87.88 input   59.86 | X-H torsion
[ 10167 10162 10161 10158 ] final -169.32 input  -65.29 | X-H torsion
[ 10718 10713 10712 10709 ] final   81.56 input   66.30 | X-H torsion
[ 10763 10752 10751 10750 ] final   67.37 input  -60.55 | X-H torsion
[ 11005 11000 10999 10996 ] final   87.44 input  -57.11 | X-H torsion

> <Gold.Protein.ActiveResidues>
 VAL166  LYS551  ARG553  GLY616  TRP617  ASP618  TYR619  PRO620  LYS621  CYS622 
 ASP623  PHE694  ASN695  SER759  ASP760  ASP761  ALA762  ILE779  LEU786  VAL792 
 PHE793  MET794  SER795  GLU796  ALA797  LYS798  CYS799  TRP800  GLU811  SER814 

> <Gold.Protein.RotatedAtoms>
  151.2838  135.0722  159.9178 H   0  0  0  0  0  0  0  0  0  0  0  0  # atno 6907 bound_to 6896
  152.5329  134.0003  159.7902 H   0  0  0  0  0  0  0  0  0  0  0  0  # atno 6908 bound_to 6896
  151.0261  133.5781  159.2696 H   0  0  0  0  0  0  0  0  0  0  0  0  # atno 6909 bound_to 6896
  146.1574  140.4709  142.8585 H   0  0  0  0  0  0  0  0  0  0  0  0  # atno 7974 bound_to 7965
  155.9809  140.3377  155.6662 H   0  0  0  0  0  0  0  0  0  0  0  0  # atno 8008 bound_to 7997
  155.6550  140.0710  157.2592 H   0  0  0  0  0  0  0  0  0  0  0  0  # atno 8009 bound_to 7997
  154.4191  140.1719  156.1702 H   0  0  0  0  0  0  0  0  0  0  0  0  # atno 8010 bound_to 7997
  139.5930  144.1172  152.1656 H   0  0  0  0  0  0  0  0  0  0  0  0  # atno 10167 bound_to 10162
  157.6836  131.0009  150.2245 H   0  0  0  0  0  0  0  0  0  0  0  0  # atno 10718 bound_to 10713
  153.0183  135.5286  154.6969 H   0  0  0  0  0  0  0  0  0  0  0  0  # atno 10763 bound_to 10752
  154.6088  135.2876  155.0457 H   0  0  0  0  0  0  0  0  0  0  0  0  # atno 10764 bound_to 10752
  154.1486  135.6566  153.5011 H   0  0  0  0  0  0  0  0  0  0  0  0  # atno 10765 bound_to 10752
  139.8919  134.8423  156.2861 H   0  0  0  0  0  0  0  0  0  0  0  0  # atno 11005 bound_to 11000
  144.7982  140.6162  143.6496 LP  0  0  0  0  0  0  0  0  0  0  0  0  # atno 17320 bound_to 7965
  145.4674  139.1507  143.3833 LP  0  0  0  0  0  0  0  0  0  0  0  0  # atno 17321 bound_to 7965
  140.0751  144.5747  150.7163 LP  0  0  0  0  0  0  0  0  0  0  0  0  # atno 17342 bound_to 10162
  140.7189  143.2570  151.4344 LP  0  0  0  0  0  0  0  0  0  0  0  0  # atno 17343 bound_to 10162
  156.2890  130.3743  149.7860 LP  0  0  0  0  0  0  0  0  0  0  0  0  # atno 17370 bound_to 10713
  156.5525  130.8348  151.3304 LP  0  0  0  0  0  0  0  0  0  0  0  0  # atno 17371 bound_to 10713
  141.0007  133.7153  156.0956 LP  0  0  0  0  0  0  0  0  0  0  0  0  # atno 17394 bound_to 11000
  140.7502  134.4054  157.5542 LP  0  0  0  0  0  0  0  0  0  0  0  0  # atno 17395 bound_to 11000

$$$$
