AV-unprocessed.smi:3331|AV-procd|sdf|12827|dock3
  -GOLD-   2272019203D 1   1.00000     0.00000
 Structure written by MMmdl.
 46 47  0  0  0  0  0  0  0  0  1 V2000
  151.2621  144.7349  158.9632 C   0  0  0  0  0  0  0  0  0  0  0  0
  151.6201  143.3707  159.5682 C   0  0  2  0  0  0  0  0  0  0  0  0
  152.3551  143.5231  160.9196 C   0  0  0  0  0  0  0  0  0  0  0  0
  152.8433  142.1692  161.4847 C   0  0  2  0  0  0  0  0  0  0  0  0
  153.6817  142.3581  162.7563 C   0  0  0  0  0  0  0  0  0  0  0  0
  153.6163  141.3846  160.4031 C   0  0  0  0  0  0  0  0  0  0  0  0
  152.7435  141.2282  159.2330 N   0  0  0  0  0  0  0  0  0  0  0  0
  152.1610  140.0446  158.9155 C   0  0  0  0  0  0  0  0  0  0  0  0
  152.4529  138.9999  159.5019 O   0  0  0  0  0  0  0  0  0  0  0  0
  151.0855  139.9792  157.8045 C   0  0  1  0  0  0  0  0  0  0  0  0
  151.7021  140.3737  156.4531 C   0  0  0  0  0  0  0  0  0  0  0  0
  150.4678  138.6467  157.6905 N   0  0  0  0  0  0  0  0  0  0  0  0
  149.7524  138.2373  158.8962 C   0  0  0  0  0  0  0  0  0  0  0  0
  149.2584  136.7900  158.7459 C   0  0  0  0  0  0  0  0  0  0  0  0
  148.4249  136.3878  159.8648 N   0  0  0  0  0  0  0  0  0  0  0  0
  147.9051  135.1412  160.1440 C   0  0  0  0  0  0  0  0  0  0  0  0
  147.2067  135.2450  161.3127 C   0  0  0  0  0  0  0  0  0  0  0  0
  147.3597  136.6120  161.6772 C   0  0  0  0  0  0  0  0  0  0  0  0
  148.0878  137.2939  160.8079 N   0  0  0  0  0  0  0  0  0  0  0  0
  152.4749  142.5261  158.6021 C   0  0  0  0  0  0  0  0  0  0  0  0
  152.1560  145.3222  158.7508 H   0  0  0  0  0  0  0  0  0  0  0  0
  150.6369  145.3138  159.6437 H   0  0  0  0  0  0  0  0  0  0  0  0
  150.7115  144.6169  158.0296 H   0  0  0  0  0  0  0  0  0  0  0  0
  150.6863  142.8357  159.7488 H   0  0  0  0  0  0  0  0  0  0  0  0
  153.2142  144.1821  160.7847 H   0  0  0  0  0  0  0  0  0  0  0  0
  151.7037  144.0147  161.6431 H   0  0  0  0  0  0  0  0  0  0  0  0
  151.9638  141.5830  161.7566 H   0  0  0  0  0  0  0  0  0  0  0  0
  154.5822  142.9394  162.5555 H   0  0  0  0  0  0  0  0  0  0  0  0
  153.9909  141.3971  163.1686 H   0  0  0  0  0  0  0  0  0  0  0  0
  153.1130  142.8794  163.5270 H   0  0  0  0  0  0  0  0  0  0  0  0
  154.5218  141.9214  160.1163 H   0  0  0  0  0  0  0  0  0  0  0  0
  153.9575  140.4296  160.8053 H   0  0  0  0  0  0  0  0  0  0  0  0
  150.2746  140.6720  158.0255 H   0  0  0  0  0  0  0  0  0  0  0  0
  152.1564  141.3643  156.4930 H   0  0  0  0  0  0  0  0  0  0  0  0
  150.9438  140.3961  155.6698 H   0  0  0  0  0  0  0  0  0  0  0  0
  152.4748  139.6679  156.1450 H   0  0  0  0  0  0  0  0  0  0  0  0
  149.8525  138.5813  156.8926 H   0  0  0  0  0  0  0  0  0  0  0  0
  150.3735  138.3142  159.7892 H   0  0  0  0  0  0  0  0  0  0  0  0
  148.9065  138.9092  159.0438 H   0  0  0  0  0  0  0  0  0  0  0  0
  148.6740  136.6910  157.8302 H   0  0  0  0  0  0  0  0  0  0  0  0
  150.0965  136.0972  158.6580 H   0  0  0  0  0  0  0  0  0  0  0  0
  148.0795  134.2931  159.4982 H   0  0  0  0  0  0  0  0  0  0  0  0
  146.6714  134.4629  161.8302 H   0  0  0  0  0  0  0  0  0  0  0  0
  146.9660  137.1259  162.5418 H   0  0  0  0  0  0  0  0  0  0  0  0
  152.0031  142.4472  157.6247 H   0  0  0  0  0  0  0  0  0  0  0  0
  153.4225  143.0314  158.4088 H   0  0  0  0  0  0  0  0  0  0  0  0
  1  2  1  0  0  0  0
  1 21  1  0  0  0  0
  1 22  1  0  0  0  0
  1 23  1  0  0  0  0
  2 20  1  0  0  0  0
  2  3  1  0  0  0  0
  2 24  1  0  0  0  0
  3  4  1  0  0  0  0
  3 25  1  0  0  0  0
  3 26  1  0  0  0  0
  4  5  1  0  0  0  0
  4  6  1  0  0  0  0
  4 27  1  0  0  0  0
  5 28  1  0  0  0  0
  5 29  1  0  0  0  0
  5 30  1  0  0  0  0
  6  7  1  0  0  0  0
  6 31  1  0  0  0  0
  6 32  1  0  0  0  0
  7  8  1  0  0  0  0
  7 20  1  0  0  0  0
  8  9  2  0  0  0  0
  8 10  1  0  0  0  0
 10 11  1  0  0  0  0
 10 12  1  0  0  0  0
 10 33  1  0  0  0  0
 11 34  1  0  0  0  0
 11 35  1  0  0  0  0
 11 36  1  0  0  0  0
 12 13  1  0  0  0  0
 12 37  1  0  0  0  0
 13 14  1  0  0  0  0
 13 38  1  0  0  0  0
 13 39  1  0  0  0  0
 14 15  1  0  0  0  0
 14 40  1  0  0  0  0
 14 41  1  0  0  0  0
 15 19  1  0  0  0  0
 15 16  1  0  0  0  0
 16 17  2  0  0  0  0
 16 42  1  0  0  0  0
 17 18  1  0  0  0  0
 17 43  1  0  0  0  0
 18 19  2  0  0  0  0
 18 44  1  0  0  0  0
 20 45  1  0  0  0  0
 20 46  1  0  0  0  0
M  END
> <s_m_source_file>
AV-unprocessed.smi

> <i_m_source_file_index>
3331

> <i_lp_mmshare_version>
43012

> <i_f3d_flags>
0

> <s_epik_input>
W0NIM11bQ0BASF0xW0NIMl1bQ0BASF0oW0NIM10pW0NIMl1OKFtDSDJdMSlDKD1PKVtDQEhdKFtDSDNdKVtOSF1bQ0gyXVtDSDJdbjJbY0hdW2NIXVtjSF1uMg==

> <s_epik_cmdline>
J2VwaWtfcHl0aG9uJywgJy1waCcsICc3LjAnLCAnLXRuJywgJzgnLCAnLW1hJywgJzIwMCcsICctbWV0YWxfYmluZGluZycsICctaW1hZScsICc8aW5maWxlLm1hZT4nLCAnLW9tYWUnLCAnPG91dGZpbGUubWFlPic=

> <r_lp_tautomer_probability>
1

> <r_epik_Ionization_Penalty>
0.767994

> <r_epik_Ionization_Penalty_Charging>
0

> <r_epik_Ionization_Penalty_Neutral>
0.767994

> <r_epik_State_Penalty>
0.795453

> <r_epik_Charging_Adjusted_Penalty>
0.795453

> <i_epik_Tot_Q>
0

> <i_epik_Tot_abs_Q>
0

> <r_epik_Metal_State_Penalty>
0.794784

> <b_epik_Metal_Only>
0

> <s_lp_Force_Field>
OPLS_2005

> <r_lp_Energy>
28.4318

> <b_lp_Chiralities_Consistent>
1

> <s_lp_Variant>
AV-unprocessed.smi:3331-11

> <Gold.Version>
5.8.1

> <Gold.Id.Protein>
6NUR|6NUR_protein|mol2

> <Gold.PLP.Fitness>
49.2030

> <Gold.PLP.PLP>
-44.8078

> <Gold.PLP.part.hbond>
-2.0000

> <Gold.PLP.part.metal>
0.0000

> <Gold.PLP.part.buried>
-4.1192

> <Gold.PLP.part.nonpolar>
-38.6174

> <Gold.PLP.part.repulsive>
0.0000

> <Gold.PLP.ligand.clash>
0.0000

> <Gold.PLP.ligand.torsion>
0.1164

> <Gold.PLP.Chemscore.Hbond>
1.5134

> <Gold.PLP.Chemscore.CHOScore>
0.0000

> <Gold.PLP.Chemscore.Metal>
0.0000

> <Gold.Chemscore.Hbonds>
donor molecule, donor type, donor heavy atom, donor atom, acceptor molecule, acceptor atom, score
      P1  H  6931  6943       L1    19  0.83
      P1  H  6934  6947       L1    19  0.69

> <Gold.PLP.Chemscore.Internal.Correction>
0.0879

> <Gold.Rescore>
     Score         DG    S(hbond)    S(metal)    S(lipo)     H(rot)  DE(clash)    DE(int)     intcor
     17.49     -19.13       1.39        0.00     113.56       1.66       0.19       1.45       ----

> <Gold.Chemscore.Fitness>
17.4930

> <Gold.Chemscore.DG>
-19.1342

> <Gold.Chemscore.ZeroCoef>
-5.4800

> <Gold.Chemscore.Hbond>
1.3862

> <Gold.Chemscore.Metal>
0.0000

> <Gold.Chemscore.Lipo>
113.5592

> <Gold.Chemscore.Internal_Hbond>
0.0000

> <Gold.Chemscore.DEClash>
0.1935

> <Gold.Chemscore.DEInternal>
1.4478

> <Gold.Chemscore.Rot>
1.6649

> <Gold.Chemscore.Internal.Correction>
   9.000000E+99

> <Gold.Chemscore.Hbonds>
donor molecule, donor type, donor heavy atom, donor atom, acceptor molecule, acceptor atom, score
      P1  H  6931  6943       L1    19  0.21
      P1  H  6934  6947       L1    19  0.17

> <Gold.Chemscore.Hbond.Weighted>
-4.6299

> <Gold.Chemscore.Metal.Weighted>
-0.0000

> <Gold.Chemscore.Lipo.Weighted>
-13.2864

> <Gold.Chemscore.Internal_Hbond.Weighted>
0.0000

> <Gold.Chemscore.DEClash.Weighted>
0.1935

> <Gold.Chemscore.DEInternal.Weighted>
1.4478

> <Gold.Chemscore.Rot.Weighted>
4.2621

> <Gold.Chemscore.Internal.Correction.Weighted>
   9.000000E+99

> <Gold.Protein.RotatedTorsions>
[ 6907 6896 6895 6894 ] final  112.87 input  -60.11 | X-H torsion
[ 7974 7965 7964 7962 ] final -174.29 input  175.53 | X-H torsion
[ 8008 7997 7996 7995 ] final  149.22 input   59.86 | X-H torsion
[ 10167 10162 10161 10158 ] final  -21.67 input  -65.29 | X-H torsion
[ 10718 10713 10712 10709 ] final    4.06 input   66.30 | X-H torsion
[ 10763 10752 10751 10750 ] final  -51.18 input  -60.55 | X-H torsion
[ 11005 11000 10999 10996 ] final   95.30 input  -57.11 | X-H torsion

> <Gold.Protein.ActiveResidues>
 VAL166  LYS551  ARG553  GLY616  TRP617  ASP618  TYR619  PRO620  LYS621  CYS622 
 ASP623  PHE694  ASN695  SER759  ASP760  ASP761  ALA762  ILE779  LEU786  VAL792 
 PHE793  MET794  SER795  GLU796  ALA797  LYS798  CYS799  TRP800  GLU811  SER814 

> <Gold.Protein.RotatedAtoms>
  152.4892  133.8455  159.7174 H   0  0  0  0  0  0  0  0  0  0  0  0  # atno 6907 bound_to 6896
  150.9006  133.7114  159.2886 H   0  0  0  0  0  0  0  0  0  0  0  0  # atno 6908 bound_to 6896
  151.4556  135.1038  159.9762 H   0  0  0  0  0  0  0  0  0  0  0  0  # atno 6909 bound_to 6896
  144.7132  140.1493  143.6385 H   0  0  0  0  0  0  0  0  0  0  0  0  # atno 7974 bound_to 7965
  156.2763  140.2107  156.5823 H   0  0  0  0  0  0  0  0  0  0  0  0  # atno 8008 bound_to 7997
  154.7048  140.0517  157.0517 H   0  0  0  0  0  0  0  0  0  0  0  0  # atno 8009 bound_to 7997
  155.0685  140.3174  155.4641 H   0  0  0  0  0  0  0  0  0  0  0  0  # atno 8010 bound_to 7997
  140.7283  143.4606  151.0385 H   0  0  0  0  0  0  0  0  0  0  0  0  # atno 10167 bound_to 10162
  156.8871  130.5674  149.5651 H   0  0  0  0  0  0  0  0  0  0  0  0  # atno 10718 bound_to 10713
  154.1224  135.6532  153.4905 H   0  0  0  0  0  0  0  0  0  0  0  0  # atno 10763 bound_to 10752
  153.0221  135.5273  154.7083 H   0  0  0  0  0  0  0  0  0  0  0  0  # atno 10764 bound_to 10752
  154.6295  135.2974  155.0203 H   0  0  0  0  0  0  0  0  0  0  0  0  # atno 10765 bound_to 10752
  139.8790  134.8892  156.3991 H   0  0  0  0  0  0  0  0  0  0  0  0  # atno 11005 bound_to 11000
  145.9131  139.2499  143.1426 LP  0  0  0  0  0  0  0  0  0  0  0  0  # atno 17320 bound_to 7965
  145.9696  140.8770  143.0169 LP  0  0  0  0  0  0  0  0  0  0  0  0  # atno 17321 bound_to 7965
  139.8291  143.7716  152.3179 LP  0  0  0  0  0  0  0  0  0  0  0  0  # atno 17342 bound_to 10162
  139.7825  144.7439  151.0068 LP  0  0  0  0  0  0  0  0  0  0  0  0  # atno 17343 bound_to 10162
  156.0648  130.5693  150.9266 LP  0  0  0  0  0  0  0  0  0  0  0  0  # atno 17370 bound_to 10713
  157.6106  131.0936  150.8801 LP  0  0  0  0  0  0  0  0  0  0  0  0  # atno 17371 bound_to 10713
  140.9279  133.7599  155.9988 LP  0  0  0  0  0  0  0  0  0  0  0  0  # atno 17394 bound_to 11000
  140.8364  134.3118  157.5330 LP  0  0  0  0  0  0  0  0  0  0  0  0  # atno 17395 bound_to 11000

$$$$
