AV-unprocessed.smi:227|AV-procd|sdf|1737|dock1
  -GOLD-   2262020233D 1   1.00000     0.00000
 Structure written by MMmdl.
 54 58  0  0  0  0  0  0  0  0  1 V2000
  150.3414  128.2128  153.6716 O   0  0  0  0  0  0  0  0  0  0  0  0
  151.0843  128.9122  154.6488 C   0  0  0  0  0  0  0  0  0  0  0  0
  150.3060  130.1412  155.1798 C   0  0  2  0  0  0  0  0  0  0  0  0
  150.6699  131.4491  154.4338 C   0  0  0  0  0  0  0  0  0  0  0  0
  149.5067  132.2350  154.0599 N   0  0  0  0  0  0  0  0  0  0  0  0
  149.3878  133.6035  154.1249 C   0  0  0  0  0  0  0  0  0  0  0  0
  148.2365  134.0788  153.7364 N   0  0  0  0  0  0  0  0  0  0  0  0
  147.5020  132.9537  153.3769 C   0  0  0  0  0  0  0  0  0  0  0  0
  146.1843  132.7392  152.8776 C   0  0  0  0  0  0  0  0  0  0  0  0
  145.2938  133.7407  152.6414 N   0  0  0  0  0  0  0  0  0  0  0  0
  145.4842  134.6709  151.5385 C   0  0  1  0  0  0  0  0  0  0  0  0
  145.1150  133.8524  150.2832 C   0  0  0  0  0  0  0  0  0  0  0  0
  144.0053  132.9436  150.8343 C   0  0  0  0  0  0  0  0  0  0  0  0
  143.9154  133.4284  152.2955 C   0  0  2  0  0  0  0  0  0  0  0  0
  143.2341  134.8149  152.3237 C   0  0  1  0  0  0  0  0  0  0  0  0
  142.7461  135.2294  153.7242 C   0  0  0  0  0  0  0  0  0  0  0  0
  141.7885  134.3097  154.2038 O   0  0  0  0  0  0  0  0  0  0  0  0
  144.3798  135.7071  151.8032 C   0  0  0  0  0  0  0  0  0  0  0  0
  145.8255  131.4570  152.6010 N   0  0  0  0  0  0  0  0  0  0  0  0
  146.6762  130.4513  152.8211 C   0  0  0  0  0  0  0  0  0  0  0  0
  147.9201  130.5018  153.2985 N   0  0  0  0  0  0  0  0  0  0  0  0
  148.2965  131.7856  153.5610 C   0  0  0  0  0  0  0  0  0  0  0  0
  150.4431  130.3011  156.7152 C   0  0  1  0  0  0  0  0  0  0  0  0
  151.8704  130.4120  157.2218 C   0  0  0  0  0  0  0  0  0  0  0  0
  151.6705  131.0082  158.6102 C   0  0  0  0  0  0  0  0  0  0  0  0
  150.5370  131.8604  158.4982 O   0  0  0  0  0  0  0  0  0  0  0  0
  149.8457  131.5944  157.2813 C   0  0  0  0  0  0  0  0  0  0  0  0
  150.9009  128.0485  152.9278 H   0  0  0  0  0  0  0  0  0  0  0  0
  151.3334  128.2249  155.4573 H   0  0  0  0  0  0  0  0  0  0  0  0
  152.0356  129.2147  154.2118 H   0  0  0  0  0  0  0  0  0  0  0  0
  149.2529  129.9463  154.9718 H   0  0  0  0  0  0  0  0  0  0  0  0
  151.3056  132.0807  155.0545 H   0  0  0  0  0  0  0  0  0  0  0  0
  151.2451  131.2244  153.5348 H   0  0  0  0  0  0  0  0  0  0  0  0
  150.1861  134.2412  154.4758 H   0  0  0  0  0  0  0  0  0  0  0  0
  146.4750  135.1238  151.4857 H   0  0  0  0  0  0  0  0  0  0  0  0
  144.7780  134.4805  149.4579 H   0  0  0  0  0  0  0  0  0  0  0  0
  145.9592  133.2579  149.9320 H   0  0  0  0  0  0  0  0  0  0  0  0
  143.0634  133.0456  150.2942 H   0  0  0  0  0  0  0  0  0  0  0  0
  144.3084  131.8967  150.7891 H   0  0  0  0  0  0  0  0  0  0  0  0
  143.4167  132.7097  152.9429 H   0  0  0  0  0  0  0  0  0  0  0  0
  142.3887  134.8445  151.6343 H   0  0  0  0  0  0  0  0  0  0  0  0
  143.5757  135.2863  154.4299 H   0  0  0  0  0  0  0  0  0  0  0  0
  142.2850  136.2167  153.6866 H   0  0  0  0  0  0  0  0  0  0  0  0
  142.1953  133.4589  154.2665 H   0  0  0  0  0  0  0  0  0  0  0  0
  144.7034  136.4220  152.5612 H   0  0  0  0  0  0  0  0  0  0  0  0
  144.1060  136.2689  150.9096 H   0  0  0  0  0  0  0  0  0  0  0  0
  146.3074  129.4654  152.5795 H   0  0  0  0  0  0  0  0  0  0  0  0
  149.9707  129.4534  157.2147 H   0  0  0  0  0  0  0  0  0  0  0  0
  152.3934  129.4558  157.2527 H   0  0  0  0  0  0  0  0  0  0  0  0
  152.4460  131.0982  156.5986 H   0  0  0  0  0  0  0  0  0  0  0  0
  151.4443  130.2224  159.3321 H   0  0  0  0  0  0  0  0  0  0  0  0
  152.5476  131.5511  158.9632 H   0  0  0  0  0  0  0  0  0  0  0  0
  150.0188  132.4311  156.6033 H   0  0  0  0  0  0  0  0  0  0  0  0
  148.7717  131.5162  157.4517 H   0  0  0  0  0  0  0  0  0  0  0  0
  1  2  1  0  0  0  0
  1 28  1  0  0  0  0
  2  3  1  0  0  0  0
  2 29  1  0  0  0  0
  2 30  1  0  0  0  0
  3  4  1  0  0  0  0
  3 23  1  0  0  0  0
  3 31  1  0  0  0  0
  4  5  1  0  0  0  0
  4 32  1  0  0  0  0
  4 33  1  0  0  0  0
  5 22  1  0  0  0  0
  5  6  1  0  0  0  0
  6  7  2  0  0  0  0
  6 34  1  0  0  0  0
  7  8  1  0  0  0  0
  8 22  2  0  0  0  0
  8  9  1  0  0  0  0
  9 10  1  0  0  0  0
  9 19  2  0  0  0  0
 10 14  1  0  0  0  0
 10 11  1  0  0  0  0
 11 18  1  0  0  0  0
 11 12  1  0  0  0  0
 11 35  1  0  0  0  0
 12 13  1  0  0  0  0
 12 36  1  0  0  0  0
 12 37  1  0  0  0  0
 13 14  1  0  0  0  0
 13 38  1  0  0  0  0
 13 39  1  0  0  0  0
 14 15  1  0  0  0  0
 14 40  1  0  0  0  0
 15 16  1  0  0  0  0
 15 18  1  0  0  0  0
 15 41  1  0  0  0  0
 16 17  1  0  0  0  0
 16 42  1  0  0  0  0
 16 43  1  0  0  0  0
 17 44  1  0  0  0  0
 18 45  1  0  0  0  0
 18 46  1  0  0  0  0
 19 20  1  0  0  0  0
 20 21  2  0  0  0  0
 20 47  1  0  0  0  0
 21 22  1  0  0  0  0
 23 27  1  0  0  0  0
 23 24  1  0  0  0  0
 23 48  1  0  0  0  0
 24 25  1  0  0  0  0
 24 49  1  0  0  0  0
 24 50  1  0  0  0  0
 25 26  1  0  0  0  0
 25 51  1  0  0  0  0
 25 52  1  0  0  0  0
 26 27  1  0  0  0  0
 27 53  1  0  0  0  0
 27 54  1  0  0  0  0
M  END
> <s_m_source_file>
AV-unprocessed.smi

> <i_m_source_file_index>
227

> <i_lp_mmshare_version>
43012

> <i_f3d_flags>
0

> <s_epik_input>
W0NIMl0xT1tDSDJdW0NIMl1bQ0BIXTFbQ0BIXShbQ0gyXVtPSF0pW0NIMl1uKFtjSF1uMiljKGMyMyluW2NIXW5jM04oW0NASF00NSlbQ0BASF0oW0NIMl1bQ0gyXTQpW0NASF0oW0NIMl01KVtDSDJdW09IXQ==

> <s_epik_cmdline>
J2VwaWtfcHl0aG9uJywgJy1waCcsICc3LjAnLCAnLXRuJywgJzgnLCAnLW1hJywgJzIwMCcsICctbWV0YWxfYmluZGluZycsICctaW1hZScsICc8aW5maWxlLm1hZT4nLCAnLW9tYWUnLCAnPG91dGZpbGUubWFlPic=

> <r_lp_tautomer_probability>
1

> <r_epik_Ionization_Penalty>
0.0055791

> <r_epik_Ionization_Penalty_Charging>
0

> <r_epik_Ionization_Penalty_Neutral>
0.0055791

> <r_epik_State_Penalty>
0.00401299

> <r_epik_Charging_Adjusted_Penalty>
0.00401299

> <i_epik_Tot_Q>
0

> <i_epik_Tot_abs_Q>
0

> <r_epik_Metal_State_Penalty>
-0

> <b_epik_Metal_Only>
0

> <s_lp_Force_Field>
OPLS_2005

> <r_lp_Energy>
87.9703

> <b_lp_Chiralities_Consistent>
1

> <s_lp_Variant>
AV-unprocessed.smi:227-11

> <Gold.Version>
5.8.1

> <Gold.Id.Protein>
6NUR|6NUR_protein|mol2

> <Gold.PLP.Fitness>
44.6583

> <Gold.PLP.PLP>
-35.6681

> <Gold.PLP.part.hbond>
-4.0000

> <Gold.PLP.part.metal>
0.0000

> <Gold.PLP.part.buried>
-5.4234

> <Gold.PLP.part.nonpolar>
-27.1474

> <Gold.PLP.part.repulsive>
1.4564

> <Gold.PLP.ligand.clash>
0.0000

> <Gold.PLP.ligand.torsion>
1.6867

> <Gold.PLP.Chemscore.Hbond>
4.0000

> <Gold.PLP.Chemscore.CHOScore>
0.0000

> <Gold.PLP.Chemscore.Metal>
0.0000

> <Gold.Chemscore.Hbonds>
donor molecule, donor type, donor heavy atom, donor atom, acceptor molecule, acceptor atom, score
      L1  H     1    28       P1 10737  1.00
      L1  H    17    44       P1 10957  1.00
      P1  H  6896  6907       L1    26  1.00
      P1  H 11000 11005       L1    17  0.85

> <Gold.PLP.Chemscore.Internal.Correction>
0.3636

> <Gold.Rescore>
     Score         DG    S(hbond)    S(metal)    S(lipo)     H(rot)  DE(clash)    DE(int)     intcor
     11.53     -16.22       3.51        0.00      70.53       3.61       1.52       3.17       ----

> <Gold.Chemscore.Fitness>
11.5311

> <Gold.Chemscore.DG>
-16.2195

> <Gold.Chemscore.ZeroCoef>
-5.4800

> <Gold.Chemscore.Hbond>
3.5095

> <Gold.Chemscore.Metal>
0.0000

> <Gold.Chemscore.Lipo>
70.5293

> <Gold.Chemscore.Internal_Hbond>
0.0000

> <Gold.Chemscore.DEClash>
1.5231

> <Gold.Chemscore.DEInternal>
3.1653

> <Gold.Chemscore.Rot>
3.6071

> <Gold.Chemscore.Internal.Correction>
   9.000000E+99

> <Gold.Chemscore.Hbonds>
donor molecule, donor type, donor heavy atom, donor atom, acceptor molecule, acceptor atom, score
      L1  H     1    28       P1 10737  1.00
      L1  H    17    44       P1 10957  1.00
      P1  H  6896  6907       L1    26  0.34
      P1  H 11000 11005       L1    17  0.13

> <Gold.Chemscore.Hbond.Weighted>
-11.7218

> <Gold.Chemscore.Metal.Weighted>
-0.0000

> <Gold.Chemscore.Lipo.Weighted>
-8.2519

> <Gold.Chemscore.Internal_Hbond.Weighted>
0.0000

> <Gold.Chemscore.DEClash.Weighted>
1.5231

> <Gold.Chemscore.DEInternal.Weighted>
3.1653

> <Gold.Chemscore.Rot.Weighted>
9.2342

> <Gold.Chemscore.Internal.Correction.Weighted>
   9.000000E+99

> <Gold.Protein.RotatedTorsions>
[ 6907 6896 6895 6894 ] final -149.23 input  -60.11 | X-H torsion
[ 7974 7965 7964 7962 ] final   21.19 input  175.53 | X-H torsion
[ 8008 7997 7996 7995 ] final  147.42 input   59.86 | X-H torsion
[ 10167 10162 10161 10158 ] final  -24.05 input  -65.29 | X-H torsion
[ 10718 10713 10712 10709 ] final    3.14 input   66.30 | X-H torsion
[ 10763 10752 10751 10750 ] final    4.66 input  -60.55 | X-H torsion
[ 11005 11000 10999 10996 ] final   12.78 input  -57.11 | X-H torsion

> <Gold.Protein.ActiveResidues>
 VAL166  LYS551  ARG553  GLY616  TRP617  ASP618  TYR619  PRO620  LYS621  CYS622 
 ASP623  PHE694  ASN695  SER759  ASP760  ASP761  ALA762  ILE779  LEU786  VAL792 
 PHE793  MET794  SER795  GLU796  ALA797  LYS798  CYS799  TRP800  GLU811  SER814 

> <Gold.Protein.RotatedAtoms>
  151.1812  133.4724  159.2593 H   0  0  0  0  0  0  0  0  0  0  0  0  # atno 6907 bound_to 6896
  151.1257  135.0103  159.8569 H   0  0  0  0  0  0  0  0  0  0  0  0  # atno 6908 bound_to 6896
  152.5458  134.1719  159.8653 H   0  0  0  0  0  0  0  0  0  0  0  0  # atno 6909 bound_to 6896
  146.2081  139.8063  142.8710 H   0  0  0  0  0  0  0  0  0  0  0  0  # atno 7974 bound_to 7965
  156.2825  140.2156  156.5535 H   0  0  0  0  0  0  0  0  0  0  0  0  # atno 8008 bound_to 7997
  154.7272  140.0498  157.0716 H   0  0  0  0  0  0  0  0  0  0  0  0  # atno 8009 bound_to 7997
  155.0401  140.3144  155.4730 H   0  0  0  0  0  0  0  0  0  0  0  0  # atno 8010 bound_to 7997
  140.7288  143.4388  151.0689 H   0  0  0  0  0  0  0  0  0  0  0  0  # atno 10167 bound_to 10162
  156.8734  130.5628  149.5656 H   0  0  0  0  0  0  0  0  0  0  0  0  # atno 10718 bound_to 10713
  153.2687  135.6930  153.7503 H   0  0  0  0  0  0  0  0  0  0  0  0  # atno 10763 bound_to 10752
  153.6535  135.3372  155.3107 H   0  0  0  0  0  0  0  0  0  0  0  0  # atno 10764 bound_to 10752
  154.8456  135.4460  154.1702 H   0  0  0  0  0  0  0  0  0  0  0  0  # atno 10765 bound_to 10752
  140.4882  134.0867  155.7765 H   0  0  0  0  0  0  0  0  0  0  0  0  # atno 11005 bound_to 11000
  145.3243  141.0251  143.3482 LP  0  0  0  0  0  0  0  0  0  0  0  0  # atno 17320 bound_to 7965
  144.8844  139.4860  143.6707 LP  0  0  0  0  0  0  0  0  0  0  0  0  # atno 17321 bound_to 7965
  139.8053  143.8027  152.3166 LP  0  0  0  0  0  0  0  0  0  0  0  0  # atno 17342 bound_to 10162
  139.8058  144.7356  150.9764 LP  0  0  0  0  0  0  0  0  0  0  0  0  # atno 17343 bound_to 10162
  156.0714  130.5746  150.9391 LP  0  0  0  0  0  0  0  0  0  0  0  0  # atno 17370 bound_to 10713
  157.6182  131.0931  150.8671 LP  0  0  0  0  0  0  0  0  0  0  0  0  # atno 17371 bound_to 10713
  141.1497  133.8990  157.2127 LP  0  0  0  0  0  0  0  0  0  0  0  0  # atno 17394 bound_to 11000
  139.9785  135.0106  156.9692 LP  0  0  0  0  0  0  0  0  0  0  0  0  # atno 17395 bound_to 11000

$$$$
