AV-unprocessed.smi:2569|AV-procd|sdf|10103|dock5
  -GOLD-   2272014113D 1   1.00000     0.00000
 Structure written by MMmdl.
 39 41  0  0  0  0  0  0  0  0  1 V2000
  152.0580  144.3612  160.7293 C   0  0  0  0  0  0  0  0  0  0  0  0
  152.0425  143.2507  159.6935 C   0  0  0  0  0  0  0  0  0  0  0  0
  151.2467  143.4021  158.5354 C   0  0  0  0  0  0  0  0  0  0  0  0
  151.2041  142.3924  157.5491 C   0  0  0  0  0  0  0  0  0  0  0  0
  150.5082  142.3321  156.3538 N   0  0  0  0  0  0  0  0  0  0  0  0
  150.8811  141.1444  155.8862 C   0  0  0  0  0  0  0  0  0  0  0  0
  151.7389  140.4276  156.6375 N   0  0  0  0  0  0  0  0  0  0  0  0
  152.2788  139.1149  156.3318 C   0  0  0  0  0  0  0  0  0  0  0  0
  151.8854  138.6271  154.9211 C   0  0  1  0  0  0  0  0  0  0  0  0
  152.9491  137.8922  154.3485 O   0  0  0  0  0  0  0  0  0  0  0  0
  150.6284  137.7355  154.9023 C   0  0  0  0  0  0  0  0  0  0  0  0
  150.6605  136.6961  155.9179 N   0  0  0  0  0  0  0  0  0  0  0  0
  151.5884  135.7078  155.8782 N   0  0  0  0  0  0  0  0  0  0  0  0
  151.3681  134.9462  156.9110 N   0  0  0  0  0  0  0  0  0  0  0  0
  150.2957  135.4039  157.6536 N   0  0  0  0  0  0  0  0  0  0  0  0
  149.8942  136.4835  156.9956 C   0  0  0  0  0  0  0  0  0  0  0  0
  148.7516  137.3608  157.3888 C   0  0  0  0  0  0  0  0  0  0  0  0
  151.9835  141.2169  157.7560 C   0  0  0  0  0  0  0  0  0  0  0  0
  152.7792  141.0546  158.9038 C   0  0  0  0  0  0  0  0  0  0  0  0
  152.8127  142.0743  159.8779 C   0  0  0  0  0  0  0  0  0  0  0  0
  153.6788  141.8915  161.1116 C   0  0  0  0  0  0  0  0  0  0  0  0
  151.4195  145.1934  160.4313 H   0  0  0  0  0  0  0  0  0  0  0  0
  153.0690  144.7468  160.8617 H   0  0  0  0  0  0  0  0  0  0  0  0
  151.6988  143.9917  161.6901 H   0  0  0  0  0  0  0  0  0  0  0  0
  150.6608  144.2983  158.3939 H   0  0  0  0  0  0  0  0  0  0  0  0
  150.5100  140.7730  154.9421 H   0  0  0  0  0  0  0  0  0  0  0  0
  153.3641  139.1502  156.4355 H   0  0  0  0  0  0  0  0  0  0  0  0
  151.9172  138.4217  157.0921 H   0  0  0  0  0  0  0  0  0  0  0  0
  151.7131  139.4956  154.2847 H   0  0  0  0  0  0  0  0  0  0  0  0
  152.8897  136.9967  154.6451 H   0  0  0  0  0  0  0  0  0  0  0  0
  149.7328  138.3382  155.0570 H   0  0  0  0  0  0  0  0  0  0  0  0
  150.5166  137.2642  153.9243 H   0  0  0  0  0  0  0  0  0  0  0  0
  148.1507  136.8778  158.1599 H   0  0  0  0  0  0  0  0  0  0  0  0
  148.1124  137.5617  156.5289 H   0  0  0  0  0  0  0  0  0  0  0  0
  149.1242  138.3069  157.7813 H   0  0  0  0  0  0  0  0  0  0  0  0
  153.3612  140.1538  159.0307 H   0  0  0  0  0  0  0  0  0  0  0  0
  154.1939  140.9305  161.0971 H   0  0  0  0  0  0  0  0  0  0  0  0
  153.0708  141.9316  162.0156 H   0  0  0  0  0  0  0  0  0  0  0  0
  154.4351  142.6750  161.1666 H   0  0  0  0  0  0  0  0  0  0  0  0
  1  2  1  0  0  0  0
  1 22  1  0  0  0  0
  1 23  1  0  0  0  0
  1 24  1  0  0  0  0
  2 20  1  0  0  0  0
  2  3  2  0  0  0  0
  3  4  1  0  0  0  0
  3 25  1  0  0  0  0
  4 18  2  0  0  0  0
  4  5  1  0  0  0  0
  5  6  2  0  0  0  0
  6  7  1  0  0  0  0
  6 26  1  0  0  0  0
  7  8  1  0  0  0  0
  7 18  1  0  0  0  0
  8  9  1  0  0  0  0
  8 27  1  0  0  0  0
  8 28  1  0  0  0  0
  9 10  1  0  0  0  0
  9 11  1  0  0  0  0
  9 29  1  0  0  0  0
 10 30  1  0  0  0  0
 11 12  1  0  0  0  0
 11 31  1  0  0  0  0
 11 32  1  0  0  0  0
 12 16  1  0  0  0  0
 12 13  1  0  0  0  0
 13 14  2  0  0  0  0
 14 15  1  0  0  0  0
 15 16  2  0  0  0  0
 16 17  1  0  0  0  0
 17 33  1  0  0  0  0
 17 34  1  0  0  0  0
 17 35  1  0  0  0  0
 18 19  1  0  0  0  0
 19 20  2  0  0  0  0
 19 36  1  0  0  0  0
 20 21  1  0  0  0  0
 21 37  1  0  0  0  0
 21 38  1  0  0  0  0
 21 39  1  0  0  0  0
M  END
> <s_m_source_file>
AV-unprocessed.smi

> <i_m_source_file_index>
2569

> <i_lp_mmshare_version>
43012

> <i_f3d_flags>
0

> <s_epik_input>
W0NIM11jKFtjSF0xKWMoW0NIM10pW2NIXWMoYzEyKW4oW2NIXW4yKVtDSDJdW0NASF0oW09IXSlbQ0gyXW4zbm5uYzNbQ0gzXQ==

> <s_epik_cmdline>
J2VwaWtfcHl0aG9uJywgJy1waCcsICc3LjAnLCAnLXRuJywgJzgnLCAnLW1hJywgJzIwMCcsICctbWV0YWxfYmluZGluZycsICctaW1hZScsICc8aW5maWxlLm1hZT4nLCAnLW9tYWUnLCAnPG91dGZpbGUubWFlPic=

> <r_lp_tautomer_probability>
1

> <r_epik_Ionization_Penalty>
0.0946713

> <r_epik_Ionization_Penalty_Charging>
0

> <r_epik_Ionization_Penalty_Neutral>
0.0946713

> <r_epik_State_Penalty>
0.0848712

> <r_epik_Charging_Adjusted_Penalty>
0.0848712

> <i_epik_Tot_Q>
0

> <i_epik_Tot_abs_Q>
0

> <r_epik_Metal_State_Penalty>
0.0730911

> <b_epik_Metal_Only>
0

> <s_lp_Force_Field>
OPLS_2005

> <r_lp_Energy>
9.51249

> <b_lp_Chiralities_Consistent>
1

> <s_lp_Variant>
AV-unprocessed.smi:2569-2

> <Gold.Version>
5.8.1

> <Gold.Id.Protein>
6NUR|6NUR_protein|mol2

> <Gold.PLP.Fitness>
45.4234

> <Gold.PLP.PLP>
-41.6720

> <Gold.PLP.part.hbond>
-3.9889

> <Gold.PLP.part.metal>
0.0000

> <Gold.PLP.part.buried>
-6.7531

> <Gold.PLP.part.nonpolar>
-32.2460

> <Gold.PLP.part.repulsive>
0.9647

> <Gold.PLP.ligand.clash>
0.0000

> <Gold.PLP.ligand.torsion>
0.6347

> <Gold.PLP.Chemscore.Hbond>
1.6720

> <Gold.PLP.Chemscore.CHOScore>
0.0000

> <Gold.PLP.Chemscore.Metal>
0.0000

> <Gold.Chemscore.Hbonds>
donor molecule, donor type, donor heavy atom, donor atom, acceptor molecule, acceptor atom, score
      P1  H  6896  6909       L1    15  0.58
      P1  H 10752 10764       L1    13  1.00

> <Gold.PLP.Chemscore.Internal.Correction>
0.0047

> <Gold.Rescore>
     Score         DG    S(hbond)    S(metal)    S(lipo)     H(rot)  DE(clash)    DE(int)     intcor
     13.33     -15.18       1.33        0.00     100.14       2.53       0.07       1.79       ----

> <Gold.Chemscore.Fitness>
13.3285

> <Gold.Chemscore.DG>
-15.1791

> <Gold.Chemscore.ZeroCoef>
-5.4800

> <Gold.Chemscore.Hbond>
1.3328

> <Gold.Chemscore.Metal>
0.0000

> <Gold.Chemscore.Lipo>
100.1422

> <Gold.Chemscore.Internal_Hbond>
0.0000

> <Gold.Chemscore.DEClash>
0.0650

> <Gold.Chemscore.DEInternal>
1.7856

> <Gold.Chemscore.Rot>
2.5270

> <Gold.Chemscore.Internal.Correction>
   9.000000E+99

> <Gold.Chemscore.Hbonds>
donor molecule, donor type, donor heavy atom, donor atom, acceptor molecule, acceptor atom, score
      P1  H  6896  6909       L1    15  0.17
      P1  H 10752 10764       L1    13  0.97

> <Gold.Chemscore.Hbond.Weighted>
-4.4517

> <Gold.Chemscore.Metal.Weighted>
-0.0000

> <Gold.Chemscore.Lipo.Weighted>
-11.7166

> <Gold.Chemscore.Internal_Hbond.Weighted>
0.0000

> <Gold.Chemscore.DEClash.Weighted>
0.0650

> <Gold.Chemscore.DEInternal.Weighted>
1.7856

> <Gold.Chemscore.Rot.Weighted>
6.4691

> <Gold.Chemscore.Internal.Correction.Weighted>
   9.000000E+99

> <Gold.Protein.RotatedTorsions>
[ 6907 6896 6895 6894 ] final   46.82 input  -60.11 | X-H torsion
[ 7974 7965 7964 7962 ] final -141.87 input  175.53 | X-H torsion
[ 8008 7997 7996 7995 ] final  -63.30 input   59.86 | X-H torsion
[ 10167 10162 10161 10158 ] final   31.17 input  -65.29 | X-H torsion
[ 10718 10713 10712 10709 ] final   36.42 input   66.30 | X-H torsion
[ 10763 10752 10751 10750 ] final  -36.88 input  -60.55 | X-H torsion
[ 11005 11000 10999 10996 ] final  104.47 input  -57.11 | X-H torsion

> <Gold.Protein.ActiveResidues>
 VAL166  LYS551  ARG553  GLY616  TRP617  ASP618  TYR619  PRO620  LYS621  CYS622 
 ASP623  PHE694  ASN695  SER759  ASP760  ASP761  ALA762  ILE779  LEU786  VAL792 
 PHE793  MET794  SER795  GLU796  ALA797  LYS798  CYS799  TRP800  GLU811  SER814 

> <Gold.Protein.RotatedAtoms>
  152.2608  134.8036  160.0430 H   0  0  0  0  0  0  0  0  0  0  0  0  # atno 6907 bound_to 6896
  151.8682  133.3465  159.3734 H   0  0  0  0  0  0  0  0  0  0  0  0  # atno 6908 bound_to 6896
  150.7116  134.5066  159.5631 H   0  0  0  0  0  0  0  0  0  0  0  0  # atno 6909 bound_to 6896
  144.8486  140.6027  143.5405 H   0  0  0  0  0  0  0  0  0  0  0  0  # atno 7974 bound_to 7965
  154.4547  140.0977  156.6722 H   0  0  0  0  0  0  0  0  0  0  0  0  # atno 8008 bound_to 7997
  155.5176  140.3478  155.4382 H   0  0  0  0  0  0  0  0  0  0  0  0  # atno 8009 bound_to 7997
  156.0753  140.1359  156.9768 H   0  0  0  0  0  0  0  0  0  0  0  0  # atno 8010 bound_to 7997
  140.4612  144.0903  150.6213 H   0  0  0  0  0  0  0  0  0  0  0  0  # atno 10167 bound_to 10162
  157.3347  130.7516  149.6871 H   0  0  0  0  0  0  0  0  0  0  0  0  # atno 10718 bound_to 10713
  153.8871  135.6816  153.4763 H   0  0  0  0  0  0  0  0  0  0  0  0  # atno 10763 bound_to 10752
  153.1202  135.4743  154.9180 H   0  0  0  0  0  0  0  0  0  0  0  0  # atno 10764 bound_to 10752
  154.7641  135.3219  154.8274 H   0  0  0  0  0  0  0  0  0  0  0  0  # atno 10765 bound_to 10752
  139.8792  134.9301  156.5367 H   0  0  0  0  0  0  0  0  0  0  0  0  # atno 11005 bound_to 11000
  145.4546  139.1519  143.3900 LP  0  0  0  0  0  0  0  0  0  0  0  0  # atno 17320 bound_to 7965
  146.2765  140.4673  142.8793 LP  0  0  0  0  0  0  0  0  0  0  0  0  # atno 17321 bound_to 7965
  140.4091  143.2666  151.9855 LP  0  0  0  0  0  0  0  0  0  0  0  0  # atno 17342 bound_to 10162
  139.4806  144.5931  151.7737 LP  0  0  0  0  0  0  0  0  0  0  0  0  # atno 17343 bound_to 10162
  155.9700  130.4185  150.4330 LP  0  0  0  0  0  0  0  0  0  0  0  0  # atno 17370 bound_to 10713
  157.2368  131.0516  151.2460 LP  0  0  0  0  0  0  0  0  0  0  0  0  # atno 17371 bound_to 10713
  140.8341  133.8256  155.9011 LP  0  0  0  0  0  0  0  0  0  0  0  0  # atno 17394 bound_to 11000
  140.9301  134.2033  157.4870 LP  0  0  0  0  0  0  0  0  0  0  0  0  # atno 17395 bound_to 11000

$$$$
