AV-unprocessed.smi:3059|AV-procd|sdf|11677|dock3
  -GOLD-   2272017 83D 1   1.00000     0.00000
 Structure written by MMmdl.
 42 43  0  0  0  0  0  0  0  0  1 V2000
  151.5794  144.3463  159.7828 C   0  0  0  0  0  0  0  0  0  0  0  0
  152.5047  143.2243  160.2658 C   0  0  0  0  0  0  0  0  0  0  0  0
  152.4461  142.0050  159.4063 C   0  0  0  0  0  0  0  0  0  0  0  0
  153.3508  140.9739  159.3538 C   0  0  0  0  0  0  0  0  0  0  0  0
  153.0127  139.9732  158.4411 N   0  0  0  0  0  0  0  0  0  0  0  0
  151.8633  140.2232  157.8102 C   0  0  0  0  0  0  0  0  0  0  0  0
  151.2919  139.3355  156.7516 C   0  0  0  0  0  0  0  0  0  0  0  0
  150.7555  140.0941  155.5221 C   0  0  0  0  0  0  0  0  0  0  0  0
  149.2988  140.1794  155.4928 N   0  0  0  0  0  0  0  0  0  0  0  0
  148.5792  140.9748  154.6831 C   0  0  0  0  0  0  0  0  0  0  0  0
  149.1066  141.7183  153.8548 O   0  0  0  0  0  0  0  0  0  0  0  0
  147.2351  140.8759  154.8471 N   0  0  0  0  0  0  0  0  0  0  0  0
  146.5681  140.2021  155.9738 C   0  0  0  0  0  0  0  0  0  0  0  0
  146.5193  141.0873  157.2358 C   0  0  0  0  0  0  0  0  0  0  0  0
  146.3109  142.5980  156.9899 C   0  0  0  0  0  0  0  0  0  0  0  0
  145.3039  142.9563  155.8798 C   0  0  0  0  0  0  0  0  0  0  0  0
  145.9164  142.9476  154.4625 C   0  0  0  0  0  0  0  0  0  0  0  0
  146.2980  141.5511  153.9393 C   0  0  0  0  0  0  0  0  0  0  0  0
  151.1229  141.7420  158.2987 S   0  0  0  0  0  0  0  0  0  0  0  0
  151.6449  145.2141  160.4392 H   0  0  0  0  0  0  0  0  0  0  0  0
  150.5396  144.0180  159.7671 H   0  0  0  0  0  0  0  0  0  0  0  0
  151.8436  144.6705  158.7757 H   0  0  0  0  0  0  0  0  0  0  0  0
  153.5306  143.5922  160.3009 H   0  0  0  0  0  0  0  0  0  0  0  0
  152.2446  142.9596  161.2913 H   0  0  0  0  0  0  0  0  0  0  0  0
  154.2622  140.8736  159.9245 H   0  0  0  0  0  0  0  0  0  0  0  0
  152.0634  138.6303  156.4393 H   0  0  0  0  0  0  0  0  0  0  0  0
  150.4940  138.7376  157.1928 H   0  0  0  0  0  0  0  0  0  0  0  0
  151.1969  141.0901  155.4662 H   0  0  0  0  0  0  0  0  0  0  0  0
  151.0634  139.5717  154.6160 H   0  0  0  0  0  0  0  0  0  0  0  0
  148.7956  139.5960  156.1451 H   0  0  0  0  0  0  0  0  0  0  0  0
  145.5456  139.9409  155.6997 H   0  0  0  0  0  0  0  0  0  0  0  0
  147.0352  139.2426  156.2005 H   0  0  0  0  0  0  0  0  0  0  0  0
  145.7241  140.7157  157.8826 H   0  0  0  0  0  0  0  0  0  0  0  0
  147.4412  140.9569  157.8033 H   0  0  0  0  0  0  0  0  0  0  0  0
  145.9849  143.0494  157.9273 H   0  0  0  0  0  0  0  0  0  0  0  0
  147.2666  143.0694  156.7617 H   0  0  0  0  0  0  0  0  0  0  0  0
  144.4298  142.3063  155.9294 H   0  0  0  0  0  0  0  0  0  0  0  0
  144.9356  143.9644  156.0726 H   0  0  0  0  0  0  0  0  0  0  0  0
  145.2001  143.3895  153.7694 H   0  0  0  0  0  0  0  0  0  0  0  0
  146.7906  143.5994  154.4386 H   0  0  0  0  0  0  0  0  0  0  0  0
  146.7217  141.6412  152.9379 H   0  0  0  0  0  0  0  0  0  0  0  0
  145.3976  140.9519  153.8014 H   0  0  0  0  0  0  0  0  0  0  0  0
  1  2  1  0  0  0  0
  1 20  1  0  0  0  0
  1 21  1  0  0  0  0
  1 22  1  0  0  0  0
  2  3  1  0  0  0  0
  2 23  1  0  0  0  0
  2 24  1  0  0  0  0
  3 19  1  0  0  0  0
  3  4  2  0  0  0  0
  4  5  1  0  0  0  0
  4 25  1  0  0  0  0
  5  6  2  0  0  0  0
  6  7  1  0  0  0  0
  6 19  1  0  0  0  0
  7  8  1  0  0  0  0
  7 26  1  0  0  0  0
  7 27  1  0  0  0  0
  8  9  1  0  0  0  0
  8 28  1  0  0  0  0
  8 29  1  0  0  0  0
  9 10  1  0  0  0  0
  9 30  1  0  0  0  0
 10 11  2  0  0  0  0
 10 12  1  0  0  0  0
 12 18  1  0  0  0  0
 12 13  1  0  0  0  0
 13 14  1  0  0  0  0
 13 31  1  0  0  0  0
 13 32  1  0  0  0  0
 14 15  1  0  0  0  0
 14 33  1  0  0  0  0
 14 34  1  0  0  0  0
 15 16  1  0  0  0  0
 15 35  1  0  0  0  0
 15 36  1  0  0  0  0
 16 17  1  0  0  0  0
 16 37  1  0  0  0  0
 16 38  1  0  0  0  0
 17 18  1  0  0  0  0
 17 39  1  0  0  0  0
 17 40  1  0  0  0  0
 18 41  1  0  0  0  0
 18 42  1  0  0  0  0
M  END
> <s_m_source_file>
AV-unprocessed.smi

> <i_m_source_file_index>
3059

> <i_lp_mmshare_version>
43012

> <i_f3d_flags>
0

> <s_epik_input>
W0NIM11bQ0gyXWMxW2NIXW5jKHMxKVtDSDJdW0NIMl1bTkhdQyg9TylOMltDSDJdW0NIMl1bQ0gyXVtDSDJdW0NIMl1bQ0gyXTI=

> <s_epik_cmdline>
J2VwaWtfcHl0aG9uJywgJy1waCcsICc3LjAnLCAnLXRuJywgJzgnLCAnLW1hJywgJzIwMCcsICctbWV0YWxfYmluZGluZycsICctaW1hZScsICc8aW5maWxlLm1hZT4nLCAnLW9tYWUnLCAnPG91dGZpbGUubWFlPic=

> <r_epik_Ionization_Penalty>
0.000969859

> <r_epik_Ionization_Penalty_Charging>
0

> <r_epik_Ionization_Penalty_Neutral>
0.000969859

> <r_epik_State_Penalty>
0.000588571

> <r_epik_Charging_Adjusted_Penalty>
0.000588571

> <i_epik_Tot_Q>
0

> <i_epik_Tot_abs_Q>
0

> <r_epik_Metal_State_Penalty>
-0

> <b_epik_Metal_Only>
0

> <s_lp_Force_Field>
OPLS_2005

> <r_lp_Energy>
18.9175

> <b_lp_Chiralities_Consistent>
1

> <s_lp_Variant>
AV-unprocessed.smi:3059-1

> <Gold.Version>
5.8.1

> <Gold.Id.Protein>
6NUR|6NUR_protein|mol2

> <Gold.PLP.Fitness>
40.7129

> <Gold.PLP.PLP>
-36.5369

> <Gold.PLP.part.hbond>
-3.0000

> <Gold.PLP.part.metal>
0.0000

> <Gold.PLP.part.buried>
-2.5510

> <Gold.PLP.part.nonpolar>
-31.3278

> <Gold.PLP.part.repulsive>
1.3624

> <Gold.PLP.ligand.clash>
0.0000

> <Gold.PLP.ligand.torsion>
0.8839

> <Gold.PLP.Chemscore.Hbond>
1.9733

> <Gold.PLP.Chemscore.CHOScore>
0.0000

> <Gold.PLP.Chemscore.Metal>
0.0000

> <Gold.Chemscore.Hbonds>
donor molecule, donor type, donor heavy atom, donor atom, acceptor molecule, acceptor atom, score
      P1  H  7997  8008       L1     5  0.75
      P1  H  8011  8017       L1    11  0.61

> <Gold.PLP.Chemscore.Internal.Correction>
0.0240

> <Gold.Rescore>
     Score         DG    S(hbond)    S(metal)    S(lipo)     H(rot)  DE(clash)    DE(int)     intcor
     15.93     -18.06       1.49        0.00      94.53       1.35       1.32       0.81       ----

> <Gold.Chemscore.Fitness>
15.9282

> <Gold.Chemscore.DG>
-18.0583

> <Gold.Chemscore.ZeroCoef>
-5.4800

> <Gold.Chemscore.Hbond>
1.4930

> <Gold.Chemscore.Metal>
0.0000

> <Gold.Chemscore.Lipo>
94.5260

> <Gold.Chemscore.Internal_Hbond>
0.0000

> <Gold.Chemscore.DEClash>
1.3201

> <Gold.Chemscore.DEInternal>
0.8100

> <Gold.Chemscore.Rot>
1.3546

> <Gold.Chemscore.Internal.Correction>
   9.000000E+99

> <Gold.Chemscore.Hbonds>
donor molecule, donor type, donor heavy atom, donor atom, acceptor molecule, acceptor atom, score
      P1  H  7997  8008       L1     5  0.18
      P1  H  8011  8017       L1    11  0.62

> <Gold.Chemscore.Hbond.Weighted>
-4.9865

> <Gold.Chemscore.Metal.Weighted>
-0.0000

> <Gold.Chemscore.Lipo.Weighted>
-11.0595

> <Gold.Chemscore.Internal_Hbond.Weighted>
0.0000

> <Gold.Chemscore.DEClash.Weighted>
1.3201

> <Gold.Chemscore.DEInternal.Weighted>
0.8100

> <Gold.Chemscore.Rot.Weighted>
3.4678

> <Gold.Chemscore.Internal.Correction.Weighted>
   9.000000E+99

> <Gold.Protein.RotatedTorsions>
[ 6907 6896 6895 6894 ] final  -30.12 input  -60.11 | X-H torsion
[ 7974 7965 7964 7962 ] final   99.15 input  175.53 | X-H torsion
[ 8008 7997 7996 7995 ] final  -93.40 input   59.86 | X-H torsion
[ 10167 10162 10161 10158 ] final   83.75 input  -65.29 | X-H torsion
[ 10718 10713 10712 10709 ] final   23.85 input   66.30 | X-H torsion
[ 10763 10752 10751 10750 ] final  -39.07 input  -60.55 | X-H torsion
[ 11005 11000 10999 10996 ] final -160.59 input  -57.11 | X-H torsion

> <Gold.Protein.ActiveResidues>
 VAL166  LYS551  ARG553  GLY616  TRP617  ASP618  TYR619  PRO620  LYS621  CYS622 
 ASP623  PHE694  ASN695  SER759  ASP760  ASP761  ALA762  ILE779  LEU786  VAL792 
 PHE793  MET794  SER795  GLU796  ALA797  LYS798  CYS799  TRP800  GLU811  SER814 

> <Gold.Protein.RotatedAtoms>
  151.1099  135.0021  159.8488 H   0  0  0  0  0  0  0  0  0  0  0  0  # atno 6907 bound_to 6896
  152.5442  134.1848  159.8660 H   0  0  0  0  0  0  0  0  0  0  0  0  # atno 6908 bound_to 6896
  151.1898  133.4630  159.2628 H   0  0  0  0  0  0  0  0  0  0  0  0  # atno 6909 bound_to 6896
  145.4027  139.2345  143.3291 H   0  0  0  0  0  0  0  0  0  0  0  0  # atno 7974 bound_to 7965
  154.7352  140.0499  157.0762 H   0  0  0  0  0  0  0  0  0  0  0  0  # atno 8008 bound_to 7997
  155.0249  140.3151  155.4760 H   0  0  0  0  0  0  0  0  0  0  0  0  # atno 8009 bound_to 7997
  156.2851  140.2160  156.5368 H   0  0  0  0  0  0  0  0  0  0  0  0  # atno 8010 bound_to 7997
  139.9151  144.6247  150.8497 H   0  0  0  0  0  0  0  0  0  0  0  0  # atno 10167 bound_to 10162
  157.1718  130.6763  149.6080 H   0  0  0  0  0  0  0  0  0  0  0  0  # atno 10718 bound_to 10713
  153.9232  135.6780  153.4747 H   0  0  0  0  0  0  0  0  0  0  0  0  # atno 10763 bound_to 10752
  153.1017  135.4824  154.8877 H   0  0  0  0  0  0  0  0  0  0  0  0  # atno 10764 bound_to 10752
  154.7467  135.3174  154.8589 H   0  0  0  0  0  0  0  0  0  0  0  0  # atno 10765 bound_to 10752
  140.6298  134.4663  157.5229 H   0  0  0  0  0  0  0  0  0  0  0  0  # atno 11005 bound_to 11000
  146.2744  140.4727  142.8801 LP  0  0  0  0  0  0  0  0  0  0  0  0  # atno 17320 bound_to 7965
  144.8363  140.6786  143.6258 LP  0  0  0  0  0  0  0  0  0  0  0  0  # atno 17321 bound_to 7965
  140.7676  143.3337  151.2355 LP  0  0  0  0  0  0  0  0  0  0  0  0  # atno 17342 bound_to 10162
  139.6909  143.9694  152.2858 LP  0  0  0  0  0  0  0  0  0  0  0  0  # atno 17343 bound_to 10162
  155.9737  130.4676  150.6332 LP  0  0  0  0  0  0  0  0  0  0  0  0  # atno 17370 bound_to 10713
  157.4036  131.0813  151.1286 LP  0  0  0  0  0  0  0  0  0  0  0  0  # atno 17371 bound_to 10713
  139.9120  134.8324  156.1494 LP  0  0  0  0  0  0  0  0  0  0  0  0  # atno 17394 bound_to 11000
  141.0683  133.6808  156.2090 LP  0  0  0  0  0  0  0  0  0  0  0  0  # atno 17395 bound_to 11000

$$$$
