AV-unprocessed.smi:38|AV-procd|sdf|342|dock9
  -GOLD-   2262016183D 1   1.00000     0.00000
 Structure written by MMmdl.
 28 29  0  0  0  0  0  0  0  0  1 V2000
  150.1236  130.2194  153.8881 O   0  0  0  0  0  0  0  0  0  0  0  0
  149.0383  130.6368  153.4887 C   0  0  0  0  0  0  0  0  0  0  0  0
  148.0775  129.7447  153.0035 N   0  0  0  0  0  0  0  0  0  0  0  0
  146.8142  130.0936  152.5216 C   0  0  0  0  0  0  0  0  0  0  0  0
  146.0558  129.2184  152.1070 O   0  0  0  0  0  0  0  0  0  0  0  0
  146.4788  131.4666  152.5306 N   0  0  0  0  0  0  0  0  0  0  0  0
  145.1245  131.9196  152.0349 C   0  0  2  0  0  0  0  0  0  0  0  0
  144.9310  131.5572  150.5588 C   0  0  0  0  0  0  0  0  0  0  0  0
  145.0544  132.9046  149.8716 C   0  0  1  0  0  0  0  0  0  0  0  0
  144.2676  132.9438  148.6986 O   0  0  0  0  0  0  0  0  0  0  0  0
  144.5503  133.8718  150.9463 C   0  0  2  0  0  0  0  0  0  0  0  0
  145.0803  135.3043  150.7809 C   0  0  0  0  0  0  0  0  0  0  0  0
  144.5446  135.8867  149.6122 O   0  0  0  0  0  0  0  0  0  0  0  0
  145.0560  133.3083  152.1526 O   0  0  0  0  0  0  0  0  0  0  0  0
  147.4033  132.3886  153.0026 C   0  0  0  0  0  0  0  0  0  0  0  0
  148.6262  132.0372  153.4649 C   0  0  0  0  0  0  0  0  0  0  0  0
  149.4670  132.9881  153.9061 F   0  0  0  0  0  0  0  0  0  0  0  0
  148.3185  128.7643  152.9995 H   0  0  0  0  0  0  0  0  0  0  0  0
  144.3634  131.4810  152.6813 H   0  0  0  0  0  0  0  0  0  0  0  0
  146.0976  133.1075  149.6269 H   0  0  0  0  0  0  0  0  0  0  0  0
  143.4589  133.8506  150.9755 H   0  0  0  0  0  0  0  0  0  0  0  0
  145.6566  130.8198  150.2129 H   0  0  0  0  0  0  0  0  0  0  0  0
  143.9282  131.1438  150.4403 H   0  0  0  0  0  0  0  0  0  0  0  0
  144.7328  133.4352  148.0387 H   0  0  0  0  0  0  0  0  0  0  0  0
  144.8483  135.9166  151.6529 H   0  0  0  0  0  0  0  0  0  0  0  0
  146.1652  135.2939  150.6718 H   0  0  0  0  0  0  0  0  0  0  0  0
  145.0876  135.6432  148.8780 H   0  0  0  0  0  0  0  0  0  0  0  0
  147.1461  133.4374  153.0083 H   0  0  0  0  0  0  0  0  0  0  0  0
  1  2  2  0  0  0  0
  2 16  1  0  0  0  0
  2  3  1  0  0  0  0
  3 18  1  0  0  0  0
  3  4  1  0  0  0  0
  4  5  2  0  0  0  0
  4  6  1  0  0  0  0
  6  7  1  0  0  0  0
  6 15  1  0  0  0  0
  7 19  1  0  0  0  0
  7 14  1  0  0  0  0
  7  8  1  0  0  0  0
  8  9  1  0  0  0  0
  8 22  1  0  0  0  0
  8 23  1  0  0  0  0
  9 20  1  0  0  0  0
  9 10  1  0  0  0  0
  9 11  1  0  0  0  0
 10 24  1  0  0  0  0
 11 21  1  0  0  0  0
 11 12  1  0  0  0  0
 11 14  1  0  0  0  0
 12 13  1  0  0  0  0
 12 25  1  0  0  0  0
 12 26  1  0  0  0  0
 13 27  1  0  0  0  0
 15 16  2  0  0  0  0
 15 28  1  0  0  0  0
 16 17  1  0  0  0  0
M  END
> <s_m_source_file>
AV-unprocessed.smi

> <i_m_source_file_index>
38

> <i_lp_mmshare_version>
43012

> <i_f3d_flags>
0

> <s_epik_input>
Tz1jMVtuSF1jKD1PKW4oW2NIXWMxRilbQ0BIXTJbQ0gyXVtDQEhdKFtPSF0pW0NASF0oTzIpW0NIMl1bT0hd

> <s_epik_cmdline>
J2VwaWtfcHl0aG9uJywgJy1waCcsICc3LjAnLCAnLXRuJywgJzgnLCAnLW1hJywgJzIwMCcsICctbWV0YWxfYmluZGluZycsICctaW1hZScsICc8aW5maWxlLm1hZT4nLCAnLW9tYWUnLCAnPG91dGZpbGUubWFlPic=

> <r_lp_tautomer_probability>
0.999537

> <r_epik_Ionization_Penalty>
0.0357432

> <r_epik_Ionization_Penalty_Charging>
0.0357431

> <r_epik_Ionization_Penalty_Neutral>
1.19946e-07

> <r_epik_State_Penalty>
0.0298169

> <r_epik_Charging_Adjusted_Penalty>
0.06556

> <i_epik_Tot_Q>
0

> <i_epik_Tot_abs_Q>
0

> <r_epik_Metal_State_Penalty>
2.348

> <b_epik_Metal_Only>
0

> <s_epik_Chemistry_Notes>
This compound contains an acetal/aminal-like group ( X-CH(R)-Y where X, Y are N, S, or O) that may be acid/base labile, releasing an aldehyde.

> <s_lp_Force_Field>
OPLS_2005

> <r_lp_Energy>
27.0037

> <b_lp_Chiralities_Consistent>
1

> <s_lp_Variant>
AV-unprocessed.smi:38-8

> <Gold.Version>
5.8.1

> <Gold.Id.Protein>
6NUR|6NUR_protein|mol2

> <Gold.PLP.Fitness>
37.8947

> <Gold.PLP.PLP>
-31.9183

> <Gold.PLP.part.hbond>
-3.6459

> <Gold.PLP.part.metal>
0.0000

> <Gold.PLP.part.buried>
-5.3236

> <Gold.PLP.part.nonpolar>
-23.4630

> <Gold.PLP.part.repulsive>
0.3053

> <Gold.PLP.ligand.clash>
0.0000

> <Gold.PLP.ligand.torsion>
0.0164

> <Gold.PLP.Chemscore.Hbond>
2.0000

> <Gold.PLP.Chemscore.CHOScore>
0.0000

> <Gold.PLP.Chemscore.Metal>
0.0000

> <Gold.Chemscore.Hbonds>
donor molecule, donor type, donor heavy atom, donor atom, acceptor molecule, acceptor atom, score
      L1  H    10    24       P1  7921  0.98
      L1  H    13    27       P1  7921  1.00

> <Gold.PLP.Chemscore.Internal.Correction>
0.0091

> <Gold.Rescore>
     Score         DG    S(hbond)    S(metal)    S(lipo)     H(rot)  DE(clash)    DE(int)     intcor
      9.39      -9.50       1.95        0.00      42.60       2.91       0.01       0.10       ----

> <Gold.Chemscore.Fitness>
9.3944

> <Gold.Chemscore.DG>
-9.5043

> <Gold.Chemscore.ZeroCoef>
-5.4800

> <Gold.Chemscore.Hbond>
1.9462

> <Gold.Chemscore.Metal>
0.0000

> <Gold.Chemscore.Lipo>
42.5980

> <Gold.Chemscore.Internal_Hbond>
0.0000

> <Gold.Chemscore.DEClash>
0.0126

> <Gold.Chemscore.DEInternal>
0.0973

> <Gold.Chemscore.Rot>
2.9141

> <Gold.Chemscore.Internal.Correction>
   9.000000E+99

> <Gold.Chemscore.Hbonds>
donor molecule, donor type, donor heavy atom, donor atom, acceptor molecule, acceptor atom, score
      L1  H    10    24       P1  7921  0.75
      L1  H    13    27       P1  7921  1.00

> <Gold.Chemscore.Hbond.Weighted>
-6.5004

> <Gold.Chemscore.Metal.Weighted>
-0.0000

> <Gold.Chemscore.Lipo.Weighted>
-4.9840

> <Gold.Chemscore.Internal_Hbond.Weighted>
0.0000

> <Gold.Chemscore.DEClash.Weighted>
0.0126

> <Gold.Chemscore.DEInternal.Weighted>
0.0973

> <Gold.Chemscore.Rot.Weighted>
7.4601

> <Gold.Chemscore.Internal.Correction.Weighted>
   9.000000E+99

> <Gold.Protein.RotatedTorsions>
[ 6907 6896 6895 6894 ] final  -42.05 input  -60.11 | X-H torsion
[ 7974 7965 7964 7962 ] final  -11.20 input  175.53 | X-H torsion
[ 8008 7997 7996 7995 ] final  -55.28 input   59.86 | X-H torsion
[ 10167 10162 10161 10158 ] final  -68.29 input  -65.29 | X-H torsion
[ 10718 10713 10712 10709 ] final  142.77 input   66.30 | X-H torsion
[ 10763 10752 10751 10750 ] final   98.75 input  -60.55 | X-H torsion
[ 11005 11000 10999 10996 ] final  164.35 input  -57.11 | X-H torsion

> <Gold.Protein.ActiveResidues>
 VAL166  LYS551  ARG553  GLY616  TRP617  ASP618  TYR619  PRO620  LYS621  CYS622 
 ASP623  PHE694  ASN695  SER759  ASP760  ASP761  ALA762  ILE779  LEU786  VAL792 
 PHE793  MET794  SER795  GLU796  ALA797  LYS798  CYS799  TRP800  GLU811  SER814 

> <Gold.Protein.RotatedAtoms>
  150.9597  134.8986  159.7722 H   0  0  0  0  0  0  0  0  0  0  0  0  # atno 6907 bound_to 6896
  152.5151  134.3691  159.9321 H   0  0  0  0  0  0  0  0  0  0  0  0  # atno 6908 bound_to 6896
  151.3703  133.3816  159.2733 H   0  0  0  0  0  0  0  0  0  0  0  0  # atno 6909 bound_to 6896
  146.2195  140.2876  142.8366 H   0  0  0  0  0  0  0  0  0  0  0  0  # atno 7974 bound_to 7965
  154.4190  140.1156  156.5451 H   0  0  0  0  0  0  0  0  0  0  0  0  # atno 8008 bound_to 7997
  155.6468  140.3496  155.4715 H   0  0  0  0  0  0  0  0  0  0  0  0  # atno 8009 bound_to 7997
  155.9826  140.1163  157.0702 H   0  0  0  0  0  0  0  0  0  0  0  0  # atno 8010 bound_to 7997
  140.5519  143.2312  151.6895 H   0  0  0  0  0  0  0  0  0  0  0  0  # atno 10167 bound_to 10162
  157.3768  131.0986  151.0777 H   0  0  0  0  0  0  0  0  0  0  0  0  # atno 10718 bound_to 10713
  153.2929  135.4137  155.1183 H   0  0  0  0  0  0  0  0  0  0  0  0  # atno 10763 bound_to 10752
  154.8526  135.3523  154.5956 H   0  0  0  0  0  0  0  0  0  0  0  0  # atno 10764 bound_to 10752
  153.6379  135.7058  153.5310 H   0  0  0  0  0  0  0  0  0  0  0  0  # atno 10765 bound_to 10752
  140.2450  134.8021  157.3447 H   0  0  0  0  0  0  0  0  0  0  0  0  # atno 11005 bound_to 11000
  144.9150  140.7802  143.5783 LP  0  0  0  0  0  0  0  0  0  0  0  0  # atno 17320 bound_to 7965
  145.2809  139.1918  143.4791 LP  0  0  0  0  0  0  0  0  0  0  0  0  # atno 17321 bound_to 7965
  139.5031  144.3804  152.0381 LP  0  0  0  0  0  0  0  0  0  0  0  0  # atno 17342 bound_to 10162
  140.2922  144.3741  150.6085 LP  0  0  0  0  0  0  0  0  0  0  0  0  # atno 17343 bound_to 10162
  157.1861  130.6331  149.5688 LP  0  0  0  0  0  0  0  0  0  0  0  0  # atno 17370 bound_to 10713
  155.9767  130.4737  150.6544 LP  0  0  0  0  0  0  0  0  0  0  0  0  # atno 17371 bound_to 10713
  140.1615  134.4723  155.7891 LP  0  0  0  0  0  0  0  0  0  0  0  0  # atno 17394 bound_to 11000
  141.2207  133.6903  156.7552 LP  0  0  0  0  0  0  0  0  0  0  0  0  # atno 17395 bound_to 11000

$$$$
