AV-unprocessed.smi:1247|AV-procd|sdf|5243|dock5
  -GOLD-   22720 4353D 1   1.00000     0.00000
 Structure written by MMmdl.
 46 47  0  0  0  0  0  0  0  0  1 V2000
  143.4431  132.8778  148.9651 C   0  0  0  0  0  0  0  0  0  0  0  0
  144.4577  133.5082  149.8730 C   0  0  0  0  0  0  0  0  0  0  0  0
  144.6534  134.8939  150.1427 C   0  0  0  0  0  0  0  0  0  0  0  0
  145.6972  134.8842  151.0271 C   0  0  0  0  0  0  0  0  0  0  0  0
  146.3141  135.9332  151.6337 N   0  0  0  0  0  0  0  0  0  0  0  0
  145.7609  137.0216  152.1970 C   0  0  0  0  0  0  0  0  0  0  0  0
  144.5549  137.2637  152.2497 O   0  0  0  0  0  0  0  0  0  0  0  0
  146.6988  137.8332  152.7066 N   0  0  0  0  0  0  0  0  0  0  0  0
  146.4332  139.0977  153.3822 C   0  0  0  0  0  0  0  0  0  0  0  0
  147.6552  140.0336  153.3230 C   0  0  0  0  0  0  0  0  0  0  0  0
  148.6078  139.8739  154.4203 N   0  0  0  0  0  0  0  0  0  0  0  0
  149.1858  141.1436  154.8537 C   0  0  0  0  0  0  0  0  0  0  0  0
  150.2049  140.9547  155.9941 C   0  0  2  0  0  0  0  0  0  0  0  0
  150.8784  142.2720  156.3932 C   0  0  0  0  0  0  0  0  0  0  0  0
  151.2168  140.0448  155.5719 O   0  0  0  0  0  0  0  0  0  0  0  0
  150.7041  138.7730  155.1847 C   0  0  2  0  0  0  0  0  0  0  0  0
  151.8810  137.8861  154.7647 C   0  0  0  0  0  0  0  0  0  0  0  0
  149.6877  138.9686  154.0441 C   0  0  0  0  0  0  0  0  0  0  0  0
  146.0763  133.5797  151.2534 N   0  0  0  0  0  0  0  0  0  0  0  0
  147.1256  133.0603  152.1087 C   0  0  0  0  0  0  0  0  0  0  0  0
  145.3069  132.7320  150.5367 N   0  0  0  0  0  0  0  0  0  0  0  0
  142.8102  133.6323  148.4972 H   0  0  0  0  0  0  0  0  0  0  0  0
  142.7943  132.1956  149.5150 H   0  0  0  0  0  0  0  0  0  0  0  0
  143.9271  132.3113  148.1692 H   0  0  0  0  0  0  0  0  0  0  0  0
  144.1071  135.7354  149.7442 H   0  0  0  0  0  0  0  0  0  0  0  0
  147.3218  135.8823  151.6594 H   0  0  0  0  0  0  0  0  0  0  0  0
  147.6664  137.5589  152.6200 H   0  0  0  0  0  0  0  0  0  0  0  0
  145.5734  139.5514  152.8906 H   0  0  0  0  0  0  0  0  0  0  0  0
  146.1416  138.9146  154.4178 H   0  0  0  0  0  0  0  0  0  0  0  0
  148.1758  139.8439  152.3831 H   0  0  0  0  0  0  0  0  0  0  0  0
  147.3203  141.0709  153.2742 H   0  0  0  0  0  0  0  0  0  0  0  0
  149.6720  141.6342  154.0089 H   0  0  0  0  0  0  0  0  0  0  0  0
  148.4015  141.8171  155.1977 H   0  0  0  0  0  0  0  0  0  0  0  0
  149.7003  140.5404  156.8687 H   0  0  0  0  0  0  0  0  0  0  0  0
  150.1430  143.0011  156.7345 H   0  0  0  0  0  0  0  0  0  0  0  0
  151.4193  142.7089  155.5535 H   0  0  0  0  0  0  0  0  0  0  0  0
  151.5910  142.1149  157.2031 H   0  0  0  0  0  0  0  0  0  0  0  0
  150.2081  138.3150  156.0424 H   0  0  0  0  0  0  0  0  0  0  0  0
  151.5385  136.8945  154.4678 H   0  0  0  0  0  0  0  0  0  0  0  0
  152.5877  137.7617  155.5855 H   0  0  0  0  0  0  0  0  0  0  0  0
  152.4212  138.3199  153.9227 H   0  0  0  0  0  0  0  0  0  0  0  0
  149.2738  137.9997  153.7620 H   0  0  0  0  0  0  0  0  0  0  0  0
  150.2018  139.3558  153.1628 H   0  0  0  0  0  0  0  0  0  0  0  0
  146.9169  133.3258  153.1455 H   0  0  0  0  0  0  0  0  0  0  0  0
  148.0837  133.4902  151.8156 H   0  0  0  0  0  0  0  0  0  0  0  0
  147.1860  131.9740  152.0270 H   0  0  0  0  0  0  0  0  0  0  0  0
  1  2  1  0  0  0  0
  1 22  1  0  0  0  0
  1 23  1  0  0  0  0
  1 24  1  0  0  0  0
  2 21  2  0  0  0  0
  2  3  1  0  0  0  0
  3  4  2  0  0  0  0
  3 25  1  0  0  0  0
  4  5  1  0  0  0  0
  4 19  1  0  0  0  0
  5  6  1  0  0  0  0
  5 26  1  0  0  0  0
  6  7  2  0  0  0  0
  6  8  1  0  0  0  0
  8  9  1  0  0  0  0
  8 27  1  0  0  0  0
  9 10  1  0  0  0  0
  9 28  1  0  0  0  0
  9 29  1  0  0  0  0
 10 11  1  0  0  0  0
 10 30  1  0  0  0  0
 10 31  1  0  0  0  0
 11 18  1  0  0  0  0
 11 12  1  0  0  0  0
 12 13  1  0  0  0  0
 12 32  1  0  0  0  0
 12 33  1  0  0  0  0
 13 14  1  0  0  0  0
 13 15  1  0  0  0  0
 13 34  1  0  0  0  0
 14 35  1  0  0  0  0
 14 36  1  0  0  0  0
 14 37  1  0  0  0  0
 15 16  1  0  0  0  0
 16 17  1  0  0  0  0
 16 18  1  0  0  0  0
 16 38  1  0  0  0  0
 17 39  1  0  0  0  0
 17 40  1  0  0  0  0
 17 41  1  0  0  0  0
 18 42  1  0  0  0  0
 18 43  1  0  0  0  0
 19 20  1  0  0  0  0
 19 21  1  0  0  0  0
 20 44  1  0  0  0  0
 20 45  1  0  0  0  0
 20 46  1  0  0  0  0
M  END
> <s_m_source_file>
AV-unprocessed.smi

> <i_m_source_file_index>
1247

> <i_lp_mmshare_version>
43012

> <i_f3d_flags>
0

> <s_epik_input>
W0NIM11jMVtjSF1jKG4objEpW0NIM10pW05IXUMoPU8pW05IXVtDSDJdW0NIMl1OMltDSDJdW0NAQEhdKFtDSDNdKU9bQ0BASF0oW0NIM10pW0NIMl0y

> <s_epik_cmdline>
J2VwaWtfcHl0aG9uJywgJy1waCcsICc3LjAnLCAnLXRuJywgJzgnLCAnLW1hJywgJzIwMCcsICctbWV0YWxfYmluZGluZycsICctaW1hZScsICc8aW5maWxlLm1hZT4nLCAnLW9tYWUnLCAnPG91dGZpbGUubWFlPic=

> <r_lp_tautomer_probability>
1

> <r_epik_Ionization_Penalty>
0.233972

> <r_epik_Ionization_Penalty_Charging>
0

> <r_epik_Ionization_Penalty_Neutral>
0.233972

> <r_epik_State_Penalty>
0.224627

> <r_epik_Charging_Adjusted_Penalty>
0.224627

> <i_epik_Tot_Q>
0

> <i_epik_Tot_abs_Q>
0

> <r_epik_Metal_State_Penalty>
0.224624

> <b_epik_Metal_Only>
0

> <s_lp_Force_Field>
OPLS_2005

> <r_lp_Energy>
19.816

> <b_lp_Chiralities_Consistent>
1

> <s_lp_Variant>
AV-unprocessed.smi:1247-1

> <Gold.Version>
5.8.1

> <Gold.Id.Protein>
6NUR|6NUR_protein|mol2

> <Gold.PLP.Fitness>
43.3495

> <Gold.PLP.PLP>
-37.0771

> <Gold.PLP.part.hbond>
-3.0000

> <Gold.PLP.part.metal>
0.0000

> <Gold.PLP.part.buried>
0.2361

> <Gold.PLP.part.nonpolar>
-34.6964

> <Gold.PLP.part.repulsive>
0.5725

> <Gold.PLP.ligand.clash>
0.0000

> <Gold.PLP.ligand.torsion>
1.1871

> <Gold.PLP.Chemscore.Hbond>
2.8780

> <Gold.PLP.Chemscore.CHOScore>
0.0000

> <Gold.PLP.Chemscore.Metal>
0.0000

> <Gold.Chemscore.Hbonds>
donor molecule, donor type, donor heavy atom, donor atom, acceptor molecule, acceptor atom, score
      L1  H     5    26       P1  7948  1.00
      L1  H     8    27       P1  7948  0.93
      P1  H  7989  7998       L1    15  0.39

> <Gold.PLP.Chemscore.Internal.Correction>
0.0127

> <Gold.Rescore>
     Score         DG    S(hbond)    S(metal)    S(lipo)     H(rot)  DE(clash)    DE(int)     intcor
     17.99     -19.49       2.19        0.00      89.74       1.48       0.31       1.18       ----

> <Gold.Chemscore.Fitness>
17.9913

> <Gold.Chemscore.DG>
-19.4873

> <Gold.Chemscore.ZeroCoef>
-5.4800

> <Gold.Chemscore.Hbond>
2.1875

> <Gold.Chemscore.Metal>
0.0000

> <Gold.Chemscore.Lipo>
89.7406

> <Gold.Chemscore.Internal_Hbond>
0.0000

> <Gold.Chemscore.DEClash>
0.3119

> <Gold.Chemscore.DEInternal>
1.1841

> <Gold.Chemscore.Rot>
1.4838

> <Gold.Chemscore.Internal.Correction>
   9.000000E+99

> <Gold.Chemscore.Hbonds>
donor molecule, donor type, donor heavy atom, donor atom, acceptor molecule, acceptor atom, score
      L1  H     5    26       P1  7948  1.00
      L1  H     8    27       P1  7948  0.87
      P1  H  7989  7998       L1    15  0.02

> <Gold.Chemscore.Hbond.Weighted>
-7.3061

> <Gold.Chemscore.Metal.Weighted>
-0.0000

> <Gold.Chemscore.Lipo.Weighted>
-10.4996

> <Gold.Chemscore.Internal_Hbond.Weighted>
0.0000

> <Gold.Chemscore.DEClash.Weighted>
0.3119

> <Gold.Chemscore.DEInternal.Weighted>
1.1841

> <Gold.Chemscore.Rot.Weighted>
3.7985

> <Gold.Chemscore.Internal.Correction.Weighted>
   9.000000E+99

> <Gold.Protein.RotatedTorsions>
[ 6907 6896 6895 6894 ] final  133.83 input  -60.11 | X-H torsion
[ 7974 7965 7964 7962 ] final   23.72 input  175.53 | X-H torsion
[ 8008 7997 7996 7995 ] final -122.75 input   59.86 | X-H torsion
[ 10167 10162 10161 10158 ] final   22.31 input  -65.29 | X-H torsion
[ 10718 10713 10712 10709 ] final -137.00 input   66.30 | X-H torsion
[ 10763 10752 10751 10750 ] final  125.57 input  -60.55 | X-H torsion
[ 11005 11000 10999 10996 ] final   42.30 input  -57.11 | X-H torsion

> <Gold.Protein.ActiveResidues>
 VAL166  LYS551  ARG553  GLY616  TRP617  ASP618  TYR619  PRO620  LYS621  CYS622 
 ASP623  PHE694  ASN695  SER759  ASP760  ASP761  ALA762  ILE779  LEU786  VAL792 
 PHE793  MET794  SER795  GLU796  ALA797  LYS798  CYS799  TRP800  GLU811  SER814 

> <Gold.Protein.RotatedAtoms>
  152.3177  133.5820  159.5723 H   0  0  0  0  0  0  0  0  0  0  0  0  # atno 6907 bound_to 6896
  150.7355  134.0057  159.3662 H   0  0  0  0  0  0  0  0  0  0  0  0  # atno 6908 bound_to 6896
  151.7944  135.0727  160.0442 H   0  0  0  0  0  0  0  0  0  0  0  0  # atno 6909 bound_to 6896
  146.1971  139.7704  142.8789 H   0  0  0  0  0  0  0  0  0  0  0  0  # atno 7974 bound_to 7965
  155.1693  140.0408  157.2859 H   0  0  0  0  0  0  0  0  0  0  0  0  # atno 8008 bound_to 7997
  154.6281  140.2517  155.7440 H   0  0  0  0  0  0  0  0  0  0  0  0  # atno 8009 bound_to 7997
  156.2470  140.2881  156.0620 H   0  0  0  0  0  0  0  0  0  0  0  0  # atno 8010 bound_to 7997
  140.5359  143.9762  150.6491 H   0  0  0  0  0  0  0  0  0  0  0  0  # atno 10167 bound_to 10162
  156.2833  130.7333  151.1337 H   0  0  0  0  0  0  0  0  0  0  0  0  # atno 10718 bound_to 10713
  153.6794  135.3317  155.3174 H   0  0  0  0  0  0  0  0  0  0  0  0  # atno 10763 bound_to 10752
  154.8470  135.4405  154.1622 H   0  0  0  0  0  0  0  0  0  0  0  0  # atno 10764 bound_to 10752
  153.2634  135.6993  153.7631 H   0  0  0  0  0  0  0  0  0  0  0  0  # atno 10765 bound_to 10752
  140.1752  134.4173  155.8233 H   0  0  0  0  0  0  0  0  0  0  0  0  # atno 11005 bound_to 11000
  145.3608  141.0325  143.3286 LP  0  0  0  0  0  0  0  0  0  0  0  0  # atno 17320 bound_to 7965
  144.8603  139.5187  143.6815 LP  0  0  0  0  0  0  0  0  0  0  0  0  # atno 17321 bound_to 7965
  140.3149  143.3174  152.0842 LP  0  0  0  0  0  0  0  0  0  0  0  0  # atno 17342 bound_to 10162
  139.4970  144.6612  151.6461 LP  0  0  0  0  0  0  0  0  0  0  0  0  # atno 17343 bound_to 10162
  157.7321  131.0603  150.5646 LP  0  0  0  0  0  0  0  0  0  0  0  0  # atno 17370 bound_to 10713
  156.5754  130.4290  149.6001 LP  0  0  0  0  0  0  0  0  0  0  0  0  # atno 17371 bound_to 10713
  141.2220  133.6974  156.7833 LP  0  0  0  0  0  0  0  0  0  0  0  0  # atno 17394 bound_to 11000
  140.2331  134.8670  157.3497 LP  0  0  0  0  0  0  0  0  0  0  0  0  # atno 17395 bound_to 11000

$$$$
