AV-unprocessed.smi:2678|AV-procd|sdf|10366|dock3
  -GOLD-   2272014393D 1   1.00000     0.00000
 Structure written by MMmdl.
 46 47  0  0  0  0  0  0  0  0  1 V2000
  151.0267  140.4749  156.8798 C   0  0  0  0  0  0  0  0  0  0  0  0
  151.0226  141.8977  156.3048 C   0  0  0  0  0  0  0  0  0  0  0  0
  151.2706  142.9557  157.3883 C   0  0  0  0  0  0  0  0  0  0  0  0
  149.7427  142.1592  155.6512 N   0  0  0  0  0  0  0  0  0  0  0  0
  149.1835  141.4183  154.6808 C   0  0  0  0  0  0  0  0  0  0  0  0
  149.7060  140.3998  154.2284 O   0  0  0  0  0  0  0  0  0  0  0  0
  147.8287  141.9170  154.1433 C   0  0  2  0  0  0  0  0  0  0  0  0
  146.8516  142.3454  155.2642 C   0  0  0  0  0  0  0  0  0  0  0  0
  146.1669  141.1636  155.9769 C   0  0  0  0  0  0  0  0  0  0  0  0
  145.4989  140.2118  154.9729 C   0  0  0  0  0  0  0  0  0  0  0  0
  146.5109  139.7027  153.9326 C   0  0  1  0  0  0  0  0  0  0  0  0
  145.8412  138.8062  152.9878 N   0  0  0  0  0  0  0  0  0  0  0  0
  146.0506  137.4895  152.8013 C   0  0  0  0  0  0  0  0  0  0  0  0
  146.8982  136.8833  153.4525 O   0  0  0  0  0  0  0  0  0  0  0  0
  145.2702  136.9397  151.8497 N   0  0  0  0  0  0  0  0  0  0  0  0
  145.1787  135.5877  151.4233 C   0  0  0  0  0  0  0  0  0  0  0  0
  144.1365  135.0639  150.6204 C   0  0  0  0  0  0  0  0  0  0  0  0
  144.1791  133.7045  150.2544 C   0  0  0  0  0  0  0  0  0  0  0  0
  145.2616  132.9210  150.6988 C   0  0  0  0  0  0  0  0  0  0  0  0
  146.2668  133.4092  151.4553 N   0  0  0  0  0  0  0  0  0  0  0  0
  146.2195  134.7132  151.8019 C   0  0  0  0  0  0  0  0  0  0  0  0
  147.1646  140.8939  153.1939 C   0  0  0  0  0  0  0  0  0  0  0  0
  151.9777  140.2516  157.3642 H   0  0  0  0  0  0  0  0  0  0  0  0
  150.8763  139.7339  156.0939 H   0  0  0  0  0  0  0  0  0  0  0  0
  150.2370  140.3415  157.6201 H   0  0  0  0  0  0  0  0  0  0  0  0
  151.8387  141.9670  155.5840 H   0  0  0  0  0  0  0  0  0  0  0  0
  152.2272  142.7901  157.8847 H   0  0  0  0  0  0  0  0  0  0  0  0
  150.4918  142.9355  158.1514 H   0  0  0  0  0  0  0  0  0  0  0  0
  151.2922  143.9583  156.9593 H   0  0  0  0  0  0  0  0  0  0  0  0
  149.2402  142.9786  155.9604 H   0  0  0  0  0  0  0  0  0  0  0  0
  148.0394  142.8099  153.5520 H   0  0  0  0  0  0  0  0  0  0  0  0
  147.3678  142.9661  155.9981 H   0  0  0  0  0  0  0  0  0  0  0  0
  146.0809  142.9829  154.8290 H   0  0  0  0  0  0  0  0  0  0  0  0
  146.8903  140.6136  156.5786 H   0  0  0  0  0  0  0  0  0  0  0  0
  145.4209  141.5413  156.6766 H   0  0  0  0  0  0  0  0  0  0  0  0
  145.0545  139.3710  155.5067 H   0  0  0  0  0  0  0  0  0  0  0  0
  144.6790  140.7290  154.4722 H   0  0  0  0  0  0  0  0  0  0  0  0
  147.2703  139.1333  154.4691 H   0  0  0  0  0  0  0  0  0  0  0  0
  145.1325  139.2328  152.4086 H   0  0  0  0  0  0  0  0  0  0  0  0
  144.6722  137.5848  151.3537 H   0  0  0  0  0  0  0  0  0  0  0  0
  143.3170  135.6697  150.2678 H   0  0  0  0  0  0  0  0  0  0  0  0
  143.4003  133.2735  149.6430 H   0  0  0  0  0  0  0  0  0  0  0  0
  145.3243  131.8756  150.4350 H   0  0  0  0  0  0  0  0  0  0  0  0
  147.0425  135.0702  152.4045 H   0  0  0  0  0  0  0  0  0  0  0  0
  146.4037  141.4085  152.6054 H   0  0  0  0  0  0  0  0  0  0  0  0
  147.8997  140.5354  152.4721 H   0  0  0  0  0  0  0  0  0  0  0  0
  1  2  1  0  0  0  0
  1 23  1  0  0  0  0
  1 24  1  0  0  0  0
  1 25  1  0  0  0  0
  2  3  1  0  0  0  0
  2  4  1  0  0  0  0
  2 26  1  0  0  0  0
  3 27  1  0  0  0  0
  3 28  1  0  0  0  0
  3 29  1  0  0  0  0
  4  5  1  0  0  0  0
  4 30  1  0  0  0  0
  5  6  2  0  0  0  0
  5  7  1  0  0  0  0
  7 22  1  0  0  0  0
  7  8  1  0  0  0  0
  7 31  1  0  0  0  0
  8  9  1  0  0  0  0
  8 32  1  0  0  0  0
  8 33  1  0  0  0  0
  9 10  1  0  0  0  0
  9 34  1  0  0  0  0
  9 35  1  0  0  0  0
 10 11  1  0  0  0  0
 10 36  1  0  0  0  0
 10 37  1  0  0  0  0
 11 12  1  0  0  0  0
 11 22  1  0  0  0  0
 11 38  1  0  0  0  0
 12 13  1  0  0  0  0
 12 39  1  0  0  0  0
 13 14  2  0  0  0  0
 13 15  1  0  0  0  0
 15 16  1  0  0  0  0
 15 40  1  0  0  0  0
 16 21  1  0  0  0  0
 16 17  2  0  0  0  0
 17 18  1  0  0  0  0
 17 41  1  0  0  0  0
 18 19  2  0  0  0  0
 18 42  1  0  0  0  0
 19 20  1  0  0  0  0
 19 43  1  0  0  0  0
 20 21  2  0  0  0  0
 21 44  1  0  0  0  0
 22 45  1  0  0  0  0
 22 46  1  0  0  0  0
M  END
> <s_m_source_file>
AV-unprocessed.smi

> <i_m_source_file_index>
2678

> <i_lp_mmshare_version>
43012

> <i_f3d_flags>
0

> <s_epik_input>
W0NIM11bQ0hdKFtDSDNdKVtOSF1DKD1PKVtDQEBIXTFbQ0gyXVtDSDJdW0NIMl1bQ0BIXShbQ0gyXTEpW05IXUMoPU8pW05IXWMyW2NIXVtjSF1bY0hdbltjSF0y

> <s_epik_cmdline>
J2VwaWtfcHl0aG9uJywgJy1waCcsICc3LjAnLCAnLXRuJywgJzgnLCAnLW1hJywgJzIwMCcsICctbWV0YWxfYmluZGluZycsICctaW1hZScsICc8aW5maWxlLm1hZT4nLCAnLW9tYWUnLCAnPG91dGZpbGUubWFlPic=

> <r_epik_Ionization_Penalty>
0.00482944

> <r_epik_Ionization_Penalty_Charging>
0

> <r_epik_Ionization_Penalty_Neutral>
0.00482944

> <r_epik_State_Penalty>
0.00347168

> <r_epik_Charging_Adjusted_Penalty>
0.00347168

> <i_epik_Tot_Q>
0

> <i_epik_Tot_abs_Q>
0

> <r_epik_Metal_State_Penalty>
-0

> <b_epik_Metal_Only>
0

> <s_lp_Force_Field>
OPLS_2005

> <r_lp_Energy>
21.1553

> <b_lp_Chiralities_Consistent>
1

> <s_lp_Variant>
AV-unprocessed.smi:2678-1

> <Gold.Version>
5.8.1

> <Gold.Id.Protein>
6NUR|6NUR_protein|mol2

> <Gold.PLP.Fitness>
47.0197

> <Gold.PLP.PLP>
-34.3840

> <Gold.PLP.part.hbond>
-4.0000

> <Gold.PLP.part.metal>
0.0000

> <Gold.PLP.part.buried>
-3.8435

> <Gold.PLP.part.nonpolar>
-29.6730

> <Gold.PLP.part.repulsive>
3.2965

> <Gold.PLP.ligand.clash>
0.0000

> <Gold.PLP.ligand.torsion>
0.3534

> <Gold.PLP.Chemscore.Hbond>
3.4323

> <Gold.PLP.Chemscore.CHOScore>
0.9981

> <Gold.PLP.Chemscore.Metal>
0.0000

> <Gold.Chemscore.Hbonds>
donor molecule, donor type, donor heavy atom, donor atom, acceptor molecule, acceptor atom, score
      L1  H     4    30       P1  8028  0.93
      L1  H    12    39       P1 10175  0.86
      L1  H    15    40       P1 10171  1.00
      P1  H  7989  7998       L1     6  0.64
      L1  C    21    44       P1  7948  1.00

> <Gold.PLP.Chemscore.Internal.Correction>
0.0514

> <Gold.Rescore>
     Score         DG    S(hbond)    S(metal)    S(lipo)     H(rot)  DE(clash)    DE(int)     intcor
     18.46     -22.06       3.19        0.00      82.52       1.46       1.75       1.85       ----

> <Gold.Chemscore.Fitness>
18.4559

> <Gold.Chemscore.DG>
-22.0588

> <Gold.Chemscore.ZeroCoef>
-5.4800

> <Gold.Chemscore.Hbond>
3.1923

> <Gold.Chemscore.Metal>
0.0000

> <Gold.Chemscore.Lipo>
82.5189

> <Gold.Chemscore.Internal_Hbond>
0.0000

> <Gold.Chemscore.DEClash>
1.7542

> <Gold.Chemscore.DEInternal>
1.8487

> <Gold.Chemscore.Rot>
1.4603

> <Gold.Chemscore.Internal.Correction>
   9.000000E+99

> <Gold.Chemscore.Hbonds>
donor molecule, donor type, donor heavy atom, donor atom, acceptor molecule, acceptor atom, score
      L1  H     4    30       P1  8028  0.90
      L1  H    12    39       P1 10175  0.85
      L1  H    15    40       P1 10171  0.95
      P1  H  7989  7998       L1     6  0.45

> <Gold.Chemscore.Hbond.Weighted>
-10.6624

> <Gold.Chemscore.Metal.Weighted>
-0.0000

> <Gold.Chemscore.Lipo.Weighted>
-9.6547

> <Gold.Chemscore.Internal_Hbond.Weighted>
0.0000

> <Gold.Chemscore.DEClash.Weighted>
1.7542

> <Gold.Chemscore.DEInternal.Weighted>
1.8487

> <Gold.Chemscore.Rot.Weighted>
3.7383

> <Gold.Chemscore.Internal.Correction.Weighted>
   9.000000E+99

> <Gold.Protein.RotatedTorsions>
[ 6907 6896 6895 6894 ] final   61.59 input  -60.11 | X-H torsion
[ 7974 7965 7964 7962 ] final  -96.51 input  175.53 | X-H torsion
[ 8008 7997 7996 7995 ] final   87.36 input   59.86 | X-H torsion
[ 10167 10162 10161 10158 ] final  140.59 input  -65.29 | X-H torsion
[ 10718 10713 10712 10709 ] final  152.28 input   66.30 | X-H torsion
[ 10763 10752 10751 10750 ] final  -76.82 input  -60.55 | X-H torsion
[ 11005 11000 10999 10996 ] final   19.09 input  -57.11 | X-H torsion

> <Gold.Protein.ActiveResidues>
 VAL166  LYS551  ARG553  GLY616  TRP617  ASP618  TYR619  PRO620  LYS621  CYS622 
 ASP623  PHE694  ASN695  SER759  ASP760  ASP761  ALA762  ILE779  LEU786  VAL792 
 PHE793  MET794  SER795  GLU796  ALA797  LYS798  CYS799  TRP800  GLU811  SER814 

> <Gold.Protein.RotatedAtoms>
  152.4101  134.6139  160.0032 H   0  0  0  0  0  0  0  0  0  0  0  0  # atno 6907 bound_to 6896
  151.6318  133.3326  159.3118 H   0  0  0  0  0  0  0  0  0  0  0  0  # atno 6908 bound_to 6896
  150.7993  134.7115  159.6651 H   0  0  0  0  0  0  0  0  0  0  0  0  # atno 6909 bound_to 6896
  145.3459  140.9468  143.2582 H   0  0  0  0  0  0  0  0  0  0  0  0  # atno 7974 bound_to 7965
  155.9744  140.3383  155.6605 H   0  0  0  0  0  0  0  0  0  0  0  0  # atno 8008 bound_to 7997
  155.6632  140.0718  157.2565 H   0  0  0  0  0  0  0  0  0  0  0  0  # atno 8009 bound_to 7997
  154.4175  140.1705  156.1787 H   0  0  0  0  0  0  0  0  0  0  0  0  # atno 8010 bound_to 7997
  139.5044  144.6225  151.6017 H   0  0  0  0  0  0  0  0  0  0  0  0  # atno 10167 bound_to 10162
  157.2598  131.0796  151.1673 H   0  0  0  0  0  0  0  0  0  0  0  0  # atno 10718 bound_to 10713
  154.5048  135.5785  153.6559 H   0  0  0  0  0  0  0  0  0  0  0  0  # atno 10763 bound_to 10752
  152.9885  135.6144  154.2955 H   0  0  0  0  0  0  0  0  0  0  0  0  # atno 10764 bound_to 10752
  154.2865  135.2849  155.2653 H   0  0  0  0  0  0  0  0  0  0  0  0  # atno 10765 bound_to 10752
  140.4176  134.1552  155.7671 H   0  0  0  0  0  0  0  0  0  0  0  0  # atno 11005 bound_to 11000
  144.8755  139.4978  143.6748 LP  0  0  0  0  0  0  0  0  0  0  0  0  # atno 17320 bound_to 7965
  146.2988  139.7362  142.9106 LP  0  0  0  0  0  0  0  0  0  0  0  0  # atno 17321 bound_to 7965
  140.5931  143.9744  150.6337 LP  0  0  0  0  0  0  0  0  0  0  0  0  # atno 17342 bound_to 10162
  140.2931  143.3311  152.1043 LP  0  0  0  0  0  0  0  0  0  0  0  0  # atno 17343 bound_to 10162
  157.3188  130.6926  149.6257 LP  0  0  0  0  0  0  0  0  0  0  0  0  # atno 17370 bound_to 10713
  155.9664  130.4341  150.5037 LP  0  0  0  0  0  0  0  0  0  0  0  0  # atno 17371 bound_to 10713
  141.1797  133.8440  157.1302 LP  0  0  0  0  0  0  0  0  0  0  0  0  # atno 17394 bound_to 11000
  140.0223  134.9940  157.0616 LP  0  0  0  0  0  0  0  0  0  0  0  0  # atno 17395 bound_to 11000

$$$$
