AV-unprocessed.smi:3125|AV-procd|sdf|11909|dock7
  -GOLD-   2272017293D 1   1.00000     0.00000
 Structure written by MMmdl.
 28 29  0  0  0  0  0  0  0  0  2 V2000
  154.1473  140.8833  160.6224 C   0  0  0  0  0  0  0  0  0  0  0  0
  153.3830  142.0498  161.0211 N   0  0  0  0  0  0  0  0  0  0  0  0
  153.3506  142.5958  162.2977 C   0  0  0  0  0  0  0  0  0  0  0  0
  152.5078  143.6786  162.2437 C   0  0  0  0  0  0  0  0  0  0  0  0
  152.0152  143.8128  160.9510 N   0  0  0  0  0  0  0  0  0  0  0  0
  152.5739  142.8193  160.2641 C   0  0  0  0  0  0  0  0  0  0  0  0
  152.3122  142.5741  158.8038 C   0  0  1  0  0  0  0  0  0  0  0  0
  151.8229  141.1365  158.5418 C   0  0  0  0  0  0  0  0  0  0  0  0
  151.5395  140.9261  157.0465 C   0  0  0  0  0  0  0  0  0  0  0  0
  150.5619  141.9890  156.5186 C   0  0  0  0  0  0  0  0  0  0  0  0
  151.0788  143.3496  156.7817 N   0  3  0  0  0  0  0  0  0  0  0  0
  151.3253  143.6054  158.2181 C   0  0  0  0  0  0  0  0  0  0  0  0
  154.6776  140.4689  161.4805 H   0  0  0  0  0  0  0  0  0  0  0  0
  154.8755  141.1617  159.8604 H   0  0  0  0  0  0  0  0  0  0  0  0
  153.4777  140.1210  160.2230 H   0  0  0  0  0  0  0  0  0  0  0  0
  153.9142  142.1786  163.1195 H   0  0  0  0  0  0  0  0  0  0  0  0
  152.2206  144.3640  163.0273 H   0  0  0  0  0  0  0  0  0  0  0  0
  153.2500  142.6948  158.2618 H   0  0  0  0  0  0  0  0  0  0  0  0
  152.5670  140.4165  158.8845 H   0  0  0  0  0  0  0  0  0  0  0  0
  150.9140  140.9412  159.1129 H   0  0  0  0  0  0  0  0  0  0  0  0
  152.4736  140.9749  156.4850 H   0  0  0  0  0  0  0  0  0  0  0  0
  151.1312  139.9286  156.8810 H   0  0  0  0  0  0  0  0  0  0  0  0
  150.4113  141.8655  155.4459 H   0  0  0  0  0  0  0  0  0  0  0  0
  149.5858  141.8770  156.9930 H   0  0  0  0  0  0  0  0  0  0  0  0
  151.9479  143.4657  156.2803 H   0  0  0  0  0  0  0  0  0  0  0  0
  150.3729  143.5733  158.7496 H   0  0  0  0  0  0  0  0  0  0  0  0
  151.7200  144.6153  158.3330 H   0  0  0  0  0  0  0  0  0  0  0  0
  150.4118  144.0261  156.4381 H   0  0  0  0  0  0  0  0  0  0  0  0
  1  2  1  0  0  0  0
  1 13  1  0  0  0  0
  1 14  1  0  0  0  0
  1 15  1  0  0  0  0
  2  6  1  0  0  0  0
  2  3  1  0  0  0  0
  3  4  2  0  0  0  0
  3 16  1  0  0  0  0
  4  5  1  0  0  0  0
  4 17  1  0  0  0  0
  5  6  2  0  0  0  0
  6  7  1  0  0  0  0
  7 12  1  0  0  0  0
  7  8  1  0  0  0  0
  7 18  1  0  0  0  0
  8  9  1  0  0  0  0
  8 19  1  0  0  0  0
  8 20  1  0  0  0  0
  9 10  1  0  0  0  0
  9 21  1  0  0  0  0
  9 22  1  0  0  0  0
 10 11  1  0  0  0  0
 10 23  1  0  0  0  0
 10 24  1  0  0  0  0
 11 12  1  0  0  0  0
 11 25  1  0  0  0  0
 11 28  1  0  0  0  0
 12 26  1  0  0  0  0
 12 27  1  0  0  0  0
M  CHG  1  11   1
M  END
> <s_m_source_file>
AV-unprocessed.smi

> <i_m_source_file_index>
3125

> <i_lp_mmshare_version>
43012

> <i_f3d_flags>
0

> <s_epik_input>
W0NIM11uMVtjSF1bY0hdbmMxW0NAQEhdMltDSDJdW0NIMl1bQ0gyXVtOSF1bQ0gyXTI=

> <s_epik_cmdline>
J2VwaWtfcHl0aG9uJywgJy1waCcsICc3LjAnLCAnLXRuJywgJzgnLCAnLW1hJywgJzIwMCcsICctbWV0YWxfYmluZGluZycsICctaW1hZScsICc8aW5maWxlLm1hZT4nLCAnLW9tYWUnLCAnPG91dGZpbGUubWFlPic=

> <r_lp_tautomer_probability>
1

> <r_epik_Ionization_Penalty>
0.177191

> <r_epik_Ionization_Penalty_Charging>
0.177191

> <r_epik_Ionization_Penalty_Neutral>
7.05152e-14

> <r_epik_State_Penalty>
0.46716

> <r_epik_Charging_Adjusted_Penalty>
0.644351

> <i_epik_Tot_Q>
1

> <i_epik_Tot_abs_Q>
1

> <r_epik_Metal_State_Penalty>
0.000708398

> <b_epik_Metal_Only>
0

> <s_lp_Force_Field>
OPLS_2005

> <r_lp_Energy>
12.4076

> <b_lp_Chiralities_Consistent>
1

> <s_lp_Variant>
AV-unprocessed.smi:3125-4

> <Gold.Version>
5.8.1

> <Gold.Id.Protein>
6NUR|6NUR_protein|mol2

> <Gold.PLP.Fitness>
39.4414

> <Gold.PLP.PLP>
-33.4788

> <Gold.PLP.part.hbond>
-1.0000

> <Gold.PLP.part.metal>
0.0000

> <Gold.PLP.part.buried>
-3.8494

> <Gold.PLP.part.nonpolar>
-28.5922

> <Gold.PLP.part.repulsive>
0.1542

> <Gold.PLP.ligand.clash>
0.0000

> <Gold.PLP.ligand.torsion>
0.0318

> <Gold.PLP.Chemscore.Hbond>
2.0000

> <Gold.PLP.Chemscore.CHOScore>
0.0000

> <Gold.PLP.Chemscore.Metal>
0.0000

> <Gold.Chemscore.Hbonds>
donor molecule, donor type, donor heavy atom, donor atom, acceptor molecule, acceptor atom, score
      L1  H    11    28       P1  8028  2.00

> <Gold.PLP.Chemscore.Internal.Correction>
0.0262

> <Gold.Rescore>
     Score         DG    S(hbond)    S(metal)    S(lipo)     H(rot)  DE(clash)    DE(int)     intcor
     15.20     -15.28       1.00        0.00      77.07       1.00       0.04       0.04       ----

> <Gold.Chemscore.Fitness>
15.2039

> <Gold.Chemscore.DG>
-15.2778

> <Gold.Chemscore.ZeroCoef>
-5.4800

> <Gold.Chemscore.Hbond>
1.0000

> <Gold.Chemscore.Metal>
0.0000

> <Gold.Chemscore.Lipo>
77.0749

> <Gold.Chemscore.Internal_Hbond>
0.0000

> <Gold.Chemscore.DEClash>
0.0383

> <Gold.Chemscore.DEInternal>
0.0355

> <Gold.Chemscore.Rot>
1.0000

> <Gold.Chemscore.Internal.Correction>
   9.000000E+99

> <Gold.Chemscore.Hbonds>
donor molecule, donor type, donor heavy atom, donor atom, acceptor molecule, acceptor atom, score
      L1  H    11    28       P1  8028  1.00

> <Gold.Chemscore.Hbond.Weighted>
-3.3400

> <Gold.Chemscore.Metal.Weighted>
-0.0000

> <Gold.Chemscore.Lipo.Weighted>
-9.0178

> <Gold.Chemscore.Internal_Hbond.Weighted>
0.0000

> <Gold.Chemscore.DEClash.Weighted>
0.0383

> <Gold.Chemscore.DEInternal.Weighted>
0.0355

> <Gold.Chemscore.Rot.Weighted>
2.5600

> <Gold.Chemscore.Internal.Correction.Weighted>
   9.000000E+99

> <Gold.Protein.RotatedTorsions>
[ 6907 6896 6895 6894 ] final   51.26 input  -60.11 | X-H torsion
[ 7974 7965 7964 7962 ] final   16.38 input  175.53 | X-H torsion
[ 8008 7997 7996 7995 ] final   86.37 input   59.86 | X-H torsion
[ 10167 10162 10161 10158 ] final   81.96 input  -65.29 | X-H torsion
[ 10718 10713 10712 10709 ] final -168.44 input   66.30 | X-H torsion
[ 10763 10752 10751 10750 ] final -166.24 input  -60.55 | X-H torsion
[ 11005 11000 10999 10996 ] final   87.38 input  -57.11 | X-H torsion

> <Gold.Protein.ActiveResidues>
 VAL166  LYS551  ARG553  GLY616  TRP617  ASP618  TYR619  PRO620  LYS621  CYS622 
 ASP623  PHE694  ASN695  SER759  ASP760  ASP761  ALA762  ILE779  LEU786  VAL792 
 PHE793  MET794  SER795  GLU796  ALA797  LYS798  CYS799  TRP800  GLU811  SER814 

> <Gold.Protein.RotatedAtoms>
  152.3107  134.7501  160.0336 H   0  0  0  0  0  0  0  0  0  0  0  0  # atno 6907 bound_to 6896
  151.7982  133.3361  159.3527 H   0  0  0  0  0  0  0  0  0  0  0  0  # atno 6908 bound_to 6896
  150.7319  134.5708  159.5934 H   0  0  0  0  0  0  0  0  0  0  0  0  # atno 6909 bound_to 6896
  146.2251  139.8756  142.8580 H   0  0  0  0  0  0  0  0  0  0  0  0  # atno 7974 bound_to 7965
  155.9620  140.3392  155.6499 H   0  0  0  0  0  0  0  0  0  0  0  0  # atno 8008 bound_to 7997
  155.6786  140.0735  157.2511 H   0  0  0  0  0  0  0  0  0  0  0  0  # atno 8009 bound_to 7997
  154.4145  140.1678  156.1945 H   0  0  0  0  0  0  0  0  0  0  0  0  # atno 8010 bound_to 7997
  139.9338  144.6135  150.8319 H   0  0  0  0  0  0  0  0  0  0  0  0  # atno 10167 bound_to 10162
  156.6970  130.9181  151.3075 H   0  0  0  0  0  0  0  0  0  0  0  0  # atno 10718 bound_to 10713
  154.6852  135.2961  154.9557 H   0  0  0  0  0  0  0  0  0  0  0  0  # atno 10763 bound_to 10752
  154.0539  135.6641  153.4807 H   0  0  0  0  0  0  0  0  0  0  0  0  # atno 10764 bound_to 10752
  153.0574  135.5136  154.7916 H   0  0  0  0  0  0  0  0  0  0  0  0  # atno 10765 bound_to 10752
  139.8921  134.8418  156.2852 H   0  0  0  0  0  0  0  0  0  0  0  0  # atno 11005 bound_to 11000
  145.2564  141.0062  143.3851 LP  0  0  0  0  0  0  0  0  0  0  0  0  # atno 17320 bound_to 7965
  144.9333  139.4273  143.6484 LP  0  0  0  0  0  0  0  0  0  0  0  0  # atno 17321 bound_to 7965
  140.7630  143.3212  151.2618 LP  0  0  0  0  0  0  0  0  0  0  0  0  # atno 17342 bound_to 10162
  139.6760  143.9936  152.2781 LP  0  0  0  0  0  0  0  0  0  0  0  0  # atno 17343 bound_to 10162
  157.6987  130.9310  150.0722 LP  0  0  0  0  0  0  0  0  0  0  0  0  # atno 17370 bound_to 10713
  156.1756  130.3648  149.9104 LP  0  0  0  0  0  0  0  0  0  0  0  0  # atno 17371 bound_to 10713
  141.0012  133.7150  156.0964 LP  0  0  0  0  0  0  0  0  0  0  0  0  # atno 17394 bound_to 11000
  140.7495  134.4061  157.5543 LP  0  0  0  0  0  0  0  0  0  0  0  0  # atno 17395 bound_to 11000

$$$$
