AV-unprocessed.smi:1531|AV-procd|sdf|6156|dock4
  -GOLD-   22720 6303D 1   1.00000     0.00000
 Structure written by MMmdl.
 44 45  0  0  0  0  0  0  0  0  1 V2000
  150.4851  141.4207  156.3495 C   0  0  0  0  0  0  0  0  0  0  0  0
  149.8836  141.9894  157.6426 C   0  0  0  0  0  0  0  0  0  0  0  0
  150.6580  143.1955  158.2286 C   0  0  2  0  0  0  0  0  0  0  0  0
  152.1052  142.8072  158.6125 C   0  0  0  0  0  0  0  0  0  0  0  0
  152.8870  143.9863  159.2099 C   0  0  0  0  0  0  0  0  0  0  0  0
  152.1597  144.5704  160.4262 C   0  0  0  0  0  0  0  0  0  0  0  0
  150.7319  144.9898  160.0548 C   0  0  0  0  0  0  0  0  0  0  0  0
  149.9307  143.8170  159.4514 C   0  0  1  0  0  0  0  0  0  0  0  0
  148.5984  144.2890  159.0763 N   0  0  0  0  0  0  0  0  0  0  0  0
  147.4831  144.1236  159.8018 C   0  0  0  0  0  0  0  0  0  0  0  0
  147.4562  143.5469  160.8890 O   0  0  0  0  0  0  0  0  0  0  0  0
  146.4184  144.6676  159.1905 N   0  0  0  0  0  0  0  0  0  0  0  0
  145.0824  144.6968  159.6625 C   0  0  0  0  0  0  0  0  0  0  0  0
  144.3863  143.7432  160.4579 C   0  0  0  0  0  0  0  0  0  0  0  0
  143.1430  144.1360  160.6912 N   0  0  0  0  0  0  0  0  0  0  0  0
  143.0242  145.3296  160.0575 N   0  0  0  0  0  0  0  0  0  0  0  0
  141.7650  146.0504  160.1118 C   0  0  0  0  0  0  0  0  0  0  0  0
  140.6177  145.1326  160.5375 C   0  0  0  0  0  0  0  0  0  0  0  0
  140.4010  144.0437  159.7950 N   0  0  0  0  0  0  0  0  0  0  0  0
  139.9382  145.4020  161.5255 O   0  0  0  0  0  0  0  0  0  0  0  0
  144.1917  145.6981  159.4175 C   0  0  0  0  0  0  0  0  0  0  0  0
  149.8433  140.6412  155.9385 H   0  0  0  0  0  0  0  0  0  0  0  0
  151.4650  140.9754  156.5177 H   0  0  0  0  0  0  0  0  0  0  0  0
  150.5908  142.1956  155.5900 H   0  0  0  0  0  0  0  0  0  0  0  0
  148.8575  142.2797  157.4178 H   0  0  0  0  0  0  0  0  0  0  0  0
  149.8119  141.1982  158.3899 H   0  0  0  0  0  0  0  0  0  0  0  0
  150.7147  143.9622  157.4540 H   0  0  0  0  0  0  0  0  0  0  0  0
  152.0867  141.9858  159.3299 H   0  0  0  0  0  0  0  0  0  0  0  0
  152.6467  142.4412  157.7407 H   0  0  0  0  0  0  0  0  0  0  0  0
  153.8876  143.6612  159.4966 H   0  0  0  0  0  0  0  0  0  0  0  0
  153.0183  144.7608  158.4530 H   0  0  0  0  0  0  0  0  0  0  0  0
  152.1291  143.8316  161.2281 H   0  0  0  0  0  0  0  0  0  0  0  0
  152.7106  145.4275  160.8144 H   0  0  0  0  0  0  0  0  0  0  0  0
  150.2259  145.3741  160.9413 H   0  0  0  0  0  0  0  0  0  0  0  0
  150.7728  145.8145  159.3418 H   0  0  0  0  0  0  0  0  0  0  0  0
  149.8335  143.0391  160.2117 H   0  0  0  0  0  0  0  0  0  0  0  0
  148.5230  144.7763  158.1956 H   0  0  0  0  0  0  0  0  0  0  0  0
  146.5825  145.1169  158.3015 H   0  0  0  0  0  0  0  0  0  0  0  0
  144.7220  142.8024  160.8677 H   0  0  0  0  0  0  0  0  0  0  0  0
  141.8513  146.8895  160.8040 H   0  0  0  0  0  0  0  0  0  0  0  0
  141.5599  146.4692  159.1256 H   0  0  0  0  0  0  0  0  0  0  0  0
  139.6597  143.4045  160.0442 H   0  0  0  0  0  0  0  0  0  0  0  0
  140.9847  143.8588  158.9925 H   0  0  0  0  0  0  0  0  0  0  0  0
  144.2816  146.6187  158.8595 H   0  0  0  0  0  0  0  0  0  0  0  0
  1  2  1  0  0  0  0
  1 22  1  0  0  0  0
  1 23  1  0  0  0  0
  1 24  1  0  0  0  0
  2  3  1  0  0  0  0
  2 25  1  0  0  0  0
  2 26  1  0  0  0  0
  3  8  1  0  0  0  0
  3  4  1  0  0  0  0
  3 27  1  0  0  0  0
  4  5  1  0  0  0  0
  4 28  1  0  0  0  0
  4 29  1  0  0  0  0
  5  6  1  0  0  0  0
  5 30  1  0  0  0  0
  5 31  1  0  0  0  0
  6  7  1  0  0  0  0
  6 32  1  0  0  0  0
  6 33  1  0  0  0  0
  7  8  1  0  0  0  0
  7 34  1  0  0  0  0
  7 35  1  0  0  0  0
  8  9  1  0  0  0  0
  8 36  1  0  0  0  0
  9 10  1  0  0  0  0
  9 37  1  0  0  0  0
 10 11  2  0  0  0  0
 10 12  1  0  0  0  0
 12 13  1  0  0  0  0
 12 38  1  0  0  0  0
 13 21  2  0  0  0  0
 13 14  1  0  0  0  0
 14 15  2  0  0  0  0
 14 39  1  0  0  0  0
 15 16  1  0  0  0  0
 16 17  1  0  0  0  0
 16 21  1  0  0  0  0
 17 18  1  0  0  0  0
 17 40  1  0  0  0  0
 17 41  1  0  0  0  0
 18 19  1  0  0  0  0
 18 20  2  0  0  0  0
 19 42  1  0  0  0  0
 19 43  1  0  0  0  0
 21 44  1  0  0  0  0
M  END
> <s_m_source_file>
AV-unprocessed.smi

> <i_m_source_file_index>
1531

> <i_lp_mmshare_version>
43012

> <i_f3d_flags>
0

> <s_epik_input>
W0NIM11bQ0gyXVtDQEBIXTFbQ0gyXVtDSDJdW0NIMl1bQ0gyXVtDQEhdMVtOSF1DKD1PKVtOSF1jMltjSF1ubihbY0hdMilbQ0gyXUMoPU8pW05IMl0=

> <s_epik_cmdline>
J2VwaWtfcHl0aG9uJywgJy1waCcsICc3LjAnLCAnLXRuJywgJzgnLCAnLW1hJywgJzIwMCcsICctbWV0YWxfYmluZGluZycsICctaW1hZScsICc8aW5maWxlLm1hZT4nLCAnLW9tYWUnLCAnPG91dGZpbGUubWFlPic=

> <r_lp_tautomer_probability>
1

> <r_epik_Ionization_Penalty>
4.83437e-05

> <r_epik_Ionization_Penalty_Charging>
0

> <r_epik_Ionization_Penalty_Neutral>
4.83437e-05

> <r_epik_State_Penalty>
-0

> <r_epik_Charging_Adjusted_Penalty>
0

> <i_epik_Tot_Q>
0

> <i_epik_Tot_abs_Q>
0

> <r_epik_Metal_State_Penalty>
-0

> <b_epik_Metal_Only>
0

> <s_lp_Force_Field>
OPLS_2005

> <r_lp_Energy>
14.6895

> <b_lp_Chiralities_Consistent>
1

> <s_lp_Variant>
AV-unprocessed.smi:1531-1

> <Gold.Version>
5.8.1

> <Gold.Id.Protein>
6NUR|6NUR_protein|mol2

> <Gold.PLP.Fitness>
39.6602

> <Gold.PLP.PLP>
-32.3071

> <Gold.PLP.part.hbond>
-3.9729

> <Gold.PLP.part.metal>
0.0000

> <Gold.PLP.part.buried>
-5.6971

> <Gold.PLP.part.nonpolar>
-23.5922

> <Gold.PLP.part.repulsive>
0.3405

> <Gold.PLP.ligand.clash>
0.0000

> <Gold.PLP.ligand.torsion>
0.7342

> <Gold.PLP.Chemscore.Hbond>
2.9280

> <Gold.PLP.Chemscore.CHOScore>
0.0000

> <Gold.PLP.Chemscore.Metal>
0.0000

> <Gold.Chemscore.Hbonds>
donor molecule, donor type, donor heavy atom, donor atom, acceptor molecule, acceptor atom, score
      L1  H     9    37       P1  8029  1.00
      L1  H    12    38       P1  8029  0.90
      P1  H  6933  6944       L1    11  1.00

> <Gold.PLP.Chemscore.Internal.Correction>
0.0375

> <Gold.Rescore>
     Score         DG    S(hbond)    S(metal)    S(lipo)     H(rot)  DE(clash)    DE(int)     intcor
     19.26     -20.17       2.92        0.00      88.72       2.13       0.39       0.52       ----

> <Gold.Chemscore.Fitness>
19.2617

> <Gold.Chemscore.DG>
-20.1656

> <Gold.Chemscore.ZeroCoef>
-5.4800

> <Gold.Chemscore.Hbond>
2.9242

> <Gold.Chemscore.Metal>
0.0000

> <Gold.Chemscore.Lipo>
88.7231

> <Gold.Chemscore.Internal_Hbond>
0.0000

> <Gold.Chemscore.DEClash>
0.3879

> <Gold.Chemscore.DEInternal>
0.5161

> <Gold.Chemscore.Rot>
2.1335

> <Gold.Chemscore.Internal.Correction>
   9.000000E+99

> <Gold.Chemscore.Hbonds>
donor molecule, donor type, donor heavy atom, donor atom, acceptor molecule, acceptor atom, score
      L1  H     9    37       P1  8029  0.62
      L1  H    12    38       P1  8029  0.87
      P1  H  6933  6944       L1    11  1.00

> <Gold.Chemscore.Hbond.Weighted>
-9.7669

> <Gold.Chemscore.Metal.Weighted>
-0.0000

> <Gold.Chemscore.Lipo.Weighted>
-10.3806

> <Gold.Chemscore.Internal_Hbond.Weighted>
0.0000

> <Gold.Chemscore.DEClash.Weighted>
0.3879

> <Gold.Chemscore.DEInternal.Weighted>
0.5161

> <Gold.Chemscore.Rot.Weighted>
5.4618

> <Gold.Chemscore.Internal.Correction.Weighted>
   9.000000E+99

> <Gold.Protein.RotatedTorsions>
[ 6907 6896 6895 6894 ] final   54.28 input  -60.11 | X-H torsion
[ 7974 7965 7964 7962 ] final  -37.11 input  175.53 | X-H torsion
[ 8008 7997 7996 7995 ] final  163.09 input   59.86 | X-H torsion
[ 10167 10162 10161 10158 ] final  158.44 input  -65.29 | X-H torsion
[ 10718 10713 10712 10709 ] final -135.04 input   66.30 | X-H torsion
[ 10763 10752 10751 10750 ] final  131.04 input  -60.55 | X-H torsion
[ 11005 11000 10999 10996 ] final  -16.75 input  -57.11 | X-H torsion

> <Gold.Protein.ActiveResidues>
 VAL166  LYS551  ARG553  GLY616  TRP617  ASP618  TYR619  PRO620  LYS621  CYS622 
 ASP623  PHE694  ASN695  SER759  ASP760  ASP761  ALA762  ILE779  LEU786  VAL792 
 PHE793  MET794  SER795  GLU796  ALA797  LYS798  CYS799  TRP800  GLU811  SER814 

> <Gold.Protein.RotatedAtoms>
  152.3423  134.7118  160.0259 H   0  0  0  0  0  0  0  0  0  0  0  0  # atno 6907 bound_to 6896
  151.7499  133.3321  159.3396 H   0  0  0  0  0  0  0  0  0  0  0  0  # atno 6908 bound_to 6896
  150.7487  134.6135  159.6143 H   0  0  0  0  0  0  0  0  0  0  0  0  # atno 6909 bound_to 6896
  146.0603  140.6358  142.9000 H   0  0  0  0  0  0  0  0  0  0  0  0  # atno 7974 bound_to 7965
  156.1983  140.1733  156.7952 H   0  0  0  0  0  0  0  0  0  0  0  0  # atno 8008 bound_to 7997
  154.5558  140.0709  156.8772 H   0  0  0  0  0  0  0  0  0  0  0  0  # atno 8009 bound_to 7997
  155.2941  140.3357  155.4253 H   0  0  0  0  0  0  0  0  0  0  0  0  # atno 8010 bound_to 7997
  139.4827  144.4824  151.8425 H   0  0  0  0  0  0  0  0  0  0  0  0  # atno 10167 bound_to 10162
  156.2618  130.7214  151.1151 H   0  0  0  0  0  0  0  0  0  0  0  0  # atno 10718 bound_to 10713
  153.7679  135.3186  155.3347 H   0  0  0  0  0  0  0  0  0  0  0  0  # atno 10763 bound_to 10752
  154.8207  135.4605  154.0773 H   0  0  0  0  0  0  0  0  0  0  0  0  # atno 10764 bound_to 10752
  153.2024  135.6924  153.8299 H   0  0  0  0  0  0  0  0  0  0  0  0  # atno 10765 bound_to 10752
  140.8100  133.8148  155.9553 H   0  0  0  0  0  0  0  0  0  0  0  0  # atno 11005 bound_to 11000
  144.7171  140.4247  143.7036 LP  0  0  0  0  0  0  0  0  0  0  0  0  # atno 17320 bound_to 7965
  145.6571  139.1575  143.2829 LP  0  0  0  0  0  0  0  0  0  0  0  0  # atno 17321 bound_to 7965
  140.4301  144.2127  150.5888 LP  0  0  0  0  0  0  0  0  0  0  0  0  # atno 17342 bound_to 10162
  140.4788  143.2386  151.8985 LP  0  0  0  0  0  0  0  0  0  0  0  0  # atno 17343 bound_to 10162
  157.7253  131.0654  150.5957 LP  0  0  0  0  0  0  0  0  0  0  0  0  # atno 17370 bound_to 10713
  156.6046  130.4363  149.5883 LP  0  0  0  0  0  0  0  0  0  0  0  0  # atno 17371 bound_to 10713
  140.9208  134.2144  157.4928 LP  0  0  0  0  0  0  0  0  0  0  0  0  # atno 17394 bound_to 11000
  139.8715  134.9791  156.5024 LP  0  0  0  0  0  0  0  0  0  0  0  0  # atno 17395 bound_to 11000

$$$$
