AV-unprocessed.smi:3228|AV-procd|sdf|12320|dock10
  -GOLD-   2272018173D 1   1.00000     0.00000
 Structure written by MMmdl.
 31 32  0  0  0  0  0  0  0  0  1 V2000
  144.9101  137.4135  152.7568 O   0  0  0  0  0  0  0  0  0  0  0  0
  146.0492  137.0536  152.4582 C   0  0  0  0  0  0  0  0  0  0  0  0
  147.1292  137.8373  152.5893 N   0  0  0  0  0  0  0  0  0  0  0  0
  147.1125  139.2070  153.0919 C   0  0  0  0  0  0  0  0  0  0  0  0
  148.0740  139.3986  154.2842 C   0  0  1  0  0  0  0  0  0  0  0  0
  149.3162  138.4977  154.2696 C   0  0  0  0  0  0  0  0  0  0  0  0
  150.3616  139.2132  155.1392 C   0  0  0  0  0  0  0  0  0  0  0  0
  149.8109  140.6202  155.4208 C   0  0  0  0  0  0  0  0  0  0  0  0
  148.6393  140.8166  154.4533 C   0  0  1  0  0  0  0  0  0  0  0  0
  149.1337  141.3293  153.2297 O   0  0  0  0  0  0  0  0  0  0  0  0
  146.3799  135.8456  151.9689 N   0  0  0  0  0  0  0  0  0  0  0  0
  145.5230  134.7504  151.6824 C   0  0  0  0  0  0  0  0  0  0  0  0
  144.1864  134.8202  151.6701 N   0  0  0  0  0  0  0  0  0  0  0  0
  143.5998  133.5921  151.3545 C   0  0  0  0  0  0  0  0  0  0  0  0
  144.5112  132.5911  151.1268 C   0  0  0  0  0  0  0  0  0  0  0  0
  146.1521  133.1541  151.3014 S   0  0  0  0  0  0  0  0  0  0  0  0
  148.0273  137.4622  152.3209 H   0  0  0  0  0  0  0  0  0  0  0  0
  147.3917  139.8629  152.2671 H   0  0  0  0  0  0  0  0  0  0  0  0
  146.0968  139.4857  153.3771 H   0  0  0  0  0  0  0  0  0  0  0  0
  147.5243  139.1740  155.2003 H   0  0  0  0  0  0  0  0  0  0  0  0
  149.0977  137.4924  154.6313 H   0  0  0  0  0  0  0  0  0  0  0  0
  149.6963  138.4029  153.2516 H   0  0  0  0  0  0  0  0  0  0  0  0
  150.5347  138.6764  156.0724 H   0  0  0  0  0  0  0  0  0  0  0  0
  151.3156  139.2671  154.6133 H   0  0  0  0  0  0  0  0  0  0  0  0
  149.4358  140.6545  156.4447 H   0  0  0  0  0  0  0  0  0  0  0  0
  150.5724  141.3964  155.3331 H   0  0  0  0  0  0  0  0  0  0  0  0
  147.8955  141.5084  154.8504 H   0  0  0  0  0  0  0  0  0  0  0  0
  149.1516  140.6281  152.5965 H   0  0  0  0  0  0  0  0  0  0  0  0
  147.3587  135.6913  151.7771 H   0  0  0  0  0  0  0  0  0  0  0  0
  142.5229  133.5197  151.3139 H   0  0  0  0  0  0  0  0  0  0  0  0
  144.3168  131.5609  150.8682 H   0  0  0  0  0  0  0  0  0  0  0  0
  1  2  2  0  0  0  0
  2  3  1  0  0  0  0
  2 11  1  0  0  0  0
  3  4  1  0  0  0  0
  3 17  1  0  0  0  0
  4  5  1  0  0  0  0
  4 18  1  0  0  0  0
  4 19  1  0  0  0  0
  5  9  1  0  0  0  0
  5  6  1  0  0  0  0
  5 20  1  0  0  0  0
  6  7  1  0  0  0  0
  6 21  1  0  0  0  0
  6 22  1  0  0  0  0
  7  8  1  0  0  0  0
  7 23  1  0  0  0  0
  7 24  1  0  0  0  0
  8  9  1  0  0  0  0
  8 25  1  0  0  0  0
  8 26  1  0  0  0  0
  9 10  1  0  0  0  0
  9 27  1  0  0  0  0
 10 28  1  0  0  0  0
 11 12  1  0  0  0  0
 11 29  1  0  0  0  0
 12 16  1  0  0  0  0
 12 13  2  0  0  0  0
 13 14  1  0  0  0  0
 14 15  2  0  0  0  0
 14 30  1  0  0  0  0
 15 16  1  0  0  0  0
 15 31  1  0  0  0  0
M  END
> <s_m_source_file>
AV-unprocessed.smi

> <i_m_source_file_index>
3228

> <i_lp_mmshare_version>
43012

> <i_f3d_flags>
0

> <s_epik_input>
czFbY0hdW2NIXW5jMVtOSF1DKD1PKVtOSF1bQ0gyXVtDQEBIXTJbQ0gyXVtDSDJdW0NIMl1bQ0BIXTJbT0hd

> <s_epik_cmdline>
J2VwaWtfcHl0aG9uJywgJy1waCcsICc3LjAnLCAnLXRuJywgJzgnLCAnLW1hJywgJzIwMCcsICctbWV0YWxfYmluZGluZycsICctaW1hZScsICc8aW5maWxlLm1hZT4nLCAnLW9tYWUnLCAnPG91dGZpbGUubWFlPic=

> <r_lp_tautomer_probability>
0.999

> <r_epik_Ionization_Penalty>
0.000399498

> <r_epik_Ionization_Penalty_Charging>
0

> <r_epik_Ionization_Penalty_Neutral>
0.000399498

> <r_epik_State_Penalty>
0.000177984

> <r_epik_Charging_Adjusted_Penalty>
0.000177984

> <i_epik_Tot_Q>
0

> <i_epik_Tot_abs_Q>
0

> <r_epik_Metal_State_Penalty>
0.0060793

> <b_epik_Metal_Only>
0

> <s_lp_Force_Field>
OPLS_2005

> <r_lp_Energy>
23.3764

> <b_lp_Chiralities_Consistent>
1

> <s_lp_Variant>
AV-unprocessed.smi:3228-2

> <Gold.Version>
5.8.1

> <Gold.Id.Protein>
6NUR|6NUR_protein|mol2

> <Gold.PLP.Fitness>
41.1326

> <Gold.PLP.PLP>
-27.1512

> <Gold.PLP.part.hbond>
-4.3378

> <Gold.PLP.part.metal>
0.0000

> <Gold.PLP.part.buried>
-2.4526

> <Gold.PLP.part.nonpolar>
-21.1113

> <Gold.PLP.part.repulsive>
0.4809

> <Gold.PLP.ligand.clash>
0.0000

> <Gold.PLP.ligand.torsion>
0.3881

> <Gold.PLP.Chemscore.Hbond>
3.9340

> <Gold.PLP.Chemscore.CHOScore>
0.9846

> <Gold.PLP.Chemscore.Metal>
0.0000

> <Gold.Chemscore.Hbonds>
donor molecule, donor type, donor heavy atom, donor atom, acceptor molecule, acceptor atom, score
      L1  H     3    17       P1  7948  1.00
      L1  H    10    28       P1  7957  0.99
      L1  H    11    29       P1  7948  1.00
      P1  H  8011  8017       L1    10  0.85
      L1  C    14    30       P1 10186  0.96

> <Gold.PLP.Chemscore.Internal.Correction>
0.0018

> <Gold.Rescore>
     Score         DG    S(hbond)    S(metal)    S(lipo)     H(rot)  DE(clash)    DE(int)     intcor
     15.63     -17.18       2.90        0.00      58.45       1.88       0.05       1.49       ----

> <Gold.Chemscore.Fitness>
15.6349

> <Gold.Chemscore.DG>
-17.1793

> <Gold.Chemscore.ZeroCoef>
-5.4800

> <Gold.Chemscore.Hbond>
2.8951

> <Gold.Chemscore.Metal>
0.0000

> <Gold.Chemscore.Lipo>
58.4502

> <Gold.Chemscore.Internal_Hbond>
0.0000

> <Gold.Chemscore.DEClash>
0.0540

> <Gold.Chemscore.DEInternal>
1.4904

> <Gold.Chemscore.Rot>
1.8786

> <Gold.Chemscore.Internal.Correction>
   9.000000E+99

> <Gold.Chemscore.Hbonds>
donor molecule, donor type, donor heavy atom, donor atom, acceptor molecule, acceptor atom, score
      L1  H     3    17       P1  7948  0.95
      L1  H    10    28       P1  7957  0.93
      L1  H    11    29       P1  7948  0.95
      P1  H  8011  8017       L1    10  0.13

> <Gold.Chemscore.Hbond.Weighted>
-9.6698

> <Gold.Chemscore.Metal.Weighted>
-0.0000

> <Gold.Chemscore.Lipo.Weighted>
-6.8387

> <Gold.Chemscore.Internal_Hbond.Weighted>
0.0000

> <Gold.Chemscore.DEClash.Weighted>
0.0540

> <Gold.Chemscore.DEInternal.Weighted>
1.4904

> <Gold.Chemscore.Rot.Weighted>
4.8091

> <Gold.Chemscore.Internal.Correction.Weighted>
   9.000000E+99

> <Gold.Protein.RotatedTorsions>
[ 6907 6896 6895 6894 ] final -153.48 input  -60.11 | X-H torsion
[ 7974 7965 7964 7962 ] final -145.01 input  175.53 | X-H torsion
[ 8008 7997 7996 7995 ] final -133.41 input   59.86 | X-H torsion
[ 10167 10162 10161 10158 ] final  -94.72 input  -65.29 | X-H torsion
[ 10718 10713 10712 10709 ] final  -34.46 input   66.30 | X-H torsion
[ 10763 10752 10751 10750 ] final  -18.00 input  -60.55 | X-H torsion
[ 11005 11000 10999 10996 ] final  -95.67 input  -57.11 | X-H torsion

> <Gold.Protein.ActiveResidues>
 VAL166  LYS551  ARG553  GLY616  TRP617  ASP618  TYR619  PRO620  LYS621  CYS622 
 ASP623  PHE694  ASN695  SER759  ASP760  ASP761  ALA762  ILE779  LEU786  VAL792 
 PHE793  MET794  SER795  GLU796  ALA797  LYS798  CYS799  TRP800  GLU811  SER814 

> <Gold.Protein.RotatedAtoms>
  151.2432  133.4389  159.2607 H   0  0  0  0  0  0  0  0  0  0  0  0  # atno 6907 bound_to 6896
  151.0686  134.9784  159.8307 H   0  0  0  0  0  0  0  0  0  0  0  0  # atno 6908 bound_to 6896
  152.5409  134.2378  159.8903 H   0  0  0  0  0  0  0  0  0  0  0  0  # atno 6909 bound_to 6896
  144.8257  140.5638  143.5548 H   0  0  0  0  0  0  0  0  0  0  0  0  # atno 7974 bound_to 7965
  155.3450  140.0474  157.3045 H   0  0  0  0  0  0  0  0  0  0  0  0  # atno 8008 bound_to 7997
  154.5257  140.2240  155.8859 H   0  0  0  0  0  0  0  0  0  0  0  0  # atno 8009 bound_to 7997
  156.1737  140.3090  155.9026 H   0  0  0  0  0  0  0  0  0  0  0  0  # atno 8010 bound_to 7997
  140.3115  143.3102  152.0143 H   0  0  0  0  0  0  0  0  0  0  0  0  # atno 10167 bound_to 10162
  156.3502  130.4307  149.7710 H   0  0  0  0  0  0  0  0  0  0  0  0  # atno 10718 bound_to 10713
  153.5825  135.7004  153.5457 H   0  0  0  0  0  0  0  0  0  0  0  0  # atno 10763 bound_to 10752
  153.3249  135.4063  155.1447 H   0  0  0  0  0  0  0  0  0  0  0  0  # atno 10764 bound_to 10752
  154.8615  135.3704  154.5353 H   0  0  0  0  0  0  0  0  0  0  0  0  # atno 10765 bound_to 10752
  141.1435  133.8042  157.0466 H   0  0  0  0  0  0  0  0  0  0  0  0  # atno 11005 bound_to 11000
  145.5005  139.1483  143.3660 LP  0  0  0  0  0  0  0  0  0  0  0  0  # atno 17320 bound_to 7965
  146.2563  140.5144  142.8872 LP  0  0  0  0  0  0  0  0  0  0  0  0  # atno 17321 bound_to 7965
  139.4893  144.6381  151.6934 LP  0  0  0  0  0  0  0  0  0  0  0  0  # atno 17342 bound_to 10162
  140.5564  144.0341  150.6149 LP  0  0  0  0  0  0  0  0  0  0  0  0  # atno 17343 bound_to 10162
  156.4914  130.8086  151.3096 LP  0  0  0  0  0  0  0  0  0  0  0  0  # atno 17370 bound_to 10713
  157.7460  130.9974  150.2815 LP  0  0  0  0  0  0  0  0  0  0  0  0  # atno 17371 bound_to 10713
  140.0658  134.9729  157.1384 LP  0  0  0  0  0  0  0  0  0  0  0  0  # atno 17394 bound_to 11000
  140.3781  134.2316  155.7173 LP  0  0  0  0  0  0  0  0  0  0  0  0  # atno 17395 bound_to 11000

$$$$
