AV-unprocessed.smi:915|AV-procd|sdf|4155|dock3
  -GOLD-   22720 2 63D 1   1.00000     0.00000
 Structure written by MMmdl.
 34 35  0  0  0  0  0  0  0  0  1 V2000
  145.1596  142.9080  154.6353 C   0  0  0  0  0  0  0  0  0  0  0  0
  146.5319  143.0451  153.9671 C   0  0  0  0  0  0  0  0  0  0  0  0
  147.2983  141.7572  153.9695 C   0  0  0  0  0  0  0  0  0  0  0  0
  148.4790  141.5009  154.6235 C   0  0  0  0  0  0  0  0  0  0  0  0
  149.0319  139.8687  154.3597 S   0  0  0  0  0  0  0  0  0  0  0  0
  147.6181  139.5937  153.3541 C   0  0  0  0  0  0  0  0  0  0  0  0
  147.3694  138.3424  152.7318 N   0  0  0  0  0  0  0  0  0  0  0  0
  146.1859  137.8147  152.3736 C   0  0  0  0  0  0  0  0  0  0  0  0
  145.0921  138.3670  152.4974 O   0  0  0  0  0  0  0  0  0  0  0  0
  146.3383  136.5892  151.8523 N   0  0  0  0  0  0  0  0  0  0  0  0
  145.2500  135.7396  151.3794 C   0  0  0  0  0  0  0  0  0  0  0  0
  145.4709  134.2573  151.7362 C   0  0  1  0  0  0  0  0  0  0  0  0
  144.2090  133.4061  151.5465 C   0  0  0  0  0  0  0  0  0  0  0  0
  144.6698  131.9537  151.4190 C   0  0  0  0  0  0  0  0  0  0  0  0
  145.8507  131.9595  150.4477 C   0  0  0  0  0  0  0  0  0  0  0  0
  146.7785  133.4885  150.7347 S   0  0  0  0  0  0  0  0  0  0  0  0
  146.8179  140.6604  153.2474 N   0  0  0  0  0  0  0  0  0  0  0  0
  144.6250  143.8578  154.6220 H   0  0  0  0  0  0  0  0  0  0  0  0
  145.2565  142.5952  155.6755 H   0  0  0  0  0  0  0  0  0  0  0  0
  144.5436  142.1713  154.1188 H   0  0  0  0  0  0  0  0  0  0  0  0
  146.3976  143.3984  152.9442 H   0  0  0  0  0  0  0  0  0  0  0  0
  147.1045  143.8204  154.4777 H   0  0  0  0  0  0  0  0  0  0  0  0
  149.0550  142.1721  155.2433 H   0  0  0  0  0  0  0  0  0  0  0  0
  148.1862  137.7787  152.5486 H   0  0  0  0  0  0  0  0  0  0  0  0
  147.2712  136.2080  151.7919 H   0  0  0  0  0  0  0  0  0  0  0  0
  144.3049  136.0907  151.7972 H   0  0  0  0  0  0  0  0  0  0  0  0
  145.1700  135.8567  150.2984 H   0  0  0  0  0  0  0  0  0  0  0  0
  145.7797  134.1694  152.7788 H   0  0  0  0  0  0  0  0  0  0  0  0
  143.5074  133.5378  152.3707 H   0  0  0  0  0  0  0  0  0  0  0  0
  143.6924  133.7004  150.6319 H   0  0  0  0  0  0  0  0  0  0  0  0
  144.9971  131.5881  152.3933 H   0  0  0  0  0  0  0  0  0  0  0  0
  143.8680  131.2986  151.0779 H   0  0  0  0  0  0  0  0  0  0  0  0
  146.4880  131.0833  150.5682 H   0  0  0  0  0  0  0  0  0  0  0  0
  145.4889  131.9702  149.4191 H   0  0  0  0  0  0  0  0  0  0  0  0
  1  2  1  0  0  0  0
  1 18  1  0  0  0  0
  1 19  1  0  0  0  0
  1 20  1  0  0  0  0
  2  3  1  0  0  0  0
  2 21  1  0  0  0  0
  2 22  1  0  0  0  0
  3 17  1  0  0  0  0
  3  4  2  0  0  0  0
  4  5  1  0  0  0  0
  4 23  1  0  0  0  0
  5  6  1  0  0  0  0
  6  7  1  0  0  0  0
  6 17  2  0  0  0  0
  7  8  1  0  0  0  0
  7 24  1  0  0  0  0
  8  9  2  0  0  0  0
  8 10  1  0  0  0  0
 10 11  1  0  0  0  0
 10 25  1  0  0  0  0
 11 12  1  0  0  0  0
 11 26  1  0  0  0  0
 11 27  1  0  0  0  0
 12 16  1  0  0  0  0
 12 13  1  0  0  0  0
 12 28  1  0  0  0  0
 13 14  1  0  0  0  0
 13 29  1  0  0  0  0
 13 30  1  0  0  0  0
 14 15  1  0  0  0  0
 14 31  1  0  0  0  0
 14 32  1  0  0  0  0
 15 16  1  0  0  0  0
 15 33  1  0  0  0  0
 15 34  1  0  0  0  0
M  END
> <s_m_source_file>
AV-unprocessed.smi

> <i_m_source_file_index>
915

> <i_lp_mmshare_version>
43012

> <i_f3d_flags>
0

> <s_epik_input>
W0NIM11bQ0gyXWMxW2NIXXNjKG4xKVtOSF1DKD1PKVtOSF1bQ0gyXVtDQEBIXTJbQ0gyXVtDSDJdW0NIMl1TMg==

> <s_epik_cmdline>
J2VwaWtfcHl0aG9uJywgJy1waCcsICc3LjAnLCAnLXRuJywgJzgnLCAnLW1hJywgJzIwMCcsICctbWV0YWxfYmluZGluZycsICctaW1hZScsICc8aW5maWxlLm1hZT4nLCAnLW9tYWUnLCAnPG91dGZpbGUubWFlPic=

> <r_lp_tautomer_probability>
0.999

> <r_epik_Ionization_Penalty>
0.000460048

> <r_epik_Ionization_Penalty_Charging>
0

> <r_epik_Ionization_Penalty_Neutral>
0.000460048

> <r_epik_State_Penalty>
0.000177984

> <r_epik_Charging_Adjusted_Penalty>
0.000177984

> <i_epik_Tot_Q>
0

> <i_epik_Tot_abs_Q>
0

> <r_epik_Metal_State_Penalty>
0.00612978

> <b_epik_Metal_Only>
0

> <s_lp_Force_Field>
OPLS_2005

> <r_lp_Energy>
6.6865

> <b_lp_Chiralities_Consistent>
1

> <s_lp_Variant>
AV-unprocessed.smi:915-2

> <Gold.Version>
5.8.1

> <Gold.Id.Protein>
6NUR|6NUR_protein|mol2

> <Gold.PLP.Fitness>
39.5236

> <Gold.PLP.PLP>
-31.4669

> <Gold.PLP.part.hbond>
-2.3881

> <Gold.PLP.part.metal>
0.0000

> <Gold.PLP.part.buried>
-4.3774

> <Gold.PLP.part.nonpolar>
-28.4140

> <Gold.PLP.part.repulsive>
4.7403

> <Gold.PLP.ligand.clash>
0.0000

> <Gold.PLP.ligand.torsion>
0.4066

> <Gold.PLP.Chemscore.Hbond>
2.0000

> <Gold.PLP.Chemscore.CHOScore>
0.9459

> <Gold.PLP.Chemscore.Metal>
0.0000

> <Gold.Chemscore.Hbonds>
donor molecule, donor type, donor heavy atom, donor atom, acceptor molecule, acceptor atom, score
      L1  H     7    24       P1  7948  1.00
      L1  H    10    25       P1  7948  1.00
      L1  C     4    23       P1  8028  0.88

> <Gold.PLP.Chemscore.Internal.Correction>
0.0321

> <Gold.Rescore>
     Score         DG    S(hbond)    S(metal)    S(lipo)     H(rot)  DE(clash)    DE(int)     intcor
     14.16     -16.78       1.94        0.00      71.01       1.36       1.07       1.55       ----

> <Gold.Chemscore.Fitness>
14.1567

> <Gold.Chemscore.DG>
-16.7772

> <Gold.Chemscore.ZeroCoef>
-5.4800

> <Gold.Chemscore.Hbond>
1.9377

> <Gold.Chemscore.Metal>
0.0000

> <Gold.Chemscore.Lipo>
71.0059

> <Gold.Chemscore.Internal_Hbond>
0.0000

> <Gold.Chemscore.DEClash>
1.0721

> <Gold.Chemscore.DEInternal>
1.5484

> <Gold.Chemscore.Rot>
1.3603

> <Gold.Chemscore.Internal.Correction>
   9.000000E+99

> <Gold.Chemscore.Hbonds>
donor molecule, donor type, donor heavy atom, donor atom, acceptor molecule, acceptor atom, score
      L1  H     7    24       P1  7948  0.95
      L1  H    10    25       P1  7948  0.99

> <Gold.Chemscore.Hbond.Weighted>
-6.4720

> <Gold.Chemscore.Metal.Weighted>
-0.0000

> <Gold.Chemscore.Lipo.Weighted>
-8.3077

> <Gold.Chemscore.Internal_Hbond.Weighted>
0.0000

> <Gold.Chemscore.DEClash.Weighted>
1.0721

> <Gold.Chemscore.DEInternal.Weighted>
1.5484

> <Gold.Chemscore.Rot.Weighted>
3.4824

> <Gold.Chemscore.Internal.Correction.Weighted>
   9.000000E+99

> <Gold.Protein.RotatedTorsions>
[ 6907 6896 6895 6894 ] final  -18.27 input  -60.11 | X-H torsion
[ 7974 7965 7964 7962 ] final  151.63 input  175.53 | X-H torsion
[ 8008 7997 7996 7995 ] final  120.69 input   59.86 | X-H torsion
[ 10167 10162 10161 10158 ] final  107.54 input  -65.29 | X-H torsion
[ 10718 10713 10712 10709 ] final -146.59 input   66.30 | X-H torsion
[ 10763 10752 10751 10750 ] final  -70.90 input  -60.55 | X-H torsion
[ 11005 11000 10999 10996 ] final    4.11 input  -57.11 | X-H torsion

> <Gold.Protein.ActiveResidues>
 VAL166  LYS551  ARG553  GLY616  TRP617  ASP618  TYR619  PRO620  LYS621  CYS622 
 ASP623  PHE694  ASN695  SER759  ASP760  ASP761  ALA762  ILE779  LEU786  VAL792 
 PHE793  MET794  SER795  GLU796  ALA797  LYS798  CYS799  TRP800  GLU811  SER814 

> <Gold.Protein.RotatedAtoms>
  151.2807  135.0713  159.9167 H   0  0  0  0  0  0  0  0  0  0  0  0  # atno 6907 bound_to 6896
  152.5334  134.0034  159.7915 H   0  0  0  0  0  0  0  0  0  0  0  0  # atno 6908 bound_to 6896
  151.0287  133.5759  159.2694 H   0  0  0  0  0  0  0  0  0  0  0  0  # atno 6909 bound_to 6896
  144.8278  139.6563  143.6072 H   0  0  0  0  0  0  0  0  0  0  0  0  # atno 7974 bound_to 7965
  156.2653  140.2825  156.1189 H   0  0  0  0  0  0  0  0  0  0  0  0  # atno 8008 bound_to 7997
  155.1177  140.0392  157.2759 H   0  0  0  0  0  0  0  0  0  0  0  0  # atno 8009 bound_to 7997
  154.6694  140.2584  155.7029 H   0  0  0  0  0  0  0  0  0  0  0  0  # atno 8010 bound_to 7997
  139.6919  144.7106  151.1333 H   0  0  0  0  0  0  0  0  0  0  0  0  # atno 10167 bound_to 10162
  156.3969  130.7914  151.2121 H   0  0  0  0  0  0  0  0  0  0  0  0  # atno 10718 bound_to 10713
  154.4242  135.5979  153.6029 H   0  0  0  0  0  0  0  0  0  0  0  0  # atno 10763 bound_to 10752
  152.9795  135.5959  154.3918 H   0  0  0  0  0  0  0  0  0  0  0  0  # atno 10764 bound_to 10752
  154.3747  135.2841  155.2224 H   0  0  0  0  0  0  0  0  0  0  0  0  # atno 10765 bound_to 10752
  140.5855  133.9972  155.8066 H   0  0  0  0  0  0  0  0  0  0  0  0  # atno 11005 bound_to 11000
  146.2583  139.6352  142.9379 LP  0  0  0  0  0  0  0  0  0  0  0  0  # atno 17320 bound_to 7965
  145.4961  141.0438  143.2566 LP  0  0  0  0  0  0  0  0  0  0  0  0  # atno 17321 bound_to 7965
  140.7685  143.5547  150.9165 LP  0  0  0  0  0  0  0  0  0  0  0  0  # atno 17342 bound_to 10162
  139.9225  143.6589  152.3094 LP  0  0  0  0  0  0  0  0  0  0  0  0  # atno 17343 bound_to 10162
  157.7502  131.0298  150.4111 LP  0  0  0  0  0  0  0  0  0  0  0  0  # atno 17370 bound_to 10713
  156.4383  130.3986  149.6714 LP  0  0  0  0  0  0  0  0  0  0  0  0  # atno 17371 bound_to 10713
  141.0968  133.9830  157.3146 LP  0  0  0  0  0  0  0  0  0  0  0  0  # atno 17394 bound_to 11000
  139.9297  135.0200  156.8359 LP  0  0  0  0  0  0  0  0  0  0  0  0  # atno 17395 bound_to 11000

$$$$
