AV-unprocessed.smi:492|AV-procd|sdf|2711|dock3
  -GOLD-   2262023153D 1   1.00000     0.00000
 Structure written by MMmdl.
 47 49  0  0  0  0  0  0  0  0  2 V2000
  145.4288  133.0262  162.9522 C   0  0  0  0  0  0  0  0  0  0  0  0
  146.1481  134.2247  163.2028 O   0  0  0  0  0  0  0  0  0  0  0  0
  146.8910  134.7624  162.1737 C   0  0  0  0  0  0  0  0  0  0  0  0
  147.6818  135.8902  162.4749 C   0  0  0  0  0  0  0  0  0  0  0  0
  148.4719  136.5038  161.4839 C   0  0  0  0  0  0  0  0  0  0  0  0
  148.4767  135.9978  160.1686 C   0  0  0  0  0  0  0  0  0  0  0  0
  149.3383  136.6467  159.1026 C   0  0  0  0  0  0  0  0  0  0  0  0
  150.6241  136.9816  159.5975 O   0  0  0  0  0  0  0  0  0  0  0  0
  151.4670  137.5517  158.6090 C   0  0  0  0  0  0  0  0  0  0  0  0
  150.9387  138.9352  158.1964 C   0  0  1  0  0  0  0  0  0  0  0  0
  150.2288  139.5067  159.2767 O   0  0  0  0  0  0  0  0  0  0  0  0
  152.0349  139.8881  157.6756 C   0  0  0  0  0  0  0  0  0  0  0  0
  151.5424  141.2559  157.4544 N   0  0  0  0  0  0  0  0  0  0  0  0
  150.6726  141.7413  156.5229 C   0  0  0  0  0  0  0  0  0  0  0  0
  149.9781  140.9600  155.4583 C   0  0  0  0  0  0  0  0  0  0  0  0
  150.5520  143.0812  156.7431 N   0  3  0  0  0  0  0  0  0  0  0  0
  151.3477  143.4551  157.8275 C   0  0  0  0  0  0  0  0  0  0  0  0
  151.5542  144.6957  158.4232 C   0  0  0  0  0  0  0  0  0  0  0  0
  152.4356  144.7301  159.5237 C   0  0  0  0  0  0  0  0  0  0  0  0
  153.0720  143.5621  159.9924 C   0  0  0  0  0  0  0  0  0  0  0  0
  152.8556  142.3100  159.3800 C   0  0  0  0  0  0  0  0  0  0  0  0
  151.9840  142.2855  158.2918 C   0  0  0  0  0  0  0  0  0  0  0  0
  147.6970  134.8650  159.8591 C   0  0  0  0  0  0  0  0  0  0  0  0
  146.9069  134.2519  160.8511 C   0  0  0  0  0  0  0  0  0  0  0  0
  144.8961  132.7310  163.8559 H   0  0  0  0  0  0  0  0  0  0  0  0
  146.0986  132.2082  162.6828 H   0  0  0  0  0  0  0  0  0  0  0  0
  144.6884  133.1624  162.1628 H   0  0  0  0  0  0  0  0  0  0  0  0
  147.6843  136.2892  163.4785 H   0  0  0  0  0  0  0  0  0  0  0  0
  149.0724  137.3646  161.7387 H   0  0  0  0  0  0  0  0  0  0  0  0
  149.4376  135.9713  158.2512 H   0  0  0  0  0  0  0  0  0  0  0  0
  148.8293  137.5447  158.7491 H   0  0  0  0  0  0  0  0  0  0  0  0
  152.4702  137.6619  159.0238 H   0  0  0  0  0  0  0  0  0  0  0  0
  151.5488  136.8954  157.7407 H   0  0  0  0  0  0  0  0  0  0  0  0
  150.2030  138.7819  157.4065 H   0  0  0  0  0  0  0  0  0  0  0  0
  150.8204  140.0587  159.7647 H   0  0  0  0  0  0  0  0  0  0  0  0
  152.8595  139.9495  158.3867 H   0  0  0  0  0  0  0  0  0  0  0  0
  152.4626  139.5182  156.7429 H   0  0  0  0  0  0  0  0  0  0  0  0
  149.4546  141.6267  154.7728 H   0  0  0  0  0  0  0  0  0  0  0  0
  149.2521  140.2807  155.9053 H   0  0  0  0  0  0  0  0  0  0  0  0
  150.6985  140.3731  154.8880 H   0  0  0  0  0  0  0  0  0  0  0  0
  151.0675  145.5919  158.0670 H   0  0  0  0  0  0  0  0  0  0  0  0
  152.6273  145.6712  160.0187 H   0  0  0  0  0  0  0  0  0  0  0  0
  153.7403  143.6277  160.8388 H   0  0  0  0  0  0  0  0  0  0  0  0
  153.3477  141.4208  159.7458 H   0  0  0  0  0  0  0  0  0  0  0  0
  147.7021  134.4606  158.8574 H   0  0  0  0  0  0  0  0  0  0  0  0
  146.3224  133.3886  160.5714 H   0  0  0  0  0  0  0  0  0  0  0  0
  149.9654  143.6933  156.1906 H   0  0  0  0  0  0  0  0  0  0  0  0
  1  2  1  0  0  0  0
  1 25  1  0  0  0  0
  1 26  1  0  0  0  0
  1 27  1  0  0  0  0
  2  3  1  0  0  0  0
  3 24  1  0  0  0  0
  3  4  2  0  0  0  0
  4  5  1  0  0  0  0
  4 28  1  0  0  0  0
  5  6  2  0  0  0  0
  5 29  1  0  0  0  0
  6  7  1  0  0  0  0
  6 23  1  0  0  0  0
  7  8  1  0  0  0  0
  7 30  1  0  0  0  0
  7 31  1  0  0  0  0
  8  9  1  0  0  0  0
  9 10  1  0  0  0  0
  9 32  1  0  0  0  0
  9 33  1  0  0  0  0
 10 11  1  0  0  0  0
 10 12  1  0  0  0  0
 10 34  1  0  0  0  0
 11 35  1  0  0  0  0
 12 13  1  0  0  0  0
 12 36  1  0  0  0  0
 12 37  1  0  0  0  0
 13 22  1  0  0  0  0
 13 14  1  0  0  0  0
 14 15  1  0  0  0  0
 14 16  2  0  0  0  0
 15 38  1  0  0  0  0
 15 39  1  0  0  0  0
 15 40  1  0  0  0  0
 16 17  1  0  0  0  0
 16 47  1  0  0  0  0
 17 22  2  0  0  0  0
 17 18  1  0  0  0  0
 18 19  2  0  0  0  0
 18 41  1  0  0  0  0
 19 20  1  0  0  0  0
 19 42  1  0  0  0  0
 20 21  2  0  0  0  0
 20 43  1  0  0  0  0
 21 22  1  0  0  0  0
 21 44  1  0  0  0  0
 23 24  2  0  0  0  0
 23 45  1  0  0  0  0
 24 46  1  0  0  0  0
M  CHG  1  16   1
M  END
> <s_m_source_file>
AV-unprocessed.smi

> <i_m_source_file_index>
492

> <i_lp_mmshare_version>
43012

> <i_f3d_flags>
0

> <s_epik_input>
W0NIM11PYzFbY0hdW2NIXWMoW2NIXVtjSF0xKVtDSDJdT1tDSDJdW0NASF0oW09IXSlbQ0gyXW4oYyhuMilbQ0gzXSljKGMyMylbY0hdW2NIXVtjSF1bY0hdMw==

> <s_epik_cmdline>
J2VwaWtfcHl0aG9uJywgJy1waCcsICc3LjAnLCAnLXRuJywgJzgnLCAnLW1hJywgJzIwMCcsICctbWV0YWxfYmluZGluZycsICctaW1hZScsICc8aW5maWxlLm1hZT4nLCAnLW9tYWUnLCAnPG91dGZpbGUubWFlPic=

> <r_lp_tautomer_probability>
1

> <r_epik_Ionization_Penalty>
0.952

> <r_epik_Ionization_Penalty_Charging>
0.951999

> <r_epik_Ionization_Penalty_Neutral>
9.7482e-07

> <r_epik_State_Penalty>
0.996343

> <r_epik_Charging_Adjusted_Penalty>
1.94834

> <i_epik_Tot_Q>
1

> <i_epik_Tot_abs_Q>
1

> <r_epik_Metal_State_Penalty>
4.96724

> <b_epik_Metal_Only>
0

> <s_lp_Force_Field>
OPLS_2005

> <r_lp_Energy>
22.9053

> <b_lp_Chiralities_Consistent>
1

> <s_lp_Variant>
AV-unprocessed.smi:492-4

> <Gold.Version>
5.8.1

> <Gold.Id.Protein>
6NUR|6NUR_protein|mol2

> <Gold.PLP.Fitness>
58.7562

> <Gold.PLP.PLP>
-51.0670

> <Gold.PLP.part.hbond>
-3.7820

> <Gold.PLP.part.metal>
0.0000

> <Gold.PLP.part.buried>
-2.6476

> <Gold.PLP.part.nonpolar>
-44.8583

> <Gold.PLP.part.repulsive>
0.0888

> <Gold.PLP.ligand.clash>
0.0000

> <Gold.PLP.ligand.torsion>
0.7588

> <Gold.PLP.Chemscore.Hbond>
3.0000

> <Gold.PLP.Chemscore.CHOScore>
0.0000

> <Gold.PLP.Chemscore.Metal>
0.0000

> <Gold.Chemscore.Hbonds>
donor molecule, donor type, donor heavy atom, donor atom, acceptor molecule, acceptor atom, score
      L1  H    16    47       P1  8028  2.00
      P1  H  6896  6907       L1     8  0.95

> <Gold.PLP.Chemscore.Internal.Correction>
0.2069

> <Gold.Rescore>
     Score         DG    S(hbond)    S(metal)    S(lipo)     H(rot)  DE(clash)    DE(int)     intcor
     16.76     -18.81       1.03        0.00     139.20       2.50       1.34       0.72       ----

> <Gold.Chemscore.Fitness>
16.7591

> <Gold.Chemscore.DG>
-18.8113

> <Gold.Chemscore.ZeroCoef>
-5.4800

> <Gold.Chemscore.Hbond>
1.0343

> <Gold.Chemscore.Metal>
0.0000

> <Gold.Chemscore.Lipo>
139.2012

> <Gold.Chemscore.Internal_Hbond>
0.0000

> <Gold.Chemscore.DEClash>
1.3355

> <Gold.Chemscore.DEInternal>
0.7167

> <Gold.Chemscore.Rot>
2.5038

> <Gold.Chemscore.Internal.Correction>
   9.000000E+99

> <Gold.Chemscore.Hbonds>
donor molecule, donor type, donor heavy atom, donor atom, acceptor molecule, acceptor atom, score
      L1  H    16    47       P1  8028  0.97
      P1  H  6896  6907       L1     8  0.12

> <Gold.Chemscore.Hbond.Weighted>
-3.4545

> <Gold.Chemscore.Metal.Weighted>
-0.0000

> <Gold.Chemscore.Lipo.Weighted>
-16.2865

> <Gold.Chemscore.Internal_Hbond.Weighted>
0.0000

> <Gold.Chemscore.DEClash.Weighted>
1.3355

> <Gold.Chemscore.DEInternal.Weighted>
0.7167

> <Gold.Chemscore.Rot.Weighted>
6.4098

> <Gold.Chemscore.Internal.Correction.Weighted>
   9.000000E+99

> <Gold.Protein.RotatedTorsions>
[ 6907 6896 6895 6894 ] final  -14.97 input  -60.11 | X-H torsion
[ 7974 7965 7964 7962 ] final  -44.41 input  175.53 | X-H torsion
[ 8008 7997 7996 7995 ] final   68.74 input   59.86 | X-H torsion
[ 10167 10162 10161 10158 ] final   24.86 input  -65.29 | X-H torsion
[ 10718 10713 10712 10709 ] final -123.29 input   66.30 | X-H torsion
[ 10763 10752 10751 10750 ] final  174.80 input  -60.55 | X-H torsion
[ 11005 11000 10999 10996 ] final   80.88 input  -57.11 | X-H torsion

> <Gold.Protein.ActiveResidues>
 VAL166  LYS551  ARG553  GLY616  TRP617  ASP618  TYR619  PRO620  LYS621  CYS622 
 ASP623  PHE694  ASN695  SER759  ASP760  ASP761  ALA762  ILE779  LEU786  VAL792 
 PHE793  MET794  SER795  GLU796  ALA797  LYS798  CYS799  TRP800  GLU811  SER814 

> <Gold.Protein.RotatedAtoms>
  151.3312  135.0842  159.9339 H   0  0  0  0  0  0  0  0  0  0  0  0  # atno 6907 bound_to 6896
  152.5234  133.9541  159.7696 H   0  0  0  0  0  0  0  0  0  0  0  0  # atno 6908 bound_to 6896
  150.9880  133.6126  159.2742 H   0  0  0  0  0  0  0  0  0  0  0  0  # atno 6909 bound_to 6896
  145.9923  140.7167  142.9311 H   0  0  0  0  0  0  0  0  0  0  0  0  # atno 7974 bound_to 7965
  155.7129  140.3494  155.4982 H   0  0  0  0  0  0  0  0  0  0  0  0  # atno 8008 bound_to 7997
  155.9339  140.1089  157.1132 H   0  0  0  0  0  0  0  0  0  0  0  0  # atno 8009 bound_to 7997
  154.4090  140.1226  156.4825 H   0  0  0  0  0  0  0  0  0  0  0  0  # atno 8010 bound_to 7997
  140.5154  144.0091  150.6391 H   0  0  0  0  0  0  0  0  0  0  0  0  # atno 10167 bound_to 10162
  156.1490  130.6521  150.9885 H   0  0  0  0  0  0  0  0  0  0  0  0  # atno 10718 bound_to 10713
  154.4588  135.2767  155.1728 H   0  0  0  0  0  0  0  0  0  0  0  0  # atno 10763 bound_to 10752
  154.3524  135.6147  153.5653 H   0  0  0  0  0  0  0  0  0  0  0  0  # atno 10764 bound_to 10752
  152.9853  135.5814  154.4947 H   0  0  0  0  0  0  0  0  0  0  0  0  # atno 10765 bound_to 10752
  139.9118  134.7954  156.1968 H   0  0  0  0  0  0  0  0  0  0  0  0  # atno 11005 bound_to 11000
  144.6893  140.3091  143.7251 LP  0  0  0  0  0  0  0  0  0  0  0  0  # atno 17320 bound_to 7965
  145.7612  139.1825  143.2266 LP  0  0  0  0  0  0  0  0  0  0  0  0  # atno 17321 bound_to 7965
  140.3425  143.3011  152.0573 LP  0  0  0  0  0  0  0  0  0  0  0  0  # atno 17342 bound_to 10162
  139.4908  144.6432  151.6834 LP  0  0  0  0  0  0  0  0  0  0  0  0  # atno 17343 bound_to 10162
  157.6641  131.0875  150.7770 LP  0  0  0  0  0  0  0  0  0  0  0  0  # atno 17370 bound_to 10713
  156.7839  130.4868  149.5396 LP  0  0  0  0  0  0  0  0  0  0  0  0  # atno 17371 bound_to 10713
  141.0550  133.6870  156.1843 LP  0  0  0  0  0  0  0  0  0  0  0  0  # atno 17394 bound_to 11000
  140.6751  134.4826  157.5588 LP  0  0  0  0  0  0  0  0  0  0  0  0  # atno 17395 bound_to 11000

$$$$
