AV-unprocessed.smi:3145|AV-procd|sdf|11983|dock7
  -GOLD-   2272017383D 1   1.00000     0.00000
 Structure written by MMmdl.
 34 34  0  0  0  0  0  0  0  0  3 V2000
  149.7576  132.1754  154.6362 C   0  0  0  0  0  0  0  0  0  0  0  0
  148.7991  133.1589  153.9434 C   0  0  2  0  0  0  0  0  0  0  0  0
  148.3426  132.6659  152.5506 C   0  0  0  0  0  0  0  0  0  0  0  0
  146.9893  133.0722  152.2166 N   0  0  0  0  0  0  0  0  0  0  0  0
  146.5810  134.0837  151.3726 C   0  0  0  0  0  0  0  0  0  0  0  0
  145.2157  134.0937  151.3815 C   0  0  0  0  0  0  0  0  0  0  0  0
  144.8758  133.0419  152.2777 C   0  0  0  0  0  0  0  0  0  0  0  0
  145.9397  132.4346  152.7786 N   0  0  0  0  0  0  0  0  0  0  0  0
  149.4471  134.4847  153.8507 N   0  3  0  0  0  0  0  0  0  0  0  0
  149.3705  135.3211  155.0671 C   0  0  0  0  0  0  0  0  0  0  0  0
  150.2355  136.5680  154.8725 C   0  0  0  0  0  0  0  0  0  0  0  0
  151.4509  136.4206  154.7121 O   0  0  0  0  0  0  0  0  0  0  0  0
  149.4765  137.6974  154.9186 N   0  5  0  0  0  0  0  0  0  0  0  0
  149.9014  138.9828  154.3703 C   0  0  0  0  0  0  0  0  0  0  0  0
  150.6869  139.7695  155.4306 C   0  0  0  0  0  0  0  0  0  0  0  0
  152.1039  139.3796  155.5403 C   0  0  0  0  0  0  0  0  0  0  0  0
  153.2174  139.0704  155.6249 N   0  0  0  0  0  0  0  0  0  0  0  0
  149.2794  131.2143  154.8270 H   0  0  0  0  0  0  0  0  0  0  0  0
  150.0886  132.5654  155.5995 H   0  0  0  0  0  0  0  0  0  0  0  0
  150.6447  131.9921  154.0294 H   0  0  0  0  0  0  0  0  0  0  0  0
  147.9235  133.2628  154.5862 H   0  0  0  0  0  0  0  0  0  0  0  0
  149.0046  133.0399  151.7691 H   0  0  0  0  0  0  0  0  0  0  0  0
  148.3921  131.5770  152.5049 H   0  0  0  0  0  0  0  0  0  0  0  0
  147.2877  134.7033  150.8403 H   0  0  0  0  0  0  0  0  0  0  0  0
  144.5598  134.7533  150.8330 H   0  0  0  0  0  0  0  0  0  0  0  0
  143.8944  132.7055  152.5783 H   0  0  0  0  0  0  0  0  0  0  0  0
  150.4316  134.3392  153.6745 H   0  0  0  0  0  0  0  0  0  0  0  0
  148.3391  135.6171  155.2601 H   0  0  0  0  0  0  0  0  0  0  0  0
  149.7190  134.7616  155.9368 H   0  0  0  0  0  0  0  0  0  0  0  0
  150.5261  138.8662  153.4837 H   0  0  0  0  0  0  0  0  0  0  0  0
  149.0454  139.5801  154.0551 H   0  0  0  0  0  0  0  0  0  0  0  0
  150.6626  140.8331  155.1925 H   0  0  0  0  0  0  0  0  0  0  0  0
  150.2272  139.6542  156.4128 H   0  0  0  0  0  0  0  0  0  0  0  0
  149.0605  134.9983  153.0723 H   0  0  0  0  0  0  0  0  0  0  0  0
  1  2  1  0  0  0  0
  1 18  1  0  0  0  0
  1 19  1  0  0  0  0
  1 20  1  0  0  0  0
  2  3  1  0  0  0  0
  2  9  1  0  0  0  0
  2 21  1  0  0  0  0
  3  4  1  0  0  0  0
  3 22  1  0  0  0  0
  3 23  1  0  0  0  0
  4  8  1  0  0  0  0
  4  5  1  0  0  0  0
  5  6  2  0  0  0  0
  5 24  1  0  0  0  0
  6  7  1  0  0  0  0
  6 25  1  0  0  0  0
  7  8  2  0  0  0  0
  7 26  1  0  0  0  0
  9 10  1  0  0  0  0
  9 27  1  0  0  0  0
  9 34  1  0  0  0  0
 10 11  1  0  0  0  0
 10 28  1  0  0  0  0
 10 29  1  0  0  0  0
 11 12  2  0  0  0  0
 11 13  1  0  0  0  0
 13 14  1  0  0  0  0
 14 15  1  0  0  0  0
 14 30  1  0  0  0  0
 14 31  1  0  0  0  0
 15 16  1  0  0  0  0
 15 32  1  0  0  0  0
 15 33  1  0  0  0  0
 16 17  3  0  0  0  0
M  CHG  1   9   1
M  CHG  1  13  -1
M  END
> <s_m_source_file>
AV-unprocessed.smi

> <i_m_source_file_index>
3145

> <i_lp_mmshare_version>
43012

> <i_f3d_flags>
0

> <s_epik_input>
bjFbY0hdW2NIXVtjSF1uMVtDSDJdW0NAQEhdKFtDSDNdKVtOSF1bQ0gyXUMoPU8pW05IXVtDSDJdW0NIMl1DI04=

> <s_epik_cmdline>
J2VwaWtfcHl0aG9uJywgJy1waCcsICc3LjAnLCAnLXRuJywgJzgnLCAnLW1hJywgJzIwMCcsICctbWV0YWxfYmluZGluZycsICctaW1hZScsICc8aW5maWxlLm1hZT4nLCAnLW9tYWUnLCAnPG91dGZpbGUubWFlPic=

> <r_lp_tautomer_probability>
1

> <r_epik_Ionization_Penalty>
6.20835

> <r_epik_Ionization_Penalty_Charging>
6.20835

> <r_epik_Ionization_Penalty_Neutral>
3.57231e-06

> <r_epik_State_Penalty>
6.38139

> <r_epik_Charging_Adjusted_Penalty>
12.5897

> <i_epik_Tot_Q>
0

> <i_epik_Tot_abs_Q>
2

> <r_epik_Metal_State_Penalty>
2.31725

> <b_epik_Metal_Only>
1

> <s_lp_Force_Field>
OPLS_2005

> <r_lp_Energy>
-0.295423

> <b_lp_Chiralities_Consistent>
1

> <s_lp_Variant>
AV-unprocessed.smi:3145-5

> <Gold.Version>
5.8.1

> <Gold.Id.Protein>
6NUR|6NUR_protein|mol2

> <Gold.PLP.Fitness>
44.1118

> <Gold.PLP.PLP>
-28.6425

> <Gold.PLP.part.hbond>
-3.0000

> <Gold.PLP.part.metal>
0.0000

> <Gold.PLP.part.buried>
-3.2483

> <Gold.PLP.part.nonpolar>
-24.0276

> <Gold.PLP.part.repulsive>
0.4445

> <Gold.PLP.ligand.clash>
0.0000

> <Gold.PLP.ligand.torsion>
1.2967

> <Gold.PLP.Chemscore.Hbond>
3.9920

> <Gold.PLP.Chemscore.CHOScore>
1.9468

> <Gold.PLP.Chemscore.Metal>
0.0000

> <Gold.Chemscore.Hbonds>
donor molecule, donor type, donor heavy atom, donor atom, acceptor molecule, acceptor atom, score
      L1  H     9    34       P1  7948  1.50
      P1  H  7997  8009       L1    17  1.00
      P1  H 10752 10763       L1    12  1.00
      L1  C     5    24       P1  7948  0.77
      L1  C     7    26       P1 10957  0.48

> <Gold.PLP.Chemscore.Internal.Correction>
0.2465

> <Gold.Rescore>
     Score         DG    S(hbond)    S(metal)    S(lipo)     H(rot)  DE(clash)    DE(int)     intcor
     11.41     -12.27       2.37        0.00      51.44       2.79       0.00       0.85       ----

> <Gold.Chemscore.Fitness>
11.4112

> <Gold.Chemscore.DG>
-12.2669

> <Gold.Chemscore.ZeroCoef>
-5.4800

> <Gold.Chemscore.Hbond>
2.3723

> <Gold.Chemscore.Metal>
0.0000

> <Gold.Chemscore.Lipo>
51.4405

> <Gold.Chemscore.Internal_Hbond>
0.0000

> <Gold.Chemscore.DEClash>
0.0021

> <Gold.Chemscore.DEInternal>
0.8535

> <Gold.Chemscore.Rot>
2.7949

> <Gold.Chemscore.Internal.Correction>
   9.000000E+99

> <Gold.Chemscore.Hbonds>
donor molecule, donor type, donor heavy atom, donor atom, acceptor molecule, acceptor atom, score
      L1  H     9    34       P1  7948  0.09
      P1  H  7997  8009       L1    17  0.94
      P1  H 10752 10763       L1    12  1.00

> <Gold.Chemscore.Hbond.Weighted>
-7.9234

> <Gold.Chemscore.Metal.Weighted>
-0.0000

> <Gold.Chemscore.Lipo.Weighted>
-6.0185

> <Gold.Chemscore.Internal_Hbond.Weighted>
0.0000

> <Gold.Chemscore.DEClash.Weighted>
0.0021

> <Gold.Chemscore.DEInternal.Weighted>
0.8535

> <Gold.Chemscore.Rot.Weighted>
7.1551

> <Gold.Chemscore.Internal.Correction.Weighted>
   9.000000E+99

> <Gold.Protein.RotatedTorsions>
[ 6907 6896 6895 6894 ] final -174.76 input  -60.11 | X-H torsion
[ 7974 7965 7964 7962 ] final  -25.77 input  175.53 | X-H torsion
[ 8008 7997 7996 7995 ] final -163.50 input   59.86 | X-H torsion
[ 10167 10162 10161 10158 ] final -110.40 input  -65.29 | X-H torsion
[ 10718 10713 10712 10709 ] final  -80.20 input   66.30 | X-H torsion
[ 10763 10752 10751 10750 ] final   50.44 input  -60.55 | X-H torsion
[ 11005 11000 10999 10996 ] final  140.32 input  -57.11 | X-H torsion

> <Gold.Protein.ActiveResidues>
 VAL166  LYS551  ARG553  GLY616  TRP617  ASP618  TYR619  PRO620  LYS621  CYS622 
 ASP623  PHE694  ASN695  SER759  ASP760  ASP761  ALA762  ILE779  LEU786  VAL792 
 PHE793  MET794  SER795  GLU796  ALA797  LYS798  CYS799  TRP800  GLU811  SER814 

> <Gold.Protein.RotatedAtoms>
  151.5775  133.3382  159.3001 H   0  0  0  0  0  0  0  0  0  0  0  0  # atno 6907 bound_to 6896
  150.8332  134.7597  159.6882 H   0  0  0  0  0  0  0  0  0  0  0  0  # atno 6908 bound_to 6896
  152.4412  134.5593  159.9941 H   0  0  0  0  0  0  0  0  0  0  0  0  # atno 6909 bound_to 6896
  146.1469  140.4931  142.8628 H   0  0  0  0  0  0  0  0  0  0  0  0  # atno 7974 bound_to 7965
  155.8221  140.0921  157.1843 H   0  0  0  0  0  0  0  0  0  0  0  0  # atno 8008 bound_to 7997
  154.3979  140.1435  156.3573 H   0  0  0  0  0  0  0  0  0  0  0  0  # atno 8009 bound_to 7997
  155.8255  140.3444  155.5542 H   0  0  0  0  0  0  0  0  0  0  0  0  # atno 8010 bound_to 7997
  140.1448  143.4248  152.1536 H   0  0  0  0  0  0  0  0  0  0  0  0  # atno 10167 bound_to 10162
  156.0075  130.4567  150.3764 H   0  0  0  0  0  0  0  0  0  0  0  0  # atno 10718 bound_to 10713
  152.9785  135.5879  154.4253 H   0  0  0  0  0  0  0  0  0  0  0  0  # atno 10763 bound_to 10752
  154.3872  135.2767  155.2178 H   0  0  0  0  0  0  0  0  0  0  0  0  # atno 10764 bound_to 10752
  154.4066  135.6091  153.5982 H   0  0  0  0  0  0  0  0  0  0  0  0  # atno 10765 bound_to 10752
  140.0319  134.9348  157.0678 H   0  0  0  0  0  0  0  0  0  0  0  0  # atno 11005 bound_to 11000
  144.7857  140.5932  143.6575 LP  0  0  0  0  0  0  0  0  0  0  0  0  # atno 17320 bound_to 7965
  145.4915  139.1488  143.3707 LP  0  0  0  0  0  0  0  0  0  0  0  0  # atno 17321 bound_to 7965
  139.5454  144.7294  151.4600 LP  0  0  0  0  0  0  0  0  0  0  0  0  # atno 17342 bound_to 10162
  140.6738  143.8234  150.7033 LP  0  0  0  0  0  0  0  0  0  0  0  0  # atno 17343 bound_to 10162
  157.1846  131.0400  151.2731 LP  0  0  0  0  0  0  0  0  0  0  0  0  # atno 17370 bound_to 10713
  157.4116  130.7388  149.6843 LP  0  0  0  0  0  0  0  0  0  0  0  0  # atno 17371 bound_to 10713
  140.4212  134.1879  155.7164 LP  0  0  0  0  0  0  0  0  0  0  0  0  # atno 17394 bound_to 11000
  141.1835  133.8362  157.1171 LP  0  0  0  0  0  0  0  0  0  0  0  0  # atno 17395 bound_to 11000

$$$$
