AV-unprocessed.smi:177|AV-procd|sdf|1438|dock8
  -GOLD-   2262019223D 1   1.00000     0.00000
 Structure written by MMmdl.
 61 65  0  0  0  0  0  0  0  0  1 V2000
  148.7811  145.3593  160.8642 C   0  0  0  0  0  0  0  0  0  0  0  0
  150.1153  144.8763  160.8316 O   0  0  0  0  0  0  0  0  0  0  0  0
  150.8175  145.1442  159.6219 C   0  0  1  0  0  0  0  0  0  0  0  0
  152.3100  144.8625  159.8754 C   0  0  0  0  0  0  0  0  0  0  0  0
  152.5870  143.3626  160.0737 C   0  0  0  0  0  0  0  0  0  0  0  0
  152.0519  142.5449  158.8890 C   0  0  1  0  0  0  0  0  0  0  0  0
  152.3012  141.1633  159.1222 O   0  0  0  0  0  0  0  0  0  0  0  0
  151.9121  140.3659  158.0101 C   0  0  0  0  0  0  0  0  0  0  0  0
  150.4016  140.5191  157.7772 C   0  0  0  0  0  0  0  0  0  0  0  0
  150.0428  141.9247  157.6096 N   0  0  0  0  0  0  0  0  0  0  0  0
  148.7367  142.0308  157.2657 C   0  0  0  0  0  0  0  0  0  0  0  0
  148.2996  141.5727  156.0619 N   0  0  0  0  0  0  0  0  0  0  0  0
  147.0147  141.7081  155.7212 C   0  0  0  0  0  0  0  0  0  0  0  0
  146.0226  142.2717  156.4139 N   0  0  0  0  0  0  0  0  0  0  0  0
  146.4611  142.7449  157.6157 C   0  0  0  0  0  0  0  0  0  0  0  0
  147.7900  142.6603  158.1165 C   0  0  0  0  0  0  0  0  0  0  0  0
  147.8628  143.2344  159.3783 N   0  0  0  0  0  0  0  0  0  0  0  0
  146.6435  143.6367  159.6114 C   0  0  0  0  0  0  0  0  0  0  0  0
  145.7407  143.4066  158.5959 N   0  0  0  0  0  0  0  0  0  0  0  0
  144.3278  143.7614  158.5880 C   0  0  0  0  0  0  0  0  0  0  0  0
  143.4564  143.0186  159.6511 C   0  0  0  0  0  0  0  0  0  0  0  0
  143.5336  141.4801  159.4596 C   0  0  0  0  0  0  0  0  0  0  0  0
  143.0715  141.0753  158.1863 O   0  0  0  0  0  0  0  0  0  0  0  0
  143.9195  143.3337  161.0961 C   0  0  0  0  0  0  0  0  0  0  0  0
  143.6016  144.7780  161.5233 C   0  0  0  0  0  0  0  0  0  0  0  0
  142.2072  145.0220  161.3959 O   0  0  0  0  0  0  0  0  0  0  0  0
  141.7503  144.9046  160.0548 C   0  0  0  0  0  0  0  0  0  0  0  0
  141.9780  143.4702  159.5436 C   0  0  0  0  0  0  0  0  0  0  0  0
  150.5345  142.7775  158.6977 C   0  0  2  0  0  0  0  0  0  0  0  0
  150.2897  144.2861  158.4508 C   0  0  0  0  0  0  0  0  0  0  0  0
  148.3589  145.1816  161.8530 H   0  0  0  0  0  0  0  0  0  0  0  0
  148.1453  144.8495  160.1412 H   0  0  0  0  0  0  0  0  0  0  0  0
  148.7419  146.4324  160.6739 H   0  0  0  0  0  0  0  0  0  0  0  0
  150.7105  146.2020  159.3760 H   0  0  0  0  0  0  0  0  0  0  0  0
  152.8927  145.2237  159.0271 H   0  0  0  0  0  0  0  0  0  0  0  0
  152.6545  145.4242  160.7441 H   0  0  0  0  0  0  0  0  0  0  0  0
  153.6588  143.1971  160.1864 H   0  0  0  0  0  0  0  0  0  0  0  0
  152.1217  143.0197  160.9988 H   0  0  0  0  0  0  0  0  0  0  0  0
  152.5895  142.8504  157.9888 H   0  0  0  0  0  0  0  0  0  0  0  0
  152.4754  140.6551  157.1215 H   0  0  0  0  0  0  0  0  0  0  0  0
  152.1565  139.3240  158.2168 H   0  0  0  0  0  0  0  0  0  0  0  0
  150.1088  139.9441  156.8975 H   0  0  0  0  0  0  0  0  0  0  0  0
  149.8540  140.1065  158.6259 H   0  0  0  0  0  0  0  0  0  0  0  0
  146.7435  141.3130  154.7533 H   0  0  0  0  0  0  0  0  0  0  0  0
  146.3698  144.1260  160.5349 H   0  0  0  0  0  0  0  0  0  0  0  0
  144.2588  144.8417  158.7078 H   0  0  0  0  0  0  0  0  0  0  0  0
  143.9445  143.5620  157.5865 H   0  0  0  0  0  0  0  0  0  0  0  0
  144.5522  141.1168  159.5958 H   0  0  0  0  0  0  0  0  0  0  0  0
  142.9308  140.9686  160.2109 H   0  0  0  0  0  0  0  0  0  0  0  0
  142.9004  141.8482  157.6702 H   0  0  0  0  0  0  0  0  0  0  0  0
  143.4119  142.6643  161.7921 H   0  0  0  0  0  0  0  0  0  0  0  0
  144.9826  143.1302  161.2205 H   0  0  0  0  0  0  0  0  0  0  0  0
  143.8869  144.9273  162.5645 H   0  0  0  0  0  0  0  0  0  0  0  0
  144.1637  145.5064  160.9393 H   0  0  0  0  0  0  0  0  0  0  0  0
  140.6864  145.1411  160.0300 H   0  0  0  0  0  0  0  0  0  0  0  0
  142.2462  145.6404  159.4213 H   0  0  0  0  0  0  0  0  0  0  0  0
  141.6261  143.3885  158.5148 H   0  0  0  0  0  0  0  0  0  0  0  0
  141.3489  142.8001  160.1312 H   0  0  0  0  0  0  0  0  0  0  0  0
  150.0232  142.4813  159.6153 H   0  0  0  0  0  0  0  0  0  0  0  0
  149.2364  144.5001  158.2799 H   0  0  0  0  0  0  0  0  0  0  0  0
  150.7971  144.5852  157.5324 H   0  0  0  0  0  0  0  0  0  0  0  0
  1  2  1  0  0  0  0
  1 31  1  0  0  0  0
  1 32  1  0  0  0  0
  1 33  1  0  0  0  0
  2  3  1  0  0  0  0
  3 30  1  0  0  0  0
  3  4  1  0  0  0  0
  3 34  1  0  0  0  0
  4  5  1  0  0  0  0
  4 35  1  0  0  0  0
  4 36  1  0  0  0  0
  5  6  1  0  0  0  0
  5 37  1  0  0  0  0
  5 38  1  0  0  0  0
  6 29  1  0  0  0  0
  6  7  1  0  0  0  0
  6 39  1  0  0  0  0
  7  8  1  0  0  0  0
  8  9  1  0  0  0  0
  8 40  1  0  0  0  0
  8 41  1  0  0  0  0
  9 10  1  0  0  0  0
  9 42  1  0  0  0  0
  9 43  1  0  0  0  0
 10 11  1  0  0  0  0
 10 29  1  0  0  0  0
 11 16  1  0  0  0  0
 11 12  2  0  0  0  0
 12 13  1  0  0  0  0
 13 14  2  0  0  0  0
 13 44  1  0  0  0  0
 14 15  1  0  0  0  0
 15 19  1  0  0  0  0
 15 16  2  0  0  0  0
 16 17  1  0  0  0  0
 17 18  2  0  0  0  0
 18 19  1  0  0  0  0
 18 45  1  0  0  0  0
 19 20  1  0  0  0  0
 20 21  1  0  0  0  0
 20 46  1  0  0  0  0
 20 47  1  0  0  0  0
 21 28  1  0  0  0  0
 21 22  1  0  0  0  0
 21 24  1  0  0  0  0
 22 23  1  0  0  0  0
 22 48  1  0  0  0  0
 22 49  1  0  0  0  0
 23 50  1  0  0  0  0
 24 25  1  0  0  0  0
 24 51  1  0  0  0  0
 24 52  1  0  0  0  0
 25 26  1  0  0  0  0
 25 53  1  0  0  0  0
 25 54  1  0  0  0  0
 26 27  1  0  0  0  0
 27 28  1  0  0  0  0
 27 55  1  0  0  0  0
 27 56  1  0  0  0  0
 28 57  1  0  0  0  0
 28 58  1  0  0  0  0
 29 30  1  0  0  0  0
 29 59  1  0  0  0  0
 30 60  1  0  0  0  0
 30 61  1  0  0  0  0
M  END
> <s_m_source_file>
AV-unprocessed.smi

> <i_m_source_file_index>
177

> <i_lp_mmshare_version>
43012

> <i_f3d_flags>
0

> <s_epik_input>
W0NIM11PW0NASF0oW0NIMl1bQ0gyXTEpW0NIMl1bQ0BIXShbQ0BASF0xMilOKFtDSDJdW0NIMl1PMiljKG5bY0hdbjMpYyhjMzQpbltjSF1uNFtDSDJdQzUoW0NIMl1bT0hdKVtDSDJdW0NIMl1PW0NIMl1bQ0gyXTU=

> <s_epik_cmdline>
J2VwaWtfcHl0aG9uJywgJy1waCcsICc3LjAnLCAnLXRuJywgJzgnLCAnLW1hJywgJzIwMCcsICctbWV0YWxfYmluZGluZycsICctaW1hZScsICc8aW5maWxlLm1hZT4nLCAnLW9tYWUnLCAnPG91dGZpbGUubWFlPic=

> <r_lp_tautomer_probability>
1

> <r_epik_Ionization_Penalty>
0.0065899

> <r_epik_Ionization_Penalty_Charging>
0

> <r_epik_Ionization_Penalty_Neutral>
0.0065899

> <r_epik_State_Penalty>
0.00470042

> <r_epik_Charging_Adjusted_Penalty>
0.00470042

> <i_epik_Tot_Q>
0

> <i_epik_Tot_abs_Q>
0

> <r_epik_Metal_State_Penalty>
-0

> <b_epik_Metal_Only>
0

> <s_lp_Force_Field>
OPLS_2005

> <r_lp_Energy>
42.9311

> <b_lp_Chiralities_Consistent>
1

> <s_lp_Variant>
AV-unprocessed.smi:177-2

> <Gold.Version>
5.8.1

> <Gold.Id.Protein>
6NUR|6NUR_protein|mol2

> <Gold.PLP.Fitness>
40.5130

> <Gold.PLP.PLP>
-39.4693

> <Gold.PLP.part.hbond>
-2.5116

> <Gold.PLP.part.metal>
0.0000

> <Gold.PLP.part.buried>
-7.7754

> <Gold.PLP.part.nonpolar>
-30.2284

> <Gold.PLP.part.repulsive>
1.3231

> <Gold.PLP.ligand.clash>
0.0000

> <Gold.PLP.ligand.torsion>
0.3756

> <Gold.PLP.Chemscore.Hbond>
0.5434

> <Gold.PLP.Chemscore.CHOScore>
0.0000

> <Gold.PLP.Chemscore.Metal>
0.0000

> <Gold.Chemscore.Hbonds>
donor molecule, donor type, donor heavy atom, donor atom, acceptor molecule, acceptor atom, score
      P1  H  6933  6944       L1    17  0.20

> <Gold.PLP.Chemscore.Internal.Correction>
0.1646

> <Gold.Rescore>
     Score         DG    S(hbond)    S(metal)    S(lipo)     H(rot)  DE(clash)    DE(int)     intcor
      7.58     -11.52       0.43        0.00      95.85       2.58       0.97       2.96       ----

> <Gold.Chemscore.Fitness>
7.5832

> <Gold.Chemscore.DG>
-11.5185

> <Gold.Chemscore.ZeroCoef>
-5.4800

> <Gold.Chemscore.Hbond>
0.4281

> <Gold.Chemscore.Metal>
0.0000

> <Gold.Chemscore.Lipo>
95.8548

> <Gold.Chemscore.Internal_Hbond>
0.0000

> <Gold.Chemscore.DEClash>
0.9743

> <Gold.Chemscore.DEInternal>
2.9610

> <Gold.Chemscore.Rot>
2.5806

> <Gold.Chemscore.Internal.Correction>
   9.000000E+99

> <Gold.Chemscore.Hbonds>
donor molecule, donor type, donor heavy atom, donor atom, acceptor molecule, acceptor atom, score
      P1  H  6933  6944       L1    17  0.08

> <Gold.Chemscore.Hbond.Weighted>
-1.4298

> <Gold.Chemscore.Metal.Weighted>
-0.0000

> <Gold.Chemscore.Lipo.Weighted>
-11.2150

> <Gold.Chemscore.Internal_Hbond.Weighted>
0.0000

> <Gold.Chemscore.DEClash.Weighted>
0.9743

> <Gold.Chemscore.DEInternal.Weighted>
2.9610

> <Gold.Chemscore.Rot.Weighted>
6.6062

> <Gold.Chemscore.Internal.Correction.Weighted>
   9.000000E+99

> <Gold.Protein.RotatedTorsions>
[ 6907 6896 6895 6894 ] final  -78.38 input  -60.11 | X-H torsion
[ 7974 7965 7964 7962 ] final  -76.17 input  175.53 | X-H torsion
[ 8008 7997 7996 7995 ] final  172.34 input   59.86 | X-H torsion
[ 10167 10162 10161 10158 ] final -108.38 input  -65.29 | X-H torsion
[ 10718 10713 10712 10709 ] final  -62.01 input   66.30 | X-H torsion
[ 10763 10752 10751 10750 ] final   31.28 input  -60.55 | X-H torsion
[ 11005 11000 10999 10996 ] final  132.90 input  -57.11 | X-H torsion

> <Gold.Protein.ActiveResidues>
 VAL166  LYS551  ARG553  GLY616  TRP617  ASP618  TYR619  PRO620  LYS621  CYS622 
 ASP623  PHE694  ASN695  SER759  ASP760  ASP761  ALA762  ILE779  LEU786  VAL792 
 PHE793  MET794  SER795  GLU796  ALA797  LYS798  CYS799  TRP800  GLU811  SER814 

> <Gold.Protein.RotatedAtoms>
  150.6974  134.4280  159.5235 H   0  0  0  0  0  0  0  0  0  0  0  0  # atno 6907 bound_to 6896
  152.2012  134.8584  160.0517 H   0  0  0  0  0  0  0  0  0  0  0  0  # atno 6908 bound_to 6896
  151.9503  133.3629  159.4034 H   0  0  0  0  0  0  0  0  0  0  0  0  # atno 6909 bound_to 6896
  145.6164  140.9374  143.1162 H   0  0  0  0  0  0  0  0  0  0  0  0  # atno 7974 bound_to 7965
  156.1184  140.1488  156.9240 H   0  0  0  0  0  0  0  0  0  0  0  0  # atno 8008 bound_to 7997
  154.4817  140.0877  156.7435 H   0  0  0  0  0  0  0  0  0  0  0  0  # atno 8009 bound_to 7997
  155.4473  140.3433  155.4299 H   0  0  0  0  0  0  0  0  0  0  0  0  # atno 8010 bound_to 7997
  140.1668  143.4075  152.1385 H   0  0  0  0  0  0  0  0  0  0  0  0  # atno 10167 bound_to 10162
  156.0883  130.4204  150.1075 H   0  0  0  0  0  0  0  0  0  0  0  0  # atno 10718 bound_to 10713
  153.0324  135.6443  154.1175 H   0  0  0  0  0  0  0  0  0  0  0  0  # atno 10763 bound_to 10752
  154.0895  135.2867  155.3276 H   0  0  0  0  0  0  0  0  0  0  0  0  # atno 10764 bound_to 10752
  154.6474  135.5438  153.7925 H   0  0  0  0  0  0  0  0  0  0  0  0  # atno 10765 bound_to 10752
  139.9818  134.9545  156.9648 H   0  0  0  0  0  0  0  0  0  0  0  0  # atno 11005 bound_to 11000
  144.7249  139.7909  143.7368 LP  0  0  0  0  0  0  0  0  0  0  0  0  # atno 17320 bound_to 7965
  146.1465  139.4536  143.0076 LP  0  0  0  0  0  0  0  0  0  0  0  0  # atno 17321 bound_to 7965
  139.5356  144.7206  151.4905 LP  0  0  0  0  0  0  0  0  0  0  0  0  # atno 17342 bound_to 10162
  140.6608  143.8502  150.6886 LP  0  0  0  0  0  0  0  0  0  0  0  0  # atno 17343 bound_to 10162
  156.9091  130.9646  151.3565 LP  0  0  0  0  0  0  0  0  0  0  0  0  # atno 17370 bound_to 10713
  157.6025  130.8523  149.8823 LP  0  0  0  0  0  0  0  0  0  0  0  0  # atno 17371 bound_to 10713
  140.5080  134.1030  155.7264 LP  0  0  0  0  0  0  0  0  0  0  0  0  # atno 17394 bound_to 11000
  141.1489  133.9004  157.2146 LP  0  0  0  0  0  0  0  0  0  0  0  0  # atno 17395 bound_to 11000

$$$$
