AV-unprocessed.smi:3019|AV-procd|sdf|11485|dock1
  -GOLD-   2272016423D 1   1.00000     0.00000
 Structure written by MMmdl.
 31 32  0  0  0  0  0  0  0  0  2 V2000
  154.5428  140.8752  161.0519 C   0  0  0  0  0  0  0  0  0  0  0  0
  153.6283  142.0237  160.6011 C   0  0  0  0  0  0  0  0  0  0  0  0
  152.7713  142.5648  161.7549 C   0  0  0  0  0  0  0  0  0  0  0  0
  152.7887  141.6335  159.4232 C   0  0  0  0  0  0  0  0  0  0  0  0
  152.9026  140.4427  158.8308 N   0  0  0  0  0  0  0  0  0  0  0  0
  152.0342  140.3691  157.8002 N   0  0  0  0  0  0  0  0  0  0  0  0
  151.4284  141.5541  157.8620 C   0  0  0  0  0  0  0  0  0  0  0  0
  150.3882  141.9362  156.8557 C   0  0  2  0  0  0  0  0  0  0  0  0
  148.9775  142.0017  157.4711 C   0  0  0  0  0  0  0  0  0  0  0  0
  147.9838  142.2841  156.4170 N   0  3  0  0  0  0  0  0  0  0  0  0
  148.0709  141.3049  155.3153 C   0  0  0  0  0  0  0  0  0  0  0  0
  149.5095  141.2431  154.7713 C   0  0  0  0  0  0  0  0  0  0  0  0
  150.4135  140.9455  155.8303 O   0  0  0  0  0  0  0  0  0  0  0  0
  151.8682  142.3992  158.8442 N   0  0  0  0  0  0  0  0  0  0  0  0
  155.1891  140.5462  160.2379 H   0  0  0  0  0  0  0  0  0  0  0  0
  153.9636  140.0139  161.3864 H   0  0  0  0  0  0  0  0  0  0  0  0
  155.1840  141.1848  161.8775 H   0  0  0  0  0  0  0  0  0  0  0  0
  154.2780  142.8389  160.2790 H   0  0  0  0  0  0  0  0  0  0  0  0
  152.1725  143.4171  161.4326 H   0  0  0  0  0  0  0  0  0  0  0  0
  153.3951  142.8957  162.5857 H   0  0  0  0  0  0  0  0  0  0  0  0
  152.0896  141.8031  162.1347 H   0  0  0  0  0  0  0  0  0  0  0  0
  150.6556  142.9039  156.4258 H   0  0  0  0  0  0  0  0  0  0  0  0
  148.7269  141.0558  157.9535 H   0  0  0  0  0  0  0  0  0  0  0  0
  148.9249  142.7775  158.2355 H   0  0  0  0  0  0  0  0  0  0  0  0
  147.0554  142.2623  156.8146 H   0  0  0  0  0  0  0  0  0  0  0  0
  147.7646  140.3241  155.6819 H   0  0  0  0  0  0  0  0  0  0  0  0
  147.3737  141.5860  154.5256 H   0  0  0  0  0  0  0  0  0  0  0  0
  149.5904  140.4678  154.0092 H   0  0  0  0  0  0  0  0  0  0  0  0
  149.7872  142.1856  154.2967 H   0  0  0  0  0  0  0  0  0  0  0  0
  148.1613  143.2061  156.0450 H   0  0  0  0  0  0  0  0  0  0  0  0
  153.5317  139.6916  159.0777 H   0  0  0  0  0  0  0  0  0  0  0  0
  1  2  1  0  0  0  0
  1 15  1  0  0  0  0
  1 16  1  0  0  0  0
  1 17  1  0  0  0  0
  2  3  1  0  0  0  0
  2  4  1  0  0  0  0
  2 18  1  0  0  0  0
  3 19  1  0  0  0  0
  3 20  1  0  0  0  0
  3 21  1  0  0  0  0
  4 14  2  0  0  0  0
  4  5  1  0  0  0  0
  5  6  1  0  0  0  0
  5 31  1  0  0  0  0
  6  7  2  0  0  0  0
  7  8  1  0  0  0  0
  7 14  1  0  0  0  0
  8 13  1  0  0  0  0
  8  9  1  0  0  0  0
  8 22  1  0  0  0  0
  9 10  1  0  0  0  0
  9 23  1  0  0  0  0
  9 24  1  0  0  0  0
 10 11  1  0  0  0  0
 10 25  1  0  0  0  0
 10 30  1  0  0  0  0
 11 12  1  0  0  0  0
 11 26  1  0  0  0  0
 11 27  1  0  0  0  0
 12 13  1  0  0  0  0
 12 28  1  0  0  0  0
 12 29  1  0  0  0  0
M  CHG  1  10   1
M  END
> <s_m_source_file>
AV-unprocessed.smi

> <i_m_source_file_index>
3019

> <i_lp_mmshare_version>
43012

> <i_f3d_flags>
0

> <s_epik_input>
W0NIM11bQ0hdKFtDSDNdKWMxbltuSF1jKG4xKVtDQEBIXTJbQ0gyXVtOSF1bQ0gyXVtDSDJdTzI=

> <s_epik_cmdline>
J2VwaWtfcHl0aG9uJywgJy1waCcsICc3LjAnLCAnLXRuJywgJzgnLCAnLW1hJywgJzIwMCcsICctbWV0YWxfYmluZGluZycsICctaW1hZScsICc8aW5maWxlLm1hZT4nLCAnLW9tYWUnLCAnPG91dGZpbGUubWFlPic=

> <r_lp_tautomer_probability>
0.948284

> <r_epik_Ionization_Penalty>
0.108767

> <r_epik_Ionization_Penalty_Charging>
0.100865

> <r_epik_Ionization_Penalty_Neutral>
0.00790271

> <r_epik_State_Penalty>
0.197684

> <r_epik_Charging_Adjusted_Penalty>
0.298549

> <i_epik_Tot_Q>
1

> <i_epik_Tot_abs_Q>
1

> <r_epik_Metal_State_Penalty>
0.508163

> <b_epik_Metal_Only>
0

> <s_lp_Force_Field>
OPLS_2005

> <r_lp_Energy>
9.87406

> <b_lp_Chiralities_Consistent>
1

> <s_lp_Variant>
AV-unprocessed.smi:3019-1

> <Gold.Version>
5.8.1

> <Gold.Id.Protein>
6NUR|6NUR_protein|mol2

> <Gold.PLP.Fitness>
32.4498

> <Gold.PLP.PLP>
-27.0415

> <Gold.PLP.part.hbond>
-1.0000

> <Gold.PLP.part.metal>
0.0000

> <Gold.PLP.part.buried>
-3.5132

> <Gold.PLP.part.nonpolar>
-22.3545

> <Gold.PLP.part.repulsive>
0.1673

> <Gold.PLP.ligand.clash>
0.0000

> <Gold.PLP.ligand.torsion>
0.3232

> <Gold.PLP.Chemscore.Hbond>
2.0000

> <Gold.PLP.Chemscore.CHOScore>
0.0000

> <Gold.PLP.Chemscore.Metal>
0.0000

> <Gold.Chemscore.Hbonds>
donor molecule, donor type, donor heavy atom, donor atom, acceptor molecule, acceptor atom, score
      L1  H    10    30       P1  8028  2.00

> <Gold.PLP.Chemscore.Internal.Correction>
0.0548

> <Gold.Rescore>
     Score         DG    S(hbond)    S(metal)    S(lipo)     H(rot)  DE(clash)    DE(int)     intcor
     11.70     -11.90       0.93        0.00      56.23       1.28       0.07       0.13       ----

> <Gold.Chemscore.Fitness>
11.6956

> <Gold.Chemscore.DG>
-11.8957

> <Gold.Chemscore.ZeroCoef>
-5.4800

> <Gold.Chemscore.Hbond>
0.9319

> <Gold.Chemscore.Metal>
0.0000

> <Gold.Chemscore.Lipo>
56.2263

> <Gold.Chemscore.Internal_Hbond>
0.0000

> <Gold.Chemscore.DEClash>
0.0688

> <Gold.Chemscore.DEInternal>
0.1313

> <Gold.Chemscore.Rot>
1.2795

> <Gold.Chemscore.Internal.Correction>
   9.000000E+99

> <Gold.Chemscore.Hbonds>
donor molecule, donor type, donor heavy atom, donor atom, acceptor molecule, acceptor atom, score
      L1  H    10    30       P1  8028  0.60

> <Gold.Chemscore.Hbond.Weighted>
-3.1127

> <Gold.Chemscore.Metal.Weighted>
-0.0000

> <Gold.Chemscore.Lipo.Weighted>
-6.5785

> <Gold.Chemscore.Internal_Hbond.Weighted>
0.0000

> <Gold.Chemscore.DEClash.Weighted>
0.0688

> <Gold.Chemscore.DEInternal.Weighted>
0.1313

> <Gold.Chemscore.Rot.Weighted>
3.2754

> <Gold.Chemscore.Internal.Correction.Weighted>
   9.000000E+99

> <Gold.Protein.RotatedTorsions>
[ 6907 6896 6895 6894 ] final  121.65 input  -60.11 | X-H torsion
[ 7974 7965 7964 7962 ] final   16.02 input  175.53 | X-H torsion
[ 8008 7997 7996 7995 ] final  159.05 input   59.86 | X-H torsion
[ 10167 10162 10161 10158 ] final -173.02 input  -65.29 | X-H torsion
[ 10718 10713 10712 10709 ] final -149.34 input   66.30 | X-H torsion
[ 10763 10752 10751 10750 ] final   94.33 input  -60.55 | X-H torsion
[ 11005 11000 10999 10996 ] final  -22.38 input  -57.11 | X-H torsion

> <Gold.Protein.ActiveResidues>
 VAL166  LYS551  ARG553  GLY616  TRP617  ASP618  TYR619  PRO620  LYS621  CYS622 
 ASP623  PHE694  ASN695  SER759  ASP760  ASP761  ALA762  ILE779  LEU786  VAL792 
 PHE793  MET794  SER795  GLU796  ALA797  LYS798  CYS799  TRP800  GLU811  SER814 

> <Gold.Protein.RotatedAtoms>
  152.4305  133.7270  159.6565 H   0  0  0  0  0  0  0  0  0  0  0  0  # atno 6907 bound_to 6896
  150.8184  133.8285  159.3156 H   0  0  0  0  0  0  0  0  0  0  0  0  # atno 6908 bound_to 6896
  151.5975  135.1052  160.0104 H   0  0  0  0  0  0  0  0  0  0  0  0  # atno 6909 bound_to 6896
  146.2262  139.8808  142.8571 H   0  0  0  0  0  0  0  0  0  0  0  0  # atno 7974 bound_to 7965
  156.2263  140.1841  156.7353 H   0  0  0  0  0  0  0  0  0  0  0  0  # atno 8008 bound_to 7997
  154.5947  140.0645  156.9316 H   0  0  0  0  0  0  0  0  0  0  0  0  # atno 8009 bound_to 7997
  155.2275  140.3312  155.4310 H   0  0  0  0  0  0  0  0  0  0  0  0  # atno 8010 bound_to 7997
  139.5712  144.1638  152.1386 H   0  0  0  0  0  0  0  0  0  0  0  0  # atno 10167 bound_to 10162
  156.4319  130.8080  151.2307 H   0  0  0  0  0  0  0  0  0  0  0  0  # atno 10718 bound_to 10713
  153.2404  135.4293  155.0692 H   0  0  0  0  0  0  0  0  0  0  0  0  # atno 10763 bound_to 10752
  154.8338  135.3401  154.6657 H   0  0  0  0  0  0  0  0  0  0  0  0  # atno 10764 bound_to 10752
  153.7081  135.7024  153.5101 H   0  0  0  0  0  0  0  0  0  0  0  0  # atno 10765 bound_to 10752
  140.8651  133.7760  156.0120 H   0  0  0  0  0  0  0  0  0  0  0  0  # atno 11005 bound_to 11000
  145.2514  141.0045  143.3879 LP  0  0  0  0  0  0  0  0  0  0  0  0  # atno 17320 bound_to 7965
  144.9371  139.4231  143.6467 LP  0  0  0  0  0  0  0  0  0  0  0  0  # atno 17321 bound_to 7965
  140.1171  144.5406  150.6887 LP  0  0  0  0  0  0  0  0  0  0  0  0  # atno 17342 bound_to 10162
  140.6996  143.2426  151.4903 LP  0  0  0  0  0  0  0  0  0  0  0  0  # atno 17343 bound_to 10162
  157.7508  131.0195  150.3672 LP  0  0  0  0  0  0  0  0  0  0  0  0  # atno 17370 bound_to 10713
  156.4011  130.3916  149.6959 LP  0  0  0  0  0  0  0  0  0  0  0  0  # atno 17371 bound_to 10713
  140.8638  134.2809  157.5222 LP  0  0  0  0  0  0  0  0  0  0  0  0  # atno 17394 bound_to 11000
  139.8709  134.9532  156.4137 LP  0  0  0  0  0  0  0  0  0  0  0  0  # atno 17395 bound_to 11000

$$$$
