AV-unprocessed.smi:109|AV-procd|sdf|1062|dock1
  -GOLD-   2262018133D 1   1.00000     0.00000
 Structure written by MMmdl.
 58 61  0  0  0  0  0  0  0  0  1 V2000
  150.8029  139.4049  154.3195 O   0  0  0  0  0  0  0  0  0  0  0  0
  151.4079  139.3837  155.5943 C   0  0  0  0  0  0  0  0  0  0  0  0
  150.6304  140.2970  156.5576 C   0  0  0  0  0  0  0  0  0  0  0  0
  150.9779  141.8014  156.4316 C   0  0  1  0  0  0  0  0  0  0  0  0
  149.9323  142.4837  155.6656 N   0  0  0  0  0  0  0  0  0  0  0  0
  148.9006  141.8209  155.0970 C   0  0  0  0  0  0  0  0  0  0  0  0
  148.9706  141.3516  153.8242 N   0  0  0  0  0  0  0  0  0  0  0  0
  147.9358  140.6917  153.2963 C   0  0  0  0  0  0  0  0  0  0  0  0
  146.7612  140.3975  153.8573 N   0  0  0  0  0  0  0  0  0  0  0  0
  146.6833  140.8692  155.1351 C   0  0  0  0  0  0  0  0  0  0  0  0
  147.7033  141.5858  155.8205 C   0  0  0  0  0  0  0  0  0  0  0  0
  147.2743  141.9058  157.1018 N   0  0  0  0  0  0  0  0  0  0  0  0
  146.0685  141.4079  157.1643 C   0  0  0  0  0  0  0  0  0  0  0  0
  145.6367  140.7601  156.0282 N   0  0  0  0  0  0  0  0  0  0  0  0
  144.3159  140.0997  155.8053 C   0  0  1  0  0  0  0  0  0  0  0  0
  144.1405  139.1461  156.8031 O   0  0  0  0  0  0  0  0  0  0  0  0
  142.7602  139.0290  157.1539 C   0  0  1  0  0  0  0  0  0  0  0  0
  142.6324  139.1792  158.6797 C   0  0  0  0  0  0  0  0  0  0  0  0
  143.1330  140.4343  159.0879 O   0  0  0  0  0  0  0  0  0  0  0  0
  142.0371  140.1516  156.3828 C   0  0  2  0  0  0  0  0  0  0  0  0
  141.3531  139.5775  155.2808 O   0  0  0  0  0  0  0  0  0  0  0  0
  143.1626  141.0874  155.9500 C   0  0  2  0  0  0  0  0  0  0  0  0
  142.8568  141.7753  154.7514 O   0  0  0  0  0  0  0  0  0  0  0  0
  151.1551  142.5151  157.8030 C   0  0  0  0  0  0  0  0  0  0  0  0
  151.6935  143.9573  157.6163 C   0  0  0  0  0  0  0  0  0  0  0  0
  151.8750  144.6953  158.9517 C   0  0  0  0  0  0  0  0  0  0  0  0
  152.8043  143.9178  159.8910 C   0  0  0  0  0  0  0  0  0  0  0  0
  152.2798  142.4938  160.1097 C   0  0  0  0  0  0  0  0  0  0  0  0
  152.0882  141.7518  158.7765 C   0  0  0  0  0  0  0  0  0  0  0  0
  144.3722  139.6226  154.8256 H   0  0  0  0  0  0  0  0  0  0  0  0
  142.3844  138.0500  156.8493 H   0  0  0  0  0  0  0  0  0  0  0  0
  141.3000  140.6747  156.9932 H   0  0  0  0  0  0  0  0  0  0  0  0
  143.3779  141.7963  156.7497 H   0  0  0  0  0  0  0  0  0  0  0  0
  151.1060  138.6551  153.8305 H   0  0  0  0  0  0  0  0  0  0  0  0
  151.4202  138.3577  155.9631 H   0  0  0  0  0  0  0  0  0  0  0  0
  152.4432  139.7079  155.4893 H   0  0  0  0  0  0  0  0  0  0  0  0
  149.5582  140.1542  156.4150 H   0  0  0  0  0  0  0  0  0  0  0  0
  150.8555  139.9495  157.5643 H   0  0  0  0  0  0  0  0  0  0  0  0
  151.9369  141.8763  155.9193 H   0  0  0  0  0  0  0  0  0  0  0  0
  150.0516  143.4820  155.5687 H   0  0  0  0  0  0  0  0  0  0  0  0
  148.0684  140.3493  152.2808 H   0  0  0  0  0  0  0  0  0  0  0  0
  145.4574  141.4972  158.0508 H   0  0  0  0  0  0  0  0  0  0  0  0
  141.6029  139.0537  159.0130 H   0  0  0  0  0  0  0  0  0  0  0  0
  143.2274  138.4178  159.1847 H   0  0  0  0  0  0  0  0  0  0  0  0
  142.5768  141.1102  158.7315 H   0  0  0  0  0  0  0  0  0  0  0  0
  141.4683  140.1382  154.5293 H   0  0  0  0  0  0  0  0  0  0  0  0
  142.9307  141.1678  154.0312 H   0  0  0  0  0  0  0  0  0  0  0  0
  150.1733  142.5823  158.2752 H   0  0  0  0  0  0  0  0  0  0  0  0
  152.6477  143.9252  157.0885 H   0  0  0  0  0  0  0  0  0  0  0  0
  151.0211  144.5453  156.9913 H   0  0  0  0  0  0  0  0  0  0  0  0
  152.2782  145.6925  158.7729 H   0  0  0  0  0  0  0  0  0  0  0  0
  150.9038  144.8351  159.4282 H   0  0  0  0  0  0  0  0  0  0  0  0
  153.8086  143.8794  159.4672 H   0  0  0  0  0  0  0  0  0  0  0  0
  152.8887  144.4361  160.8467 H   0  0  0  0  0  0  0  0  0  0  0  0
  152.9688  141.9387  160.7470 H   0  0  0  0  0  0  0  0  0  0  0  0
  151.3296  142.5333  160.6439 H   0  0  0  0  0  0  0  0  0  0  0  0
  151.6852  140.7676  159.0096 H   0  0  0  0  0  0  0  0  0  0  0  0
  153.0583  141.5893  158.3054 H   0  0  0  0  0  0  0  0  0  0  0  0
  1  2  1  0  0  0  0
  1 34  1  0  0  0  0
  2  3  1  0  0  0  0
  2 35  1  0  0  0  0
  2 36  1  0  0  0  0
  3  4  1  0  0  0  0
  3 37  1  0  0  0  0
  3 38  1  0  0  0  0
  4  5  1  0  0  0  0
  4 24  1  0  0  0  0
  4 39  1  0  0  0  0
  5  6  1  0  0  0  0
  5 40  1  0  0  0  0
  6 11  1  0  0  0  0
  6  7  2  0  0  0  0
  7  8  1  0  0  0  0
  8  9  2  0  0  0  0
  8 41  1  0  0  0  0
  9 10  1  0  0  0  0
 10 14  1  0  0  0  0
 10 11  2  0  0  0  0
 11 12  1  0  0  0  0
 12 13  2  0  0  0  0
 13 14  1  0  0  0  0
 13 42  1  0  0  0  0
 14 15  1  0  0  0  0
 15 30  1  0  0  0  0
 15 22  1  0  0  0  0
 15 16  1  0  0  0  0
 16 17  1  0  0  0  0
 17 31  1  0  0  0  0
 17 18  1  0  0  0  0
 17 20  1  0  0  0  0
 18 19  1  0  0  0  0
 18 43  1  0  0  0  0
 18 44  1  0  0  0  0
 19 45  1  0  0  0  0
 20 32  1  0  0  0  0
 20 21  1  0  0  0  0
 20 22  1  0  0  0  0
 21 46  1  0  0  0  0
 22 33  1  0  0  0  0
 22 23  1  0  0  0  0
 23 47  1  0  0  0  0
 24 29  1  0  0  0  0
 24 25  1  0  0  0  0
 24 48  1  0  0  0  0
 25 26  1  0  0  0  0
 25 49  1  0  0  0  0
 25 50  1  0  0  0  0
 26 27  1  0  0  0  0
 26 51  1  0  0  0  0
 26 52  1  0  0  0  0
 27 28  1  0  0  0  0
 27 53  1  0  0  0  0
 27 54  1  0  0  0  0
 28 29  1  0  0  0  0
 28 55  1  0  0  0  0
 28 56  1  0  0  0  0
 29 57  1  0  0  0  0
 29 58  1  0  0  0  0
M  END
> <s_m_source_file>
AV-unprocessed.smi

> <i_m_source_file_index>
109

> <i_lp_mmshare_version>
43012

> <i_f3d_flags>
0

> <s_epik_input>
W0NIMl0xW0NIMl1bQ0gyXVtDSDJdW0NIMl1bQ0hdMVtDQEhdKFtDSDJdW0NIMl1bT0hdKVtOSF1jKG5bY0hdbjIpYyhjMjMpbltjSF1uM1tDQEBIXTRPW0NASF0oW0NIMl1bT0hdKVtDQEBIXShbT0hdKVtDQEhdNFtPSF0=

> <s_epik_cmdline>
J2VwaWtfcHl0aG9uJywgJy1waCcsICc3LjAnLCAnLXRuJywgJzgnLCAnLW1hJywgJzIwMCcsICctbWV0YWxfYmluZGluZycsICctaW1hZScsICc8aW5maWxlLm1hZT4nLCAnLW9tYWUnLCAnPG91dGZpbGUubWFlPic=

> <r_lp_tautomer_probability>
1

> <r_epik_Ionization_Penalty>
0.000793976

> <r_epik_Ionization_Penalty_Charging>
0

> <r_epik_Ionization_Penalty_Neutral>
0.000793976

> <r_epik_State_Penalty>
-0

> <r_epik_Charging_Adjusted_Penalty>
0

> <i_epik_Tot_Q>
0

> <i_epik_Tot_abs_Q>
0

> <r_epik_Metal_State_Penalty>
-0

> <b_epik_Metal_Only>
0

> <s_epik_Chemistry_Notes>
This compound contains an acetal/aminal-like group ( X-CH(R)-Y where X, Y are N, S, or O) that may be acid/base labile, releasing an aldehyde.

> <s_lp_Force_Field>
OPLS_2005

> <r_lp_Energy>
55.705

> <b_lp_Chiralities_Consistent>
1

> <s_lp_Variant>
AV-unprocessed.smi:109-32

> <Gold.Version>
5.8.1

> <Gold.Id.Protein>
6NUR|6NUR_protein|mol2

> <Gold.PLP.Fitness>
49.5085

> <Gold.PLP.PLP>
-39.1657

> <Gold.PLP.part.hbond>
-4.6967

> <Gold.PLP.part.metal>
0.0000

> <Gold.PLP.part.buried>
-1.8068

> <Gold.PLP.part.nonpolar>
-33.7556

> <Gold.PLP.part.repulsive>
0.7773

> <Gold.PLP.ligand.clash>
0.7594

> <Gold.PLP.ligand.torsion>
1.6031

> <Gold.PLP.Chemscore.Hbond>
3.4560

> <Gold.PLP.Chemscore.CHOScore>
1.0000

> <Gold.PLP.Chemscore.Metal>
0.0000

> <Gold.Chemscore.Hbonds>
donor molecule, donor type, donor heavy atom, donor atom, acceptor molecule, acceptor atom, score
      L1  H     5    40       P1  8028  0.61
      L1  H    23    47       P1 10175  0.85
      P1  H  7989  7998       L1     1  1.00
      P1  H  8011  8017       L1     7  0.80
      L1  C     8    41       P1  7957  0.70

> <Gold.PLP.Chemscore.Internal.Correction>
0.9402

> <Gold.Rescore>
     Score         DG    S(hbond)    S(metal)    S(lipo)     H(rot)  DE(clash)    DE(int)     intcor
      7.96     -11.93       2.92        0.00      91.41       5.47       2.18       1.79       ----

> <Gold.Chemscore.Fitness>
7.9625

> <Gold.Chemscore.DG>
-11.9337

> <Gold.Chemscore.ZeroCoef>
-5.4800

> <Gold.Chemscore.Hbond>
2.9199

> <Gold.Chemscore.Metal>
0.0000

> <Gold.Chemscore.Lipo>
91.4065

> <Gold.Chemscore.Internal_Hbond>
0.0000

> <Gold.Chemscore.DEClash>
2.1820

> <Gold.Chemscore.DEInternal>
1.7891

> <Gold.Chemscore.Rot>
5.4662

> <Gold.Chemscore.Internal.Correction>
   9.000000E+99

> <Gold.Chemscore.Hbonds>
donor molecule, donor type, donor heavy atom, donor atom, acceptor molecule, acceptor atom, score
      L1  H     5    40       P1  8028  0.60
      L1  H    23    47       P1 10175  0.14
      P1  H  7989  7998       L1     1  0.18
      P1  H  8011  8017       L1     7  0.45

> <Gold.Chemscore.Hbond.Weighted>
-9.7526

> <Gold.Chemscore.Metal.Weighted>
-0.0000

> <Gold.Chemscore.Lipo.Weighted>
-10.6946

> <Gold.Chemscore.Internal_Hbond.Weighted>
0.0000

> <Gold.Chemscore.DEClash.Weighted>
2.1820

> <Gold.Chemscore.DEInternal.Weighted>
1.7891

> <Gold.Chemscore.Rot.Weighted>
13.9935

> <Gold.Chemscore.Internal.Correction.Weighted>
   9.000000E+99

> <Gold.Protein.RotatedTorsions>
[ 6907 6896 6895 6894 ] final  135.26 input  -60.11 | X-H torsion
[ 7974 7965 7964 7962 ] final -163.13 input  175.53 | X-H torsion
[ 8008 7997 7996 7995 ] final -106.19 input   59.86 | X-H torsion
[ 10167 10162 10161 10158 ] final -114.20 input  -65.29 | X-H torsion
[ 10718 10713 10712 10709 ] final  -75.72 input   66.30 | X-H torsion
[ 10763 10752 10751 10750 ] final -169.55 input  -60.55 | X-H torsion
[ 11005 11000 10999 10996 ] final -119.53 input  -57.11 | X-H torsion

> <Gold.Protein.ActiveResidues>
 VAL166  LYS551  ARG553  GLY616  TRP617  ASP618  TYR619  PRO620  LYS621  CYS622 
 ASP623  PHE694  ASN695  SER759  ASP760  ASP761  ALA762  ILE779  LEU786  VAL792 
 PHE793  MET794  SER795  GLU796  ALA797  LYS798  CYS799  TRP800  GLU811  SER814 

> <Gold.Protein.RotatedAtoms>
  152.3024  133.5669  159.5626 H   0  0  0  0  0  0  0  0  0  0  0  0  # atno 6907 bound_to 6896
  150.7284  134.0272  159.3730 H   0  0  0  0  0  0  0  0  0  0  0  0  # atno 6908 bound_to 6896
  151.8171  135.0663  160.0471 H   0  0  0  0  0  0  0  0  0  0  0  0  # atno 6909 bound_to 6896
  144.7335  140.3151  143.6181 H   0  0  0  0  0  0  0  0  0  0  0  0  # atno 7974 bound_to 7965
  154.9108  140.0410  157.1945 H   0  0  0  0  0  0  0  0  0  0  0  0  # atno 8008 bound_to 7997
  154.8350  140.2905  155.5676 H   0  0  0  0  0  0  0  0  0  0  0  0  # atno 8009 bound_to 7997
  156.2989  140.2493  156.3282 H   0  0  0  0  0  0  0  0  0  0  0  0  # atno 8010 bound_to 7997
  140.1036  143.4591  152.1797 H   0  0  0  0  0  0  0  0  0  0  0  0  # atno 10167 bound_to 10162
  156.0198  130.4448  150.3086 H   0  0  0  0  0  0  0  0  0  0  0  0  # atno 10718 bound_to 10713
  154.6511  135.2911  154.9985 H   0  0  0  0  0  0  0  0  0  0  0  0  # atno 10763 bound_to 10752
  154.1078  135.6567  153.4883 H   0  0  0  0  0  0  0  0  0  0  0  0  # atno 10764 bound_to 10752
  153.0377  135.5258  154.7420 H   0  0  0  0  0  0  0  0  0  0  0  0  # atno 10765 bound_to 10752
  141.0209  134.0126  157.3284 H   0  0  0  0  0  0  0  0  0  0  0  0  # atno 11005 bound_to 11000
  145.7625  139.1829  143.2259 LP  0  0  0  0  0  0  0  0  0  0  0  0  # atno 17320 bound_to 7965
  146.0975  140.7583  142.9565 LP  0  0  0  0  0  0  0  0  0  0  0  0  # atno 17321 bound_to 7965
  139.5658  144.7434  151.4028 LP  0  0  0  0  0  0  0  0  0  0  0  0  # atno 17342 bound_to 10162
  140.6964  143.7738  150.7334 LP  0  0  0  0  0  0  0  0  0  0  0  0  # atno 17343 bound_to 10162
  157.1188  131.0241  151.3018 LP  0  0  0  0  0  0  0  0  0  0  0  0  # atno 17370 bound_to 10713
  157.4645  130.7672  149.7266 LP  0  0  0  0  0  0  0  0  0  0  0  0  # atno 17371 bound_to 10713
  139.9145  135.0195  156.7827 LP  0  0  0  0  0  0  0  0  0  0  0  0  # atno 17394 bound_to 11000
  140.6575  133.9675  155.7787 LP  0  0  0  0  0  0  0  0  0  0  0  0  # atno 17395 bound_to 11000

$$$$
