AV-unprocessed.smi:1933|AV-procd|sdf|7817|dock8
  -GOLD-   22720 9563D 1   1.00000     0.00000
 Structure written by MMmdl.
 47 49  0  0  0  0  0  0  0  0  1 V2000
  144.5263  136.8523  152.2237 O   0  0  0  0  0  0  0  0  0  0  0  0
  145.7358  136.6418  152.1321 C   0  0  0  0  0  0  0  0  0  0  0  0
  146.6741  137.5298  152.4926 N   0  0  0  0  0  0  0  0  0  0  0  0
  146.4242  138.8588  153.0449 C   0  0  0  0  0  0  0  0  0  0  0  0
  146.6549  138.9156  154.5788 C   0  0  2  0  0  0  0  0  0  0  0  0
  145.4978  139.6185  155.3485 C   0  0  1  0  0  0  0  0  0  0  0  0
  144.1364  138.9504  155.2474 C   0  0  0  0  0  0  0  0  0  0  0  0
  143.3592  139.5717  156.4138 C   0  0  0  0  0  0  0  0  0  0  0  0
  144.3137  140.2859  157.1971 O   0  0  0  0  0  0  0  0  0  0  0  0
  145.6140  139.8318  156.8563 C   0  0  0  0  0  0  0  0  0  0  0  0
  148.0137  139.3338  154.9783 N   0  0  0  0  0  0  0  0  0  0  0  0
  148.3671  140.7187  154.6551 C   0  0  0  0  0  0  0  0  0  0  0  0
  149.7556  141.0892  155.2019 C   0  0  0  0  0  0  0  0  0  0  0  0
  150.7271  140.1911  154.6743 O   0  0  0  0  0  0  0  0  0  0  0  0
  150.4449  138.8298  154.9827 C   0  0  0  0  0  0  0  0  0  0  0  0
  149.0518  138.4524  154.4491 C   0  0  0  0  0  0  0  0  0  0  0  0
  146.2925  135.5022  151.6863 N   0  0  0  0  0  0  0  0  0  0  0  0
  145.6417  134.3115  151.2675 C   0  0  0  0  0  0  0  0  0  0  0  0
  144.2324  134.1839  151.3708 C   0  0  0  0  0  0  0  0  0  0  0  0
  143.6112  133.0030  150.9215 C   0  0  0  0  0  0  0  0  0  0  0  0
  144.4083  131.9841  150.3709 C   0  0  0  0  0  0  0  0  0  0  0  0
  145.7959  132.1995  150.2893 C   0  0  0  0  0  0  0  0  0  0  0  0
  146.3948  133.3312  150.7169 N   0  0  0  0  0  0  0  0  0  0  0  0
  147.6418  137.2636  152.3832 H   0  0  0  0  0  0  0  0  0  0  0  0
  147.1055  139.5397  152.5353 H   0  0  0  0  0  0  0  0  0  0  0  0
  145.4178  139.1991  152.7961 H   0  0  0  0  0  0  0  0  0  0  0  0
  146.5571  137.8798  154.9079 H   0  0  0  0  0  0  0  0  0  0  0  0
  145.3704  140.6088  154.9099 H   0  0  0  0  0  0  0  0  0  0  0  0
  143.6565  139.1234  154.2836 H   0  0  0  0  0  0  0  0  0  0  0  0
  144.2151  137.8727  155.3944 H   0  0  0  0  0  0  0  0  0  0  0  0
  142.5899  140.2609  156.0642 H   0  0  0  0  0  0  0  0  0  0  0  0
  142.8764  138.8015  157.0162 H   0  0  0  0  0  0  0  0  0  0  0  0
  145.7824  138.9051  157.3998 H   0  0  0  0  0  0  0  0  0  0  0  0
  146.3809  140.5536  157.1359 H   0  0  0  0  0  0  0  0  0  0  0  0
  148.3783  140.8586  153.5736 H   0  0  0  0  0  0  0  0  0  0  0  0
  147.6357  141.4204  155.0418 H   0  0  0  0  0  0  0  0  0  0  0  0
  150.0178  142.1071  154.9132 H   0  0  0  0  0  0  0  0  0  0  0  0
  149.7652  141.0515  156.2925 H   0  0  0  0  0  0  0  0  0  0  0  0
  151.2078  138.1956  154.5313 H   0  0  0  0  0  0  0  0  0  0  0  0
  150.4981  138.6769  156.0619 H   0  0  0  0  0  0  0  0  0  0  0  0
  148.8380  137.4184  154.7214 H   0  0  0  0  0  0  0  0  0  0  0  0
  149.0615  138.4936  153.3595 H   0  0  0  0  0  0  0  0  0  0  0  0
  147.2968  135.4389  151.7642 H   0  0  0  0  0  0  0  0  0  0  0  0
  143.6190  134.9753  151.7748 H   0  0  0  0  0  0  0  0  0  0  0  0
  142.5401  132.8842  150.9932 H   0  0  0  0  0  0  0  0  0  0  0  0
  143.9675  131.0646  150.0148 H   0  0  0  0  0  0  0  0  0  0  0  0
  146.4432  131.4451  149.8671 H   0  0  0  0  0  0  0  0  0  0  0  0
  1  2  2  0  0  0  0
  2  3  1  0  0  0  0
  2 17  1  0  0  0  0
  3  4  1  0  0  0  0
  3 24  1  0  0  0  0
  4  5  1  0  0  0  0
  4 25  1  0  0  0  0
  4 26  1  0  0  0  0
  5  6  1  0  0  0  0
  5 11  1  0  0  0  0
  5 27  1  0  0  0  0
  6 10  1  0  0  0  0
  6  7  1  0  0  0  0
  6 28  1  0  0  0  0
  7  8  1  0  0  0  0
  7 29  1  0  0  0  0
  7 30  1  0  0  0  0
  8  9  1  0  0  0  0
  8 31  1  0  0  0  0
  8 32  1  0  0  0  0
  9 10  1  0  0  0  0
 10 33  1  0  0  0  0
 10 34  1  0  0  0  0
 11 16  1  0  0  0  0
 11 12  1  0  0  0  0
 12 13  1  0  0  0  0
 12 35  1  0  0  0  0
 12 36  1  0  0  0  0
 13 14  1  0  0  0  0
 13 37  1  0  0  0  0
 13 38  1  0  0  0  0
 14 15  1  0  0  0  0
 15 16  1  0  0  0  0
 15 39  1  0  0  0  0
 15 40  1  0  0  0  0
 16 41  1  0  0  0  0
 16 42  1  0  0  0  0
 17 18  1  0  0  0  0
 17 43  1  0  0  0  0
 18 23  1  0  0  0  0
 18 19  2  0  0  0  0
 19 20  1  0  0  0  0
 19 44  1  0  0  0  0
 20 21  2  0  0  0  0
 20 45  1  0  0  0  0
 21 22  1  0  0  0  0
 21 46  1  0  0  0  0
 22 23  2  0  0  0  0
 22 47  1  0  0  0  0
M  END
> <s_m_source_file>
AV-unprocessed.smi

> <i_m_source_file_index>
1933

> <i_lp_mmshare_version>
43012

> <i_f3d_flags>
0

> <s_epik_input>
bjFbY0hdW2NIXVtjSF1bY0hdYzFbTkhdQyg9TylbTkhdW0NIMl1bQ0BIXShbQ0BASF0yW0NIMl1bQ0gyXU9bQ0gyXTIpTjNbQ0gyXVtDSDJdT1tDSDJdW0NIMl0z

> <s_epik_cmdline>
J2VwaWtfcHl0aG9uJywgJy1waCcsICc3LjAnLCAnLXRuJywgJzgnLCAnLW1hJywgJzIwMCcsICctbWV0YWxfYmluZGluZycsICctaW1hZScsICc8aW5maWxlLm1hZT4nLCAnLW9tYWUnLCAnPG91dGZpbGUubWFlPic=

> <r_epik_Ionization_Penalty>
0.125062

> <r_epik_Ionization_Penalty_Charging>
0

> <r_epik_Ionization_Penalty_Neutral>
0.125062

> <r_epik_State_Penalty>
0.114484

> <r_epik_Charging_Adjusted_Penalty>
0.114484

> <i_epik_Tot_Q>
0

> <i_epik_Tot_abs_Q>
0

> <r_epik_Metal_State_Penalty>
0.114484

> <b_epik_Metal_Only>
0

> <s_lp_Force_Field>
OPLS_2005

> <r_lp_Energy>
60.0985

> <b_lp_Chiralities_Consistent>
1

> <s_lp_Variant>
AV-unprocessed.smi:1933-3

> <Gold.Version>
5.8.1

> <Gold.Id.Protein>
6NUR|6NUR_protein|mol2

> <Gold.PLP.Fitness>
42.0106

> <Gold.PLP.PLP>
-31.5012

> <Gold.PLP.part.hbond>
-2.9432

> <Gold.PLP.part.metal>
0.0000

> <Gold.PLP.part.buried>
-5.9739

> <Gold.PLP.part.nonpolar>
-24.4921

> <Gold.PLP.part.repulsive>
0.7514

> <Gold.PLP.ligand.clash>
0.0000

> <Gold.PLP.ligand.torsion>
0.8819

> <Gold.PLP.Chemscore.Hbond>
2.9913

> <Gold.PLP.Chemscore.CHOScore>
1.0000

> <Gold.PLP.Chemscore.Metal>
0.0000

> <Gold.Chemscore.Hbonds>
donor molecule, donor type, donor heavy atom, donor atom, acceptor molecule, acceptor atom, score
      L1  H     3    24       P1  7948  1.00
      L1  H    17    43       P1  7948  1.00
      P1  H  7989  7998       L1    14  1.00
      L1  C    22    47       P1 10747  0.78

> <Gold.PLP.Chemscore.Internal.Correction>
0.2993

> <Gold.Rescore>
     Score         DG    S(hbond)    S(metal)    S(lipo)     H(rot)  DE(clash)    DE(int)     intcor
     16.55     -18.76       2.90        0.00      68.22       1.72       0.03       2.18       ----

> <Gold.Chemscore.Fitness>
16.5514

> <Gold.Chemscore.DG>
-18.7562

> <Gold.Chemscore.ZeroCoef>
-5.4800

> <Gold.Chemscore.Hbond>
2.9006

> <Gold.Chemscore.Metal>
0.0000

> <Gold.Chemscore.Lipo>
68.2183

> <Gold.Chemscore.Internal_Hbond>
0.0000

> <Gold.Chemscore.DEClash>
0.0267

> <Gold.Chemscore.DEInternal>
2.1781

> <Gold.Chemscore.Rot>
1.7161

> <Gold.Chemscore.Internal.Correction>
   9.000000E+99

> <Gold.Chemscore.Hbonds>
donor molecule, donor type, donor heavy atom, donor atom, acceptor molecule, acceptor atom, score
      L1  H     3    24       P1  7948  0.98
      L1  H    17    43       P1  7948  0.96
      P1  H  7989  7998       L1    14  0.81

> <Gold.Chemscore.Hbond.Weighted>
-9.6879

> <Gold.Chemscore.Metal.Weighted>
-0.0000

> <Gold.Chemscore.Lipo.Weighted>
-7.9815

> <Gold.Chemscore.Internal_Hbond.Weighted>
0.0000

> <Gold.Chemscore.DEClash.Weighted>
0.0267

> <Gold.Chemscore.DEInternal.Weighted>
2.1781

> <Gold.Chemscore.Rot.Weighted>
4.3932

> <Gold.Chemscore.Internal.Correction.Weighted>
   9.000000E+99

> <Gold.Protein.RotatedTorsions>
[ 6907 6896 6895 6894 ] final  -55.09 input  -60.11 | X-H torsion
[ 7974 7965 7964 7962 ] final  136.42 input  175.53 | X-H torsion
[ 8008 7997 7996 7995 ] final   37.19 input   59.86 | X-H torsion
[ 10167 10162 10161 10158 ] final   11.47 input  -65.29 | X-H torsion
[ 10718 10713 10712 10709 ] final -100.48 input   66.30 | X-H torsion
[ 10763 10752 10751 10750 ] final    6.02 input  -60.55 | X-H torsion
[ 11005 11000 10999 10996 ] final   72.36 input  -57.11 | X-H torsion

> <Gold.Protein.ActiveResidues>
 VAL166  LYS551  ARG553  GLY616  TRP617  ASP618  TYR619  PRO620  LYS621  CYS622 
 ASP623  PHE694  ASN695  SER759  ASP760  ASP761  ALA762  ILE779  LEU786  VAL792 
 PHE793  MET794  SER795  GLU796  ALA797  LYS798  CYS799  TRP800  GLU811  SER814 

> <Gold.Protein.RotatedAtoms>
  150.8281  134.7521  159.6829 H   0  0  0  0  0  0  0  0  0  0  0  0  # atno 6907 bound_to 6896
  152.4389  134.5627  159.9908 H   0  0  0  0  0  0  0  0  0  0  0  0  # atno 6908 bound_to 6896
  151.5795  133.3342  159.3041 H   0  0  0  0  0  0  0  0  0  0  0  0  # atno 6909 bound_to 6896
  144.9566  139.4757  143.5500 H   0  0  0  0  0  0  0  0  0  0  0  0  # atno 7974 bound_to 7965
  155.1998  140.3315  155.4345 H   0  0  0  0  0  0  0  0  0  0  0  0  # atno 8008 bound_to 7997
  156.2411  140.1895  156.7035 H   0  0  0  0  0  0  0  0  0  0  0  0  # atno 8009 bound_to 7997
  154.6149  140.0603  156.9527 H   0  0  0  0  0  0  0  0  0  0  0  0  # atno 8010 bound_to 7997
  140.6130  143.8368  150.7086 H   0  0  0  0  0  0  0  0  0  0  0  0  # atno 10167 bound_to 10162
  156.0164  130.5329  150.6823 H   0  0  0  0  0  0  0  0  0  0  0  0  # atno 10718 bound_to 10713
  153.2525  135.6915  153.7663 H   0  0  0  0  0  0  0  0  0  0  0  0  # atno 10763 bound_to 10752
  153.6753  135.3337  155.3165 H   0  0  0  0  0  0  0  0  0  0  0  0  # atno 10764 bound_to 10752
  154.8400  135.4509  154.1487 H   0  0  0  0  0  0  0  0  0  0  0  0  # atno 10765 bound_to 10752
  139.9495  134.7253  156.0898 H   0  0  0  0  0  0  0  0  0  0  0  0  # atno 11005 bound_to 11000
  146.3339  139.8688  142.8843 LP  0  0  0  0  0  0  0  0  0  0  0  0  # atno 17320 bound_to 7965
  145.2763  141.0124  143.3743 LP  0  0  0  0  0  0  0  0  0  0  0  0  # atno 17321 bound_to 7965
  140.1941  143.4012  152.1841 LP  0  0  0  0  0  0  0  0  0  0  0  0  # atno 17342 bound_to 10162
  139.5376  144.7225  151.4841 LP  0  0  0  0  0  0  0  0  0  0  0  0  # atno 17343 bound_to 10162
  157.4523  131.0874  151.0833 LP  0  0  0  0  0  0  0  0  0  0  0  0  # atno 17370 bound_to 10713
  157.1345  130.6116  149.5538 LP  0  0  0  0  0  0  0  0  0  0  0  0  # atno 17371 bound_to 10713
  141.1154  133.6629  156.3080 LP  0  0  0  0  0  0  0  0  0  0  0  0  # atno 17394 bound_to 11000
  140.5754  134.5799  157.5467 LP  0  0  0  0  0  0  0  0  0  0  0  0  # atno 17395 bound_to 11000

$$$$
