AV-unprocessed.smi:349|AV-procd|sdf|2396|dock3
  -GOLD-   2262022323D 1   1.00000     0.00000
 Structure written by MMmdl.
 43 44  0  0  0  0  0  0  0  0  1 V2000
  144.3124  143.6492  162.2111 C   0  0  0  0  0  0  0  0  0  0  0  0
  144.3357  144.4421  160.8948 C   0  0  0  0  0  0  0  0  0  0  0  0
  145.7408  144.9151  160.4599 C   0  0  2  0  0  0  0  0  0  0  0  0
  145.6439  146.0116  159.3856 C   0  0  0  0  0  0  0  0  0  0  0  0
  146.6039  143.7509  159.9509 C   0  0  0  0  0  0  0  0  0  0  0  0
  146.4296  142.6126  160.3874 O   0  0  0  0  0  0  0  0  0  0  0  0
  147.5387  144.0529  159.0363 N   0  0  0  0  0  0  0  0  0  0  0  0
  148.4837  143.0997  158.4640 C   0  0  0  0  0  0  0  0  0  0  0  0
  149.9488  143.4111  158.7770 C   0  0  0  0  0  0  0  0  0  0  0  0
  150.2691  144.4247  159.7091 C   0  0  0  0  0  0  0  0  0  0  0  0
  151.6176  144.7210  159.9748 C   0  0  0  0  0  0  0  0  0  0  0  0
  152.6056  143.9949  159.2876 C   0  0  0  0  0  0  0  0  0  0  0  0
  152.3205  143.0322  158.3875 N   0  0  0  0  0  0  0  0  0  0  0  0
  151.0219  142.7401  158.1293 C   0  0  0  0  0  0  0  0  0  0  0  0
  150.7693  141.7142  157.2016 N   0  0  0  0  0  0  0  0  0  0  0  0
  151.8969  140.8050  157.0407 C   0  0  0  0  0  0  0  0  0  0  0  0
  151.4758  139.5923  156.1934 C   0  0  0  0  0  0  0  0  0  0  0  0
  150.9499  140.0373  154.9456 O   0  0  0  0  0  0  0  0  0  0  0  0
  149.8045  140.8691  155.1114 C   0  0  0  0  0  0  0  0  0  0  0  0
  150.1879  142.1167  155.9253 C   0  0  0  0  0  0  0  0  0  0  0  0
  143.2882  143.4159  162.5025 H   0  0  0  0  0  0  0  0  0  0  0  0
  144.7664  144.2187  163.0224 H   0  0  0  0  0  0  0  0  0  0  0  0
  144.8481  142.7039  162.1221 H   0  0  0  0  0  0  0  0  0  0  0  0
  143.8814  143.8420  160.1050 H   0  0  0  0  0  0  0  0  0  0  0  0
  143.6916  145.3144  161.0111 H   0  0  0  0  0  0  0  0  0  0  0  0
  146.2336  145.3526  161.3300 H   0  0  0  0  0  0  0  0  0  0  0  0
  146.6323  146.3389  159.0603 H   0  0  0  0  0  0  0  0  0  0  0  0
  145.1216  146.8882  159.7700 H   0  0  0  0  0  0  0  0  0  0  0  0
  145.1010  145.6649  158.5052 H   0  0  0  0  0  0  0  0  0  0  0  0
  147.6123  145.0118  158.7287 H   0  0  0  0  0  0  0  0  0  0  0  0
  148.1990  142.0964  158.7807 H   0  0  0  0  0  0  0  0  0  0  0  0
  148.3631  143.1176  157.3808 H   0  0  0  0  0  0  0  0  0  0  0  0
  149.4927  144.9771  160.2174 H   0  0  0  0  0  0  0  0  0  0  0  0
  151.8871  145.4881  160.6854 H   0  0  0  0  0  0  0  0  0  0  0  0
  153.6527  144.1929  159.4634 H   0  0  0  0  0  0  0  0  0  0  0  0
  152.7188  141.3331  156.5552 H   0  0  0  0  0  0  0  0  0  0  0  0
  152.2613  140.4726  158.0129 H   0  0  0  0  0  0  0  0  0  0  0  0
  152.3343  138.9469  156.0078 H   0  0  0  0  0  0  0  0  0  0  0  0
  150.7326  138.9910  156.7197 H   0  0  0  0  0  0  0  0  0  0  0  0
  149.4306  141.1603  154.1298 H   0  0  0  0  0  0  0  0  0  0  0  0
  149.0062  140.3123  155.6050 H   0  0  0  0  0  0  0  0  0  0  0  0
  149.3088  142.7384  156.0992 H   0  0  0  0  0  0  0  0  0  0  0  0
  150.9050  142.7154  155.3618 H   0  0  0  0  0  0  0  0  0  0  0  0
  1  2  1  0  0  0  0
  1 21  1  0  0  0  0
  1 22  1  0  0  0  0
  1 23  1  0  0  0  0
  2  3  1  0  0  0  0
  2 24  1  0  0  0  0
  2 25  1  0  0  0  0
  3  4  1  0  0  0  0
  3  5  1  0  0  0  0
  3 26  1  0  0  0  0
  4 27  1  0  0  0  0
  4 28  1  0  0  0  0
  4 29  1  0  0  0  0
  5  6  2  0  0  0  0
  5  7  1  0  0  0  0
  7  8  1  0  0  0  0
  7 30  1  0  0  0  0
  8  9  1  0  0  0  0
  8 31  1  0  0  0  0
  8 32  1  0  0  0  0
  9 14  1  0  0  0  0
  9 10  2  0  0  0  0
 10 11  1  0  0  0  0
 10 33  1  0  0  0  0
 11 12  2  0  0  0  0
 11 34  1  0  0  0  0
 12 13  1  0  0  0  0
 12 35  1  0  0  0  0
 13 14  2  0  0  0  0
 14 15  1  0  0  0  0
 15 20  1  0  0  0  0
 15 16  1  0  0  0  0
 16 17  1  0  0  0  0
 16 36  1  0  0  0  0
 16 37  1  0  0  0  0
 17 18  1  0  0  0  0
 17 38  1  0  0  0  0
 17 39  1  0  0  0  0
 18 19  1  0  0  0  0
 19 20  1  0  0  0  0
 19 40  1  0  0  0  0
 19 41  1  0  0  0  0
 20 42  1  0  0  0  0
 20 43  1  0  0  0  0
M  END
> <s_m_source_file>
AV-unprocessed.smi

> <i_m_source_file_index>
349

> <i_lp_mmshare_version>
43012

> <i_f3d_flags>
0

> <s_epik_input>
W0NIM11bQ0gyXVtDQEhdKFtDSDNdKUMoPU8pW05IXVtDSDJdYzFbY0hdW2NIXVtjSF1uYzFOMltDSDJdW0NIMl1PW0NIMl1bQ0gyXTI=

> <s_epik_cmdline>
J2VwaWtfcHl0aG9uJywgJy1waCcsICc3LjAnLCAnLXRuJywgJzgnLCAnLW1hJywgJzIwMCcsICctbWV0YWxfYmluZGluZycsICctaW1hZScsICc8aW5maWxlLm1hZT4nLCAnLW9tYWUnLCAnPG91dGZpbGUubWFlPic=

> <r_lp_tautomer_probability>
1

> <r_epik_Ionization_Penalty>
0.00513869

> <r_epik_Ionization_Penalty_Charging>
0

> <r_epik_Ionization_Penalty_Neutral>
0.00513869

> <r_epik_State_Penalty>
0.00374265

> <r_epik_Charging_Adjusted_Penalty>
0.00374265

> <i_epik_Tot_Q>
0

> <i_epik_Tot_abs_Q>
0

> <r_epik_Metal_State_Penalty>
-0

> <b_epik_Metal_Only>
0

> <s_lp_Force_Field>
OPLS_2005

> <r_lp_Energy>
18.1158

> <b_lp_Chiralities_Consistent>
1

> <s_lp_Variant>
AV-unprocessed.smi:349-1

> <Gold.Version>
5.8.1

> <Gold.Id.Protein>
6NUR|6NUR_protein|mol2

> <Gold.PLP.Fitness>
43.4734

> <Gold.PLP.PLP>
-35.6898

> <Gold.PLP.part.hbond>
-4.0000

> <Gold.PLP.part.metal>
0.0000

> <Gold.PLP.part.buried>
-1.1092

> <Gold.PLP.part.nonpolar>
-30.0990

> <Gold.PLP.part.repulsive>
0.2248

> <Gold.PLP.ligand.clash>
0.0896

> <Gold.PLP.ligand.torsion>
1.3449

> <Gold.PLP.Chemscore.Hbond>
3.4560

> <Gold.PLP.Chemscore.CHOScore>
0.0000

> <Gold.PLP.Chemscore.Metal>
0.0000

> <Gold.Chemscore.Hbonds>
donor molecule, donor type, donor heavy atom, donor atom, acceptor molecule, acceptor atom, score
      L1  H     7    30       P1  8029  0.82
      P1  H  6933  6944       L1     6  0.20
      P1  H  6934  6946       L1     6  1.00
      P1  H  7989  7998       L1    18  0.85

> <Gold.PLP.Chemscore.Internal.Correction>
0.1951

> <Gold.Rescore>
     Score         DG    S(hbond)    S(metal)    S(lipo)     H(rot)  DE(clash)    DE(int)     intcor
     16.33     -19.16       2.05        0.00      94.35       1.64       0.65       2.18       ----

> <Gold.Chemscore.Fitness>
16.3317

> <Gold.Chemscore.DG>
-19.1588

> <Gold.Chemscore.ZeroCoef>
-5.4800

> <Gold.Chemscore.Hbond>
2.0478

> <Gold.Chemscore.Metal>
0.0000

> <Gold.Chemscore.Lipo>
94.3544

> <Gold.Chemscore.Internal_Hbond>
0.0000

> <Gold.Chemscore.DEClash>
0.6461

> <Gold.Chemscore.DEInternal>
2.1811

> <Gold.Chemscore.Rot>
1.6407

> <Gold.Chemscore.Internal.Correction>
   9.000000E+99

> <Gold.Chemscore.Hbonds>
donor molecule, donor type, donor heavy atom, donor atom, acceptor molecule, acceptor atom, score
      L1  H     7    30       P1  8029  0.81
      P1  H  6933  6944       L1     6  0.04
      P1  H  6934  6946       L1     6  0.99
      P1  H  7989  7998       L1    18  0.15

> <Gold.Chemscore.Hbond.Weighted>
-6.8395

> <Gold.Chemscore.Metal.Weighted>
-0.0000

> <Gold.Chemscore.Lipo.Weighted>
-11.0395

> <Gold.Chemscore.Internal_Hbond.Weighted>
0.0000

> <Gold.Chemscore.DEClash.Weighted>
0.6461

> <Gold.Chemscore.DEInternal.Weighted>
2.1811

> <Gold.Chemscore.Rot.Weighted>
4.2001

> <Gold.Chemscore.Internal.Correction.Weighted>
   9.000000E+99

> <Gold.Protein.RotatedTorsions>
[ 6907 6896 6895 6894 ] final   31.78 input  -60.11 | X-H torsion
[ 7974 7965 7964 7962 ] final  167.50 input  175.53 | X-H torsion
[ 8008 7997 7996 7995 ] final -173.78 input   59.86 | X-H torsion
[ 10167 10162 10161 10158 ] final  145.40 input  -65.29 | X-H torsion
[ 10718 10713 10712 10709 ] final -152.68 input   66.30 | X-H torsion
[ 10763 10752 10751 10750 ] final  -85.53 input  -60.55 | X-H torsion
[ 11005 11000 10999 10996 ] final  -50.42 input  -57.11 | X-H torsion

> <Gold.Protein.ActiveResidues>
 VAL166  LYS551  ARG553  GLY616  TRP617  ASP618  TYR619  PRO620  LYS621  CYS622 
 ASP623  PHE694  ASN695  SER759  ASP760  ASP761  ALA762  ILE779  LEU786  VAL792 
 PHE793  MET794  SER795  GLU796  ALA797  LYS798  CYS799  TRP800  GLU811  SER814 

> <Gold.Protein.RotatedAtoms>
  152.0652  134.9569  160.0574 H   0  0  0  0  0  0  0  0  0  0  0  0  # atno 6907 bound_to 6896
  152.0917  133.4199  159.4555 H   0  0  0  0  0  0  0  0  0  0  0  0  # atno 6908 bound_to 6896
  150.6837  134.2784  159.4660 H   0  0  0  0  0  0  0  0  0  0  0  0  # atno 6909 bound_to 6896
  144.7422  139.8770  143.6393 H   0  0  0  0  0  0  0  0  0  0  0  0  # atno 7974 bound_to 7965
  155.9618  140.1146  157.0889 H   0  0  0  0  0  0  0  0  0  0  0  0  # atno 8008 bound_to 7997
  154.4134  140.1180  156.5256 H   0  0  0  0  0  0  0  0  0  0  0  0  # atno 8009 bound_to 7997
  155.6711  140.3473  155.4821 H   0  0  0  0  0  0  0  0  0  0  0  0  # atno 8010 bound_to 7997
  139.4927  144.5904  151.6692 H   0  0  0  0  0  0  0  0  0  0  0  0  # atno 10167 bound_to 10162
  156.4758  130.8280  151.2508 H   0  0  0  0  0  0  0  0  0  0  0  0  # atno 10718 bound_to 10713
  154.6121  135.5482  153.7484 H   0  0  0  0  0  0  0  0  0  0  0  0  # atno 10763 bound_to 10752
  153.0200  135.6392  154.1563 H   0  0  0  0  0  0  0  0  0  0  0  0  # atno 10764 bound_to 10752
  154.1500  135.2903  155.3118 H   0  0  0  0  0  0  0  0  0  0  0  0  # atno 10765 bound_to 10752
  141.0815  133.6652  156.3728 H   0  0  0  0  0  0  0  0  0  0  0  0  # atno 11005 bound_to 11000
  146.1239  139.4261  143.0211 LP  0  0  0  0  0  0  0  0  0  0  0  0  # atno 17320 bound_to 7965
  145.7264  141.0057  143.1375 LP  0  0  0  0  0  0  0  0  0  0  0  0  # atno 17321 bound_to 7965
  140.5530  144.0395  150.6135 LP  0  0  0  0  0  0  0  0  0  0  0  0  # atno 17342 bound_to 10162
  140.3455  143.2994  152.0543 LP  0  0  0  0  0  0  0  0  0  0  0  0  # atno 17343 bound_to 10162
  157.7487  131.0061  150.3140 LP  0  0  0  0  0  0  0  0  0  0  0  0  # atno 17370 bound_to 10713
  156.3572  130.3841  149.7280 LP  0  0  0  0  0  0  0  0  0  0  0  0  # atno 17371 bound_to 10713
  140.5458  134.6076  157.5393 LP  0  0  0  0  0  0  0  0  0  0  0  0  # atno 17394 bound_to 11000
  139.9629  134.7422  156.0199 LP  0  0  0  0  0  0  0  0  0  0  0  0  # atno 17395 bound_to 11000

$$$$
