AV-unprocessed.smi:2169|AV-procd|sdf|8823|dock9
  -GOLD-   2272012 13D 1   1.00000     0.00000
 Structure written by MMmdl.
 45 46  0  0  0  0  0  0  0  0  2 V2000
  151.6324  140.1837  155.4330 C   0  0  0  0  0  0  0  0  0  0  0  0
  152.2678  139.4652  157.0026 S   0  0  0  0  0  0  0  0  0  0  0  0
  153.6830  139.1149  156.8070 O   0  0  0  0  0  0  0  0  0  0  0  0
  151.8843  140.3606  158.1048 O   0  0  0  0  0  0  0  0  0  0  0  0
  151.3730  137.9837  157.1847 N   0  0  0  0  0  0  0  0  0  0  0  0
  149.9506  138.0246  157.5794 C   0  0  0  0  0  0  0  0  0  0  0  0
  149.0181  137.8158  156.3728 C   0  0  0  0  0  0  0  0  0  0  0  0
  149.3684  136.5274  155.6089 C   0  0  0  0  0  0  0  0  0  0  0  0
  148.5309  136.3786  154.4224 N   0  0  0  0  0  0  0  0  0  0  0  0
  147.1959  136.2609  154.4297 C   0  0  0  0  0  0  0  0  0  0  0  0
  146.5055  136.2787  155.4491 O   0  0  0  0  0  0  0  0  0  0  0  0
  146.7013  136.1166  153.1923 N   0  0  0  0  0  0  0  0  0  0  0  0
  145.2871  135.9590  152.8744 C   0  0  0  0  0  0  0  0  0  0  0  0
  145.0647  135.7490  151.3673 C   0  0  0  0  0  0  0  0  0  0  0  0
  145.2334  134.2983  150.9607 C   0  0  0  0  0  0  0  0  0  0  0  0
  144.1607  133.5795  150.3880 C   0  0  0  0  0  0  0  0  0  0  0  0
  144.3498  132.2304  150.0219 C   0  0  0  0  0  0  0  0  0  0  0  0
  145.6073  131.6302  150.2378 C   0  0  0  0  0  0  0  0  0  0  0  0
  146.6098  132.3494  150.7889 N   0  3  0  0  0  0  0  0  0  0  0  0
  146.4691  133.6431  151.1525 C   0  0  0  0  0  0  0  0  0  0  0  0
  150.8475  136.5676  155.1981 C   0  0  0  0  0  0  0  0  0  0  0  0
  151.7638  136.7854  156.4149 C   0  0  0  0  0  0  0  0  0  0  0  0
  152.1471  141.1242  155.2386 H   0  0  0  0  0  0  0  0  0  0  0  0
  150.5648  140.3776  155.5197 H   0  0  0  0  0  0  0  0  0  0  0  0
  151.8228  139.5003  154.6074 H   0  0  0  0  0  0  0  0  0  0  0  0
  149.7754  137.2380  158.3142 H   0  0  0  0  0  0  0  0  0  0  0  0
  149.7212  138.9662  158.0775 H   0  0  0  0  0  0  0  0  0  0  0  0
  147.9851  137.7769  156.7202 H   0  0  0  0  0  0  0  0  0  0  0  0
  149.0796  138.6726  155.7025 H   0  0  0  0  0  0  0  0  0  0  0  0
  149.2161  135.6683  156.2655 H   0  0  0  0  0  0  0  0  0  0  0  0
  149.0059  136.3534  153.5319 H   0  0  0  0  0  0  0  0  0  0  0  0
  147.3475  136.1159  152.4165 H   0  0  0  0  0  0  0  0  0  0  0  0
  144.8704  135.1265  153.4443 H   0  0  0  0  0  0  0  0  0  0  0  0
  144.7635  136.8560  153.2065 H   0  0  0  0  0  0  0  0  0  0  0  0
  144.0669  136.0878  151.0853 H   0  0  0  0  0  0  0  0  0  0  0  0
  145.7673  136.3536  150.7921 H   0  0  0  0  0  0  0  0  0  0  0  0
  143.2030  134.0544  150.2307 H   0  0  0  0  0  0  0  0  0  0  0  0
  143.5413  131.6648  149.5818 H   0  0  0  0  0  0  0  0  0  0  0  0
  145.8395  130.6049  149.9886 H   0  0  0  0  0  0  0  0  0  0  0  0
  147.3423  134.1109  151.5839 H   0  0  0  0  0  0  0  0  0  0  0  0
  151.1207  135.6355  154.7019 H   0  0  0  0  0  0  0  0  0  0  0  0
  151.0085  137.3589  154.4667 H   0  0  0  0  0  0  0  0  0  0  0  0
  152.8038  136.8587  156.0983 H   0  0  0  0  0  0  0  0  0  0  0  0
  151.7044  135.9192  157.0748 H   0  0  0  0  0  0  0  0  0  0  0  0
  147.5120  131.8960  150.9367 H   0  0  0  0  0  0  0  0  0  0  0  0
  1  2  1  0  0  0  0
  1 23  1  0  0  0  0
  1 24  1  0  0  0  0
  1 25  1  0  0  0  0
  2  3  2  0  0  0  0
  2  4  2  0  0  0  0
  2  5  1  0  0  0  0
  5 22  1  0  0  0  0
  5  6  1  0  0  0  0
  6  7  1  0  0  0  0
  6 26  1  0  0  0  0
  6 27  1  0  0  0  0
  7  8  1  0  0  0  0
  7 28  1  0  0  0  0
  7 29  1  0  0  0  0
  8  9  1  0  0  0  0
  8 21  1  0  0  0  0
  8 30  1  0  0  0  0
  9 10  1  0  0  0  0
  9 31  1  0  0  0  0
 10 11  2  0  0  0  0
 10 12  1  0  0  0  0
 12 13  1  0  0  0  0
 12 32  1  0  0  0  0
 13 14  1  0  0  0  0
 13 33  1  0  0  0  0
 13 34  1  0  0  0  0
 14 15  1  0  0  0  0
 14 35  1  0  0  0  0
 14 36  1  0  0  0  0
 15 20  1  0  0  0  0
 15 16  2  0  0  0  0
 16 17  1  0  0  0  0
 16 37  1  0  0  0  0
 17 18  2  0  0  0  0
 17 38  1  0  0  0  0
 18 19  1  0  0  0  0
 18 39  1  0  0  0  0
 19 20  2  0  0  0  0
 19 45  1  0  0  0  0
 20 40  1  0  0  0  0
 21 22  1  0  0  0  0
 21 41  1  0  0  0  0
 21 42  1  0  0  0  0
 22 43  1  0  0  0  0
 22 44  1  0  0  0  0
M  CHG  1  19   1
M  END
> <s_m_source_file>
AV-unprocessed.smi

> <i_m_source_file_index>
2169

> <i_lp_mmshare_version>
43012

> <i_f3d_flags>
0

> <s_epik_input>
W0NIM11TKD1PKSg9TylOMVtDSDJdW0NIMl1bQ0hdKFtDSDJdW0NIMl0xKVtOSF1DKD1PKVtOSF1bQ0gyXVtDSDJdYzJbY0hdW2NIXVtjSF1uW2NIXTI=

> <s_epik_cmdline>
J2VwaWtfcHl0aG9uJywgJy1waCcsICc3LjAnLCAnLXRuJywgJzgnLCAnLW1hJywgJzIwMCcsICctbWV0YWxfYmluZGluZycsICctaW1hZScsICc8aW5maWxlLm1hZT4nLCAnLW9tYWUnLCAnPG91dGZpbGUubWFlPic=

> <r_epik_Ionization_Penalty>
2.21124

> <r_epik_Ionization_Penalty_Charging>
2.21119

> <r_epik_Ionization_Penalty_Neutral>
4.90089e-05

> <r_epik_State_Penalty>
2.35542

> <r_epik_Charging_Adjusted_Penalty>
4.56661

> <i_epik_Tot_Q>
1

> <i_epik_Tot_abs_Q>
1

> <r_epik_Metal_State_Penalty>
2.36951

> <b_epik_Metal_Only>
0

> <s_lp_Force_Field>
OPLS_2005

> <r_lp_Energy>
3.64161

> <b_lp_Chiralities_Consistent>
1

> <s_lp_Variant>
AV-unprocessed.smi:2169-2

> <Gold.Version>
5.8.1

> <Gold.Id.Protein>
6NUR|6NUR_protein|mol2

> <Gold.PLP.Fitness>
43.3586

> <Gold.PLP.PLP>
-31.6225

> <Gold.PLP.part.hbond>
-3.9897

> <Gold.PLP.part.metal>
0.0000

> <Gold.PLP.part.buried>
-5.9981

> <Gold.PLP.part.nonpolar>
-22.3466

> <Gold.PLP.part.repulsive>
0.1058

> <Gold.PLP.ligand.clash>
0.0000

> <Gold.PLP.ligand.torsion>
1.1673

> <Gold.PLP.Chemscore.Hbond>
4.0000

> <Gold.PLP.Chemscore.CHOScore>
0.0000

> <Gold.PLP.Chemscore.Metal>
0.0000

> <Gold.Chemscore.Hbonds>
donor molecule, donor type, donor heavy atom, donor atom, acceptor molecule, acceptor atom, score
      L1  H     9    31       P1  7948  1.00
      L1  H    12    32       P1  7948  0.99
      L1  H    19    45       P1 10747  0.99
      P1  H  7997  8009       L1     3  0.15

> <Gold.PLP.Chemscore.Internal.Correction>
2.0708

> <Gold.Rescore>
     Score         DG    S(hbond)    S(metal)    S(lipo)     H(rot)  DE(clash)    DE(int)     intcor
     21.42     -22.75       3.89        0.00      74.32       1.73       0.07       1.27       ----

> <Gold.Chemscore.Fitness>
21.4172

> <Gold.Chemscore.DG>
-22.7547

> <Gold.Chemscore.ZeroCoef>
-5.4800

> <Gold.Chemscore.Hbond>
3.8944

> <Gold.Chemscore.Metal>
0.0000

> <Gold.Chemscore.Lipo>
74.3204

> <Gold.Chemscore.Internal_Hbond>
0.0000

> <Gold.Chemscore.DEClash>
0.0713

> <Gold.Chemscore.DEInternal>
1.2661

> <Gold.Chemscore.Rot>
1.7297

> <Gold.Chemscore.Internal.Correction>
   9.000000E+99

> <Gold.Chemscore.Hbonds>
donor molecule, donor type, donor heavy atom, donor atom, acceptor molecule, acceptor atom, score
      L1  H     9    31       P1  7948  0.95
      L1  H    12    32       P1  7948  0.94
      L1  H    19    45       P1 10747  0.94
      P1  H  7997  8009       L1     3  0.14

> <Gold.Chemscore.Hbond.Weighted>
-13.0071

> <Gold.Chemscore.Metal.Weighted>
-0.0000

> <Gold.Chemscore.Lipo.Weighted>
-8.6955

> <Gold.Chemscore.Internal_Hbond.Weighted>
0.0000

> <Gold.Chemscore.DEClash.Weighted>
0.0713

> <Gold.Chemscore.DEInternal.Weighted>
1.2661

> <Gold.Chemscore.Rot.Weighted>
4.4280

> <Gold.Chemscore.Internal.Correction.Weighted>
   9.000000E+99

> <Gold.Protein.RotatedTorsions>
[ 6907 6896 6895 6894 ] final  -56.94 input  -60.11 | X-H torsion
[ 7974 7965 7964 7962 ] final -169.21 input  175.53 | X-H torsion
[ 8008 7997 7996 7995 ] final  178.87 input   59.86 | X-H torsion
[ 10167 10162 10161 10158 ] final -114.51 input  -65.29 | X-H torsion
[ 10718 10713 10712 10709 ] final -100.40 input   66.30 | X-H torsion
[ 10763 10752 10751 10750 ] final   25.26 input  -60.55 | X-H torsion
[ 11005 11000 10999 10996 ] final  130.77 input  -57.11 | X-H torsion

> <Gold.Protein.ActiveResidues>
 VAL166  LYS551  ARG553  GLY616  TRP617  ASP618  TYR619  PRO620  LYS621  CYS622 
 ASP623  PHE694  ASN695  SER759  ASP760  ASP761  ALA762  ILE779  LEU786  VAL792 
 PHE793  MET794  SER795  GLU796  ALA797  LYS798  CYS799  TRP800  GLU811  SER814 

> <Gold.Protein.RotatedAtoms>
  150.8126  134.7290  159.6701 H   0  0  0  0  0  0  0  0  0  0  0  0  # atno 6907 bound_to 6896
  152.4246  134.5889  159.9978 H   0  0  0  0  0  0  0  0  0  0  0  0  # atno 6908 bound_to 6896
  151.6094  133.3311  159.3100 H   0  0  0  0  0  0  0  0  0  0  0  0  # atno 6909 bound_to 6896
  144.7189  140.2255  143.6311 H   0  0  0  0  0  0  0  0  0  0  0  0  # atno 7974 bound_to 7965
  156.0498  140.1323  157.0062 H   0  0  0  0  0  0  0  0  0  0  0  0  # atno 8008 bound_to 7997
  154.4430  140.1013  156.6431 H   0  0  0  0  0  0  0  0  0  0  0  0  # atno 8009 bound_to 7997
  155.5540  140.3463  155.4477 H   0  0  0  0  0  0  0  0  0  0  0  0  # atno 8010 bound_to 7997
  140.1002  143.4620  152.1817 H   0  0  0  0  0  0  0  0  0  0  0  0  # atno 10167 bound_to 10162
  156.0162  130.5326  150.6811 H   0  0  0  0  0  0  0  0  0  0  0  0  # atno 10718 bound_to 10713
  153.0704  135.6587  154.0260 H   0  0  0  0  0  0  0  0  0  0  0  0  # atno 10763 bound_to 10752
  153.9907  135.2946  155.3413 H   0  0  0  0  0  0  0  0  0  0  0  0  # atno 10764 bound_to 10752
  154.7077  135.5218  153.8689 H   0  0  0  0  0  0  0  0  0  0  0  0  # atno 10765 bound_to 10752
  139.9691  134.9582  156.9341 H   0  0  0  0  0  0  0  0  0  0  0  0  # atno 11005 bound_to 11000
  145.8461  139.2153  143.1799 LP  0  0  0  0  0  0  0  0  0  0  0  0  # atno 17320 bound_to 7965
  146.0303  140.8264  142.9879 LP  0  0  0  0  0  0  0  0  0  0  0  0  # atno 17321 bound_to 7965
  139.5675  144.7444  151.3981 LP  0  0  0  0  0  0  0  0  0  0  0  0  # atno 17342 bound_to 10162
  140.6982  143.7697  150.7360 LP  0  0  0  0  0  0  0  0  0  0  0  0  # atno 17343 bound_to 10162
  157.4513  131.0873  151.0843 LP  0  0  0  0  0  0  0  0  0  0  0  0  # atno 17370 bound_to 10713
  157.1358  130.6121  149.5541 LP  0  0  0  0  0  0  0  0  0  0  0  0  # atno 17371 bound_to 10713
  140.5332  134.0793  155.7321 LP  0  0  0  0  0  0  0  0  0  0  0  0  # atno 17394 bound_to 11000
  141.1371  133.9203  157.2410 LP  0  0  0  0  0  0  0  0  0  0  0  0  # atno 17395 bound_to 11000

$$$$
