AV-unprocessed.smi:956|AV-procd|sdf|4264|dock4
  -GOLD-   22720 2173D 1   1.00000     0.00000
 Structure written by MMmdl.
 42 43  0  0  0  0  0  0  0  0  1 V2000
  145.3010  138.6390  156.2044 C   0  0  0  0  0  0  0  0  0  0  0  0
  146.9484  139.2879  155.6529 S   0  0  1  0  0  0  0  0  0  0  0  0
  147.1833  138.7771  154.2302 O   0  0  0  0  0  0  0  0  0  0  0  0
  146.3673  141.0053  155.4267 C   0  0  0  0  0  0  0  0  0  0  0  0
  145.2943  141.5149  156.0391 N   0  0  0  0  0  0  0  0  0  0  0  0
  145.2156  142.8203  155.5920 N   0  0  0  0  0  0  0  0  0  0  0  0
  146.2484  142.9561  154.7575 C   0  0  0  0  0  0  0  0  0  0  0  0
  147.0109  141.8607  154.6106 N   0  0  0  0  0  0  0  0  0  0  0  0
  148.1884  141.6780  153.7806 C   0  0  0  0  0  0  0  0  0  0  0  0
  149.3903  141.2639  154.6290 C   0  0  0  0  0  0  0  0  0  0  0  0
  149.9926  140.2215  154.3741 O   0  0  0  0  0  0  0  0  0  0  0  0
  149.7226  142.0819  155.6380 N   0  0  0  0  0  0  0  0  0  0  0  0
  150.8176  141.8402  156.5660 C   0  0  0  0  0  0  0  0  0  0  0  0
  151.5176  143.1598  156.9286 C   0  0  0  0  0  0  0  0  0  0  0  0
  151.3311  143.5870  158.3993 C   0  0  0  0  0  0  0  0  0  0  0  0
  151.6608  145.0841  158.5786 C   0  0  0  0  0  0  0  0  0  0  0  0
  151.4763  145.5422  160.0344 C   0  0  0  0  0  0  0  0  0  0  0  0
  152.3189  144.6912  160.9957 C   0  0  0  0  0  0  0  0  0  0  0  0
  151.9959  143.1986  160.8339 C   0  0  0  0  0  0  0  0  0  0  0  0
  152.1775  142.7412  159.3770 C   0  0  0  0  0  0  0  0  0  0  0  0
  144.7620  139.3867  156.7868 H   0  0  0  0  0  0  0  0  0  0  0  0
  145.4372  137.7539  156.8250 H   0  0  0  0  0  0  0  0  0  0  0  0
  144.6938  138.3667  155.3410 H   0  0  0  0  0  0  0  0  0  0  0  0
  146.4526  143.8803  154.2371 H   0  0  0  0  0  0  0  0  0  0  0  0
  147.9793  140.9066  153.0382 H   0  0  0  0  0  0  0  0  0  0  0  0
  148.3984  142.5975  153.2332 H   0  0  0  0  0  0  0  0  0  0  0  0
  149.1733  142.9168  155.7820 H   0  0  0  0  0  0  0  0  0  0  0  0
  150.4265  141.3626  157.4656 H   0  0  0  0  0  0  0  0  0  0  0  0
  151.5202  141.1443  156.1070 H   0  0  0  0  0  0  0  0  0  0  0  0
  152.5817  143.0878  156.6994 H   0  0  0  0  0  0  0  0  0  0  0  0
  151.1228  143.9454  156.2822 H   0  0  0  0  0  0  0  0  0  0  0  0
  150.2794  143.4498  158.6558 H   0  0  0  0  0  0  0  0  0  0  0  0
  152.6888  145.2744  158.2670 H   0  0  0  0  0  0  0  0  0  0  0  0
  151.0265  145.6872  157.9281 H   0  0  0  0  0  0  0  0  0  0  0  0
  151.7510  146.5928  160.1309 H   0  0  0  0  0  0  0  0  0  0  0  0
  150.4232  145.4717  160.3099 H   0  0  0  0  0  0  0  0  0  0  0  0
  153.3789  144.8598  160.8014 H   0  0  0  0  0  0  0  0  0  0  0  0
  152.1386  145.0027  162.0249 H   0  0  0  0  0  0  0  0  0  0  0  0
  152.6343  142.6074  161.4909 H   0  0  0  0  0  0  0  0  0  0  0  0
  150.9692  143.0105  161.1504 H   0  0  0  0  0  0  0  0  0  0  0  0
  151.9067  141.6881  159.3065 H   0  0  0  0  0  0  0  0  0  0  0  0
  153.2316  142.8074  159.1045 H   0  0  0  0  0  0  0  0  0  0  0  0
  1  2  1  0  0  0  0
  1 21  1  0  0  0  0
  1 22  1  0  0  0  0
  1 23  1  0  0  0  0
  2  3  2  0  0  0  0
  2  4  1  0  0  0  0
  4  8  1  0  0  0  0
  4  5  2  0  0  0  0
  5  6  1  0  0  0  0
  6  7  2  0  0  0  0
  7  8  1  0  0  0  0
  7 24  1  0  0  0  0
  8  9  1  0  0  0  0
  9 10  1  0  0  0  0
  9 25  1  0  0  0  0
  9 26  1  0  0  0  0
 10 11  2  0  0  0  0
 10 12  1  0  0  0  0
 12 13  1  0  0  0  0
 12 27  1  0  0  0  0
 13 14  1  0  0  0  0
 13 28  1  0  0  0  0
 13 29  1  0  0  0  0
 14 15  1  0  0  0  0
 14 30  1  0  0  0  0
 14 31  1  0  0  0  0
 15 20  1  0  0  0  0
 15 16  1  0  0  0  0
 15 32  1  0  0  0  0
 16 17  1  0  0  0  0
 16 33  1  0  0  0  0
 16 34  1  0  0  0  0
 17 18  1  0  0  0  0
 17 35  1  0  0  0  0
 17 36  1  0  0  0  0
 18 19  1  0  0  0  0
 18 37  1  0  0  0  0
 18 38  1  0  0  0  0
 19 20  1  0  0  0  0
 19 39  1  0  0  0  0
 19 40  1  0  0  0  0
 20 41  1  0  0  0  0
 20 42  1  0  0  0  0
M  END
> <s_m_source_file>
AV-unprocessed.smi

> <i_m_source_file_index>
956

> <i_lp_mmshare_version>
43012

> <i_f3d_flags>
0

> <s_epik_input>
W0NIM11bU0BdKD1PKWMxbm5bY0hdbjFbQ0gyXUMoPU8pW05IXVtDSDJdW0NIMl1bQ0hdMltDSDJdW0NIMl1bQ0gyXVtDSDJdW0NIMl0y

> <s_epik_cmdline>
J2VwaWtfcHl0aG9uJywgJy1waCcsICc3LjAnLCAnLXRuJywgJzgnLCAnLW1hJywgJzIwMCcsICctbWV0YWxfYmluZGluZycsICctaW1hZScsICc8aW5maWxlLm1hZT4nLCAnLW9tYWUnLCAnPG91dGZpbGUubWFlPic=

> <r_lp_tautomer_probability>
1

> <r_epik_Ionization_Penalty>
7.32521e-08

> <r_epik_Ionization_Penalty_Charging>
0

> <r_epik_Ionization_Penalty_Neutral>
7.32521e-08

> <r_epik_State_Penalty>
-0

> <r_epik_Charging_Adjusted_Penalty>
0

> <i_epik_Tot_Q>
0

> <i_epik_Tot_abs_Q>
0

> <r_epik_Metal_State_Penalty>
-0

> <b_epik_Metal_Only>
0

> <s_lp_Force_Field>
OPLS_2005

> <r_lp_Energy>
10.1233

> <b_lp_Chiralities_Consistent>
1

> <s_lp_Variant>
AV-unprocessed.smi:956-2

> <Gold.Version>
5.8.1

> <Gold.Id.Protein>
6NUR|6NUR_protein|mol2

> <Gold.PLP.Fitness>
42.9420

> <Gold.PLP.PLP>
-38.3254

> <Gold.PLP.part.hbond>
-2.0000

> <Gold.PLP.part.metal>
0.0000

> <Gold.PLP.part.buried>
-5.4369

> <Gold.PLP.part.nonpolar>
-30.5110

> <Gold.PLP.part.repulsive>
0.5724

> <Gold.PLP.ligand.clash>
0.0000

> <Gold.PLP.ligand.torsion>
1.1911

> <Gold.PLP.Chemscore.Hbond>
1.9680

> <Gold.PLP.Chemscore.CHOScore>
0.0018

> <Gold.PLP.Chemscore.Metal>
0.0000

> <Gold.Chemscore.Hbonds>
donor molecule, donor type, donor heavy atom, donor atom, acceptor molecule, acceptor atom, score
      L1  H    12    27       P1  8028  1.00
      P1  H  7989  7998       L1    11  0.96

> <Gold.PLP.Chemscore.Internal.Correction>
1.0896

> <Gold.Rescore>
     Score         DG    S(hbond)    S(metal)    S(lipo)     H(rot)  DE(clash)    DE(int)     intcor
     14.77     -16.28       1.58        0.00      96.53       2.26       0.43       1.07       ----

> <Gold.Chemscore.Fitness>
14.7714

> <Gold.Chemscore.DG>
-16.2761

> <Gold.Chemscore.ZeroCoef>
-5.4800

> <Gold.Chemscore.Hbond>
1.5795

> <Gold.Chemscore.Metal>
0.0000

> <Gold.Chemscore.Lipo>
96.5326

> <Gold.Chemscore.Internal_Hbond>
0.0000

> <Gold.Chemscore.DEClash>
0.4321

> <Gold.Chemscore.DEInternal>
1.0726

> <Gold.Chemscore.Rot>
2.2554

> <Gold.Chemscore.Internal.Correction>
   9.000000E+99

> <Gold.Chemscore.Hbonds>
donor molecule, donor type, donor heavy atom, donor atom, acceptor molecule, acceptor atom, score
      L1  H    12    27       P1  8028  0.97
      P1  H  7989  7998       L1    11  0.32

> <Gold.Chemscore.Hbond.Weighted>
-5.2756

> <Gold.Chemscore.Metal.Weighted>
-0.0000

> <Gold.Chemscore.Lipo.Weighted>
-11.2943

> <Gold.Chemscore.Internal_Hbond.Weighted>
0.0000

> <Gold.Chemscore.DEClash.Weighted>
0.4321

> <Gold.Chemscore.DEInternal.Weighted>
1.0726

> <Gold.Chemscore.Rot.Weighted>
5.7738

> <Gold.Chemscore.Internal.Correction.Weighted>
   9.000000E+99

> <Gold.Protein.RotatedTorsions>
[ 6907 6896 6895 6894 ] final  132.50 input  -60.11 | X-H torsion
[ 7974 7965 7964 7962 ] final -173.73 input  175.53 | X-H torsion
[ 8008 7997 7996 7995 ] final  -83.71 input   59.86 | X-H torsion
[ 10167 10162 10161 10158 ] final  -30.28 input  -65.29 | X-H torsion
[ 10718 10713 10712 10709 ] final  154.02 input   66.30 | X-H torsion
[ 10763 10752 10751 10750 ] final   46.04 input  -60.55 | X-H torsion
[ 11005 11000 10999 10996 ] final -142.10 input  -57.11 | X-H torsion

> <Gold.Protein.ActiveResidues>
 VAL166  LYS551  ARG553  GLY616  TRP617  ASP618  TYR619  PRO620  LYS621  CYS622 
 ASP623  PHE694  ASN695  SER759  ASP760  ASP761  ALA762  ILE779  LEU786  VAL792 
 PHE793  MET794  SER795  GLU796  ALA797  LYS798  CYS799  TRP800  GLU811  SER814 

> <Gold.Protein.RotatedAtoms>
  152.3317  133.5966  159.5814 H   0  0  0  0  0  0  0  0  0  0  0  0  # atno 6907 bound_to 6896
  150.7427  133.9857  159.3599 H   0  0  0  0  0  0  0  0  0  0  0  0  # atno 6908 bound_to 6896
  151.7731  135.0782  160.0414 H   0  0  0  0  0  0  0  0  0  0  0  0  # atno 6909 bound_to 6896
  144.7136  140.1578  143.6378 H   0  0  0  0  0  0  0  0  0  0  0  0  # atno 7974 bound_to 7965
  154.6220  140.0615  156.9626 H   0  0  0  0  0  0  0  0  0  0  0  0  # atno 8008 bound_to 7997
  155.1803  140.3298  155.4358 H   0  0  0  0  0  0  0  0  0  0  0  0  # atno 8009 bound_to 7997
  156.2436  140.1899  156.6900 H   0  0  0  0  0  0  0  0  0  0  0  0  # atno 8010 bound_to 7997
  140.7251  143.3861  151.1513 H   0  0  0  0  0  0  0  0  0  0  0  0  # atno 10167 bound_to 10162
  157.2372  131.0751  151.1816 H   0  0  0  0  0  0  0  0  0  0  0  0  # atno 10718 bound_to 10713
  152.9816  135.6020  154.3535 H   0  0  0  0  0  0  0  0  0  0  0  0  # atno 10763 bound_to 10752
  154.3222  135.2769  155.2515 H   0  0  0  0  0  0  0  0  0  0  0  0  # atno 10764 bound_to 10752
  154.4677  135.5950  153.6355 H   0  0  0  0  0  0  0  0  0  0  0  0  # atno 10765 bound_to 10752
  140.8258  134.2576  157.4879 H   0  0  0  0  0  0  0  0  0  0  0  0  # atno 11005 bound_to 11000
  145.9058  139.2457  143.1467 LP  0  0  0  0  0  0  0  0  0  0  0  0  # atno 17320 bound_to 7965
  145.9766  140.8717  143.0136 LP  0  0  0  0  0  0  0  0  0  0  0  0  # atno 17321 bound_to 7965
  139.7458  143.8854  152.3063 LP  0  0  0  0  0  0  0  0  0  0  0  0  # atno 17342 bound_to 10162
  139.8691  144.7078  150.9009 LP  0  0  0  0  0  0  0  0  0  0  0  0  # atno 17343 bound_to 10162
  157.3417  130.7037  149.6386 LP  0  0  0  0  0  0  0  0  0  0  0  0  # atno 17370 bound_to 10713
  155.9672  130.4278  150.4759 LP  0  0  0  0  0  0  0  0  0  0  0  0  # atno 17371 bound_to 10713
  139.8706  134.9560  156.4223 LP  0  0  0  0  0  0  0  0  0  0  0  0  # atno 17394 bound_to 11000
  140.9050  133.7752  155.9725 LP  0  0  0  0  0  0  0  0  0  0  0  0  # atno 17395 bound_to 11000

$$$$
