AV-unprocessed.smi:155|AV-procd|sdf|1272|dock6
  -GOLD-   2262018533D 1   1.00000     0.00000
 Structure written by MMmdl.
 63 66  0  0  0  0  0  0  0  0  2 V2000
  145.8873  132.1067  150.0824 C   0  0  0  0  0  0  0  0  0  0  0  0
  145.2315  131.9269  151.3709 N   0  0  0  0  0  0  0  0  0  0  0  0
  146.0143  130.9755  152.1527 C   0  0  0  0  0  0  0  0  0  0  0  0
  145.1309  133.2238  152.0410 C   0  0  0  0  0  0  0  0  0  0  0  0
  146.5126  133.8693  152.2754 C   0  0  0  0  0  0  0  0  0  0  0  0
  146.4140  135.3447  152.4068 N   0  3  1  0  0  0  0  0  0  0  0  0
  145.8231  135.9787  151.1999 C   0  0  0  0  0  0  0  0  0  0  0  0
  145.5441  137.4891  151.3337 C   0  0  0  0  0  0  0  0  0  0  0  0
  146.6214  138.2793  152.0926 C   0  0  0  0  0  0  0  0  0  0  0  0
  146.4021  138.2336  153.5371 N   0  0  0  0  0  0  0  0  0  0  0  0
  146.9213  139.2909  154.1956 C   0  0  0  0  0  0  0  0  0  0  0  0
  146.0582  140.2407  154.6313 N   0  0  0  0  0  0  0  0  0  0  0  0
  146.5204  141.3076  155.2914 C   0  0  0  0  0  0  0  0  0  0  0  0
  147.7803  141.6075  155.6176 N   0  0  0  0  0  0  0  0  0  0  0  0
  148.6468  140.6460  155.1870 C   0  0  0  0  0  0  0  0  0  0  0  0
  148.3058  139.4633  154.4740 C   0  0  0  0  0  0  0  0  0  0  0  0
  149.4497  138.7190  154.2106 N   0  0  0  0  0  0  0  0  0  0  0  0
  150.4144  139.4251  154.7357 C   0  0  0  0  0  0  0  0  0  0  0  0
  150.0206  140.5986  155.3385 N   0  0  0  0  0  0  0  0  0  0  0  0
  150.8748  141.5714  155.9963 C   0  0  0  0  0  0  0  0  0  0  0  0
  150.4598  141.8257  157.4585 C   0  0  2  0  0  0  0  0  0  0  0  0
  149.2182  142.5043  157.4771 O   0  0  0  0  0  0  0  0  0  0  0  0
  151.5001  142.6670  158.2205 C   0  0  1  0  0  0  0  0  0  0  0  0
  151.6262  144.1128  157.7370 C   0  0  0  0  0  0  0  0  0  0  0  0
  152.1609  144.8520  158.9537 C   0  0  0  0  0  0  0  0  0  0  0  0
  151.9031  143.8904  160.1169 C   0  0  0  0  0  0  0  0  0  0  0  0
  151.1036  142.8505  159.5708 O   0  0  0  0  0  0  0  0  0  0  0  0
  146.6238  136.9828  154.2576 C   0  0  0  0  0  0  0  0  0  0  0  0
  145.8240  135.7982  153.6919 C   0  0  0  0  0  0  0  0  0  0  0  0
  145.3122  132.7836  149.4491 H   0  0  0  0  0  0  0  0  0  0  0  0
  145.9686  131.1554  149.5552 H   0  0  0  0  0  0  0  0  0  0  0  0
  146.8906  132.5190  150.1998 H   0  0  0  0  0  0  0  0  0  0  0  0
  145.5376  130.7492  153.1055 H   0  0  0  0  0  0  0  0  0  0  0  0
  147.0174  131.3549  152.3535 H   0  0  0  0  0  0  0  0  0  0  0  0
  146.1122  130.0321  151.6143 H   0  0  0  0  0  0  0  0  0  0  0  0
  144.4995  133.8913  151.4525 H   0  0  0  0  0  0  0  0  0  0  0  0
  144.6255  133.0979  152.9988 H   0  0  0  0  0  0  0  0  0  0  0  0
  146.9807  133.4397  153.1608 H   0  0  0  0  0  0  0  0  0  0  0  0
  147.1829  133.6298  151.4486 H   0  0  0  0  0  0  0  0  0  0  0  0
  146.5143  135.8177  150.3715 H   0  0  0  0  0  0  0  0  0  0  0  0
  144.8960  135.4685  150.9339 H   0  0  0  0  0  0  0  0  0  0  0  0
  145.4505  137.8996  150.3277 H   0  0  0  0  0  0  0  0  0  0  0  0
  144.5722  137.6553  151.8008 H   0  0  0  0  0  0  0  0  0  0  0  0
  147.6171  137.9111  151.8422 H   0  0  0  0  0  0  0  0  0  0  0  0
  146.5825  139.3198  151.7654 H   0  0  0  0  0  0  0  0  0  0  0  0
  145.7743  142.0239  155.6032 H   0  0  0  0  0  0  0  0  0  0  0  0
  151.4472  139.1096  154.6947 H   0  0  0  0  0  0  0  0  0  0  0  0
  151.9010  141.2050  155.9512 H   0  0  0  0  0  0  0  0  0  0  0  0
  150.8505  142.5005  155.4250 H   0  0  0  0  0  0  0  0  0  0  0  0
  150.3276  140.8703  157.9682 H   0  0  0  0  0  0  0  0  0  0  0  0
  149.1587  143.0382  156.6997 H   0  0  0  0  0  0  0  0  0  0  0  0
  152.4771  142.1796  158.2016 H   0  0  0  0  0  0  0  0  0  0  0  0
  152.2727  144.2101  156.8644 H   0  0  0  0  0  0  0  0  0  0  0  0
  150.6446  144.5086  157.4734 H   0  0  0  0  0  0  0  0  0  0  0  0
  153.2272  145.0584  158.8570 H   0  0  0  0  0  0  0  0  0  0  0  0
  151.6463  145.8033  159.0911 H   0  0  0  0  0  0  0  0  0  0  0  0
  152.8409  143.4683  160.4810 H   0  0  0  0  0  0  0  0  0  0  0  0
  151.3987  144.3720  160.9549 H   0  0  0  0  0  0  0  0  0  0  0  0
  147.6887  136.7447  154.2664 H   0  0  0  0  0  0  0  0  0  0  0  0
  146.3326  137.1298  155.2992 H   0  0  0  0  0  0  0  0  0  0  0  0
  144.7637  136.0329  153.5866 H   0  0  0  0  0  0  0  0  0  0  0  0
  145.8710  134.9941  154.4262 H   0  0  0  0  0  0  0  0  0  0  0  0
  147.3727  135.6631  152.4294 H   0  0  0  0  0  0  0  0  0  0  0  0
  1  2  1  0  0  0  0
  1 30  1  0  0  0  0
  1 31  1  0  0  0  0
  1 32  1  0  0  0  0
  2  3  1  0  0  0  0
  2  4  1  0  0  0  0
  3 33  1  0  0  0  0
  3 34  1  0  0  0  0
  3 35  1  0  0  0  0
  4  5  1  0  0  0  0
  4 36  1  0  0  0  0
  4 37  1  0  0  0  0
  5  6  1  0  0  0  0
  5 38  1  0  0  0  0
  5 39  1  0  0  0  0
  6 29  1  0  0  0  0
  6  7  1  0  0  0  0
  6 63  1  0  0  0  0
  7  8  1  0  0  0  0
  7 40  1  0  0  0  0
  7 41  1  0  0  0  0
  8  9  1  0  0  0  0
  8 42  1  0  0  0  0
  8 43  1  0  0  0  0
  9 10  1  0  0  0  0
  9 44  1  0  0  0  0
  9 45  1  0  0  0  0
 10 11  1  0  0  0  0
 10 28  1  0  0  0  0
 11 16  1  0  0  0  0
 11 12  2  0  0  0  0
 12 13  1  0  0  0  0
 13 14  2  0  0  0  0
 13 46  1  0  0  0  0
 14 15  1  0  0  0  0
 15 19  1  0  0  0  0
 15 16  2  0  0  0  0
 16 17  1  0  0  0  0
 17 18  2  0  0  0  0
 18 19  1  0  0  0  0
 18 47  1  0  0  0  0
 19 20  1  0  0  0  0
 20 21  1  0  0  0  0
 20 48  1  0  0  0  0
 20 49  1  0  0  0  0
 21 22  1  0  0  0  0
 21 23  1  0  0  0  0
 21 50  1  0  0  0  0
 22 51  1  0  0  0  0
 23 27  1  0  0  0  0
 23 24  1  0  0  0  0
 23 52  1  0  0  0  0
 24 25  1  0  0  0  0
 24 53  1  0  0  0  0
 24 54  1  0  0  0  0
 25 26  1  0  0  0  0
 25 55  1  0  0  0  0
 25 56  1  0  0  0  0
 26 27  1  0  0  0  0
 26 57  1  0  0  0  0
 26 58  1  0  0  0  0
 28 29  1  0  0  0  0
 28 59  1  0  0  0  0
 28 60  1  0  0  0  0
 29 61  1  0  0  0  0
 29 62  1  0  0  0  0
M  CHG  1   6   1
M  END
> <s_m_source_file>
AV-unprocessed.smi

> <i_m_source_file_index>
155

> <i_lp_mmshare_version>
43012

> <i_f3d_flags>
0

> <s_epik_input>
W0NIM11OKFtDSDNdKVtDSDJdW0NIMl1OMVtDSDJdW0NIMl1bQ0gyXU4oW0NIMl1bQ0gyXTEpYyhuW2NIXW4yKWMoYzIzKW5bY0hdbjNbQ0gyXVtDQEhdKFtPSF0pW0NAQEhdNFtDSDJdW0NIMl1bQ0gyXU80

> <s_epik_cmdline>
J2VwaWtfcHl0aG9uJywgJy1waCcsICc3LjAnLCAnLXRuJywgJzgnLCAnLW1hJywgJzIwMCcsICctbWV0YWxfYmluZGluZycsICctaW1hZScsICc8aW5maWxlLm1hZT4nLCAnLW9tYWUnLCAnPG91dGZpbGUubWFlPic=

> <r_epik_Ionization_Penalty>
0.0619615

> <r_epik_Ionization_Penalty_Charging>
0.0161638

> <r_epik_Ionization_Penalty_Neutral>
0.0457976

> <r_epik_State_Penalty>
0.403408

> <r_epik_Charging_Adjusted_Penalty>
0.419572

> <i_epik_Tot_Q>
1

> <i_epik_Tot_abs_Q>
1

> <r_epik_Metal_State_Penalty>
0.404222

> <b_epik_Metal_Only>
0

> <s_lp_Force_Field>
OPLS_2005

> <r_lp_Energy>
54.952

> <b_lp_Chiralities_Consistent>
1

> <s_lp_Variant>
AV-unprocessed.smi:155-6

> <Gold.Version>
5.8.1

> <Gold.Id.Protein>
6NUR|6NUR_protein|mol2

> <Gold.PLP.Fitness>
57.7263

> <Gold.PLP.PLP>
-49.1556

> <Gold.PLP.part.hbond>
-2.3952

> <Gold.PLP.part.metal>
0.0000

> <Gold.PLP.part.buried>
-0.5096

> <Gold.PLP.part.nonpolar>
-48.4667

> <Gold.PLP.part.repulsive>
1.1899

> <Gold.PLP.ligand.clash>
0.0000

> <Gold.PLP.ligand.torsion>
0.4625

> <Gold.PLP.Chemscore.Hbond>
3.0000

> <Gold.PLP.Chemscore.CHOScore>
0.0000

> <Gold.PLP.Chemscore.Metal>
0.0000

> <Gold.Chemscore.Hbonds>
donor molecule, donor type, donor heavy atom, donor atom, acceptor molecule, acceptor atom, score
      L1  H     6    63       P1  7948  2.00
      L1  H    22    51       P1  8028  1.00

> <Gold.PLP.Chemscore.Internal.Correction>
0.4956

> <Gold.Rescore>
     Score         DG    S(hbond)    S(metal)    S(lipo)     H(rot)  DE(clash)    DE(int)     intcor
     16.62     -19.34       1.97        0.00     125.79       2.91       2.05       0.67       ----

> <Gold.Chemscore.Fitness>
16.6157

> <Gold.Chemscore.DG>
-19.3366

> <Gold.Chemscore.ZeroCoef>
-5.4800

> <Gold.Chemscore.Hbond>
1.9718

> <Gold.Chemscore.Metal>
0.0000

> <Gold.Chemscore.Lipo>
125.7923

> <Gold.Chemscore.Internal_Hbond>
0.0000

> <Gold.Chemscore.DEClash>
2.0530

> <Gold.Chemscore.DEInternal>
0.6680

> <Gold.Chemscore.Rot>
2.9090

> <Gold.Chemscore.Internal.Correction>
   9.000000E+99

> <Gold.Chemscore.Hbonds>
donor molecule, donor type, donor heavy atom, donor atom, acceptor molecule, acceptor atom, score
      L1  H     6    63       P1  7948  0.99
      L1  H    22    51       P1  8028  0.94

> <Gold.Chemscore.Hbond.Weighted>
-6.5860

> <Gold.Chemscore.Metal.Weighted>
-0.0000

> <Gold.Chemscore.Lipo.Weighted>
-14.7177

> <Gold.Chemscore.Internal_Hbond.Weighted>
0.0000

> <Gold.Chemscore.DEClash.Weighted>
2.0530

> <Gold.Chemscore.DEInternal.Weighted>
0.6680

> <Gold.Chemscore.Rot.Weighted>
7.4470

> <Gold.Chemscore.Internal.Correction.Weighted>
   9.000000E+99

> <Gold.Protein.RotatedTorsions>
[ 6907 6896 6895 6894 ] final   49.92 input  -60.11 | X-H torsion
[ 7974 7965 7964 7962 ] final   86.60 input  175.53 | X-H torsion
[ 8008 7997 7996 7995 ] final   25.30 input   59.86 | X-H torsion
[ 10167 10162 10161 10158 ] final  147.92 input  -65.29 | X-H torsion
[ 10718 10713 10712 10709 ] final   -0.87 input   66.30 | X-H torsion
[ 10763 10752 10751 10750 ] final -156.05 input  -60.55 | X-H torsion
[ 11005 11000 10999 10996 ] final -101.20 input  -57.11 | X-H torsion

> <Gold.Protein.ActiveResidues>
 VAL166  LYS551  ARG553  GLY616  TRP617  ASP618  TYR619  PRO620  LYS621  CYS622 
 ASP623  PHE694  ASN695  SER759  ASP760  ASP761  ALA762  ILE779  LEU786  VAL792 
 PHE793  MET794  SER795  GLU796  ALA797  LYS798  CYS799  TRP800  GLU811  SER814 

> <Gold.Protein.RotatedAtoms>
  152.2961  134.7666  160.0367 H   0  0  0  0  0  0  0  0  0  0  0  0  # atno 6907 bound_to 6896
  151.8195  133.3387  159.3588 H   0  0  0  0  0  0  0  0  0  0  0  0  # atno 6908 bound_to 6896
  150.7252  134.5516  159.5842 H   0  0  0  0  0  0  0  0  0  0  0  0  # atno 6909 bound_to 6896
  145.5700  139.2313  143.2411 H   0  0  0  0  0  0  0  0  0  0  0  0  # atno 7974 bound_to 7965
  155.0097  140.3135  155.4835 H   0  0  0  0  0  0  0  0  0  0  0  0  # atno 8008 bound_to 7997
  156.2911  140.2217  156.5152 H   0  0  0  0  0  0  0  0  0  0  0  0  # atno 8009 bound_to 7997
  154.7546  140.0463  157.0910 H   0  0  0  0  0  0  0  0  0  0  0  0  # atno 8010 bound_to 7997
  139.4882  144.5719  151.7039 H   0  0  0  0  0  0  0  0  0  0  0  0  # atno 10167 bound_to 10162
  156.8139  130.5434  149.5705 H   0  0  0  0  0  0  0  0  0  0  0  0  # atno 10718 bound_to 10713
  154.7742  135.3154  154.8127 H   0  0  0  0  0  0  0  0  0  0  0  0  # atno 10763 bound_to 10752
  153.8855  135.6830  153.4768 H   0  0  0  0  0  0  0  0  0  0  0  0  # atno 10764 bound_to 10752
  153.1362  135.4759  154.9361 H   0  0  0  0  0  0  0  0  0  0  0  0  # atno 10765 bound_to 10752
  141.1240  133.8459  157.1201 H   0  0  0  0  0  0  0  0  0  0  0  0  # atno 11005 bound_to 11000
  146.1791  140.6526  142.9198 LP  0  0  0  0  0  0  0  0  0  0  0  0  # atno 17320 bound_to 7965
  144.7442  140.5024  143.6847 LP  0  0  0  0  0  0  0  0  0  0  0  0  # atno 17321 bound_to 7965
  140.5307  144.0734  150.6053 LP  0  0  0  0  0  0  0  0  0  0  0  0  # atno 17342 bound_to 10162
  140.3724  143.2847  152.0264 LP  0  0  0  0  0  0  0  0  0  0  0  0  # atno 17343 bound_to 10162
  156.1028  130.5982  150.9922 LP  0  0  0  0  0  0  0  0  0  0  0  0  # atno 17370 bound_to 10713
  157.6491  131.0899  150.8089 LP  0  0  0  0  0  0  0  0  0  0  0  0  # atno 17371 bound_to 10713
  140.0222  134.9940  157.0615 LP  0  0  0  0  0  0  0  0  0  0  0  0  # atno 17394 bound_to 11000
  140.4421  134.1670  155.7174 LP  0  0  0  0  0  0  0  0  0  0  0  0  # atno 17395 bound_to 11000

$$$$
