AV-unprocessed.smi:2624|AV-procd|sdf|10234|dock9
  -GOLD-   2272014243D 1   1.00000     0.00000
 Structure written by MMmdl.
 38 39  0  0  0  0  0  0  0  0  2 V2000
  152.2756  143.5688  159.1182 C   0  0  0  0  0  0  0  0  0  0  0  0
  150.9909  142.9810  159.2263 O   0  0  0  0  0  0  0  0  0  0  0  0
  150.8461  141.8375  158.4015 C   0  0  0  0  0  0  0  0  0  0  0  0
  151.0015  142.2623  156.9338 C   0  0  0  0  0  0  0  0  0  0  0  0
  150.6461  141.1697  156.0185 N   0  0  0  0  0  0  0  0  0  0  0  0
  149.4314  141.2976  155.3182 C   0  0  0  0  0  0  0  0  0  0  0  0
  149.0013  140.3630  154.4497 C   0  0  0  0  0  0  0  0  0  0  0  0
  147.7113  140.5357  153.7385 C   0  0  0  0  0  0  0  0  0  0  0  0
  147.4482  139.8755  152.7319 O   0  0  0  0  0  0  0  0  0  0  0  0
  146.7304  141.5149  154.2973 C   0  0  0  0  0  0  0  0  0  0  0  0
  146.0577  142.3898  153.4116 C   0  0  0  0  0  0  0  0  0  0  0  0
  145.1332  143.3377  153.8925 C   0  0  0  0  0  0  0  0  0  0  0  0
  144.4308  144.2641  152.9217 C   0  0  0  0  0  0  0  0  0  0  0  0
  144.8705  143.4174  155.2735 C   0  0  0  0  0  0  0  0  0  0  0  0
  145.5290  142.5511  156.1651 C   0  0  0  0  0  0  0  0  0  0  0  0
  146.4557  141.6013  155.6891 C   0  0  0  0  0  0  0  0  0  0  0  0
  147.0477  140.7715  156.6018 O   0  5  0  0  0  0  0  0  0  0  0  0
  149.8303  139.1882  154.2610 C   0  0  0  0  0  0  0  0  0  0  0  0
  150.9887  139.0546  154.9369 C   0  0  0  0  0  0  0  0  0  0  0  0
  151.8139  137.9039  154.7737 C   0  0  0  0  0  0  0  0  0  0  0  0
  152.4739  136.9601  154.6569 N   0  0  0  0  0  0  0  0  0  0  0  0
  151.4590  140.0786  155.8803 C   0  0  0  0  0  0  0  0  0  0  0  0
  152.5117  139.9683  156.5112 O   0  0  0  0  0  0  0  0  0  0  0  0
  152.3339  144.4428  159.7666 H   0  0  0  0  0  0  0  0  0  0  0  0
  152.4758  143.8940  158.0964 H   0  0  0  0  0  0  0  0  0  0  0  0
  153.0560  142.8707  159.4233 H   0  0  0  0  0  0  0  0  0  0  0  0
  151.6001  141.0933  158.6633 H   0  0  0  0  0  0  0  0  0  0  0  0
  149.8658  141.3849  158.5604 H   0  0  0  0  0  0  0  0  0  0  0  0
  150.3748  143.1338  156.7392 H   0  0  0  0  0  0  0  0  0  0  0  0
  152.0219  142.6030  156.7508 H   0  0  0  0  0  0  0  0  0  0  0  0
  148.8798  142.2017  155.5361 H   0  0  0  0  0  0  0  0  0  0  0  0
  146.2559  142.3448  152.3502 H   0  0  0  0  0  0  0  0  0  0  0  0
  143.7696  144.9582  153.4414 H   0  0  0  0  0  0  0  0  0  0  0  0
  143.8333  143.6871  152.2158 H   0  0  0  0  0  0  0  0  0  0  0  0
  145.1612  144.8462  152.3592 H   0  0  0  0  0  0  0  0  0  0  0  0
  144.1640  144.1393  155.6555 H   0  0  0  0  0  0  0  0  0  0  0  0
  145.3165  142.6152  157.2225 H   0  0  0  0  0  0  0  0  0  0  0  0
  149.5202  138.4016  153.5877 H   0  0  0  0  0  0  0  0  0  0  0  0
  1  2  1  0  0  0  0
  1 24  1  0  0  0  0
  1 25  1  0  0  0  0
  1 26  1  0  0  0  0
  2  3  1  0  0  0  0
  3  4  1  0  0  0  0
  3 27  1  0  0  0  0
  3 28  1  0  0  0  0
  4  5  1  0  0  0  0
  4 29  1  0  0  0  0
  4 30  1  0  0  0  0
  5 22  1  0  0  0  0
  5  6  1  0  0  0  0
  6  7  2  0  0  0  0
  6 31  1  0  0  0  0
  7  8  1  0  0  0  0
  7 18  1  0  0  0  0
  8  9  2  0  0  0  0
  8 10  1  0  0  0  0
 10 16  1  0  0  0  0
 10 11  2  0  0  0  0
 11 12  1  0  0  0  0
 11 32  1  0  0  0  0
 12 13  1  0  0  0  0
 12 14  2  0  0  0  0
 13 33  1  0  0  0  0
 13 34  1  0  0  0  0
 13 35  1  0  0  0  0
 14 15  1  0  0  0  0
 14 36  1  0  0  0  0
 15 16  2  0  0  0  0
 15 37  1  0  0  0  0
 16 17  1  0  0  0  0
 18 19  2  0  0  0  0
 18 38  1  0  0  0  0
 19 20  1  0  0  0  0
 19 22  1  0  0  0  0
 20 21  3  0  0  0  0
 22 23  2  0  0  0  0
M  CHG  1  17  -1
M  END
> <s_m_source_file>
AV-unprocessed.smi

> <i_m_source_file_index>
2624

> <i_lp_mmshare_version>
43012

> <i_f3d_flags>
0

> <s_epik_input>
W0NIM11PW0NIMl1bQ0gyXW4xW2NIXWMoW2NIXWMoQyNOKWMxPU8pQyg9TyljMltjSF1jKFtDSDNdKVtjSF1bY0hdYzJbT0hd

> <s_epik_cmdline>
J2VwaWtfcHl0aG9uJywgJy1waCcsICc3LjAnLCAnLXRuJywgJzgnLCAnLW1hJywgJzIwMCcsICctbWV0YWxfYmluZGluZycsICctaW1hZScsICc8aW5maWxlLm1hZT4nLCAnLW9tYWUnLCAnPG91dGZpbGUubWFlPic=

> <r_epik_Ionization_Penalty>
0.985482

> <r_epik_Ionization_Penalty_Charging>
0.985482

> <r_epik_Ionization_Penalty_Neutral>
1.08437e-11

> <r_epik_State_Penalty>
1.03272

> <r_epik_Charging_Adjusted_Penalty>
2.0182

> <i_epik_Tot_Q>
-1

> <i_epik_Tot_abs_Q>
1

> <r_epik_Metal_State_Penalty>
1.03272

> <b_epik_Metal_Only>
0

> <s_lp_Force_Field>
OPLS_2005

> <r_lp_Energy>
23.2451

> <b_lp_Chiralities_Consistent>
1

> <s_lp_Variant>
AV-unprocessed.smi:2624-2

> <Gold.Version>
5.8.1

> <Gold.Id.Protein>
6NUR|6NUR_protein|mol2

> <Gold.PLP.Fitness>
57.4391

> <Gold.PLP.PLP>
-48.9563

> <Gold.PLP.part.hbond>
-2.0000

> <Gold.PLP.part.metal>
0.0000

> <Gold.PLP.part.buried>
-5.0568

> <Gold.PLP.part.nonpolar>
-43.7663

> <Gold.PLP.part.repulsive>
1.7709

> <Gold.PLP.ligand.clash>
0.0000

> <Gold.PLP.ligand.torsion>
1.0311

> <Gold.PLP.Chemscore.Hbond>
1.9440

> <Gold.PLP.Chemscore.CHOScore>
1.0000

> <Gold.PLP.Chemscore.Metal>
0.0000

> <Gold.Chemscore.Hbonds>
donor molecule, donor type, donor heavy atom, donor atom, acceptor molecule, acceptor atom, score
      P1  H  7997  8010       L1    23  1.00
      P1  H 10752 10765       L1    21  0.48
      L1  C     6    31       P1  8028  1.00

> <Gold.PLP.Chemscore.Internal.Correction>
1.7130

> <Gold.Rescore>
     Score         DG    S(hbond)    S(metal)    S(lipo)     H(rot)  DE(clash)    DE(int)     intcor
     14.82     -17.53       1.90        0.00      79.41       1.41       0.34       2.37       ----

> <Gold.Chemscore.Fitness>
14.8200

> <Gold.Chemscore.DG>
-17.5303

> <Gold.Chemscore.ZeroCoef>
-5.4800

> <Gold.Chemscore.Hbond>
1.9045

> <Gold.Chemscore.Metal>
0.0000

> <Gold.Chemscore.Lipo>
79.4149

> <Gold.Chemscore.Internal_Hbond>
0.0000

> <Gold.Chemscore.DEClash>
0.3364

> <Gold.Chemscore.DEInternal>
2.3739

> <Gold.Chemscore.Rot>
1.4071

> <Gold.Chemscore.Internal.Correction>
   9.000000E+99

> <Gold.Chemscore.Hbonds>
donor molecule, donor type, donor heavy atom, donor atom, acceptor molecule, acceptor atom, score
      P1  H  7997  8010       L1    23  1.00
      P1  H 10752 10765       L1    21  0.45

> <Gold.Chemscore.Hbond.Weighted>
-6.3609

> <Gold.Chemscore.Metal.Weighted>
-0.0000

> <Gold.Chemscore.Lipo.Weighted>
-9.2915

> <Gold.Chemscore.Internal_Hbond.Weighted>
0.0000

> <Gold.Chemscore.DEClash.Weighted>
0.3364

> <Gold.Chemscore.DEInternal.Weighted>
2.3739

> <Gold.Chemscore.Rot.Weighted>
3.6022

> <Gold.Chemscore.Internal.Correction.Weighted>
   9.000000E+99

> <Gold.Protein.RotatedTorsions>
[ 6907 6896 6895 6894 ] final    7.00 input  -60.11 | X-H torsion
[ 7974 7965 7964 7962 ] final  124.37 input  175.53 | X-H torsion
[ 8008 7997 7996 7995 ] final   67.70 input   59.86 | X-H torsion
[ 10167 10162 10161 10158 ] final   51.01 input  -65.29 | X-H torsion
[ 10718 10713 10712 10709 ] final   65.71 input   66.30 | X-H torsion
[ 10763 10752 10751 10750 ] final  144.81 input  -60.55 | X-H torsion
[ 11005 11000 10999 10996 ] final -130.75 input  -57.11 | X-H torsion

> <Gold.Protein.ActiveResidues>
 VAL166  LYS551  ARG553  GLY616  TRP617  ASP618  TYR619  PRO620  LYS621  CYS622 
 ASP623  PHE694  ASN695  SER759  ASP760  ASP761  ALA762  ILE779  LEU786  VAL792 
 PHE793  MET794  SER795  GLU796  ALA797  LYS798  CYS799  TRP800  GLU811  SER814 

> <Gold.Protein.RotatedAtoms>
  151.6828  135.0959  160.0219 H   0  0  0  0  0  0  0  0  0  0  0  0  # atno 6907 bound_to 6896
  152.3825  133.6561  159.6181 H   0  0  0  0  0  0  0  0  0  0  0  0  # atno 6908 bound_to 6896
  150.7758  133.9007  159.3381 H   0  0  0  0  0  0  0  0  0  0  0  0  # atno 6909 bound_to 6896
  145.0852  139.3627  143.4889 H   0  0  0  0  0  0  0  0  0  0  0  0  # atno 7974 bound_to 7965
  155.6969  140.3495  155.4917 H   0  0  0  0  0  0  0  0  0  0  0  0  # atno 8008 bound_to 7997
  155.9475  140.1113  157.1027 H   0  0  0  0  0  0  0  0  0  0  0  0  # atno 8009 bound_to 7997
  154.4115  140.1201  156.4994 H   0  0  0  0  0  0  0  0  0  0  0  0  # atno 8010 bound_to 7997
  140.2664  144.3315  150.6303 H   0  0  0  0  0  0  0  0  0  0  0  0  # atno 10167 bound_to 10162
  157.6123  130.9228  150.0012 H   0  0  0  0  0  0  0  0  0  0  0  0  # atno 10718 bound_to 10713
  153.9951  135.2928  155.3408 H   0  0  0  0  0  0  0  0  0  0  0  0  # atno 10763 bound_to 10752
  154.7192  135.5116  153.8788 H   0  0  0  0  0  0  0  0  0  0  0  0  # atno 10764 bound_to 10752
  153.0792  135.6673  154.0199 H   0  0  0  0  0  0  0  0  0  0  0  0  # atno 10765 bound_to 10752
  140.9318  134.1309  157.4228 H   0  0  0  0  0  0  0  0  0  0  0  0  # atno 11005 bound_to 11000
  146.3531  140.0661  142.8626 LP  0  0  0  0  0  0  0  0  0  0  0  0  # atno 17320 bound_to 7965
  145.1131  140.9417  143.4645 LP  0  0  0  0  0  0  0  0  0  0  0  0  # atno 17321 bound_to 7965
  140.5925  143.2167  151.7226 LP  0  0  0  0  0  0  0  0  0  0  0  0  # atno 17342 bound_to 10162
  139.5001  144.3917  152.0272 LP  0  0  0  0  0  0  0  0  0  0  0  0  # atno 17343 bound_to 10162
  156.1230  130.3645  149.9856 LP  0  0  0  0  0  0  0  0  0  0  0  0  # atno 17370 bound_to 10713
  156.7932  130.9263  151.3646 LP  0  0  0  0  0  0  0  0  0  0  0  0  # atno 17371 bound_to 10713
  139.8798  135.0007  156.6028 LP  0  0  0  0  0  0  0  0  0  0  0  0  # atno 17394 bound_to 11000
  140.7852  133.8627  155.8600 LP  0  0  0  0  0  0  0  0  0  0  0  0  # atno 17395 bound_to 11000

$$$$
