AV-unprocessed.smi:3048|AV-procd|sdf|11626|dock7
  -GOLD-   2272017 13D 1   1.00000     0.00000
 Structure written by MMmdl.
 38 39  0  0  0  0  0  0  0  0  2 V2000
  145.5903  132.9578  150.1806 C   0  0  0  0  0  0  0  0  0  0  0  0
  145.3239  134.2725  150.8556 C   0  0  0  0  0  0  0  0  0  0  0  0
  144.1397  135.0612  150.7978 C   0  0  0  0  0  0  0  0  0  0  0  0
  144.2268  136.1721  151.5113 N   0  0  0  0  0  0  0  0  0  0  0  0
  145.4658  136.1334  152.0467 N   0  0  0  0  0  0  0  0  0  0  0  0
  145.9135  137.2099  152.9129 C   0  0  0  0  0  0  0  0  0  0  0  0
  146.4972  138.3911  152.1204 C   0  0  0  0  0  0  0  0  0  0  0  0
  147.9093  138.6387  152.4741 N   0  3  0  0  0  0  0  0  0  0  0  0
  148.1060  139.2354  153.8092 C   0  0  0  0  0  0  0  0  0  0  0  0
  149.6000  139.4177  154.1123 C   0  0  1  0  0  0  0  0  0  0  0  0
  149.8334  140.2737  155.3721 C   0  0  0  0  0  0  0  0  0  0  0  0
  151.3304  140.3669  155.6894 C   0  0  0  0  0  0  0  0  0  0  0  0
  151.9310  138.9594  155.7673 C   0  0  0  0  0  0  0  0  0  0  0  0
  151.5844  138.1580  154.5023 C   0  0  0  0  0  0  0  0  0  0  0  0
  150.1721  138.1275  154.3181 O   0  0  0  0  0  0  0  0  0  0  0  0
  146.1500  134.9982  151.6666 C   0  0  0  0  0  0  0  0  0  0  0  0
  144.7792  132.6744  149.5092 H   0  0  0  0  0  0  0  0  0  0  0  0
  145.7048  132.1503  150.9038 H   0  0  0  0  0  0  0  0  0  0  0  0
  146.5030  132.9889  149.5852 H   0  0  0  0  0  0  0  0  0  0  0  0
  143.2234  134.8588  150.2626 H   0  0  0  0  0  0  0  0  0  0  0  0
  145.0602  137.5482  153.5017 H   0  0  0  0  0  0  0  0  0  0  0  0
  146.6446  136.8186  153.6221 H   0  0  0  0  0  0  0  0  0  0  0  0
  146.4151  138.1988  151.0498 H   0  0  0  0  0  0  0  0  0  0  0  0
  145.9200  139.2928  152.3285 H   0  0  0  0  0  0  0  0  0  0  0  0
  148.4109  137.7625  152.4367 H   0  0  0  0  0  0  0  0  0  0  0  0
  147.6052  140.2042  153.8337 H   0  0  0  0  0  0  0  0  0  0  0  0
  147.6350  138.6088  154.5678 H   0  0  0  0  0  0  0  0  0  0  0  0
  150.0797  139.8963  153.2563 H   0  0  0  0  0  0  0  0  0  0  0  0
  149.4204  141.2734  155.2337 H   0  0  0  0  0  0  0  0  0  0  0  0
  149.3080  139.8324  156.2204 H   0  0  0  0  0  0  0  0  0  0  0  0
  151.8361  140.9401  154.9111 H   0  0  0  0  0  0  0  0  0  0  0  0
  151.4894  140.9016  156.6263 H   0  0  0  0  0  0  0  0  0  0  0  0
  153.0125  139.0165  155.8944 H   0  0  0  0  0  0  0  0  0  0  0  0
  151.5395  138.4418  156.6440 H   0  0  0  0  0  0  0  0  0  0  0  0
  152.0668  138.5888  153.6236 H   0  0  0  0  0  0  0  0  0  0  0  0
  151.9498  137.1350  154.5958 H   0  0  0  0  0  0  0  0  0  0  0  0
  147.1578  134.8008  152.0023 H   0  0  0  0  0  0  0  0  0  0  0  0
  148.3024  139.2614  151.7824 H   0  0  0  0  0  0  0  0  0  0  0  0
  1  2  1  0  0  0  0
  1 17  1  0  0  0  0
  1 18  1  0  0  0  0
  1 19  1  0  0  0  0
  2 16  2  0  0  0  0
  2  3  1  0  0  0  0
  3  4  2  0  0  0  0
  3 20  1  0  0  0  0
  4  5  1  0  0  0  0
  5  6  1  0  0  0  0
  5 16  1  0  0  0  0
  6  7  1  0  0  0  0
  6 21  1  0  0  0  0
  6 22  1  0  0  0  0
  7  8  1  0  0  0  0
  7 23  1  0  0  0  0
  7 24  1  0  0  0  0
  8  9  1  0  0  0  0
  8 25  1  0  0  0  0
  8 38  1  0  0  0  0
  9 10  1  0  0  0  0
  9 26  1  0  0  0  0
  9 27  1  0  0  0  0
 10 15  1  0  0  0  0
 10 11  1  0  0  0  0
 10 28  1  0  0  0  0
 11 12  1  0  0  0  0
 11 29  1  0  0  0  0
 11 30  1  0  0  0  0
 12 13  1  0  0  0  0
 12 31  1  0  0  0  0
 12 32  1  0  0  0  0
 13 14  1  0  0  0  0
 13 33  1  0  0  0  0
 13 34  1  0  0  0  0
 14 15  1  0  0  0  0
 14 35  1  0  0  0  0
 14 36  1  0  0  0  0
 16 37  1  0  0  0  0
M  CHG  1   8   1
M  END
> <s_m_source_file>
AV-unprocessed.smi

> <i_m_source_file_index>
3048

> <i_lp_mmshare_version>
43012

> <i_f3d_flags>
0

> <s_epik_input>
W0NIM11jMVtjSF1ubihbY0hdMSlbQ0gyXVtDSDJdW05IXVtDSDJdW0NAQEhdMltDSDJdW0NIMl1bQ0gyXVtDSDJdTzI=

> <s_epik_cmdline>
J2VwaWtfcHl0aG9uJywgJy1waCcsICc3LjAnLCAnLXRuJywgJzgnLCAnLW1hJywgJzIwMCcsICctbWV0YWxfYmluZGluZycsICctaW1hZScsICc8aW5maWxlLm1hZT4nLCAnLW9tYWUnLCAnPG91dGZpbGUubWFlPic=

> <r_lp_tautomer_probability>
1

> <r_epik_Ionization_Penalty>
0.0084937

> <r_epik_Ionization_Penalty_Charging>
0.00848754

> <r_epik_Ionization_Penalty_Neutral>
6.1613e-06

> <r_epik_State_Penalty>
0.00639836

> <r_epik_Charging_Adjusted_Penalty>
0.0148859

> <i_epik_Tot_Q>
1

> <i_epik_Tot_abs_Q>
1

> <r_epik_Metal_State_Penalty>
0.00642541

> <b_epik_Metal_Only>
0

> <s_lp_Force_Field>
OPLS_2005

> <r_lp_Energy>
10.7756

> <b_lp_Chiralities_Consistent>
1

> <s_lp_Variant>
AV-unprocessed.smi:3048-2

> <Gold.Version>
5.8.1

> <Gold.Id.Protein>
6NUR|6NUR_protein|mol2

> <Gold.PLP.Fitness>
44.2575

> <Gold.PLP.PLP>
-31.0051

> <Gold.PLP.part.hbond>
-2.0000

> <Gold.PLP.part.metal>
0.0000

> <Gold.PLP.part.buried>
-0.2360

> <Gold.PLP.part.nonpolar>
-29.4859

> <Gold.PLP.part.repulsive>
1.6128

> <Gold.PLP.ligand.clash>
0.0000

> <Gold.PLP.ligand.torsion>
0.8206

> <Gold.PLP.Chemscore.Hbond>
3.0000

> <Gold.PLP.Chemscore.CHOScore>
1.9422

> <Gold.PLP.Chemscore.Metal>
0.0000

> <Gold.Chemscore.Hbonds>
donor molecule, donor type, donor heavy atom, donor atom, acceptor molecule, acceptor atom, score
      L1  H     8    25       P1  7948  2.00
      L1  H     8    38       P1  7957  1.00
      L1  C     3    20       P1 10186  1.00
      L1  C    16    37       P1  7948  0.94

> <Gold.PLP.Chemscore.Internal.Correction>
0.0670

> <Gold.Rescore>
     Score         DG    S(hbond)    S(metal)    S(lipo)     H(rot)  DE(clash)    DE(int)     intcor
     15.90     -16.94       1.92        0.00      78.57       1.61       0.21       0.83       ----

> <Gold.Chemscore.Fitness>
15.9031

> <Gold.Chemscore.DG>
-16.9376

> <Gold.Chemscore.ZeroCoef>
-5.4800

> <Gold.Chemscore.Hbond>
1.9158

> <Gold.Chemscore.Metal>
0.0000

> <Gold.Chemscore.Lipo>
78.5720

> <Gold.Chemscore.Internal_Hbond>
0.0000

> <Gold.Chemscore.DEClash>
0.2077

> <Gold.Chemscore.DEInternal>
0.8268

> <Gold.Chemscore.Rot>
1.6149

> <Gold.Chemscore.Internal.Correction>
   9.000000E+99

> <Gold.Chemscore.Hbonds>
donor molecule, donor type, donor heavy atom, donor atom, acceptor molecule, acceptor atom, score
      L1  H     8    25       P1  7948  0.99
      L1  H     8    38       P1  7957  0.93

> <Gold.Chemscore.Hbond.Weighted>
-6.3988

> <Gold.Chemscore.Metal.Weighted>
-0.0000

> <Gold.Chemscore.Lipo.Weighted>
-9.1929

> <Gold.Chemscore.Internal_Hbond.Weighted>
0.0000

> <Gold.Chemscore.DEClash.Weighted>
0.2077

> <Gold.Chemscore.DEInternal.Weighted>
0.8268

> <Gold.Chemscore.Rot.Weighted>
4.1341

> <Gold.Chemscore.Internal.Correction.Weighted>
   9.000000E+99

> <Gold.Protein.RotatedTorsions>
[ 6907 6896 6895 6894 ] final   22.69 input  -60.11 | X-H torsion
[ 7974 7965 7964 7962 ] final  -47.99 input  175.53 | X-H torsion
[ 8008 7997 7996 7995 ] final   86.30 input   59.86 | X-H torsion
[ 10167 10162 10161 10158 ] final  -11.69 input  -65.29 | X-H torsion
[ 10718 10713 10712 10709 ] final -156.36 input   66.30 | X-H torsion
[ 10763 10752 10751 10750 ] final  -59.31 input  -60.55 | X-H torsion
[ 11005 11000 10999 10996 ] final  153.64 input  -57.11 | X-H torsion

> <Gold.Protein.ActiveResidues>
 VAL166  LYS551  ARG553  GLY616  TRP617  ASP618  TYR619  PRO620  LYS621  CYS622 
 ASP623  PHE694  ASN695  SER759  ASP760  ASP761  ALA762  ILE779  LEU786  VAL792 
 PHE793  MET794  SER795  GLU796  ALA797  LYS798  CYS799  TRP800  GLU811  SER814 

> <Gold.Protein.RotatedAtoms>
  151.9310  135.0256  160.0528 H   0  0  0  0  0  0  0  0  0  0  0  0  # atno 6907 bound_to 6896
  152.2118  133.4912  159.5122 H   0  0  0  0  0  0  0  0  0  0  0  0  # atno 6908 bound_to 6896
  150.6978  134.1374  159.4135 H   0  0  0  0  0  0  0  0  0  0  0  0  # atno 6909 bound_to 6896
  145.9558  140.7527  142.9482 H   0  0  0  0  0  0  0  0  0  0  0  0  # atno 7974 bound_to 7965
  155.9610  140.3393  155.6490 H   0  0  0  0  0  0  0  0  0  0  0  0  # atno 8008 bound_to 7997
  155.6798  140.0736  157.2507 H   0  0  0  0  0  0  0  0  0  0  0  0  # atno 8009 bound_to 7997
  154.4143  140.1676  156.1958 H   0  0  0  0  0  0  0  0  0  0  0  0  # atno 8010 bound_to 7997
  140.7144  143.5612  150.9193 H   0  0  0  0  0  0  0  0  0  0  0  0  # atno 10167 bound_to 10162
  156.5255  130.8497  151.2697 H   0  0  0  0  0  0  0  0  0  0  0  0  # atno 10718 bound_to 10713
  154.2517  135.6325  153.5242 H   0  0  0  0  0  0  0  0  0  0  0  0  # atno 10763 bound_to 10752
  152.9911  135.5566  154.5800 H   0  0  0  0  0  0  0  0  0  0  0  0  # atno 10764 bound_to 10752
  154.5329  135.2889  155.1139 H   0  0  0  0  0  0  0  0  0  0  0  0  # atno 10765 bound_to 10752
  140.1416  134.8735  157.2339 H   0  0  0  0  0  0  0  0  0  0  0  0  # atno 11005 bound_to 11000
  144.6805  140.2510  143.7331 LP  0  0  0  0  0  0  0  0  0  0  0  0  # atno 17320 bound_to 7965
  145.8108  139.2002  143.1994 LP  0  0  0  0  0  0  0  0  0  0  0  0  # atno 17321 bound_to 7965
  139.9338  143.6462  152.3070 LP  0  0  0  0  0  0  0  0  0  0  0  0  # atno 17342 bound_to 10162
  139.6922  144.7645  151.1418 LP  0  0  0  0  0  0  0  0  0  0  0  0  # atno 17343 bound_to 10162
  157.7430  130.9903  150.2560 LP  0  0  0  0  0  0  0  0  0  0  0  0  # atno 17370 bound_to 10713
  156.3109  130.3772  149.7662 LP  0  0  0  0  0  0  0  0  0  0  0  0  # atno 17371 bound_to 10713
  140.2715  134.3455  155.7372 LP  0  0  0  0  0  0  0  0  0  0  0  0  # atno 17394 bound_to 11000
  141.2187  133.7426  156.9229 LP  0  0  0  0  0  0  0  0  0  0  0  0  # atno 17395 bound_to 11000

$$$$
