AV-unprocessed.smi:1048|AV-procd|sdf|4604|dock5
  -GOLD-   22720 3103D 1   1.00000     0.00000
 Structure written by MMmdl.
 46 47  0  0  0  0  0  0  0  0  2 V2000
  150.7125  135.5129  156.6427 C   0  0  0  0  0  0  0  0  0  0  0  0
  149.8109  136.6429  156.1263 C   0  0  2  0  0  0  0  0  0  0  0  0
  148.4355  136.1174  155.6814 C   0  0  0  0  0  0  0  0  0  0  0  0
  147.5525  137.2528  155.1367 C   0  0  0  0  0  0  0  0  0  0  0  0
  148.2245  137.9650  154.0176 N   0  3  1  0  0  0  0  0  0  0  0  0
  147.3613  138.9852  153.3685 C   0  0  0  0  0  0  0  0  0  0  0  0
  147.3294  140.3133  154.1521 C   0  0  2  0  0  0  0  0  0  0  0  0
  146.1103  140.9520  153.8266 O   0  0  0  0  0  0  0  0  0  0  0  0
  148.4921  141.2407  153.7425 C   0  0  0  0  0  0  0  0  0  0  0  0
  148.9216  142.0988  154.8421 N   0  0  0  0  0  0  0  0  0  0  0  0
  149.9592  141.8496  155.6531 C   0  0  0  0  0  0  0  0  0  0  0  0
  150.6861  140.8635  155.5382 O   0  0  0  0  0  0  0  0  0  0  0  0
  150.1044  142.8204  156.5709 N   0  0  0  0  0  0  0  0  0  0  0  0
  151.0551  142.9043  157.6239 C   0  0  0  0  0  0  0  0  0  0  0  0
  151.5180  144.1827  157.9977 C   0  0  0  0  0  0  0  0  0  0  0  0
  152.4436  144.2964  159.0524 C   0  0  0  0  0  0  0  0  0  0  0  0
  152.8652  143.1206  159.7027 C   0  0  0  0  0  0  0  0  0  0  0  0
  152.4218  141.8906  159.3682 N   0  0  0  0  0  0  0  0  0  0  0  0
  151.5359  141.7886  158.3538 C   0  0  0  0  0  0  0  0  0  0  0  0
  149.5396  138.5157  154.4334 C   0  0  0  0  0  0  0  0  0  0  0  0
  150.4634  137.4048  154.9605 C   0  0  0  0  0  0  0  0  0  0  0  0
  150.9082  134.7732  155.8657 H   0  0  0  0  0  0  0  0  0  0  0  0
  150.2506  134.9966  157.4849 H   0  0  0  0  0  0  0  0  0  0  0  0
  151.6733  135.9012  156.9815 H   0  0  0  0  0  0  0  0  0  0  0  0
  149.6573  137.3452  156.9472 H   0  0  0  0  0  0  0  0  0  0  0  0
  148.5607  135.3532  154.9129 H   0  0  0  0  0  0  0  0  0  0  0  0
  147.9328  135.6327  156.5193 H   0  0  0  0  0  0  0  0  0  0  0  0
  146.6031  136.8345  154.8042 H   0  0  0  0  0  0  0  0  0  0  0  0
  147.3219  137.9612  155.9339 H   0  0  0  0  0  0  0  0  0  0  0  0
  147.7059  139.1470  152.3460 H   0  0  0  0  0  0  0  0  0  0  0  0
  146.3395  138.6104  153.2850 H   0  0  0  0  0  0  0  0  0  0  0  0
  147.3683  140.1267  155.2254 H   0  0  0  0  0  0  0  0  0  0  0  0
  145.6225  140.3892  153.2426 H   0  0  0  0  0  0  0  0  0  0  0  0
  149.3618  140.6376  153.4804 H   0  0  0  0  0  0  0  0  0  0  0  0
  148.2507  141.8220  152.8502 H   0  0  0  0  0  0  0  0  0  0  0  0
  148.3801  142.9350  155.0064 H   0  0  0  0  0  0  0  0  0  0  0  0
  149.4864  143.6137  156.4821 H   0  0  0  0  0  0  0  0  0  0  0  0
  151.1735  145.0672  157.4821 H   0  0  0  0  0  0  0  0  0  0  0  0
  152.8200  145.2618  159.3569 H   0  0  0  0  0  0  0  0  0  0  0  0
  153.5724  143.1704  160.5174 H   0  0  0  0  0  0  0  0  0  0  0  0
  151.1984  140.7842  158.1516 H   0  0  0  0  0  0  0  0  0  0  0  0
  150.0200  139.0036  153.5843 H   0  0  0  0  0  0  0  0  0  0  0  0
  149.3912  139.2799  155.1978 H   0  0  0  0  0  0  0  0  0  0  0  0
  151.4115  137.8380  155.2809 H   0  0  0  0  0  0  0  0  0  0  0  0
  150.6988  136.7128  154.1502 H   0  0  0  0  0  0  0  0  0  0  0  0
  148.4246  137.2770  153.3051 H   0  0  0  0  0  0  0  0  0  0  0  0
  1  2  1  0  0  0  0
  1 22  1  0  0  0  0
  1 23  1  0  0  0  0
  1 24  1  0  0  0  0
  2 21  1  0  0  0  0
  2  3  1  0  0  0  0
  2 25  1  0  0  0  0
  3  4  1  0  0  0  0
  3 26  1  0  0  0  0
  3 27  1  0  0  0  0
  4  5  1  0  0  0  0
  4 28  1  0  0  0  0
  4 29  1  0  0  0  0
  5  6  1  0  0  0  0
  5 20  1  0  0  0  0
  5 46  1  0  0  0  0
  6  7  1  0  0  0  0
  6 30  1  0  0  0  0
  6 31  1  0  0  0  0
  7  8  1  0  0  0  0
  7  9  1  0  0  0  0
  7 32  1  0  0  0  0
  8 33  1  0  0  0  0
  9 10  1  0  0  0  0
  9 34  1  0  0  0  0
  9 35  1  0  0  0  0
 10 11  1  0  0  0  0
 10 36  1  0  0  0  0
 11 12  2  0  0  0  0
 11 13  1  0  0  0  0
 13 14  1  0  0  0  0
 13 37  1  0  0  0  0
 14 19  1  0  0  0  0
 14 15  2  0  0  0  0
 15 16  1  0  0  0  0
 15 38  1  0  0  0  0
 16 17  2  0  0  0  0
 16 39  1  0  0  0  0
 17 18  1  0  0  0  0
 17 40  1  0  0  0  0
 18 19  2  0  0  0  0
 19 41  1  0  0  0  0
 20 21  1  0  0  0  0
 20 42  1  0  0  0  0
 20 43  1  0  0  0  0
 21 44  1  0  0  0  0
 21 45  1  0  0  0  0
M  CHG  1   5   1
M  END
> <s_m_source_file>
AV-unprocessed.smi

> <i_m_source_file_index>
1048

> <i_lp_mmshare_version>
43012

> <i_f3d_flags>
0

> <s_epik_input>
W0NIM11bQ0hdMVtDSDJdW0NIMl1OKFtDSDJdW0NIMl0xKVtDSDJdW0NASF0oW09IXSlbQ0gyXVtOSF1DKD1PKVtOSF1jMltjSF1bY0hdW2NIXW5bY0hdMg==

> <s_epik_cmdline>
J2VwaWtfcHl0aG9uJywgJy1waCcsICc3LjAnLCAnLXRuJywgJzgnLCAnLW1hJywgJzIwMCcsICctbWV0YWxfYmluZGluZycsICctaW1hZScsICc8aW5maWxlLm1hZT4nLCAnLW9tYWUnLCAnPG91dGZpbGUubWFlPic=

> <r_lp_tautomer_probability>
1

> <r_epik_Ionization_Penalty>
0.00581049

> <r_epik_Ionization_Penalty_Charging>
0.00147689

> <r_epik_Ionization_Penalty_Neutral>
0.0043336

> <r_epik_State_Penalty>
-0

> <r_epik_Charging_Adjusted_Penalty>
0.00147689

> <i_epik_Tot_Q>
1

> <i_epik_Tot_abs_Q>
1

> <r_epik_Metal_State_Penalty>
-0

> <b_epik_Metal_Only>
0

> <s_lp_Force_Field>
OPLS_2005

> <r_lp_Energy>
22.5683

> <b_lp_Chiralities_Consistent>
1

> <s_lp_Variant>
AV-unprocessed.smi:1048-1

> <Gold.Version>
5.8.1

> <Gold.Id.Protein>
6NUR|6NUR_protein|mol2

> <Gold.PLP.Fitness>
51.4258

> <Gold.PLP.PLP>
-39.1829

> <Gold.PLP.part.hbond>
-5.0000

> <Gold.PLP.part.metal>
0.0000

> <Gold.PLP.part.buried>
-3.6983

> <Gold.PLP.part.nonpolar>
-30.6590

> <Gold.PLP.part.repulsive>
0.3334

> <Gold.PLP.ligand.clash>
0.0000

> <Gold.PLP.ligand.torsion>
1.2470

> <Gold.PLP.Chemscore.Hbond>
4.8947

> <Gold.PLP.Chemscore.CHOScore>
0.0000

> <Gold.PLP.Chemscore.Metal>
0.0000

> <Gold.Chemscore.Hbonds>
donor molecule, donor type, donor heavy atom, donor atom, acceptor molecule, acceptor atom, score
      L1  H     5    46       P1  7948  2.00
      L1  H     8    33       P1 10175  0.56
      L1  H    10    36       P1  8028  0.66
      L1  H    13    37       P1  8028  0.93
      P1  H  7989  7998       L1    12  0.37

> <Gold.PLP.Chemscore.Internal.Correction>
0.0528

> <Gold.Rescore>
     Score         DG    S(hbond)    S(metal)    S(lipo)     H(rot)  DE(clash)    DE(int)     intcor
     21.46     -24.66       3.94        0.00     101.57       2.29       0.17       3.04       ----

> <Gold.Chemscore.Fitness>
21.4596

> <Gold.Chemscore.DG>
-24.6625

> <Gold.Chemscore.ZeroCoef>
-5.4800

> <Gold.Chemscore.Hbond>
3.9379

> <Gold.Chemscore.Metal>
0.0000

> <Gold.Chemscore.Lipo>
101.5686

> <Gold.Chemscore.Internal_Hbond>
0.0000

> <Gold.Chemscore.DEClash>
0.1650

> <Gold.Chemscore.DEInternal>
3.0379

> <Gold.Chemscore.Rot>
2.2865

> <Gold.Chemscore.Internal.Correction>
   9.000000E+99

> <Gold.Chemscore.Hbonds>
donor molecule, donor type, donor heavy atom, donor atom, acceptor molecule, acceptor atom, score
      L1  H     5    46       P1  7948  1.00
      L1  H     8    33       P1 10175  0.54
      L1  H    10    36       P1  8028  0.65
      L1  H    13    37       P1  8028  0.84
      P1  H  7989  7998       L1    12  0.26

> <Gold.Chemscore.Hbond.Weighted>
-13.1526

> <Gold.Chemscore.Metal.Weighted>
-0.0000

> <Gold.Chemscore.Lipo.Weighted>
-11.8835

> <Gold.Chemscore.Internal_Hbond.Weighted>
0.0000

> <Gold.Chemscore.DEClash.Weighted>
0.1650

> <Gold.Chemscore.DEInternal.Weighted>
3.0379

> <Gold.Chemscore.Rot.Weighted>
5.8536

> <Gold.Chemscore.Internal.Correction.Weighted>
   9.000000E+99

> <Gold.Protein.RotatedTorsions>
[ 6907 6896 6895 6894 ] final -112.28 input  -60.11 | X-H torsion
[ 7974 7965 7964 7962 ] final  122.57 input  175.53 | X-H torsion
[ 8008 7997 7996 7995 ] final -136.94 input   59.86 | X-H torsion
[ 10167 10162 10161 10158 ] final    0.90 input  -65.29 | X-H torsion
[ 10718 10713 10712 10709 ] final -161.17 input   66.30 | X-H torsion
[ 10763 10752 10751 10750 ] final  152.85 input  -60.55 | X-H torsion
[ 11005 11000 10999 10996 ] final  -37.71 input  -57.11 | X-H torsion

> <Gold.Protein.ActiveResidues>
 VAL166  LYS551  ARG553  GLY616  TRP617  ASP618  TYR619  PRO620  LYS621  CYS622 
 ASP623  PHE694  ASN695  SER759  ASP760  ASP761  ALA762  ILE779  LEU786  VAL792 
 PHE793  MET794  SER795  GLU796  ALA797  LYS798  CYS799  TRP800  GLU811  SER814 

> <Gold.Protein.RotatedAtoms>
  150.7747  133.9113  159.3370 H   0  0  0  0  0  0  0  0  0  0  0  0  # atno 6907 bound_to 6896
  151.6991  135.0931  160.0257 H   0  0  0  0  0  0  0  0  0  0  0  0  # atno 6908 bound_to 6896
  152.3779  133.6467  159.6173 H   0  0  0  0  0  0  0  0  0  0  0  0  # atno 6909 bound_to 6896
  145.1060  139.3485  143.4787 H   0  0  0  0  0  0  0  0  0  0  0  0  # atno 7974 bound_to 7965
  155.4035  140.0507  157.3035 H   0  0  0  0  0  0  0  0  0  0  0  0  # atno 8008 bound_to 7997
  154.4979  140.2145  155.9368 H   0  0  0  0  0  0  0  0  0  0  0  0  # atno 8009 bound_to 7997
  156.1430  140.3151  155.8530 H   0  0  0  0  0  0  0  0  0  0  0  0  # atno 8010 bound_to 7997
  140.6707  143.7055  150.7918 H   0  0  0  0  0  0  0  0  0  0  0  0  # atno 10167 bound_to 10162
  156.5925  130.8776  151.2893 H   0  0  0  0  0  0  0  0  0  0  0  0  # atno 10718 bound_to 10713
  154.1267  135.2829  155.3195 H   0  0  0  0  0  0  0  0  0  0  0  0  # atno 10763 bound_to 10752
  154.6385  135.5411  153.7765 H   0  0  0  0  0  0  0  0  0  0  0  0  # atno 10764 bound_to 10752
  153.0295  135.6480  154.1419 H   0  0  0  0  0  0  0  0  0  0  0  0  # atno 10765 bound_to 10752
  140.9973  133.6973  156.1957 H   0  0  0  0  0  0  0  0  0  0  0  0  # atno 11005 bound_to 11000
  146.3528  140.0958  142.8610 LP  0  0  0  0  0  0  0  0  0  0  0  0  # atno 17320 bound_to 7965
  145.0901  140.9279  143.4774 LP  0  0  0  0  0  0  0  0  0  0  0  0  # atno 17321 bound_to 7965
  140.0740  143.5033  152.2565 LP  0  0  0  0  0  0  0  0  0  0  0  0  # atno 17342 bound_to 10162
  139.5975  144.7572  151.3252 LP  0  0  0  0  0  0  0  0  0  0  0  0  # atno 17343 bound_to 10162
  157.7300  130.9679  150.1813 LP  0  0  0  0  0  0  0  0  0  0  0  0  # atno 17370 bound_to 10713
  156.2537  130.3703  149.8204 LP  0  0  0  0  0  0  0  0  0  0  0  0  # atno 17371 bound_to 10713
  140.6946  134.4630  157.5588 LP  0  0  0  0  0  0  0  0  0  0  0  0  # atno 17394 bound_to 11000
  139.9021  134.8532  156.1853 LP  0  0  0  0  0  0  0  0  0  0  0  0  # atno 17395 bound_to 11000

$$$$
