AV-unprocessed.smi:2057|AV-procd|sdf|8343|dock1
  -GOLD-   2272011 13D 1   1.00000     0.00000
 Structure written by MMmdl.
 45 47  0  0  0  0  0  0  0  0  2 V2000
  150.9292  136.6803  155.6346 C   0  0  0  0  0  0  0  0  0  0  0  0
  149.5676  136.2770  155.6273 O   0  0  0  0  0  0  0  0  0  0  0  0
  149.2721  134.9996  155.2031 C   0  0  0  0  0  0  0  0  0  0  0  0
  150.2391  133.9952  154.9653 C   0  0  0  0  0  0  0  0  0  0  0  0
  149.8473  132.7189  154.5216 C   0  0  0  0  0  0  0  0  0  0  0  0
  148.4810  132.4123  154.3060 C   0  0  0  0  0  0  0  0  0  0  0  0
  148.0446  131.1855  153.8482 O   0  0  0  0  0  0  0  0  0  0  0  0
  148.9635  130.1035  153.8292 C   0  0  0  0  0  0  0  0  0  0  0  0
  147.5087  133.4130  154.5527 C   0  0  0  0  0  0  0  0  0  0  0  0
  146.0272  133.1346  154.3021 C   0  0  1  0  0  0  0  0  0  0  0  0
  145.3388  132.7478  155.4744 O   0  0  0  0  0  0  0  0  0  0  0  0
  145.2907  134.3456  153.6908 C   0  0  0  0  0  0  0  0  0  0  0  0
  144.4691  133.9814  152.5251 N   0  0  0  0  0  0  0  0  0  0  0  0
  143.1506  134.2253  152.2740 C   0  0  0  0  0  0  0  0  0  0  0  0
  142.1936  134.9677  153.1466 C   0  0  0  0  0  0  0  0  0  0  0  0
  142.0093  134.3371  154.3944 O   0  0  0  0  0  0  0  0  0  0  0  0
  142.8585  133.6653  151.0667 N   0  3  0  0  0  0  0  0  0  0  0  0
  143.9975  133.0562  150.5403 C   0  0  0  0  0  0  0  0  0  0  0  0
  144.1887  132.3584  149.3518 C   0  0  0  0  0  0  0  0  0  0  0  0
  145.4841  131.8537  149.1156 C   0  0  0  0  0  0  0  0  0  0  0  0
  146.5291  132.0525  150.0409 C   0  0  0  0  0  0  0  0  0  0  0  0
  146.3239  132.7655  151.2401 C   0  0  0  0  0  0  0  0  0  0  0  0
  145.0391  133.2591  151.4687 C   0  0  0  0  0  0  0  0  0  0  0  0
  147.9147  134.6925  154.9936 C   0  0  0  0  0  0  0  0  0  0  0  0
  150.9977  137.7084  155.9901 H   0  0  0  0  0  0  0  0  0  0  0  0
  151.3592  136.6486  154.6327 H   0  0  0  0  0  0  0  0  0  0  0  0
  151.5259  136.0595  156.3043 H   0  0  0  0  0  0  0  0  0  0  0  0
  151.2923  134.1790  155.1131 H   0  0  0  0  0  0  0  0  0  0  0  0
  150.6230  131.9885  154.3505 H   0  0  0  0  0  0  0  0  0  0  0  0
  148.4819  129.2336  153.3833 H   0  0  0  0  0  0  0  0  0  0  0  0
  149.2762  129.8267  154.8369 H   0  0  0  0  0  0  0  0  0  0  0  0
  149.8425  130.3374  153.2267 H   0  0  0  0  0  0  0  0  0  0  0  0
  145.9354  132.2834  153.6277 H   0  0  0  0  0  0  0  0  0  0  0  0
  144.4182  132.6767  155.2735 H   0  0  0  0  0  0  0  0  0  0  0  0
  144.6109  134.7762  154.4275 H   0  0  0  0  0  0  0  0  0  0  0  0
  145.9833  135.1423  153.4191 H   0  0  0  0  0  0  0  0  0  0  0  0
  142.5626  135.9805  153.3101 H   0  0  0  0  0  0  0  0  0  0  0  0
  141.2303  135.0551  152.6443 H   0  0  0  0  0  0  0  0  0  0  0  0
  142.4268  133.4893  154.3687 H   0  0  0  0  0  0  0  0  0  0  0  0
  143.3895  132.2046  148.6415 H   0  0  0  0  0  0  0  0  0  0  0  0
  145.6804  131.3035  148.2068 H   0  0  0  0  0  0  0  0  0  0  0  0
  147.5085  131.6494  149.8278 H   0  0  0  0  0  0  0  0  0  0  0  0
  147.1320  132.9046  151.9425 H   0  0  0  0  0  0  0  0  0  0  0  0
  147.1775  135.4630  155.1658 H   0  0  0  0  0  0  0  0  0  0  0  0
  141.9434  133.7003  150.6363 H   0  0  0  0  0  0  0  0  0  0  0  0
  1  2  1  0  0  0  0
  1 25  1  0  0  0  0
  1 26  1  0  0  0  0
  1 27  1  0  0  0  0
  2  3  1  0  0  0  0
  3 24  1  0  0  0  0
  3  4  2  0  0  0  0
  4  5  1  0  0  0  0
  4 28  1  0  0  0  0
  5  6  2  0  0  0  0
  5 29  1  0  0  0  0
  6  7  1  0  0  0  0
  6  9  1  0  0  0  0
  7  8  1  0  0  0  0
  8 30  1  0  0  0  0
  8 31  1  0  0  0  0
  8 32  1  0  0  0  0
  9 10  1  0  0  0  0
  9 24  2  0  0  0  0
 10 11  1  0  0  0  0
 10 12  1  0  0  0  0
 10 33  1  0  0  0  0
 11 34  1  0  0  0  0
 12 13  1  0  0  0  0
 12 35  1  0  0  0  0
 12 36  1  0  0  0  0
 13 23  1  0  0  0  0
 13 14  1  0  0  0  0
 14 15  1  0  0  0  0
 14 17  2  0  0  0  0
 15 16  1  0  0  0  0
 15 37  1  0  0  0  0
 15 38  1  0  0  0  0
 16 39  1  0  0  0  0
 17 18  1  0  0  0  0
 17 45  1  0  0  0  0
 18 23  2  0  0  0  0
 18 19  1  0  0  0  0
 19 20  2  0  0  0  0
 19 40  1  0  0  0  0
 20 21  1  0  0  0  0
 20 41  1  0  0  0  0
 21 22  2  0  0  0  0
 21 42  1  0  0  0  0
 22 23  1  0  0  0  0
 22 43  1  0  0  0  0
 24 44  1  0  0  0  0
M  CHG  1  17   1
M  END
> <s_m_source_file>
AV-unprocessed.smi

> <i_m_source_file_index>
2057

> <i_lp_mmshare_version>
43012

> <i_f3d_flags>
0

> <s_epik_input>
W0NIM11PYzFbY0hdW2NIXWMoT1tDSDNdKWMoW2NIXTEpW0NASF0oW09IXSlbQ0gyXW4oYyhuMilbQ0gyXVtPSF0pYyhjMjMpW2NIXVtjSF1bY0hdW2NIXTM=

> <s_epik_cmdline>
J2VwaWtfcHl0aG9uJywgJy1waCcsICc3LjAnLCAnLXRuJywgJzgnLCAnLW1hJywgJzIwMCcsICctbWV0YWxfYmluZGluZycsICctaW1hZScsICc8aW5maWxlLm1hZT4nLCAnLW9tYWUnLCAnPG91dGZpbGUubWFlPic=

> <r_lp_tautomer_probability>
1

> <r_epik_Ionization_Penalty>
1.35643

> <r_epik_Ionization_Penalty_Charging>
1.35557

> <r_epik_Ionization_Penalty_Neutral>
0.000857128

> <r_epik_State_Penalty>
1.43401

> <r_epik_Charging_Adjusted_Penalty>
2.78958

> <i_epik_Tot_Q>
1

> <i_epik_Tot_abs_Q>
1

> <r_epik_Metal_State_Penalty>
5.47166

> <b_epik_Metal_Only>
0

> <s_lp_Force_Field>
OPLS_2005

> <r_lp_Energy>
20.8596

> <b_lp_Chiralities_Consistent>
1

> <s_lp_Variant>
AV-unprocessed.smi:2057-4

> <Gold.Version>
5.8.1

> <Gold.Id.Protein>
6NUR|6NUR_protein|mol2

> <Gold.PLP.Fitness>
50.7836

> <Gold.PLP.PLP>
-38.8034

> <Gold.PLP.part.hbond>
-3.9617

> <Gold.PLP.part.metal>
0.0000

> <Gold.PLP.part.buried>
-3.2321

> <Gold.PLP.part.nonpolar>
-32.3129

> <Gold.PLP.part.repulsive>
0.1456

> <Gold.PLP.ligand.clash>
0.0000

> <Gold.PLP.ligand.torsion>
1.5820

> <Gold.PLP.Chemscore.Hbond>
4.9840

> <Gold.PLP.Chemscore.CHOScore>
0.0000

> <Gold.PLP.Chemscore.Metal>
0.0000

> <Gold.Chemscore.Hbonds>
donor molecule, donor type, donor heavy atom, donor atom, acceptor molecule, acceptor atom, score
      L1  H    11    34       P1 10957  1.00
      L1  H    16    39       P1 10957  1.00
      L1  H    17    45       P1 10186  1.89
      P1  H 11000 11005       L1    16  0.94

> <Gold.PLP.Chemscore.Internal.Correction>
0.1922

> <Gold.Rescore>
     Score         DG    S(hbond)    S(metal)    S(lipo)     H(rot)  DE(clash)    DE(int)     intcor
     17.82     -20.95       3.59        0.00     100.77       3.25       1.58       1.54       ----

> <Gold.Chemscore.Fitness>
17.8238

> <Gold.Chemscore.DG>
-20.9465

> <Gold.Chemscore.ZeroCoef>
-5.4800

> <Gold.Chemscore.Hbond>
3.5947

> <Gold.Chemscore.Metal>
0.0000

> <Gold.Chemscore.Lipo>
100.7674

> <Gold.Chemscore.Internal_Hbond>
0.0000

> <Gold.Chemscore.DEClash>
1.5848

> <Gold.Chemscore.DEInternal>
1.5379

> <Gold.Chemscore.Rot>
3.2537

> <Gold.Chemscore.Internal.Correction>
   9.000000E+99

> <Gold.Chemscore.Hbonds>
donor molecule, donor type, donor heavy atom, donor atom, acceptor molecule, acceptor atom, score
      L1  H    11    34       P1 10957  0.93
      L1  H    16    39       P1 10957  0.98
      L1  H    17    45       P1 10186  0.70
      P1  H 11000 11005       L1    16  0.23

> <Gold.Chemscore.Hbond.Weighted>
-12.0062

> <Gold.Chemscore.Metal.Weighted>
-0.0000

> <Gold.Chemscore.Lipo.Weighted>
-11.7898

> <Gold.Chemscore.Internal_Hbond.Weighted>
0.0000

> <Gold.Chemscore.DEClash.Weighted>
1.5848

> <Gold.Chemscore.DEInternal.Weighted>
1.5379

> <Gold.Chemscore.Rot.Weighted>
8.3295

> <Gold.Chemscore.Internal.Correction.Weighted>
   9.000000E+99

> <Gold.Protein.RotatedTorsions>
[ 6907 6896 6895 6894 ] final -116.34 input  -60.11 | X-H torsion
[ 7974 7965 7964 7962 ] final  -35.42 input  175.53 | X-H torsion
[ 8008 7997 7996 7995 ] final -145.52 input   59.86 | X-H torsion
[ 10167 10162 10161 10158 ] final  149.34 input  -65.29 | X-H torsion
[ 10718 10713 10712 10709 ] final   -5.53 input   66.30 | X-H torsion
[ 10763 10752 10751 10750 ] final  -22.58 input  -60.55 | X-H torsion
[ 11005 11000 10999 10996 ] final    3.97 input  -57.11 | X-H torsion

> <Gold.Protein.ActiveResidues>
 VAL166  LYS551  ARG553  GLY616  TRP617  ASP618  TYR619  PRO620  LYS621  CYS622 
 ASP623  PHE694  ASN695  SER759  ASP760  ASP761  ALA762  ILE779  LEU786  VAL792 
 PHE793  MET794  SER795  GLU796  ALA797  LYS798  CYS799  TRP800  GLU811  SER814 

> <Gold.Protein.RotatedAtoms>
  150.8048  133.8530  159.3210 H   0  0  0  0  0  0  0  0  0  0  0  0  # atno 6907 bound_to 6896
  151.6332  135.1019  160.0135 H   0  0  0  0  0  0  0  0  0  0  0  0  # atno 6908 bound_to 6896
  152.4138  133.6966  159.6456 H   0  0  0  0  0  0  0  0  0  0  0  0  # atno 6909 bound_to 6896
  146.0748  140.6156  142.8935 H   0  0  0  0  0  0  0  0  0  0  0  0  # atno 7974 bound_to 7965
  155.5444  140.0611  157.2863 H   0  0  0  0  0  0  0  0  0  0  0  0  # atno 8008 bound_to 7997
  154.4441  140.1913  156.0668 H   0  0  0  0  0  0  0  0  0  0  0  0  # atno 8009 bound_to 7997
  156.0561  140.3278  155.7411 H   0  0  0  0  0  0  0  0  0  0  0  0  # atno 8010 bound_to 7997
  139.4863  144.5609  151.7233 H   0  0  0  0  0  0  0  0  0  0  0  0  # atno 10167 bound_to 10162
  156.7452  130.5222  149.5815 H   0  0  0  0  0  0  0  0  0  0  0  0  # atno 10718 bound_to 10713
  153.6542  135.6979  153.5199 H   0  0  0  0  0  0  0  0  0  0  0  0  # atno 10763 bound_to 10752
  153.2683  135.4223  155.0961 H   0  0  0  0  0  0  0  0  0  0  0  0  # atno 10764 bound_to 10752
  154.8469  135.3572  154.6086 H   0  0  0  0  0  0  0  0  0  0  0  0  # atno 10765 bound_to 10752
  140.5871  133.9958  155.8072 H   0  0  0  0  0  0  0  0  0  0  0  0  # atno 11005 bound_to 11000
  144.7254  140.4509  143.6977 LP  0  0  0  0  0  0  0  0  0  0  0  0  # atno 17320 bound_to 7965
  145.6326  139.1538  143.2961 LP  0  0  0  0  0  0  0  0  0  0  0  0  # atno 17321 bound_to 7965
  140.5178  144.0925  150.6013 LP  0  0  0  0  0  0  0  0  0  0  0  0  # atno 17342 bound_to 10162
  140.3873  143.2771  152.0101 LP  0  0  0  0  0  0  0  0  0  0  0  0  # atno 17343 bound_to 10162
  156.1438  130.6263  151.0503 LP  0  0  0  0  0  0  0  0  0  0  0  0  # atno 17370 bound_to 10713
  157.6801  131.0840  150.7392 LP  0  0  0  0  0  0  0  0  0  0  0  0  # atno 17371 bound_to 10713
  141.0959  133.9845  157.3161 LP  0  0  0  0  0  0  0  0  0  0  0  0  # atno 17394 bound_to 11000
  139.9291  135.0200  156.8337 LP  0  0  0  0  0  0  0  0  0  0  0  0  # atno 17395 bound_to 11000

$$$$
