AV-unprocessed.smi:862|AV-procd|sdf|3978|dock6
  -GOLD-   22720 1453D 1   1.00000     0.00000
 Structure written by MMmdl.
 44 46  0  0  0  0  0  0  0  0  2 V2000
  142.4832  134.2217  153.4523 N   0  0  0  0  0  0  0  0  0  0  0  0
  143.1368  134.2754  152.2880 C   0  0  0  0  0  0  0  0  0  0  0  0
  143.3028  133.2639  151.6087 O   0  0  0  0  0  0  0  0  0  0  0  0
  143.5520  135.5115  151.9126 N   0  0  0  0  0  0  0  0  0  0  0  0
  143.2462  136.7763  152.6013 C   0  0  0  0  0  0  0  0  0  0  0  0
  144.4975  137.2390  153.3704 C   0  0  0  0  0  0  0  0  0  0  0  0
  145.7150  137.3805  152.4267 C   0  0  0  0  0  0  0  0  0  0  0  0
  146.9578  137.6637  153.1784 N   0  3  0  0  0  0  0  0  0  0  0  0
  147.3867  139.0822  153.2259 C   0  0  2  0  0  0  0  0  0  0  0  0
  148.7265  139.2958  153.9398 C   0  0  0  0  0  0  0  0  0  0  0  0
  148.7121  140.7633  154.3888 C   0  0  0  0  0  0  0  0  0  0  0  0
  147.2485  141.2336  154.3181 C   0  0  0  0  0  0  0  0  0  0  0  0
  146.4010  139.9959  153.9779 C   0  0  2  0  0  0  0  0  0  0  0  0
  145.8222  139.3731  155.1675 N   0  0  0  0  0  0  0  0  0  0  0  0
  146.4571  138.6218  156.1528 C   0  0  0  0  0  0  0  0  0  0  0  0
  145.4826  138.2243  157.0396 C   0  0  0  0  0  0  0  0  0  0  0  0
  144.2453  138.7025  156.6193 N   0  0  0  0  0  0  0  0  0  0  0  0
  144.5253  139.3716  155.5093 C   0  0  0  0  0  0  0  0  0  0  0  0
  145.8995  136.1068  151.5754 C   0  0  0  0  0  0  0  0  0  0  0  0
  144.5839  135.7027  150.8866 C   0  0  0  0  0  0  0  0  0  0  0  0
  142.1340  133.3354  153.7877 H   0  0  0  0  0  0  0  0  0  0  0  0
  142.3291  135.0643  153.9857 H   0  0  0  0  0  0  0  0  0  0  0  0
  142.9655  137.5271  151.8613 H   0  0  0  0  0  0  0  0  0  0  0  0
  142.3981  136.7133  153.2830 H   0  0  0  0  0  0  0  0  0  0  0  0
  144.2825  138.1855  153.8661 H   0  0  0  0  0  0  0  0  0  0  0  0
  144.7215  136.5196  154.1598 H   0  0  0  0  0  0  0  0  0  0  0  0
  145.5267  138.2043  151.7375 H   0  0  0  0  0  0  0  0  0  0  0  0
  146.8318  137.3308  154.1236 H   0  0  0  0  0  0  0  0  0  0  0  0
  147.4718  139.4656  152.2087 H   0  0  0  0  0  0  0  0  0  0  0  0
  148.7974  138.6462  154.8132 H   0  0  0  0  0  0  0  0  0  0  0  0
  149.5806  139.0740  153.2993 H   0  0  0  0  0  0  0  0  0  0  0  0
  149.1157  140.8633  155.3969 H   0  0  0  0  0  0  0  0  0  0  0  0
  149.3325  141.3736  153.7313 H   0  0  0  0  0  0  0  0  0  0  0  0
  146.9264  141.7300  155.2343 H   0  0  0  0  0  0  0  0  0  0  0  0
  147.1513  141.9662  153.5159 H   0  0  0  0  0  0  0  0  0  0  0  0
  145.5748  140.2792  153.3236 H   0  0  0  0  0  0  0  0  0  0  0  0
  147.5206  138.4355  156.1505 H   0  0  0  0  0  0  0  0  0  0  0  0
  145.5756  137.6308  157.9371 H   0  0  0  0  0  0  0  0  0  0  0  0
  143.7639  139.8666  154.9244 H   0  0  0  0  0  0  0  0  0  0  0  0
  146.6752  136.2671  150.8255 H   0  0  0  0  0  0  0  0  0  0  0  0
  146.2427  135.2838  152.2045 H   0  0  0  0  0  0  0  0  0  0  0  0
  144.7385  134.8117  150.2761 H   0  0  0  0  0  0  0  0  0  0  0  0
  144.2663  136.4829  150.1932 H   0  0  0  0  0  0  0  0  0  0  0  0
  147.7092  137.1367  152.7562 H   0  0  0  0  0  0  0  0  0  0  0  0
  1  2  1  0  0  0  0
  1 21  1  0  0  0  0
  1 22  1  0  0  0  0
  2  3  2  0  0  0  0
  2  4  1  0  0  0  0
  4 20  1  0  0  0  0
  4  5  1  0  0  0  0
  5  6  1  0  0  0  0
  5 23  1  0  0  0  0
  5 24  1  0  0  0  0
  6  7  1  0  0  0  0
  6 25  1  0  0  0  0
  6 26  1  0  0  0  0
  7  8  1  0  0  0  0
  7 19  1  0  0  0  0
  7 27  1  0  0  0  0
  8  9  1  0  0  0  0
  8 28  1  0  0  0  0
  8 44  1  0  0  0  0
  9 13  1  0  0  0  0
  9 10  1  0  0  0  0
  9 29  1  0  0  0  0
 10 11  1  0  0  0  0
 10 30  1  0  0  0  0
 10 31  1  0  0  0  0
 11 12  1  0  0  0  0
 11 32  1  0  0  0  0
 11 33  1  0  0  0  0
 12 13  1  0  0  0  0
 12 34  1  0  0  0  0
 12 35  1  0  0  0  0
 13 14  1  0  0  0  0
 13 36  1  0  0  0  0
 14 18  1  0  0  0  0
 14 15  1  0  0  0  0
 15 16  2  0  0  0  0
 15 37  1  0  0  0  0
 16 17  1  0  0  0  0
 16 38  1  0  0  0  0
 17 18  2  0  0  0  0
 18 39  1  0  0  0  0
 19 20  1  0  0  0  0
 19 40  1  0  0  0  0
 19 41  1  0  0  0  0
 20 42  1  0  0  0  0
 20 43  1  0  0  0  0
M  CHG  1   8   1
M  END
> <s_m_source_file>
AV-unprocessed.smi

> <i_m_source_file_index>
862

> <i_lp_mmshare_version>
43012

> <i_f3d_flags>
0

> <s_epik_input>
W05IMl1DKD1PKU4xW0NIMl1bQ0gyXVtDSF0oW0NIMl1bQ0gyXTEpW05IXVtDQEBIXTJbQ0gyXVtDSDJdW0NIMl1bQ0BIXTJuM1tjSF1bY0hdbltjSF0z

> <s_epik_cmdline>
J2VwaWtfcHl0aG9uJywgJy1waCcsICc3LjAnLCAnLXRuJywgJzgnLCAnLW1hJywgJzIwMCcsICctbWV0YWxfYmluZGluZycsICctaW1hZScsICc8aW5maWxlLm1hZT4nLCAnLW9tYWUnLCAnPG91dGZpbGUubWFlPic=

> <r_lp_tautomer_probability>
1

> <r_epik_Ionization_Penalty>
0.0731506

> <r_epik_Ionization_Penalty_Charging>
0.0731

> <r_epik_Ionization_Penalty_Neutral>
5.05966e-05

> <r_epik_State_Penalty>
0.128895

> <r_epik_Charging_Adjusted_Penalty>
0.201995

> <i_epik_Tot_Q>
1

> <i_epik_Tot_abs_Q>
1

> <r_epik_Metal_State_Penalty>
0.113934

> <b_epik_Metal_Only>
0

> <s_lp_Force_Field>
OPLS_2005

> <r_lp_Energy>
57.2527

> <b_lp_Chiralities_Consistent>
1

> <s_lp_Variant>
AV-unprocessed.smi:862-3

> <Gold.Version>
5.8.1

> <Gold.Id.Protein>
6NUR|6NUR_protein|mol2

> <Gold.PLP.Fitness>
34.8855

> <Gold.PLP.PLP>
-25.1260

> <Gold.PLP.part.hbond>
-2.0000

> <Gold.PLP.part.metal>
0.0000

> <Gold.PLP.part.buried>
-0.0714

> <Gold.PLP.part.nonpolar>
-23.3146

> <Gold.PLP.part.repulsive>
0.3114

> <Gold.PLP.ligand.clash>
0.0000

> <Gold.PLP.ligand.torsion>
0.9727

> <Gold.PLP.Chemscore.Hbond>
2.8800

> <Gold.PLP.Chemscore.CHOScore>
1.0000

> <Gold.PLP.Chemscore.Metal>
0.0000

> <Gold.Chemscore.Hbonds>
donor molecule, donor type, donor heavy atom, donor atom, acceptor molecule, acceptor atom, score
      L1  H     1    21       P1 10957  0.86
      L1  H     8    44       P1  7948  2.00
      L1  C    18    39       P1 10175  1.00

> <Gold.PLP.Chemscore.Internal.Correction>
0.0648

> <Gold.Rescore>
     Score         DG    S(hbond)    S(metal)    S(lipo)     H(rot)  DE(clash)    DE(int)     intcor
     12.53     -14.00       1.92        0.00      53.91       1.64       0.48       0.98       ----

> <Gold.Chemscore.Fitness>
12.5345

> <Gold.Chemscore.DG>
-13.9958

> <Gold.Chemscore.ZeroCoef>
-5.4800

> <Gold.Chemscore.Hbond>
1.9189

> <Gold.Chemscore.Metal>
0.0000

> <Gold.Chemscore.Lipo>
53.9144

> <Gold.Chemscore.Internal_Hbond>
0.0000

> <Gold.Chemscore.DEClash>
0.4773

> <Gold.Chemscore.DEInternal>
0.9840

> <Gold.Chemscore.Rot>
1.6411

> <Gold.Chemscore.Internal.Correction>
   9.000000E+99

> <Gold.Chemscore.Hbonds>
donor molecule, donor type, donor heavy atom, donor atom, acceptor molecule, acceptor atom, score
      L1  H     1    21       P1 10957  0.84
      L1  H     8    44       P1  7948  1.00

> <Gold.Chemscore.Hbond.Weighted>
-6.4092

> <Gold.Chemscore.Metal.Weighted>
-0.0000

> <Gold.Chemscore.Lipo.Weighted>
-6.3080

> <Gold.Chemscore.Internal_Hbond.Weighted>
0.0000

> <Gold.Chemscore.DEClash.Weighted>
0.4773

> <Gold.Chemscore.DEInternal.Weighted>
0.9840

> <Gold.Chemscore.Rot.Weighted>
4.2013

> <Gold.Chemscore.Internal.Correction.Weighted>
   9.000000E+99

> <Gold.Protein.RotatedTorsions>
[ 6907 6896 6895 6894 ] final   60.31 input  -60.11 | X-H torsion
[ 7974 7965 7964 7962 ] final   18.44 input  175.53 | X-H torsion
[ 8008 7997 7996 7995 ] final   68.33 input   59.86 | X-H torsion
[ 10167 10162 10161 10158 ] final   83.63 input  -65.29 | X-H torsion
[ 10718 10713 10712 10709 ] final -115.16 input   66.30 | X-H torsion
[ 10763 10752 10751 10750 ] final  148.61 input  -60.55 | X-H torsion
[ 11005 11000 10999 10996 ] final -119.43 input  -57.11 | X-H torsion

> <Gold.Protein.ActiveResidues>
 VAL166  LYS551  ARG553  GLY616  TRP617  ASP618  TYR619  PRO620  LYS621  CYS622 
 ASP623  PHE694  ASN695  SER759  ASP760  ASP761  ALA762  ILE779  LEU786  VAL792 
 PHE793  MET794  SER795  GLU796  ALA797  LYS798  CYS799  TRP800  GLU811  SER814 

> <Gold.Protein.RotatedAtoms>
  152.3992  134.6315  160.0076 H   0  0  0  0  0  0  0  0  0  0  0  0  # atno 6907 bound_to 6896
  151.6525  133.3314  159.3163 H   0  0  0  0  0  0  0  0  0  0  0  0  # atno 6908 bound_to 6896
  150.7895  134.6949  159.6562 H   0  0  0  0  0  0  0  0  0  0  0  0  # atno 6909 bound_to 6896
  146.2185  139.8456  142.8632 H   0  0  0  0  0  0  0  0  0  0  0  0  # atno 7974 bound_to 7965
  155.7066  140.3495  155.4956 H   0  0  0  0  0  0  0  0  0  0  0  0  # atno 8008 bound_to 7997
  155.9393  140.1098  157.1091 H   0  0  0  0  0  0  0  0  0  0  0  0  # atno 8009 bound_to 7997
  154.4099  140.1216  156.4892 H   0  0  0  0  0  0  0  0  0  0  0  0  # atno 8010 bound_to 7997
  139.9164  144.6240  150.8485 H   0  0  0  0  0  0  0  0  0  0  0  0  # atno 10167 bound_to 10162
  156.0877  130.6065  150.8869 H   0  0  0  0  0  0  0  0  0  0  0  0  # atno 10718 bound_to 10713
  154.0575  135.2877  155.3330 H   0  0  0  0  0  0  0  0  0  0  0  0  # atno 10763 bound_to 10752
  154.6829  135.5256  153.8291 H   0  0  0  0  0  0  0  0  0  0  0  0  # atno 10764 bound_to 10752
  153.0536  135.6586  154.0766 H   0  0  0  0  0  0  0  0  0  0  0  0  # atno 10765 bound_to 10752
  141.0216  134.0116  157.3274 H   0  0  0  0  0  0  0  0  0  0  0  0  # atno 11005 bound_to 11000
  145.2853  141.0151  143.3694 LP  0  0  0  0  0  0  0  0  0  0  0  0  # atno 17320 bound_to 7965
  144.9118  139.4519  143.6583 LP  0  0  0  0  0  0  0  0  0  0  0  0  # atno 17321 bound_to 7965
  140.7673  143.3328  151.2373 LP  0  0  0  0  0  0  0  0  0  0  0  0  # atno 17342 bound_to 10162
  139.6899  143.9710  152.2853 LP  0  0  0  0  0  0  0  0  0  0  0  0  # atno 17343 bound_to 10162
  157.6017  131.0941  150.8949 LP  0  0  0  0  0  0  0  0  0  0  0  0  # atno 17370 bound_to 10713
  156.9106  130.5279  149.5280 LP  0  0  0  0  0  0  0  0  0  0  0  0  # atno 17371 bound_to 10713
  139.9150  135.0195  156.7843 LP  0  0  0  0  0  0  0  0  0  0  0  0  # atno 17394 bound_to 11000
  140.6563  133.9686  155.7781 LP  0  0  0  0  0  0  0  0  0  0  0  0  # atno 17395 bound_to 11000

$$$$
