AV-unprocessed.smi:2007|AV-procd|sdf|8140|dock1
  -GOLD-   2272010373D 1   1.00000     0.00000
 Structure written by MMmdl.
 36 37  0  0  0  0  0  0  0  0  3 V2000
  150.8158  140.3580  155.4094 C   0  0  0  0  0  0  0  0  0  0  0  0
  150.0223  141.6506  155.6418 C   0  0  1  0  0  0  0  0  0  0  0  0
  148.6058  141.3567  156.1873 C   0  0  0  0  0  0  0  0  0  0  0  0
  147.5804  142.2781  155.6363 N   0  3  0  0  0  0  0  0  0  0  0  0
  147.1941  141.9745  154.2383 C   0  0  0  0  0  0  0  0  0  0  0  0
  146.2300  143.0532  153.7181 C   0  0  0  0  0  0  0  0  0  0  0  0
  145.0879  143.1170  154.5650 O   0  0  0  0  0  0  0  0  0  0  0  0
  145.4318  143.4692  155.9006 C   0  0  0  0  0  0  0  0  0  0  0  0
  146.3782  142.4092  156.4900 C   0  0  0  0  0  0  0  0  0  0  0  0
  150.7620  142.5151  156.5641 N   0  0  0  0  0  0  0  0  0  0  0  0
  151.0462  142.2568  157.8499 C   0  0  0  0  0  0  0  0  0  0  0  0
  150.6051  141.2390  158.3881 O   0  0  0  0  0  0  0  0  0  0  0  0
  151.8521  143.1771  158.4225 N   0  5  0  0  0  0  0  0  0  0  0  0
  152.2607  143.0097  159.6907 C   0  0  0  0  0  0  0  0  0  0  0  0
  151.8645  143.8020  160.6939 N   0  0  0  0  0  0  0  0  0  0  0  0
  152.4103  143.4478  161.9291 C   0  0  0  0  0  0  0  0  0  0  0  0
  153.2362  142.3570  161.8652 C   0  0  0  0  0  0  0  0  0  0  0  0
  153.3536  141.7382  160.2425 S   0  0  0  0  0  0  0  0  0  0  0  0
  150.3013  139.7042  154.7049 H   0  0  0  0  0  0  0  0  0  0  0  0
  150.9551  139.8034  156.3381 H   0  0  0  0  0  0  0  0  0  0  0  0
  151.8031  140.5724  154.9985 H   0  0  0  0  0  0  0  0  0  0  0  0
  149.9326  142.1440  154.6733 H   0  0  0  0  0  0  0  0  0  0  0  0
  148.3198  140.3212  155.9964 H   0  0  0  0  0  0  0  0  0  0  0  0
  148.6333  141.4692  157.2722 H   0  0  0  0  0  0  0  0  0  0  0  0
  148.0768  141.9345  153.6005 H   0  0  0  0  0  0  0  0  0  0  0  0
  146.7211  140.9926  154.1908 H   0  0  0  0  0  0  0  0  0  0  0  0
  146.7221  144.0265  153.6743 H   0  0  0  0  0  0  0  0  0  0  0  0
  145.9070  142.8131  152.7051 H   0  0  0  0  0  0  0  0  0  0  0  0
  145.8952  144.4572  155.9198 H   0  0  0  0  0  0  0  0  0  0  0  0
  144.5210  143.5333  156.4959 H   0  0  0  0  0  0  0  0  0  0  0  0
  145.8717  141.4456  156.5643 H   0  0  0  0  0  0  0  0  0  0  0  0
  146.6693  142.7012  157.4998 H   0  0  0  0  0  0  0  0  0  0  0  0
  151.1365  143.3701  156.1784 H   0  0  0  0  0  0  0  0  0  0  0  0
  152.1545  144.0277  162.8034 H   0  0  0  0  0  0  0  0  0  0  0  0
  153.7790  141.8812  162.6679 H   0  0  0  0  0  0  0  0  0  0  0  0
  148.0132  143.1920  155.6256 H   0  0  0  0  0  0  0  0  0  0  0  0
  1  2  1  0  0  0  0
  1 19  1  0  0  0  0
  1 20  1  0  0  0  0
  1 21  1  0  0  0  0
  2  3  1  0  0  0  0
  2 10  1  0  0  0  0
  2 22  1  0  0  0  0
  3  4  1  0  0  0  0
  3 23  1  0  0  0  0
  3 24  1  0  0  0  0
  4  9  1  0  0  0  0
  4  5  1  0  0  0  0
  4 36  1  0  0  0  0
  5  6  1  0  0  0  0
  5 25  1  0  0  0  0
  5 26  1  0  0  0  0
  6  7  1  0  0  0  0
  6 27  1  0  0  0  0
  6 28  1  0  0  0  0
  7  8  1  0  0  0  0
  8  9  1  0  0  0  0
  8 29  1  0  0  0  0
  8 30  1  0  0  0  0
  9 31  1  0  0  0  0
  9 32  1  0  0  0  0
 10 11  1  0  0  0  0
 10 33  1  0  0  0  0
 11 12  2  0  0  0  0
 11 13  1  0  0  0  0
 13 14  1  0  0  0  0
 14 18  1  0  0  0  0
 14 15  2  0  0  0  0
 15 16  1  0  0  0  0
 16 17  2  0  0  0  0
 16 34  1  0  0  0  0
 17 18  1  0  0  0  0
 17 35  1  0  0  0  0
M  CHG  1   4   1
M  CHG  1  13  -1
M  END
> <s_m_source_file>
AV-unprocessed.smi

> <i_m_source_file_index>
2007

> <i_lp_mmshare_version>
43012

> <i_f3d_flags>
0

> <s_epik_input>
W0NIMl0xW0NIMl1PW0NIMl1bQ0gyXU4xW0NIMl1bQ0BASF0oW0NIM10pW05IXUMoPU8pW05IXWMybltjSF1bY0hdczI=

> <s_epik_cmdline>
J2VwaWtfcHl0aG9uJywgJy1waCcsICc3LjAnLCAnLXRuJywgJzgnLCAnLW1hJywgJzIwMCcsICctbWV0YWxfYmluZGluZycsICctaW1hZScsICc8aW5maWxlLm1hZT4nLCAnLW9tYWUnLCAnPG91dGZpbGUubWFlPic=

> <r_lp_tautomer_probability>
0.999

> <r_epik_Ionization_Penalty>
6.49226

> <r_epik_Ionization_Penalty_Charging>
5.74393

> <r_epik_Ionization_Penalty_Neutral>
0.748321

> <r_epik_State_Penalty>
5.94164

> <r_epik_Charging_Adjusted_Penalty>
11.6856

> <i_epik_Tot_Q>
0

> <i_epik_Tot_abs_Q>
2

> <r_epik_Metal_State_Penalty>
1.97606

> <b_epik_Metal_Only>
1

> <s_lp_Force_Field>
OPLS_2005

> <r_lp_Energy>
10.1675

> <b_lp_Chiralities_Consistent>
1

> <s_lp_Variant>
AV-unprocessed.smi:2007-8

> <Gold.Version>
5.8.1

> <Gold.Id.Protein>
6NUR|6NUR_protein|mol2

> <Gold.PLP.Fitness>
42.2575

> <Gold.PLP.PLP>
-38.8316

> <Gold.PLP.part.hbond>
-2.0000

> <Gold.PLP.part.metal>
0.0000

> <Gold.PLP.part.buried>
-5.7504

> <Gold.PLP.part.nonpolar>
-30.8512

> <Gold.PLP.part.repulsive>
0.4736

> <Gold.PLP.ligand.clash>
0.0000

> <Gold.PLP.ligand.torsion>
1.3308

> <Gold.PLP.Chemscore.Hbond>
2.0000

> <Gold.PLP.Chemscore.CHOScore>
0.0000

> <Gold.PLP.Chemscore.Metal>
0.0000

> <Gold.Chemscore.Hbonds>
donor molecule, donor type, donor heavy atom, donor atom, acceptor molecule, acceptor atom, score
      L1  H     4    36       P1  8028  2.00

> <Gold.PLP.Chemscore.Internal.Correction>
0.0876

> <Gold.Rescore>
     Score         DG    S(hbond)    S(metal)    S(lipo)     H(rot)  DE(clash)    DE(int)     intcor
     10.54     -13.06       0.96        0.00      72.43       1.60       0.03       2.49       ----

> <Gold.Chemscore.Fitness>
10.5406

> <Gold.Chemscore.DG>
-13.0567

> <Gold.Chemscore.ZeroCoef>
-5.4800

> <Gold.Chemscore.Hbond>
0.9569

> <Gold.Chemscore.Metal>
0.0000

> <Gold.Chemscore.Lipo>
72.4297

> <Gold.Chemscore.Internal_Hbond>
0.0000

> <Gold.Chemscore.DEClash>
0.0291

> <Gold.Chemscore.DEInternal>
2.4870

> <Gold.Chemscore.Rot>
1.5991

> <Gold.Chemscore.Internal.Correction>
   9.000000E+99

> <Gold.Chemscore.Hbonds>
donor molecule, donor type, donor heavy atom, donor atom, acceptor molecule, acceptor atom, score
      L1  H     4    36       P1  8028  0.70

> <Gold.Chemscore.Hbond.Weighted>
-3.1961

> <Gold.Chemscore.Metal.Weighted>
-0.0000

> <Gold.Chemscore.Lipo.Weighted>
-8.4743

> <Gold.Chemscore.Internal_Hbond.Weighted>
0.0000

> <Gold.Chemscore.DEClash.Weighted>
0.0291

> <Gold.Chemscore.DEInternal.Weighted>
2.4870

> <Gold.Chemscore.Rot.Weighted>
4.0936

> <Gold.Chemscore.Internal.Correction.Weighted>
   9.000000E+99

> <Gold.Protein.RotatedTorsions>
[ 6907 6896 6895 6894 ] final -108.26 input  -60.11 | X-H torsion
[ 7974 7965 7964 7962 ] final   82.80 input  175.53 | X-H torsion
[ 8008 7997 7996 7995 ] final  -26.98 input   59.86 | X-H torsion
[ 10167 10162 10161 10158 ] final  132.79 input  -65.29 | X-H torsion
[ 10718 10713 10712 10709 ] final   13.32 input   66.30 | X-H torsion
[ 10763 10752 10751 10750 ] final  -55.88 input  -60.55 | X-H torsion
[ 11005 11000 10999 10996 ] final  -33.76 input  -57.11 | X-H torsion

> <Gold.Protein.ActiveResidues>
 VAL166  LYS551  ARG553  GLY616  TRP617  ASP618  TYR619  PRO620  LYS621  CYS622 
 ASP623  PHE694  ASN695  SER759  ASP760  ASP761  ALA762  ILE779  LEU786  VAL792 
 PHE793  MET794  SER795  GLU796  ALA797  LYS798  CYS799  TRP800  GLU811  SER814 

> <Gold.Protein.RotatedAtoms>
  150.7491  133.9704  159.3543 H   0  0  0  0  0  0  0  0  0  0  0  0  # atno 6907 bound_to 6896
  151.7637  135.0801  160.0359 H   0  0  0  0  0  0  0  0  0  0  0  0  # atno 6908 bound_to 6896
  152.3386  133.6003  159.5896 H   0  0  0  0  0  0  0  0  0  0  0  0  # atno 6909 bound_to 6896
  145.6203  139.2384  143.2142 H   0  0  0  0  0  0  0  0  0  0  0  0  # atno 7974 bound_to 7965
  154.4399  140.1885  156.0860 H   0  0  0  0  0  0  0  0  0  0  0  0  # atno 8008 bound_to 7997
  156.0402  140.3320  155.7209 H   0  0  0  0  0  0  0  0  0  0  0  0  # atno 8009 bound_to 7997
  155.5710  140.0612  157.2797 H   0  0  0  0  0  0  0  0  0  0  0  0  # atno 8010 bound_to 7997
  139.5324  144.6646  151.4902 H   0  0  0  0  0  0  0  0  0  0  0  0  # atno 10167 bound_to 10162
  157.0229  130.6162  149.5724 H   0  0  0  0  0  0  0  0  0  0  0  0  # atno 10718 bound_to 10713
  154.1977  135.6416  153.5078 H   0  0  0  0  0  0  0  0  0  0  0  0  # atno 10763 bound_to 10752
  153.0019  135.5444  154.6348 H   0  0  0  0  0  0  0  0  0  0  0  0  # atno 10764 bound_to 10752
  154.5753  135.2920  155.0760 H   0  0  0  0  0  0  0  0  0  0  0  0  # atno 10765 bound_to 10752
  140.9661  133.7136  156.1448 H   0  0  0  0  0  0  0  0  0  0  0  0  # atno 11005 bound_to 11000
  146.1436  140.7023  142.9355 LP  0  0  0  0  0  0  0  0  0  0  0  0  # atno 17320 bound_to 7965
  144.7234  140.4446  143.6991 LP  0  0  0  0  0  0  0  0  0  0  0  0  # atno 17321 bound_to 7965
  140.6511  143.8694  150.6787 LP  0  0  0  0  0  0  0  0  0  0  0  0  # atno 17342 bound_to 10162
  140.2059  143.3922  152.1755 LP  0  0  0  0  0  0  0  0  0  0  0  0  # atno 17343 bound_to 10162
  156.0096  130.5186  150.7945 LP  0  0  0  0  0  0  0  0  0  0  0  0  # atno 17370 bound_to 10713
  157.5236  131.0933  151.0047 LP  0  0  0  0  0  0  0  0  0  0  0  0  # atno 17371 bound_to 10713
  140.7397  134.4164  157.5556 LP  0  0  0  0  0  0  0  0  0  0  0  0  # atno 17394 bound_to 11000
  139.8895  134.8828  156.2417 LP  0  0  0  0  0  0  0  0  0  0  0  0  # atno 17395 bound_to 11000

$$$$
