AV-unprocessed.smi:2451|AV-procd|sdf|9676|dock10
  -GOLD-   2272013313D 1   1.00000     0.00000
 Structure written by MMmdl.
 38 39  0  0  0  0  0  0  0  0  1 V2000
  152.8210  143.7514  162.6982 C   0  0  0  0  0  0  0  0  0  0  0  0
  152.2458  143.6330  161.2758 C   0  0  1  0  0  0  0  0  0  0  0  0
  151.9875  145.0393  160.6983 C   0  0  0  0  0  0  0  0  0  0  0  0
  151.3883  144.9808  159.2876 C   0  0  0  0  0  0  0  0  0  0  0  0
  152.2869  144.1800  158.3349 C   0  0  0  0  0  0  0  0  0  0  0  0
  152.5923  142.7694  158.8774 C   0  0  2  0  0  0  0  0  0  0  0  0
  151.4031  141.9086  158.7969 N   0  0  0  0  0  0  0  0  0  0  0  0
  151.4874  140.4045  157.9529 S   0  0  0  0  0  0  0  0  0  0  0  0
  152.8979  139.9880  157.9290 O   0  0  0  0  0  0  0  0  0  0  0  0
  150.4630  139.5086  158.5119 O   0  0  0  0  0  0  0  0  0  0  0  0
  150.9752  140.8819  156.2494 C   0  0  0  0  0  0  0  0  0  0  0  0
  151.0025  139.6726  155.3591 C   0  0  0  0  0  0  0  0  0  0  0  0
  152.1251  138.8989  154.9530 C   0  0  0  0  0  0  0  0  0  0  0  0
  151.5766  137.9351  154.1570 C   0  0  0  0  0  0  0  0  0  0  0  0
  150.2310  138.0921  154.0794 O   0  0  0  0  0  0  0  0  0  0  0  0
  149.8736  139.2026  154.8524 N   0  0  0  0  0  0  0  0  0  0  0  0
  153.1528  142.8073  160.3226 C   0  0  2  0  0  0  0  0  0  0  0  0
  153.4737  141.3908  160.8409 C   0  0  0  0  0  0  0  0  0  0  0  0
  153.8200  144.1882  162.6877 H   0  0  0  0  0  0  0  0  0  0  0  0
  152.8827  142.7817  163.1915 H   0  0  0  0  0  0  0  0  0  0  0  0
  152.1902  144.3837  163.3235 H   0  0  0  0  0  0  0  0  0  0  0  0
  151.2836  143.1251  161.3569 H   0  0  0  0  0  0  0  0  0  0  0  0
  151.3126  145.5929  161.3522 H   0  0  0  0  0  0  0  0  0  0  0  0
  152.9204  145.6043  160.6718 H   0  0  0  0  0  0  0  0  0  0  0  0
  150.3966  144.5285  159.3275 H   0  0  0  0  0  0  0  0  0  0  0  0
  151.2490  145.9911  158.9020 H   0  0  0  0  0  0  0  0  0  0  0  0
  151.8365  144.1302  157.3434 H   0  0  0  0  0  0  0  0  0  0  0  0
  153.2269  144.7179  158.2056 H   0  0  0  0  0  0  0  0  0  0  0  0
  153.3589  142.3268  158.2404 H   0  0  0  0  0  0  0  0  0  0  0  0
  150.5851  142.4440  158.5071 H   0  0  0  0  0  0  0  0  0  0  0  0
  149.9738  141.3089  156.2986 H   0  0  0  0  0  0  0  0  0  0  0  0
  151.6515  141.6586  155.8913 H   0  0  0  0  0  0  0  0  0  0  0  0
  153.1673  139.0338  155.2019 H   0  0  0  0  0  0  0  0  0  0  0  0
  151.9909  137.1066  153.6018 H   0  0  0  0  0  0  0  0  0  0  0  0
  154.1078  143.3319  160.2647 H   0  0  0  0  0  0  0  0  0  0  0  0
  152.5662  140.8258  161.0553 H   0  0  0  0  0  0  0  0  0  0  0  0
  154.0689  141.4215  161.7532 H   0  0  0  0  0  0  0  0  0  0  0  0
  154.0499  140.8269  160.1068 H   0  0  0  0  0  0  0  0  0  0  0  0
  1  2  1  0  0  0  0
  1 19  1  0  0  0  0
  1 20  1  0  0  0  0
  1 21  1  0  0  0  0
  2 17  1  0  0  0  0
  2  3  1  0  0  0  0
  2 22  1  0  0  0  0
  3  4  1  0  0  0  0
  3 23  1  0  0  0  0
  3 24  1  0  0  0  0
  4  5  1  0  0  0  0
  4 25  1  0  0  0  0
  4 26  1  0  0  0  0
  5  6  1  0  0  0  0
  5 27  1  0  0  0  0
  5 28  1  0  0  0  0
  6  7  1  0  0  0  0
  6 17  1  0  0  0  0
  6 29  1  0  0  0  0
  7  8  1  0  0  0  0
  7 30  1  0  0  0  0
  8  9  2  0  0  0  0
  8 10  2  0  0  0  0
  8 11  1  0  0  0  0
 11 12  1  0  0  0  0
 11 31  1  0  0  0  0
 11 32  1  0  0  0  0
 12 16  2  0  0  0  0
 12 13  1  0  0  0  0
 13 14  2  0  0  0  0
 13 33  1  0  0  0  0
 14 15  1  0  0  0  0
 14 34  1  0  0  0  0
 15 16  1  0  0  0  0
 17 18  1  0  0  0  0
 17 35  1  0  0  0  0
 18 36  1  0  0  0  0
 18 37  1  0  0  0  0
 18 38  1  0  0  0  0
M  END
> <s_m_source_file>
AV-unprocessed.smi

> <i_m_source_file_index>
2451

> <i_lp_mmshare_version>
43012

> <i_f3d_flags>
0

> <s_epik_input>
W0NIM11bQ0BASF0xW0NIMl1bQ0gyXVtDSDJdW0NASF0oW0NASF0xW0NIM10pW05IXVMoPU8pKD1PKVtDSDJdYzJbY0hdW2NIXW9uMg==

> <s_epik_cmdline>
J2VwaWtfcHl0aG9uJywgJy1waCcsICc3LjAnLCAnLXRuJywgJzgnLCAnLW1hJywgJzIwMCcsICctbWV0YWxfYmluZGluZycsICctaW1hZScsICc8aW5maWxlLm1hZT4nLCAnLW9tYWUnLCAnPG91dGZpbGUubWFlPic=

> <r_lp_tautomer_probability>
1

> <r_epik_Ionization_Penalty>
8.73668e-05

> <r_epik_Ionization_Penalty_Charging>
0

> <r_epik_Ionization_Penalty_Neutral>
8.73668e-05

> <r_epik_State_Penalty>
-0

> <r_epik_Charging_Adjusted_Penalty>
0

> <i_epik_Tot_Q>
0

> <i_epik_Tot_abs_Q>
0

> <r_epik_Metal_State_Penalty>
0.0716439

> <b_epik_Metal_Only>
0

> <s_lp_Force_Field>
OPLS_2005

> <r_lp_Energy>
8.50206

> <b_lp_Chiralities_Consistent>
1

> <s_lp_Variant>
AV-unprocessed.smi:2451-8

> <Gold.Version>
5.8.1

> <Gold.Id.Protein>
6NUR|6NUR_protein|mol2

> <Gold.PLP.Fitness>
49.5083

> <Gold.PLP.PLP>
-46.0071

> <Gold.PLP.part.hbond>
-1.0000

> <Gold.PLP.part.metal>
0.0000

> <Gold.PLP.part.buried>
-5.1485

> <Gold.PLP.part.nonpolar>
-41.2811

> <Gold.PLP.part.repulsive>
0.3834

> <Gold.PLP.ligand.clash>
0.0000

> <Gold.PLP.ligand.torsion>
1.3243

> <Gold.PLP.Chemscore.Hbond>
1.0000

> <Gold.PLP.Chemscore.CHOScore>
1.0000

> <Gold.PLP.Chemscore.Metal>
0.0000

> <Gold.Chemscore.Hbonds>
donor molecule, donor type, donor heavy atom, donor atom, acceptor molecule, acceptor atom, score
      P1  H  7997  8008       L1     9  1.00
      L1  C    14    34       P1  7949  1.00

> <Gold.PLP.Chemscore.Internal.Correction>
0.1496

> <Gold.Rescore>
     Score         DG    S(hbond)    S(metal)    S(lipo)     H(rot)  DE(clash)    DE(int)     intcor
     17.92     -19.44       0.98        0.00     127.51       1.66       0.22       1.30       ----

> <Gold.Chemscore.Fitness>
17.9223

> <Gold.Chemscore.DG>
-19.4380

> <Gold.Chemscore.ZeroCoef>
-5.4800

> <Gold.Chemscore.Hbond>
0.9839

> <Gold.Chemscore.Metal>
0.0000

> <Gold.Chemscore.Lipo>
127.5077

> <Gold.Chemscore.Internal_Hbond>
0.0000

> <Gold.Chemscore.DEClash>
0.2194

> <Gold.Chemscore.DEInternal>
1.2963

> <Gold.Chemscore.Rot>
1.6588

> <Gold.Chemscore.Internal.Correction>
   9.000000E+99

> <Gold.Chemscore.Hbonds>
donor molecule, donor type, donor heavy atom, donor atom, acceptor molecule, acceptor atom, score
      P1  H  7997  8008       L1     9  0.96

> <Gold.Chemscore.Hbond.Weighted>
-3.2862

> <Gold.Chemscore.Metal.Weighted>
-0.0000

> <Gold.Chemscore.Lipo.Weighted>
-14.9184

> <Gold.Chemscore.Internal_Hbond.Weighted>
0.0000

> <Gold.Chemscore.DEClash.Weighted>
0.2194

> <Gold.Chemscore.DEInternal.Weighted>
1.2963

> <Gold.Chemscore.Rot.Weighted>
4.2466

> <Gold.Chemscore.Internal.Correction.Weighted>
   9.000000E+99

> <Gold.Protein.RotatedTorsions>
[ 6907 6896 6895 6894 ] final  -15.96 input  -60.11 | X-H torsion
[ 7974 7965 7964 7962 ] final  139.16 input  175.53 | X-H torsion
[ 8008 7997 7996 7995 ] final  -66.47 input   59.86 | X-H torsion
[ 10167 10162 10161 10158 ] final -160.77 input  -65.29 | X-H torsion
[ 10718 10713 10712 10709 ] final   83.93 input   66.30 | X-H torsion
[ 10763 10752 10751 10750 ] final  179.51 input  -60.55 | X-H torsion
[ 11005 11000 10999 10996 ] final  144.14 input  -57.11 | X-H torsion

> <Gold.Protein.ActiveResidues>
 VAL166  LYS551  ARG553  GLY616  TRP617  ASP618  TYR619  PRO620  LYS621  CYS622 
 ASP623  PHE694  ASN695  SER759  ASP760  ASP761  ALA762  ILE779  LEU786  VAL792 
 PHE793  MET794  SER795  GLU796  ALA797  LYS798  CYS799  TRP800  GLU811  SER814 

> <Gold.Protein.RotatedAtoms>
  151.3160  135.0806  159.9288 H   0  0  0  0  0  0  0  0  0  0  0  0  # atno 6907 bound_to 6896
  152.5267  133.9687  159.7762 H   0  0  0  0  0  0  0  0  0  0  0  0  # atno 6908 bound_to 6896
  151.0000  133.6014  159.2726 H   0  0  0  0  0  0  0  0  0  0  0  0  # atno 6909 bound_to 6896
  144.9304  139.5054  143.5620 H   0  0  0  0  0  0  0  0  0  0  0  0  # atno 7974 bound_to 7965
  154.4736  140.0912  156.7207 H   0  0  0  0  0  0  0  0  0  0  0  0  # atno 8008 bound_to 7997
  155.4656  140.3462  155.4300 H   0  0  0  0  0  0  0  0  0  0  0  0  # atno 8009 bound_to 7997
  156.1080  140.1440  156.9366 H   0  0  0  0  0  0  0  0  0  0  0  0  # atno 8010 bound_to 7997
  139.6514  144.0076  152.2164 H   0  0  0  0  0  0  0  0  0  0  0  0  # atno 10167 bound_to 10162
  157.6888  131.0112  150.2597 H   0  0  0  0  0  0  0  0  0  0  0  0  # atno 10718 bound_to 10713
  154.5216  135.2794  155.1257 H   0  0  0  0  0  0  0  0  0  0  0  0  # atno 10763 bound_to 10752
  154.2813  135.6285  153.5352 H   0  0  0  0  0  0  0  0  0  0  0  0  # atno 10764 bound_to 10752
  152.9938  135.5652  154.5706 H   0  0  0  0  0  0  0  0  0  0  0  0  # atno 10765 bound_to 10752
  140.0609  134.9205  157.1182 H   0  0  0  0  0  0  0  0  0  0  0  0  # atno 11005 bound_to 11000
  146.3244  139.8251  142.8919 LP  0  0  0  0  0  0  0  0  0  0  0  0  # atno 17320 bound_to 7965
  145.3151  141.0229  143.3532 LP  0  0  0  0  0  0  0  0  0  0  0  0  # atno 17321 bound_to 7965
  139.9792  144.6440  150.7917 LP  0  0  0  0  0  0  0  0  0  0  0  0  # atno 17342 bound_to 10162
  140.7539  143.3018  151.3062 LP  0  0  0  0  0  0  0  0  0  0  0  0  # atno 17343 bound_to 10162
  156.3179  130.3781  149.7602 LP  0  0  0  0  0  0  0  0  0  0  0  0  # atno 17370 bound_to 10713
  156.5182  130.8203  151.3194 LP  0  0  0  0  0  0  0  0  0  0  0  0  # atno 17371 bound_to 10713
  140.3772  134.2326  155.7173 LP  0  0  0  0  0  0  0  0  0  0  0  0  # atno 17394 bound_to 11000
  141.1972  133.8063  157.0636 LP  0  0  0  0  0  0  0  0  0  0  0  0  # atno 17395 bound_to 11000

$$$$
