AV-unprocessed.smi:1961|AV-procd|sdf|7921|dock2
  -GOLD-   2272010 83D 1   1.00000     0.00000
 Structure written by MMmdl.
 35 36  0  0  0  0  0  0  0  0  2 V2000
  156.0482  133.9648  162.7198 C   0  0  0  0  0  0  0  0  0  0  0  0
  154.8254  134.0027  161.7918 C   0  0  0  0  0  0  0  0  0  0  0  0
  154.9272  133.0168  160.6189 C   0  0  0  0  0  0  0  0  0  0  0  0
  154.5065  135.3920  161.3349 C   0  0  0  0  0  0  0  0  0  0  0  0
  154.1257  135.6817  160.0867 N   0  0  0  0  0  0  0  0  0  0  0  0
  153.8870  137.0369  159.9122 N   0  0  0  0  0  0  0  0  0  0  0  0
  154.0809  137.7530  161.0286 C   0  0  0  0  0  0  0  0  0  0  0  0
  153.9062  139.0842  161.0709 N   0  5  0  0  0  0  0  0  0  0  0  0
  153.7643  139.7840  159.9221 C   0  0  0  0  0  0  0  0  0  0  0  0
  154.2458  139.4932  158.8244 O   0  0  0  0  0  0  0  0  0  0  0  0
  153.0166  140.8879  160.0495 N   0  0  0  0  0  0  0  0  0  0  0  0
  152.6982  141.8114  158.9691 C   0  0  0  0  0  0  0  0  0  0  0  0
  152.8499  143.2663  159.4340 C   0  0  1  0  0  0  0  0  0  0  0  0
  152.2878  144.2864  158.4453 C   0  0  0  0  0  0  0  0  0  0  0  0
  151.9900  145.4590  159.3511 C   0  0  0  0  0  0  0  0  0  0  0  0
  151.4773  144.7596  160.6064 C   0  0  0  0  0  0  0  0  0  0  0  0
  152.1257  143.4907  160.6423 O   0  0  0  0  0  0  0  0  0  0  0  0
  154.6057  136.7822  162.4036 S   0  0  0  0  0  0  0  0  0  0  0  0
  155.9025  134.6111  163.5861 H   0  0  0  0  0  0  0  0  0  0  0  0
  156.9485  134.2984  162.2027 H   0  0  0  0  0  0  0  0  0  0  0  0
  156.2315  132.9552  163.0879 H   0  0  0  0  0  0  0  0  0  0  0  0
  153.9759  133.6753  162.3927 H   0  0  0  0  0  0  0  0  0  0  0  0
  154.0084  133.0111  160.0317 H   0  0  0  0  0  0  0  0  0  0  0  0
  155.0989  132.0004  160.9739 H   0  0  0  0  0  0  0  0  0  0  0  0
  155.7481  133.2783  159.9503 H   0  0  0  0  0  0  0  0  0  0  0  0
  152.6345  141.0950  160.9607 H   0  0  0  0  0  0  0  0  0  0  0  0
  153.3690  141.6205  158.1300 H   0  0  0  0  0  0  0  0  0  0  0  0
  151.6810  141.6301  158.6184 H   0  0  0  0  0  0  0  0  0  0  0  0
  153.8999  143.4965  159.6231 H   0  0  0  0  0  0  0  0  0  0  0  0
  152.9849  144.5304  157.6432 H   0  0  0  0  0  0  0  0  0  0  0  0
  151.3634  143.9199  157.9962 H   0  0  0  0  0  0  0  0  0  0  0  0
  152.9085  146.0040  159.5721 H   0  0  0  0  0  0  0  0  0  0  0  0
  151.2688  146.1584  158.9275 H   0  0  0  0  0  0  0  0  0  0  0  0
  151.6759  145.3343  161.5113 H   0  0  0  0  0  0  0  0  0  0  0  0
  150.4012  144.5950  160.5389 H   0  0  0  0  0  0  0  0  0  0  0  0
  1  2  1  0  0  0  0
  1 19  1  0  0  0  0
  1 20  1  0  0  0  0
  1 21  1  0  0  0  0
  2  3  1  0  0  0  0
  2  4  1  0  0  0  0
  2 22  1  0  0  0  0
  3 23  1  0  0  0  0
  3 24  1  0  0  0  0
  3 25  1  0  0  0  0
  4 18  1  0  0  0  0
  4  5  2  0  0  0  0
  5  6  1  0  0  0  0
  6  7  2  0  0  0  0
  7  8  1  0  0  0  0
  7 18  1  0  0  0  0
  8  9  1  0  0  0  0
  9 10  2  0  0  0  0
  9 11  1  0  0  0  0
 11 12  1  0  0  0  0
 11 26  1  0  0  0  0
 12 13  1  0  0  0  0
 12 27  1  0  0  0  0
 12 28  1  0  0  0  0
 13 17  1  0  0  0  0
 13 14  1  0  0  0  0
 13 29  1  0  0  0  0
 14 15  1  0  0  0  0
 14 30  1  0  0  0  0
 14 31  1  0  0  0  0
 15 16  1  0  0  0  0
 15 32  1  0  0  0  0
 15 33  1  0  0  0  0
 16 17  1  0  0  0  0
 16 34  1  0  0  0  0
 16 35  1  0  0  0  0
M  CHG  1   8  -1
M  END
> <s_m_source_file>
AV-unprocessed.smi

> <i_m_source_file_index>
1961

> <i_lp_mmshare_version>
43012

> <i_f3d_flags>
0

> <s_epik_input>
W0NIM11bQ0hdKFtDSDNdKWMxbm5jKHMxKVtOSF1DKD1PKVtOSF1bQ0gyXVtDQEBIXTJbQ0gyXVtDSDJdW0NIMl1PMg==

> <s_epik_cmdline>
J2VwaWtfcHl0aG9uJywgJy1waCcsICc3LjAnLCAnLXRuJywgJzgnLCAnLW1hJywgJzIwMCcsICctbWV0YWxfYmluZGluZycsICctaW1hZScsICc8aW5maWxlLm1hZT4nLCAnLW9tYWUnLCAnPG91dGZpbGUubWFlPic=

> <r_lp_tautomer_probability>
1

> <r_epik_Ionization_Penalty>
4.36179

> <r_epik_Ionization_Penalty_Charging>
4.21437

> <r_epik_Ionization_Penalty_Neutral>
0.147417

> <r_epik_State_Penalty>
4.21389

> <r_epik_Charging_Adjusted_Penalty>
8.42826

> <i_epik_Tot_Q>
-1

> <i_epik_Tot_abs_Q>
1

> <r_epik_Metal_State_Penalty>
0.693772

> <b_epik_Metal_Only>
1

> <s_lp_Force_Field>
OPLS_2005

> <r_lp_Energy>
8.86259

> <b_lp_Chiralities_Consistent>
1

> <s_lp_Variant>
AV-unprocessed.smi:1961-4

> <Gold.Version>
5.8.1

> <Gold.Id.Protein>
6NUR|6NUR_protein|mol2

> <Gold.PLP.Fitness>
38.4245

> <Gold.PLP.PLP>
-33.8188

> <Gold.PLP.part.hbond>
-1.9673

> <Gold.PLP.part.metal>
0.0000

> <Gold.PLP.part.buried>
-4.6754

> <Gold.PLP.part.nonpolar>
-26.5899

> <Gold.PLP.part.repulsive>
0.1581

> <Gold.PLP.ligand.clash>
0.0000

> <Gold.PLP.ligand.torsion>
0.7529

> <Gold.PLP.Chemscore.Hbond>
1.9913

> <Gold.PLP.Chemscore.CHOScore>
0.0000

> <Gold.PLP.Chemscore.Metal>
0.0000

> <Gold.Chemscore.Hbonds>
donor molecule, donor type, donor heavy atom, donor atom, acceptor molecule, acceptor atom, score
      P1  H  6896  6907       L1     5  1.00
      P1  H  7997  8010       L1    10  1.00

> <Gold.PLP.Chemscore.Internal.Correction>
0.1378

> <Gold.Rescore>
     Score         DG    S(hbond)    S(metal)    S(lipo)     H(rot)  DE(clash)    DE(int)     intcor
     16.07     -18.23       1.83        0.00      87.86       1.42       0.04       2.11       ----

> <Gold.Chemscore.Fitness>
16.0734

> <Gold.Chemscore.DG>
-18.2257

> <Gold.Chemscore.ZeroCoef>
-5.4800

> <Gold.Chemscore.Hbond>
1.8261

> <Gold.Chemscore.Metal>
0.0000

> <Gold.Chemscore.Lipo>
87.8617

> <Gold.Chemscore.Internal_Hbond>
0.0000

> <Gold.Chemscore.DEClash>
0.0427

> <Gold.Chemscore.DEInternal>
2.1096

> <Gold.Chemscore.Rot>
1.4193

> <Gold.Chemscore.Internal.Correction>
   9.000000E+99

> <Gold.Chemscore.Hbonds>
donor molecule, donor type, donor heavy atom, donor atom, acceptor molecule, acceptor atom, score
      P1  H  6896  6907       L1     5  0.19
      P1  H  7997  8010       L1    10  0.97

> <Gold.Chemscore.Hbond.Weighted>
-6.0993

> <Gold.Chemscore.Metal.Weighted>
-0.0000

> <Gold.Chemscore.Lipo.Weighted>
-10.2798

> <Gold.Chemscore.Internal_Hbond.Weighted>
0.0000

> <Gold.Chemscore.DEClash.Weighted>
0.0427

> <Gold.Chemscore.DEInternal.Weighted>
2.1096

> <Gold.Chemscore.Rot.Weighted>
3.6333

> <Gold.Chemscore.Internal.Correction.Weighted>
   9.000000E+99

> <Gold.Protein.RotatedTorsions>
[ 6907 6896 6895 6894 ] final   58.51 input  -60.11 | X-H torsion
[ 7974 7965 7964 7962 ] final -174.49 input  175.53 | X-H torsion
[ 8008 7997 7996 7995 ] final   -6.29 input   59.86 | X-H torsion
[ 10167 10162 10161 10158 ] final  -97.43 input  -65.29 | X-H torsion
[ 10718 10713 10712 10709 ] final  117.35 input   66.30 | X-H torsion
[ 10763 10752 10751 10750 ] final  167.96 input  -60.55 | X-H torsion
[ 11005 11000 10999 10996 ] final  -50.85 input  -57.11 | X-H torsion

> <Gold.Protein.ActiveResidues>
 VAL166  LYS551  ARG553  GLY616  TRP617  ASP618  TYR619  PRO620  LYS621  CYS622 
 ASP623  PHE694  ASN695  SER759  ASP760  ASP761  ALA762  ILE779  LEU786  VAL792 
 PHE793  MET794  SER795  GLU796  ALA797  LYS798  CYS799  TRP800  GLU811  SER814 

> <Gold.Protein.RotatedAtoms>
  152.3831  134.6560  160.0135 H   0  0  0  0  0  0  0  0  0  0  0  0  # atno 6907 bound_to 6896
  151.6817  133.3306  159.3229 H   0  0  0  0  0  0  0  0  0  0  0  0  # atno 6908 bound_to 6896
  150.7763  134.6711  159.6437 H   0  0  0  0  0  0  0  0  0  0  0  0  # atno 6909 bound_to 6896
  144.7132  140.1464  143.6387 H   0  0  0  0  0  0  0  0  0  0  0  0  # atno 7974 bound_to 7965
  154.5952  140.2436  155.7866 H   0  0  0  0  0  0  0  0  0  0  0  0  # atno 8008 bound_to 7997
  156.2274  140.2978  156.0055 H   0  0  0  0  0  0  0  0  0  0  0  0  # atno 8009 bound_to 7997
  155.2305  140.0403  157.2952 H   0  0  0  0  0  0  0  0  0  0  0  0  # atno 8010 bound_to 7997
  140.2835  143.3267  152.0417 H   0  0  0  0  0  0  0  0  0  0  0  0  # atno 10167 bound_to 10162
  157.6102  131.1036  150.7602 H   0  0  0  0  0  0  0  0  0  0  0  0  # atno 10718 bound_to 10713
  154.3616  135.2753  155.2317 H   0  0  0  0  0  0  0  0  0  0  0  0  # atno 10763 bound_to 10752
  154.4502  135.5932  153.6190 H   0  0  0  0  0  0  0  0  0  0  0  0  # atno 10764 bound_to 10752
  152.9843  135.6040  154.3837 H   0  0  0  0  0  0  0  0  0  0  0  0  # atno 10765 bound_to 10752
  141.0839  133.6647  156.3791 H   0  0  0  0  0  0  0  0  0  0  0  0  # atno 11005 bound_to 11000
  145.9156  139.2514  143.1412 LP  0  0  0  0  0  0  0  0  0  0  0  0  # atno 17320 bound_to 7965
  145.9672  140.8789  143.0181 LP  0  0  0  0  0  0  0  0  0  0  0  0  # atno 17321 bound_to 7965
  139.4956  144.6575  151.6539 LP  0  0  0  0  0  0  0  0  0  0  0  0  # atno 17342 bound_to 10162
  140.5792  143.9976  150.6258 LP  0  0  0  0  0  0  0  0  0  0  0  0  # atno 17343 bound_to 10162
  156.7981  130.4912  149.5374 LP  0  0  0  0  0  0  0  0  0  0  0  0  # atno 17370 bound_to 10713
  156.1202  130.6104  151.0182 LP  0  0  0  0  0  0  0  0  0  0  0  0  # atno 17371 bound_to 10713
  140.5407  134.6123  157.5379 LP  0  0  0  0  0  0  0  0  0  0  0  0  # atno 17394 bound_to 11000
  139.9655  134.7380  156.0147 LP  0  0  0  0  0  0  0  0  0  0  0  0  # atno 17395 bound_to 11000

$$$$
