AV-unprocessed.smi:1199|AV-procd|sdf|5020|dock9
  -GOLD-   22720 4 43D 1   1.00000     0.00000
 Structure written by MMmdl.
 42 43  0  0  0  0  0  0  0  0  2 V2000
  146.7436  140.5551  153.9134 C   0  0  0  0  0  0  0  0  0  0  0  0
  147.3913  139.2876  153.3400 C   0  0  2  0  0  0  0  0  0  0  0  0
  146.8645  138.0135  154.0420 C   0  0  0  0  0  0  0  0  0  0  0  0
  146.6348  136.8789  153.1096 N   0  3  0  0  0  0  0  0  0  0  0  0
  146.5089  135.5752  153.8028 C   0  0  0  0  0  0  0  0  0  0  0  0
  146.3380  134.4361  152.7812 C   0  0  0  0  0  0  0  0  0  0  0  0
  145.2211  134.7011  151.9413 O   0  0  0  0  0  0  0  0  0  0  0  0
  145.3790  135.9110  151.2100 C   0  0  0  0  0  0  0  0  0  0  0  0
  145.4877  137.0872  152.1933 C   0  0  0  0  0  0  0  0  0  0  0  0
  148.8454  139.3868  153.4669 N   0  0  0  0  0  0  0  0  0  0  0  0
  149.5253  139.5230  154.6164 C   0  0  0  0  0  0  0  0  0  0  0  0
  148.9936  139.5018  155.7265 O   0  0  0  0  0  0  0  0  0  0  0  0
  151.0383  139.7393  154.4919 C   0  0  0  0  0  0  0  0  0  0  0  0
  151.6004  140.3664  155.6966 N   0  0  0  0  0  0  0  0  0  0  0  0
  151.0052  141.5696  156.0426 N   0  0  0  0  0  0  0  0  0  0  0  0
  151.4352  142.2309  157.0636 C   0  0  0  0  0  0  0  0  0  0  0  0
  150.8190  143.4192  157.3690 O   0  0  0  0  0  0  0  0  0  0  0  0
  152.5341  141.7394  157.8655 C   0  0  0  0  0  0  0  0  0  0  0  0
  153.1031  140.5622  157.5252 C   0  0  0  0  0  0  0  0  0  0  0  0
  152.6394  139.7865  156.3740 C   0  0  0  0  0  0  0  0  0  0  0  0
  153.1432  138.7153  156.0347 O   0  0  0  0  0  0  0  0  0  0  0  0
  150.2018  143.5694  156.6695 H   0  0  0  0  0  0  0  0  0  0  0  0
  145.6589  140.5217  153.8082 H   0  0  0  0  0  0  0  0  0  0  0  0
  147.0960  141.4465  153.3931 H   0  0  0  0  0  0  0  0  0  0  0  0
  146.9712  140.6764  154.9730 H   0  0  0  0  0  0  0  0  0  0  0  0
  147.1190  139.2471  152.2844 H   0  0  0  0  0  0  0  0  0  0  0  0
  147.6032  137.7088  154.7852 H   0  0  0  0  0  0  0  0  0  0  0  0
  145.9489  138.2273  154.5952 H   0  0  0  0  0  0  0  0  0  0  0  0
  147.3954  135.3903  154.4106 H   0  0  0  0  0  0  0  0  0  0  0  0
  145.6534  135.6030  154.4796 H   0  0  0  0  0  0  0  0  0  0  0  0
  147.2361  134.3134  152.1754 H   0  0  0  0  0  0  0  0  0  0  0  0
  146.1746  133.4906  153.2983 H   0  0  0  0  0  0  0  0  0  0  0  0
  146.2604  135.8545  150.5685 H   0  0  0  0  0  0  0  0  0  0  0  0
  144.5164  136.0447  150.5571 H   0  0  0  0  0  0  0  0  0  0  0  0
  144.5668  137.1770  152.7715 H   0  0  0  0  0  0  0  0  0  0  0  0
  145.6040  138.0163  151.6369 H   0  0  0  0  0  0  0  0  0  0  0  0
  149.3737  139.4017  152.6061 H   0  0  0  0  0  0  0  0  0  0  0  0
  151.5067  138.7711  154.3065 H   0  0  0  0  0  0  0  0  0  0  0  0
  151.2656  140.3510  153.6167 H   0  0  0  0  0  0  0  0  0  0  0  0
  152.8825  142.3070  158.7161 H   0  0  0  0  0  0  0  0  0  0  0  0
  153.9235  140.1827  158.1164 H   0  0  0  0  0  0  0  0  0  0  0  0
  147.4632  136.8119  152.5348 H   0  0  0  0  0  0  0  0  0  0  0  0
  1  2  1  0  0  0  0
  1 23  1  0  0  0  0
  1 24  1  0  0  0  0
  1 25  1  0  0  0  0
  2  3  1  0  0  0  0
  2 10  1  0  0  0  0
  2 26  1  0  0  0  0
  3  4  1  0  0  0  0
  3 27  1  0  0  0  0
  3 28  1  0  0  0  0
  4  9  1  0  0  0  0
  4  5  1  0  0  0  0
  4 42  1  0  0  0  0
  5  6  1  0  0  0  0
  5 29  1  0  0  0  0
  5 30  1  0  0  0  0
  6  7  1  0  0  0  0
  6 31  1  0  0  0  0
  6 32  1  0  0  0  0
  7  8  1  0  0  0  0
  8  9  1  0  0  0  0
  8 33  1  0  0  0  0
  8 34  1  0  0  0  0
  9 35  1  0  0  0  0
  9 36  1  0  0  0  0
 10 11  1  0  0  0  0
 10 37  1  0  0  0  0
 11 12  2  0  0  0  0
 11 13  1  0  0  0  0
 13 38  1  0  0  0  0
 13 39  1  0  0  0  0
 13 14  1  0  0  0  0
 14 15  1  0  0  0  0
 14 20  1  0  0  0  0
 15 16  2  0  0  0  0
 16 17  1  0  0  0  0
 16 18  1  0  0  0  0
 17 22  1  0  0  0  0
 18 40  1  0  0  0  0
 18 19  2  0  0  0  0
 19 41  1  0  0  0  0
 19 20  1  0  0  0  0
 20 21  2  0  0  0  0
M  CHG  1   4   1
M  END
> <s_m_source_file>
AV-unprocessed.smi

> <i_m_source_file_index>
1199

> <i_lp_mmshare_version>
43012

> <i_f3d_flags>
0

> <s_epik_input>
W0NIMl0xW0NIMl1PW0NIMl1bQ0gyXU4xW0NIMl1bQ0BASF0oW0NIM10pW05IXUMoPU8pW0NIMl1uMltuSF1jKD1PKVtjSF1bY0hdYzI9Tw==

> <s_epik_cmdline>
J2VwaWtfcHl0aG9uJywgJy1waCcsICc3LjAnLCAnLXRuJywgJzgnLCAnLW1hJywgJzIwMCcsICctbWV0YWxfYmluZGluZycsICctaW1hZScsICc8aW5maWxlLm1hZT4nLCAnLW9tYWUnLCAnPG91dGZpbGUubWFlPic=

> <r_lp_tautomer_probability>
0.9996

> <r_epik_Ionization_Penalty>
2.86815

> <r_epik_Ionization_Penalty_Charging>
0.656653

> <r_epik_Ionization_Penalty_Neutral>
2.21149

> <r_epik_State_Penalty>
2.43136

> <r_epik_Charging_Adjusted_Penalty>
3.08801

> <i_epik_Tot_Q>
1

> <i_epik_Tot_abs_Q>
1

> <r_epik_Metal_State_Penalty>
2.43136

> <b_epik_Metal_Only>
0

> <s_lp_Force_Field>
OPLS_2005

> <r_lp_Energy>
31.3185

> <b_lp_Chiralities_Consistent>
1

> <s_lp_Variant>
AV-unprocessed.smi:1199-7

> <Gold.Version>
5.8.1

> <Gold.Id.Protein>
6NUR|6NUR_protein|mol2

> <Gold.PLP.Fitness>
38.9362

> <Gold.PLP.PLP>
-29.5844

> <Gold.PLP.part.hbond>
-3.5713

> <Gold.PLP.part.metal>
0.0000

> <Gold.PLP.part.buried>
-1.4531

> <Gold.PLP.part.nonpolar>
-24.9450

> <Gold.PLP.part.repulsive>
0.3048

> <Gold.PLP.ligand.clash>
0.0000

> <Gold.PLP.ligand.torsion>
0.9587

> <Gold.PLP.Chemscore.Hbond>
3.7360

> <Gold.PLP.Chemscore.CHOScore>
0.0000

> <Gold.PLP.Chemscore.Metal>
0.0000

> <Gold.Chemscore.Hbonds>
donor molecule, donor type, donor heavy atom, donor atom, acceptor molecule, acceptor atom, score
      L1  H     4    42       P1  7948  2.00
      L1  H    10    37       P1  7957  0.99
      L1  H    17    22       P1  8028  1.00

> <Gold.PLP.Chemscore.Internal.Correction>
0.0613

> <Gold.Rescore>
     Score         DG    S(hbond)    S(metal)    S(lipo)     H(rot)  DE(clash)    DE(int)     intcor
      8.29     -11.97       2.30        0.00      56.09       3.03       0.37       3.31       ----

> <Gold.Chemscore.Fitness>
8.2865

> <Gold.Chemscore.DG>
-11.9684

> <Gold.Chemscore.ZeroCoef>
-5.4800

> <Gold.Chemscore.Hbond>
2.3029

> <Gold.Chemscore.Metal>
0.0000

> <Gold.Chemscore.Lipo>
56.0929

> <Gold.Chemscore.Internal_Hbond>
0.0000

> <Gold.Chemscore.DEClash>
0.3680

> <Gold.Chemscore.DEInternal>
3.3139

> <Gold.Chemscore.Rot>
3.0336

> <Gold.Chemscore.Internal.Correction>
   9.000000E+99

> <Gold.Chemscore.Hbonds>
donor molecule, donor type, donor heavy atom, donor atom, acceptor molecule, acceptor atom, score
      L1  H     4    42       P1  7948  1.00
      L1  H    10    37       P1  7957  0.92
      L1  H    17    22       P1  8028  0.92

> <Gold.Chemscore.Hbond.Weighted>
-7.6916

> <Gold.Chemscore.Metal.Weighted>
-0.0000

> <Gold.Chemscore.Lipo.Weighted>
-6.5629

> <Gold.Chemscore.Internal_Hbond.Weighted>
0.0000

> <Gold.Chemscore.DEClash.Weighted>
0.3680

> <Gold.Chemscore.DEInternal.Weighted>
3.3139

> <Gold.Chemscore.Rot.Weighted>
7.7661

> <Gold.Chemscore.Internal.Correction.Weighted>
   9.000000E+99

> <Gold.Protein.RotatedTorsions>
[ 6907 6896 6895 6894 ] final   85.40 input  -60.11 | X-H torsion
[ 7974 7965 7964 7962 ] final    4.82 input  175.53 | X-H torsion
[ 8008 7997 7996 7995 ] final -130.61 input   59.86 | X-H torsion
[ 10167 10162 10161 10158 ] final   49.23 input  -65.29 | X-H torsion
[ 10718 10713 10712 10709 ] final   28.43 input   66.30 | X-H torsion
[ 10763 10752 10751 10750 ] final  -53.49 input  -60.55 | X-H torsion
[ 11005 11000 10999 10996 ] final   73.29 input  -57.11 | X-H torsion

> <Gold.Protein.ActiveResidues>
 VAL166  LYS551  ARG553  GLY616  TRP617  ASP618  TYR619  PRO620  LYS621  CYS622 
 ASP623  PHE694  ASN695  SER759  ASP760  ASP761  ALA762  ILE779  LEU786  VAL792 
 PHE793  MET794  SER795  GLU796  ALA797  LYS798  CYS799  TRP800  GLU811  SER814 

> <Gold.Protein.RotatedAtoms>
  152.5374  134.2592  159.8928 H   0  0  0  0  0  0  0  0  0  0  0  0  # atno 6907 bound_to 6896
  151.2553  133.4323  159.2621 H   0  0  0  0  0  0  0  0  0  0  0  0  # atno 6908 bound_to 6896
  151.0502  134.9682  159.8264 H   0  0  0  0  0  0  0  0  0  0  0  0  # atno 6909 bound_to 6896
  146.2443  140.0477  142.8377 H   0  0  0  0  0  0  0  0  0  0  0  0  # atno 7974 bound_to 7965
  155.2986  140.0451  157.3028 H   0  0  0  0  0  0  0  0  0  0  0  0  # atno 8008 bound_to 7997
  154.5499  140.2314  155.8469 H   0  0  0  0  0  0  0  0  0  0  0  0  # atno 8009 bound_to 7997
  156.1958  140.3039  155.9431 H   0  0  0  0  0  0  0  0  0  0  0  0  # atno 8010 bound_to 7997
  140.2851  144.3112  150.6254 H   0  0  0  0  0  0  0  0  0  0  0  0  # atno 10167 bound_to 10162
  157.2333  130.7034  149.6324 H   0  0  0  0  0  0  0  0  0  0  0  0  # atno 10718 bound_to 10713
  154.1597  135.6476  153.4983 H   0  0  0  0  0  0  0  0  0  0  0  0  # atno 10763 bound_to 10752
  153.0114  135.5358  154.6723 H   0  0  0  0  0  0  0  0  0  0  0  0  # atno 10764 bound_to 10752
  154.6033  135.2946  155.0483 H   0  0  0  0  0  0  0  0  0  0  0  0  # atno 10765 bound_to 10752
  139.9448  134.7334  156.1008 H   0  0  0  0  0  0  0  0  0  0  0  0  # atno 11005 bound_to 11000
  145.1012  140.9347  143.4711 LP  0  0  0  0  0  0  0  0  0  0  0  0  # atno 17320 bound_to 7965
  145.0671  139.3060  143.5851 LP  0  0  0  0  0  0  0  0  0  0  0  0  # atno 17321 bound_to 7965
  140.5780  143.2175  151.7481 LP  0  0  0  0  0  0  0  0  0  0  0  0  # atno 17342 bound_to 10162
  139.4952  144.4122  152.0068 LP  0  0  0  0  0  0  0  0  0  0  0  0  # atno 17343 bound_to 10162
  155.9674  130.4481  150.5608 LP  0  0  0  0  0  0  0  0  0  0  0  0  # atno 17370 bound_to 10713
  157.3455  131.0724  151.1755 LP  0  0  0  0  0  0  0  0  0  0  0  0  # atno 17371 bound_to 10713
  141.1094  133.6648  156.2943 LP  0  0  0  0  0  0  0  0  0  0  0  0  # atno 17394 bound_to 11000
  140.5863  134.5696  157.5490 LP  0  0  0  0  0  0  0  0  0  0  0  0  # atno 17395 bound_to 11000

$$$$
