AV-unprocessed.smi:2725|AV-procd|sdf|10517|dock3
  -GOLD-   2272014553D 1   1.00000     0.00000
 Structure written by MMmdl.
 45 46  0  0  0  0  0  0  0  0  2 V2000
  153.2071  139.3419  157.2615 O   0  0  0  0  0  0  0  0  0  0  0  0
  152.0520  139.7431  157.1151 C   0  0  0  0  0  0  0  0  0  0  0  0
  151.5891  141.0539  157.7584 C   0  0  0  0  0  0  0  0  0  0  0  0
  152.6345  141.6680  158.7095 C   0  0  0  0  0  0  0  0  0  0  0  0
  152.0355  142.7061  159.6748 C   0  0  0  0  0  0  0  0  0  0  0  0
  152.0859  144.1513  159.1674 C   0  0  0  0  0  0  0  0  0  0  0  0
  151.9773  145.0289  160.4209 C   0  0  0  0  0  0  0  0  0  0  0  0
  152.3380  144.1297  161.6129 C   0  0  0  0  0  0  0  0  0  0  0  0
  152.7670  142.7864  161.0161 C   0  0  0  0  0  0  0  0  0  0  0  0
  151.1308  139.0811  156.3981 N   0  0  0  0  0  0  0  0  0  0  0  0
  151.3577  137.8278  155.6809 C   0  0  2  0  0  0  0  0  0  0  0  0
  152.0756  138.1464  154.3531 C   0  0  0  0  0  0  0  0  0  0  0  0
  152.1187  136.9952  153.5372 O   0  0  0  0  0  0  0  0  0  0  0  0
  150.0026  137.1115  155.4762 C   0  0  0  0  0  0  0  0  0  0  0  0
  150.1101  135.5968  155.4786 C   0  0  0  0  0  0  0  0  0  0  0  0
  150.8597  134.9063  156.4557 C   0  0  0  0  0  0  0  0  0  0  0  0
  150.9333  133.4989  156.4021 C   0  0  0  0  0  0  0  0  0  0  0  0
  150.2573  132.8116  155.3725 C   0  0  0  0  0  0  0  0  0  0  0  0
  149.5237  133.5503  154.4221 C   0  0  0  0  0  0  0  0  0  0  0  0
  149.4772  134.8981  154.5079 N   0  3  0  0  0  0  0  0  0  0  0  0
  151.3466  141.7574  156.9615 H   0  0  0  0  0  0  0  0  0  0  0  0
  150.6638  140.8701  158.3066 H   0  0  0  0  0  0  0  0  0  0  0  0
  153.0973  140.8725  159.2956 H   0  0  0  0  0  0  0  0  0  0  0  0
  153.4380  142.1279  158.1322 H   0  0  0  0  0  0  0  0  0  0  0  0
  150.9947  142.4466  159.8759 H   0  0  0  0  0  0  0  0  0  0  0  0
  153.0420  144.3400  158.6772 H   0  0  0  0  0  0  0  0  0  0  0  0
  151.2986  144.3668  158.4443 H   0  0  0  0  0  0  0  0  0  0  0  0
  152.6408  145.8915  160.3517 H   0  0  0  0  0  0  0  0  0  0  0  0
  150.9613  145.4086  160.5354 H   0  0  0  0  0  0  0  0  0  0  0  0
  153.1209  144.5641  162.2353 H   0  0  0  0  0  0  0  0  0  0  0  0
  151.4593  143.9901  162.2437 H   0  0  0  0  0  0  0  0  0  0  0  0
  152.5346  141.9466  161.6718 H   0  0  0  0  0  0  0  0  0  0  0  0
  153.8458  142.7896  160.8527 H   0  0  0  0  0  0  0  0  0  0  0  0
  150.2098  139.4884  156.3234 H   0  0  0  0  0  0  0  0  0  0  0  0
  151.9960  137.1787  156.2845 H   0  0  0  0  0  0  0  0  0  0  0  0
  151.5389  138.9059  153.7868 H   0  0  0  0  0  0  0  0  0  0  0  0
  153.0831  138.5296  154.5200 H   0  0  0  0  0  0  0  0  0  0  0  0
  151.4157  137.0433  152.9071 H   0  0  0  0  0  0  0  0  0  0  0  0
  149.3075  137.3865  156.2709 H   0  0  0  0  0  0  0  0  0  0  0  0
  149.5392  137.4439  154.5461 H   0  0  0  0  0  0  0  0  0  0  0  0
  151.3749  135.4486  157.2356 H   0  0  0  0  0  0  0  0  0  0  0  0
  151.5023  132.9534  157.1407 H   0  0  0  0  0  0  0  0  0  0  0  0
  150.3015  131.7339  155.3131 H   0  0  0  0  0  0  0  0  0  0  0  0
  148.9772  133.1077  153.6021 H   0  0  0  0  0  0  0  0  0  0  0  0
  148.9401  135.4118  153.8091 H   0  0  0  0  0  0  0  0  0  0  0  0
  1  2  2  0  0  0  0
  2  3  1  0  0  0  0
  2 10  1  0  0  0  0
  3  4  1  0  0  0  0
  3 21  1  0  0  0  0
  3 22  1  0  0  0  0
  4  5  1  0  0  0  0
  4 23  1  0  0  0  0
  4 24  1  0  0  0  0
  5  9  1  0  0  0  0
  5  6  1  0  0  0  0
  5 25  1  0  0  0  0
  6  7  1  0  0  0  0
  6 26  1  0  0  0  0
  6 27  1  0  0  0  0
  7  8  1  0  0  0  0
  7 28  1  0  0  0  0
  7 29  1  0  0  0  0
  8  9  1  0  0  0  0
  8 30  1  0  0  0  0
  8 31  1  0  0  0  0
  9 32  1  0  0  0  0
  9 33  1  0  0  0  0
 10 11  1  0  0  0  0
 10 34  1  0  0  0  0
 11 12  1  0  0  0  0
 11 14  1  0  0  0  0
 11 35  1  0  0  0  0
 12 13  1  0  0  0  0
 12 36  1  0  0  0  0
 12 37  1  0  0  0  0
 13 38  1  0  0  0  0
 14 15  1  0  0  0  0
 14 39  1  0  0  0  0
 14 40  1  0  0  0  0
 15 20  1  0  0  0  0
 15 16  2  0  0  0  0
 16 17  1  0  0  0  0
 16 41  1  0  0  0  0
 17 18  2  0  0  0  0
 17 42  1  0  0  0  0
 18 19  1  0  0  0  0
 18 43  1  0  0  0  0
 19 20  2  0  0  0  0
 19 44  1  0  0  0  0
 20 45  1  0  0  0  0
M  CHG  1  20   1
M  END
> <s_m_source_file>
AV-unprocessed.smi

> <i_m_source_file_index>
2725

> <i_lp_mmshare_version>
43012

> <i_f3d_flags>
0

> <s_epik_input>
W0NIMl0xW0NIMl1bQ0gyXVtDSDJdW0NIXTFbQ0gyXVtDSDJdQyg9TylbTkhdW0NASF0oW0NIMl1bT0hdKVtDSDJdYzJbY0hdW2NIXVtjSF1bY0hdbjI=

> <s_epik_cmdline>
J2VwaWtfcHl0aG9uJywgJy1waCcsICc3LjAnLCAnLXRuJywgJzgnLCAnLW1hJywgJzIwMCcsICctbWV0YWxfYmluZGluZycsICctaW1hZScsICc8aW5maWxlLm1hZT4nLCAnLW9tYWUnLCAnPG91dGZpbGUubWFlPic=

> <r_epik_Ionization_Penalty>
1.87189

> <r_epik_Ionization_Penalty_Charging>
1.87189

> <r_epik_Ionization_Penalty_Neutral>
6.79411e-08

> <r_epik_State_Penalty>
1.99097

> <r_epik_Charging_Adjusted_Penalty>
3.86287

> <i_epik_Tot_Q>
1

> <i_epik_Tot_abs_Q>
1

> <r_epik_Metal_State_Penalty>
2.01578

> <b_epik_Metal_Only>
0

> <s_lp_Force_Field>
OPLS_2005

> <r_lp_Energy>
30.4182

> <b_lp_Chiralities_Consistent>
1

> <s_lp_Variant>
AV-unprocessed.smi:2725-3

> <Gold.Version>
5.8.1

> <Gold.Id.Protein>
6NUR|6NUR_protein|mol2

> <Gold.PLP.Fitness>
56.2122

> <Gold.PLP.PLP>
-45.0175

> <Gold.PLP.part.hbond>
-3.7513

> <Gold.PLP.part.metal>
0.0000

> <Gold.PLP.part.buried>
-6.7837

> <Gold.PLP.part.nonpolar>
-35.2515

> <Gold.PLP.part.repulsive>
0.0977

> <Gold.PLP.ligand.clash>
0.0000

> <Gold.PLP.ligand.torsion>
1.4392

> <Gold.PLP.Chemscore.Hbond>
4.6400

> <Gold.PLP.Chemscore.CHOScore>
0.0000

> <Gold.PLP.Chemscore.Metal>
0.0000

> <Gold.Chemscore.Hbonds>
donor molecule, donor type, donor heavy atom, donor atom, acceptor molecule, acceptor atom, score
      L1  H    13    38       P1  7949  0.54
      L1  H    20    45       P1  7948  1.52
      P1  H  7997  8009       L1     1  1.00
      P1  H 10752 10765       L1    13  1.00

> <Gold.PLP.Chemscore.Internal.Correction>
0.1531

> <Gold.Rescore>
     Score         DG    S(hbond)    S(metal)    S(lipo)     H(rot)  DE(clash)    DE(int)     intcor
     22.98     -24.40       3.43        0.00     120.19       2.58       0.11       1.31       ----

> <Gold.Chemscore.Fitness>
22.9766

> <Gold.Chemscore.DG>
-24.4003

> <Gold.Chemscore.ZeroCoef>
-5.4800

> <Gold.Chemscore.Hbond>
3.4299

> <Gold.Chemscore.Metal>
0.0000

> <Gold.Chemscore.Lipo>
120.1896

> <Gold.Chemscore.Internal_Hbond>
0.0000

> <Gold.Chemscore.DEClash>
0.1112

> <Gold.Chemscore.DEInternal>
1.3125

> <Gold.Chemscore.Rot>
2.5773

> <Gold.Chemscore.Internal.Correction>
   9.000000E+99

> <Gold.Chemscore.Hbonds>
donor molecule, donor type, donor heavy atom, donor atom, acceptor molecule, acceptor atom, score
      L1  H    13    38       P1  7949  0.46
      L1  H    20    45       P1  7948  0.57
      P1  H  7997  8009       L1     1  0.91
      P1  H 10752 10765       L1    13  0.96

> <Gold.Chemscore.Hbond.Weighted>
-11.4559

> <Gold.Chemscore.Metal.Weighted>
-0.0000

> <Gold.Chemscore.Lipo.Weighted>
-14.0622

> <Gold.Chemscore.Internal_Hbond.Weighted>
0.0000

> <Gold.Chemscore.DEClash.Weighted>
0.1112

> <Gold.Chemscore.DEInternal.Weighted>
1.3125

> <Gold.Chemscore.Rot.Weighted>
6.5978

> <Gold.Chemscore.Internal.Correction.Weighted>
   9.000000E+99

> <Gold.Protein.RotatedTorsions>
[ 6907 6896 6895 6894 ] final -106.54 input  -60.11 | X-H torsion
[ 7974 7965 7964 7962 ] final -164.25 input  175.53 | X-H torsion
[ 8008 7997 7996 7995 ] final -174.56 input   59.86 | X-H torsion
[ 10167 10162 10161 10158 ] final -100.65 input  -65.29 | X-H torsion
[ 10718 10713 10712 10709 ] final   31.47 input   66.30 | X-H torsion
[ 10763 10752 10751 10750 ] final  146.13 input  -60.55 | X-H torsion
[ 11005 11000 10999 10996 ] final -103.51 input  -57.11 | X-H torsion

> <Gold.Protein.ActiveResidues>
 VAL166  LYS551  ARG553  GLY616  TRP617  ASP618  TYR619  PRO620  LYS621  CYS622 
 ASP623  PHE694  ASN695  SER759  ASP760  ASP761  ALA762  ILE779  LEU786  VAL792 
 PHE793  MET794  SER795  GLU796  ALA797  LYS798  CYS799  TRP800  GLU811  SER814 

> <Gold.Protein.RotatedAtoms>
  150.7395  133.9961  159.3622 H   0  0  0  0  0  0  0  0  0  0  0  0  # atno 6907 bound_to 6896
  151.7912  135.0733  160.0397 H   0  0  0  0  0  0  0  0  0  0  0  0  # atno 6908 bound_to 6896
  152.3206  133.5813  159.5778 H   0  0  0  0  0  0  0  0  0  0  0  0  # atno 6909 bound_to 6896
  144.7302  140.2988  143.6208 H   0  0  0  0  0  0  0  0  0  0  0  0  # atno 7974 bound_to 7965
  155.9717  140.1164  157.0807 H   0  0  0  0  0  0  0  0  0  0  0  0  # atno 8008 bound_to 7997
  154.4158  140.1162  156.5382 H   0  0  0  0  0  0  0  0  0  0  0  0  # atno 8009 bound_to 7997
  155.6588  140.3473  155.4777 H   0  0  0  0  0  0  0  0  0  0  0  0  # atno 8010 bound_to 7997
  140.2496  143.3481  152.0727 H   0  0  0  0  0  0  0  0  0  0  0  0  # atno 10167 bound_to 10162
  157.2728  130.7216  149.6514 H   0  0  0  0  0  0  0  0  0  0  0  0  # atno 10718 bound_to 10713
  154.0169  135.2909  155.3386 H   0  0  0  0  0  0  0  0  0  0  0  0  # atno 10763 bound_to 10752
  154.7070  135.5165  153.8612 H   0  0  0  0  0  0  0  0  0  0  0  0  # atno 10764 bound_to 10752
  153.0698  135.6644  154.0395 H   0  0  0  0  0  0  0  0  0  0  0  0  # atno 10765 bound_to 10752
  141.1142  133.8646  157.1495 H   0  0  0  0  0  0  0  0  0  0  0  0  # atno 11005 bound_to 11000
  145.7781  139.1881  143.2173 LP  0  0  0  0  0  0  0  0  0  0  0  0  # atno 17320 bound_to 7965
  146.0856  140.7714  142.9620 LP  0  0  0  0  0  0  0  0  0  0  0  0  # atno 17321 bound_to 7965
  139.5050  144.6787  151.6063 LP  0  0  0  0  0  0  0  0  0  0  0  0  # atno 17342 bound_to 10162
  140.6051  143.9540  150.6413 LP  0  0  0  0  0  0  0  0  0  0  0  0  # atno 17343 bound_to 10162
  155.9663  130.4362  150.5124 LP  0  0  0  0  0  0  0  0  0  0  0  0  # atno 17370 bound_to 10713
  157.3052  131.0653  151.2040 LP  0  0  0  0  0  0  0  0  0  0  0  0  # atno 17371 bound_to 10713
  140.0054  135.0010  157.0281 LP  0  0  0  0  0  0  0  0  0  0  0  0  # atno 17394 bound_to 11000
  140.4691  134.1405  155.7201 LP  0  0  0  0  0  0  0  0  0  0  0  0  # atno 17395 bound_to 11000

$$$$
