AV-unprocessed.smi:14|AV-procd|sdf|78|dock3
  -GOLD-   2262015203D 1   1.00000     0.00000
 Structure written by MMmdl.
 57 60  0  0  0  0  0  0  0  0  1 V2000
  138.9115  141.2488  154.4901 N   0  0  0  0  0  0  0  0  0  0  0  0
  138.9744  140.2891  153.8468 C   0  0  0  0  0  0  0  0  0  0  0  0
  139.0535  139.0699  153.0292 C   0  0  0  0  0  0  0  0  0  0  0  0
  139.1286  137.7973  153.8871 C   0  0  0  0  0  0  0  0  0  0  0  0
  140.1338  137.8839  154.9489 N   0  0  0  0  0  0  0  0  0  0  0  0
  139.6914  137.5637  156.3079 C   0  0  0  0  0  0  0  0  0  0  0  0
  138.1910  137.2182  156.4151 C   0  0  1  0  0  0  0  0  0  0  0  0
  137.7283  136.7574  157.7857 C   0  0  0  0  0  0  0  0  0  0  0  0
  136.2249  137.0096  157.7253 C   0  0  0  0  0  0  0  0  0  0  0  0
  136.0441  138.0964  156.8225 O   0  0  0  0  0  0  0  0  0  0  0  0
  137.2855  138.4324  156.2127 C   0  0  0  0  0  0  0  0  0  0  0  0
  141.4246  137.5715  154.6517 C   0  0  0  0  0  0  0  0  0  0  0  0
  142.4001  138.5008  154.8414 N   0  0  0  0  0  0  0  0  0  0  0  0
  143.6679  138.2295  154.5220 C   0  0  0  0  0  0  0  0  0  0  0  0
  144.1756  137.1090  154.0083 N   0  0  0  0  0  0  0  0  0  0  0  0
  143.2098  136.1643  153.8281 C   0  0  0  0  0  0  0  0  0  0  0  0
  141.8228  136.3112  154.1180 C   0  0  0  0  0  0  0  0  0  0  0  0
  141.1517  135.1359  153.8018 N   0  0  0  0  0  0  0  0  0  0  0  0
  142.0820  134.3498  153.3350 C   0  0  0  0  0  0  0  0  0  0  0  0
  143.3528  134.8793  153.3315 N   0  0  0  0  0  0  0  0  0  0  0  0
  144.5664  134.2236  152.8623 C   0  0  0  0  0  0  0  0  0  0  0  0
  145.1737  134.8027  151.5446 C   0  0  0  0  0  0  0  0  0  0  0  0
  145.5728  136.2861  151.7853 C   0  0  0  0  0  0  0  0  0  0  0  0
  146.2615  136.8694  150.6969 O   0  0  0  0  0  0  0  0  0  0  0  0
  146.4249  133.9697  151.1613 C   0  0  0  0  0  0  0  0  0  0  0  0
  146.0682  132.5611  150.6510 C   0  0  0  0  0  0  0  0  0  0  0  0
  145.1713  132.6557  149.5514 O   0  0  0  0  0  0  0  0  0  0  0  0
  143.9342  133.2652  149.8985 C   0  0  0  0  0  0  0  0  0  0  0  0
  144.1742  134.7142  150.3621 C   0  0  0  0  0  0  0  0  0  0  0  0
  138.1847  139.0618  152.3721 H   0  0  0  0  0  0  0  0  0  0  0  0
  139.9370  139.1518  152.3956 H   0  0  0  0  0  0  0  0  0  0  0  0
  138.1519  137.6201  154.3385 H   0  0  0  0  0  0  0  0  0  0  0  0
  139.3301  136.9301  153.2568 H   0  0  0  0  0  0  0  0  0  0  0  0
  140.2892  136.7655  156.7440 H   0  0  0  0  0  0  0  0  0  0  0  0
  139.8939  138.4377  156.9279 H   0  0  0  0  0  0  0  0  0  0  0  0
  137.9227  136.4642  155.6735 H   0  0  0  0  0  0  0  0  0  0  0  0
  137.9635  135.7141  157.9948 H   0  0  0  0  0  0  0  0  0  0  0  0
  138.1805  137.3713  158.5663 H   0  0  0  0  0  0  0  0  0  0  0  0
  135.7083  136.1372  157.3233 H   0  0  0  0  0  0  0  0  0  0  0  0
  135.8028  137.2316  158.7058 H   0  0  0  0  0  0  0  0  0  0  0  0
  137.6928  139.3069  156.7226 H   0  0  0  0  0  0  0  0  0  0  0  0
  137.1549  138.6865  155.1605 H   0  0  0  0  0  0  0  0  0  0  0  0
  144.3763  139.0252  154.6998 H   0  0  0  0  0  0  0  0  0  0  0  0
  141.8667  133.3504  152.9854 H   0  0  0  0  0  0  0  0  0  0  0  0
  145.3029  134.2950  153.6639 H   0  0  0  0  0  0  0  0  0  0  0  0
  144.3481  133.1609  152.7690 H   0  0  0  0  0  0  0  0  0  0  0  0
  144.6917  136.9007  151.9689 H   0  0  0  0  0  0  0  0  0  0  0  0
  146.2079  136.3693  152.6678 H   0  0  0  0  0  0  0  0  0  0  0  0
  145.6654  137.4383  150.2339 H   0  0  0  0  0  0  0  0  0  0  0  0
  146.9839  134.4672  150.3685 H   0  0  0  0  0  0  0  0  0  0  0  0
  147.1093  133.8971  152.0073 H   0  0  0  0  0  0  0  0  0  0  0  0
  146.9716  132.0508  150.3171 H   0  0  0  0  0  0  0  0  0  0  0  0
  145.6376  131.9416  151.4380 H   0  0  0  0  0  0  0  0  0  0  0  0
  143.2874  133.2605  149.0212 H   0  0  0  0  0  0  0  0  0  0  0  0
  143.4269  132.6738  150.6603 H   0  0  0  0  0  0  0  0  0  0  0  0
  143.2282  135.1936  150.6116 H   0  0  0  0  0  0  0  0  0  0  0  0
  144.5639  135.2667  149.5068 H   0  0  0  0  0  0  0  0  0  0  0  0
  1  2  3  0  0  0  0
  2  3  1  0  0  0  0
  3  4  1  0  0  0  0
  3 30  1  0  0  0  0
  3 31  1  0  0  0  0
  4  5  1  0  0  0  0
  4 32  1  0  0  0  0
  4 33  1  0  0  0  0
  5  6  1  0  0  0  0
  5 12  1  0  0  0  0
  6  7  1  0  0  0  0
  6 34  1  0  0  0  0
  6 35  1  0  0  0  0
  7 11  1  0  0  0  0
  7  8  1  0  0  0  0
  7 36  1  0  0  0  0
  8  9  1  0  0  0  0
  8 37  1  0  0  0  0
  8 38  1  0  0  0  0
  9 10  1  0  0  0  0
  9 39  1  0  0  0  0
  9 40  1  0  0  0  0
 10 11  1  0  0  0  0
 11 41  1  0  0  0  0
 11 42  1  0  0  0  0
 12 17  1  0  0  0  0
 12 13  2  0  0  0  0
 13 14  1  0  0  0  0
 14 15  2  0  0  0  0
 14 43  1  0  0  0  0
 15 16  1  0  0  0  0
 16 20  1  0  0  0  0
 16 17  2  0  0  0  0
 17 18  1  0  0  0  0
 18 19  2  0  0  0  0
 19 20  1  0  0  0  0
 19 44  1  0  0  0  0
 20 21  1  0  0  0  0
 21 22  1  0  0  0  0
 21 45  1  0  0  0  0
 21 46  1  0  0  0  0
 22 29  1  0  0  0  0
 22 23  1  0  0  0  0
 22 25  1  0  0  0  0
 23 24  1  0  0  0  0
 23 47  1  0  0  0  0
 23 48  1  0  0  0  0
 24 49  1  0  0  0  0
 25 26  1  0  0  0  0
 25 50  1  0  0  0  0
 25 51  1  0  0  0  0
 26 27  1  0  0  0  0
 26 52  1  0  0  0  0
 26 53  1  0  0  0  0
 27 28  1  0  0  0  0
 28 29  1  0  0  0  0
 28 54  1  0  0  0  0
 28 55  1  0  0  0  0
 29 56  1  0  0  0  0
 29 57  1  0  0  0  0
M  END
> <s_m_source_file>
AV-unprocessed.smi

> <i_m_source_file_index>
14

> <i_lp_mmshare_version>
43012

> <i_f3d_flags>
0

> <s_epik_input>
W0NIMl0xT1tDSDJdW0NIMl1bQ0BIXTFbQ0gyXU4oW0NIMl1bQ0gyXUMjTiljKG5bY0hdbjIpYyhjMjMpbltjSF1uM1tDSDJdQzQoW0NIMl1bT0hdKVtDSDJdW0NIMl1PW0NIMl1bQ0gyXTQ=

> <s_epik_cmdline>
J2VwaWtfcHl0aG9uJywgJy1waCcsICc3LjAnLCAnLXRuJywgJzgnLCAnLW1hJywgJzIwMCcsICctbWV0YWxfYmluZGluZycsICctaW1hZScsICc8aW5maWxlLm1hZT4nLCAnLW9tYWUnLCAnPG91dGZpbGUubWFlPic=

> <r_lp_tautomer_probability>
1

> <r_epik_Ionization_Penalty>
0.000542547

> <r_epik_Ionization_Penalty_Charging>
0

> <r_epik_Ionization_Penalty_Neutral>
0.000542547

> <r_epik_State_Penalty>
0.000265709

> <r_epik_Charging_Adjusted_Penalty>
0.000265709

> <i_epik_Tot_Q>
0

> <i_epik_Tot_abs_Q>
0

> <r_epik_Metal_State_Penalty>
-0

> <b_epik_Metal_Only>
0

> <s_lp_Force_Field>
OPLS_2005

> <r_lp_Energy>
43.0361

> <b_lp_Chiralities_Consistent>
1

> <s_lp_Variant>
AV-unprocessed.smi:14-2

> <Gold.Version>
5.8.1

> <Gold.Id.Protein>
6NUR|6NUR_protein|mol2

> <Gold.PLP.Fitness>
46.2662

> <Gold.PLP.PLP>
-40.9577

> <Gold.PLP.part.hbond>
-2.6797

> <Gold.PLP.part.metal>
0.0000

> <Gold.PLP.part.buried>
-3.4497

> <Gold.PLP.part.nonpolar>
-35.7613

> <Gold.PLP.part.repulsive>
1.0528

> <Gold.PLP.ligand.clash>
0.0000

> <Gold.PLP.ligand.torsion>
1.8539

> <Gold.PLP.Chemscore.Hbond>
1.6123

> <Gold.PLP.Chemscore.CHOScore>
1.0276

> <Gold.PLP.Chemscore.Metal>
0.0000

> <Gold.Chemscore.Hbonds>
donor molecule, donor type, donor heavy atom, donor atom, acceptor molecule, acceptor atom, score
      L1  H    24    49       P1 10171  0.68
      P1  H  7954  7966       L1    24  0.25
      P1  H 11000 11005       L1    18  0.47
      L1  C    14    43       P1 10175  0.15
      L1  C    19    44       P1 10957  0.55

> <Gold.PLP.Chemscore.Internal.Correction>
1.0966

> <Gold.Rescore>
     Score         DG    S(hbond)    S(metal)    S(lipo)     H(rot)  DE(clash)    DE(int)     intcor
      6.05     -10.94       1.13        0.00      85.74       3.26       1.57       3.32       ----

> <Gold.Chemscore.Fitness>
6.0492

> <Gold.Chemscore.DG>
-10.9403

> <Gold.Chemscore.ZeroCoef>
-5.4800

> <Gold.Chemscore.Hbond>
1.1266

> <Gold.Chemscore.Metal>
0.0000

> <Gold.Chemscore.Lipo>
85.7356

> <Gold.Chemscore.Internal_Hbond>
0.0000

> <Gold.Chemscore.DEClash>
1.5749

> <Gold.Chemscore.DEInternal>
3.3162

> <Gold.Chemscore.Rot>
3.2553

> <Gold.Chemscore.Internal.Correction>
   9.000000E+99

> <Gold.Chemscore.Hbonds>
donor molecule, donor type, donor heavy atom, donor atom, acceptor molecule, acceptor atom, score
      L1  H    24    49       P1 10171  0.66
      P1  H  7954  7966       L1    24  0.03
      P1  H 11000 11005       L1    18  0.21

> <Gold.Chemscore.Hbond.Weighted>
-3.7628

> <Gold.Chemscore.Metal.Weighted>
-0.0000

> <Gold.Chemscore.Lipo.Weighted>
-10.0311

> <Gold.Chemscore.Internal_Hbond.Weighted>
0.0000

> <Gold.Chemscore.DEClash.Weighted>
1.5749

> <Gold.Chemscore.DEInternal.Weighted>
3.3162

> <Gold.Chemscore.Rot.Weighted>
8.3336

> <Gold.Chemscore.Internal.Correction.Weighted>
   9.000000E+99

> <Gold.Protein.RotatedTorsions>
[ 6907 6896 6895 6894 ] final  -93.15 input  -60.11 | X-H torsion
[ 7974 7965 7964 7962 ] final -122.54 input  175.53 | X-H torsion
[ 8008 7997 7996 7995 ] final  -51.44 input   59.86 | X-H torsion
[ 10167 10162 10161 10158 ] final -160.02 input  -65.29 | X-H torsion
[ 10718 10713 10712 10709 ] final   29.21 input   66.30 | X-H torsion
[ 10763 10752 10751 10750 ] final  -84.58 input  -60.55 | X-H torsion
[ 11005 11000 10999 10996 ] final   27.67 input  -57.11 | X-H torsion

> <Gold.Protein.ActiveResidues>
 VAL166  LYS551  ARG553  GLY616  TRP617  ASP618  TYR619  PRO620  LYS621  CYS622 
 ASP623  PHE694  ASN695  SER759  ASP760  ASP761  ALA762  ILE779  LEU786  VAL792 
 PHE793  MET794  SER795  GLU796  ALA797  LYS798  CYS799  TRP800  GLU811  SER814 

> <Gold.Protein.RotatedAtoms>
  150.6917  134.2012  159.4322 H   0  0  0  0  0  0  0  0  0  0  0  0  # atno 6907 bound_to 6896
  151.9978  134.9942  160.0573 H   0  0  0  0  0  0  0  0  0  0  0  0  # atno 6908 bound_to 6896
  152.1607  133.4545  159.4896 H   0  0  0  0  0  0  0  0  0  0  0  0  # atno 6909 bound_to 6896
  145.0284  140.8047  143.4338 H   0  0  0  0  0  0  0  0  0  0  0  0  # atno 7974 bound_to 7965
  154.4083  140.1248  156.4829 H   0  0  0  0  0  0  0  0  0  0  0  0  # atno 8008 bound_to 7997
  155.7067  140.3494  155.4936 H   0  0  0  0  0  0  0  0  0  0  0  0  # atno 8009 bound_to 7997
  155.9337  140.1074  157.1102 H   0  0  0  0  0  0  0  0  0  0  0  0  # atno 8010 bound_to 7997
  139.6571  143.9979  152.2201 H   0  0  0  0  0  0  0  0  0  0  0  0  # atno 10167 bound_to 10162
  157.2436  130.7081  149.6371 H   0  0  0  0  0  0  0  0  0  0  0  0  # atno 10718 bound_to 10713
  154.6011  135.5516  153.7375 H   0  0  0  0  0  0  0  0  0  0  0  0  # atno 10763 bound_to 10752
  153.0155  135.6366  154.1713 H   0  0  0  0  0  0  0  0  0  0  0  0  # atno 10764 bound_to 10752
  154.1653  135.2895  155.3077 H   0  0  0  0  0  0  0  0  0  0  0  0  # atno 10765 bound_to 10752
  140.3238  134.2514  155.7713 H   0  0  0  0  0  0  0  0  0  0  0  0  # atno 11005 bound_to 11000
  145.1803  139.2355  143.5296 LP  0  0  0  0  0  0  0  0  0  0  0  0  # atno 17320 bound_to 7965
  146.3495  140.1575  142.8591 LP  0  0  0  0  0  0  0  0  0  0  0  0  # atno 17321 bound_to 7965
  139.9708  144.6495  150.7991 LP  0  0  0  0  0  0  0  0  0  0  0  0  # atno 17342 bound_to 10162
  140.7564  143.3065  151.2950 LP  0  0  0  0  0  0  0  0  0  0  0  0  # atno 17343 bound_to 10162
  155.9669  130.4450  150.5484 LP  0  0  0  0  0  0  0  0  0  0  0  0  # atno 17370 bound_to 10713
  157.3352  131.0707  151.1830 LP  0  0  0  0  0  0  0  0  0  0  0  0  # atno 17371 bound_to 10713
  141.2080  133.7789  157.0085 LP  0  0  0  0  0  0  0  0  0  0  0  0  # atno 17394 bound_to 11000
  140.0919  134.9587  157.1789 LP  0  0  0  0  0  0  0  0  0  0  0  0  # atno 17395 bound_to 11000

$$$$
