AV-unprocessed.smi:2454|AV-procd|sdf|9697|dock10
  -GOLD-   2272013333D 1   1.00000     0.00000
 Structure written by MMmdl.
 42 43  0  0  0  0  0  0  0  0  1 V2000
  147.4650  136.4697  161.9163 C   0  0  0  0  0  0  0  0  0  0  0  0
  147.7650  137.2289  160.7583 O   0  0  0  0  0  0  0  0  0  0  0  0
  147.6470  136.4705  159.5665 C   0  0  0  0  0  0  0  0  0  0  0  0
  148.9265  136.5127  158.7569 C   0  0  0  0  0  0  0  0  0  0  0  0
  149.9990  137.3523  159.1248 C   0  0  0  0  0  0  0  0  0  0  0  0
  151.1570  137.3196  158.3152 C   0  0  0  0  0  0  0  0  0  0  0  0
  152.2102  138.1873  158.7294 N   0  0  0  0  0  0  0  0  0  0  0  0
  152.1893  139.4308  159.2559 C   0  0  0  0  0  0  0  0  0  0  0  0
  151.1263  140.0159  159.4569 O   0  0  0  0  0  0  0  0  0  0  0  0
  153.3835  139.9763  159.5397 N   0  0  0  0  0  0  0  0  0  0  0  0
  153.6028  141.2976  160.1187 C   0  0  2  0  0  0  0  0  0  0  0  0
  153.2498  141.2985  161.6191 C   0  0  0  0  0  0  0  0  0  0  0  0
  153.3954  142.7027  162.2240 C   0  0  0  0  0  0  0  0  0  0  0  0
  152.5517  143.7323  161.4559 C   0  0  0  0  0  0  0  0  0  0  0  0
  152.9056  143.7508  159.9538 C   0  0  2  0  0  0  0  0  0  0  0  0
  152.0776  144.7951  159.1771 C   0  0  0  0  0  0  0  0  0  0  0  0
  152.0421  145.9562  159.8318 F   0  0  0  0  0  0  0  0  0  0  0  0
  152.6118  144.9960  157.9725 F   0  0  0  0  0  0  0  0  0  0  0  0
  150.8299  144.3565  159.0094 F   0  0  0  0  0  0  0  0  0  0  0  0
  152.7567  142.3350  159.3573 C   0  0  0  0  0  0  0  0  0  0  0  0
  151.1975  136.4983  157.2346 N   0  0  0  0  0  0  0  0  0  0  0  0
  150.1270  135.7430  156.9767 C   0  0  0  0  0  0  0  0  0  0  0  0
  148.9937  135.7049  157.6775 N   0  0  0  0  0  0  0  0  0  0  0  0
  147.5696  137.0961  162.8019 H   0  0  0  0  0  0  0  0  0  0  0  0
  148.1451  135.6230  162.0204 H   0  0  0  0  0  0  0  0  0  0  0  0
  146.4410  136.0951  161.8876 H   0  0  0  0  0  0  0  0  0  0  0  0
  147.4060  135.4331  159.8056 H   0  0  0  0  0  0  0  0  0  0  0  0
  146.8276  136.8574  158.9585 H   0  0  0  0  0  0  0  0  0  0  0  0
  149.9334  137.9912  159.9938 H   0  0  0  0  0  0  0  0  0  0  0  0
  153.1359  137.8026  158.6099 H   0  0  0  0  0  0  0  0  0  0  0  0
  154.2067  139.4246  159.3411 H   0  0  0  0  0  0  0  0  0  0  0  0
  154.6546  141.5660  160.0020 H   0  0  0  0  0  0  0  0  0  0  0  0
  152.2258  140.9490  161.7588 H   0  0  0  0  0  0  0  0  0  0  0  0
  153.8907  140.6007  162.1591 H   0  0  0  0  0  0  0  0  0  0  0  0
  153.0979  142.6871  163.2728 H   0  0  0  0  0  0  0  0  0  0  0  0
  154.4441  143.0020  162.2046 H   0  0  0  0  0  0  0  0  0  0  0  0
  151.4936  143.5009  161.5844 H   0  0  0  0  0  0  0  0  0  0  0  0
  152.7056  144.7204  161.8903 H   0  0  0  0  0  0  0  0  0  0  0  0
  153.9546  144.0372  159.8650 H   0  0  0  0  0  0  0  0  0  0  0  0
  153.0519  142.3431  158.3074 H   0  0  0  0  0  0  0  0  0  0  0  0
  151.7069  142.0384  159.3784 H   0  0  0  0  0  0  0  0  0  0  0  0
  150.1852  135.0984  156.1122 H   0  0  0  0  0  0  0  0  0  0  0  0
  1  2  1  0  0  0  0
  1 24  1  0  0  0  0
  1 25  1  0  0  0  0
  1 26  1  0  0  0  0
  2  3  1  0  0  0  0
  3  4  1  0  0  0  0
  3 27  1  0  0  0  0
  3 28  1  0  0  0  0
  4 23  1  0  0  0  0
  4  5  2  0  0  0  0
  5  6  1  0  0  0  0
  5 29  1  0  0  0  0
  6  7  1  0  0  0  0
  6 21  2  0  0  0  0
  7  8  1  0  0  0  0
  7 30  1  0  0  0  0
  8  9  2  0  0  0  0
  8 10  1  0  0  0  0
 10 11  1  0  0  0  0
 10 31  1  0  0  0  0
 11 20  1  0  0  0  0
 11 12  1  0  0  0  0
 11 32  1  0  0  0  0
 12 13  1  0  0  0  0
 12 33  1  0  0  0  0
 12 34  1  0  0  0  0
 13 14  1  0  0  0  0
 13 35  1  0  0  0  0
 13 36  1  0  0  0  0
 14 15  1  0  0  0  0
 14 37  1  0  0  0  0
 14 38  1  0  0  0  0
 15 16  1  0  0  0  0
 15 20  1  0  0  0  0
 15 39  1  0  0  0  0
 16 17  1  0  0  0  0
 16 18  1  0  0  0  0
 16 19  1  0  0  0  0
 20 40  1  0  0  0  0
 20 41  1  0  0  0  0
 21 22  1  0  0  0  0
 22 23  2  0  0  0  0
 22 42  1  0  0  0  0
M  END
> <s_m_source_file>
AV-unprocessed.smi

> <i_m_source_file_index>
2454

> <i_lp_mmshare_version>
43012

> <i_f3d_flags>
0

> <s_epik_input>
W0NIM11PW0NIMl1jMVtjSF1jKG5bY0hdbjEpW05IXUMoPU8pW05IXVtDQEBIXTJbQ0gyXVtDSDJdW0NIMl1bQ0BASF0oQyhGKShGKUYpW0NIMl0y

> <s_epik_cmdline>
J2VwaWtfcHl0aG9uJywgJy1waCcsICc3LjAnLCAnLXRuJywgJzgnLCAnLW1hJywgJzIwMCcsICctbWV0YWxfYmluZGluZycsICctaW1hZScsICc8aW5maWxlLm1hZT4nLCAnLW9tYWUnLCAnPG91dGZpbGUubWFlPic=

> <r_lp_tautomer_probability>
1

> <r_epik_Ionization_Penalty>
3.01554e-05

> <r_epik_Ionization_Penalty_Charging>
0

> <r_epik_Ionization_Penalty_Neutral>
3.01554e-05

> <r_epik_State_Penalty>
-0

> <r_epik_Charging_Adjusted_Penalty>
0

> <i_epik_Tot_Q>
0

> <i_epik_Tot_abs_Q>
0

> <r_epik_Metal_State_Penalty>
-0

> <b_epik_Metal_Only>
0

> <s_lp_Force_Field>
OPLS_2005

> <r_lp_Energy>
14.2483

> <b_lp_Chiralities_Consistent>
1

> <s_lp_Variant>
AV-unprocessed.smi:2454-3

> <Gold.Version>
5.8.1

> <Gold.Id.Protein>
6NUR|6NUR_protein|mol2

> <Gold.PLP.Fitness>
49.4467

> <Gold.PLP.PLP>
-47.5909

> <Gold.PLP.part.hbond>
-3.0000

> <Gold.PLP.part.metal>
0.0000

> <Gold.PLP.part.buried>
-4.0300

> <Gold.PLP.part.nonpolar>
-40.5519

> <Gold.PLP.part.repulsive>
0.1834

> <Gold.PLP.ligand.clash>
0.0000

> <Gold.PLP.ligand.torsion>
1.0883

> <Gold.PLP.Chemscore.Hbond>
1.3247

> <Gold.PLP.Chemscore.CHOScore>
0.0000

> <Gold.PLP.Chemscore.Metal>
0.0000

> <Gold.Chemscore.Hbonds>
donor molecule, donor type, donor heavy atom, donor atom, acceptor molecule, acceptor atom, score
      P1  H  6931  6943       L1     2  0.29
      P1  H  6934  6947       L1     2  0.88

> <Gold.PLP.Chemscore.Internal.Correction>
0.0581

> <Gold.Rescore>
     Score         DG    S(hbond)    S(metal)    S(lipo)     H(rot)  DE(clash)    DE(int)     intcor
     11.69     -15.59       0.82        0.00      98.15       1.60       0.29       3.61       ----

> <Gold.Chemscore.Fitness>
11.6920

> <Gold.Chemscore.DG>
-15.5901

> <Gold.Chemscore.ZeroCoef>
-5.4800

> <Gold.Chemscore.Hbond>
0.8177

> <Gold.Chemscore.Metal>
0.0000

> <Gold.Chemscore.Lipo>
98.1543

> <Gold.Chemscore.Internal_Hbond>
0.0000

> <Gold.Chemscore.DEClash>
0.2861

> <Gold.Chemscore.DEInternal>
3.6120

> <Gold.Chemscore.Rot>
1.6035

> <Gold.Chemscore.Internal.Correction>
   9.000000E+99

> <Gold.Chemscore.Hbonds>
donor molecule, donor type, donor heavy atom, donor atom, acceptor molecule, acceptor atom, score
      P1  H  6931  6943       L1     2  0.01
      P1  H  6934  6947       L1     2  0.71

> <Gold.Chemscore.Hbond.Weighted>
-2.7311

> <Gold.Chemscore.Metal.Weighted>
-0.0000

> <Gold.Chemscore.Lipo.Weighted>
-11.4840

> <Gold.Chemscore.Internal_Hbond.Weighted>
0.0000

> <Gold.Chemscore.DEClash.Weighted>
0.2861

> <Gold.Chemscore.DEInternal.Weighted>
3.6120

> <Gold.Chemscore.Rot.Weighted>
4.1050

> <Gold.Chemscore.Internal.Correction.Weighted>
   9.000000E+99

> <Gold.Protein.RotatedTorsions>
[ 6907 6896 6895 6894 ] final  128.32 input  -60.11 | X-H torsion
[ 7974 7965 7964 7962 ] final  -22.51 input  175.53 | X-H torsion
[ 8008 7997 7996 7995 ] final  -67.34 input   59.86 | X-H torsion
[ 10167 10162 10161 10158 ] final  101.03 input  -65.29 | X-H torsion
[ 10718 10713 10712 10709 ] final -117.94 input   66.30 | X-H torsion
[ 10763 10752 10751 10750 ] final   85.13 input  -60.55 | X-H torsion
[ 11005 11000 10999 10996 ] final   10.98 input  -57.11 | X-H torsion

> <Gold.Protein.ActiveResidues>
 VAL166  LYS551  ARG553  GLY616  TRP617  ASP618  TYR619  PRO620  LYS621  CYS622 
 ASP623  PHE694  ASN695  SER759  ASP760  ASP761  ALA762  ILE779  LEU786  VAL792 
 PHE793  MET794  SER795  GLU796  ALA797  LYS798  CYS799  TRP800  GLU811  SER814 

> <Gold.Protein.RotatedAtoms>
  152.3730  133.6444  159.6101 H   0  0  0  0  0  0  0  0  0  0  0  0  # atno 6907 bound_to 6896
  150.7683  133.9239  159.3415 H   0  0  0  0  0  0  0  0  0  0  0  0  # atno 6908 bound_to 6896
  151.7058  135.0923  160.0310 H   0  0  0  0  0  0  0  0  0  0  0  0  # atno 6909 bound_to 6896
  146.1671  140.4488  142.8547 H   0  0  0  0  0  0  0  0  0  0  0  0  # atno 7974 bound_to 7965
  154.4794  140.0894  156.7340 H   0  0  0  0  0  0  0  0  0  0  0  0  # atno 8008 bound_to 7997
  155.4511  140.3457  155.4283 H   0  0  0  0  0  0  0  0  0  0  0  0  # atno 8009 bound_to 7997
  156.1167  140.1463  156.9251 H   0  0  0  0  0  0  0  0  0  0  0  0  # atno 8010 bound_to 7997
  139.7474  144.6994  151.0483 H   0  0  0  0  0  0  0  0  0  0  0  0  # atno 10167 bound_to 10162
  156.1070  130.6218  150.9228 H   0  0  0  0  0  0  0  0  0  0  0  0  # atno 10718 bound_to 10713
  153.1446  135.4628  154.9547 H   0  0  0  0  0  0  0  0  0  0  0  0  # atno 10763 bound_to 10752
  154.7775  135.3178  154.8063 H   0  0  0  0  0  0  0  0  0  0  0  0  # atno 10764 bound_to 10752
  153.8579  135.6915  153.4840 H   0  0  0  0  0  0  0  0  0  0  0  0  # atno 10765 bound_to 10752
  140.5083  134.0677  155.7811 H   0  0  0  0  0  0  0  0  0  0  0  0  # atno 11005 bound_to 11000
  144.8109  140.6383  143.6416 LP  0  0  0  0  0  0  0  0  0  0  0  0  # atno 17320 bound_to 7965
  145.4437  139.1532  143.3956 LP  0  0  0  0  0  0  0  0  0  0  0  0  # atno 17321 bound_to 7965
  140.7794  143.4850  150.9967 LP  0  0  0  0  0  0  0  0  0  0  0  0  # atno 17342 bound_to 10162
  139.8538  143.7403  152.3177 LP  0  0  0  0  0  0  0  0  0  0  0  0  # atno 17343 bound_to 10162
  157.6248  131.0926  150.8555 LP  0  0  0  0  0  0  0  0  0  0  0  0  # atno 17370 bound_to 10713
  156.8673  130.5134  149.5299 LP  0  0  0  0  0  0  0  0  0  0  0  0  # atno 17371 bound_to 10713
  141.1399  133.9157  157.2350 LP  0  0  0  0  0  0  0  0  0  0  0  0  # atno 17394 bound_to 11000
  139.9673  135.0138  156.9421 LP  0  0  0  0  0  0  0  0  0  0  0  0  # atno 17395 bound_to 11000

$$$$
