AV-unprocessed.smi:50|AV-procd|sdf|497|dock6
  -GOLD-   2262016373D 1   1.00000     0.00000
 Structure written by MMmdl.
 42 43  0  0  0  0  0  0  0  0  2 V2000
  146.2384  133.3709  150.5219 C   0  0  0  0  0  0  0  0  0  0  0  0
  144.7931  133.5737  151.0093 C   0  0  0  0  0  0  0  0  0  0  0  0
  143.8233  132.7065  150.1827 C   0  0  0  0  0  0  0  0  0  0  0  0
  144.4132  135.0790  151.0871 C   0  0  2  0  0  0  0  0  0  0  0  0
  144.2940  135.6555  149.7470 N   0  0  0  0  0  0  0  0  0  0  0  0
  145.3166  135.9126  152.0168 C   0  0  0  0  0  0  0  0  0  0  0  0
  146.1584  135.4168  152.7662 O   0  0  0  0  0  0  0  0  0  0  0  0
  145.0758  137.2316  151.8892 O   0  0  0  0  0  0  0  0  0  0  0  0
  146.1257  138.1616  152.0951 C   0  0  0  0  0  0  0  0  0  0  0  0
  146.0655  138.6839  153.5325 C   0  0  0  0  0  0  0  0  0  0  0  0
  147.3865  138.7737  154.0386 O   0  0  0  0  0  0  0  0  0  0  0  0
  147.6974  140.0412  154.5118 C   0  0  0  0  0  0  0  0  0  0  0  0
  149.1197  140.0732  154.7878 N   0  0  0  0  0  0  0  0  0  0  0  0
  149.8555  141.1436  155.1449 C   0  0  0  0  0  0  0  0  0  0  0  0
  151.1516  140.9053  155.3423 N   0  0  0  0  0  0  0  0  0  0  0  0
  151.2395  139.5425  155.0801 C   0  0  0  0  0  0  0  0  0  0  0  0
  152.3878  138.6043  155.1047 C   0  0  0  0  0  0  0  0  0  0  0  0
  153.5027  139.0305  155.4002 O   0  0  0  0  0  0  0  0  0  0  0  0
  152.0941  137.3068  154.7864 N   0  5  0  0  0  0  0  0  0  0  0  0
  150.7821  136.9353  154.4596 C   0  0  0  0  0  0  0  0  0  0  0  0
  150.6656  135.5951  154.1617 N   0  0  0  0  0  0  0  0  0  0  0  0
  149.7237  137.7072  154.4164 N   0  0  0  0  0  0  0  0  0  0  0  0
  150.0215  139.0173  154.7424 C   0  0  0  0  0  0  0  0  0  0  0  0
  143.4104  135.1175  151.5138 H   0  0  0  0  0  0  0  0  0  0  0  0
  146.3622  133.6829  149.4844 H   0  0  0  0  0  0  0  0  0  0  0  0
  146.5287  132.3221  150.5863 H   0  0  0  0  0  0  0  0  0  0  0  0
  146.9421  133.9424  151.1275 H   0  0  0  0  0  0  0  0  0  0  0  0
  144.7622  133.1904  152.0306 H   0  0  0  0  0  0  0  0  0  0  0  0
  143.8705  132.9432  149.1198 H   0  0  0  0  0  0  0  0  0  0  0  0
  142.7918  132.8368  150.5106 H   0  0  0  0  0  0  0  0  0  0  0  0
  144.0653  131.6487  150.2887 H   0  0  0  0  0  0  0  0  0  0  0  0
  144.2459  136.6637  149.7793 H   0  0  0  0  0  0  0  0  0  0  0  0
  145.0932  135.4263  149.1733 H   0  0  0  0  0  0  0  0  0  0  0  0
  147.0888  137.6831  151.9118 H   0  0  0  0  0  0  0  0  0  0  0  0
  146.0278  138.9887  151.3906 H   0  0  0  0  0  0  0  0  0  0  0  0
  145.5884  139.6651  153.5548 H   0  0  0  0  0  0  0  0  0  0  0  0
  145.4691  138.0096  154.1491 H   0  0  0  0  0  0  0  0  0  0  0  0
  147.4661  140.8021  153.7646 H   0  0  0  0  0  0  0  0  0  0  0  0
  147.1533  140.2567  155.4328 H   0  0  0  0  0  0  0  0  0  0  0  0
  149.4273  142.1280  155.2634 H   0  0  0  0  0  0  0  0  0  0  0  0
  151.4422  134.9510  154.1775 H   0  0  0  0  0  0  0  0  0  0  0  0
  149.7902  135.1618  153.9069 H   0  0  0  0  0  0  0  0  0  0  0  0
  1  2  1  0  0  0  0
  1 25  1  0  0  0  0
  1 26  1  0  0  0  0
  1 27  1  0  0  0  0
  2  3  1  0  0  0  0
  2  4  1  0  0  0  0
  2 28  1  0  0  0  0
  3 29  1  0  0  0  0
  3 30  1  0  0  0  0
  3 31  1  0  0  0  0
  4 24  1  0  0  0  0
  4  5  1  0  0  0  0
  4  6  1  0  0  0  0
  5 32  1  0  0  0  0
  5 33  1  0  0  0  0
  6  7  2  0  0  0  0
  6  8  1  0  0  0  0
  8  9  1  0  0  0  0
  9 10  1  0  0  0  0
  9 34  1  0  0  0  0
  9 35  1  0  0  0  0
 10 11  1  0  0  0  0
 10 36  1  0  0  0  0
 10 37  1  0  0  0  0
 11 12  1  0  0  0  0
 12 13  1  0  0  0  0
 12 38  1  0  0  0  0
 12 39  1  0  0  0  0
 13 23  1  0  0  0  0
 13 14  1  0  0  0  0
 14 15  2  0  0  0  0
 14 40  1  0  0  0  0
 15 16  1  0  0  0  0
 16 23  2  0  0  0  0
 16 17  1  0  0  0  0
 17 18  2  0  0  0  0
 17 19  1  0  0  0  0
 19 20  1  0  0  0  0
 20 21  1  0  0  0  0
 20 22  2  0  0  0  0
 21 41  1  0  0  0  0
 21 42  1  0  0  0  0
 22 23  1  0  0  0  0
M  CHG  1  19  -1
M  END
> <s_m_source_file>
AV-unprocessed.smi

> <i_m_source_file_index>
50

> <i_lp_mmshare_version>
43012

> <i_f3d_flags>
0

> <s_epik_input>
W0NIM11bQ0hdKFtDSDNdKVtDQEhdKFtOSDJdKUMoPU8pT1tDSDJdW0NIMl1PW0NIMl1uKFtjSF1uMSljKGMxMiluYyhbTkgyXSlbbkhdYzI9Tw==

> <s_epik_cmdline>
J2VwaWtfcHl0aG9uJywgJy1waCcsICc3LjAnLCAnLXRuJywgJzgnLCAnLW1hJywgJzIwMCcsICctbWV0YWxfYmluZGluZycsICctaW1hZScsICc8aW5maWxlLm1hZT4nLCAnLW9tYWUnLCAnPG91dGZpbGUubWFlPic=

> <r_lp_tautomer_probability>
0.99994

> <r_epik_Ionization_Penalty>
4.26118

> <r_epik_Ionization_Penalty_Charging>
1.23364e-10

> <r_epik_Ionization_Penalty_Neutral>
4.26118

> <r_epik_State_Penalty>
4.27372

> <r_epik_Charging_Adjusted_Penalty>
4.27372

> <i_epik_Tot_Q>
-1

> <i_epik_Tot_abs_Q>
1

> <r_epik_Metal_State_Penalty>
1.24306

> <b_epik_Metal_Only>
1

> <s_epik_Chemistry_Notes>
This compound has an ester and may undergo hydrolysis at high or low pH. This compound contains an acetal/aminal-like group ( X-CH(R)-Y where X, Y are N, S, or O) that may be acid/base labile, releasing an aldehyde.

> <s_lp_Force_Field>
OPLS_2005

> <r_lp_Energy>
24.4723

> <b_lp_Chiralities_Consistent>
1

> <s_lp_Variant>
AV-unprocessed.smi:50-7

> <Gold.Version>
5.8.1

> <Gold.Id.Protein>
6NUR|6NUR_protein|mol2

> <Gold.PLP.Fitness>
50.0420

> <Gold.PLP.PLP>
-36.4841

> <Gold.PLP.part.hbond>
-6.7397

> <Gold.PLP.part.metal>
0.0000

> <Gold.PLP.part.buried>
-5.5171

> <Gold.PLP.part.nonpolar>
-30.2855

> <Gold.PLP.part.repulsive>
4.5430

> <Gold.PLP.ligand.clash>
0.0000

> <Gold.PLP.ligand.torsion>
1.6797

> <Gold.PLP.Chemscore.Hbond>
4.8430

> <Gold.PLP.Chemscore.CHOScore>
0.6976

> <Gold.PLP.Chemscore.Metal>
0.0000

> <Gold.Chemscore.Hbonds>
donor molecule, donor type, donor heavy atom, donor atom, acceptor molecule, acceptor atom, score
      L1  H     5    32       P1 10171  1.00
      L1  H     5    33       P1  7921  1.00
      P1  H  7997  8009       L1    18  0.93
      P1  H 10752 10765       L1    19  1.60
      L1  C    14    40       P1  8028  0.65

> <Gold.PLP.Chemscore.Internal.Correction>
0.2959

> <Gold.Rescore>
     Score         DG    S(hbond)    S(metal)    S(lipo)     H(rot)  DE(clash)    DE(int)     intcor
      5.51     -10.66       3.46        0.00      48.85       4.72       1.78       3.37       ----

> <Gold.Chemscore.Fitness>
5.5133

> <Gold.Chemscore.DG>
-10.6574

> <Gold.Chemscore.ZeroCoef>
-5.4800

> <Gold.Chemscore.Hbond>
3.4596

> <Gold.Chemscore.Metal>
0.0000

> <Gold.Chemscore.Lipo>
48.8515

> <Gold.Chemscore.Internal_Hbond>
0.0000

> <Gold.Chemscore.DEClash>
1.7781

> <Gold.Chemscore.DEInternal>
3.3661

> <Gold.Chemscore.Rot>
4.7239

> <Gold.Chemscore.Internal.Correction>
   9.000000E+99

> <Gold.Chemscore.Hbonds>
donor molecule, donor type, donor heavy atom, donor atom, acceptor molecule, acceptor atom, score
      L1  H     5    32       P1 10171  0.99
      L1  H     5    33       P1  7921  0.98
      P1  H  7997  8009       L1    18  0.88
      P1  H 10752 10765       L1    19  0.20

> <Gold.Chemscore.Hbond.Weighted>
-11.5551

> <Gold.Chemscore.Metal.Weighted>
-0.0000

> <Gold.Chemscore.Lipo.Weighted>
-5.7156

> <Gold.Chemscore.Internal_Hbond.Weighted>
0.0000

> <Gold.Chemscore.DEClash.Weighted>
1.7781

> <Gold.Chemscore.DEInternal.Weighted>
3.3661

> <Gold.Chemscore.Rot.Weighted>
12.0933

> <Gold.Chemscore.Internal.Correction.Weighted>
   9.000000E+99

> <Gold.Protein.RotatedTorsions>
[ 6907 6896 6895 6894 ] final   22.05 input  -60.11 | X-H torsion
[ 7974 7965 7964 7962 ] final  -36.02 input  175.53 | X-H torsion
[ 8008 7997 7996 7995 ] final -155.31 input   59.86 | X-H torsion
[ 10167 10162 10161 10158 ] final  -16.15 input  -65.29 | X-H torsion
[ 10718 10713 10712 10709 ] final  166.77 input   66.30 | X-H torsion
[ 10763 10752 10751 10750 ] final -177.70 input  -60.55 | X-H torsion
[ 11005 11000 10999 10996 ] final  -37.01 input  -57.11 | X-H torsion

> <Gold.Protein.ActiveResidues>
 VAL166  LYS551  ARG553  GLY616  TRP617  ASP618  TYR619  PRO620  LYS621  CYS622 
 ASP623  PHE694  ASN695  SER759  ASP760  ASP761  ALA762  ILE779  LEU786  VAL792 
 PHE793  MET794  SER795  GLU796  ALA797  LYS798  CYS799  TRP800  GLU811  SER814 

> <Gold.Protein.RotatedAtoms>
  151.9212  135.0297  160.0521 H   0  0  0  0  0  0  0  0  0  0  0  0  # atno 6907 bound_to 6896
  152.2197  133.4970  159.5164 H   0  0  0  0  0  0  0  0  0  0  0  0  # atno 6908 bound_to 6896
  150.6997  134.1275  159.4100 H   0  0  0  0  0  0  0  0  0  0  0  0  # atno 6909 bound_to 6896
  146.0697  140.6229  142.8958 H   0  0  0  0  0  0  0  0  0  0  0  0  # atno 7974 bound_to 7965
  155.6999  140.0765  157.2414 H   0  0  0  0  0  0  0  0  0  0  0  0  # atno 8008 bound_to 7997
  154.4075  140.1649  156.2232 H   0  0  0  0  0  0  0  0  0  0  0  0  # atno 8009 bound_to 7997
  155.9377  140.3387  155.6304 H   0  0  0  0  0  0  0  0  0  0  0  0  # atno 8010 bound_to 7997
  140.7229  143.5145  150.9709 H   0  0  0  0  0  0  0  0  0  0  0  0  # atno 10167 bound_to 10162
  157.0610  131.0340  151.2647 H   0  0  0  0  0  0  0  0  0  0  0  0  # atno 10718 bound_to 10713
  154.5568  135.2817  155.0957 H   0  0  0  0  0  0  0  0  0  0  0  0  # atno 10763 bound_to 10752
  154.2381  135.6362  153.5201 H   0  0  0  0  0  0  0  0  0  0  0  0  # atno 10764 bound_to 10752
  153.0018  135.5553  154.6151 H   0  0  0  0  0  0  0  0  0  0  0  0  # atno 10765 bound_to 10752
  140.9919  133.7000  156.1866 H   0  0  0  0  0  0  0  0  0  0  0  0  # atno 11005 bound_to 11000
  144.7224  140.4416  143.6998 LP  0  0  0  0  0  0  0  0  0  0  0  0  # atno 17320 bound_to 7965
  145.6414  139.1550  143.2913 LP  0  0  0  0  0  0  0  0  0  0  0  0  # atno 17321 bound_to 7965
  139.8860  143.7012  152.3151 LP  0  0  0  0  0  0  0  0  0  0  0  0  # atno 17342 bound_to 10162
  139.7311  144.7582  151.0800 LP  0  0  0  0  0  0  0  0  0  0  0  0  # atno 17343 bound_to 10162
  157.4954  130.7847  149.7550 LP  0  0  0  0  0  0  0  0  0  0  0  0  # atno 17370 bound_to 10713
  155.9978  130.3898  150.2725 LP  0  0  0  0  0  0  0  0  0  0  0  0  # atno 17371 bound_to 10713
  140.7026  134.4547  157.5585 LP  0  0  0  0  0  0  0  0  0  0  0  0  # atno 17394 bound_to 11000
  139.8996  134.8587  156.1952 LP  0  0  0  0  0  0  0  0  0  0  0  0  # atno 17395 bound_to 11000

$$$$
