AV-unprocessed.smi:2850|AV-procd|sdf|10968|dock6
  -GOLD-   2272015423D 1   1.00000     0.00000
 Structure written by MMmdl.
 45 46  0  0  0  0  0  0  0  0  2 V2000
  152.4677  143.2544  160.1458 C   0  0  0  0  0  0  0  0  0  0  0  0
  153.0806  141.6197  159.6508 S   0  0  0  0  0  0  0  0  0  0  0  0
  152.2285  141.1672  158.1698 C   0  0  0  0  0  0  0  0  0  0  0  0
  151.2004  141.9792  157.6588 C   0  0  0  0  0  0  0  0  0  0  0  0
  150.5715  141.5461  156.4785 C   0  0  0  0  0  0  0  0  0  0  0  0
  151.0173  140.3385  155.9038 C   0  0  0  0  0  0  0  0  0  0  0  0
  150.4078  139.8823  154.7274 N   0  0  0  0  0  0  0  0  0  0  0  0
  149.0339  140.2524  154.4166 C   0  0  0  0  0  0  0  0  0  0  0  0
  148.3341  139.1754  153.5762 C   0  0  1  0  0  0  0  0  0  0  0  0
  147.9105  137.9673  154.4350 C   0  0  0  0  0  0  0  0  0  0  0  0
  147.1684  136.9778  153.6143 N   0  3  1  0  0  0  0  0  0  0  0  0
  146.7688  135.7579  154.3624 C   0  0  0  0  0  0  0  0  0  0  0  0
  146.7354  134.4882  153.4843 C   0  0  0  0  0  0  0  0  0  0  0  0
  145.9037  134.6946  152.2072 C   0  0  0  0  0  0  0  0  0  0  0  0
  146.1975  133.2930  154.2855 C   0  0  0  0  0  0  0  0  0  0  0  0
  146.0195  137.6265  152.9399 C   0  0  0  0  0  0  0  0  0  0  0  0
  146.4897  138.8480  152.1346 C   0  0  0  0  0  0  0  0  0  0  0  0
  147.1668  139.7516  152.9983 O   0  0  0  0  0  0  0  0  0  0  0  0
  152.0200  139.6080  156.4547 N   0  0  0  0  0  0  0  0  0  0  0  0
  152.6215  140.0165  157.5777 N   0  0  0  0  0  0  0  0  0  0  0  0
  152.9721  143.5836  161.0542 H   0  0  0  0  0  0  0  0  0  0  0  0
  151.3958  143.2175  160.3413 H   0  0  0  0  0  0  0  0  0  0  0  0
  152.6569  143.9882  159.3620 H   0  0  0  0  0  0  0  0  0  0  0  0
  150.9051  142.8945  158.1502 H   0  0  0  0  0  0  0  0  0  0  0  0
  149.7738  142.1222  156.0329 H   0  0  0  0  0  0  0  0  0  0  0  0
  150.9729  139.4544  154.0082 H   0  0  0  0  0  0  0  0  0  0  0  0
  148.4949  140.3906  155.3547 H   0  0  0  0  0  0  0  0  0  0  0  0
  149.0180  141.2084  153.8915 H   0  0  0  0  0  0  0  0  0  0  0  0
  149.0106  138.8398  152.7874 H   0  0  0  0  0  0  0  0  0  0  0  0
  148.7981  137.5089  154.8696 H   0  0  0  0  0  0  0  0  0  0  0  0
  147.2831  138.2972  155.2648 H   0  0  0  0  0  0  0  0  0  0  0  0
  147.4417  135.6219  155.2106 H   0  0  0  0  0  0  0  0  0  0  0  0
  145.7741  135.9049  154.7864 H   0  0  0  0  0  0  0  0  0  0  0  0
  147.7512  134.2316  153.1858 H   0  0  0  0  0  0  0  0  0  0  0  0
  144.8726  134.9592  152.4438 H   0  0  0  0  0  0  0  0  0  0  0  0
  145.8823  133.7872  151.6029 H   0  0  0  0  0  0  0  0  0  0  0  0
  146.3172  135.4881  151.5843 H   0  0  0  0  0  0  0  0  0  0  0  0
  145.1696  133.4610  154.6083 H   0  0  0  0  0  0  0  0  0  0  0  0
  146.8004  133.1115  155.1756 H   0  0  0  0  0  0  0  0  0  0  0  0
  146.2134  132.3802  153.6889 H   0  0  0  0  0  0  0  0  0  0  0  0
  145.5298  136.9161  152.2726 H   0  0  0  0  0  0  0  0  0  0  0  0
  145.2817  137.9303  153.6843 H   0  0  0  0  0  0  0  0  0  0  0  0
  147.1438  138.5482  151.3143 H   0  0  0  0  0  0  0  0  0  0  0  0
  145.6345  139.3577  151.6906 H   0  0  0  0  0  0  0  0  0  0  0  0
  147.7922  136.6739  152.8802 H   0  0  0  0  0  0  0  0  0  0  0  0
  1  2  1  0  0  0  0
  1 21  1  0  0  0  0
  1 22  1  0  0  0  0
  1 23  1  0  0  0  0
  2  3  1  0  0  0  0
  3 20  1  0  0  0  0
  3  4  2  0  0  0  0
  4  5  1  0  0  0  0
  4 24  1  0  0  0  0
  5  6  2  0  0  0  0
  5 25  1  0  0  0  0
  6  7  1  0  0  0  0
  6 19  1  0  0  0  0
  7  8  1  0  0  0  0
  7 26  1  0  0  0  0
  8  9  1  0  0  0  0
  8 27  1  0  0  0  0
  8 28  1  0  0  0  0
  9 18  1  0  0  0  0
  9 10  1  0  0  0  0
  9 29  1  0  0  0  0
 10 11  1  0  0  0  0
 10 30  1  0  0  0  0
 10 31  1  0  0  0  0
 11 12  1  0  0  0  0
 11 16  1  0  0  0  0
 11 45  1  0  0  0  0
 12 13  1  0  0  0  0
 12 32  1  0  0  0  0
 12 33  1  0  0  0  0
 13 14  1  0  0  0  0
 13 15  1  0  0  0  0
 13 34  1  0  0  0  0
 14 35  1  0  0  0  0
 14 36  1  0  0  0  0
 14 37  1  0  0  0  0
 15 38  1  0  0  0  0
 15 39  1  0  0  0  0
 15 40  1  0  0  0  0
 16 17  1  0  0  0  0
 16 41  1  0  0  0  0
 16 42  1  0  0  0  0
 17 18  1  0  0  0  0
 17 43  1  0  0  0  0
 17 44  1  0  0  0  0
 19 20  2  0  0  0  0
M  CHG  1  11   1
M  END
> <s_m_source_file>
AV-unprocessed.smi

> <i_m_source_file_index>
2850

> <i_lp_mmshare_version>
43012

> <i_f3d_flags>
0

> <s_epik_input>
W0NIM11TYzFbY0hdW2NIXWMobm4xKVtOSF1bQ0gyXVtDQEBIXTJbQ0gyXU4oW0NIMl1bQ0gyXU8yKVtDSDJdW0NIXShbQ0gzXSlbQ0gzXQ==

> <s_epik_cmdline>
J2VwaWtfcHl0aG9uJywgJy1waCcsICc3LjAnLCAnLXRuJywgJzgnLCAnLW1hJywgJzIwMCcsICctbWV0YWxfYmluZGluZycsICctaW1hZScsICc8aW5maWxlLm1hZT4nLCAnLW9tYWUnLCAnPG91dGZpbGUubWFlPic=

> <r_lp_tautomer_probability>
0.999978

> <r_epik_Ionization_Penalty>
0.0874875

> <r_epik_Ionization_Penalty_Charging>
0.0831532

> <r_epik_Ionization_Penalty_Neutral>
0.00433433

> <r_epik_State_Penalty>
0.0738301

> <r_epik_Charging_Adjusted_Penalty>
0.156983

> <i_epik_Tot_Q>
1

> <i_epik_Tot_abs_Q>
1

> <r_epik_Metal_State_Penalty>
0.073888

> <b_epik_Metal_Only>
0

> <s_lp_Force_Field>
OPLS_2005

> <r_lp_Energy>
24.628

> <b_lp_Chiralities_Consistent>
1

> <s_lp_Variant>
AV-unprocessed.smi:2850-4

> <Gold.Version>
5.8.1

> <Gold.Id.Protein>
6NUR|6NUR_protein|mol2

> <Gold.PLP.Fitness>
38.4130

> <Gold.PLP.PLP>
-31.2245

> <Gold.PLP.part.hbond>
-2.0000

> <Gold.PLP.part.metal>
0.0000

> <Gold.PLP.part.buried>
-2.0752

> <Gold.PLP.part.nonpolar>
-28.9324

> <Gold.PLP.part.repulsive>
2.1725

> <Gold.PLP.ligand.clash>
0.0000

> <Gold.PLP.ligand.torsion>
0.8687

> <Gold.PLP.Chemscore.Hbond>
2.9600

> <Gold.PLP.Chemscore.CHOScore>
0.0000

> <Gold.PLP.Chemscore.Metal>
0.0000

> <Gold.Chemscore.Hbonds>
donor molecule, donor type, donor heavy atom, donor atom, acceptor molecule, acceptor atom, score
      L1  H    11    45       P1  7948  2.00
      P1  H  7997  8010       L1    20  0.99

> <Gold.PLP.Chemscore.Internal.Correction>
0.0459

> <Gold.Rescore>
     Score         DG    S(hbond)    S(metal)    S(lipo)     H(rot)  DE(clash)    DE(int)     intcor
     14.31     -15.48       1.39        0.00      80.70       1.60       0.15       1.02       ----

> <Gold.Chemscore.Fitness>
14.3061

> <Gold.Chemscore.DG>
-15.4805

> <Gold.Chemscore.ZeroCoef>
-5.4800

> <Gold.Chemscore.Hbond>
1.3939

> <Gold.Chemscore.Metal>
0.0000

> <Gold.Chemscore.Lipo>
80.6987

> <Gold.Chemscore.Internal_Hbond>
0.0000

> <Gold.Chemscore.DEClash>
0.1525

> <Gold.Chemscore.DEInternal>
1.0219

> <Gold.Chemscore.Rot>
1.6003

> <Gold.Chemscore.Internal.Correction>
   9.000000E+99

> <Gold.Chemscore.Hbonds>
donor molecule, donor type, donor heavy atom, donor atom, acceptor molecule, acceptor atom, score
      L1  H    11    45       P1  7948  0.99
      P1  H  7997  8010       L1    20  0.19

> <Gold.Chemscore.Hbond.Weighted>
-4.6555

> <Gold.Chemscore.Metal.Weighted>
-0.0000

> <Gold.Chemscore.Lipo.Weighted>
-9.4417

> <Gold.Chemscore.Internal_Hbond.Weighted>
0.0000

> <Gold.Chemscore.DEClash.Weighted>
0.1525

> <Gold.Chemscore.DEInternal.Weighted>
1.0219

> <Gold.Chemscore.Rot.Weighted>
4.0968

> <Gold.Chemscore.Internal.Correction.Weighted>
   9.000000E+99

> <Gold.Protein.RotatedTorsions>
[ 6907 6896 6895 6894 ] final   79.24 input  -60.11 | X-H torsion
[ 7974 7965 7964 7962 ] final  -43.34 input  175.53 | X-H torsion
[ 8008 7997 7996 7995 ] final   38.97 input   59.86 | X-H torsion
[ 10167 10162 10161 10158 ] final   32.74 input  -65.29 | X-H torsion
[ 10718 10713 10712 10709 ] final  142.99 input   66.30 | X-H torsion
[ 10763 10752 10751 10750 ] final    3.64 input  -60.55 | X-H torsion
[ 11005 11000 10999 10996 ] final  108.79 input  -57.11 | X-H torsion

> <Gold.Protein.ActiveResidues>
 VAL166  LYS551  ARG553  GLY616  TRP617  ASP618  TYR619  PRO620  LYS621  CYS622 
 ASP623  PHE694  ASN695  SER759  ASP760  ASP761  ALA762  ILE779  LEU786  VAL792 
 PHE793  MET794  SER795  GLU796  ALA797  LYS798  CYS799  TRP800  GLU811  SER814 

> <Gold.Protein.RotatedAtoms>
  152.5191  134.3541  159.9261 H   0  0  0  0  0  0  0  0  0  0  0  0  # atno 6907 bound_to 6896
  151.3492  133.3925  159.2686 H   0  0  0  0  0  0  0  0  0  0  0  0  # atno 6908 bound_to 6896
  150.9740  134.9127  159.7863 H   0  0  0  0  0  0  0  0  0  0  0  0  # atno 6909 bound_to 6896
  146.0028  140.7055  142.9262 H   0  0  0  0  0  0  0  0  0  0  0  0  # atno 7974 bound_to 7965
  155.2289  140.3336  155.4306 H   0  0  0  0  0  0  0  0  0  0  0  0  # atno 8008 bound_to 7997
  156.2303  140.1847  156.7305 H   0  0  0  0  0  0  0  0  0  0  0  0  # atno 8009 bound_to 7997
  154.5967  140.0629  156.9298 H   0  0  0  0  0  0  0  0  0  0  0  0  # atno 8010 bound_to 7997
  140.4471  144.1102  150.6184 H   0  0  0  0  0  0  0  0  0  0  0  0  # atno 10167 bound_to 10162
  157.3741  131.0983  151.0800 H   0  0  0  0  0  0  0  0  0  0  0  0  # atno 10718 bound_to 10713
  153.2808  135.6940  153.7387 H   0  0  0  0  0  0  0  0  0  0  0  0  # atno 10763 bound_to 10752
  153.6375  135.3399  155.3062 H   0  0  0  0  0  0  0  0  0  0  0  0  # atno 10764 bound_to 10752
  154.8494  135.4423  154.1861 H   0  0  0  0  0  0  0  0  0  0  0  0  # atno 10765 bound_to 10752
  139.8850  134.9440  156.6026 H   0  0  0  0  0  0  0  0  0  0  0  0  # atno 11005 bound_to 11000
  144.6925  140.3263  143.7224 LP  0  0  0  0  0  0  0  0  0  0  0  0  # atno 17320 bound_to 7965
  145.7462  139.1779  143.2348 LP  0  0  0  0  0  0  0  0  0  0  0  0  # atno 17321 bound_to 7965
  140.4250  143.2594  151.9667 LP  0  0  0  0  0  0  0  0  0  0  0  0  # atno 17342 bound_to 10162
  139.4793  144.5796  151.7955 LP  0  0  0  0  0  0  0  0  0  0  0  0  # atno 17343 bound_to 10162
  157.1894  130.6345  149.5699 LP  0  0  0  0  0  0  0  0  0  0  0  0  # atno 17370 bound_to 10713
  155.9761  130.4727  150.6509 LP  0  0  0  0  0  0  0  0  0  0  0  0  # atno 17371 bound_to 10713
  140.7872  133.8612  155.8616 LP  0  0  0  0  0  0  0  0  0  0  0  0  # atno 17394 bound_to 11000
  140.9709  134.1532  157.4577 LP  0  0  0  0  0  0  0  0  0  0  0  0  # atno 17395 bound_to 11000

$$$$
