AV-unprocessed.smi:731|AV-procd|sdf|3526|dock3
  -GOLD-   22720 0523D 1   1.00000     0.00000
 Structure written by MMmdl.
 34 35  0  0  0  0  0  0  0  0  1 V2000
  150.7189  140.2524  155.0240 O   0  0  0  0  0  0  0  0  0  0  0  0
  149.8008  141.0373  155.2649 C   0  0  0  0  0  0  0  0  0  0  0  0
  149.9444  142.1234  156.0414 N   0  0  0  0  0  0  0  0  0  0  0  0
  151.1717  142.5191  156.7288 C   0  0  0  0  0  0  0  0  0  0  0  0
  150.8992  143.3569  157.9935 C   0  0  0  0  0  0  0  0  0  0  0  0
  151.7656  143.0035  159.1593 C   0  0  0  0  0  0  0  0  0  0  0  0
  152.6116  141.9705  159.1586 N   0  0  0  0  0  0  0  0  0  0  0  0
  153.2672  141.8059  160.3835 C   0  0  0  0  0  0  0  0  0  0  0  0
  154.2491  140.6836  160.5582 C   0  0  0  0  0  0  0  0  0  0  0  0
  154.6922  140.6097  161.8135 F   0  0  0  0  0  0  0  0  0  0  0  0
  153.6944  139.5092  160.2589 F   0  0  0  0  0  0  0  0  0  0  0  0
  155.3097  140.8457  159.7674 F   0  0  0  0  0  0  0  0  0  0  0  0
  152.9025  142.7443  161.3184 C   0  0  0  0  0  0  0  0  0  0  0  0
  151.7220  143.8627  160.6953 S   0  0  0  0  0  0  0  0  0  0  0  0
  148.3976  140.7922  154.6872 C   0  0  0  0  0  0  0  0  0  0  0  0
  147.8759  142.0215  153.9062 C   0  0  0  0  0  0  0  0  0  0  0  0
  146.5802  142.4707  154.5926 C   0  0  0  0  0  0  0  0  0  0  0  0
  146.6453  141.8804  155.9980 C   0  0  0  0  0  0  0  0  0  0  0  0
  147.3578  140.5439  155.7975 C   0  0  0  0  0  0  0  0  0  0  0  0
  149.1355  142.7109  156.1828 H   0  0  0  0  0  0  0  0  0  0  0  0
  151.7677  141.6417  156.9862 H   0  0  0  0  0  0  0  0  0  0  0  0
  151.7767  143.0998  156.0324 H   0  0  0  0  0  0  0  0  0  0  0  0
  151.0342  144.4155  157.7687 H   0  0  0  0  0  0  0  0  0  0  0  0
  149.8574  143.2390  158.2934 H   0  0  0  0  0  0  0  0  0  0  0  0
  153.2540  142.8424  162.3348 H   0  0  0  0  0  0  0  0  0  0  0  0
  148.4324  139.9220  154.0296 H   0  0  0  0  0  0  0  0  0  0  0  0
  148.5953  142.8424  153.9132 H   0  0  0  0  0  0  0  0  0  0  0  0
  147.6941  141.7779  152.8589 H   0  0  0  0  0  0  0  0  0  0  0  0
  146.4650  143.5549  154.6003 H   0  0  0  0  0  0  0  0  0  0  0  0
  145.7233  142.0517  154.0631 H   0  0  0  0  0  0  0  0  0  0  0  0
  147.2409  142.5265  156.6445 H   0  0  0  0  0  0  0  0  0  0  0  0
  145.6608  141.7678  156.4529 H   0  0  0  0  0  0  0  0  0  0  0  0
  146.6402  139.7948  155.4601 H   0  0  0  0  0  0  0  0  0  0  0  0
  147.7917  140.1725  156.7274 H   0  0  0  0  0  0  0  0  0  0  0  0
  1  2  2  0  0  0  0
  2  3  1  0  0  0  0
  2 15  1  0  0  0  0
  3  4  1  0  0  0  0
  3 20  1  0  0  0  0
  4  5  1  0  0  0  0
  4 21  1  0  0  0  0
  4 22  1  0  0  0  0
  5  6  1  0  0  0  0
  5 23  1  0  0  0  0
  5 24  1  0  0  0  0
  6 14  1  0  0  0  0
  6  7  2  0  0  0  0
  7  8  1  0  0  0  0
  8  9  1  0  0  0  0
  8 13  2  0  0  0  0
  9 10  1  0  0  0  0
  9 11  1  0  0  0  0
  9 12  1  0  0  0  0
 13 14  1  0  0  0  0
 13 25  1  0  0  0  0
 15 19  1  0  0  0  0
 15 16  1  0  0  0  0
 15 26  1  0  0  0  0
 16 17  1  0  0  0  0
 16 27  1  0  0  0  0
 16 28  1  0  0  0  0
 17 18  1  0  0  0  0
 17 29  1  0  0  0  0
 17 30  1  0  0  0  0
 18 19  1  0  0  0  0
 18 31  1  0  0  0  0
 18 32  1  0  0  0  0
 19 33  1  0  0  0  0
 19 34  1  0  0  0  0
M  END
> <s_m_source_file>
AV-unprocessed.smi

> <i_m_source_file_index>
731

> <i_lp_mmshare_version>
43012

> <i_f3d_flags>
0

> <s_epik_input>
W0NIMl0xW0NIMl1bQ0gyXVtDSDJdW0NIXTFDKD1PKVtOSF1bQ0gyXVtDSDJdYzJuYyhDKEYpKEYpRilbY0hdczI=

> <s_epik_cmdline>
J2VwaWtfcHl0aG9uJywgJy1waCcsICc3LjAnLCAnLXRuJywgJzgnLCAnLW1hJywgJzIwMCcsICctbWV0YWxfYmluZGluZycsICctaW1hZScsICc8aW5maWxlLm1hZT4nLCAnLW9tYWUnLCAnPG91dGZpbGUubWFlPic=

> <r_lp_tautomer_probability>
1

> <r_epik_Ionization_Penalty>
2.28973e-08

> <r_epik_Ionization_Penalty_Charging>
0

> <r_epik_Ionization_Penalty_Neutral>
2.28973e-08

> <r_epik_State_Penalty>
-0

> <r_epik_Charging_Adjusted_Penalty>
0

> <i_epik_Tot_Q>
0

> <i_epik_Tot_abs_Q>
0

> <r_epik_Metal_State_Penalty>
-0

> <b_epik_Metal_Only>
0

> <s_lp_Force_Field>
OPLS_2005

> <r_lp_Energy>
15.4873

> <b_lp_Chiralities_Consistent>
1

> <s_lp_Variant>
AV-unprocessed.smi:731-1

> <Gold.Version>
5.8.1

> <Gold.Id.Protein>
6NUR|6NUR_protein|mol2

> <Gold.PLP.Fitness>
45.4515

> <Gold.PLP.PLP>
-41.7925

> <Gold.PLP.part.hbond>
-2.0000

> <Gold.PLP.part.metal>
0.0000

> <Gold.PLP.part.buried>
-3.6491

> <Gold.PLP.part.nonpolar>
-35.5929

> <Gold.PLP.part.repulsive>
0.1720

> <Gold.PLP.ligand.clash>
0.0000

> <Gold.PLP.ligand.torsion>
0.6230

> <Gold.PLP.Chemscore.Hbond>
1.6240

> <Gold.PLP.Chemscore.CHOScore>
0.0000

> <Gold.PLP.Chemscore.Metal>
0.0000

> <Gold.Chemscore.Hbonds>
donor molecule, donor type, donor heavy atom, donor atom, acceptor molecule, acceptor atom, score
      L1  H     3    20       P1  8028  0.49
      P1  H  7989  7998       L1     1  1.00

> <Gold.PLP.Chemscore.Internal.Correction>
0.0330

> <Gold.Rescore>
     Score         DG    S(hbond)    S(metal)    S(lipo)     H(rot)  DE(clash)    DE(int)     intcor
     15.75     -16.95       1.44        0.00      94.56       1.73       0.20       1.00       ----

> <Gold.Chemscore.Fitness>
15.7503

> <Gold.Chemscore.DG>
-16.9473

> <Gold.Chemscore.ZeroCoef>
-5.4800

> <Gold.Chemscore.Hbond>
1.4440

> <Gold.Chemscore.Metal>
0.0000

> <Gold.Chemscore.Lipo>
94.5636

> <Gold.Chemscore.Internal_Hbond>
0.0000

> <Gold.Chemscore.DEClash>
0.1981

> <Gold.Chemscore.DEInternal>
0.9989

> <Gold.Chemscore.Rot>
1.7264

> <Gold.Chemscore.Internal.Correction>
   9.000000E+99

> <Gold.Chemscore.Hbonds>
donor molecule, donor type, donor heavy atom, donor atom, acceptor molecule, acceptor atom, score
      L1  H     3    20       P1  8028  0.49
      P1  H  7989  7998       L1     1  0.65

> <Gold.Chemscore.Hbond.Weighted>
-4.8230

> <Gold.Chemscore.Metal.Weighted>
-0.0000

> <Gold.Chemscore.Lipo.Weighted>
-11.0639

> <Gold.Chemscore.Internal_Hbond.Weighted>
0.0000

> <Gold.Chemscore.DEClash.Weighted>
0.1981

> <Gold.Chemscore.DEInternal.Weighted>
0.9989

> <Gold.Chemscore.Rot.Weighted>
4.4196

> <Gold.Chemscore.Internal.Correction.Weighted>
   9.000000E+99

> <Gold.Protein.RotatedTorsions>
[ 6907 6896 6895 6894 ] final -177.00 input  -60.11 | X-H torsion
[ 7974 7965 7964 7962 ] final   15.71 input  175.53 | X-H torsion
[ 8008 7997 7996 7995 ] final   75.67 input   59.86 | X-H torsion
[ 10167 10162 10161 10158 ] final  120.06 input  -65.29 | X-H torsion
[ 10718 10713 10712 10709 ] final  -97.15 input   66.30 | X-H torsion
[ 10763 10752 10751 10750 ] final  134.85 input  -60.55 | X-H torsion
[ 11005 11000 10999 10996 ] final   93.06 input  -57.11 | X-H torsion

> <Gold.Protein.ActiveResidues>
 VAL166  LYS551  ARG553  GLY616  TRP617  ASP618  TYR619  PRO620  LYS621  CYS622 
 ASP623  PHE694  ASN695  SER759  ASP760  ASP761  ALA762  ILE779  LEU786  VAL792 
 PHE793  MET794  SER795  GLU796  ALA797  LYS798  CYS799  TRP800  GLU811  SER814 

> <Gold.Protein.RotatedAtoms>
  151.6139  133.3345  159.3073 H   0  0  0  0  0  0  0  0  0  0  0  0  # atno 6907 bound_to 6896
  150.8142  134.7317  159.6726 H   0  0  0  0  0  0  0  0  0  0  0  0  # atno 6908 bound_to 6896
  152.4238  134.5911  160.0026 H   0  0  0  0  0  0  0  0  0  0  0  0  # atno 6909 bound_to 6896
  146.2271  139.8855  142.8563 H   0  0  0  0  0  0  0  0  0  0  0  0  # atno 7974 bound_to 7965
  155.8163  140.3471  155.5487 H   0  0  0  0  0  0  0  0  0  0  0  0  # atno 8008 bound_to 7997
  155.8388  140.0938  157.1767 H   0  0  0  0  0  0  0  0  0  0  0  0  # atno 8009 bound_to 7997
  154.4005  140.1398  156.3691 H   0  0  0  0  0  0  0  0  0  0  0  0  # atno 8010 bound_to 7997
  139.6006  144.7055  151.3071 H   0  0  0  0  0  0  0  0  0  0  0  0  # atno 10167 bound_to 10162
  156.0077  130.5182  150.6332 H   0  0  0  0  0  0  0  0  0  0  0  0  # atno 10718 bound_to 10713
  153.8303  135.3104  155.3418 H   0  0  0  0  0  0  0  0  0  0  0  0  # atno 10763 bound_to 10752
  154.7976  135.4746  154.0201 H   0  0  0  0  0  0  0  0  0  0  0  0  # atno 10764 bound_to 10752
  153.1638  135.6866  153.8795 H   0  0  0  0  0  0  0  0  0  0  0  0  # atno 10765 bound_to 10752
  139.8815  134.8768  156.3662 H   0  0  0  0  0  0  0  0  0  0  0  0  # atno 11005 bound_to 11000
  145.2470  141.0030  143.3903 LP  0  0  0  0  0  0  0  0  0  0  0  0  # atno 17320 bound_to 7965
  144.9405  139.4194  143.6451 LP  0  0  0  0  0  0  0  0  0  0  0  0  # atno 17321 bound_to 7965
  140.7246  143.7038  150.7823 LP  0  0  0  0  0  0  0  0  0  0  0  0  # atno 17342 bound_to 10162
  140.0614  143.5151  152.2626 LP  0  0  0  0  0  0  0  0  0  0  0  0  # atno 17343 bound_to 10162
  157.4126  131.0826  151.1206 LP  0  0  0  0  0  0  0  0  0  0  0  0  # atno 17370 bound_to 10713
  157.1833  130.6319  149.5679 LP  0  0  0  0  0  0  0  0  0  0  0  0  # atno 17371 bound_to 10713
  140.9495  133.7460  156.0253 LP  0  0  0  0  0  0  0  0  0  0  0  0  # atno 17394 bound_to 11000
  140.8122  134.3386  157.5408 LP  0  0  0  0  0  0  0  0  0  0  0  0  # atno 17395 bound_to 11000

$$$$
