AV-unprocessed.smi:1898|AV-procd|sdf|7700|dock5
  -GOLD-   22720 9433D 1   1.00000     0.00000
 Structure written by MMmdl.
 46 47  0  0  0  0  0  0  0  0  1 V2000
  151.9867  142.9878  159.8820 C   0  0  0  0  0  0  0  0  0  0  0  0
  151.6733  142.8891  158.4651 N   0  0  0  0  0  0  0  0  0  0  0  0
  151.3193  141.7525  157.8479 C   0  0  0  0  0  0  0  0  0  0  0  0
  151.2114  140.6727  158.4283 O   0  0  0  0  0  0  0  0  0  0  0  0
  151.0385  141.8468  156.3434 C   0  0  0  0  0  0  0  0  0  0  0  0
  150.6145  140.5767  155.7078 N   0  0  0  0  0  0  0  0  0  0  0  0
  149.4042  140.0860  156.3760 C   0  0  0  0  0  0  0  0  0  0  0  0
  148.8603  138.8312  155.6701 C   0  0  0  0  0  0  0  0  0  0  0  0
  149.9147  137.7164  155.6317 C   0  0  0  0  0  0  0  0  0  0  0  0
  149.4144  136.5819  154.8605 N   0  0  0  0  0  0  0  0  0  0  0  0
  149.2539  135.3377  155.3331 C   0  0  0  0  0  0  0  0  0  0  0  0
  149.5127  135.0135  156.4919 O   0  0  0  0  0  0  0  0  0  0  0  0
  148.8002  134.5108  154.3761 N   0  0  0  0  0  0  0  0  0  0  0  0
  148.5289  133.1169  154.4605 C   0  0  0  0  0  0  0  0  0  0  0  0
  149.0251  132.2798  155.4894 C   0  0  0  0  0  0  0  0  0  0  0  0
  148.6801  130.9157  155.4862 C   0  0  0  0  0  0  0  0  0  0  0  0
  147.8445  130.4381  154.4604 C   0  0  0  0  0  0  0  0  0  0  0  0
  147.3522  131.2255  153.4823 N   0  0  0  0  0  0  0  0  0  0  0  0
  147.6838  132.5413  153.4829 C   0  0  0  0  0  0  0  0  0  0  0  0
  147.1745  133.3474  152.4824 O   0  0  0  0  0  0  0  0  0  0  0  0
  146.3232  132.7610  151.5039 C   0  0  0  0  0  0  0  0  0  0  0  0
  151.2060  138.2765  155.0136 C   0  0  0  0  0  0  0  0  0  0  0  0
  151.6671  139.5503  155.7430 C   0  0  0  0  0  0  0  0  0  0  0  0
  152.2498  144.0146  160.1350 H   0  0  0  0  0  0  0  0  0  0  0  0
  152.8319  142.3473  160.1366 H   0  0  0  0  0  0  0  0  0  0  0  0
  151.1311  142.6940  160.4913 H   0  0  0  0  0  0  0  0  0  0  0  0
  151.7406  143.7327  157.9136 H   0  0  0  0  0  0  0  0  0  0  0  0
  150.2800  142.6135  156.1737 H   0  0  0  0  0  0  0  0  0  0  0  0
  151.9519  142.2046  155.8659 H   0  0  0  0  0  0  0  0  0  0  0  0
  149.6113  139.8678  157.4255 H   0  0  0  0  0  0  0  0  0  0  0  0
  148.6350  140.8594  156.3596 H   0  0  0  0  0  0  0  0  0  0  0  0
  147.9647  138.4797  156.1839 H   0  0  0  0  0  0  0  0  0  0  0  0
  148.5529  139.0910  154.6559 H   0  0  0  0  0  0  0  0  0  0  0  0
  150.1159  137.3955  156.6557 H   0  0  0  0  0  0  0  0  0  0  0  0
  149.1804  136.7573  153.8943 H   0  0  0  0  0  0  0  0  0  0  0  0
  148.7083  134.9094  153.4529 H   0  0  0  0  0  0  0  0  0  0  0  0
  149.6484  132.6553  156.2856 H   0  0  0  0  0  0  0  0  0  0  0  0
  149.0439  130.2521  156.2567 H   0  0  0  0  0  0  0  0  0  0  0  0
  147.5584  129.3973  154.4281 H   0  0  0  0  0  0  0  0  0  0  0  0
  146.0025  133.5281  150.7993 H   0  0  0  0  0  0  0  0  0  0  0  0
  145.4273  132.3347  151.9576 H   0  0  0  0  0  0  0  0  0  0  0  0
  146.8414  131.9865  150.9366 H   0  0  0  0  0  0  0  0  0  0  0  0
  151.9981  137.5280  155.0524 H   0  0  0  0  0  0  0  0  0  0  0  0
  151.0471  138.5022  153.9579 H   0  0  0  0  0  0  0  0  0  0  0  0
  152.5753  139.9043  155.2556 H   0  0  0  0  0  0  0  0  0  0  0  0
  151.9336  139.3199  156.7761 H   0  0  0  0  0  0  0  0  0  0  0  0
  1  2  1  0  0  0  0
  1 24  1  0  0  0  0
  1 25  1  0  0  0  0
  1 26  1  0  0  0  0
  2  3  1  0  0  0  0
  2 27  1  0  0  0  0
  3  4  2  0  0  0  0
  3  5  1  0  0  0  0
  5  6  1  0  0  0  0
  5 28  1  0  0  0  0
  5 29  1  0  0  0  0
  6 23  1  0  0  0  0
  6  7  1  0  0  0  0
  7  8  1  0  0  0  0
  7 30  1  0  0  0  0
  7 31  1  0  0  0  0
  8  9  1  0  0  0  0
  8 32  1  0  0  0  0
  8 33  1  0  0  0  0
  9 10  1  0  0  0  0
  9 22  1  0  0  0  0
  9 34  1  0  0  0  0
 10 11  1  0  0  0  0
 10 35  1  0  0  0  0
 11 12  2  0  0  0  0
 11 13  1  0  0  0  0
 13 14  1  0  0  0  0
 13 36  1  0  0  0  0
 14 19  1  0  0  0  0
 14 15  2  0  0  0  0
 15 16  1  0  0  0  0
 15 37  1  0  0  0  0
 16 17  2  0  0  0  0
 16 38  1  0  0  0  0
 17 18  1  0  0  0  0
 17 39  1  0  0  0  0
 18 19  2  0  0  0  0
 19 20  1  0  0  0  0
 20 21  1  0  0  0  0
 21 40  1  0  0  0  0
 21 41  1  0  0  0  0
 21 42  1  0  0  0  0
 22 23  1  0  0  0  0
 22 43  1  0  0  0  0
 22 44  1  0  0  0  0
 23 45  1  0  0  0  0
 23 46  1  0  0  0  0
M  END
> <s_m_source_file>
AV-unprocessed.smi

> <i_m_source_file_index>
1898

> <i_lp_mmshare_version>
43012

> <i_f3d_flags>
0

> <s_epik_input>
W0NIM11bTkhdQyg9TylbQ0gyXU4xW0NIMl1bQ0gyXVtDSF0oW0NIMl1bQ0gyXTEpW05IXUMoPU8pW05IXWMyW2NIXVtjSF1bY0hdbmMyT1tDSDNd

> <s_epik_cmdline>
J2VwaWtfcHl0aG9uJywgJy1waCcsICc3LjAnLCAnLXRuJywgJzgnLCAnLW1hJywgJzIwMCcsICctbWV0YWxfYmluZGluZycsICctaW1hZScsICc8aW5maWxlLm1hZT4nLCAnLW9tYWUnLCAnPG91dGZpbGUubWFlPic=

> <r_lp_tautomer_probability>
1

> <r_epik_Ionization_Penalty>
0.16483

> <r_epik_Ionization_Penalty_Charging>
0

> <r_epik_Ionization_Penalty_Neutral>
0.16483

> <r_epik_State_Penalty>
0.154069

> <r_epik_Charging_Adjusted_Penalty>
0.154069

> <i_epik_Tot_Q>
0

> <i_epik_Tot_abs_Q>
0

> <r_epik_Metal_State_Penalty>
0.158584

> <b_epik_Metal_Only>
0

> <s_lp_Force_Field>
OPLS_2005

> <r_lp_Energy>
15.9116

> <b_lp_Chiralities_Consistent>
1

> <s_lp_Variant>
AV-unprocessed.smi:1898-1

> <Gold.Version>
5.8.1

> <Gold.Id.Protein>
6NUR|6NUR_protein|mol2

> <Gold.PLP.Fitness>
43.1094

> <Gold.PLP.PLP>
-37.5807

> <Gold.PLP.part.hbond>
-2.1051

> <Gold.PLP.part.metal>
0.0000

> <Gold.PLP.part.buried>
-5.7694

> <Gold.PLP.part.nonpolar>
-29.8298

> <Gold.PLP.part.repulsive>
1.1008

> <Gold.PLP.ligand.clash>
0.0000

> <Gold.PLP.ligand.torsion>
0.0841

> <Gold.PLP.Chemscore.Hbond>
1.8960

> <Gold.PLP.Chemscore.CHOScore>
0.0000

> <Gold.PLP.Chemscore.Metal>
0.0000

> <Gold.Chemscore.Hbonds>
donor molecule, donor type, donor heavy atom, donor atom, acceptor molecule, acceptor atom, score
      L1  H    10    35       P1  7948  0.84
      L1  H    13    36       P1  7948  0.96

> <Gold.PLP.Chemscore.Internal.Correction>
0.0089

> <Gold.Rescore>
     Score         DG    S(hbond)    S(metal)    S(lipo)     H(rot)  DE(clash)    DE(int)     intcor
     10.31     -13.65       1.62        0.00      66.71       1.96       0.14       3.20       ----

> <Gold.Chemscore.Fitness>
10.3149

> <Gold.Chemscore.DG>
-13.6513

> <Gold.Chemscore.ZeroCoef>
-5.4800

> <Gold.Chemscore.Hbond>
1.6154

> <Gold.Chemscore.Metal>
0.0000

> <Gold.Chemscore.Lipo>
66.7083

> <Gold.Chemscore.Internal_Hbond>
0.0000

> <Gold.Chemscore.DEClash>
0.1394

> <Gold.Chemscore.DEInternal>
3.1970

> <Gold.Chemscore.Rot>
1.9645

> <Gold.Chemscore.Internal.Correction>
   9.000000E+99

> <Gold.Chemscore.Hbonds>
donor molecule, donor type, donor heavy atom, donor atom, acceptor molecule, acceptor atom, score
      L1  H    10    35       P1  7948  0.79
      L1  H    13    36       P1  7948  0.49

> <Gold.Chemscore.Hbond.Weighted>
-5.3954

> <Gold.Chemscore.Metal.Weighted>
-0.0000

> <Gold.Chemscore.Lipo.Weighted>
-7.8049

> <Gold.Chemscore.Internal_Hbond.Weighted>
0.0000

> <Gold.Chemscore.DEClash.Weighted>
0.1394

> <Gold.Chemscore.DEInternal.Weighted>
3.1970

> <Gold.Chemscore.Rot.Weighted>
5.0290

> <Gold.Chemscore.Internal.Correction.Weighted>
   9.000000E+99

> <Gold.Protein.RotatedTorsions>
[ 6907 6896 6895 6894 ] final  176.70 input  -60.11 | X-H torsion
[ 7974 7965 7964 7962 ] final  -58.83 input  175.53 | X-H torsion
[ 8008 7997 7996 7995 ] final   14.72 input   59.86 | X-H torsion
[ 10167 10162 10161 10158 ] final   63.89 input  -65.29 | X-H torsion
[ 10718 10713 10712 10709 ] final  116.13 input   66.30 | X-H torsion
[ 10763 10752 10751 10750 ] final  156.65 input  -60.55 | X-H torsion
[ 11005 11000 10999 10996 ] final  145.78 input  -57.11 | X-H torsion

> <Gold.Protein.ActiveResidues>
 VAL166  LYS551  ARG553  GLY616  TRP617  ASP618  TYR619  PRO620  LYS621  CYS622 
 ASP623  PHE694  ASN695  SER759  ASP760  ASP761  ALA762  ILE779  LEU786  VAL792 
 PHE793  MET794  SER795  GLU796  ALA797  LYS798  CYS799  TRP800  GLU811  SER814 

> <Gold.Protein.RotatedAtoms>
  151.7159  133.3313  159.3302 H   0  0  0  0  0  0  0  0  0  0  0  0  # atno 6907 bound_to 6896
  150.7674  134.6491  159.6288 H   0  0  0  0  0  0  0  0  0  0  0  0  # atno 6908 bound_to 6896
  152.3682  134.6775  160.0236 H   0  0  0  0  0  0  0  0  0  0  0  0  # atno 6909 bound_to 6896
  145.8347  140.8457  143.0065 H   0  0  0  0  0  0  0  0  0  0  0  0  # atno 7974 bound_to 7965
  154.8524  140.2931  155.5590 H   0  0  0  0  0  0  0  0  0  0  0  0  # atno 8008 bound_to 7997
  156.3017  140.2493  156.3417 H   0  0  0  0  0  0  0  0  0  0  0  0  # atno 8009 bound_to 7997
  154.9007  140.0391  157.1880 H   0  0  0  0  0  0  0  0  0  0  0  0  # atno 8010 bound_to 7997
  140.1281  144.4669  150.6881 H   0  0  0  0  0  0  0  0  0  0  0  0  # atno 10167 bound_to 10162
  157.6179  131.1021  150.7429 H   0  0  0  0  0  0  0  0  0  0  0  0  # atno 10718 bound_to 10713
  154.1878  135.2796  155.3032 H   0  0  0  0  0  0  0  0  0  0  0  0  # atno 10763 bound_to 10752
  154.5953  135.5547  153.7322 H   0  0  0  0  0  0  0  0  0  0  0  0  # atno 10764 bound_to 10752
  153.0120  135.6378  154.2016 H   0  0  0  0  0  0  0  0  0  0  0  0  # atno 10765 bound_to 10752
  140.0740  134.9136  157.1391 H   0  0  0  0  0  0  0  0  0  0  0  0  # atno 11005 bound_to 11000
  144.6737  140.0723  143.7472 LP  0  0  0  0  0  0  0  0  0  0  0  0  # atno 17320 bound_to 7965
  145.9532  139.2748  143.1199 LP  0  0  0  0  0  0  0  0  0  0  0  0  # atno 17321 bound_to 7965
  140.6833  143.2337  151.5327 LP  0  0  0  0  0  0  0  0  0  0  0  0  # atno 17342 bound_to 10162
  139.5534  144.2338  152.1570 LP  0  0  0  0  0  0  0  0  0  0  0  0  # atno 17343 bound_to 10162
  156.7792  130.4854  149.5404 LP  0  0  0  0  0  0  0  0  0  0  0  0  # atno 17370 bound_to 10713
  156.1310  130.6178  151.0333 LP  0  0  0  0  0  0  0  0  0  0  0  0  # atno 17371 bound_to 10713
  140.3586  134.2520  155.7190 LP  0  0  0  0  0  0  0  0  0  0  0  0  # atno 17394 bound_to 11000
  141.2022  133.7943  157.0401 LP  0  0  0  0  0  0  0  0  0  0  0  0  # atno 17395 bound_to 11000

$$$$
