AV-unprocessed.smi:3025|AV-procd|sdf|11506|dock2
  -GOLD-   2272016443D 1   1.00000     0.00000
 Structure written by MMmdl.
 42 43  0  0  0  0  0  0  0  0  2 V2000
  143.7984  132.6871  148.8085 C   0  0  0  0  0  0  0  0  0  0  0  0
  144.4526  132.2292  150.1164 C   0  0  0  0  0  0  0  0  0  0  0  0
  143.9065  132.9816  151.3418 C   0  0  0  0  0  0  0  0  0  0  0  0
  144.1515  134.5045  151.3102 C   0  0  2  0  0  0  0  0  0  0  0  0
  145.5924  134.8663  150.8893 C   0  0  0  0  0  0  0  0  0  0  0  0
  145.8229  136.3875  150.8877 C   0  0  0  0  0  0  0  0  0  0  0  0
  145.4893  137.0346  152.2486 C   0  0  2  0  0  0  0  0  0  0  0  0
  146.4614  136.6658  153.3045 N   0  3  0  0  0  0  0  0  0  0  0  0
  146.4845  137.5536  154.4857 C   0  0  0  0  0  0  0  0  0  0  0  0
  146.8991  138.9779  154.0941 C   0  0  0  0  0  0  0  0  0  0  0  0
  148.3198  139.2747  154.4469 C   0  0  0  0  0  0  0  0  0  0  0  0
  149.2220  139.6472  153.5367 N   0  0  0  0  0  0  0  0  0  0  0  0
  150.4143  139.8302  154.1414 N   0  0  0  0  0  0  0  0  0  0  0  0
  150.1313  139.5430  155.4106 C   0  0  0  0  0  0  0  0  0  0  0  0
  148.8369  139.1852  155.6673 N   0  0  0  0  0  0  0  0  0  0  0  0
  144.0601  136.6580  152.6812 C   0  0  0  0  0  0  0  0  0  0  0  0
  143.8305  135.1362  152.6796 C   0  0  0  0  0  0  0  0  0  0  0  0
  149.0803  139.7850  152.5460 H   0  0  0  0  0  0  0  0  0  0  0  0
  144.1992  132.1331  147.9593 H   0  0  0  0  0  0  0  0  0  0  0  0
  143.9777  133.7470  148.6275 H   0  0  0  0  0  0  0  0  0  0  0  0
  142.7201  132.5272  148.8304 H   0  0  0  0  0  0  0  0  0  0  0  0
  144.2919  131.1575  150.2295 H   0  0  0  0  0  0  0  0  0  0  0  0
  145.5311  132.3755  150.0464 H   0  0  0  0  0  0  0  0  0  0  0  0
  142.8323  132.8004  151.3995 H   0  0  0  0  0  0  0  0  0  0  0  0
  144.3313  132.5580  152.2529 H   0  0  0  0  0  0  0  0  0  0  0  0
  143.4655  134.9377  150.5806 H   0  0  0  0  0  0  0  0  0  0  0  0
  146.3069  134.3858  151.5588 H   0  0  0  0  0  0  0  0  0  0  0  0
  145.8036  134.4826  149.8916 H   0  0  0  0  0  0  0  0  0  0  0  0
  146.8450  136.6114  150.5832 H   0  0  0  0  0  0  0  0  0  0  0  0
  145.1868  136.8341  150.1223 H   0  0  0  0  0  0  0  0  0  0  0  0
  145.5247  138.1196  152.1391 H   0  0  0  0  0  0  0  0  0  0  0  0
  146.2187  135.7407  153.6294 H   0  0  0  0  0  0  0  0  0  0  0  0
  145.4987  137.5749  154.9502 H   0  0  0  0  0  0  0  0  0  0  0  0
  147.1829  137.1575  155.2243 H   0  0  0  0  0  0  0  0  0  0  0  0
  146.7616  139.1279  153.0222 H   0  0  0  0  0  0  0  0  0  0  0  0
  146.2603  139.7068  154.5948 H   0  0  0  0  0  0  0  0  0  0  0  0
  150.8858  139.5913  156.1819 H   0  0  0  0  0  0  0  0  0  0  0  0
  143.8431  137.0676  153.6685 H   0  0  0  0  0  0  0  0  0  0  0  0
  143.3467  137.1233  151.9996 H   0  0  0  0  0  0  0  0  0  0  0  0
  142.7937  134.9306  152.9490 H   0  0  0  0  0  0  0  0  0  0  0  0
  144.4430  134.6709  153.4531 H   0  0  0  0  0  0  0  0  0  0  0  0
  147.3852  136.6284  152.8975 H   0  0  0  0  0  0  0  0  0  0  0  0
  1  2  1  0  0  0  0
  1 19  1  0  0  0  0
  1 20  1  0  0  0  0
  1 21  1  0  0  0  0
  2  3  1  0  0  0  0
  2 22  1  0  0  0  0
  2 23  1  0  0  0  0
  3  4  1  0  0  0  0
  3 24  1  0  0  0  0
  3 25  1  0  0  0  0
  4 17  1  0  0  0  0
  4  5  1  0  0  0  0
  4 26  1  0  0  0  0
  5  6  1  0  0  0  0
  5 27  1  0  0  0  0
  5 28  1  0  0  0  0
  6  7  1  0  0  0  0
  6 29  1  0  0  0  0
  6 30  1  0  0  0  0
  7  8  1  0  0  0  0
  7 16  1  0  0  0  0
  7 31  1  0  0  0  0
  8  9  1  0  0  0  0
  8 32  1  0  0  0  0
  8 42  1  0  0  0  0
  9 10  1  0  0  0  0
  9 33  1  0  0  0  0
  9 34  1  0  0  0  0
 10 35  1  0  0  0  0
 10 36  1  0  0  0  0
 10 11  1  0  0  0  0
 11 15  2  0  0  0  0
 11 12  1  0  0  0  0
 12 18  1  0  0  0  0
 12 13  1  0  0  0  0
 13 14  2  0  0  0  0
 14 15  1  0  0  0  0
 14 37  1  0  0  0  0
 16 17  1  0  0  0  0
 16 38  1  0  0  0  0
 16 39  1  0  0  0  0
 17 40  1  0  0  0  0
 17 41  1  0  0  0  0
M  CHG  1   8   1
M  END
> <s_m_source_file>
AV-unprocessed.smi

> <i_m_source_file_index>
3025

> <i_lp_mmshare_version>
43012

> <i_f3d_flags>
0

> <s_epik_input>
W0NIM11bQ0gyXVtDSDJdW0NAQEhdMVtDSDJdW0NIMl1bQ0BIXShbQ0gyXVtDSDJdMSlbTkhdW0NIMl1bQ0gyXWMybm5bY0hdW25IXTI=

> <s_epik_cmdline>
J2VwaWtfcHl0aG9uJywgJy1waCcsICc3LjAnLCAnLXRuJywgJzgnLCAnLW1hJywgJzIwMCcsICctbWV0YWxfYmluZGluZycsICctaW1hZScsICc8aW5maWxlLm1hZT4nLCAnLW9tYWUnLCAnPG91dGZpbGUubWFlPic=

> <r_lp_tautomer_probability>
0.948284

> <r_epik_Ionization_Penalty>
0.0093758

> <r_epik_Ionization_Penalty_Charging>
0.000546397

> <r_epik_Ionization_Penalty_Neutral>
0.00882941

> <r_epik_State_Penalty>
0.401098

> <r_epik_Charging_Adjusted_Penalty>
0.401645

> <i_epik_Tot_Q>
1

> <i_epik_Tot_abs_Q>
1

> <r_epik_Metal_State_Penalty>
0.634803

> <b_epik_Metal_Only>
0

> <s_lp_Force_Field>
OPLS_2005

> <r_lp_Energy>
16.9982

> <b_lp_Chiralities_Consistent>
1

> <s_lp_Variant>
AV-unprocessed.smi:3025-2

> <Gold.Version>
5.8.1

> <Gold.Id.Protein>
6NUR|6NUR_protein|mol2

> <Gold.PLP.Fitness>
41.3946

> <Gold.PLP.PLP>
-30.2974

> <Gold.PLP.part.hbond>
-2.7622

> <Gold.PLP.part.metal>
0.0000

> <Gold.PLP.part.buried>
-5.1305

> <Gold.PLP.part.nonpolar>
-23.6024

> <Gold.PLP.part.repulsive>
0.4661

> <Gold.PLP.ligand.clash>
0.0000

> <Gold.PLP.ligand.torsion>
0.5375

> <Gold.PLP.Chemscore.Hbond>
3.9913

> <Gold.PLP.Chemscore.CHOScore>
0.0000

> <Gold.PLP.Chemscore.Metal>
0.0000

> <Gold.Chemscore.Hbonds>
donor molecule, donor type, donor heavy atom, donor atom, acceptor molecule, acceptor atom, score
      L1  H     8    42       P1  7948  2.00
      L1  H    12    18       P1  7957  0.93
      P1  H  7989  7998       L1    13  1.00

> <Gold.PLP.Chemscore.Internal.Correction>
0.1985

> <Gold.Rescore>
     Score         DG    S(hbond)    S(metal)    S(lipo)     H(rot)  DE(clash)    DE(int)     intcor
     16.27     -16.89       2.93        0.00      69.97       2.56       0.18       0.44       ----

> <Gold.Chemscore.Fitness>
16.2705

> <Gold.Chemscore.DG>
-16.8919

> <Gold.Chemscore.ZeroCoef>
-5.4800

> <Gold.Chemscore.Hbond>
2.9279

> <Gold.Chemscore.Metal>
0.0000

> <Gold.Chemscore.Lipo>
69.9737

> <Gold.Chemscore.Internal_Hbond>
0.0000

> <Gold.Chemscore.DEClash>
0.1844

> <Gold.Chemscore.DEInternal>
0.4370

> <Gold.Chemscore.Rot>
2.5602

> <Gold.Chemscore.Internal.Correction>
   9.000000E+99

> <Gold.Chemscore.Hbonds>
donor molecule, donor type, donor heavy atom, donor atom, acceptor molecule, acceptor atom, score
      L1  H     8    42       P1  7948  1.00
      L1  H    12    18       P1  7957  0.85
      P1  H  7989  7998       L1    13  0.98

> <Gold.Chemscore.Hbond.Weighted>
-9.7792

> <Gold.Chemscore.Metal.Weighted>
-0.0000

> <Gold.Chemscore.Lipo.Weighted>
-8.1869

> <Gold.Chemscore.Internal_Hbond.Weighted>
0.0000

> <Gold.Chemscore.DEClash.Weighted>
0.1844

> <Gold.Chemscore.DEInternal.Weighted>
0.4370

> <Gold.Chemscore.Rot.Weighted>
6.5542

> <Gold.Chemscore.Internal.Correction.Weighted>
   9.000000E+99

> <Gold.Protein.RotatedTorsions>
[ 6907 6896 6895 6894 ] final  -54.17 input  -60.11 | X-H torsion
[ 7974 7965 7964 7962 ] final -169.57 input  175.53 | X-H torsion
[ 8008 7997 7996 7995 ] final  162.21 input   59.86 | X-H torsion
[ 10167 10162 10161 10158 ] final   26.69 input  -65.29 | X-H torsion
[ 10718 10713 10712 10709 ] final  113.85 input   66.30 | X-H torsion
[ 10763 10752 10751 10750 ] final   50.33 input  -60.55 | X-H torsion
[ 11005 11000 10999 10996 ] final -112.12 input  -57.11 | X-H torsion

> <Gold.Protein.ActiveResidues>
 VAL166  LYS551  ARG553  GLY616  TRP617  ASP618  TYR619  PRO620  LYS621  CYS622 
 ASP623  PHE694  ASN695  SER759  ASP760  ASP761  ALA762  ILE779  LEU786  VAL792 
 PHE793  MET794  SER795  GLU796  ALA797  LYS798  CYS799  TRP800  GLU811  SER814 

> <Gold.Protein.RotatedAtoms>
  150.8362  134.7636  159.6894 H   0  0  0  0  0  0  0  0  0  0  0  0  # atno 6907 bound_to 6896
  152.4458  134.5494  159.9872 H   0  0  0  0  0  0  0  0  0  0  0  0  # atno 6908 bound_to 6896
  151.5644  133.3361  159.3013 H   0  0  0  0  0  0  0  0  0  0  0  0  # atno 6909 bound_to 6896
  144.7183  140.2201  143.6317 H   0  0  0  0  0  0  0  0  0  0  0  0  # atno 7974 bound_to 7965
  156.2048  140.1756  156.7823 H   0  0  0  0  0  0  0  0  0  0  0  0  # atno 8008 bound_to 7997
  154.5640  140.0694  156.8893 H   0  0  0  0  0  0  0  0  0  0  0  0  # atno 8009 bound_to 7997
  155.2795  140.3348  155.4261 H   0  0  0  0  0  0  0  0  0  0  0  0  # atno 8010 bound_to 7997
  140.5002  144.0327  150.6330 H   0  0  0  0  0  0  0  0  0  0  0  0  # atno 10167 bound_to 10162
  157.6315  131.0990  150.7101 H   0  0  0  0  0  0  0  0  0  0  0  0  # atno 10718 bound_to 10713
  152.9785  135.5882  154.4234 H   0  0  0  0  0  0  0  0  0  0  0  0  # atno 10763 bound_to 10752
  154.3856  135.2767  155.2187 H   0  0  0  0  0  0  0  0  0  0  0  0  # atno 10764 bound_to 10752
  154.4082  135.6087  153.5991 H   0  0  0  0  0  0  0  0  0  0  0  0  # atno 10765 bound_to 10752
  141.0694  133.9405  157.2515 H   0  0  0  0  0  0  0  0  0  0  0  0  # atno 11005 bound_to 11000
  145.8509  139.2175  143.1773 LP  0  0  0  0  0  0  0  0  0  0  0  0  # atno 17320 bound_to 7965
  146.0261  140.8302  142.9899 LP  0  0  0  0  0  0  0  0  0  0  0  0  # atno 17321 bound_to 7965
  140.3621  143.2902  152.0372 LP  0  0  0  0  0  0  0  0  0  0  0  0  # atno 17342 bound_to 10162
  139.4870  144.6295  151.7099 LP  0  0  0  0  0  0  0  0  0  0  0  0  # atno 17343 bound_to 10162
  156.7439  130.4747  149.5471 LP  0  0  0  0  0  0  0  0  0  0  0  0  # atno 17370 bound_to 10713
  156.1522  130.6317  151.0610 LP  0  0  0  0  0  0  0  0  0  0  0  0  # atno 17371 bound_to 10713
  139.9508  135.0175  156.8988 LP  0  0  0  0  0  0  0  0  0  0  0  0  # atno 17394 bound_to 11000
  140.5705  134.0447  155.7429 LP  0  0  0  0  0  0  0  0  0  0  0  0  # atno 17395 bound_to 11000

$$$$
