AV-unprocessed.smi:314|AV-procd|sdf|2315|dock10
  -GOLD-   2262022223D 1   1.00000     0.00000
 Structure written by MMmdl.
 48 49  0  0  0  0  0  0  0  0  1 V2000
  142.6298  132.9538  148.3480 C   0  0  0  0  0  0  0  0  0  0  0  0
  143.0731  132.2134  149.4800 O   0  0  0  0  0  0  0  0  0  0  0  0
  144.1285  132.7115  150.2162 C   0  0  0  0  0  0  0  0  0  0  0  0
  144.9766  131.8024  150.8793 C   0  0  0  0  0  0  0  0  0  0  0  0
  146.0529  132.3057  151.6341 C   0  0  0  0  0  0  0  0  0  0  0  0
  146.2433  133.6996  151.7141 C   0  0  0  0  0  0  0  0  0  0  0  0
  147.3464  134.1846  152.4666 N   0  0  0  0  0  0  0  0  0  0  0  0
  147.8164  133.7237  153.6381 C   0  0  0  0  0  0  0  0  0  0  0  0
  147.3950  132.7300  154.2303 O   0  0  0  0  0  0  0  0  0  0  0  0
  148.8313  134.4764  154.0862 N   0  0  0  0  0  0  0  0  0  0  0  0
  149.5664  134.2352  155.3230 C   0  0  0  0  0  0  0  0  0  0  0  0
  150.7271  135.2364  155.5004 C   0  0  0  0  0  0  0  0  0  0  0  0
  150.2679  136.6635  155.8436 C   0  0  0  0  0  0  0  0  0  0  0  0
  149.4496  136.8265  156.7500 O   0  0  0  0  0  0  0  0  0  0  0  0
  150.7676  137.7003  155.1291 N   0  0  0  0  0  0  0  0  0  0  0  0
  151.8234  137.5517  154.1264 C   0  0  0  0  0  0  0  0  0  0  0  0
  153.0911  138.2480  154.6589 C   0  0  1  0  0  0  0  0  0  0  0  0
  154.2407  138.2060  153.6468 C   0  0  0  0  0  0  0  0  0  0  0  0
  152.8009  139.6197  154.9425 O   0  0  0  0  0  0  0  0  0  0  0  0
  151.7065  139.8519  155.8358 C   0  0  2  0  0  0  0  0  0  0  0  0
  152.0825  139.5063  157.2883 C   0  0  0  0  0  0  0  0  0  0  0  0
  150.4502  139.1184  155.3205 C   0  0  0  0  0  0  0  0  0  0  0  0
  145.3454  134.5302  151.0006 C   0  0  0  0  0  0  0  0  0  0  0  0
  144.3138  134.0536  150.2722 N   0  0  0  0  0  0  0  0  0  0  0  0
  141.7885  132.4375  147.8862 H   0  0  0  0  0  0  0  0  0  0  0  0
  143.4161  133.0427  147.5969 H   0  0  0  0  0  0  0  0  0  0  0  0
  142.2906  133.9513  148.6312 H   0  0  0  0  0  0  0  0  0  0  0  0
  144.8042  130.7386  150.8101 H   0  0  0  0  0  0  0  0  0  0  0  0
  146.7180  131.6277  152.1489 H   0  0  0  0  0  0  0  0  0  0  0  0
  147.8613  134.9438  152.0454 H   0  0  0  0  0  0  0  0  0  0  0  0
  149.1182  135.2703  153.5325 H   0  0  0  0  0  0  0  0  0  0  0  0
  148.8783  134.2841  156.1692 H   0  0  0  0  0  0  0  0  0  0  0  0
  149.9508  133.2151  155.2911 H   0  0  0  0  0  0  0  0  0  0  0  0
  151.4003  134.8844  156.2830 H   0  0  0  0  0  0  0  0  0  0  0  0
  151.3010  135.2757  154.5745 H   0  0  0  0  0  0  0  0  0  0  0  0
  152.0405  136.5083  153.8931 H   0  0  0  0  0  0  0  0  0  0  0  0
  151.5023  138.0079  153.1888 H   0  0  0  0  0  0  0  0  0  0  0  0
  153.4244  137.7511  155.5706 H   0  0  0  0  0  0  0  0  0  0  0  0
  154.5156  137.1782  153.4086 H   0  0  0  0  0  0  0  0  0  0  0  0
  155.1264  138.7033  154.0430 H   0  0  0  0  0  0  0  0  0  0  0  0
  153.9662  138.7042  152.7168 H   0  0  0  0  0  0  0  0  0  0  0  0
  151.5061  140.9233  155.8027 H   0  0  0  0  0  0  0  0  0  0  0  0
  151.2770  139.7773  157.9712 H   0  0  0  0  0  0  0  0  0  0  0  0
  152.9737  140.0521  157.5983 H   0  0  0  0  0  0  0  0  0  0  0  0
  152.2795  138.4435  157.4256 H   0  0  0  0  0  0  0  0  0  0  0  0
  150.1506  139.5405  154.3600 H   0  0  0  0  0  0  0  0  0  0  0  0
  149.6072  139.2986  155.9857 H   0  0  0  0  0  0  0  0  0  0  0  0
  145.4529  135.6036  150.9824 H   0  0  0  0  0  0  0  0  0  0  0  0
  1  2  1  0  0  0  0
  1 25  1  0  0  0  0
  1 26  1  0  0  0  0
  1 27  1  0  0  0  0
  2  3  1  0  0  0  0
  3 24  1  0  0  0  0
  3  4  2  0  0  0  0
  4  5  1  0  0  0  0
  4 28  1  0  0  0  0
  5  6  2  0  0  0  0
  5 29  1  0  0  0  0
  6  7  1  0  0  0  0
  6 23  1  0  0  0  0
  7  8  1  0  0  0  0
  7 30  1  0  0  0  0
  8  9  2  0  0  0  0
  8 10  1  0  0  0  0
 10 11  1  0  0  0  0
 10 31  1  0  0  0  0
 11 12  1  0  0  0  0
 11 32  1  0  0  0  0
 11 33  1  0  0  0  0
 12 13  1  0  0  0  0
 12 34  1  0  0  0  0
 12 35  1  0  0  0  0
 13 14  2  0  0  0  0
 13 15  1  0  0  0  0
 15 22  1  0  0  0  0
 15 16  1  0  0  0  0
 16 17  1  0  0  0  0
 16 36  1  0  0  0  0
 16 37  1  0  0  0  0
 17 18  1  0  0  0  0
 17 19  1  0  0  0  0
 17 38  1  0  0  0  0
 18 39  1  0  0  0  0
 18 40  1  0  0  0  0
 18 41  1  0  0  0  0
 19 20  1  0  0  0  0
 20 21  1  0  0  0  0
 20 22  1  0  0  0  0
 20 42  1  0  0  0  0
 21 43  1  0  0  0  0
 21 44  1  0  0  0  0
 21 45  1  0  0  0  0
 22 46  1  0  0  0  0
 22 47  1  0  0  0  0
 23 24  2  0  0  0  0
 23 48  1  0  0  0  0
M  END
> <s_m_source_file>
AV-unprocessed.smi

> <i_m_source_file_index>
314

> <i_lp_mmshare_version>
43012

> <i_f3d_flags>
0

> <s_epik_input>
W0NIM11PYzFbY0hdW2NIXWMoW2NIXW4xKVtOSF1DKD1PKVtOSF1bQ0gyXVtDSDJdQyg9TylOMltDSDJdW0NAQEhdKFtDSDNdKU9bQ0BASF0oW0NIM10pW0NIMl0y

> <s_epik_cmdline>
J2VwaWtfcHl0aG9uJywgJy1waCcsICc3LjAnLCAnLXRuJywgJzgnLCAnLW1hJywgJzIwMCcsICctbWV0YWxfYmluZGluZycsICctaW1hZScsICc8aW5maWxlLm1hZT4nLCAnLW9tYWUnLCAnPG91dGZpbGUubWFlPic=

> <r_lp_tautomer_probability>
1

> <r_epik_Ionization_Penalty>
8.55977e-05

> <r_epik_Ionization_Penalty_Charging>
0

> <r_epik_Ionization_Penalty_Neutral>
8.55977e-05

> <r_epik_State_Penalty>
-0

> <r_epik_Charging_Adjusted_Penalty>
0

> <i_epik_Tot_Q>
0

> <i_epik_Tot_abs_Q>
0

> <r_epik_Metal_State_Penalty>
-0

> <b_epik_Metal_Only>
0

> <s_lp_Force_Field>
OPLS_2005

> <r_lp_Energy>
24.1988

> <b_lp_Chiralities_Consistent>
1

> <s_lp_Variant>
AV-unprocessed.smi:314-3

> <Gold.Version>
5.8.1

> <Gold.Id.Protein>
6NUR|6NUR_protein|mol2

> <Gold.PLP.Fitness>
45.1896

> <Gold.PLP.PLP>
-35.9830

> <Gold.PLP.part.hbond>
-4.0000

> <Gold.PLP.part.metal>
0.0000

> <Gold.PLP.part.buried>
-2.5534

> <Gold.PLP.part.nonpolar>
-31.5112

> <Gold.PLP.part.repulsive>
1.7937

> <Gold.PLP.ligand.clash>
0.0000

> <Gold.PLP.ligand.torsion>
0.8217

> <Gold.PLP.Chemscore.Hbond>
3.6080

> <Gold.PLP.Chemscore.CHOScore>
0.0000

> <Gold.PLP.Chemscore.Metal>
0.0000

> <Gold.Chemscore.Hbonds>
donor molecule, donor type, donor heavy atom, donor atom, acceptor molecule, acceptor atom, score
      L1  H     7    30       P1  7948  1.00
      L1  H    10    31       P1  7948  0.94
      P1  H  7989  7998       L1    19  0.09
      P1  H  7997  8009       L1    19  1.00
      P1  H 10785 10796       L1     2  0.57

> <Gold.PLP.Chemscore.Internal.Correction>
0.0261

> <Gold.Rescore>
     Score         DG    S(hbond)    S(metal)    S(lipo)     H(rot)  DE(clash)    DE(int)     intcor
     16.22     -20.06       2.51        0.00      92.52       1.81       1.85       1.99       ----

> <Gold.Chemscore.Fitness>
16.2205

> <Gold.Chemscore.DG>
-20.0602

> <Gold.Chemscore.ZeroCoef>
-5.4800

> <Gold.Chemscore.Hbond>
2.5091

> <Gold.Chemscore.Metal>
0.0000

> <Gold.Chemscore.Lipo>
92.5220

> <Gold.Chemscore.Internal_Hbond>
0.0000

> <Gold.Chemscore.DEClash>
1.8513

> <Gold.Chemscore.DEInternal>
1.9884

> <Gold.Chemscore.Rot>
1.8067

> <Gold.Chemscore.Internal.Correction>
   9.000000E+99

> <Gold.Chemscore.Hbonds>
donor molecule, donor type, donor heavy atom, donor atom, acceptor molecule, acceptor atom, score
      L1  H     7    30       P1  7948  0.65
      L1  H    10    31       P1  7948  0.36
      P1  H  7997  8009       L1    19  0.10
      P1  H 10785 10796       L1     2  0.24

> <Gold.Chemscore.Hbond.Weighted>
-8.3803

> <Gold.Chemscore.Metal.Weighted>
-0.0000

> <Gold.Chemscore.Lipo.Weighted>
-10.8251

> <Gold.Chemscore.Internal_Hbond.Weighted>
0.0000

> <Gold.Chemscore.DEClash.Weighted>
1.8513

> <Gold.Chemscore.DEInternal.Weighted>
1.9884

> <Gold.Chemscore.Rot.Weighted>
4.6252

> <Gold.Chemscore.Internal.Correction.Weighted>
   9.000000E+99

> <Gold.Protein.RotatedTorsions>
[ 6907 6896 6895 6894 ] final -167.97 input  -60.11 | X-H torsion
[ 7974 7965 7964 7962 ] final -133.18 input  175.53 | X-H torsion
[ 8008 7997 7996 7995 ] final -150.47 input   59.86 | X-H torsion
[ 10167 10162 10161 10158 ] final  148.13 input  -65.29 | X-H torsion
[ 10718 10713 10712 10709 ] final  -59.19 input   66.30 | X-H torsion
[ 10763 10752 10751 10750 ] final  124.73 input  -60.55 | X-H torsion
[ 11005 11000 10999 10996 ] final  -32.21 input  -57.11 | X-H torsion

> <Gold.Protein.ActiveResidues>
 VAL166  LYS551  ARG553  GLY616  TRP617  ASP618  TYR619  PRO620  LYS621  CYS622 
 ASP623  PHE694  ASN695  SER759  ASP760  ASP761  ALA762  ILE779  LEU786  VAL792 
 PHE793  MET794  SER795  GLU796  ALA797  LYS798  CYS799  TRP800  GLU811  SER814 

> <Gold.Protein.RotatedAtoms>
  151.4680  133.3576  159.2818 H   0  0  0  0  0  0  0  0  0  0  0  0  # atno 6907 bound_to 6896
  150.8980  134.8392  159.7351 H   0  0  0  0  0  0  0  0  0  0  0  0  # atno 6908 bound_to 6896
  152.4862  134.4598  159.9653 H   0  0  0  0  0  0  0  0  0  0  0  0  # atno 6909 bound_to 6896
  144.9217  140.7022  143.4961 H   0  0  0  0  0  0  0  0  0  0  0  0  # atno 7974 bound_to 7965
  155.6241  140.0684  157.2669 H   0  0  0  0  0  0  0  0  0  0  0  0  # atno 8008 bound_to 7997
  154.4222  140.1779  156.1451 H   0  0  0  0  0  0  0  0  0  0  0  0  # atno 8009 bound_to 7997
  155.9986  140.3338  155.6826 H   0  0  0  0  0  0  0  0  0  0  0  0  # atno 8010 bound_to 7997
  139.4879  144.5703  151.7068 H   0  0  0  0  0  0  0  0  0  0  0  0  # atno 10167 bound_to 10162
  156.1080  130.4178  150.0680 H   0  0  0  0  0  0  0  0  0  0  0  0  # atno 10718 bound_to 10713
  153.6660  135.3338  155.3140 H   0  0  0  0  0  0  0  0  0  0  0  0  # atno 10763 bound_to 10752
  154.8503  135.4375  154.1754 H   0  0  0  0  0  0  0  0  0  0  0  0  # atno 10764 bound_to 10752
  153.2733  135.7002  153.7534 H   0  0  0  0  0  0  0  0  0  0  0  0  # atno 10765 bound_to 10752
  140.9533  133.7207  156.1254 H   0  0  0  0  0  0  0  0  0  0  0  0  # atno 11005 bound_to 11000
  145.3286  139.1766  143.4549 LP  0  0  0  0  0  0  0  0  0  0  0  0  # atno 17320 bound_to 7965
  146.3207  140.3312  142.8640 LP  0  0  0  0  0  0  0  0  0  0  0  0  # atno 17321 bound_to 7965
  140.5289  144.0762  150.6047 LP  0  0  0  0  0  0  0  0  0  0  0  0  # atno 17342 bound_to 10162
  140.3745  143.2836  152.0240 LP  0  0  0  0  0  0  0  0  0  0  0  0  # atno 17343 bound_to 10162
  156.8651  130.9505  151.3614 LP  0  0  0  0  0  0  0  0  0  0  0  0  # atno 17370 bound_to 10713
  157.6259  130.8691  149.9188 LP  0  0  0  0  0  0  0  0  0  0  0  0  # atno 17371 bound_to 10713
  140.7571  134.3980  157.5532 LP  0  0  0  0  0  0  0  0  0  0  0  0  # atno 17394 bound_to 11000
  139.8854  134.8937  156.2644 LP  0  0  0  0  0  0  0  0  0  0  0  0  # atno 17395 bound_to 11000

$$$$
