AV-unprocessed.smi:672|AV-procd|sdf|3296|dock6
  -GOLD-   22720 0253D 1   1.00000     0.00000
 Structure written by MMmdl.
 35 36  0  0  0  0  0  0  0  0  2 V2000
  148.5145  141.4179  153.9637 C   0  0  0  0  0  0  0  0  0  0  0  0
  148.7440  140.5999  155.2391 C   0  0  0  0  0  0  0  0  0  0  0  0
  149.6728  139.4521  155.0239 C   0  0  0  0  0  0  0  0  0  0  0  0
  150.9169  139.6028  154.5618 N   0  0  0  0  0  0  0  0  0  0  0  0
  151.5725  138.3888  154.4193 N   0  0  0  0  0  0  0  0  0  0  0  0
  150.8093  137.3375  154.7505 C   0  0  0  0  0  0  0  0  0  0  0  0
  151.2542  136.0722  154.6808 N   0  5  0  0  0  0  0  0  0  0  0  0
  150.4314  135.0495  155.0067 C   0  0  0  0  0  0  0  0  0  0  0  0
  150.5401  134.3073  155.9855 O   0  0  0  0  0  0  0  0  0  0  0  0
  149.4244  134.8696  154.1400 N   0  0  0  0  0  0  0  0  0  0  0  0
  148.3910  133.8397  154.2269 C   0  0  1  0  0  0  0  0  0  0  0  0
  147.0000  134.4768  154.4134 C   0  0  0  0  0  0  0  0  0  0  0  0
  146.0990  133.8583  153.3415 C   0  0  0  0  0  0  0  0  0  0  0  0
  147.0523  133.4989  152.2047 C   0  0  2  0  0  0  0  0  0  0  0  0
  146.3531  132.2662  151.0694 S   0  0  0  0  0  0  0  0  0  0  0  0
  144.9593  133.2082  150.3941 C   0  0  0  0  0  0  0  0  0  0  0  0
  148.3077  133.0096  152.9304 C   0  0  0  0  0  0  0  0  0  0  0  0
  149.1937  137.7853  155.2967 S   0  0  0  0  0  0  0  0  0  0  0  0
  147.8306  142.2458  154.1506 H   0  0  0  0  0  0  0  0  0  0  0  0
  148.0837  140.8010  153.1746 H   0  0  0  0  0  0  0  0  0  0  0  0
  149.4499  141.8349  153.5895 H   0  0  0  0  0  0  0  0  0  0  0  0
  149.1492  141.2394  156.0241 H   0  0  0  0  0  0  0  0  0  0  0  0
  147.7934  140.2153  155.6092 H   0  0  0  0  0  0  0  0  0  0  0  0
  149.3740  135.5008  153.3538 H   0  0  0  0  0  0  0  0  0  0  0  0
  148.6089  133.1821  155.0706 H   0  0  0  0  0  0  0  0  0  0  0  0
  146.6054  134.3123  155.4165 H   0  0  0  0  0  0  0  0  0  0  0  0
  147.0457  135.5565  154.2614 H   0  0  0  0  0  0  0  0  0  0  0  0
  145.6325  132.9546  153.7365 H   0  0  0  0  0  0  0  0  0  0  0  0
  145.3027  134.5325  153.0246 H   0  0  0  0  0  0  0  0  0  0  0  0
  147.2891  134.4040  151.6435 H   0  0  0  0  0  0  0  0  0  0  0  0
  144.3902  132.5894  149.7004 H   0  0  0  0  0  0  0  0  0  0  0  0
  145.3135  134.0882  149.8573 H   0  0  0  0  0  0  0  0  0  0  0  0
  144.2940  133.5319  151.1946 H   0  0  0  0  0  0  0  0  0  0  0  0
  149.1993  133.0879  152.3069 H   0  0  0  0  0  0  0  0  0  0  0  0
  148.1933  131.9569  153.1923 H   0  0  0  0  0  0  0  0  0  0  0  0
  1  2  1  0  0  0  0
  1 19  1  0  0  0  0
  1 20  1  0  0  0  0
  1 21  1  0  0  0  0
  2  3  1  0  0  0  0
  2 22  1  0  0  0  0
  2 23  1  0  0  0  0
  3 18  1  0  0  0  0
  3  4  2  0  0  0  0
  4  5  1  0  0  0  0
  5  6  2  0  0  0  0
  6  7  1  0  0  0  0
  6 18  1  0  0  0  0
  7  8  1  0  0  0  0
  8  9  2  0  0  0  0
  8 10  1  0  0  0  0
 10 11  1  0  0  0  0
 10 24  1  0  0  0  0
 11 17  1  0  0  0  0
 11 12  1  0  0  0  0
 11 25  1  0  0  0  0
 12 13  1  0  0  0  0
 12 26  1  0  0  0  0
 12 27  1  0  0  0  0
 13 14  1  0  0  0  0
 13 28  1  0  0  0  0
 13 29  1  0  0  0  0
 14 15  1  0  0  0  0
 14 17  1  0  0  0  0
 14 30  1  0  0  0  0
 15 16  1  0  0  0  0
 16 31  1  0  0  0  0
 16 32  1  0  0  0  0
 16 33  1  0  0  0  0
 17 34  1  0  0  0  0
 17 35  1  0  0  0  0
M  CHG  1   7  -1
M  END
> <s_m_source_file>
AV-unprocessed.smi

> <i_m_source_file_index>
672

> <i_lp_mmshare_version>
43012

> <i_f3d_flags>
0

> <s_epik_input>
W0NIM11bQ0gyXWMxbm5jKHMxKVtOSF1DKD1PKVtOSF1bQ0BASF0yW0NIMl1bQ0gyXVtDQEhdKFtDSDJdMilTW0NIM10=

> <s_epik_cmdline>
J2VwaWtfcHl0aG9uJywgJy1waCcsICc3LjAnLCAnLXRuJywgJzgnLCAnLW1hJywgJzIwMCcsICctbWV0YWxfYmluZGluZycsICctaW1hZScsICc8aW5maWxlLm1hZT4nLCAnLW9tYWUnLCAnPG91dGZpbGUubWFlPic=

> <r_lp_tautomer_probability>
1

> <r_epik_Ionization_Penalty>
4.49964

> <r_epik_Ionization_Penalty_Charging>
4.32991

> <r_epik_Ionization_Penalty_Neutral>
0.169727

> <r_epik_State_Penalty>
4.32952

> <r_epik_Charging_Adjusted_Penalty>
8.65943

> <i_epik_Tot_Q>
-1

> <i_epik_Tot_abs_Q>
1

> <r_epik_Metal_State_Penalty>
0.740482

> <b_epik_Metal_Only>
1

> <s_lp_Force_Field>
OPLS_2005

> <r_lp_Energy>
9.75318

> <b_lp_Chiralities_Consistent>
1

> <s_lp_Variant>
AV-unprocessed.smi:672-8

> <Gold.Version>
5.8.1

> <Gold.Id.Protein>
6NUR|6NUR_protein|mol2

> <Gold.PLP.Fitness>
38.8735

> <Gold.PLP.PLP>
-28.1739

> <Gold.PLP.part.hbond>
-3.0000

> <Gold.PLP.part.metal>
0.0000

> <Gold.PLP.part.buried>
-3.5994

> <Gold.PLP.part.nonpolar>
-21.8178

> <Gold.PLP.part.repulsive>
0.4452

> <Gold.PLP.ligand.clash>
0.0000

> <Gold.PLP.ligand.torsion>
0.6817

> <Gold.PLP.Chemscore.Hbond>
4.0000

> <Gold.PLP.Chemscore.CHOScore>
0.0000

> <Gold.PLP.Chemscore.Metal>
0.0000

> <Gold.Chemscore.Hbonds>
donor molecule, donor type, donor heavy atom, donor atom, acceptor molecule, acceptor atom, score
      L1  H    10    24       P1  7948  0.90
      P1  H  7989  7998       L1     4  1.00
      P1  H 10752 10765       L1     7  2.00

> <Gold.PLP.Chemscore.Internal.Correction>
0.0630

> <Gold.Rescore>
     Score         DG    S(hbond)    S(metal)    S(lipo)     H(rot)  DE(clash)    DE(int)     intcor
     16.53     -17.27       2.57        0.00      56.72       1.34       0.01       0.74       ----

> <Gold.Chemscore.Fitness>
16.5263

> <Gold.Chemscore.DG>
-17.2735

> <Gold.Chemscore.ZeroCoef>
-5.4800

> <Gold.Chemscore.Hbond>
2.5720

> <Gold.Chemscore.Metal>
0.0000

> <Gold.Chemscore.Lipo>
56.7172

> <Gold.Chemscore.Internal_Hbond>
0.0000

> <Gold.Chemscore.DEClash>
0.0067

> <Gold.Chemscore.DEInternal>
0.7405

> <Gold.Chemscore.Rot>
1.3410

> <Gold.Chemscore.Internal.Correction>
   9.000000E+99

> <Gold.Chemscore.Hbonds>
donor molecule, donor type, donor heavy atom, donor atom, acceptor molecule, acceptor atom, score
      L1  H    10    24       P1  7948  0.18
      P1  H  7989  7998       L1     4  0.78
      P1  H 10752 10765       L1     7  0.85

> <Gold.Chemscore.Hbond.Weighted>
-8.5905

> <Gold.Chemscore.Metal.Weighted>
-0.0000

> <Gold.Chemscore.Lipo.Weighted>
-6.6359

> <Gold.Chemscore.Internal_Hbond.Weighted>
0.0000

> <Gold.Chemscore.DEClash.Weighted>
0.0067

> <Gold.Chemscore.DEInternal.Weighted>
0.7405

> <Gold.Chemscore.Rot.Weighted>
3.4329

> <Gold.Chemscore.Internal.Correction.Weighted>
   9.000000E+99

> <Gold.Protein.RotatedTorsions>
[ 6907 6896 6895 6894 ] final  150.48 input  -60.11 | X-H torsion
[ 7974 7965 7964 7962 ] final   78.89 input  175.53 | X-H torsion
[ 8008 7997 7996 7995 ] final -168.13 input   59.86 | X-H torsion
[ 10167 10162 10161 10158 ] final -100.58 input  -65.29 | X-H torsion
[ 10718 10713 10712 10709 ] final -155.56 input   66.30 | X-H torsion
[ 10763 10752 10751 10750 ] final  176.79 input  -60.55 | X-H torsion
[ 11005 11000 10999 10996 ] final  -47.91 input  -57.11 | X-H torsion

> <Gold.Protein.ActiveResidues>
 VAL166  LYS551  ARG553  GLY616  TRP617  ASP618  TYR619  PRO620  LYS621  CYS622 
 ASP623  PHE694  ASN695  SER759  ASP760  ASP761  ALA762  ILE779  LEU786  VAL792 
 PHE793  MET794  SER795  GLU796  ALA797  LYS798  CYS799  TRP800  GLU811  SER814 

> <Gold.Protein.RotatedAtoms>
  152.1138  133.4315  159.4642 H   0  0  0  0  0  0  0  0  0  0  0  0  # atno 6907 bound_to 6896
  150.6868  134.2617  159.4561 H   0  0  0  0  0  0  0  0  0  0  0  0  # atno 6908 bound_to 6896
  152.0488  134.9666  160.0625 H   0  0  0  0  0  0  0  0  0  0  0  0  # atno 6909 bound_to 6896
  145.6712  139.2497  143.1867 H   0  0  0  0  0  0  0  0  0  0  0  0  # atno 7974 bound_to 7965
  155.8872  140.1018  157.1444 H   0  0  0  0  0  0  0  0  0  0  0  0  # atno 8008 bound_to 7997
  154.4011  140.1318  156.4334 H   0  0  0  0  0  0  0  0  0  0  0  0  # atno 8009 bound_to 7997
  155.7575  140.3464  155.5184 H   0  0  0  0  0  0  0  0  0  0  0  0  # atno 8010 bound_to 7997
  140.2503  143.3477  152.0720 H   0  0  0  0  0  0  0  0  0  0  0  0  # atno 10167 bound_to 10162
  156.5145  130.8450  151.2659 H   0  0  0  0  0  0  0  0  0  0  0  0  # atno 10718 bound_to 10713
  154.4859  135.2777  155.1535 H   0  0  0  0  0  0  0  0  0  0  0  0  # atno 10763 bound_to 10752
  154.3226  135.6206  153.5518 H   0  0  0  0  0  0  0  0  0  0  0  0  # atno 10764 bound_to 10752
  152.9881  135.5746  154.5269 H   0  0  0  0  0  0  0  0  0  0  0  0  # atno 10765 bound_to 10752
  141.0669  133.6691  156.3366 H   0  0  0  0  0  0  0  0  0  0  0  0  # atno 11005 bound_to 11000
  146.1043  140.7506  142.9534 LP  0  0  0  0  0  0  0  0  0  0  0  0  # atno 17320 bound_to 7965
  144.7056  140.3837  143.7121 LP  0  0  0  0  0  0  0  0  0  0  0  0  # atno 17321 bound_to 7965
  139.5048  144.6783  151.6073 LP  0  0  0  0  0  0  0  0  0  0  0  0  # atno 17342 bound_to 10162
  140.6045  143.9549  150.6409 LP  0  0  0  0  0  0  0  0  0  0  0  0  # atno 17343 bound_to 10162
  157.7446  130.9938  150.2686 LP  0  0  0  0  0  0  0  0  0  0  0  0  # atno 17370 bound_to 10713
  156.3208  130.3785  149.7577 LP  0  0  0  0  0  0  0  0  0  0  0  0  # atno 17371 bound_to 10713
  140.5754  134.5799  157.5467 LP  0  0  0  0  0  0  0  0  0  0  0  0  # atno 17394 bound_to 11000
  139.9485  134.7658  156.0504 LP  0  0  0  0  0  0  0  0  0  0  0  0  # atno 17395 bound_to 11000

$$$$
