AV-unprocessed.smi:1826|AV-procd|sdf|7416|dock6
  -GOLD-   22720 9 93D 1   1.00000     0.00000
 Structure written by MMmdl.
 39 41  0  0  0  0  0  0  0  0  1 V2000
  150.9738  139.5936  154.7020 O   0  0  0  0  0  0  0  0  0  0  0  0
  151.6259  139.1830  155.8847 C   0  0  0  0  0  0  0  0  0  0  0  0
  151.7836  140.2965  156.8742 C   0  0  0  0  0  0  0  0  0  0  0  0
  151.2196  141.4905  156.6860 N   0  0  0  0  0  0  0  0  0  0  0  0
  151.6159  142.1941  157.8065 C   0  0  0  0  0  0  0  0  0  0  0  0
  151.3443  143.5241  158.2002 C   0  0  0  0  0  0  0  0  0  0  0  0
  151.8667  144.0317  159.4080 C   0  0  0  0  0  0  0  0  0  0  0  0
  152.6665  143.2190  160.2374 C   0  0  0  0  0  0  0  0  0  0  0  0
  152.9493  141.8911  159.8637 C   0  0  0  0  0  0  0  0  0  0  0  0
  152.4249  141.3894  158.6576 C   0  0  0  0  0  0  0  0  0  0  0  0
  152.5077  140.1593  158.0141 N   0  0  0  0  0  0  0  0  0  0  0  0
  153.2346  138.9917  158.4953 C   0  0  0  0  0  0  0  0  0  0  0  0
  152.6036  138.3819  159.7631 C   0  0  1  0  0  0  0  0  0  0  0  0
  152.1274  137.0782  159.4896 O   0  0  0  0  0  0  0  0  0  0  0  0
  153.5772  138.4032  160.9310 C   0  0  0  0  0  0  0  0  0  0  0  0
  153.7452  137.2538  161.7314 C   0  0  0  0  0  0  0  0  0  0  0  0
  154.6421  137.2696  162.8170 C   0  0  0  0  0  0  0  0  0  0  0  0
  155.3818  138.4331  163.1170 C   0  0  0  0  0  0  0  0  0  0  0  0
  156.3426  138.4296  164.2970 C   0  0  0  0  0  0  0  0  0  0  0  0
  157.0085  139.5804  164.3985 F   0  0  0  0  0  0  0  0  0  0  0  0
  155.6569  138.2336  165.4227 F   0  0  0  0  0  0  0  0  0  0  0  0
  157.2285  137.4433  164.1567 F   0  0  0  0  0  0  0  0  0  0  0  0
  155.2070  139.5861  162.3202 C   0  0  0  0  0  0  0  0  0  0  0  0
  154.3104  139.5707  161.2343 C   0  0  0  0  0  0  0  0  0  0  0  0
  150.4523  138.8735  154.3825 H   0  0  0  0  0  0  0  0  0  0  0  0
  151.0483  138.3769  156.3387 H   0  0  0  0  0  0  0  0  0  0  0  0
  152.6016  138.7660  155.6363 H   0  0  0  0  0  0  0  0  0  0  0  0
  150.7332  144.1546  157.5717 H   0  0  0  0  0  0  0  0  0  0  0  0
  151.6530  145.0496  159.6991 H   0  0  0  0  0  0  0  0  0  0  0  0
  153.0630  143.6158  161.1606 H   0  0  0  0  0  0  0  0  0  0  0  0
  153.5615  141.2657  160.4962 H   0  0  0  0  0  0  0  0  0  0  0  0
  153.3030  138.2475  157.7022 H   0  0  0  0  0  0  0  0  0  0  0  0
  154.2594  139.3006  158.7054 H   0  0  0  0  0  0  0  0  0  0  0  0
  151.7310  138.9756  160.0388 H   0  0  0  0  0  0  0  0  0  0  0  0
  151.7376  137.0768  158.6287 H   0  0  0  0  0  0  0  0  0  0  0  0
  153.1861  136.3548  161.5173 H   0  0  0  0  0  0  0  0  0  0  0  0
  154.7618  136.3840  163.4238 H   0  0  0  0  0  0  0  0  0  0  0  0
  155.7559  140.4907  162.5353 H   0  0  0  0  0  0  0  0  0  0  0  0
  154.1849  140.4611  160.6356 H   0  0  0  0  0  0  0  0  0  0  0  0
  1  2  1  0  0  0  0
  1 25  1  0  0  0  0
  2  3  1  0  0  0  0
  2 26  1  0  0  0  0
  2 27  1  0  0  0  0
  3 11  1  0  0  0  0
  3  4  2  0  0  0  0
  4  5  1  0  0  0  0
  5 10  2  0  0  0  0
  5  6  1  0  0  0  0
  6  7  2  0  0  0  0
  6 28  1  0  0  0  0
  7  8  1  0  0  0  0
  7 29  1  0  0  0  0
  8  9  2  0  0  0  0
  8 30  1  0  0  0  0
  9 10  1  0  0  0  0
  9 31  1  0  0  0  0
 10 11  1  0  0  0  0
 11 12  1  0  0  0  0
 12 13  1  0  0  0  0
 12 32  1  0  0  0  0
 12 33  1  0  0  0  0
 13 14  1  0  0  0  0
 13 15  1  0  0  0  0
 13 34  1  0  0  0  0
 14 35  1  0  0  0  0
 15 24  1  0  0  0  0
 15 16  2  0  0  0  0
 16 17  1  0  0  0  0
 16 36  1  0  0  0  0
 17 18  2  0  0  0  0
 17 37  1  0  0  0  0
 18 19  1  0  0  0  0
 18 23  1  0  0  0  0
 19 20  1  0  0  0  0
 19 21  1  0  0  0  0
 19 22  1  0  0  0  0
 23 24  2  0  0  0  0
 23 38  1  0  0  0  0
 24 39  1  0  0  0  0
M  END
> <s_m_source_file>
AV-unprocessed.smi

> <i_m_source_file_index>
1826

> <i_lp_mmshare_version>
43012

> <i_f3d_flags>
0

> <s_epik_input>
W2NIXTFbY0hdW2NIXVtjSF1jKGMxMiluKGMobjIpW0NIMl1bT0hdKVtDSDJdW0NASF0oW09IXSljM1tjSF1bY0hdYyhDKEYpKEYpRilbY0hdW2NIXTM=

> <s_epik_cmdline>
J2VwaWtfcHl0aG9uJywgJy1waCcsICc3LjAnLCAnLXRuJywgJzgnLCAnLW1hJywgJzIwMCcsICctbWV0YWxfYmluZGluZycsICctaW1hZScsICc8aW5maWxlLm1hZT4nLCAnLW9tYWUnLCAnPG91dGZpbGUubWFlPic=

> <r_epik_Ionization_Penalty>
0.0634718

> <r_epik_Ionization_Penalty_Charging>
0

> <r_epik_Ionization_Penalty_Neutral>
0.0634718

> <r_epik_State_Penalty>
0.0551572

> <r_epik_Charging_Adjusted_Penalty>
0.0551572

> <i_epik_Tot_Q>
0

> <i_epik_Tot_abs_Q>
0

> <r_epik_Metal_State_Penalty>
5.78034e-05

> <b_epik_Metal_Only>
0

> <s_lp_Force_Field>
OPLS_2005

> <r_lp_Energy>
14.1967

> <b_lp_Chiralities_Consistent>
1

> <s_lp_Variant>
AV-unprocessed.smi:1826-2

> <Gold.Version>
5.8.1

> <Gold.Id.Protein>
6NUR|6NUR_protein|mol2

> <Gold.PLP.Fitness>
48.2028

> <Gold.PLP.PLP>
-44.3663

> <Gold.PLP.part.hbond>
-2.0000

> <Gold.PLP.part.metal>
0.0000

> <Gold.PLP.part.buried>
-4.6046

> <Gold.PLP.part.nonpolar>
-37.4068

> <Gold.PLP.part.repulsive>
0.0454

> <Gold.PLP.ligand.clash>
0.0000

> <Gold.PLP.ligand.torsion>
1.1430

> <Gold.PLP.Chemscore.Hbond>
2.0000

> <Gold.PLP.Chemscore.CHOScore>
0.0000

> <Gold.PLP.Chemscore.Metal>
0.0000

> <Gold.Chemscore.Hbonds>
donor molecule, donor type, donor heavy atom, donor atom, acceptor molecule, acceptor atom, score
      P1  H  6896  6908       L1    14  0.99
      P1  H  7989  7998       L1     1  1.00

> <Gold.PLP.Chemscore.Internal.Correction>
0.1224

> <Gold.Rescore>
     Score         DG    S(hbond)    S(metal)    S(lipo)     H(rot)  DE(clash)    DE(int)     intcor
     17.44     -18.66       1.86        0.00     123.42       2.91       0.04       1.18       ----

> <Gold.Chemscore.Fitness>
17.4361

> <Gold.Chemscore.DG>
-18.6562

> <Gold.Chemscore.ZeroCoef>
-5.4800

> <Gold.Chemscore.Hbond>
1.8551

> <Gold.Chemscore.Metal>
0.0000

> <Gold.Chemscore.Lipo>
123.4211

> <Gold.Chemscore.Internal_Hbond>
0.0000

> <Gold.Chemscore.DEClash>
0.0385

> <Gold.Chemscore.DEInternal>
1.1816

> <Gold.Chemscore.Rot>
2.9141

> <Gold.Chemscore.Internal.Correction>
   9.000000E+99

> <Gold.Chemscore.Hbonds>
donor molecule, donor type, donor heavy atom, donor atom, acceptor molecule, acceptor atom, score
      P1  H  6896  6908       L1    14  0.24
      P1  H  7989  7998       L1     1  0.97

> <Gold.Chemscore.Hbond.Weighted>
-6.1959

> <Gold.Chemscore.Metal.Weighted>
-0.0000

> <Gold.Chemscore.Lipo.Weighted>
-14.4403

> <Gold.Chemscore.Internal_Hbond.Weighted>
0.0000

> <Gold.Chemscore.DEClash.Weighted>
0.0385

> <Gold.Chemscore.DEInternal.Weighted>
1.1816

> <Gold.Chemscore.Rot.Weighted>
7.4600

> <Gold.Chemscore.Internal.Correction.Weighted>
   9.000000E+99

> <Gold.Protein.RotatedTorsions>
[ 6907 6896 6895 6894 ] final -107.39 input  -60.11 | X-H torsion
[ 7974 7965 7964 7962 ] final -112.42 input  175.53 | X-H torsion
[ 8008 7997 7996 7995 ] final   17.79 input   59.86 | X-H torsion
[ 10167 10162 10161 10158 ] final -178.08 input  -65.29 | X-H torsion
[ 10718 10713 10712 10709 ] final   -6.14 input   66.30 | X-H torsion
[ 10763 10752 10751 10750 ] final  -51.52 input  -60.55 | X-H torsion
[ 11005 11000 10999 10996 ] final -145.20 input  -57.11 | X-H torsion

> <Gold.Protein.ActiveResidues>
 VAL166  LYS551  ARG553  GLY616  TRP617  ASP618  TYR619  PRO620  LYS621  CYS622 
 ASP623  PHE694  ASN695  SER759  ASP760  ASP761  ALA762  ILE779  LEU786  VAL792 
 PHE793  MET794  SER795  GLU796  ALA797  LYS798  CYS799  TRP800  GLU811  SER814 

> <Gold.Protein.RotatedAtoms>
  150.7441  133.9834  159.3583 H   0  0  0  0  0  0  0  0  0  0  0  0  # atno 6907 bound_to 6896
  151.7776  135.0768  160.0378 H   0  0  0  0  0  0  0  0  0  0  0  0  # atno 6908 bound_to 6896
  152.3296  133.5906  159.5836 H   0  0  0  0  0  0  0  0  0  0  0  0  # atno 6909 bound_to 6896
  145.1442  140.8794  143.3684 H   0  0  0  0  0  0  0  0  0  0  0  0  # atno 7974 bound_to 7965
  154.8965  140.2994  155.5341 H   0  0  0  0  0  0  0  0  0  0  0  0  # atno 8008 bound_to 7997
  156.3020  140.2415  156.3922 H   0  0  0  0  0  0  0  0  0  0  0  0  # atno 8009 bound_to 7997
  154.8564  140.0407  157.1626 H   0  0  0  0  0  0  0  0  0  0  0  0  # atno 8010 bound_to 7997
  139.5449  144.2262  152.0969 H   0  0  0  0  0  0  0  0  0  0  0  0  # atno 10167 bound_to 10162
  156.7362  130.5195  149.5834 H   0  0  0  0  0  0  0  0  0  0  0  0  # atno 10718 bound_to 10713
  154.1279  135.6524  153.4916 H   0  0  0  0  0  0  0  0  0  0  0  0  # atno 10763 bound_to 10752
  153.0204  135.5286  154.7031 H   0  0  0  0  0  0  0  0  0  0  0  0  # atno 10764 bound_to 10752
  154.6257  135.2970  155.0245 H   0  0  0  0  0  0  0  0  0  0  0  0  # atno 10765 bound_to 10752
  140.7947  134.2927  157.5001 H   0  0  0  0  0  0  0  0  0  0  0  0  # atno 11005 bound_to 11000
  145.0499  139.3190  143.5933 LP  0  0  0  0  0  0  0  0  0  0  0  0  # atno 17320 bound_to 7965
  146.3502  139.9904  142.8686 LP  0  0  0  0  0  0  0  0  0  0  0  0  # atno 17321 bound_to 7965
  140.1747  144.4902  150.6560 LP  0  0  0  0  0  0  0  0  0  0  0  0  # atno 17342 bound_to 10162
  140.6694  143.2280  151.5664 LP  0  0  0  0  0  0  0  0  0  0  0  0  # atno 17343 bound_to 10162
  156.1495  130.6300  151.0577 LP  0  0  0  0  0  0  0  0  0  0  0  0  # atno 17370 bound_to 10713
  157.6838  131.0831  150.7299 LP  0  0  0  0  0  0  0  0  0  0  0  0  # atno 17371 bound_to 10713
  139.8727  134.9395  156.3743 LP  0  0  0  0  0  0  0  0  0  0  0  0  # atno 17394 bound_to 11000
  140.9355  133.7550  156.0079 LP  0  0  0  0  0  0  0  0  0  0  0  0  # atno 17395 bound_to 11000

$$$$
