AV-unprocessed.smi:485|AV-procd|sdf|2692|dock4
  -GOLD-   2262023123D 1   1.00000     0.00000
 Structure written by MMmdl.
 36 38  0  0  0  0  0  0  0  0  1 V2000
  152.2369  137.1331  153.9600 O   0  0  0  0  0  0  0  0  0  0  0  0
  151.5535  137.6424  155.0852 C   0  0  0  0  0  0  0  0  0  0  0  0
  150.4638  138.6023  154.7153 C   0  0  0  0  0  0  0  0  0  0  0  0
  149.4377  138.2405  153.9445 N   0  0  0  0  0  0  0  0  0  0  0  0
  148.6880  139.3984  153.8731 C   0  0  0  0  0  0  0  0  0  0  0  0
  147.4724  139.6650  153.2034 C   0  0  0  0  0  0  0  0  0  0  0  0
  146.8837  140.9446  153.2746 C   0  0  0  0  0  0  0  0  0  0  0  0
  147.5006  141.9739  154.0151 C   0  0  0  0  0  0  0  0  0  0  0  0
  148.7118  141.7292  154.6903 C   0  0  0  0  0  0  0  0  0  0  0  0
  149.2954  140.4499  154.6162 C   0  0  0  0  0  0  0  0  0  0  0  0
  150.4527  139.8885  155.1476 N   0  0  0  0  0  0  0  0  0  0  0  0
  151.4289  140.5611  155.9942 C   0  0  0  0  0  0  0  0  0  0  0  0
  150.9940  140.6349  157.4717 C   0  0  1  0  0  0  0  0  0  0  0  0
  151.4503  139.4929  158.1715 O   0  0  0  0  0  0  0  0  0  0  0  0
  151.4565  141.9341  158.1129 C   0  0  0  0  0  0  0  0  0  0  0  0
  152.2499  141.9235  159.2820 C   0  0  0  0  0  0  0  0  0  0  0  0
  152.6816  143.1344  159.8579 C   0  0  0  0  0  0  0  0  0  0  0  0
  152.3274  144.3620  159.2661 C   0  0  0  0  0  0  0  0  0  0  0  0
  151.5413  144.3786  158.0981 C   0  0  0  0  0  0  0  0  0  0  0  0
  151.1082  143.1681  157.5227 C   0  0  0  0  0  0  0  0  0  0  0  0
  151.5984  136.8614  153.3187 H   0  0  0  0  0  0  0  0  0  0  0  0
  151.1426  136.8156  155.6634 H   0  0  0  0  0  0  0  0  0  0  0  0
  152.2734  138.1467  155.7307 H   0  0  0  0  0  0  0  0  0  0  0  0
  146.9919  138.8832  152.6340 H   0  0  0  0  0  0  0  0  0  0  0  0
  145.9547  141.1374  152.7582 H   0  0  0  0  0  0  0  0  0  0  0  0
  147.0437  142.9515  154.0642 H   0  0  0  0  0  0  0  0  0  0  0  0
  149.1891  142.5157  155.2559 H   0  0  0  0  0  0  0  0  0  0  0  0
  152.3829  140.0394  155.9070 H   0  0  0  0  0  0  0  0  0  0  0  0
  151.6000  141.5635  155.6011 H   0  0  0  0  0  0  0  0  0  0  0  0
  149.9055  140.6059  157.5240 H   0  0  0  0  0  0  0  0  0  0  0  0
  150.9500  138.7451  157.8824 H   0  0  0  0  0  0  0  0  0  0  0  0
  152.5339  140.9871  159.7397 H   0  0  0  0  0  0  0  0  0  0  0  0
  153.2864  143.1214  160.7526 H   0  0  0  0  0  0  0  0  0  0  0  0
  152.6604  145.2903  159.7065 H   0  0  0  0  0  0  0  0  0  0  0  0
  151.2720  145.3199  157.6422 H   0  0  0  0  0  0  0  0  0  0  0  0
  150.5099  143.1906  156.6235 H   0  0  0  0  0  0  0  0  0  0  0  0
  1  2  1  0  0  0  0
  1 21  1  0  0  0  0
  2  3  1  0  0  0  0
  2 22  1  0  0  0  0
  2 23  1  0  0  0  0
  3 11  1  0  0  0  0
  3  4  2  0  0  0  0
  4  5  1  0  0  0  0
  5 10  2  0  0  0  0
  5  6  1  0  0  0  0
  6  7  2  0  0  0  0
  6 24  1  0  0  0  0
  7  8  1  0  0  0  0
  7 25  1  0  0  0  0
  8  9  2  0  0  0  0
  8 26  1  0  0  0  0
  9 10  1  0  0  0  0
  9 27  1  0  0  0  0
 10 11  1  0  0  0  0
 11 12  1  0  0  0  0
 12 13  1  0  0  0  0
 12 28  1  0  0  0  0
 12 29  1  0  0  0  0
 13 14  1  0  0  0  0
 13 15  1  0  0  0  0
 13 30  1  0  0  0  0
 14 31  1  0  0  0  0
 15 20  1  0  0  0  0
 15 16  2  0  0  0  0
 16 17  1  0  0  0  0
 16 32  1  0  0  0  0
 17 18  2  0  0  0  0
 17 33  1  0  0  0  0
 18 19  1  0  0  0  0
 18 34  1  0  0  0  0
 19 20  2  0  0  0  0
 19 35  1  0  0  0  0
 20 36  1  0  0  0  0
M  END
> <s_m_source_file>
AV-unprocessed.smi

> <i_m_source_file_index>
485

> <i_lp_mmshare_version>
43012

> <i_f3d_flags>
0

> <s_epik_input>
W2NIXTFbY0hdW2NIXVtjSF1jKGMxMiluKGMobjIpW0NIMl1bT0hdKVtDSDJdW0NASF0oW09IXSljM1tjSF1bY0hdW2NIXVtjSF1bY0hdMw==

> <s_epik_cmdline>
J2VwaWtfcHl0aG9uJywgJy1waCcsICc3LjAnLCAnLXRuJywgJzgnLCAnLW1hJywgJzIwMCcsICctbWV0YWxfYmluZGluZycsICctaW1hZScsICc8aW5maWxlLm1hZT4nLCAnLW9tYWUnLCAnPG91dGZpbGUubWFlPic=

> <r_epik_Ionization_Penalty>
0.0634722

> <r_epik_Ionization_Penalty_Charging>
0

> <r_epik_Ionization_Penalty_Neutral>
0.0634722

> <r_epik_State_Penalty>
0.0551572

> <r_epik_Charging_Adjusted_Penalty>
0.0551572

> <i_epik_Tot_Q>
0

> <i_epik_Tot_abs_Q>
0

> <r_epik_Metal_State_Penalty>
5.78034e-05

> <b_epik_Metal_Only>
0

> <s_lp_Force_Field>
OPLS_2005

> <r_lp_Energy>
11.9135

> <b_lp_Chiralities_Consistent>
1

> <s_lp_Variant>
AV-unprocessed.smi:485-2

> <Gold.Version>
5.8.1

> <Gold.Id.Protein>
6NUR|6NUR_protein|mol2

> <Gold.PLP.Fitness>
52.2085

> <Gold.PLP.PLP>
-48.0006

> <Gold.PLP.part.hbond>
-2.0000

> <Gold.PLP.part.metal>
0.0000

> <Gold.PLP.part.buried>
-2.2565

> <Gold.PLP.part.nonpolar>
-45.3841

> <Gold.PLP.part.repulsive>
1.4246

> <Gold.PLP.ligand.clash>
0.0000

> <Gold.PLP.ligand.torsion>
0.7402

> <Gold.PLP.Chemscore.Hbond>
1.8800

> <Gold.PLP.Chemscore.CHOScore>
0.0000

> <Gold.PLP.Chemscore.Metal>
0.0000

> <Gold.Chemscore.Hbonds>
donor molecule, donor type, donor heavy atom, donor atom, acceptor molecule, acceptor atom, score
      L1  H     1    21       P1  7949  0.89
      P1  H 10752 10763       L1     1  0.80

> <Gold.PLP.Chemscore.Internal.Correction>
0.0483

> <Gold.Rescore>
     Score         DG    S(hbond)    S(metal)    S(lipo)     H(rot)  DE(clash)    DE(int)     intcor
     16.98     -18.22       1.41        0.00     126.09       2.62       0.43       0.81       ----

> <Gold.Chemscore.Fitness>
16.9801

> <Gold.Chemscore.DG>
-18.2155

> <Gold.Chemscore.ZeroCoef>
-5.4800

> <Gold.Chemscore.Hbond>
1.4065

> <Gold.Chemscore.Metal>
0.0000

> <Gold.Chemscore.Lipo>
126.0949

> <Gold.Chemscore.Internal_Hbond>
0.0000

> <Gold.Chemscore.DEClash>
0.4268

> <Gold.Chemscore.DEInternal>
0.8086

> <Gold.Chemscore.Rot>
2.6232

> <Gold.Chemscore.Internal.Correction>
   9.000000E+99

> <Gold.Chemscore.Hbonds>
donor molecule, donor type, donor heavy atom, donor atom, acceptor molecule, acceptor atom, score
      L1  H     1    21       P1  7949  0.77
      P1  H 10752 10763       L1     1  0.13

> <Gold.Chemscore.Hbond.Weighted>
-4.6978

> <Gold.Chemscore.Metal.Weighted>
-0.0000

> <Gold.Chemscore.Lipo.Weighted>
-14.7531

> <Gold.Chemscore.Internal_Hbond.Weighted>
0.0000

> <Gold.Chemscore.DEClash.Weighted>
0.4268

> <Gold.Chemscore.DEInternal.Weighted>
0.8086

> <Gold.Chemscore.Rot.Weighted>
6.7154

> <Gold.Chemscore.Internal.Correction.Weighted>
   9.000000E+99

> <Gold.Protein.RotatedTorsions>
[ 6907 6896 6895 6894 ] final   97.14 input  -60.11 | X-H torsion
[ 7974 7965 7964 7962 ] final -110.41 input  175.53 | X-H torsion
[ 8008 7997 7996 7995 ] final   89.74 input   59.86 | X-H torsion
[ 10167 10162 10161 10158 ] final  -46.00 input  -65.29 | X-H torsion
[ 10718 10713 10712 10709 ] final   76.34 input   66.30 | X-H torsion
[ 10763 10752 10751 10750 ] final   30.75 input  -60.55 | X-H torsion
[ 11005 11000 10999 10996 ] final  146.57 input  -57.11 | X-H torsion

> <Gold.Protein.ActiveResidues>
 VAL166  LYS551  ARG553  GLY616  TRP617  ASP618  TYR619  PRO620  LYS621  CYS622 
 ASP623  PHE694  ASN695  SER759  ASP760  ASP761  ALA762  ILE779  LEU786  VAL792 
 PHE793  MET794  SER795  GLU796  ALA797  LYS798  CYS799  TRP800  GLU811  SER814 

> <Gold.Protein.RotatedAtoms>
  152.5427  134.0779  159.8222 H   0  0  0  0  0  0  0  0  0  0  0  0  # atno 6907 bound_to 6896
  151.0885  133.5327  159.2623 H   0  0  0  0  0  0  0  0  0  0  0  0  # atno 6908 bound_to 6896
  151.2127  135.0496  159.8972 H   0  0  0  0  0  0  0  0  0  0  0  0  # atno 6909 bound_to 6896
  145.1685  140.8914  143.3549 H   0  0  0  0  0  0  0  0  0  0  0  0  # atno 7974 bound_to 7965
  156.0036  140.3357  155.6870 H   0  0  0  0  0  0  0  0  0  0  0  0  # atno 8008 bound_to 7997
  155.6255  140.0679  157.2683 H   0  0  0  0  0  0  0  0  0  0  0  0  # atno 8009 bound_to 7997
  154.4257  140.1769  156.1405 H   0  0  0  0  0  0  0  0  0  0  0  0  # atno 8010 bound_to 7997
  140.6835  143.2852  151.3719 H   0  0  0  0  0  0  0  0  0  0  0  0  # atno 10167 bound_to 10162
  157.6670  130.9770  150.1483 H   0  0  0  0  0  0  0  0  0  0  0  0  # atno 10718 bound_to 10713
  153.0354  135.6456  154.1092 H   0  0  0  0  0  0  0  0  0  0  0  0  # atno 10763 bound_to 10752
  154.0808  135.2873  155.3292 H   0  0  0  0  0  0  0  0  0  0  0  0  # atno 10764 bound_to 10752
  154.6531  135.5418  153.7990 H   0  0  0  0  0  0  0  0  0  0  0  0  # atno 10765 bound_to 10752
  140.0804  134.9100  157.1491 H   0  0  0  0  0  0  0  0  0  0  0  0  # atno 11005 bound_to 11000
  145.0257  139.3385  143.6050 LP  0  0  0  0  0  0  0  0  0  0  0  0  # atno 17320 bound_to 7965
  146.3472  139.9575  142.8721 LP  0  0  0  0  0  0  0  0  0  0  0  0  # atno 17321 bound_to 7965
  139.6176  144.0972  152.2360 LP  0  0  0  0  0  0  0  0  0  0  0  0  # atno 17342 bound_to 10162
  140.0406  144.6010  150.7414 LP  0  0  0  0  0  0  0  0  0  0  0  0  # atno 17343 bound_to 10162
  156.2289  130.3680  149.8468 LP  0  0  0  0  0  0  0  0  0  0  0  0  # atno 17370 bound_to 10713
  156.6300  130.8662  151.3493 LP  0  0  0  0  0  0  0  0  0  0  0  0  # atno 17371 bound_to 10713
  140.3496  134.2613  155.7200 LP  0  0  0  0  0  0  0  0  0  0  0  0  # atno 17394 bound_to 11000
  141.2044  133.7886  157.0286 LP  0  0  0  0  0  0  0  0  0  0  0  0  # atno 17395 bound_to 11000

$$$$
