AV-unprocessed.smi:2724|AV-procd|sdf|10511|dock3
  -GOLD-   2272014553D 1   1.00000     0.00000
 Structure written by MMmdl.
 26 27  0  0  0  0  0  0  0  0  2 V2000
  151.1715  139.9336  154.9850 O   0  0  0  0  0  0  0  0  0  0  0  0
  152.2625  139.8202  155.8748 C   0  0  2  0  0  0  0  0  0  0  0  0
  152.7901  138.3871  155.9227 C   0  0  0  0  0  0  0  0  0  0  0  0
  153.5521  138.3191  157.2453 C   0  0  0  0  0  0  0  0  0  0  0  0
  152.8159  139.2715  158.1987 C   0  0  0  0  0  0  0  0  0  0  0  0
  151.8610  140.1158  157.3296 C   0  0  1  0  0  0  0  0  0  0  0  0
  151.8641  141.5973  157.6843 C   0  0  0  0  0  0  0  0  0  0  0  0
  152.7578  142.1213  158.6475 C   0  0  0  0  0  0  0  0  0  0  0  0
  152.7315  143.5000  158.9427 C   0  0  0  0  0  0  0  0  0  0  0  0
  151.8114  144.3284  158.2691 C   0  0  0  0  0  0  0  0  0  0  0  0
  150.9707  143.7949  157.3563 N   0  3  0  0  0  0  0  0  0  0  0  0
  150.9649  142.4798  157.0458 C   0  0  0  0  0  0  0  0  0  0  0  0
  150.4123  140.2175  155.4711 H   0  0  0  0  0  0  0  0  0  0  0  0
  153.0693  140.4777  155.5489 H   0  0  0  0  0  0  0  0  0  0  0  0
  151.9586  137.6806  155.9484 H   0  0  0  0  0  0  0  0  0  0  0  0
  153.4130  138.1367  155.0634 H   0  0  0  0  0  0  0  0  0  0  0  0
  153.6125  137.3029  157.6358 H   0  0  0  0  0  0  0  0  0  0  0  0
  154.5727  138.6735  157.0937 H   0  0  0  0  0  0  0  0  0  0  0  0
  152.2528  138.7198  158.9524 H   0  0  0  0  0  0  0  0  0  0  0  0
  153.5432  139.8829  158.7341 H   0  0  0  0  0  0  0  0  0  0  0  0
  150.8546  139.7231  157.4890 H   0  0  0  0  0  0  0  0  0  0  0  0
  153.4574  141.4752  159.1579 H   0  0  0  0  0  0  0  0  0  0  0  0
  153.4079  143.9159  159.6752 H   0  0  0  0  0  0  0  0  0  0  0  0
  151.7229  145.3928  158.4316 H   0  0  0  0  0  0  0  0  0  0  0  0
  150.2449  142.1767  156.2995 H   0  0  0  0  0  0  0  0  0  0  0  0
  150.3115  144.4116  156.8804 H   0  0  0  0  0  0  0  0  0  0  0  0
  1  2  1  0  0  0  0
  1 13  1  0  0  0  0
  2  6  1  0  0  0  0
  2  3  1  0  0  0  0
  2 14  1  0  0  0  0
  3  4  1  0  0  0  0
  3 15  1  0  0  0  0
  3 16  1  0  0  0  0
  4  5  1  0  0  0  0
  4 17  1  0  0  0  0
  4 18  1  0  0  0  0
  5  6  1  0  0  0  0
  5 19  1  0  0  0  0
  5 20  1  0  0  0  0
  6  7  1  0  0  0  0
  6 21  1  0  0  0  0
  7 12  1  0  0  0  0
  7  8  2  0  0  0  0
  8  9  1  0  0  0  0
  8 22  1  0  0  0  0
  9 10  2  0  0  0  0
  9 23  1  0  0  0  0
 10 11  1  0  0  0  0
 10 24  1  0  0  0  0
 11 12  2  0  0  0  0
 11 26  1  0  0  0  0
 12 25  1  0  0  0  0
M  CHG  1  11   1
M  END
> <s_m_source_file>
AV-unprocessed.smi

> <i_m_source_file_index>
2724

> <i_lp_mmshare_version>
43012

> <i_f3d_flags>
0

> <s_epik_input>
W09IXVtDQEBIXTFbQ0gyXVtDSDJdW0NIMl1bQ0BIXTFjMltjSF1bY0hdW2NIXW5bY0hdMg==

> <s_epik_cmdline>
J2VwaWtfcHl0aG9uJywgJy1waCcsICc3LjAnLCAnLXRuJywgJzgnLCAnLW1hJywgJzIwMCcsICctbWV0YWxfYmluZGluZycsICctaW1hZScsICc8aW5maWxlLm1hZT4nLCAnLW9tYWUnLCAnPG91dGZpbGUubWFlPic=

> <r_epik_Ionization_Penalty>
2.09455

> <r_epik_Ionization_Penalty_Charging>
2.09455

> <r_epik_Ionization_Penalty_Neutral>
5.26757e-08

> <r_epik_State_Penalty>
2.23025

> <r_epik_Charging_Adjusted_Penalty>
4.3248

> <i_epik_Tot_Q>
1

> <i_epik_Tot_abs_Q>
1

> <r_epik_Metal_State_Penalty>
6.30911

> <b_epik_Metal_Only>
0

> <s_lp_Force_Field>
OPLS_2005

> <r_lp_Energy>
27.5674

> <b_lp_Chiralities_Consistent>
1

> <s_lp_Variant>
AV-unprocessed.smi:2724-5

> <Gold.Version>
5.8.1

> <Gold.Id.Protein>
6NUR|6NUR_protein|mol2

> <Gold.PLP.Fitness>
35.1156

> <Gold.PLP.PLP>
-26.7249

> <Gold.PLP.part.hbond>
-2.0000

> <Gold.PLP.part.metal>
0.0000

> <Gold.PLP.part.buried>
-3.4493

> <Gold.PLP.part.nonpolar>
-21.6755

> <Gold.PLP.part.repulsive>
0.0089

> <Gold.PLP.ligand.clash>
0.0000

> <Gold.PLP.ligand.torsion>
0.0410

> <Gold.PLP.Chemscore.Hbond>
2.8240

> <Gold.PLP.Chemscore.CHOScore>
0.0000

> <Gold.PLP.Chemscore.Metal>
0.0000

> <Gold.Chemscore.Hbonds>
donor molecule, donor type, donor heavy atom, donor atom, acceptor molecule, acceptor atom, score
      L1  H    11    26       P1  8028  2.00
      P1  H  7989  7998       L1     1  1.00

> <Gold.PLP.Chemscore.Internal.Correction>
0.0007

> <Gold.Rescore>
     Score         DG    S(hbond)    S(metal)    S(lipo)     H(rot)  DE(clash)    DE(int)     intcor
     16.97     -17.34       1.76        0.00      80.67       1.35       0.05       0.32       ----

> <Gold.Chemscore.Fitness>
16.9740

> <Gold.Chemscore.DG>
-17.3394

> <Gold.Chemscore.ZeroCoef>
-5.4800

> <Gold.Chemscore.Hbond>
1.7592

> <Gold.Chemscore.Metal>
0.0000

> <Gold.Chemscore.Lipo>
80.6730

> <Gold.Chemscore.Internal_Hbond>
0.0000

> <Gold.Chemscore.DEClash>
0.0455

> <Gold.Chemscore.DEInternal>
0.3199

> <Gold.Chemscore.Rot>
1.3496

> <Gold.Chemscore.Internal.Correction>
   9.000000E+99

> <Gold.Chemscore.Hbonds>
donor molecule, donor type, donor heavy atom, donor atom, acceptor molecule, acceptor atom, score
      L1  H    11    26       P1  8028  0.88
      P1  H  7989  7998       L1     1  0.75

> <Gold.Chemscore.Hbond.Weighted>
-5.8756

> <Gold.Chemscore.Metal.Weighted>
-0.0000

> <Gold.Chemscore.Lipo.Weighted>
-9.4387

> <Gold.Chemscore.Internal_Hbond.Weighted>
0.0000

> <Gold.Chemscore.DEClash.Weighted>
0.0455

> <Gold.Chemscore.DEInternal.Weighted>
0.3199

> <Gold.Chemscore.Rot.Weighted>
3.4550

> <Gold.Chemscore.Internal.Correction.Weighted>
   9.000000E+99

> <Gold.Protein.RotatedTorsions>
[ 6907 6896 6895 6894 ] final  -21.90 input  -60.11 | X-H torsion
[ 7974 7965 7964 7962 ] final -179.97 input  175.53 | X-H torsion
[ 8008 7997 7996 7995 ] final  -98.66 input   59.86 | X-H torsion
[ 10167 10162 10161 10158 ] final  128.59 input  -65.29 | X-H torsion
[ 10718 10713 10712 10709 ] final  -92.06 input   66.30 | X-H torsion
[ 10763 10752 10751 10750 ] final  122.35 input  -60.55 | X-H torsion
[ 11005 11000 10999 10996 ] final   54.56 input  -57.11 | X-H torsion

> <Gold.Protein.ActiveResidues>
 VAL166  LYS551  ARG553  GLY616  TRP617  ASP618  TYR619  PRO620  LYS621  CYS622 
 ASP623  PHE694  ASN695  SER759  ASP760  ASP761  ALA762  ILE779  LEU786  VAL792 
 PHE793  MET794  SER795  GLU796  ALA797  LYS798  CYS799  TRP800  GLU811  SER814 

> <Gold.Protein.RotatedAtoms>
  151.2266  135.0538  159.8970 H   0  0  0  0  0  0  0  0  0  0  0  0  # atno 6907 bound_to 6896
  152.5409  134.0583  159.8151 H   0  0  0  0  0  0  0  0  0  0  0  0  # atno 6908 bound_to 6896
  151.0757  133.5382  159.2655 H   0  0  0  0  0  0  0  0  0  0  0  0  # atno 6909 bound_to 6896
  144.7140  140.0637  143.6432 H   0  0  0  0  0  0  0  0  0  0  0  0  # atno 7974 bound_to 7965
  154.8043  140.0453  157.1296 H   0  0  0  0  0  0  0  0  0  0  0  0  # atno 8008 bound_to 7997
  154.9442  140.3056  155.5086 H   0  0  0  0  0  0  0  0  0  0  0  0  # atno 8009 bound_to 7997
  156.2965  140.2300  156.4514 H   0  0  0  0  0  0  0  0  0  0  0  0  # atno 8010 bound_to 7997
  139.5519  144.6820  151.4297 H   0  0  0  0  0  0  0  0  0  0  0  0  # atno 10167 bound_to 10162
  155.9999  130.4972  150.5568 H   0  0  0  0  0  0  0  0  0  0  0  0  # atno 10718 bound_to 10713
  153.6283  135.3400  155.3033 H   0  0  0  0  0  0  0  0  0  0  0  0  # atno 10763 bound_to 10752
  154.8585  135.4289  154.2133 H   0  0  0  0  0  0  0  0  0  0  0  0  # atno 10764 bound_to 10752
  153.3022  135.7025  153.7265 H   0  0  0  0  0  0  0  0  0  0  0  0  # atno 10765 bound_to 10752
  140.0676  134.5514  155.9082 H   0  0  0  0  0  0  0  0  0  0  0  0  # atno 11005 bound_to 11000
  145.9842  139.2965  143.1023 LP  0  0  0  0  0  0  0  0  0  0  0  0  # atno 17320 bound_to 7965
  145.8976  140.9264  143.0520 LP  0  0  0  0  0  0  0  0  0  0  0  0  # atno 17321 bound_to 7965
  140.6784  143.8138  150.7089 LP  0  0  0  0  0  0  0  0  0  0  0  0  # atno 17342 bound_to 10162
  140.1583  143.4297  152.2084 LP  0  0  0  0  0  0  0  0  0  0  0  0  # atno 17343 bound_to 10162
  157.3483  131.0729  151.1733 LP  0  0  0  0  0  0  0  0  0  0  0  0  # atno 17370 bound_to 10713
  157.2558  130.6635  149.5952 LP  0  0  0  0  0  0  0  0  0  0  0  0  # atno 17371 bound_to 10713
  141.1999  133.6609  156.5868 LP  0  0  0  0  0  0  0  0  0  0  0  0  # atno 17394 bound_to 11000
  140.3675  134.7634  157.4576 LP  0  0  0  0  0  0  0  0  0  0  0  0  # atno 17395 bound_to 11000

$$$$
