AV-unprocessed.smi:3196|AV-procd|sdf|12221|dock1
  -GOLD-   2272018 53D 1   1.00000     0.00000
 Structure written by MMmdl.
 33 34  0  0  0  0  0  0  0  0  1 V2000
  153.1449  142.8978  162.6034 C   0  0  0  0  0  0  0  0  0  0  0  0
  152.4227  143.2804  161.3070 C   0  0  0  0  0  0  0  0  0  0  0  0
  152.7543  142.3318  160.1471 C   0  0  0  0  0  0  0  0  0  0  0  0
  152.2321  142.8394  158.8180 C   0  0  2  0  0  0  0  0  0  0  0  0
  152.0718  144.3162  158.5752 C   0  0  0  0  0  0  0  0  0  0  0  0
  150.8457  143.4354  158.7043 C   0  0  1  0  0  0  0  0  0  0  0  0
  150.0994  143.1955  157.5059 N   0  0  0  0  0  0  0  0  0  0  0  0
  149.8322  142.0121  156.9247 C   0  0  0  0  0  0  0  0  0  0  0  0
  150.2062  140.9591  157.4363 O   0  0  0  0  0  0  0  0  0  0  0  0
  149.1009  142.1055  155.7960 N   0  0  0  0  0  0  0  0  0  0  0  0
  148.6175  141.0787  154.9386 C   0  0  0  0  0  0  0  0  0  0  0  0
  149.1961  139.7916  154.8171 C   0  0  0  0  0  0  0  0  0  0  0  0
  148.6167  138.8733  153.9183 C   0  0  0  0  0  0  0  0  0  0  0  0
  147.5384  139.1549  153.1570 N   0  0  0  0  0  0  0  0  0  0  0  0
  146.9959  140.3857  153.2674 C   0  0  0  0  0  0  0  0  0  0  0  0
  147.4966  141.3771  154.1349 C   0  0  0  0  0  0  0  0  0  0  0  0
  146.9052  142.5951  154.1934 F   0  0  0  0  0  0  0  0  0  0  0  0
  152.8852  143.5840  163.4098 H   0  0  0  0  0  0  0  0  0  0  0  0
  154.2270  142.9296  162.4750 H   0  0  0  0  0  0  0  0  0  0  0  0
  152.8743  141.8911  162.9227 H   0  0  0  0  0  0  0  0  0  0  0  0
  151.3463  143.2813  161.4819 H   0  0  0  0  0  0  0  0  0  0  0  0
  152.6924  144.3010  161.0331 H   0  0  0  0  0  0  0  0  0  0  0  0
  153.8344  142.2053  160.0660 H   0  0  0  0  0  0  0  0  0  0  0  0
  152.3370  141.3435  160.3439 H   0  0  0  0  0  0  0  0  0  0  0  0
  152.5691  142.2511  157.9659 H   0  0  0  0  0  0  0  0  0  0  0  0
  152.2911  144.9919  159.3992 H   0  0  0  0  0  0  0  0  0  0  0  0
  152.3317  144.6909  157.5869 H   0  0  0  0  0  0  0  0  0  0  0  0
  150.2857  143.5696  159.6287 H   0  0  0  0  0  0  0  0  0  0  0  0
  149.6772  144.0092  157.0829 H   0  0  0  0  0  0  0  0  0  0  0  0
  148.8179  143.0399  155.5387 H   0  0  0  0  0  0  0  0  0  0  0  0
  150.0664  139.4896  155.3775 H   0  0  0  0  0  0  0  0  0  0  0  0
  149.0358  137.8844  153.8053 H   0  0  0  0  0  0  0  0  0  0  0  0
  146.1365  140.5877  152.6450 H   0  0  0  0  0  0  0  0  0  0  0  0
  1  2  1  0  0  0  0
  1 18  1  0  0  0  0
  1 19  1  0  0  0  0
  1 20  1  0  0  0  0
  2  3  1  0  0  0  0
  2 21  1  0  0  0  0
  2 22  1  0  0  0  0
  3  4  1  0  0  0  0
  3 23  1  0  0  0  0
  3 24  1  0  0  0  0
  4  6  1  0  0  0  0
  4  5  1  0  0  0  0
  4 25  1  0  0  0  0
  5  6  1  0  0  0  0
  5 26  1  0  0  0  0
  5 27  1  0  0  0  0
  6  7  1  0  0  0  0
  6 28  1  0  0  0  0
  7  8  1  0  0  0  0
  7 29  1  0  0  0  0
  8  9  2  0  0  0  0
  8 10  1  0  0  0  0
 10 11  1  0  0  0  0
 10 30  1  0  0  0  0
 11 16  1  0  0  0  0
 11 12  2  0  0  0  0
 12 13  1  0  0  0  0
 12 31  1  0  0  0  0
 13 14  2  0  0  0  0
 13 32  1  0  0  0  0
 14 15  1  0  0  0  0
 15 16  2  0  0  0  0
 15 33  1  0  0  0  0
 16 17  1  0  0  0  0
M  END
> <s_m_source_file>
AV-unprocessed.smi

> <i_m_source_file_index>
3196

> <i_lp_mmshare_version>
43012

> <i_f3d_flags>
0

> <s_epik_input>
W0NIM11bQ0gyXVtDSDJdW0NAQEhdMVtDSDJdW0NASF0xW05IXUMoPU8pW05IXWMyW2NIXVtjSF1uW2NIXWMyRg==

> <s_epik_cmdline>
J2VwaWtfcHl0aG9uJywgJy1waCcsICc3LjAnLCAnLXRuJywgJzgnLCAnLW1hJywgJzIwMCcsICctbWV0YWxfYmluZGluZycsICctaW1hZScsICc8aW5maWxlLm1hZT4nLCAnLW9tYWUnLCAnPG91dGZpbGUubWFlPic=

> <r_epik_Ionization_Penalty>
0.00341997

> <r_epik_Ionization_Penalty_Charging>
0

> <r_epik_Ionization_Penalty_Neutral>
0.00341997

> <r_epik_State_Penalty>
0.00239198

> <r_epik_Charging_Adjusted_Penalty>
0.00239198

> <i_epik_Tot_Q>
0

> <i_epik_Tot_abs_Q>
0

> <r_epik_Metal_State_Penalty>
-0

> <b_epik_Metal_Only>
0

> <s_lp_Force_Field>
OPLS_2005

> <r_lp_Energy>
34.264

> <b_lp_Chiralities_Consistent>
1

> <s_lp_Variant>
AV-unprocessed.smi:3196-1

> <Gold.Version>
5.8.1

> <Gold.Id.Protein>
6NUR|6NUR_protein|mol2

> <Gold.PLP.Fitness>
51.9523

> <Gold.PLP.PLP>
-40.3013

> <Gold.PLP.part.hbond>
-2.0000

> <Gold.PLP.part.metal>
0.0000

> <Gold.PLP.part.buried>
-3.1729

> <Gold.PLP.part.nonpolar>
-36.5860

> <Gold.PLP.part.repulsive>
1.9720

> <Gold.PLP.ligand.clash>
0.0000

> <Gold.PLP.ligand.torsion>
0.4444

> <Gold.PLP.Chemscore.Hbond>
1.9920

> <Gold.PLP.Chemscore.CHOScore>
2.0000

> <Gold.PLP.Chemscore.Metal>
0.0000

> <Gold.Chemscore.Hbonds>
donor molecule, donor type, donor heavy atom, donor atom, acceptor molecule, acceptor atom, score
      L1  H     7    29       P1  8028  0.98
      L1  H    10    30       P1  8028  1.00
      L1  C    13    32       P1  7948  1.00
      L1  C    15    33       P1 10175  1.00

> <Gold.PLP.Chemscore.Internal.Correction>
0.5638

> <Gold.Rescore>
     Score         DG    S(hbond)    S(metal)    S(lipo)     H(rot)  DE(clash)    DE(int)     intcor
     18.64     -20.14       1.95        0.00      99.92       1.39       0.12       1.38       ----

> <Gold.Chemscore.Fitness>
18.6393

> <Gold.Chemscore.DG>
-20.1372

> <Gold.Chemscore.ZeroCoef>
-5.4800

> <Gold.Chemscore.Hbond>
1.9500

> <Gold.Chemscore.Metal>
0.0000

> <Gold.Chemscore.Lipo>
99.9171

> <Gold.Chemscore.Internal_Hbond>
0.0000

> <Gold.Chemscore.DEClash>
0.1151

> <Gold.Chemscore.DEInternal>
1.3828

> <Gold.Chemscore.Rot>
1.3852

> <Gold.Chemscore.Internal.Correction>
   9.000000E+99

> <Gold.Chemscore.Hbonds>
donor molecule, donor type, donor heavy atom, donor atom, acceptor molecule, acceptor atom, score
      L1  H     7    29       P1  8028  0.69
      L1  H    10    30       P1  8028  0.97

> <Gold.Chemscore.Hbond.Weighted>
-6.5129

> <Gold.Chemscore.Metal.Weighted>
-0.0000

> <Gold.Chemscore.Lipo.Weighted>
-11.6903

> <Gold.Chemscore.Internal_Hbond.Weighted>
0.0000

> <Gold.Chemscore.DEClash.Weighted>
0.1151

> <Gold.Chemscore.DEInternal.Weighted>
1.3828

> <Gold.Chemscore.Rot.Weighted>
3.5460

> <Gold.Chemscore.Internal.Correction.Weighted>
   9.000000E+99

> <Gold.Protein.RotatedTorsions>
[ 6907 6896 6895 6894 ] final   -6.34 input  -60.11 | X-H torsion
[ 7974 7965 7964 7962 ] final  -52.67 input  175.53 | X-H torsion
[ 8008 7997 7996 7995 ] final   49.15 input   59.86 | X-H torsion
[ 10167 10162 10161 10158 ] final  -18.09 input  -65.29 | X-H torsion
[ 10718 10713 10712 10709 ] final -127.90 input   66.30 | X-H torsion
[ 10763 10752 10751 10750 ] final  -42.67 input  -60.55 | X-H torsion
[ 11005 11000 10999 10996 ] final  -52.42 input  -57.11 | X-H torsion

> <Gold.Protein.ActiveResidues>
 VAL166  LYS551  ARG553  GLY616  TRP617  ASP618  TYR619  PRO620  LYS621  CYS622 
 ASP623  PHE694  ASN695  SER759  ASP760  ASP761  ALA762  ILE779  LEU786  VAL792 
 PHE793  MET794  SER795  GLU796  ALA797  LYS798  CYS799  TRP800  GLU811  SER814 

> <Gold.Protein.RotatedAtoms>
  151.4671  135.1043  159.9740 H   0  0  0  0  0  0  0  0  0  0  0  0  # atno 6907 bound_to 6896
  152.4831  133.8299  159.7108 H   0  0  0  0  0  0  0  0  0  0  0  0  # atno 6908 bound_to 6896
  150.8918  133.7173  159.2929 H   0  0  0  0  0  0  0  0  0  0  0  0  # atno 6909 bound_to 6896
  145.9054  140.7960  142.9722 H   0  0  0  0  0  0  0  0  0  0  0  0  # atno 7974 bound_to 7965
  155.3974  140.3436  155.4255 H   0  0  0  0  0  0  0  0  0  0  0  0  # atno 8008 bound_to 7997
  156.1523  140.1574  156.8782 H   0  0  0  0  0  0  0  0  0  0  0  0  # atno 8009 bound_to 7997
  154.5063  140.0801  156.7882 H   0  0  0  0  0  0  0  0  0  0  0  0  # atno 8010 bound_to 7997
  140.7255  143.4951  150.9942 H   0  0  0  0  0  0  0  0  0  0  0  0  # atno 10167 bound_to 10162
  156.1901  130.6789  151.0413 H   0  0  0  0  0  0  0  0  0  0  0  0  # atno 10718 bound_to 10713
  153.9829  135.6715  153.4751 H   0  0  0  0  0  0  0  0  0  0  0  0  # atno 10763 bound_to 10752
  153.0740  135.4958  154.8362 H   0  0  0  0  0  0  0  0  0  0  0  0  # atno 10764 bound_to 10752
  154.7154  135.3106  154.9093 H   0  0  0  0  0  0  0  0  0  0  0  0  # atno 10765 bound_to 10752
  141.0923  133.6630  156.4021 H   0  0  0  0  0  0  0  0  0  0  0  0  # atno 11005 bound_to 11000
  144.6739  140.1742  143.7411 LP  0  0  0  0  0  0  0  0  0  0  0  0  # atno 17320 bound_to 7965
  145.8739  139.2286  143.1645 LP  0  0  0  0  0  0  0  0  0  0  0  0  # atno 17321 bound_to 7965
  139.8657  143.7257  152.3170 LP  0  0  0  0  0  0  0  0  0  0  0  0  # atno 17342 bound_to 10162
  139.7488  144.7540  151.0538 LP  0  0  0  0  0  0  0  0  0  0  0  0  # atno 17343 bound_to 10162
  157.6923  131.0806  150.7071 LP  0  0  0  0  0  0  0  0  0  0  0  0  # atno 17370 bound_to 10713
  156.7127  130.4657  149.5543 LP  0  0  0  0  0  0  0  0  0  0  0  0  # atno 17371 bound_to 10713
  140.5223  134.6292  157.5322 LP  0  0  0  0  0  0  0  0  0  0  0  0  # atno 17394 bound_to 11000
  139.9751  134.7228  155.9965 LP  0  0  0  0  0  0  0  0  0  0  0  0  # atno 17395 bound_to 11000

$$$$
