AV-unprocessed.smi:2124|AV-procd|sdf|8671|dock5
  -GOLD-   2272011423D 1   1.00000     0.00000
 Structure written by MMmdl.
 46 48  0  0  0  0  0  0  0  0  2 V2000
  150.0265  142.8545  157.7154 C   0  0  0  0  0  0  0  0  0  0  0  0
  150.2272  141.6785  156.7837 C   0  0  0  0  0  0  0  0  0  0  0  0
  149.3060  141.3777  155.9493 N   0  0  0  0  0  0  0  0  0  0  0  0
  149.4906  140.2911  155.0775 C   0  0  0  0  0  0  0  0  0  0  0  0
  148.3483  140.0080  154.1171 C   0  0  0  0  0  0  0  0  0  0  0  0
  150.6357  139.5506  155.1059 C   0  0  0  0  0  0  0  0  0  0  0  0
  150.8903  138.3655  154.1745 C   0  0  0  0  0  0  0  0  0  0  0  0
  151.1690  137.0187  154.8462 C   0  0  0  0  0  0  0  0  0  0  0  0
  152.0590  136.9093  155.6896 O   0  0  0  0  0  0  0  0  0  0  0  0
  150.3799  136.0023  154.4585 N   0  0  0  0  0  0  0  0  0  0  0  0
  150.3929  134.6228  154.9534 C   0  0  1  0  0  0  0  0  0  0  0  0
  149.9294  134.5653  156.4225 C   0  0  0  0  0  0  0  0  0  0  0  0
  149.6056  133.6523  154.0312 C   0  0  2  0  0  0  0  0  0  0  0  0
  148.0997  133.9932  153.9171 C   0  0  0  0  0  0  0  0  0  0  0  0
  147.4075  132.6677  154.2808 C   0  0  1  0  0  0  0  0  0  0  0  0
  147.6474  131.6361  153.1634 C   0  0  0  0  0  0  0  0  0  0  0  0
  149.1333  131.2767  153.3489 C   0  0  0  0  0  0  0  0  0  0  0  0
  149.5573  132.1813  154.5215 C   0  0  2  0  0  0  0  0  0  0  0  0
  148.3070  132.1494  155.3944 C   0  0  0  0  0  0  0  0  0  0  0  0
  151.6679  139.9236  156.0892 C   0  0  0  0  0  0  0  0  0  0  0  0
  152.7112  139.2759  156.1700 O   0  0  0  0  0  0  0  0  0  0  0  0
  151.4175  140.9955  156.8937 N   0  5  0  0  0  0  0  0  0  0  0  0
  148.9810  143.1648  157.7359 H   0  0  0  0  0  0  0  0  0  0  0  0
  150.6300  143.7007  157.3861 H   0  0  0  0  0  0  0  0  0  0  0  0
  150.3230  142.5930  158.7318 H   0  0  0  0  0  0  0  0  0  0  0  0
  148.6632  140.1835  153.0885 H   0  0  0  0  0  0  0  0  0  0  0  0
  147.4929  140.6532  154.3208 H   0  0  0  0  0  0  0  0  0  0  0  0
  148.0148  138.9742  154.2075 H   0  0  0  0  0  0  0  0  0  0  0  0
  150.0186  138.2412  153.5317 H   0  0  0  0  0  0  0  0  0  0  0  0
  151.7089  138.5880  153.4892 H   0  0  0  0  0  0  0  0  0  0  0  0
  149.6866  136.2095  153.7545 H   0  0  0  0  0  0  0  0  0  0  0  0
  151.4426  134.3288  154.9358 H   0  0  0  0  0  0  0  0  0  0  0  0
  150.0808  133.5745  156.8502 H   0  0  0  0  0  0  0  0  0  0  0  0
  148.8704  134.8036  156.5233 H   0  0  0  0  0  0  0  0  0  0  0  0
  150.4884  135.2711  157.0375 H   0  0  0  0  0  0  0  0  0  0  0  0
  150.0530  133.6851  153.0371 H   0  0  0  0  0  0  0  0  0  0  0  0
  147.8081  134.7670  154.6282 H   0  0  0  0  0  0  0  0  0  0  0  0
  147.8287  134.3438  152.9206 H   0  0  0  0  0  0  0  0  0  0  0  0
  146.3579  132.7836  154.5525 H   0  0  0  0  0  0  0  0  0  0  0  0
  147.0194  130.7555  153.3032 H   0  0  0  0  0  0  0  0  0  0  0  0
  147.4382  132.0445  152.1740 H   0  0  0  0  0  0  0  0  0  0  0  0
  149.2417  130.2246  153.6157 H   0  0  0  0  0  0  0  0  0  0  0  0
  149.7234  131.4533  152.4489 H   0  0  0  0  0  0  0  0  0  0  0  0
  150.4660  131.8325  155.0124 H   0  0  0  0  0  0  0  0  0  0  0  0
  148.3587  132.8158  156.2566 H   0  0  0  0  0  0  0  0  0  0  0  0
  148.0410  131.1465  155.7337 H   0  0  0  0  0  0  0  0  0  0  0  0
  1  2  1  0  0  0  0
  1 23  1  0  0  0  0
  1 24  1  0  0  0  0
  1 25  1  0  0  0  0
  2 22  1  0  0  0  0
  2  3  2  0  0  0  0
  3  4  1  0  0  0  0
  4  5  1  0  0  0  0
  4  6  2  0  0  0  0
  5 26  1  0  0  0  0
  5 27  1  0  0  0  0
  5 28  1  0  0  0  0
  6  7  1  0  0  0  0
  6 20  1  0  0  0  0
  7  8  1  0  0  0  0
  7 29  1  0  0  0  0
  7 30  1  0  0  0  0
  8  9  2  0  0  0  0
  8 10  1  0  0  0  0
 10 11  1  0  0  0  0
 10 31  1  0  0  0  0
 11 12  1  0  0  0  0
 11 13  1  0  0  0  0
 11 32  1  0  0  0  0
 12 33  1  0  0  0  0
 12 34  1  0  0  0  0
 12 35  1  0  0  0  0
 13 18  1  0  0  0  0
 13 14  1  0  0  0  0
 13 36  1  0  0  0  0
 14 15  1  0  0  0  0
 14 37  1  0  0  0  0
 14 38  1  0  0  0  0
 15 19  1  0  0  0  0
 15 16  1  0  0  0  0
 15 39  1  0  0  0  0
 16 17  1  0  0  0  0
 16 40  1  0  0  0  0
 16 41  1  0  0  0  0
 17 18  1  0  0  0  0
 17 42  1  0  0  0  0
 17 43  1  0  0  0  0
 18 19  1  0  0  0  0
 18 44  1  0  0  0  0
 19 45  1  0  0  0  0
 19 46  1  0  0  0  0
 20 21  2  0  0  0  0
 20 22  1  0  0  0  0
M  CHG  1  22  -1
M  END
> <s_m_source_file>
AV-unprocessed.smi

> <i_m_source_file_index>
2124

> <i_lp_mmshare_version>
43012

> <i_f3d_flags>
0

> <s_epik_input>
W0NIM11jMW5jKFtDSDNdKWMoYyg9TylbbkhdMSlbQ0gyXUMoPU8pW05IXVtDQEhdKFtDSDNdKVtDQEhdKFtDSDJdW0NASF0yMylbQ0BIXShbQ0gyXTMpW0NIMl1bQ0gyXTI=

> <s_epik_cmdline>
J2VwaWtfcHl0aG9uJywgJy1waCcsICc3LjAnLCAnLXRuJywgJzgnLCAnLW1hJywgJzIwMCcsICctbWV0YWxfYmluZGluZycsICctaW1hZScsICc8aW5maWxlLm1hZT4nLCAnLW9tYWUnLCAnPG91dGZpbGUubWFlPic=

> <r_lp_tautomer_probability>
0.839158

> <r_epik_Ionization_Penalty>
6.63797

> <r_epik_Ionization_Penalty_Charging>
7.48558e-08

> <r_epik_Ionization_Penalty_Neutral>
6.63797

> <r_epik_State_Penalty>
4.49496

> <r_epik_Charging_Adjusted_Penalty>
4.49496

> <i_epik_Tot_Q>
-1

> <i_epik_Tot_abs_Q>
1

> <r_epik_Metal_State_Penalty>
0.841241

> <b_epik_Metal_Only>
1

> <s_lp_Force_Field>
OPLS_2005

> <r_lp_Energy>
55.5878

> <b_lp_Chiralities_Consistent>
1

> <s_lp_Variant>
AV-unprocessed.smi:2124-22

> <Gold.Version>
5.8.1

> <Gold.Id.Protein>
6NUR|6NUR_protein|mol2

> <Gold.PLP.Fitness>
44.2658

> <Gold.PLP.PLP>
-35.7436

> <Gold.PLP.part.hbond>
-3.9358

> <Gold.PLP.part.metal>
0.0000

> <Gold.PLP.part.buried>
0.5970

> <Gold.PLP.part.nonpolar>
-31.5792

> <Gold.PLP.part.repulsive>
0.2013

> <Gold.PLP.ligand.clash>
0.0000

> <Gold.PLP.ligand.torsion>
0.1774

> <Gold.PLP.Chemscore.Hbond>
2.9360

> <Gold.PLP.Chemscore.CHOScore>
0.0000

> <Gold.PLP.Chemscore.Metal>
0.0000

> <Gold.Chemscore.Hbonds>
donor molecule, donor type, donor heavy atom, donor atom, acceptor molecule, acceptor atom, score
      L1  H    10    31       P1  7948  1.00
      P1  H  7997  8009       L1    21  1.00
      P1  H 10752 10765       L1     9  0.90

> <Gold.PLP.Chemscore.Internal.Correction>
0.0690

> <Gold.Rescore>
     Score         DG    S(hbond)    S(metal)    S(lipo)     H(rot)  DE(clash)    DE(int)     intcor
     16.44     -18.26       2.41        0.00      75.46       1.61       0.05       1.76       ----

> <Gold.Chemscore.Fitness>
16.4416

> <Gold.Chemscore.DG>
-18.2573

> <Gold.Chemscore.ZeroCoef>
-5.4800

> <Gold.Chemscore.Hbond>
2.4124

> <Gold.Chemscore.Metal>
0.0000

> <Gold.Chemscore.Lipo>
75.4618

> <Gold.Chemscore.Internal_Hbond>
0.0000

> <Gold.Chemscore.DEClash>
0.0507

> <Gold.Chemscore.DEInternal>
1.7650

> <Gold.Chemscore.Rot>
1.6051

> <Gold.Chemscore.Internal.Correction>
   9.000000E+99

> <Gold.Chemscore.Hbonds>
donor molecule, donor type, donor heavy atom, donor atom, acceptor molecule, acceptor atom, score
      L1  H    10    31       P1  7948  0.37
      P1  H  7997  8009       L1    21  0.99
      P1  H 10752 10765       L1     9  0.17

> <Gold.Chemscore.Hbond.Weighted>
-8.0573

> <Gold.Chemscore.Metal.Weighted>
-0.0000

> <Gold.Chemscore.Lipo.Weighted>
-8.8290

> <Gold.Chemscore.Internal_Hbond.Weighted>
0.0000

> <Gold.Chemscore.DEClash.Weighted>
0.0507

> <Gold.Chemscore.DEInternal.Weighted>
1.7650

> <Gold.Chemscore.Rot.Weighted>
4.1090

> <Gold.Chemscore.Internal.Correction.Weighted>
   9.000000E+99

> <Gold.Protein.RotatedTorsions>
[ 6907 6896 6895 6894 ] final  -22.42 input  -60.11 | X-H torsion
[ 7974 7965 7964 7962 ] final  110.52 input  175.53 | X-H torsion
[ 8008 7997 7996 7995 ] final -173.59 input   59.86 | X-H torsion
[ 10167 10162 10161 10158 ] final  -72.64 input  -65.29 | X-H torsion
[ 10718 10713 10712 10709 ] final  -33.49 input   66.30 | X-H torsion
[ 10763 10752 10751 10750 ] final -163.38 input  -60.55 | X-H torsion
[ 11005 11000 10999 10996 ] final  -50.61 input  -57.11 | X-H torsion

> <Gold.Protein.ActiveResidues>
 VAL166  LYS551  ARG553  GLY616  TRP617  ASP618  TYR619  PRO620  LYS621  CYS622 
 ASP623  PHE694  ASN695  SER759  ASP760  ASP761  ALA762  ILE779  LEU786  VAL792 
 PHE793  MET794  SER795  GLU796  ALA797  LYS798  CYS799  TRP800  GLU811  SER814 

> <Gold.Protein.RotatedAtoms>
  151.2189  135.0510  159.8941 H   0  0  0  0  0  0  0  0  0  0  0  0  # atno 6907 bound_to 6896
  152.5417  134.0663  159.8184 H   0  0  0  0  0  0  0  0  0  0  0  0  # atno 6908 bound_to 6896
  151.0826  133.5330  159.2651 H   0  0  0  0  0  0  0  0  0  0  0  0  # atno 6909 bound_to 6896
  145.2539  139.2729  143.4053 H   0  0  0  0  0  0  0  0  0  0  0  0  # atno 7974 bound_to 7965
  155.9594  140.1141  157.0908 H   0  0  0  0  0  0  0  0  0  0  0  0  # atno 8008 bound_to 7997
  154.4128  140.1185  156.5226 H   0  0  0  0  0  0  0  0  0  0  0  0  # atno 8009 bound_to 7997
  155.6740  140.3473  155.4831 H   0  0  0  0  0  0  0  0  0  0  0  0  # atno 8010 bound_to 7997
  140.5175  143.2336  151.7487 H   0  0  0  0  0  0  0  0  0  0  0  0  # atno 10167 bound_to 10162
  156.3620  130.4325  149.7616 H   0  0  0  0  0  0  0  0  0  0  0  0  # atno 10718 bound_to 10713
  154.7128  135.3009  154.9170 H   0  0  0  0  0  0  0  0  0  0  0  0  # atno 10763 bound_to 10752
  154.0067  135.6700  153.4766 H   0  0  0  0  0  0  0  0  0  0  0  0  # atno 10764 bound_to 10752
  153.0769  135.5030  154.8337 H   0  0  0  0  0  0  0  0  0  0  0  0  # atno 10765 bound_to 10752
  141.0825  133.6650  156.3756 H   0  0  0  0  0  0  0  0  0  0  0  0  # atno 11005 bound_to 11000
  146.3295  140.2937  142.8616 LP  0  0  0  0  0  0  0  0  0  0  0  0  # atno 17320 bound_to 7965
  144.9478  140.8147  143.5590 LP  0  0  0  0  0  0  0  0  0  0  0  0  # atno 17321 bound_to 7965
  139.4913  144.4302  151.9880 LP  0  0  0  0  0  0  0  0  0  0  0  0  # atno 17342 bound_to 10162
  140.3397  144.3218  150.5970 LP  0  0  0  0  0  0  0  0  0  0  0  0  # atno 17343 bound_to 10162
  156.4776  130.8026  151.3042 LP  0  0  0  0  0  0  0  0  0  0  0  0  # atno 17370 bound_to 10713
  157.7474  131.0016  150.2968 LP  0  0  0  0  0  0  0  0  0  0  0  0  # atno 17371 bound_to 10713
  140.5436  134.6096  157.5387 LP  0  0  0  0  0  0  0  0  0  0  0  0  # atno 17394 bound_to 11000
  139.9640  134.7404  156.0177 LP  0  0  0  0  0  0  0  0  0  0  0  0  # atno 17395 bound_to 11000

$$$$
