AV-unprocessed.smi:2067|AV-procd|sdf|8425|dock9
  -GOLD-   2272011123D 1   1.00000     0.00000
 Structure written by MMmdl.
 47 48  0  0  0  0  0  0  0  0  1 V2000
  143.8627  135.7265  151.6417 C   0  0  0  0  0  0  0  0  0  0  0  0
  144.5770  134.4967  151.0626 C   0  0  2  0  0  0  0  0  0  0  0  0
  143.7792  133.1985  151.2970 C   0  0  0  0  0  0  0  0  0  0  0  0
  144.4832  131.9878  150.6627 C   0  0  0  0  0  0  0  0  0  0  0  0
  145.9281  131.8500  151.1678 C   0  0  0  0  0  0  0  0  0  0  0  0
  146.7251  133.1481  150.9495 C   0  0  0  0  0  0  0  0  0  0  0  0
  146.0215  134.3616  151.5919 C   0  0  2  0  0  0  0  0  0  0  0  0
  145.9816  134.1878  153.0039 O   0  0  0  0  0  0  0  0  0  0  0  0
  147.2553  134.1665  153.6296 C   0  0  0  0  0  0  0  0  0  0  0  0
  147.2274  135.1174  154.8292 C   0  0  0  0  0  0  0  0  0  0  0  0
  148.4586  135.8853  154.9327 N   0  0  0  0  0  0  0  0  0  0  0  0
  148.5916  137.2520  154.7065 C   0  0  0  0  0  0  0  0  0  0  0  0
  149.7966  137.8798  154.8204 C   0  0  0  0  0  0  0  0  0  0  0  0
  151.0135  137.1947  155.1268 C   0  0  0  0  0  0  0  0  0  0  0  0
  151.9966  136.6443  155.3948 N   0  0  0  0  0  0  0  0  0  0  0  0
  149.9508  139.3169  154.5982 C   0  0  0  0  0  0  0  0  0  0  0  0
  151.0308  139.9049  154.6855 O   0  0  0  0  0  0  0  0  0  0  0  0
  148.7551  139.9906  154.2665 N   0  0  0  0  0  0  0  0  0  0  0  0
  148.7918  141.4204  154.0304 C   0  0  0  0  0  0  0  0  0  0  0  0
  147.5030  139.3626  154.1241 C   0  0  0  0  0  0  0  0  0  0  0  0
  146.4975  140.0094  153.8128 O   0  0  0  0  0  0  0  0  0  0  0  0
  147.4454  137.9659  154.3460 N   0  0  0  0  0  0  0  0  0  0  0  0
  146.1305  137.3853  154.1730 C   0  0  0  0  0  0  0  0  0  0  0  0
  143.7534  135.6492  152.7221 H   0  0  0  0  0  0  0  0  0  0  0  0
  142.8661  135.8392  151.2143 H   0  0  0  0  0  0  0  0  0  0  0  0
  144.4184  136.6400  151.4289 H   0  0  0  0  0  0  0  0  0  0  0  0
  144.6385  134.6500  149.9840 H   0  0  0  0  0  0  0  0  0  0  0  0
  143.6504  133.0288  152.3671 H   0  0  0  0  0  0  0  0  0  0  0  0
  142.7765  133.2962  150.8796 H   0  0  0  0  0  0  0  0  0  0  0  0
  143.9248  131.0771  150.8807 H   0  0  0  0  0  0  0  0  0  0  0  0
  144.4861  132.0954  149.5773 H   0  0  0  0  0  0  0  0  0  0  0  0
  145.9208  131.5982  152.2292 H   0  0  0  0  0  0  0  0  0  0  0  0
  146.4214  131.0214  150.6590 H   0  0  0  0  0  0  0  0  0  0  0  0
  147.7340  133.0335  151.3451 H   0  0  0  0  0  0  0  0  0  0  0  0
  146.8389  133.3238  149.8791 H   0  0  0  0  0  0  0  0  0  0  0  0
  146.5657  135.2747  151.3420 H   0  0  0  0  0  0  0  0  0  0  0  0
  147.4917  133.1619  153.9810 H   0  0  0  0  0  0  0  0  0  0  0  0
  148.0303  134.4542  152.9177 H   0  0  0  0  0  0  0  0  0  0  0  0
  146.3680  135.7808  154.7338 H   0  0  0  0  0  0  0  0  0  0  0  0
  147.0966  134.5506  155.7511 H   0  0  0  0  0  0  0  0  0  0  0  0
  149.2703  135.3415  154.6764 H   0  0  0  0  0  0  0  0  0  0  0  0
  148.0227  141.8787  154.6546 H   0  0  0  0  0  0  0  0  0  0  0  0
  148.5879  141.5742  152.9695 H   0  0  0  0  0  0  0  0  0  0  0  0
  149.7596  141.8438  154.2970 H   0  0  0  0  0  0  0  0  0  0  0  0
  145.4718  137.8454  154.9117 H   0  0  0  0  0  0  0  0  0  0  0  0
  146.1630  136.3085  154.3218 H   0  0  0  0  0  0  0  0  0  0  0  0
  145.8062  137.6017  153.1533 H   0  0  0  0  0  0  0  0  0  0  0  0
  1  2  1  0  0  0  0
  1 24  1  0  0  0  0
  1 25  1  0  0  0  0
  1 26  1  0  0  0  0
  2  7  1  0  0  0  0
  2  3  1  0  0  0  0
  2 27  1  0  0  0  0
  3  4  1  0  0  0  0
  3 28  1  0  0  0  0
  3 29  1  0  0  0  0
  4  5  1  0  0  0  0
  4 30  1  0  0  0  0
  4 31  1  0  0  0  0
  5  6  1  0  0  0  0
  5 32  1  0  0  0  0
  5 33  1  0  0  0  0
  6  7  1  0  0  0  0
  6 34  1  0  0  0  0
  6 35  1  0  0  0  0
  7  8  1  0  0  0  0
  7 36  1  0  0  0  0
  8  9  1  0  0  0  0
  9 10  1  0  0  0  0
  9 37  1  0  0  0  0
  9 38  1  0  0  0  0
 10 11  1  0  0  0  0
 10 39  1  0  0  0  0
 10 40  1  0  0  0  0
 11 12  1  0  0  0  0
 11 41  1  0  0  0  0
 12 22  1  0  0  0  0
 12 13  2  0  0  0  0
 13 14  1  0  0  0  0
 13 16  1  0  0  0  0
 14 15  3  0  0  0  0
 16 17  2  0  0  0  0
 16 18  1  0  0  0  0
 18 19  1  0  0  0  0
 18 20  1  0  0  0  0
 19 42  1  0  0  0  0
 19 43  1  0  0  0  0
 19 44  1  0  0  0  0
 20 21  2  0  0  0  0
 20 22  1  0  0  0  0
 22 23  1  0  0  0  0
 23 45  1  0  0  0  0
 23 46  1  0  0  0  0
 23 47  1  0  0  0  0
M  END
> <s_m_source_file>
AV-unprocessed.smi

> <i_m_source_file_index>
2067

> <i_lp_mmshare_version>
43012

> <i_f3d_flags>
0

> <s_epik_input>
W0NIM11bQ0BASF0xW0NIMl1bQ0gyXVtDSDJdW0NIMl1bQ0BIXTFPW0NIMl1bQ0gyXVtOSF1jMmMoQyNOKWMoPU8pbihbQ0gzXSljKD1PKW4yW0NIM10=

> <s_epik_cmdline>
J2VwaWtfcHl0aG9uJywgJy1waCcsICc3LjAnLCAnLXRuJywgJzgnLCAnLW1hJywgJzIwMCcsICctbWV0YWxfYmluZGluZycsICctaW1hZScsICc8aW5maWxlLm1hZT4nLCAnLW9tYWUnLCAnPG91dGZpbGUubWFlPic=

> <r_epik_Ionization_Penalty>
0.00056529

> <r_epik_Ionization_Penalty_Charging>
3.94678e-10

> <r_epik_Ionization_Penalty_Neutral>
0.000565289

> <r_epik_State_Penalty>
0.000354611

> <r_epik_Charging_Adjusted_Penalty>
0.000354611

> <i_epik_Tot_Q>
0

> <i_epik_Tot_abs_Q>
0

> <r_epik_Metal_State_Penalty>
-0

> <b_epik_Metal_Only>
0

> <s_lp_Force_Field>
OPLS_2005

> <r_lp_Energy>
32.9241

> <b_lp_Chiralities_Consistent>
1

> <s_lp_Variant>
AV-unprocessed.smi:2067-3

> <Gold.Version>
5.8.1

> <Gold.Id.Protein>
6NUR|6NUR_protein|mol2

> <Gold.PLP.Fitness>
36.5740

> <Gold.PLP.PLP>
-34.2002

> <Gold.PLP.part.hbond>
-2.7217

> <Gold.PLP.part.metal>
0.0000

> <Gold.PLP.part.buried>
-3.5514

> <Gold.PLP.part.nonpolar>
-28.9416

> <Gold.PLP.part.repulsive>
0.3808

> <Gold.PLP.ligand.clash>
12.3491

> <Gold.PLP.ligand.torsion>
0.6862

> <Gold.PLP.Chemscore.Hbond>
1.9913

> <Gold.PLP.Chemscore.CHOScore>
0.0000

> <Gold.PLP.Chemscore.Metal>
0.0000

> <Gold.Chemscore.Hbonds>
donor molecule, donor type, donor heavy atom, donor atom, acceptor molecule, acceptor atom, score
      P1  H  7989  7998       L1    17  1.00
      P1  H 10752 10764       L1    15  1.00

> <Gold.PLP.Chemscore.Internal.Correction>
10.1216

> <Gold.Rescore>
     Score         DG    S(hbond)    S(metal)    S(lipo)     H(rot)  DE(clash)    DE(int)     intcor
     13.18     -15.71       1.98        0.00      69.43       1.76       0.22       2.31       ----

> <Gold.Chemscore.Fitness>
13.1810

> <Gold.Chemscore.DG>
-15.7112

> <Gold.Chemscore.ZeroCoef>
-5.4800

> <Gold.Chemscore.Hbond>
1.9788

> <Gold.Chemscore.Metal>
0.0000

> <Gold.Chemscore.Lipo>
69.4308

> <Gold.Chemscore.Internal_Hbond>
0.0000

> <Gold.Chemscore.DEClash>
0.2203

> <Gold.Chemscore.DEInternal>
2.3100

> <Gold.Chemscore.Rot>
1.7583

> <Gold.Chemscore.Internal.Correction>
   9.000000E+99

> <Gold.Chemscore.Hbonds>
donor molecule, donor type, donor heavy atom, donor atom, acceptor molecule, acceptor atom, score
      P1  H  7989  7998       L1    17  0.99
      P1  H 10752 10764       L1    15  0.97

> <Gold.Chemscore.Hbond.Weighted>
-6.6091

> <Gold.Chemscore.Metal.Weighted>
-0.0000

> <Gold.Chemscore.Lipo.Weighted>
-8.1234

> <Gold.Chemscore.Internal_Hbond.Weighted>
0.0000

> <Gold.Chemscore.DEClash.Weighted>
0.2203

> <Gold.Chemscore.DEInternal.Weighted>
2.3100

> <Gold.Chemscore.Rot.Weighted>
4.5012

> <Gold.Chemscore.Internal.Correction.Weighted>
   9.000000E+99

> <Gold.Protein.RotatedTorsions>
[ 6907 6896 6895 6894 ] final  -86.62 input  -60.11 | X-H torsion
[ 7974 7965 7964 7962 ] final   91.08 input  175.53 | X-H torsion
[ 8008 7997 7996 7995 ] final  120.93 input   59.86 | X-H torsion
[ 10167 10162 10161 10158 ] final  -22.90 input  -65.29 | X-H torsion
[ 10718 10713 10712 10709 ] final  -63.65 input   66.30 | X-H torsion
[ 10763 10752 10751 10750 ] final  -41.58 input  -60.55 | X-H torsion
[ 11005 11000 10999 10996 ] final  112.71 input  -57.11 | X-H torsion

> <Gold.Protein.ActiveResidues>
 VAL166  LYS551  ARG553  GLY616  TRP617  ASP618  TYR619  PRO620  LYS621  CYS622 
 ASP623  PHE694  ASN695  SER759  ASP760  ASP761  ALA762  ILE779  LEU786  VAL792 
 PHE793  MET794  SER795  GLU796  ALA797  LYS798  CYS799  TRP800  GLU811  SER814 

> <Gold.Protein.RotatedAtoms>
  150.6867  134.3023  159.4711 H   0  0  0  0  0  0  0  0  0  0  0  0  # atno 6907 bound_to 6896
  152.0917  134.9400  160.0581 H   0  0  0  0  0  0  0  0  0  0  0  0  # atno 6908 bound_to 6896
  152.0713  133.4073  159.4497 H   0  0  0  0  0  0  0  0  0  0  0  0  # atno 6909 bound_to 6896
  145.5104  139.2277  143.2727 H   0  0  0  0  0  0  0  0  0  0  0  0  # atno 7974 bound_to 7965
  156.2664  140.2820  156.1228 H   0  0  0  0  0  0  0  0  0  0  0  0  # atno 8008 bound_to 7997
  155.1138  140.0391  157.2749 H   0  0  0  0  0  0  0  0  0  0  0  0  # atno 8009 bound_to 7997
  154.6722  140.2590  155.7001 H   0  0  0  0  0  0  0  0  0  0  0  0  # atno 8010 bound_to 7997
  140.7287  143.4492  151.0542 H   0  0  0  0  0  0  0  0  0  0  0  0  # atno 10167 bound_to 10162
  156.0778  130.4223  150.1307 H   0  0  0  0  0  0  0  0  0  0  0  0  # atno 10718 bound_to 10713
  153.9648  135.6735  153.4746 H   0  0  0  0  0  0  0  0  0  0  0  0  # atno 10763 bound_to 10752
  153.0821  135.4918  154.8520 H   0  0  0  0  0  0  0  0  0  0  0  0  # atno 10764 bound_to 10752
  154.7252  135.3126  154.8942 H   0  0  0  0  0  0  0  0  0  0  0  0  # atno 10765 bound_to 10752
  139.8934  134.9535  156.6627 H   0  0  0  0  0  0  0  0  0  0  0  0  # atno 11005 bound_to 11000
  146.2170  140.5911  142.9034 LP  0  0  0  0  0  0  0  0  0  0  0  0  # atno 17320 bound_to 7965
  144.7730  140.5679  143.6657 LP  0  0  0  0  0  0  0  0  0  0  0  0  # atno 17321 bound_to 7965
  139.8166  143.7877  152.3174 LP  0  0  0  0  0  0  0  0  0  0  0  0  # atno 17342 bound_to 10162
  139.7945  144.7398  150.9909 LP  0  0  0  0  0  0  0  0  0  0  0  0  # atno 17343 bound_to 10162
  156.9345  130.9724  151.3527 LP  0  0  0  0  0  0  0  0  0  0  0  0  # atno 17370 bound_to 10713
  157.5881  130.8424  149.8619 LP  0  0  0  0  0  0  0  0  0  0  0  0  # atno 17371 bound_to 10713
  140.7434  133.8958  155.8294 LP  0  0  0  0  0  0  0  0  0  0  0  0  # atno 17394 bound_to 11000
  141.0059  134.1087  157.4271 LP  0  0  0  0  0  0  0  0  0  0  0  0  # atno 17395 bound_to 11000

$$$$
