AV-unprocessed.smi:3129|AV-procd|sdf|11922|dock1
  -GOLD-   2272017303D 1   1.00000     0.00000
 Structure written by MMmdl.
 40 40  0  0  0  0  0  0  0  0  2 V2000
  144.4326  134.5019  150.4656 C   0  0  0  0  0  0  0  0  0  0  0  0
  145.4116  135.3866  151.2498 C   0  0  0  0  0  0  0  0  0  0  0  0
  146.1297  134.5715  152.3395 C   0  0  0  0  0  0  0  0  0  0  0  0
  144.6910  136.6314  151.8148 C   0  0  0  0  0  0  0  0  0  0  0  0
  145.5440  137.4413  152.6797 N   0  0  0  0  0  0  0  0  0  0  0  0
  146.4931  138.2875  152.2523 C   0  0  0  0  0  0  0  0  0  0  0  0
  146.7301  138.4928  151.0613 O   0  0  0  0  0  0  0  0  0  0  0  0
  147.3094  139.0109  153.3310 C   0  0  2  0  0  0  0  0  0  0  0  0
  147.1003  140.5290  153.2250 C   0  0  0  0  0  0  0  0  0  0  0  0
  148.7447  138.6877  153.1845 N   0  3  0  0  0  0  0  0  0  0  0  0
  149.5762  138.9962  154.3692 C   0  0  0  0  0  0  0  0  0  0  0  0
  149.8184  140.5077  154.5003 C   0  0  0  0  0  0  0  0  0  0  0  0
  150.5051  140.8396  155.7365 N   0  0  0  0  0  0  0  0  0  0  0  0
  150.1763  141.7977  156.6722 C   0  0  0  0  0  0  0  0  0  0  0  0
  151.1206  141.7447  157.6568 C   0  0  0  0  0  0  0  0  0  0  0  0
  151.9926  140.7031  157.2340 C   0  0  0  0  0  0  0  0  0  0  0  0
  151.6193  140.1611  156.0864 N   0  0  0  0  0  0  0  0  0  0  0  0
  143.6437  134.1138  151.1107 H   0  0  0  0  0  0  0  0  0  0  0  0
  144.9452  133.6503  150.0172 H   0  0  0  0  0  0  0  0  0  0  0  0
  143.9579  135.0607  149.6584 H   0  0  0  0  0  0  0  0  0  0  0  0
  146.1687  135.7241  150.5417 H   0  0  0  0  0  0  0  0  0  0  0  0
  145.4288  134.2186  153.0965 H   0  0  0  0  0  0  0  0  0  0  0  0
  146.8970  135.1599  152.8425 H   0  0  0  0  0  0  0  0  0  0  0  0
  146.6246  133.6992  151.9119 H   0  0  0  0  0  0  0  0  0  0  0  0
  144.3108  137.2514  151.0010 H   0  0  0  0  0  0  0  0  0  0  0  0
  143.8217  136.3236  152.3967 H   0  0  0  0  0  0  0  0  0  0  0  0
  145.4108  137.3354  153.6751 H   0  0  0  0  0  0  0  0  0  0  0  0
  146.9795  138.6925  154.3217 H   0  0  0  0  0  0  0  0  0  0  0  0
  146.0478  140.7920  153.3388 H   0  0  0  0  0  0  0  0  0  0  0  0
  147.4377  140.9170  152.2626 H   0  0  0  0  0  0  0  0  0  0  0  0
  147.6527  141.0543  154.0047 H   0  0  0  0  0  0  0  0  0  0  0  0
  148.8093  137.6976  152.9930 H   0  0  0  0  0  0  0  0  0  0  0  0
  149.0702  138.6127  155.2555 H   0  0  0  0  0  0  0  0  0  0  0  0
  150.5352  138.4790  154.3155 H   0  0  0  0  0  0  0  0  0  0  0  0
  150.4027  140.8795  153.6575 H   0  0  0  0  0  0  0  0  0  0  0  0
  148.8676  141.0419  154.4853 H   0  0  0  0  0  0  0  0  0  0  0  0
  149.3109  142.4341  156.5596 H   0  0  0  0  0  0  0  0  0  0  0  0
  151.1793  142.3557  158.5452 H   0  0  0  0  0  0  0  0  0  0  0  0
  152.8797  140.3276  157.7222 H   0  0  0  0  0  0  0  0  0  0  0  0
  149.1208  139.1946  152.3962 H   0  0  0  0  0  0  0  0  0  0  0  0
  1  2  1  0  0  0  0
  1 18  1  0  0  0  0
  1 19  1  0  0  0  0
  1 20  1  0  0  0  0
  2  3  1  0  0  0  0
  2  4  1  0  0  0  0
  2 21  1  0  0  0  0
  3 22  1  0  0  0  0
  3 23  1  0  0  0  0
  3 24  1  0  0  0  0
  4  5  1  0  0  0  0
  4 25  1  0  0  0  0
  4 26  1  0  0  0  0
  5  6  1  0  0  0  0
  5 27  1  0  0  0  0
  6  7  2  0  0  0  0
  6  8  1  0  0  0  0
  8  9  1  0  0  0  0
  8 10  1  0  0  0  0
  8 28  1  0  0  0  0
  9 29  1  0  0  0  0
  9 30  1  0  0  0  0
  9 31  1  0  0  0  0
 10 11  1  0  0  0  0
 10 32  1  0  0  0  0
 10 40  1  0  0  0  0
 11 12  1  0  0  0  0
 11 33  1  0  0  0  0
 11 34  1  0  0  0  0
 12 13  1  0  0  0  0
 12 35  1  0  0  0  0
 12 36  1  0  0  0  0
 13 17  1  0  0  0  0
 13 14  1  0  0  0  0
 14 15  2  0  0  0  0
 14 37  1  0  0  0  0
 15 16  1  0  0  0  0
 15 38  1  0  0  0  0
 16 17  2  0  0  0  0
 16 39  1  0  0  0  0
M  CHG  1  10   1
M  END
> <s_m_source_file>
AV-unprocessed.smi

> <i_m_source_file_index>
3129

> <i_lp_mmshare_version>
43012

> <i_f3d_flags>
0

> <s_epik_input>
W0NIM11bQ0hdKFtDSDNdKVtDSDJdW05IXUMoPU8pW0NASF0oW0NIM10pW05IXVtDSDJdW0NIMl1uMVtjSF1bY0hdW2NIXW4x

> <s_epik_cmdline>
J2VwaWtfcHl0aG9uJywgJy1waCcsICc3LjAnLCAnLXRuJywgJzgnLCAnLW1hJywgJzIwMCcsICctbWV0YWxfYmluZGluZycsICctaW1hZScsICc8aW5maWxlLm1hZT4nLCAnLW9tYWUnLCAnPG91dGZpbGUubWFlPic=

> <r_lp_tautomer_probability>
1

> <r_epik_Ionization_Penalty>
0.20724

> <r_epik_Ionization_Penalty_Charging>
0.207237

> <r_epik_Ionization_Penalty_Neutral>
3.32432e-06

> <r_epik_State_Penalty>
0.197234

> <r_epik_Charging_Adjusted_Penalty>
0.404471

> <i_epik_Tot_Q>
1

> <i_epik_Tot_abs_Q>
1

> <r_epik_Metal_State_Penalty>
0.197522

> <b_epik_Metal_Only>
0

> <s_lp_Force_Field>
OPLS_2005

> <r_lp_Energy>
5.48994

> <b_lp_Chiralities_Consistent>
1

> <s_lp_Variant>
AV-unprocessed.smi:3129-1

> <Gold.Version>
5.8.1

> <Gold.Id.Protein>
6NUR|6NUR_protein|mol2

> <Gold.PLP.Fitness>
47.0399

> <Gold.PLP.PLP>
-32.6508

> <Gold.PLP.part.hbond>
-3.0000

> <Gold.PLP.part.metal>
0.0000

> <Gold.PLP.part.buried>
-0.4022

> <Gold.PLP.part.nonpolar>
-29.8232

> <Gold.PLP.part.repulsive>
0.4325

> <Gold.PLP.ligand.clash>
0.0000

> <Gold.PLP.ligand.torsion>
0.4519

> <Gold.PLP.Chemscore.Hbond>
4.0000

> <Gold.PLP.Chemscore.CHOScore>
1.0000

> <Gold.PLP.Chemscore.Metal>
0.0000

> <Gold.Chemscore.Hbonds>
donor molecule, donor type, donor heavy atom, donor atom, acceptor molecule, acceptor atom, score
      L1  H    10    32       P1  7948  2.00
      L1  H    10    40       P1  7957  1.00
      P1  H  7954  7966       L1     7  1.00
      L1  C    14    37       P1  8028  1.00

> <Gold.PLP.Chemscore.Internal.Correction>
0.2929

> <Gold.Rescore>
     Score         DG    S(hbond)    S(metal)    S(lipo)     H(rot)  DE(clash)    DE(int)     intcor
     16.60     -17.50       2.96        0.00      66.94       2.22       0.37       0.53       ----

> <Gold.Chemscore.Fitness>
16.5977

> <Gold.Chemscore.DG>
-17.4951

> <Gold.Chemscore.ZeroCoef>
-5.4800

> <Gold.Chemscore.Hbond>
2.9577

> <Gold.Chemscore.Metal>
0.0000

> <Gold.Chemscore.Lipo>
66.9400

> <Gold.Chemscore.Internal_Hbond>
0.0000

> <Gold.Chemscore.DEClash>
0.3715

> <Gold.Chemscore.DEInternal>
0.5259

> <Gold.Chemscore.Rot>
2.2249

> <Gold.Chemscore.Internal.Correction>
   9.000000E+99

> <Gold.Chemscore.Hbonds>
donor molecule, donor type, donor heavy atom, donor atom, acceptor molecule, acceptor atom, score
      L1  H    10    32       P1  7948  0.96
      L1  H    10    40       P1  7957  0.96
      P1  H  7954  7966       L1     7  0.96

> <Gold.Chemscore.Hbond.Weighted>
-9.8789

> <Gold.Chemscore.Metal.Weighted>
-0.0000

> <Gold.Chemscore.Lipo.Weighted>
-7.8320

> <Gold.Chemscore.Internal_Hbond.Weighted>
0.0000

> <Gold.Chemscore.DEClash.Weighted>
0.3715

> <Gold.Chemscore.DEInternal.Weighted>
0.5259

> <Gold.Chemscore.Rot.Weighted>
5.6957

> <Gold.Chemscore.Internal.Correction.Weighted>
   9.000000E+99

> <Gold.Protein.RotatedTorsions>
[ 6907 6896 6895 6894 ] final  -69.42 input  -60.11 | X-H torsion
[ 7974 7965 7964 7962 ] final -125.12 input  175.53 | X-H torsion
[ 8008 7997 7996 7995 ] final  -76.39 input   59.86 | X-H torsion
[ 10167 10162 10161 10158 ] final  -85.00 input  -65.29 | X-H torsion
[ 10718 10713 10712 10709 ] final   26.43 input   66.30 | X-H torsion
[ 10763 10752 10751 10750 ] final   12.96 input  -60.55 | X-H torsion
[ 11005 11000 10999 10996 ] final  -68.11 input  -57.11 | X-H torsion

> <Gold.Protein.ActiveResidues>
 VAL166  LYS551  ARG553  GLY616  TRP617  ASP618  TYR619  PRO620  LYS621  CYS622 
 ASP623  PHE694  ASN695  SER759  ASP760  ASP761  ALA762  ILE779  LEU786  VAL792 
 PHE793  MET794  SER795  GLU796  ALA797  LYS798  CYS799  TRP800  GLU811  SER814 

> <Gold.Protein.RotatedAtoms>
  150.7306  134.5599  159.5836 H   0  0  0  0  0  0  0  0  0  0  0  0  # atno 6907 bound_to 6896
  152.3065  134.7546  160.0355 H   0  0  0  0  0  0  0  0  0  0  0  0  # atno 6908 bound_to 6896
  151.8109  133.3346  159.3591 H   0  0  0  0  0  0  0  0  0  0  0  0  # atno 6909 bound_to 6896
  145.0009  140.7819  143.4497 H   0  0  0  0  0  0  0  0  0  0  0  0  # atno 7974 bound_to 7965
  154.5501  140.0728  156.8654 H   0  0  0  0  0  0  0  0  0  0  0  0  # atno 8008 bound_to 7997
  155.3010  140.3384  155.4229 H   0  0  0  0  0  0  0  0  0  0  0  0  # atno 8009 bound_to 7997
  156.1953  140.1701  156.7995 H   0  0  0  0  0  0  0  0  0  0  0  0  # atno 8010 bound_to 7997
  140.4079  143.2635  151.9056 H   0  0  0  0  0  0  0  0  0  0  0  0  # atno 10167 bound_to 10162
  157.2067  130.6915  149.6211 H   0  0  0  0  0  0  0  0  0  0  0  0  # atno 10718 bound_to 10713
  153.1769  135.6821  153.8531 H   0  0  0  0  0  0  0  0  0  0  0  0  # atno 10763 bound_to 10752
  153.7876  135.3173  155.3375 H   0  0  0  0  0  0  0  0  0  0  0  0  # atno 10764 bound_to 10752
  154.8034  135.4763  154.0427 H   0  0  0  0  0  0  0  0  0  0  0  0  # atno 10765 bound_to 10752
  141.1524  133.6733  156.6396 H   0  0  0  0  0  0  0  0  0  0  0  0  # atno 11005 bound_to 11000
  145.2155  139.2184  143.5120 LP  0  0  0  0  0  0  0  0  0  0  0  0  # atno 17320 bound_to 7965
  146.3451  140.2002  142.8589 LP  0  0  0  0  0  0  0  0  0  0  0  0  # atno 17321 bound_to 7965
  139.4783  144.5567  151.8303 LP  0  0  0  0  0  0  0  0  0  0  0  0  # atno 17342 bound_to 10162
  140.4669  144.1642  150.5913 LP  0  0  0  0  0  0  0  0  0  0  0  0  # atno 17343 bound_to 10162
  155.9695  130.4565  150.5926 LP  0  0  0  0  0  0  0  0  0  0  0  0  # atno 17370 bound_to 10713
  157.3713  131.0766  151.1555 LP  0  0  0  0  0  0  0  0  0  0  0  0  # atno 17371 bound_to 10713
  140.3404  134.7854  157.4393 LP  0  0  0  0  0  0  0  0  0  0  0  0  # atno 17394 bound_to 11000
  140.0943  134.5559  155.8414 LP  0  0  0  0  0  0  0  0  0  0  0  0  # atno 17395 bound_to 11000

$$$$
