AV-unprocessed.smi:229|AV-procd|sdf|1757|dock8
  -GOLD-   2262020283D 1   1.00000     0.00000
 Structure written by MMmdl.
 58 62  0  0  0  0  0  0  0  0  1 V2000
  149.3262  138.1428  148.2906 C   0  0  0  0  0  0  0  0  0  0  0  0
  148.9618  136.8360  149.0061 C   0  0  0  0  0  0  0  0  0  0  0  0
  148.0383  137.0530  150.2140 C   0  0  2  0  0  0  0  0  0  0  0  0
  148.7121  137.9010  151.3062 C   0  0  0  0  0  0  0  0  0  0  0  0
  147.8371  137.9942  152.4691 N   0  0  0  0  0  0  0  0  0  0  0  0
  148.1081  138.9352  153.4078 C   0  0  0  0  0  0  0  0  0  0  0  0
  147.2269  139.9465  153.6327 N   0  0  0  0  0  0  0  0  0  0  0  0
  147.4917  140.8808  154.5509 C   0  0  0  0  0  0  0  0  0  0  0  0
  148.5578  140.9920  155.3460 N   0  0  0  0  0  0  0  0  0  0  0  0
  149.4408  139.9755  155.1312 C   0  0  0  0  0  0  0  0  0  0  0  0
  149.2967  138.9165  154.1910 C   0  0  0  0  0  0  0  0  0  0  0  0
  150.3926  138.0640  154.2683 N   0  0  0  0  0  0  0  0  0  0  0  0
  151.1440  138.5933  155.1949 C   0  0  0  0  0  0  0  0  0  0  0  0
  150.6465  139.7419  155.7673 N   0  0  0  0  0  0  0  0  0  0  0  0
  151.2631  140.5300  156.8199 C   0  0  0  0  0  0  0  0  0  0  0  0
  150.5053  141.8450  157.0893 C   0  0  1  0  0  0  0  0  0  0  0  0
  149.3457  141.5672  157.8517 O   0  0  0  0  0  0  0  0  0  0  0  0
  151.3655  142.8701  157.8512 C   0  0  2  0  0  0  0  0  0  0  0  0
  151.5329  142.5745  159.3431 C   0  0  0  0  0  0  0  0  0  0  0  0
  151.7912  143.9417  159.9578 C   0  0  0  0  0  0  0  0  0  0  0  0
  151.3974  144.9271  158.8545 C   0  0  0  0  0  0  0  0  0  0  0  0
  150.7320  144.1397  157.8775 O   0  0  0  0  0  0  0  0  0  0  0  0
  147.4460  136.6910  152.9940 C   0  0  0  0  0  0  0  0  0  0  0  0
  146.8187  135.8169  151.8852 C   0  0  2  0  0  0  0  0  0  0  0  0
  145.4074  136.2610  151.4835 C   0  0  0  0  0  0  0  0  0  0  0  0
  144.4996  135.2516  152.1714 C   0  0  0  0  0  0  0  0  0  0  0  0
  145.2463  134.0546  152.0624 O   0  0  0  0  0  0  0  0  0  0  0  0
  146.5946  134.3737  152.3760 C   0  0  0  0  0  0  0  0  0  0  0  0
  147.6989  135.7760  150.7578 O   0  0  0  0  0  0  0  0  0  0  0  0
  149.9937  137.9519  147.4501 H   0  0  0  0  0  0  0  0  0  0  0  0
  149.8303  138.8345  148.9659 H   0  0  0  0  0  0  0  0  0  0  0  0
  148.4381  138.6417  147.9016 H   0  0  0  0  0  0  0  0  0  0  0  0
  148.4900  136.1527  148.2991 H   0  0  0  0  0  0  0  0  0  0  0  0
  149.8804  136.3498  149.3369 H   0  0  0  0  0  0  0  0  0  0  0  0
  147.1362  137.5630  149.8735 H   0  0  0  0  0  0  0  0  0  0  0  0
  149.6616  137.4520  151.6023 H   0  0  0  0  0  0  0  0  0  0  0  0
  148.9282  138.8968  150.9166 H   0  0  0  0  0  0  0  0  0  0  0  0
  146.7421  141.6499  154.6647 H   0  0  0  0  0  0  0  0  0  0  0  0
  152.0848  138.1535  155.4927 H   0  0  0  0  0  0  0  0  0  0  0  0
  151.3142  139.9249  157.7263 H   0  0  0  0  0  0  0  0  0  0  0  0
  152.2928  140.7390  156.5267 H   0  0  0  0  0  0  0  0  0  0  0  0
  150.1866  142.2768  156.1393 H   0  0  0  0  0  0  0  0  0  0  0  0
  149.5976  141.0532  158.6037 H   0  0  0  0  0  0  0  0  0  0  0  0
  152.3446  142.9752  157.3793 H   0  0  0  0  0  0  0  0  0  0  0  0
  150.6099  142.1611  159.7525 H   0  0  0  0  0  0  0  0  0  0  0  0
  152.3347  141.8626  159.5417 H   0  0  0  0  0  0  0  0  0  0  0  0
  151.1896  144.0823  160.8565 H   0  0  0  0  0  0  0  0  0  0  0  0
  152.8391  144.0681  160.2317 H   0  0  0  0  0  0  0  0  0  0  0  0
  150.7553  145.7298  159.2176 H   0  0  0  0  0  0  0  0  0  0  0  0
  152.2855  145.3770  158.4082 H   0  0  0  0  0  0  0  0  0  0  0  0
  148.3389  136.2030  153.3871 H   0  0  0  0  0  0  0  0  0  0  0  0
  146.7506  136.7832  153.8277 H   0  0  0  0  0  0  0  0  0  0  0  0
  145.1754  137.2905  151.7590 H   0  0  0  0  0  0  0  0  0  0  0  0
  145.2761  136.1688  150.4045 H   0  0  0  0  0  0  0  0  0  0  0  0
  144.3525  135.5050  153.2225 H   0  0  0  0  0  0  0  0  0  0  0  0
  143.5236  135.1651  151.6933 H   0  0  0  0  0  0  0  0  0  0  0  0
  147.2779  133.6591  151.9160 H   0  0  0  0  0  0  0  0  0  0  0  0
  146.7216  134.2993  153.4573 H   0  0  0  0  0  0  0  0  0  0  0  0
  1  2  1  0  0  0  0
  1 30  1  0  0  0  0
  1 31  1  0  0  0  0
  1 32  1  0  0  0  0
  2  3  1  0  0  0  0
  2 33  1  0  0  0  0
  2 34  1  0  0  0  0
  3 29  1  0  0  0  0
  3  4  1  0  0  0  0
  3 35  1  0  0  0  0
  4  5  1  0  0  0  0
  4 36  1  0  0  0  0
  4 37  1  0  0  0  0
  5  6  1  0  0  0  0
  5 23  1  0  0  0  0
  6 11  1  0  0  0  0
  6  7  2  0  0  0  0
  7  8  1  0  0  0  0
  8  9  2  0  0  0  0
  8 38  1  0  0  0  0
  9 10  1  0  0  0  0
 10 14  1  0  0  0  0
 10 11  2  0  0  0  0
 11 12  1  0  0  0  0
 12 13  2  0  0  0  0
 13 14  1  0  0  0  0
 13 39  1  0  0  0  0
 14 15  1  0  0  0  0
 15 16  1  0  0  0  0
 15 40  1  0  0  0  0
 15 41  1  0  0  0  0
 16 17  1  0  0  0  0
 16 18  1  0  0  0  0
 16 42  1  0  0  0  0
 17 43  1  0  0  0  0
 18 22  1  0  0  0  0
 18 19  1  0  0  0  0
 18 44  1  0  0  0  0
 19 20  1  0  0  0  0
 19 45  1  0  0  0  0
 19 46  1  0  0  0  0
 20 21  1  0  0  0  0
 20 47  1  0  0  0  0
 20 48  1  0  0  0  0
 21 22  1  0  0  0  0
 21 49  1  0  0  0  0
 21 50  1  0  0  0  0
 23 24  1  0  0  0  0
 23 51  1  0  0  0  0
 23 52  1  0  0  0  0
 24 28  1  0  0  0  0
 24 25  1  0  0  0  0
 24 29  1  0  0  0  0
 25 26  1  0  0  0  0
 25 53  1  0  0  0  0
 25 54  1  0  0  0  0
 26 27  1  0  0  0  0
 26 55  1  0  0  0  0
 26 56  1  0  0  0  0
 27 28  1  0  0  0  0
 28 57  1  0  0  0  0
 28 58  1  0  0  0  0
M  END
> <s_m_source_file>
AV-unprocessed.smi

> <i_m_source_file_index>
229

> <i_lp_mmshare_version>
43012

> <i_f3d_flags>
0

> <s_epik_input>
W0NIMl0xT1tDSDJdW0NIMl1bQ0BdMTJbQ0gyXU4oW0NIMl1bQ0BIXShPMilbQ0gyXVtDSDNdKWMobltjSF1uMyljKGMzNCluW2NIXW40W0NIMl1bQ0BIXShbT0hdKVtDQEBIXTVbQ0gyXVtDSDJdW0NIMl1PNQ==

> <s_epik_cmdline>
J2VwaWtfcHl0aG9uJywgJy1waCcsICc3LjAnLCAnLXRuJywgJzgnLCAnLW1hJywgJzIwMCcsICctbWV0YWxfYmluZGluZycsICctaW1hZScsICc8aW5maWxlLm1hZT4nLCAnLW9tYWUnLCAnPG91dGZpbGUubWFlPic=

> <r_lp_tautomer_probability>
1

> <r_epik_Ionization_Penalty>
0.00318402

> <r_epik_Ionization_Penalty_Charging>
0

> <r_epik_Ionization_Penalty_Neutral>
0.00318402

> <r_epik_State_Penalty>
0.00215642

> <r_epik_Charging_Adjusted_Penalty>
0.00215642

> <i_epik_Tot_Q>
0

> <i_epik_Tot_abs_Q>
0

> <r_epik_Metal_State_Penalty>
-0

> <b_epik_Metal_Only>
0

> <s_lp_Force_Field>
OPLS_2005

> <r_lp_Energy>
53.2063

> <b_lp_Chiralities_Consistent>
1

> <s_lp_Variant>
AV-unprocessed.smi:229-11

> <Gold.Version>
5.8.1

> <Gold.Id.Protein>
6NUR|6NUR_protein|mol2

> <Gold.PLP.Fitness>
41.9872

> <Gold.PLP.PLP>
-39.7518

> <Gold.PLP.part.hbond>
-1.5706

> <Gold.PLP.part.metal>
0.0000

> <Gold.PLP.part.buried>
-6.2025

> <Gold.PLP.part.nonpolar>
-32.3397

> <Gold.PLP.part.repulsive>
0.1762

> <Gold.PLP.ligand.clash>
0.0184

> <Gold.PLP.ligand.torsion>
0.5530

> <Gold.PLP.Chemscore.Hbond>
1.0000

> <Gold.PLP.Chemscore.CHOScore>
0.0000

> <Gold.PLP.Chemscore.Metal>
0.0000

> <Gold.PLP.Chemscore.Internal.Correction>
0.3596

> <Gold.Rescore>
     Score         DG    S(hbond)    S(metal)    S(lipo)     H(rot)  DE(clash)    DE(int)     intcor
     12.09     -14.26       0.95        0.00     101.66       2.46       0.15       2.02       ----

> <Gold.Chemscore.Fitness>
12.0915

> <Gold.Chemscore.DG>
-14.2586

> <Gold.Chemscore.ZeroCoef>
-5.4800

> <Gold.Chemscore.Hbond>
0.9520

> <Gold.Chemscore.Metal>
0.0000

> <Gold.Chemscore.Lipo>
101.6605

> <Gold.Chemscore.Internal_Hbond>
0.0000

> <Gold.Chemscore.DEClash>
0.1504

> <Gold.Chemscore.DEInternal>
2.0167

> <Gold.Chemscore.Rot>
2.4591

> <Gold.Chemscore.Internal.Correction>
   9.000000E+99

> <Gold.Chemscore.Hbond.Weighted>
-3.1796

> <Gold.Chemscore.Metal.Weighted>
-0.0000

> <Gold.Chemscore.Lipo.Weighted>
-11.8943

> <Gold.Chemscore.Internal_Hbond.Weighted>
0.0000

> <Gold.Chemscore.DEClash.Weighted>
0.1504

> <Gold.Chemscore.DEInternal.Weighted>
2.0167

> <Gold.Chemscore.Rot.Weighted>
6.2953

> <Gold.Chemscore.Internal.Correction.Weighted>
   9.000000E+99

> <Gold.Protein.RotatedTorsions>
[ 6907 6896 6895 6894 ] final  126.79 input  -60.11 | X-H torsion
[ 7974 7965 7964 7962 ] final -154.18 input  175.53 | X-H torsion
[ 8008 7997 7996 7995 ] final -135.31 input   59.86 | X-H torsion
[ 10167 10162 10161 10158 ] final  -50.36 input  -65.29 | X-H torsion
[ 10718 10713 10712 10709 ] final   -2.32 input   66.30 | X-H torsion
[ 10763 10752 10751 10750 ] final  -45.61 input  -60.55 | X-H torsion
[ 11005 11000 10999 10996 ] final -157.08 input  -57.11 | X-H torsion

> <Gold.Protein.ActiveResidues>
 VAL166  LYS551  ARG553  GLY616  TRP617  ASP618  TYR619  PRO620  LYS621  CYS622 
 ASP623  PHE694  ASN695  SER759  ASP760  ASP761  ALA762  ILE779  LEU786  VAL792 
 PHE793  MET794  SER795  GLU796  ALA797  LYS798  CYS799  TRP800  GLU811  SER814 

> <Gold.Protein.RotatedAtoms>
  152.3872  133.6627  159.6207 H   0  0  0  0  0  0  0  0  0  0  0  0  # atno 6907 bound_to 6896
  150.7788  133.9015  159.3351 H   0  0  0  0  0  0  0  0  0  0  0  0  # atno 6908 bound_to 6896
  151.6809  135.0963  160.0267 H   0  0  0  0  0  0  0  0  0  0  0  0  # atno 6909 bound_to 6896
  144.7702  140.4423  143.5912 H   0  0  0  0  0  0  0  0  0  0  0  0  # atno 7974 bound_to 7965
  155.3766  140.0491  157.3044 H   0  0  0  0  0  0  0  0  0  0  0  0  # atno 8008 bound_to 7997
  154.5103  140.2189  155.9132 H   0  0  0  0  0  0  0  0  0  0  0  0  # atno 8009 bound_to 7997
  156.1575  140.3123  155.8756 H   0  0  0  0  0  0  0  0  0  0  0  0  # atno 8010 bound_to 7997
  140.6641  143.2661  151.4348 H   0  0  0  0  0  0  0  0  0  0  0  0  # atno 10167 bound_to 10162
  156.7926  130.5366  149.5733 H   0  0  0  0  0  0  0  0  0  0  0  0  # atno 10718 bound_to 10713
  154.0313  135.6656  153.4781 H   0  0  0  0  0  0  0  0  0  0  0  0  # atno 10763 bound_to 10752
  153.0539  135.5068  154.7930 H   0  0  0  0  0  0  0  0  0  0  0  0  # atno 10764 bound_to 10752
  154.6876  135.3056  154.9490 H   0  0  0  0  0  0  0  0  0  0  0  0  # atno 10765 bound_to 10752
  140.6685  134.4272  157.5232 H   0  0  0  0  0  0  0  0  0  0  0  0  # atno 11005 bound_to 11000
  145.6346  139.1541  143.2949 LP  0  0  0  0  0  0  0  0  0  0  0  0  # atno 17320 bound_to 7965
  146.1843  140.6448  142.9175 LP  0  0  0  0  0  0  0  0  0  0  0  0  # atno 17321 bound_to 7965
  139.5884  144.1553  152.2058 LP  0  0  0  0  0  0  0  0  0  0  0  0  # atno 17342 bound_to 10162
  140.0900  144.5629  150.7061 LP  0  0  0  0  0  0  0  0  0  0  0  0  # atno 17343 bound_to 10162
  156.1150  130.6068  151.0106 LP  0  0  0  0  0  0  0  0  0  0  0  0  # atno 17370 bound_to 10713
  157.6593  131.0884  150.7875 LP  0  0  0  0  0  0  0  0  0  0  0  0  # atno 17371 bound_to 10713
  139.8989  134.8603  156.1982 LP  0  0  0  0  0  0  0  0  0  0  0  0  # atno 17394 bound_to 11000
  141.0410  133.6938  156.1598 LP  0  0  0  0  0  0  0  0  0  0  0  0  # atno 17395 bound_to 11000

$$$$
