AV-unprocessed.smi:2925|AV-procd|sdf|11223|dock9
  -GOLD-   2272016113D 1   1.00000     0.00000
 Structure written by MMmdl.
 44 45  0  0  0  0  0  0  0  0  1 V2000
  148.7860  135.3419  158.1467 C   0  0  0  0  0  0  0  0  0  0  0  0
  148.2463  135.1114  156.7274 C   0  0  0  0  0  0  0  0  0  0  0  0
  149.3397  135.1142  155.6398 C   0  0  1  0  0  0  0  0  0  0  0  0
  148.7259  134.9023  154.3285 N   0  0  0  0  0  0  0  0  0  0  0  0
  147.8425  133.9415  154.0224 C   0  0  0  0  0  0  0  0  0  0  0  0
  147.4313  133.1034  154.8260 O   0  0  0  0  0  0  0  0  0  0  0  0
  147.4567  134.0232  152.7370 N   0  0  0  0  0  0  0  0  0  0  0  0
  146.5318  133.1819  152.0998 C   0  0  0  0  0  0  0  0  0  0  0  0
  145.6315  133.7239  151.2383 C   0  0  0  0  0  0  0  0  0  0  0  0
  145.5749  135.2205  150.9758 C   0  0  0  0  0  0  0  0  0  0  0  0
  144.6848  132.8540  150.5711 C   0  0  0  0  0  0  0  0  0  0  0  0
  144.7207  131.5358  150.8077 C   0  0  0  0  0  0  0  0  0  0  0  0
  145.6643  130.9686  151.6762 N   0  0  0  0  0  0  0  0  0  0  0  0
  145.6343  129.5146  151.8550 C   0  0  0  0  0  0  0  0  0  0  0  0
  146.6072  131.7169  152.3178 C   0  0  0  0  0  0  0  0  0  0  0  0
  147.4705  131.1813  153.0170 O   0  0  0  0  0  0  0  0  0  0  0  0
  150.1500  136.4283  155.6415 C   0  0  2  0  0  0  0  0  0  0  0  0
  149.3808  137.6645  155.1683 C   0  0  0  0  0  0  0  0  0  0  0  0
  150.5028  138.5722  154.7218 C   0  0  0  0  0  0  0  0  0  0  0  0
  151.4680  137.5800  154.0811 C   0  0  0  0  0  0  0  0  0  0  0  0
  151.2576  136.3373  154.7474 O   0  0  0  0  0  0  0  0  0  0  0  0
  147.9695  135.3872  158.8676 H   0  0  0  0  0  0  0  0  0  0  0  0
  149.3366  136.2810  158.2092 H   0  0  0  0  0  0  0  0  0  0  0  0
  149.4550  134.5395  158.4587 H   0  0  0  0  0  0  0  0  0  0  0  0
  147.6976  134.1690  156.6987 H   0  0  0  0  0  0  0  0  0  0  0  0
  147.5168  135.8916  156.5077 H   0  0  0  0  0  0  0  0  0  0  0  0
  150.0268  134.2959  155.8631 H   0  0  0  0  0  0  0  0  0  0  0  0
  148.9979  135.5426  153.5969 H   0  0  0  0  0  0  0  0  0  0  0  0
  147.7662  134.8233  152.2056 H   0  0  0  0  0  0  0  0  0  0  0  0
  144.7764  135.4687  150.2763 H   0  0  0  0  0  0  0  0  0  0  0  0
  146.5155  135.5700  150.5493 H   0  0  0  0  0  0  0  0  0  0  0  0
  145.3907  135.7651  151.9024 H   0  0  0  0  0  0  0  0  0  0  0  0
  143.9483  133.2599  149.8932 H   0  0  0  0  0  0  0  0  0  0  0  0
  144.0393  130.8386  150.3423 H   0  0  0  0  0  0  0  0  0  0  0  0
  145.5764  129.2564  152.9135 H   0  0  0  0  0  0  0  0  0  0  0  0
  146.5374  129.0618  151.4432 H   0  0  0  0  0  0  0  0  0  0  0  0
  144.7799  129.0478  151.3639 H   0  0  0  0  0  0  0  0  0  0  0  0
  150.5470  136.6222  156.6394 H   0  0  0  0  0  0  0  0  0  0  0  0
  148.7414  137.4190  154.3190 H   0  0  0  0  0  0  0  0  0  0  0  0
  148.7596  138.1058  155.9482 H   0  0  0  0  0  0  0  0  0  0  0  0
  150.1769  139.3548  154.0362 H   0  0  0  0  0  0  0  0  0  0  0  0
  150.9679  139.0455  155.5875 H   0  0  0  0  0  0  0  0  0  0  0  0
  151.2340  137.4483  153.0241 H   0  0  0  0  0  0  0  0  0  0  0  0
  152.5062  137.9032  154.1602 H   0  0  0  0  0  0  0  0  0  0  0  0
  1  2  1  0  0  0  0
  1 22  1  0  0  0  0
  1 23  1  0  0  0  0
  1 24  1  0  0  0  0
  2  3  1  0  0  0  0
  2 25  1  0  0  0  0
  2 26  1  0  0  0  0
  3  4  1  0  0  0  0
  3 17  1  0  0  0  0
  3 27  1  0  0  0  0
  4  5  1  0  0  0  0
  4 28  1  0  0  0  0
  5  6  2  0  0  0  0
  5  7  1  0  0  0  0
  7  8  1  0  0  0  0
  7 29  1  0  0  0  0
  8 15  1  0  0  0  0
  8  9  2  0  0  0  0
  9 10  1  0  0  0  0
  9 11  1  0  0  0  0
 10 30  1  0  0  0  0
 10 31  1  0  0  0  0
 10 32  1  0  0  0  0
 11 12  2  0  0  0  0
 11 33  1  0  0  0  0
 12 13  1  0  0  0  0
 12 34  1  0  0  0  0
 13 14  1  0  0  0  0
 13 15  1  0  0  0  0
 14 35  1  0  0  0  0
 14 36  1  0  0  0  0
 14 37  1  0  0  0  0
 15 16  2  0  0  0  0
 17 21  1  0  0  0  0
 17 18  1  0  0  0  0
 17 38  1  0  0  0  0
 18 19  1  0  0  0  0
 18 39  1  0  0  0  0
 18 40  1  0  0  0  0
 19 20  1  0  0  0  0
 19 41  1  0  0  0  0
 19 42  1  0  0  0  0
 20 21  1  0  0  0  0
 20 43  1  0  0  0  0
 20 44  1  0  0  0  0
M  END
> <s_m_source_file>
AV-unprocessed.smi

> <i_m_source_file_index>
2925

> <i_lp_mmshare_version>
43012

> <i_f3d_flags>
0

> <s_epik_input>
TzFbQ0gyXVtDSDJdW0NIMl1bQ0BIXTFbQ0BIXShbQ0gyXVtDSDNdKVtOSF1DKD1PKVtOSF1jMmMoW0NIM10pW2NIXVtjSF1uKFtDSDNdKWMyPU8=

> <s_epik_cmdline>
J2VwaWtfcHl0aG9uJywgJy1waCcsICc3LjAnLCAnLXRuJywgJzgnLCAnLW1hJywgJzIwMCcsICctbWV0YWxfYmluZGluZycsICctaW1hZScsICc8aW5maWxlLm1hZT4nLCAnLW9tYWUnLCAnPG91dGZpbGUubWFlPic=

> <r_lp_tautomer_probability>
1

> <r_epik_Ionization_Penalty>
2.58789e-05

> <r_epik_Ionization_Penalty_Charging>
6.72534e-06

> <r_epik_Ionization_Penalty_Neutral>
1.91535e-05

> <r_epik_State_Penalty>
-0

> <r_epik_Charging_Adjusted_Penalty>
6.72534e-06

> <i_epik_Tot_Q>
0

> <i_epik_Tot_abs_Q>
0

> <r_epik_Metal_State_Penalty>
-0

> <b_epik_Metal_Only>
0

> <s_lp_Force_Field>
OPLS_2005

> <r_lp_Energy>
34.616

> <b_lp_Chiralities_Consistent>
1

> <s_lp_Variant>
AV-unprocessed.smi:2925-2

> <Gold.Version>
5.8.1

> <Gold.Id.Protein>
6NUR|6NUR_protein|mol2

> <Gold.PLP.Fitness>
42.1857

> <Gold.PLP.PLP>
-33.5898

> <Gold.PLP.part.hbond>
-3.0000

> <Gold.PLP.part.metal>
0.0000

> <Gold.PLP.part.buried>
-5.6852

> <Gold.PLP.part.nonpolar>
-26.5896

> <Gold.PLP.part.repulsive>
0.2903

> <Gold.PLP.ligand.clash>
0.0000

> <Gold.PLP.ligand.torsion>
0.4910

> <Gold.PLP.Chemscore.Hbond>
3.0000

> <Gold.PLP.Chemscore.CHOScore>
0.0000

> <Gold.PLP.Chemscore.Metal>
0.0000

> <Gold.Chemscore.Hbonds>
donor molecule, donor type, donor heavy atom, donor atom, acceptor molecule, acceptor atom, score
      L1  H     4    28       P1  7948  1.00
      L1  H     7    29       P1  7948  1.00
      P1  H 10752 10764       L1    21  1.00

> <Gold.PLP.Chemscore.Internal.Correction>
0.5779

> <Gold.Rescore>
     Score         DG    S(hbond)    S(metal)    S(lipo)     H(rot)  DE(clash)    DE(int)     intcor
     13.50     -18.98       2.58        0.00      71.41       1.36       0.05       5.43       ----

> <Gold.Chemscore.Fitness>
13.5014

> <Gold.Chemscore.DG>
-18.9821

> <Gold.Chemscore.ZeroCoef>
-5.4800

> <Gold.Chemscore.Hbond>
2.5817

> <Gold.Chemscore.Metal>
0.0000

> <Gold.Chemscore.Lipo>
71.4147

> <Gold.Chemscore.Internal_Hbond>
0.0000

> <Gold.Chemscore.DEClash>
0.0536

> <Gold.Chemscore.DEInternal>
5.4271

> <Gold.Chemscore.Rot>
1.3579

> <Gold.Chemscore.Internal.Correction>
   9.000000E+99

> <Gold.Chemscore.Hbonds>
donor molecule, donor type, donor heavy atom, donor atom, acceptor molecule, acceptor atom, score
      L1  H     4    28       P1  7948  0.77
      L1  H     7    29       P1  7948  0.72
      P1  H 10752 10764       L1    21  0.35

> <Gold.Chemscore.Hbond.Weighted>
-8.6228

> <Gold.Chemscore.Metal.Weighted>
-0.0000

> <Gold.Chemscore.Lipo.Weighted>
-8.3555

> <Gold.Chemscore.Internal_Hbond.Weighted>
0.0000

> <Gold.Chemscore.DEClash.Weighted>
0.0536

> <Gold.Chemscore.DEInternal.Weighted>
5.4271

> <Gold.Chemscore.Rot.Weighted>
3.4763

> <Gold.Chemscore.Internal.Correction.Weighted>
   9.000000E+99

> <Gold.Protein.RotatedTorsions>
[ 6907 6896 6895 6894 ] final   21.22 input  -60.11 | X-H torsion
[ 7974 7965 7964 7962 ] final  141.24 input  175.53 | X-H torsion
[ 8008 7997 7996 7995 ] final   94.59 input   59.86 | X-H torsion
[ 10167 10162 10161 10158 ] final  -21.31 input  -65.29 | X-H torsion
[ 10718 10713 10712 10709 ] final   -0.72 input   66.30 | X-H torsion
[ 10763 10752 10751 10750 ] final  -53.59 input  -60.55 | X-H torsion
[ 11005 11000 10999 10996 ] final  -64.03 input  -57.11 | X-H torsion

> <Gold.Protein.ActiveResidues>
 VAL166  LYS551  ARG553  GLY616  TRP617  ASP618  TYR619  PRO620  LYS621  CYS622 
 ASP623  PHE694  ASN695  SER759  ASP760  ASP761  ALA762  ILE779  LEU786  VAL792 
 PHE793  MET794  SER795  GLU796  ALA797  LYS798  CYS799  TRP800  GLU811  SER814 

> <Gold.Protein.RotatedAtoms>
  151.9085  135.0349  160.0512 H   0  0  0  0  0  0  0  0  0  0  0  0  # atno 6907 bound_to 6896
  152.2299  133.5045  159.5218 H   0  0  0  0  0  0  0  0  0  0  0  0  # atno 6908 bound_to 6896
  150.7023  134.1146  159.4055 H   0  0  0  0  0  0  0  0  0  0  0  0  # atno 6909 bound_to 6896
  144.9114  139.5288  143.5707 H   0  0  0  0  0  0  0  0  0  0  0  0  # atno 7974 bound_to 7965
  156.0596  140.3298  155.7446 H   0  0  0  0  0  0  0  0  0  0  0  0  # atno 8008 bound_to 7997
  155.5475  140.0607  157.2874 H   0  0  0  0  0  0  0  0  0  0  0  0  # atno 8009 bound_to 7997
  154.4475  140.1900  156.0641 H   0  0  0  0  0  0  0  0  0  0  0  0  # atno 8010 bound_to 7997
  140.7281  143.4640  151.0340 H   0  0  0  0  0  0  0  0  0  0  0  0  # atno 10167 bound_to 10162
  156.8163  130.5441  149.5702 H   0  0  0  0  0  0  0  0  0  0  0  0  # atno 10718 bound_to 10713
  154.1613  135.6474  153.4986 H   0  0  0  0  0  0  0  0  0  0  0  0  # atno 10763 bound_to 10752
  153.0110  135.5361  154.6708 H   0  0  0  0  0  0  0  0  0  0  0  0  # atno 10764 bound_to 10752
  154.6022  135.2945  155.0495 H   0  0  0  0  0  0  0  0  0  0  0  0  # atno 10765 bound_to 10752
  141.1412  133.6660  156.5771 H   0  0  0  0  0  0  0  0  0  0  0  0  # atno 11005 bound_to 11000
  146.3160  139.7922  142.8983 LP  0  0  0  0  0  0  0  0  0  0  0  0  # atno 17320 bound_to 7965
  145.3449  141.0295  143.3371 LP  0  0  0  0  0  0  0  0  0  0  0  0  # atno 17321 bound_to 7965
  139.8326  143.7670  152.3180 LP  0  0  0  0  0  0  0  0  0  0  0  0  # atno 17342 bound_to 10162
  139.7791  144.7450  151.0114 LP  0  0  0  0  0  0  0  0  0  0  0  0  # atno 17343 bound_to 10162
  156.1015  130.5972  150.9901 LP  0  0  0  0  0  0  0  0  0  0  0  0  # atno 17370 bound_to 10713
  157.6480  131.0901  150.8112 LP  0  0  0  0  0  0  0  0  0  0  0  0  # atno 17371 bound_to 10713
  140.3867  134.7476  157.4696 LP  0  0  0  0  0  0  0  0  0  0  0  0  # atno 17394 bound_to 11000
  140.0597  134.6014  155.8764 LP  0  0  0  0  0  0  0  0  0  0  0  0  # atno 17395 bound_to 11000

$$$$
