AV-unprocessed.smi:213|AV-procd|sdf|1636|dock9
  -GOLD-   2262019593D 1   1.00000     0.00000
 Structure written by MMmdl.
 59 62  0  0  0  0  0  0  0  0  2 V2000
  144.1924  137.3555  153.3860 C   0  0  0  0  0  0  0  0  0  0  0  0
  145.6452  137.0264  152.9935 C   0  0  1  0  0  0  0  0  0  0  0  0
  145.7388  136.3552  151.6027 C   0  0  0  0  0  0  0  0  0  0  0  0
  145.2821  134.9428  151.6147 N   0  3  0  0  0  0  0  0  0  0  0  0
  144.4570  134.6044  150.4305 C   0  0  0  0  0  0  0  0  0  0  0  0
  143.9660  133.1493  150.5128 C   0  0  0  0  0  0  0  0  0  0  0  0
  145.0817  132.2755  150.6297 O   0  0  0  0  0  0  0  0  0  0  0  0
  145.8348  132.5297  151.8091 C   0  0  0  0  0  0  0  0  0  0  0  0
  146.3875  133.9646  151.7720 C   0  0  0  0  0  0  0  0  0  0  0  0
  146.4941  138.2229  153.0713 N   0  0  0  0  0  0  0  0  0  0  0  0
  146.6479  139.0885  151.9039 C   0  0  0  0  0  0  0  0  0  0  0  0
  147.4621  138.3079  154.0273 C   0  0  0  0  0  0  0  0  0  0  0  0
  147.7715  137.2072  154.7657 N   0  0  0  0  0  0  0  0  0  0  0  0
  148.7228  137.2586  155.7023 C   0  0  0  0  0  0  0  0  0  0  0  0
  149.4785  138.2946  156.0666 N   0  0  0  0  0  0  0  0  0  0  0  0
  149.1719  139.4065  155.3404 C   0  0  0  0  0  0  0  0  0  0  0  0
  148.1898  139.5022  154.3124 C   0  0  0  0  0  0  0  0  0  0  0  0
  148.1617  140.8013  153.8154 N   0  0  0  0  0  0  0  0  0  0  0  0
  149.0768  141.4308  154.5004 C   0  0  0  0  0  0  0  0  0  0  0  0
  149.7324  140.6671  155.4380 N   0  0  0  0  0  0  0  0  0  0  0  0
  150.7855  141.1040  156.3377 C   0  0  0  0  0  0  0  0  0  0  0  0
  150.3212  142.2224  157.2917 C   0  0  1  0  0  0  0  0  0  0  0  0
  149.5181  141.6608  158.3129 O   0  0  0  0  0  0  0  0  0  0  0  0
  151.5065  142.9620  157.9397 C   0  0  2  0  0  0  0  0  0  0  0  0
  152.2051  142.1883  159.0563 C   0  0  0  0  0  0  0  0  0  0  0  0
  152.9276  143.2911  159.8022 C   0  0  0  0  0  0  0  0  0  0  0  0
  152.0196  144.5064  159.5991 C   0  0  0  0  0  0  0  0  0  0  0  0
  151.0586  144.1282  158.6171 O   0  0  0  0  0  0  0  0  0  0  0  0
  143.5866  136.4516  153.4490 H   0  0  0  0  0  0  0  0  0  0  0  0
  143.7133  138.0202  152.6669 H   0  0  0  0  0  0  0  0  0  0  0  0
  144.1532  137.8387  154.3629 H   0  0  0  0  0  0  0  0  0  0  0  0
  145.9970  136.3274  153.7513 H   0  0  0  0  0  0  0  0  0  0  0  0
  145.1302  136.9232  150.8981 H   0  0  0  0  0  0  0  0  0  0  0  0
  146.7586  136.3939  151.2168 H   0  0  0  0  0  0  0  0  0  0  0  0
  143.5997  135.2759  150.3708 H   0  0  0  0  0  0  0  0  0  0  0  0
  145.0437  134.7502  149.5219 H   0  0  0  0  0  0  0  0  0  0  0  0
  143.2900  133.0125  151.3586 H   0  0  0  0  0  0  0  0  0  0  0  0
  143.4071  132.8896  149.6135 H   0  0  0  0  0  0  0  0  0  0  0  0
  145.2142  132.3734  152.6930 H   0  0  0  0  0  0  0  0  0  0  0  0
  146.6546  131.8132  151.8653 H   0  0  0  0  0  0  0  0  0  0  0  0
  147.0909  134.0699  150.9444 H   0  0  0  0  0  0  0  0  0  0  0  0
  146.9448  134.1572  152.6882 H   0  0  0  0  0  0  0  0  0  0  0  0
  147.6990  139.2879  151.6911 H   0  0  0  0  0  0  0  0  0  0  0  0
  146.1429  140.0397  152.0733 H   0  0  0  0  0  0  0  0  0  0  0  0
  146.2181  138.6397  151.0092 H   0  0  0  0  0  0  0  0  0  0  0  0
  148.9046  136.3380  156.2370 H   0  0  0  0  0  0  0  0  0  0  0  0
  149.3005  142.4754  154.3389 H   0  0  0  0  0  0  0  0  0  0  0  0
  151.1419  140.2415  156.9028 H   0  0  0  0  0  0  0  0  0  0  0  0
  151.6253  141.4473  155.7325 H   0  0  0  0  0  0  0  0  0  0  0  0
  149.7092  142.9368  156.7392 H   0  0  0  0  0  0  0  0  0  0  0  0
  149.7629  140.7550  158.4227 H   0  0  0  0  0  0  0  0  0  0  0  0
  152.2355  143.2574  157.1826 H   0  0  0  0  0  0  0  0  0  0  0  0
  151.4705  141.7158  159.7098 H   0  0  0  0  0  0  0  0  0  0  0  0
  152.8790  141.4161  158.6844 H   0  0  0  0  0  0  0  0  0  0  0  0
  153.0873  143.0523  160.8541 H   0  0  0  0  0  0  0  0  0  0  0  0
  153.9010  143.4738  159.3454 H   0  0  0  0  0  0  0  0  0  0  0  0
  151.5048  144.7832  160.5193 H   0  0  0  0  0  0  0  0  0  0  0  0
  152.5910  145.3701  159.2574 H   0  0  0  0  0  0  0  0  0  0  0  0
  144.6783  134.8418  152.4182 H   0  0  0  0  0  0  0  0  0  0  0  0
  1  2  1  0  0  0  0
  1 29  1  0  0  0  0
  1 30  1  0  0  0  0
  1 31  1  0  0  0  0
  2  3  1  0  0  0  0
  2 10  1  0  0  0  0
  2 32  1  0  0  0  0
  3  4  1  0  0  0  0
  3 33  1  0  0  0  0
  3 34  1  0  0  0  0
  4  9  1  0  0  0  0
  4  5  1  0  0  0  0
  4 59  1  0  0  0  0
  5  6  1  0  0  0  0
  5 35  1  0  0  0  0
  5 36  1  0  0  0  0
  6  7  1  0  0  0  0
  6 37  1  0  0  0  0
  6 38  1  0  0  0  0
  7  8  1  0  0  0  0
  8  9  1  0  0  0  0
  8 39  1  0  0  0  0
  8 40  1  0  0  0  0
  9 41  1  0  0  0  0
  9 42  1  0  0  0  0
 10 11  1  0  0  0  0
 10 12  1  0  0  0  0
 11 43  1  0  0  0  0
 11 44  1  0  0  0  0
 11 45  1  0  0  0  0
 12 17  1  0  0  0  0
 12 13  2  0  0  0  0
 13 14  1  0  0  0  0
 14 15  2  0  0  0  0
 14 46  1  0  0  0  0
 15 16  1  0  0  0  0
 16 20  1  0  0  0  0
 16 17  2  0  0  0  0
 17 18  1  0  0  0  0
 18 19  2  0  0  0  0
 19 20  1  0  0  0  0
 19 47  1  0  0  0  0
 20 21  1  0  0  0  0
 21 22  1  0  0  0  0
 21 48  1  0  0  0  0
 21 49  1  0  0  0  0
 22 23  1  0  0  0  0
 22 24  1  0  0  0  0
 22 50  1  0  0  0  0
 23 51  1  0  0  0  0
 24 28  1  0  0  0  0
 24 25  1  0  0  0  0
 24 52  1  0  0  0  0
 25 26  1  0  0  0  0
 25 53  1  0  0  0  0
 25 54  1  0  0  0  0
 26 27  1  0  0  0  0
 26 55  1  0  0  0  0
 26 56  1  0  0  0  0
 27 28  1  0  0  0  0
 27 57  1  0  0  0  0
 27 58  1  0  0  0  0
M  CHG  1   4   1
M  END
> <s_m_source_file>
AV-unprocessed.smi

> <i_m_source_file_index>
213

> <i_lp_mmshare_version>
43012

> <i_f3d_flags>
0

> <s_epik_input>
W0NIMl0xW0NIMl1PW0NIMl1bQ0gyXU4xW0NIMl1bQ0BASF0oW0NIM10pTihbQ0gzXSljKG5bY0hdbjIpYyhjMjMpbltjSF1uM1tDSDJdW0NASF0oW09IXSlbQ0BASF00W0NIMl1bQ0gyXVtDSDJdTzQ=

> <s_epik_cmdline>
J2VwaWtfcHl0aG9uJywgJy1waCcsICc3LjAnLCAnLXRuJywgJzgnLCAnLW1hJywgJzIwMCcsICctbWV0YWxfYmluZGluZycsICctaW1hZScsICc8aW5maWxlLm1hZT4nLCAnLW9tYWUnLCAnPG91dGZpbGUubWFlPic=

> <r_lp_tautomer_probability>
1

> <r_epik_Ionization_Penalty>
0.399679

> <r_epik_Ionization_Penalty_Charging>
0.399433

> <r_epik_Ionization_Penalty_Neutral>
0.000246213

> <r_epik_State_Penalty>
0.286032

> <r_epik_Charging_Adjusted_Penalty>
0.685465

> <i_epik_Tot_Q>
1

> <i_epik_Tot_abs_Q>
1

> <r_epik_Metal_State_Penalty>
0.286072

> <b_epik_Metal_Only>
0

> <s_lp_Force_Field>
OPLS_2005

> <r_lp_Energy>
43.5533

> <b_lp_Chiralities_Consistent>
1

> <s_lp_Variant>
AV-unprocessed.smi:213-4

> <Gold.Version>
5.8.1

> <Gold.Id.Protein>
6NUR|6NUR_protein|mol2

> <Gold.PLP.Fitness>
46.8724

> <Gold.PLP.PLP>
-46.2984

> <Gold.PLP.part.hbond>
0.0000

> <Gold.PLP.part.metal>
0.0000

> <Gold.PLP.part.buried>
-4.3309

> <Gold.PLP.part.nonpolar>
-44.4924

> <Gold.PLP.part.repulsive>
0.7495

> <Gold.PLP.ligand.clash>
0.0000

> <Gold.PLP.ligand.torsion>
1.5815

> <Gold.PLP.Chemscore.Hbond>
0.0000

> <Gold.PLP.Chemscore.CHOScore>
1.0000

> <Gold.PLP.Chemscore.Metal>
0.0000

> <Gold.Chemscore.Hbonds>
donor molecule, donor type, donor heavy atom, donor atom, acceptor molecule, acceptor atom, score
      L1  C    19    47       P1  8028  0.78

> <Gold.PLP.Chemscore.Internal.Correction>
0.7370

> <Gold.Rescore>
     Score         DG    S(hbond)    S(metal)    S(lipo)     H(rot)  DE(clash)    DE(int)     intcor
      8.62     -11.85       0.00        0.00     116.23       2.83       0.39       2.84       ----

> <Gold.Chemscore.Fitness>
8.6175

> <Gold.Chemscore.DG>
-11.8457

> <Gold.Chemscore.ZeroCoef>
-5.4800

> <Gold.Chemscore.Hbond>
0.0000

> <Gold.Chemscore.Metal>
0.0000

> <Gold.Chemscore.Lipo>
116.2278

> <Gold.Chemscore.Internal_Hbond>
0.0000

> <Gold.Chemscore.DEClash>
0.3914

> <Gold.Chemscore.DEInternal>
2.8368

> <Gold.Chemscore.Rot>
2.8254

> <Gold.Chemscore.Internal.Correction>
   9.000000E+99

> <Gold.Chemscore.Hbond.Weighted>
-0.0000

> <Gold.Chemscore.Metal.Weighted>
-0.0000

> <Gold.Chemscore.Lipo.Weighted>
-13.5987

> <Gold.Chemscore.Internal_Hbond.Weighted>
0.0000

> <Gold.Chemscore.DEClash.Weighted>
0.3914

> <Gold.Chemscore.DEInternal.Weighted>
2.8368

> <Gold.Chemscore.Rot.Weighted>
7.2330

> <Gold.Chemscore.Internal.Correction.Weighted>
   9.000000E+99

> <Gold.Protein.RotatedTorsions>
[ 6907 6896 6895 6894 ] final  138.08 input  -60.11 | X-H torsion
[ 7974 7965 7964 7962 ] final  -73.39 input  175.53 | X-H torsion
[ 8008 7997 7996 7995 ] final  162.09 input   59.86 | X-H torsion
[ 10167 10162 10161 10158 ] final   60.25 input  -65.29 | X-H torsion
[ 10718 10713 10712 10709 ] final   81.37 input   66.30 | X-H torsion
[ 10763 10752 10751 10750 ] final -108.26 input  -60.55 | X-H torsion
[ 11005 11000 10999 10996 ] final   22.72 input  -57.11 | X-H torsion

> <Gold.Protein.ActiveResidues>
 VAL166  LYS551  ARG553  GLY616  TRP617  ASP618  TYR619  PRO620  LYS621  CYS622 
 ASP623  PHE694  ASN695  SER759  ASP760  ASP761  ALA762  ILE779  LEU786  VAL792 
 PHE793  MET794  SER795  GLU796  ALA797  LYS798  CYS799  TRP800  GLU811  SER814 

> <Gold.Protein.RotatedAtoms>
  152.2707  133.5380  159.5437 H   0  0  0  0  0  0  0  0  0  0  0  0  # atno 6907 bound_to 6896
  150.7158  134.0701  159.3870 H   0  0  0  0  0  0  0  0  0  0  0  0  # atno 6908 bound_to 6896
  151.8616  135.0522  160.0520 H   0  0  0  0  0  0  0  0  0  0  0  0  # atno 6909 bound_to 6896
  145.6527  140.9277  143.0976 H   0  0  0  0  0  0  0  0  0  0  0  0  # atno 7974 bound_to 7965
  156.2056  140.1759  156.7807 H   0  0  0  0  0  0  0  0  0  0  0  0  # atno 8008 bound_to 7997
  154.5651  140.0692  156.8909 H   0  0  0  0  0  0  0  0  0  0  0  0  # atno 8009 bound_to 7997
  155.2777  140.3347  155.4263 H   0  0  0  0  0  0  0  0  0  0  0  0  # atno 8010 bound_to 7997
  140.1676  144.4309  150.6677 H   0  0  0  0  0  0  0  0  0  0  0  0  # atno 10167 bound_to 10162
  157.6831  131.0001  150.2217 H   0  0  0  0  0  0  0  0  0  0  0  0  # atno 10718 bound_to 10713
  154.8125  135.4644  154.0554 H   0  0  0  0  0  0  0  0  0  0  0  0  # atno 10763 bound_to 10752
  153.1974  135.6864  153.8282 H   0  0  0  0  0  0  0  0  0  0  0  0  # atno 10764 bound_to 10752
  153.7778  135.3261  155.3338 H   0  0  0  0  0  0  0  0  0  0  0  0  # atno 10765 bound_to 10752
  140.3775  134.1956  155.7664 H   0  0  0  0  0  0  0  0  0  0  0  0  # atno 11005 bound_to 11000
  144.7117  139.8347  143.7412 LP  0  0  0  0  0  0  0  0  0  0  0  0  # atno 17320 bound_to 7965
  146.1190  139.4205  143.0240 LP  0  0  0  0  0  0  0  0  0  0  0  0  # atno 17321 bound_to 7965
  140.6603  143.2250  151.5872 LP  0  0  0  0  0  0  0  0  0  0  0  0  # atno 17342 bound_to 10162
  139.5352  144.2800  152.1236 LP  0  0  0  0  0  0  0  0  0  0  0  0  # atno 17343 bound_to 10162
  156.2867  130.3740  149.7881 LP  0  0  0  0  0  0  0  0  0  0  0  0  # atno 17370 bound_to 10713
  156.5553  130.8360  151.3312 LP  0  0  0  0  0  0  0  0  0  0  0  0  # atno 17371 bound_to 10713
  141.1934  133.8151  157.0799 LP  0  0  0  0  0  0  0  0  0  0  0  0  # atno 17394 bound_to 11000
  140.0504  134.9808  157.1125 LP  0  0  0  0  0  0  0  0  0  0  0  0  # atno 17395 bound_to 11000

$$$$
