AV-unprocessed.smi:377|AV-procd|sdf|2456|dock1
  -GOLD-   2262022393D 1   1.00000     0.00000
 Structure written by MMmdl.
 33 34  0  0  0  0  0  0  0  0  1 V2000
  145.3591  143.0189  154.3619 C   0  0  0  0  0  0  0  0  0  0  0  0
  146.1058  142.2372  155.4507 C   0  0  0  0  0  0  0  0  0  0  0  0
  147.5501  142.3949  155.3283 N   0  0  0  0  0  0  0  0  0  0  0  0
  148.4306  141.3888  155.2208 C   0  0  0  0  0  0  0  0  0  0  0  0
  148.1001  140.2016  155.2179 O   0  0  0  0  0  0  0  0  0  0  0  0
  149.9051  141.8033  155.0959 C   0  0  0  0  0  0  0  0  0  0  0  0
  150.7875  141.1648  156.0973 N   0  0  0  0  0  0  0  0  0  0  0  0
  151.3616  139.9040  155.7923 C   0  0  0  0  0  0  0  0  0  0  0  0
  151.1565  139.3590  154.7062 O   0  0  0  0  0  0  0  0  0  0  0  0
  152.1800  139.3134  156.8486 C   0  0  0  0  0  0  0  0  0  0  0  0
  152.7485  138.0319  156.5920 C   0  0  0  0  0  0  0  0  0  0  0  0
  153.1904  136.9804  156.3952 N   0  0  0  0  0  0  0  0  0  0  0  0
  152.3786  139.9584  158.0165 C   0  0  0  0  0  0  0  0  0  0  0  0
  151.8439  141.2012  158.2774 N   0  0  0  0  0  0  0  0  0  0  0  0
  151.9341  141.7992  159.5796 C   0  0  0  0  0  0  0  0  0  0  0  0
  152.5098  143.1929  159.7381 C   0  0  0  0  0  0  0  0  0  0  0  0
  153.2973  141.9942  160.2074 C   0  0  0  0  0  0  0  0  0  0  0  0
  150.9869  141.8160  157.3388 C   0  0  0  0  0  0  0  0  0  0  0  0
  150.4201  142.8816  157.5948 O   0  0  0  0  0  0  0  0  0  0  0  0
  144.2805  142.9231  154.4881 H   0  0  0  0  0  0  0  0  0  0  0  0
  145.6095  142.6519  153.3659 H   0  0  0  0  0  0  0  0  0  0  0  0
  145.6052  144.0804  154.4002 H   0  0  0  0  0  0  0  0  0  0  0  0
  145.8070  142.6011  156.4340 H   0  0  0  0  0  0  0  0  0  0  0  0
  145.8346  141.1810  155.4156 H   0  0  0  0  0  0  0  0  0  0  0  0
  147.9065  143.3397  155.3236 H   0  0  0  0  0  0  0  0  0  0  0  0
  150.2412  141.5808  154.0820 H   0  0  0  0  0  0  0  0  0  0  0  0
  149.9655  142.8911  155.1604 H   0  0  0  0  0  0  0  0  0  0  0  0
  152.9846  139.4871  158.7771 H   0  0  0  0  0  0  0  0  0  0  0  0
  151.1294  141.5398  160.2655 H   0  0  0  0  0  0  0  0  0  0  0  0
  152.8701  143.7059  158.8484 H   0  0  0  0  0  0  0  0  0  0  0  0
  152.0667  143.8337  160.4975 H   0  0  0  0  0  0  0  0  0  0  0  0
  153.3823  141.8383  161.2809 H   0  0  0  0  0  0  0  0  0  0  0  0
  154.1747  141.7170  159.6262 H   0  0  0  0  0  0  0  0  0  0  0  0
  1  2  1  0  0  0  0
  1 20  1  0  0  0  0
  1 21  1  0  0  0  0
  1 22  1  0  0  0  0
  2  3  1  0  0  0  0
  2 23  1  0  0  0  0
  2 24  1  0  0  0  0
  3  4  1  0  0  0  0
  3 25  1  0  0  0  0
  4  5  2  0  0  0  0
  4  6  1  0  0  0  0
  6  7  1  0  0  0  0
  6 26  1  0  0  0  0
  6 27  1  0  0  0  0
  7 18  1  0  0  0  0
  7  8  1  0  0  0  0
  8  9  2  0  0  0  0
  8 10  1  0  0  0  0
 10 11  1  0  0  0  0
 10 13  2  0  0  0  0
 11 12  3  0  0  0  0
 13 14  1  0  0  0  0
 13 28  1  0  0  0  0
 14 15  1  0  0  0  0
 14 18  1  0  0  0  0
 15 17  1  0  0  0  0
 15 16  1  0  0  0  0
 15 29  1  0  0  0  0
 16 17  1  0  0  0  0
 16 30  1  0  0  0  0
 16 31  1  0  0  0  0
 17 32  1  0  0  0  0
 17 33  1  0  0  0  0
 18 19  2  0  0  0  0
M  END
> <s_m_source_file>
AV-unprocessed.smi

> <i_m_source_file_index>
377

> <i_lp_mmshare_version>
43012

> <i_f3d_flags>
0

> <s_epik_input>
W0NIM11bQ0gyXVtOSF1DKD1PKVtDSDJdbjFjKD1PKWMoQyNOKVtjSF1uKGMxPU8pW0NIXTJbQ0gyXVtDSDJdMg==

> <s_epik_cmdline>
J2VwaWtfcHl0aG9uJywgJy1waCcsICc3LjAnLCAnLXRuJywgJzgnLCAnLW1hJywgJzIwMCcsICctbWV0YWxfYmluZGluZycsICctaW1hZScsICc8aW5maWxlLm1hZT4nLCAnLW9tYWUnLCAnPG91dGZpbGUubWFlPic=

> <r_lp_tautomer_probability>
1

> <r_epik_Ionization_Penalty>
1.81858e-08

> <r_epik_Ionization_Penalty_Charging>
8.22213e-11

> <r_epik_Ionization_Penalty_Neutral>
1.81036e-08

> <r_epik_State_Penalty>
-0

> <r_epik_Charging_Adjusted_Penalty>
8.22213e-11

> <i_epik_Tot_Q>
0

> <i_epik_Tot_abs_Q>
0

> <r_epik_Metal_State_Penalty>
-0

> <b_epik_Metal_Only>
0

> <s_lp_Force_Field>
OPLS_2005

> <r_lp_Energy>
28.0616

> <b_lp_Chiralities_Consistent>
1

> <s_lp_Variant>
AV-unprocessed.smi:377-1

> <Gold.Version>
5.8.1

> <Gold.Id.Protein>
6NUR|6NUR_protein|mol2

> <Gold.PLP.Fitness>
42.3843

> <Gold.PLP.PLP>
-35.0312

> <Gold.PLP.part.hbond>
-3.0000

> <Gold.PLP.part.metal>
0.0000

> <Gold.PLP.part.buried>
-3.8557

> <Gold.PLP.part.nonpolar>
-29.9235

> <Gold.PLP.part.repulsive>
0.6735

> <Gold.PLP.ligand.clash>
0.0000

> <Gold.PLP.ligand.torsion>
0.5479

> <Gold.PLP.Chemscore.Hbond>
2.7360

> <Gold.PLP.Chemscore.CHOScore>
0.0000

> <Gold.PLP.Chemscore.Metal>
0.0000

> <Gold.Chemscore.Hbonds>
donor molecule, donor type, donor heavy atom, donor atom, acceptor molecule, acceptor atom, score
      L1  H     3    25       P1  8028  1.00
      P1  H  7989  7998       L1     9  1.00
      P1  H 10752 10765       L1    12  0.75

> <Gold.PLP.Chemscore.Internal.Correction>
0.2408

> <Gold.Rescore>
     Score         DG    S(hbond)    S(metal)    S(lipo)     H(rot)  DE(clash)    DE(int)     intcor
     12.39     -14.57       2.06        0.00      60.41       1.89       0.63       1.55       ----

> <Gold.Chemscore.Fitness>
12.3866

> <Gold.Chemscore.DG>
-14.5719

> <Gold.Chemscore.ZeroCoef>
-5.4800

> <Gold.Chemscore.Hbond>
2.0552

> <Gold.Chemscore.Metal>
0.0000

> <Gold.Chemscore.Lipo>
60.4128

> <Gold.Chemscore.Internal_Hbond>
0.0000

> <Gold.Chemscore.DEClash>
0.6348

> <Gold.Chemscore.DEInternal>
1.5505

> <Gold.Chemscore.Rot>
1.8908

> <Gold.Chemscore.Internal.Correction>
   9.000000E+99

> <Gold.Chemscore.Hbonds>
donor molecule, donor type, donor heavy atom, donor atom, acceptor molecule, acceptor atom, score
      L1  H     3    25       P1  8028  0.55
      P1  H  7989  7998       L1     9  0.25
      P1  H 10752 10765       L1    12  0.75

> <Gold.Chemscore.Hbond.Weighted>
-6.8642

> <Gold.Chemscore.Metal.Weighted>
-0.0000

> <Gold.Chemscore.Lipo.Weighted>
-7.0683

> <Gold.Chemscore.Internal_Hbond.Weighted>
0.0000

> <Gold.Chemscore.DEClash.Weighted>
0.6348

> <Gold.Chemscore.DEInternal.Weighted>
1.5505

> <Gold.Chemscore.Rot.Weighted>
4.8406

> <Gold.Chemscore.Internal.Correction.Weighted>
   9.000000E+99

> <Gold.Protein.RotatedTorsions>
[ 6907 6896 6895 6894 ] final   55.82 input  -60.11 | X-H torsion
[ 7974 7965 7964 7962 ] final   68.15 input  175.53 | X-H torsion
[ 8008 7997 7996 7995 ] final    7.79 input   59.86 | X-H torsion
[ 10167 10162 10161 10158 ] final   64.34 input  -65.29 | X-H torsion
[ 10718 10713 10712 10709 ] final -162.24 input   66.30 | X-H torsion
[ 10763 10752 10751 10750 ] final -130.58 input  -60.55 | X-H torsion
[ 11005 11000 10999 10996 ] final  -34.03 input  -57.11 | X-H torsion

> <Gold.Protein.ActiveResidues>
 VAL166  LYS551  ARG553  GLY616  TRP617  ASP618  TYR619  PRO620  LYS621  CYS622 
 ASP623  PHE694  ASN695  SER759  ASP760  ASP761  ALA762  ILE779  LEU786  VAL792 
 PHE793  MET794  SER795  GLU796  ALA797  LYS798  CYS799  TRP800  GLU811  SER814 

> <Gold.Protein.RotatedAtoms>
  152.3576  134.6917  160.0216 H   0  0  0  0  0  0  0  0  0  0  0  0  # atno 6907 bound_to 6896
  151.7251  133.3310  159.3333 H   0  0  0  0  0  0  0  0  0  0  0  0  # atno 6908 bound_to 6896
  150.7582  134.6347  159.6250 H   0  0  0  0  0  0  0  0  0  0  0  0  # atno 6909 bound_to 6896
  145.8061  139.3007  143.1126 H   0  0  0  0  0  0  0  0  0  0  0  0  # atno 7974 bound_to 7965
  154.7584  140.2780  155.6234 H   0  0  0  0  0  0  0  0  0  0  0  0  # atno 8008 bound_to 7997
  156.2910  140.2665  156.2283 H   0  0  0  0  0  0  0  0  0  0  0  0  # atno 8009 bound_to 7997
  155.0048  140.0372  157.2365 H   0  0  0  0  0  0  0  0  0  0  0  0  # atno 8010 bound_to 7997
  140.1233  144.4711  150.6907 H   0  0  0  0  0  0  0  0  0  0  0  0  # atno 10167 bound_to 10162
  156.6076  130.8837  151.2929 H   0  0  0  0  0  0  0  0  0  0  0  0  # atno 10718 bound_to 10713
  154.8755  135.3858  154.4106 H   0  0  0  0  0  0  0  0  0  0  0  0  # atno 10763 bound_to 10752
  153.4820  135.7030  153.5938 H   0  0  0  0  0  0  0  0  0  0  0  0  # atno 10764 bound_to 10752
  153.4349  135.3870  155.2160 H   0  0  0  0  0  0  0  0  0  0  0  0  # atno 10765 bound_to 10752
  140.9683  133.7124  156.1482 H   0  0  0  0  0  0  0  0  0  0  0  0  # atno 11005 bound_to 11000
  145.9827  140.8669  143.0106 LP  0  0  0  0  0  0  0  0  0  0  0  0  # atno 17320 bound_to 7965
  144.6763  140.2102  143.7378 LP  0  0  0  0  0  0  0  0  0  0  0  0  # atno 17321 bound_to 7965
  140.6859  143.2350  151.5260 LP  0  0  0  0  0  0  0  0  0  0  0  0  # atno 17342 bound_to 10162
  139.5557  144.2281  152.1608 LP  0  0  0  0  0  0  0  0  0  0  0  0  # atno 17343 bound_to 10162
  157.7263  130.9627  150.1650 LP  0  0  0  0  0  0  0  0  0  0  0  0  # atno 17370 bound_to 10713
  156.2417  130.3691  149.8330 LP  0  0  0  0  0  0  0  0  0  0  0  0  # atno 17371 bound_to 10713
  140.7366  134.4196  157.5560 LP  0  0  0  0  0  0  0  0  0  0  0  0  # atno 17394 bound_to 11000
  139.8903  134.8809  156.2378 LP  0  0  0  0  0  0  0  0  0  0  0  0  # atno 17395 bound_to 11000

$$$$
