AV-unprocessed.smi:883|AV-procd|sdf|4038|dock3
  -GOLD-   22720 1533D 1   1.00000     0.00000
 Structure written by MMmdl.
 29 31  0  0  0  0  0  0  0  0  1 V2000
  151.3112  136.8939  154.1891 N   0  0  0  0  0  0  0  0  0  0  0  0
  151.1544  137.9124  154.7152 C   0  0  0  0  0  0  0  0  0  0  0  0
  150.9574  139.1911  155.3763 C   0  0  0  0  0  0  0  0  0  0  0  0
  151.3746  139.3885  156.7074 C   0  0  0  0  0  0  0  0  0  0  0  0
  151.1627  140.6466  157.3049 C   0  0  0  0  0  0  0  0  0  0  0  0
  150.5411  141.6637  156.5497 C   0  0  0  0  0  0  0  0  0  0  0  0
  150.3334  142.9133  157.1512 N   0  0  0  0  0  0  0  0  0  0  0  0
  150.6544  143.1440  158.5559 C   0  0  2  0  0  0  0  0  0  0  0  0
  150.3720  144.5818  159.0107 C   0  0  0  0  0  0  0  0  0  0  0  0
  151.7370  145.0146  159.5602 C   0  0  1  0  0  0  0  0  0  0  0  0
  152.1067  144.2748  160.8531 C   0  0  0  0  0  0  0  0  0  0  0  0
  152.4425  142.8788  160.3291 C   0  0  0  0  0  0  0  0  0  0  0  0
  152.1642  143.0296  158.8274 C   0  0  2  0  0  0  0  0  0  0  0  0
  152.5917  144.3685  158.6338 O   0  0  0  0  0  0  0  0  0  0  0  0
  150.1369  141.4736  155.2706 N   0  0  0  0  0  0  0  0  0  0  0  0
  150.3431  140.2659  154.7024 C   0  0  0  0  0  0  0  0  0  0  0  0
  151.8495  138.5942  157.2653 H   0  0  0  0  0  0  0  0  0  0  0  0
  151.4742  140.8237  158.3242 H   0  0  0  0  0  0  0  0  0  0  0  0
  149.8204  143.6261  156.6527 H   0  0  0  0  0  0  0  0  0  0  0  0
  150.1159  142.4191  159.1680 H   0  0  0  0  0  0  0  0  0  0  0  0
  150.0857  145.2204  158.1735 H   0  0  0  0  0  0  0  0  0  0  0  0
  149.5833  144.6371  159.7614 H   0  0  0  0  0  0  0  0  0  0  0  0
  151.8683  146.0956  159.6147 H   0  0  0  0  0  0  0  0  0  0  0  0
  152.9802  144.7262  161.3249 H   0  0  0  0  0  0  0  0  0  0  0  0
  151.2897  144.2718  161.5756 H   0  0  0  0  0  0  0  0  0  0  0  0
  153.4938  142.6481  160.5052 H   0  0  0  0  0  0  0  0  0  0  0  0
  151.8401  142.0953  160.7898 H   0  0  0  0  0  0  0  0  0  0  0  0
  152.6822  142.2922  158.2129 H   0  0  0  0  0  0  0  0  0  0  0  0
  150.0061  140.1600  153.6812 H   0  0  0  0  0  0  0  0  0  0  0  0
  1  2  3  0  0  0  0
  2  3  1  0  0  0  0
  3 16  1  0  0  0  0
  3  4  2  0  0  0  0
  4  5  1  0  0  0  0
  4 17  1  0  0  0  0
  5  6  2  0  0  0  0
  5 18  1  0  0  0  0
  6  7  1  0  0  0  0
  6 15  1  0  0  0  0
  7  8  1  0  0  0  0
  7 19  1  0  0  0  0
  8 13  1  0  0  0  0
  8  9  1  0  0  0  0
  8 20  1  0  0  0  0
  9 10  1  0  0  0  0
  9 21  1  0  0  0  0
  9 22  1  0  0  0  0
 10 14  1  0  0  0  0
 10 11  1  0  0  0  0
 10 23  1  0  0  0  0
 11 12  1  0  0  0  0
 11 24  1  0  0  0  0
 11 25  1  0  0  0  0
 12 13  1  0  0  0  0
 12 26  1  0  0  0  0
 12 27  1  0  0  0  0
 13 14  1  0  0  0  0
 13 28  1  0  0  0  0
 15 16  2  0  0  0  0
 16 29  1  0  0  0  0
M  END
> <s_m_source_file>
AV-unprocessed.smi

> <i_m_source_file_index>
883

> <i_lp_mmshare_version>
43012

> <i_f3d_flags>
0

> <s_epik_input>
TiNDYzFbY0hdW2NIXWMobltjSF0xKVtOSF1bQ0BIXShbQ0gyXVtDQEBIXTIzKVtDQEBIXShPMylbQ0gyXVtDSDJdMg==

> <s_epik_cmdline>
J2VwaWtfcHl0aG9uJywgJy1waCcsICc3LjAnLCAnLXRuJywgJzgnLCAnLW1hJywgJzIwMCcsICctbWV0YWxfYmluZGluZycsICctaW1hZScsICc8aW5maWxlLm1hZT4nLCAnLW9tYWUnLCAnPG91dGZpbGUubWFlPic=

> <r_lp_tautomer_probability>
1

> <r_epik_Ionization_Penalty>
1.50983e-05

> <r_epik_Ionization_Penalty_Charging>
0

> <r_epik_Ionization_Penalty_Neutral>
1.50983e-05

> <r_epik_State_Penalty>
-0

> <r_epik_Charging_Adjusted_Penalty>
0

> <i_epik_Tot_Q>
0

> <i_epik_Tot_abs_Q>
0

> <r_epik_Metal_State_Penalty>
-0

> <b_epik_Metal_Only>
0

> <s_lp_Force_Field>
OPLS_2005

> <r_lp_Energy>
39.3096

> <b_lp_Chiralities_Consistent>
1

> <s_lp_Variant>
AV-unprocessed.smi:883-1

> <Gold.Version>
5.8.1

> <Gold.Id.Protein>
6NUR|6NUR_protein|mol2

> <Gold.PLP.Fitness>
44.1750

> <Gold.PLP.PLP>
-35.3281

> <Gold.PLP.part.hbond>
-3.0000

> <Gold.PLP.part.metal>
0.0000

> <Gold.PLP.part.buried>
-2.6754

> <Gold.PLP.part.nonpolar>
-31.8588

> <Gold.PLP.part.repulsive>
2.1342

> <Gold.PLP.ligand.clash>
0.0041

> <Gold.PLP.ligand.torsion>
0.0192

> <Gold.PLP.Chemscore.Hbond>
2.0000

> <Gold.PLP.Chemscore.CHOScore>
0.9567

> <Gold.PLP.Chemscore.Metal>
0.0000

> <Gold.Chemscore.Hbonds>
donor molecule, donor type, donor heavy atom, donor atom, acceptor molecule, acceptor atom, score
      L1  H     7    19       P1  8028  1.00
      P1  H 10752 10765       L1     1  0.96
      L1  C    16    29       P1  7957  0.95

> <Gold.PLP.Chemscore.Internal.Correction>
0.0192

> <Gold.Rescore>
     Score         DG    S(hbond)    S(metal)    S(lipo)     H(rot)  DE(clash)    DE(int)     intcor
     19.20     -20.10       2.00        0.00      89.74       1.00       0.05       0.85       ----

> <Gold.Chemscore.Fitness>
19.1998

> <Gold.Chemscore.DG>
-20.0992

> <Gold.Chemscore.ZeroCoef>
-5.4800

> <Gold.Chemscore.Hbond>
1.9999

> <Gold.Chemscore.Metal>
0.0000

> <Gold.Chemscore.Lipo>
89.7407

> <Gold.Chemscore.Internal_Hbond>
0.0000

> <Gold.Chemscore.DEClash>
0.0526

> <Gold.Chemscore.DEInternal>
0.8467

> <Gold.Chemscore.Rot>
1.0000

> <Gold.Chemscore.Internal.Correction>
   9.000000E+99

> <Gold.Chemscore.Hbonds>
donor molecule, donor type, donor heavy atom, donor atom, acceptor molecule, acceptor atom, score
      L1  H     7    19       P1  8028  1.00
      P1  H 10752 10765       L1     1  0.91

> <Gold.Chemscore.Hbond.Weighted>
-6.6795

> <Gold.Chemscore.Metal.Weighted>
-0.0000

> <Gold.Chemscore.Lipo.Weighted>
-10.4997

> <Gold.Chemscore.Internal_Hbond.Weighted>
0.0000

> <Gold.Chemscore.DEClash.Weighted>
0.0526

> <Gold.Chemscore.DEInternal.Weighted>
0.8467

> <Gold.Chemscore.Rot.Weighted>
2.5600

> <Gold.Chemscore.Internal.Correction.Weighted>
   9.000000E+99

> <Gold.Protein.RotatedTorsions>
[ 6907 6896 6895 6894 ] final -143.18 input  -60.11 | X-H torsion
[ 7974 7965 7964 7962 ] final -156.76 input  175.53 | X-H torsion
[ 8008 7997 7996 7995 ] final  -61.16 input   59.86 | X-H torsion
[ 10167 10162 10161 10158 ] final  123.78 input  -65.29 | X-H torsion
[ 10718 10713 10712 10709 ] final  -11.01 input   66.30 | X-H torsion
[ 10763 10752 10751 10750 ] final  165.15 input  -60.55 | X-H torsion
[ 11005 11000 10999 10996 ] final  169.98 input  -57.11 | X-H torsion

> <Gold.Protein.ActiveResidues>
 VAL166  LYS551  ARG553  GLY616  TRP617  ASP618  TYR619  PRO620  LYS621  CYS622 
 ASP623  PHE694  ASN695  SER759  ASP760  ASP761  ALA762  ILE779  LEU786  VAL792 
 PHE793  MET794  SER795  GLU796  ALA797  LYS798  CYS799  TRP800  GLU811  SER814 

> <Gold.Protein.RotatedAtoms>
  151.0970  133.5272  159.2611 H   0  0  0  0  0  0  0  0  0  0  0  0  # atno 6907 bound_to 6896
  151.2117  135.0483  159.8924 H   0  0  0  0  0  0  0  0  0  0  0  0  # atno 6908 bound_to 6896
  152.5439  134.0785  159.8278 H   0  0  0  0  0  0  0  0  0  0  0  0  # atno 6909 bound_to 6896
  144.7579  140.4065  143.5999 H   0  0  0  0  0  0  0  0  0  0  0  0  # atno 7974 bound_to 7965
  154.4434  140.1024  156.6387 H   0  0  0  0  0  0  0  0  0  0  0  0  # atno 8008 bound_to 7997
  155.5525  140.3486  155.4453 H   0  0  0  0  0  0  0  0  0  0  0  0  # atno 8009 bound_to 7997
  156.0519  140.1306  157.0030 H   0  0  0  0  0  0  0  0  0  0  0  0  # atno 8010 bound_to 7997
  139.5779  144.6972  151.3604 H   0  0  0  0  0  0  0  0  0  0  0  0  # atno 10167 bound_to 10162
  156.6651  130.4993  149.6018 H   0  0  0  0  0  0  0  0  0  0  0  0  # atno 10718 bound_to 10713
  154.3197  135.2756  155.2526 H   0  0  0  0  0  0  0  0  0  0  0  0  # atno 10763 bound_to 10752
  154.4885  135.5840  153.6445 H   0  0  0  0  0  0  0  0  0  0  0  0  # atno 10764 bound_to 10752
  152.9878  135.6128  154.3380 H   0  0  0  0  0  0  0  0  0  0  0  0  # atno 10765 bound_to 10752
  140.3035  134.7575  157.3935 H   0  0  0  0  0  0  0  0  0  0  0  0  # atno 11005 bound_to 11000
  145.6718  139.1601  143.2750 LP  0  0  0  0  0  0  0  0  0  0  0  0  # atno 17320 bound_to 7965
  146.1609  140.6789  142.9278 LP  0  0  0  0  0  0  0  0  0  0  0  0  # atno 17321 bound_to 7965
  140.7060  143.7512  150.7483 LP  0  0  0  0  0  0  0  0  0  0  0  0  # atno 17342 bound_to 10162
  140.1036  143.4764  152.2411 LP  0  0  0  0  0  0  0  0  0  0  0  0  # atno 17343 bound_to 10162
  156.1981  130.6602  151.1136 LP  0  0  0  0  0  0  0  0  0  0  0  0  # atno 17370 bound_to 10713
  157.7096  131.0740  150.6547 LP  0  0  0  0  0  0  0  0  0  0  0  0  # atno 17371 bound_to 10713
  140.1088  134.5374  155.8285 LP  0  0  0  0  0  0  0  0  0  0  0  0  # atno 17394 bound_to 11000
  141.2123  133.6718  156.6649 LP  0  0  0  0  0  0  0  0  0  0  0  0  # atno 17395 bound_to 11000

$$$$
