AV-unprocessed.smi:3314|AV-procd|sdf|12738|dock5
  -GOLD-   2272019 83D 1   1.00000     0.00000
 Structure written by MMmdl.
 38 39  0  0  0  0  0  0  0  0  2 V2000
  151.6411  145.5479  159.8586 C   0  0  0  0  0  0  0  0  0  0  0  0
  151.7992  144.1686  159.2520 C   0  0  0  0  0  0  0  0  0  0  0  0
  152.7147  143.2065  159.8411 C   0  0  0  0  0  0  0  0  0  0  0  0
  152.8373  141.9870  159.2911 C   0  0  0  0  0  0  0  0  0  0  0  0
  153.7674  140.9217  159.8333 C   0  0  0  0  0  0  0  0  0  0  0  0
  152.0999  141.6341  158.1673 N   0  0  0  0  0  0  0  0  0  0  0  0
  151.2016  142.5103  157.5333 C   0  0  0  0  0  0  0  0  0  0  0  0
  150.4985  142.2360  156.4730 N   0  0  0  0  0  0  0  0  0  0  0  0
  150.5465  140.9995  155.8344 C   0  0  0  0  0  0  0  0  0  0  0  0
  151.4937  140.4596  155.2554 O   0  0  0  0  0  0  0  0  0  0  0  0
  149.1839  140.2757  155.8958 C   0  0  1  0  0  0  0  0  0  0  0  0
  148.1365  140.9335  156.8270 C   0  0  0  0  0  0  0  0  0  0  0  0
  147.6272  142.2023  156.2539 N   0  3  2  0  0  0  0  0  0  0  0  0
  146.6617  142.8827  157.1429 C   0  0  0  0  0  0  0  0  0  0  0  0
  147.0936  141.9869  154.8900 C   0  0  0  0  0  0  0  0  0  0  0  0
  148.1625  141.3420  153.9936 C   0  0  0  0  0  0  0  0  0  0  0  0
  148.6180  140.1274  154.5887 O   0  0  0  0  0  0  0  0  0  0  0  0
  151.0878  143.8215  158.1535 C   0  0  0  0  0  0  0  0  0  0  0  0
  152.2700  145.6658  160.7415 H   0  0  0  0  0  0  0  0  0  0  0  0
  150.6051  145.7156  160.1544 H   0  0  0  0  0  0  0  0  0  0  0  0
  151.9213  146.3145  159.1360 H   0  0  0  0  0  0  0  0  0  0  0  0
  153.2950  143.4689  160.7139 H   0  0  0  0  0  0  0  0  0  0  0  0
  154.7986  141.2754  159.8108 H   0  0  0  0  0  0  0  0  0  0  0  0
  153.7104  140.0027  159.2486 H   0  0  0  0  0  0  0  0  0  0  0  0
  153.5091  140.6851  160.8658 H   0  0  0  0  0  0  0  0  0  0  0  0
  149.3864  139.2726  156.2732 H   0  0  0  0  0  0  0  0  0  0  0  0
  147.3011  140.2472  156.9747 H   0  0  0  0  0  0  0  0  0  0  0  0
  148.5615  141.1162  157.8152 H   0  0  0  0  0  0  0  0  0  0  0  0
  145.7702  142.2726  157.2953 H   0  0  0  0  0  0  0  0  0  0  0  0
  146.3539  143.8381  156.7167 H   0  0  0  0  0  0  0  0  0  0  0  0
  147.1108  143.0821  158.1163 H   0  0  0  0  0  0  0  0  0  0  0  0
  146.2115  141.3462  154.9387 H   0  0  0  0  0  0  0  0  0  0  0  0
  146.7768  142.9385  154.4620 H   0  0  0  0  0  0  0  0  0  0  0  0
  147.7404  141.1136  153.0151 H   0  0  0  0  0  0  0  0  0  0  0  0
  148.9910  142.0295  153.8200 H   0  0  0  0  0  0  0  0  0  0  0  0
  150.4180  144.5633  157.7422 H   0  0  0  0  0  0  0  0  0  0  0  0
  152.2530  140.7006  157.8136 H   0  0  0  0  0  0  0  0  0  0  0  0
  148.4215  142.8198  156.1622 H   0  0  0  0  0  0  0  0  0  0  0  0
  1  2  1  0  0  0  0
  1 19  1  0  0  0  0
  1 20  1  0  0  0  0
  1 21  1  0  0  0  0
  2 18  2  0  0  0  0
  2  3  1  0  0  0  0
  3  4  2  0  0  0  0
  3 22  1  0  0  0  0
  4  5  1  0  0  0  0
  4  6  1  0  0  0  0
  5 23  1  0  0  0  0
  5 24  1  0  0  0  0
  5 25  1  0  0  0  0
  6  7  1  0  0  0  0
  6 37  1  0  0  0  0
  7  8  2  0  0  0  0
  7 18  1  0  0  0  0
  8  9  1  0  0  0  0
  9 10  2  0  0  0  0
  9 11  1  0  0  0  0
 11 17  1  0  0  0  0
 11 12  1  0  0  0  0
 11 26  1  0  0  0  0
 12 13  1  0  0  0  0
 12 27  1  0  0  0  0
 12 28  1  0  0  0  0
 13 14  1  0  0  0  0
 13 15  1  0  0  0  0
 13 38  1  0  0  0  0
 14 29  1  0  0  0  0
 14 30  1  0  0  0  0
 14 31  1  0  0  0  0
 15 16  1  0  0  0  0
 15 32  1  0  0  0  0
 15 33  1  0  0  0  0
 16 17  1  0  0  0  0
 16 34  1  0  0  0  0
 16 35  1  0  0  0  0
 18 36  1  0  0  0  0
M  CHG  1  13   1
M  END
> <s_m_source_file>
AV-unprocessed.smi

> <i_m_source_file_index>
3314

> <i_lp_mmshare_version>
43012

> <i_f3d_flags>
0

> <s_epik_input>
W0NIM11jMVtjSF1jKFtDSDNdKW5jKFtjSF0xKVtOSF1DKD1PKVtDQEBIXTJbQ0gyXU4oW0NIM10pW0NIMl1bQ0gyXU8y

> <s_epik_cmdline>
J2VwaWtfcHl0aG9uJywgJy1waCcsICc3LjAnLCAnLXRuJywgJzgnLCAnLW1hJywgJzIwMCcsICctbWV0YWxfYmluZGluZycsICctaW1hZScsICc8aW5maWxlLm1hZT4nLCAnLW9tYWUnLCAnPG91dGZpbGUubWFlPic=

> <r_epik_Ionization_Penalty>
0.519783

> <r_epik_Ionization_Penalty_Charging>
0.519783

> <r_epik_Ionization_Penalty_Neutral>
1.74183e-13

> <r_epik_State_Penalty>
2.39351

> <r_epik_Charging_Adjusted_Penalty>
2.91329

> <i_epik_Tot_Q>
1

> <i_epik_Tot_abs_Q>
1

> <r_epik_Metal_State_Penalty>
2.41924

> <b_epik_Metal_Only>
0

> <s_lp_Force_Field>
OPLS_2005

> <r_lp_Energy>
32.167

> <b_lp_Chiralities_Consistent>
1

> <s_lp_Variant>
AV-unprocessed.smi:3314-8

> <Gold.Version>
5.8.1

> <Gold.Id.Protein>
6NUR|6NUR_protein|mol2

> <Gold.PLP.Fitness>
43.3530

> <Gold.PLP.PLP>
-37.2255

> <Gold.PLP.part.hbond>
-2.0000

> <Gold.PLP.part.metal>
0.0000

> <Gold.PLP.part.buried>
-4.3726

> <Gold.PLP.part.nonpolar>
-31.1852

> <Gold.PLP.part.repulsive>
0.7683

> <Gold.PLP.ligand.clash>
0.0000

> <Gold.PLP.ligand.torsion>
0.7143

> <Gold.PLP.Chemscore.Hbond>
2.5120

> <Gold.PLP.Chemscore.CHOScore>
0.0000

> <Gold.PLP.Chemscore.Metal>
0.0000

> <Gold.Chemscore.Hbonds>
donor molecule, donor type, donor heavy atom, donor atom, acceptor molecule, acceptor atom, score
      L1  H    13    38       P1  8028  1.60
      P1  H  7989  7998       L1    10  0.88

> <Gold.PLP.Chemscore.Internal.Correction>
0.0203

> <Gold.Rescore>
     Score         DG    S(hbond)    S(metal)    S(lipo)     H(rot)  DE(clash)    DE(int)     intcor
     17.61     -18.30       1.56        0.00      86.90       1.00       0.04       0.65       ----

> <Gold.Chemscore.Fitness>
17.6084

> <Gold.Chemscore.DG>
-18.2957

> <Gold.Chemscore.ZeroCoef>
-5.4800

> <Gold.Chemscore.Hbond>
1.5593

> <Gold.Chemscore.Metal>
0.0000

> <Gold.Chemscore.Lipo>
86.9039

> <Gold.Chemscore.Internal_Hbond>
0.0000

> <Gold.Chemscore.DEClash>
0.0402

> <Gold.Chemscore.DEInternal>
0.6471

> <Gold.Chemscore.Rot>
1.0000

> <Gold.Chemscore.Internal.Correction>
   9.000000E+99

> <Gold.Chemscore.Hbonds>
donor molecule, donor type, donor heavy atom, donor atom, acceptor molecule, acceptor atom, score
      L1  H    13    38       P1  8028  0.72
      P1  H  7989  7998       L1    10  0.78

> <Gold.Chemscore.Hbond.Weighted>
-5.2079

> <Gold.Chemscore.Metal.Weighted>
-0.0000

> <Gold.Chemscore.Lipo.Weighted>
-10.1678

> <Gold.Chemscore.Internal_Hbond.Weighted>
0.0000

> <Gold.Chemscore.DEClash.Weighted>
0.0402

> <Gold.Chemscore.DEInternal.Weighted>
0.6471

> <Gold.Chemscore.Rot.Weighted>
2.5600

> <Gold.Chemscore.Internal.Correction.Weighted>
   9.000000E+99

> <Gold.Protein.RotatedTorsions>
[ 6907 6896 6895 6894 ] final  -50.33 input  -60.11 | X-H torsion
[ 7974 7965 7964 7962 ] final -137.90 input  175.53 | X-H torsion
[ 8008 7997 7996 7995 ] final   82.06 input   59.86 | X-H torsion
[ 10167 10162 10161 10158 ] final   35.35 input  -65.29 | X-H torsion
[ 10718 10713 10712 10709 ] final  -56.24 input   66.30 | X-H torsion
[ 10763 10752 10751 10750 ] final -116.47 input  -60.55 | X-H torsion
[ 11005 11000 10999 10996 ] final   -8.10 input  -57.11 | X-H torsion

> <Gold.Protein.ActiveResidues>
 VAL166  LYS551  ARG553  GLY616  TRP617  ASP618  TYR619  PRO620  LYS621  CYS622 
 ASP623  PHE694  ASN695  SER759  ASP760  ASP761  ALA762  ILE779  LEU786  VAL792 
 PHE793  MET794  SER795  GLU796  ALA797  LYS798  CYS799  TRP800  GLU811  SER814 

> <Gold.Protein.RotatedAtoms>
  150.8717  134.8092  159.7159 H   0  0  0  0  0  0  0  0  0  0  0  0  # atno 6907 bound_to 6896
  152.4719  134.4936  159.9712 H   0  0  0  0  0  0  0  0  0  0  0  0  # atno 6908 bound_to 6896
  151.5023  133.3463  159.2906 H   0  0  0  0  0  0  0  0  0  0  0  0  # atno 6909 bound_to 6896
  144.8803  140.6498  143.5210 H   0  0  0  0  0  0  0  0  0  0  0  0  # atno 7974 bound_to 7965
  155.9056  140.3430  155.6059 H   0  0  0  0  0  0  0  0  0  0  0  0  # atno 8008 bound_to 7997
  155.7449  140.0812  157.2247 H   0  0  0  0  0  0  0  0  0  0  0  0  # atno 8009 bound_to 7997
  154.4049  140.1564  156.2645 H   0  0  0  0  0  0  0  0  0  0  0  0  # atno 8010 bound_to 7997
  140.4230  144.1433  150.6150 H   0  0  0  0  0  0  0  0  0  0  0  0  # atno 10167 bound_to 10162
  156.1304  130.4160  150.0279 H   0  0  0  0  0  0  0  0  0  0  0  0  # atno 10718 bound_to 10713
  154.8520  135.4344  154.1827 H   0  0  0  0  0  0  0  0  0  0  0  0  # atno 10763 bound_to 10752
  153.2914  135.6962  153.7296 H   0  0  0  0  0  0  0  0  0  0  0  0  # atno 10764 bound_to 10752
  153.6461  135.3459  155.3061 H   0  0  0  0  0  0  0  0  0  0  0  0  # atno 10765 bound_to 10752
  140.7198  133.8838  155.8812 H   0  0  0  0  0  0  0  0  0  0  0  0  # atno 11005 bound_to 11000
  145.3966  139.1606  143.4200 LP  0  0  0  0  0  0  0  0  0  0  0  0  # atno 17320 bound_to 7965
  146.2990  140.4060  142.8711 LP  0  0  0  0  0  0  0  0  0  0  0  0  # atno 17321 bound_to 7965
  140.4513  143.2486  151.9344 LP  0  0  0  0  0  0  0  0  0  0  0  0  # atno 17342 bound_to 10162
  139.4783  144.5560  151.8313 LP  0  0  0  0  0  0  0  0  0  0  0  0  # atno 17343 bound_to 10162
  156.8193  130.9353  151.3642 LP  0  0  0  0  0  0  0  0  0  0  0  0  # atno 17370 bound_to 10713
  157.6482  130.8862  149.9581 LP  0  0  0  0  0  0  0  0  0  0  0  0  # atno 17371 bound_to 10713
  141.0013  134.1146  157.4314 LP  0  0  0  0  0  0  0  0  0  0  0  0  # atno 17394 bound_to 11000
  139.8851  135.0069  156.6411 LP  0  0  0  0  0  0  0  0  0  0  0  0  # atno 17395 bound_to 11000

$$$$
