AV-unprocessed.smi:694|AV-procd|sdf|3376|dock1
  -GOLD-   22720 0353D 1   1.00000     0.00000
 Structure written by MMmdl.
 43 44  0  0  0  0  0  0  0  0  2 V2000
  151.5638  144.1789  157.9289 C   0  0  0  0  0  0  0  0  0  0  0  0
  151.2579  143.9852  159.3420 N   0  0  0  0  0  0  0  0  0  0  0  0
  150.0968  144.6348  159.9362 C   0  0  0  0  0  0  0  0  0  0  0  0
  152.1744  143.2979  160.1674 C   0  0  0  0  0  0  0  0  0  0  0  0
  153.1763  142.4334  159.6631 C   0  0  0  0  0  0  0  0  0  0  0  0
  154.0509  141.7786  160.5544 C   0  0  0  0  0  0  0  0  0  0  0  0
  153.9285  141.9870  161.9442 C   0  0  0  0  0  0  0  0  0  0  0  0
  154.8306  141.2870  162.7936 N   0  0  0  0  0  0  0  0  0  0  0  0
  155.4168  140.0898  162.6136 C   0  0  0  0  0  0  0  0  0  0  0  0
  155.2135  139.3282  161.6691 O   0  0  0  0  0  0  0  0  0  0  0  0
  156.2665  139.8129  163.6127 N   0  0  0  0  0  0  0  0  0  0  0  0
  157.0760  138.6025  163.7125 C   0  0  0  0  0  0  0  0  0  0  0  0
  156.2109  137.3323  163.8369 C   0  0  2  0  0  0  0  0  0  0  0  0
  155.8612  136.6793  162.4890 C   0  0  0  0  0  0  0  0  0  0  0  0
  154.4821  136.0223  162.6639 C   0  0  0  0  0  0  0  0  0  0  0  0
  154.0208  136.3575  164.0860 C   0  0  0  0  0  0  0  0  0  0  0  0
  154.8457  137.5801  164.4878 C   0  0  1  0  0  0  0  0  0  0  0  0
  154.9352  137.6998  165.8926 O   0  0  0  0  0  0  0  0  0  0  0  0
  152.9127  142.8623  162.3984 C   0  0  0  0  0  0  0  0  0  0  0  0
  152.0961  143.4686  161.5096 N   0  3  0  0  0  0  0  0  0  0  0  0
  151.6779  143.2178  157.4265 H   0  0  0  0  0  0  0  0  0  0  0  0
  152.4883  144.7450  157.8111 H   0  0  0  0  0  0  0  0  0  0  0  0
  150.7693  144.7266  157.4215 H   0  0  0  0  0  0  0  0  0  0  0  0
  150.4066  145.3658  160.6836 H   0  0  0  0  0  0  0  0  0  0  0  0
  149.4486  143.8991  160.4134 H   0  0  0  0  0  0  0  0  0  0  0  0
  149.5065  145.1579  159.1835 H   0  0  0  0  0  0  0  0  0  0  0  0
  153.2897  142.2589  158.6036 H   0  0  0  0  0  0  0  0  0  0  0  0
  154.8115  141.1169  160.1661 H   0  0  0  0  0  0  0  0  0  0  0  0
  155.0783  141.7699  163.6448 H   0  0  0  0  0  0  0  0  0  0  0  0
  156.3714  140.4910  164.3533 H   0  0  0  0  0  0  0  0  0  0  0  0
  157.7392  138.5265  162.8492 H   0  0  0  0  0  0  0  0  0  0  0  0
  157.7226  138.7011  164.5850 H   0  0  0  0  0  0  0  0  0  0  0  0
  156.7432  136.5915  164.4369 H   0  0  0  0  0  0  0  0  0  0  0  0
  155.8025  137.4334  161.7031 H   0  0  0  0  0  0  0  0  0  0  0  0
  156.6209  135.9573  162.1873 H   0  0  0  0  0  0  0  0  0  0  0  0
  153.7827  136.4309  161.9336 H   0  0  0  0  0  0  0  0  0  0  0  0
  154.5227  134.9439  162.5071 H   0  0  0  0  0  0  0  0  0  0  0  0
  152.9469  136.5374  164.1484 H   0  0  0  0  0  0  0  0  0  0  0  0
  154.2526  135.5181  164.7438 H   0  0  0  0  0  0  0  0  0  0  0  0
  154.3891  138.4810  164.0749 H   0  0  0  0  0  0  0  0  0  0  0  0
  155.8398  137.8421  166.1259 H   0  0  0  0  0  0  0  0  0  0  0  0
  152.7051  143.1043  163.4291 H   0  0  0  0  0  0  0  0  0  0  0  0
  151.3739  144.0907  161.8726 H   0  0  0  0  0  0  0  0  0  0  0  0
  1  2  1  0  0  0  0
  1 21  1  0  0  0  0
  1 22  1  0  0  0  0
  1 23  1  0  0  0  0
  2  3  1  0  0  0  0
  2  4  1  0  0  0  0
  3 24  1  0  0  0  0
  3 25  1  0  0  0  0
  3 26  1  0  0  0  0
  4 20  1  0  0  0  0
  4  5  2  0  0  0  0
  5  6  1  0  0  0  0
  5 27  1  0  0  0  0
  6  7  2  0  0  0  0
  6 28  1  0  0  0  0
  7  8  1  0  0  0  0
  7 19  1  0  0  0  0
  8  9  1  0  0  0  0
  8 29  1  0  0  0  0
  9 10  2  0  0  0  0
  9 11  1  0  0  0  0
 11 12  1  0  0  0  0
 11 30  1  0  0  0  0
 12 13  1  0  0  0  0
 12 31  1  0  0  0  0
 12 32  1  0  0  0  0
 13 17  1  0  0  0  0
 13 14  1  0  0  0  0
 13 33  1  0  0  0  0
 14 15  1  0  0  0  0
 14 34  1  0  0  0  0
 14 35  1  0  0  0  0
 15 16  1  0  0  0  0
 15 36  1  0  0  0  0
 15 37  1  0  0  0  0
 16 17  1  0  0  0  0
 16 38  1  0  0  0  0
 16 39  1  0  0  0  0
 17 18  1  0  0  0  0
 17 40  1  0  0  0  0
 18 41  1  0  0  0  0
 19 20  2  0  0  0  0
 19 42  1  0  0  0  0
 20 43  1  0  0  0  0
M  CHG  1  20   1
M  END
> <s_m_source_file>
AV-unprocessed.smi

> <i_m_source_file_index>
694

> <i_lp_mmshare_version>
43012

> <i_f3d_flags>
0

> <s_epik_input>
W0NIM11OKFtDSDNdKWMxW2NIXVtjSF1jKFtjSF1uMSlbTkhdQyg9TylbTkhdW0NIMl1bQ0BASF0yW0NIMl1bQ0gyXVtDSDJdW0NASF0yW09IXQ==

> <s_epik_cmdline>
J2VwaWtfcHl0aG9uJywgJy1waCcsICc3LjAnLCAnLXRuJywgJzgnLCAnLW1hJywgJzIwMCcsICctbWV0YWxfYmluZGluZycsICctaW1hZScsICc8aW5maWxlLm1hZT4nLCAnLW9tYWUnLCAnPG91dGZpbGUubWFlPic=

> <r_lp_tautomer_probability>
0.999994

> <r_epik_Ionization_Penalty>
0.266135

> <r_epik_Ionization_Penalty_Charging>
0.266113

> <r_epik_Ionization_Penalty_Neutral>
2.14137e-05

> <r_epik_State_Penalty>
0.258052

> <r_epik_Charging_Adjusted_Penalty>
0.524165

> <i_epik_Tot_Q>
1

> <i_epik_Tot_abs_Q>
1

> <r_epik_Metal_State_Penalty>
0.544313

> <b_epik_Metal_Only>
0

> <s_lp_Force_Field>
OPLS_2005

> <r_lp_Energy>
32.5934

> <b_lp_Chiralities_Consistent>
1

> <s_lp_Variant>
AV-unprocessed.smi:694-1

> <Gold.Version>
5.8.1

> <Gold.Id.Protein>
6NUR|6NUR_protein|mol2

> <Gold.PLP.Fitness>
42.9182

> <Gold.PLP.PLP>
-44.3364

> <Gold.PLP.part.hbond>
-3.2133

> <Gold.PLP.part.metal>
0.0000

> <Gold.PLP.part.buried>
-3.8256

> <Gold.PLP.part.nonpolar>
-37.3028

> <Gold.PLP.part.repulsive>
0.0762

> <Gold.PLP.ligand.clash>
0.0000

> <Gold.PLP.ligand.torsion>
0.7214

> <Gold.PLP.Chemscore.Hbond>
0.0000

> <Gold.PLP.Chemscore.CHOScore>
0.0000

> <Gold.PLP.Chemscore.Metal>
0.0000

> <Gold.PLP.Chemscore.Internal.Correction>
0.0247

> <Gold.Rescore>
     Score         DG    S(hbond)    S(metal)    S(lipo)     H(rot)  DE(clash)    DE(int)     intcor
      7.60     -13.11       0.00        0.00     103.48       1.75       2.34       3.17       ----

> <Gold.Chemscore.Fitness>
7.6002

> <Gold.Chemscore.DG>
-13.1105

> <Gold.Chemscore.ZeroCoef>
-5.4800

> <Gold.Chemscore.Hbond>
0.0000

> <Gold.Chemscore.Metal>
0.0000

> <Gold.Chemscore.Lipo>
103.4761

> <Gold.Chemscore.Internal_Hbond>
0.0000

> <Gold.Chemscore.DEClash>
2.3413

> <Gold.Chemscore.DEInternal>
3.1691

> <Gold.Chemscore.Rot>
1.7485

> <Gold.Chemscore.Internal.Correction>
   9.000000E+99

> <Gold.Chemscore.Hbond.Weighted>
-0.0000

> <Gold.Chemscore.Metal.Weighted>
-0.0000

> <Gold.Chemscore.Lipo.Weighted>
-12.1067

> <Gold.Chemscore.Internal_Hbond.Weighted>
0.0000

> <Gold.Chemscore.DEClash.Weighted>
2.3413

> <Gold.Chemscore.DEInternal.Weighted>
3.1691

> <Gold.Chemscore.Rot.Weighted>
4.4762

> <Gold.Chemscore.Internal.Correction.Weighted>
   9.000000E+99

> <Gold.Protein.RotatedTorsions>
[ 6907 6896 6895 6894 ] final -136.40 input  -60.11 | X-H torsion
[ 7974 7965 7964 7962 ] final  -55.47 input  175.53 | X-H torsion
[ 8008 7997 7996 7995 ] final  177.62 input   59.86 | X-H torsion
[ 10167 10162 10161 10158 ] final  -85.14 input  -65.29 | X-H torsion
[ 10718 10713 10712 10709 ] final  -75.92 input   66.30 | X-H torsion
[ 10763 10752 10751 10750 ] final  -97.38 input  -60.55 | X-H torsion
[ 11005 11000 10999 10996 ] final  -35.92 input  -57.11 | X-H torsion

> <Gold.Protein.ActiveResidues>
 VAL166  LYS551  ARG553  GLY616  TRP617  ASP618  TYR619  PRO620  LYS621  CYS622 
 ASP623  PHE694  ASN695  SER759  ASP760  ASP761  ALA762  ILE779  LEU786  VAL792 
 PHE793  MET794  SER795  GLU796  ALA797  LYS798  CYS799  TRP800  GLU811  SER814 

> <Gold.Protein.RotatedAtoms>
  151.0096  133.5978  159.2684 H   0  0  0  0  0  0  0  0  0  0  0  0  # atno 6907 bound_to 6896
  151.3134  135.0799  159.9290 H   0  0  0  0  0  0  0  0  0  0  0  0  # atno 6908 bound_to 6896
  152.5296  133.9756  159.7837 H   0  0  0  0  0  0  0  0  0  0  0  0  # atno 6909 bound_to 6896
  145.8738  140.8196  142.9874 H   0  0  0  0  0  0  0  0  0  0  0  0  # atno 7974 bound_to 7965
  156.0637  140.1354  156.9911 H   0  0  0  0  0  0  0  0  0  0  0  0  # atno 8008 bound_to 7997
  154.4495  140.0986  156.6626 H   0  0  0  0  0  0  0  0  0  0  0  0  # atno 8009 bound_to 7997
  155.5337  140.3459  155.4434 H   0  0  0  0  0  0  0  0  0  0  0  0  # atno 8010 bound_to 7997
  140.4066  143.2640  151.9073 H   0  0  0  0  0  0  0  0  0  0  0  0  # atno 10167 bound_to 10162
  156.0191  130.4453  150.3116 H   0  0  0  0  0  0  0  0  0  0  0  0  # atno 10718 bound_to 10713
  154.7323  135.5048  153.8984 H   0  0  0  0  0  0  0  0  0  0  0  0  # atno 10763 bound_to 10752
  153.0962  135.6673  153.9768 H   0  0  0  0  0  0  0  0  0  0  0  0  # atno 10764 bound_to 10752
  153.9566  135.3052  155.3415 H   0  0  0  0  0  0  0  0  0  0  0  0  # atno 10765 bound_to 10752
  140.9834  133.7044  156.1723 H   0  0  0  0  0  0  0  0  0  0  0  0  # atno 11005 bound_to 11000
  144.6726  140.1280  143.7445 LP  0  0  0  0  0  0  0  0  0  0  0  0  # atno 17320 bound_to 7965
  145.9105  139.2484  143.1440 LP  0  0  0  0  0  0  0  0  0  0  0  0  # atno 17321 bound_to 7965
  139.4783  144.5580  151.8284 LP  0  0  0  0  0  0  0  0  0  0  0  0  # atno 17342 bound_to 10162
  140.4683  144.1624  150.5914 LP  0  0  0  0  0  0  0  0  0  0  0  0  # atno 17343 bound_to 10162
  157.1217  131.0248  151.3006 LP  0  0  0  0  0  0  0  0  0  0  0  0  # atno 17370 bound_to 10713
  157.4622  130.7660  149.7246 LP  0  0  0  0  0  0  0  0  0  0  0  0  # atno 17371 bound_to 10713
  140.7151  134.4419  157.5579 LP  0  0  0  0  0  0  0  0  0  0  0  0  # atno 17394 bound_to 11000
  139.8960  134.8670  156.2107 LP  0  0  0  0  0  0  0  0  0  0  0  0  # atno 17395 bound_to 11000

$$$$
