AV-unprocessed.smi:1619|AV-procd|sdf|6489|dock2
  -GOLD-   22720 7153D 1   1.00000     0.00000
 Structure written by MMmdl.
 45 47  0  0  0  0  0  0  0  0  3 V2000
  152.4159  143.5214  161.1390 C   0  0  0  0  0  0  0  0  0  0  0  0
  152.2238  142.6645  159.8990 C   0  0  0  0  0  0  0  0  0  0  0  0
  151.3400  143.1204  158.8947 C   0  0  0  0  0  0  0  0  0  0  0  0
  151.1882  142.3168  157.7709 C   0  0  0  0  0  0  0  0  0  0  0  0
  150.4079  142.4831  156.6247 N   0  3  0  0  0  0  0  0  0  0  0  0
  150.5914  141.4212  155.7917 C   0  0  0  0  0  0  0  0  0  0  0  0
  151.4797  140.5802  156.3887 N   0  0  0  0  0  0  0  0  0  0  0  0
  152.0257  139.2963  155.9277 C   0  0  0  0  0  0  0  0  0  0  0  0
  150.9329  138.3048  155.4811 C   0  0  2  0  0  0  0  0  0  0  0  0
  151.5257  137.0472  155.2179 O   0  0  0  0  0  0  0  0  0  0  0  0
  150.2001  138.7905  154.2153 C   0  0  0  0  0  0  0  0  0  0  0  0
  148.8811  138.1368  154.0332 N   0  3  0  0  0  0  0  0  0  0  0  0
  148.3006  137.5263  155.2464 C   0  0  0  0  0  0  0  0  0  0  0  0
  146.8017  137.3824  154.9632 C   0  0  0  0  0  0  0  0  0  0  0  0
  146.5096  138.3283  153.7920 C   0  0  0  0  0  0  0  0  0  0  0  0
  147.8374  139.0283  153.4950 C   0  0  0  0  0  0  0  0  0  0  0  0
  151.8771  141.0970  157.6265 C   0  0  0  0  0  0  0  0  0  0  0  0
  152.7496  140.6314  158.6071 C   0  0  0  0  0  0  0  0  0  0  0  0
  152.9200  141.4361  159.7564 C   0  0  0  0  0  0  0  0  0  0  0  0
  153.8696  140.9574  160.8416 C   0  0  0  0  0  0  0  0  0  0  0  0
  151.7844  144.4101  161.1114 H   0  0  0  0  0  0  0  0  0  0  0  0
  153.4522  143.8507  161.2188 H   0  0  0  0  0  0  0  0  0  0  0  0
  152.1602  142.9603  162.0381 H   0  0  0  0  0  0  0  0  0  0  0  0
  150.8067  144.0544  158.9963 H   0  0  0  0  0  0  0  0  0  0  0  0
  150.1200  141.2759  154.8303 H   0  0  0  0  0  0  0  0  0  0  0  0
  152.7287  139.4947  155.1175 H   0  0  0  0  0  0  0  0  0  0  0  0
  152.6096  138.8752  156.7474 H   0  0  0  0  0  0  0  0  0  0  0  0
  150.2198  138.1799  156.2959 H   0  0  0  0  0  0  0  0  0  0  0  0
  150.9126  136.3670  155.4529 H   0  0  0  0  0  0  0  0  0  0  0  0
  150.0604  139.8721  154.2522 H   0  0  0  0  0  0  0  0  0  0  0  0
  150.8193  138.5901  153.3393 H   0  0  0  0  0  0  0  0  0  0  0  0
  148.7667  136.5694  155.4832 H   0  0  0  0  0  0  0  0  0  0  0  0
  148.4472  138.1928  156.0982 H   0  0  0  0  0  0  0  0  0  0  0  0
  146.5634  136.3566  154.6794 H   0  0  0  0  0  0  0  0  0  0  0  0
  146.2071  137.6257  155.8444 H   0  0  0  0  0  0  0  0  0  0  0  0
  146.1871  137.7514  152.9244 H   0  0  0  0  0  0  0  0  0  0  0  0
  145.7196  139.0434  154.0240 H   0  0  0  0  0  0  0  0  0  0  0  0
  147.8713  139.9846  154.0198 H   0  0  0  0  0  0  0  0  0  0  0  0
  147.9795  139.2219  152.4311 H   0  0  0  0  0  0  0  0  0  0  0  0
  153.2783  139.6961  158.4992 H   0  0  0  0  0  0  0  0  0  0  0  0
  154.3420  140.0128  160.5709 H   0  0  0  0  0  0  0  0  0  0  0  0
  153.3343  140.8052  161.7789 H   0  0  0  0  0  0  0  0  0  0  0  0
  154.6603  141.6891  161.0085 H   0  0  0  0  0  0  0  0  0  0  0  0
  148.9979  137.3943  153.3580 H   0  0  0  0  0  0  0  0  0  0  0  0
  149.7952  143.2631  156.4231 H   0  0  0  0  0  0  0  0  0  0  0  0
  1  2  1  0  0  0  0
  1 21  1  0  0  0  0
  1 22  1  0  0  0  0
  1 23  1  0  0  0  0
  2 19  1  0  0  0  0
  2  3  2  0  0  0  0
  3  4  1  0  0  0  0
  3 24  1  0  0  0  0
  4 17  2  0  0  0  0
  4  5  1  0  0  0  0
  5  6  2  0  0  0  0
  5 45  1  0  0  0  0
  6  7  1  0  0  0  0
  6 25  1  0  0  0  0
  7  8  1  0  0  0  0
  7 17  1  0  0  0  0
  8  9  1  0  0  0  0
  8 26  1  0  0  0  0
  8 27  1  0  0  0  0
  9 10  1  0  0  0  0
  9 11  1  0  0  0  0
  9 28  1  0  0  0  0
 10 29  1  0  0  0  0
 11 12  1  0  0  0  0
 11 30  1  0  0  0  0
 11 31  1  0  0  0  0
 12 16  1  0  0  0  0
 12 13  1  0  0  0  0
 12 44  1  0  0  0  0
 13 14  1  0  0  0  0
 13 32  1  0  0  0  0
 13 33  1  0  0  0  0
 14 15  1  0  0  0  0
 14 34  1  0  0  0  0
 14 35  1  0  0  0  0
 15 16  1  0  0  0  0
 15 36  1  0  0  0  0
 15 37  1  0  0  0  0
 16 38  1  0  0  0  0
 16 39  1  0  0  0  0
 17 18  1  0  0  0  0
 18 19  2  0  0  0  0
 18 40  1  0  0  0  0
 19 20  1  0  0  0  0
 20 41  1  0  0  0  0
 20 42  1  0  0  0  0
 20 43  1  0  0  0  0
M  CHG  1   5   1
M  CHG  1  12   1
M  END
> <s_m_source_file>
AV-unprocessed.smi

> <i_m_source_file_index>
1619

> <i_lp_mmshare_version>
43012

> <i_f3d_flags>
0

> <s_epik_input>
W0NIM11jKFtjSF0xKWMoW0NIM10pW2NIXWMoYzEyKW4oW2NIXW4yKVtDSDJdW0NASF0oW09IXSlbQ0gyXU4zW0NIMl1bQ0gyXVtDSDJdW0NIMl0z

> <s_epik_cmdline>
J2VwaWtfcHl0aG9uJywgJy1waCcsICc3LjAnLCAnLXRuJywgJzgnLCAnLW1hJywgJzIwMCcsICctbWV0YWxfYmluZGluZycsICctaW1hZScsICc8aW5maWxlLm1hZT4nLCAnLW9tYWUnLCAnPG91dGZpbGUubWFlPic=

> <r_epik_Ionization_Penalty>
1.18067

> <r_epik_Ionization_Penalty_Charging>
1.18067

> <r_epik_Ionization_Penalty_Neutral>
1.08888e-06

> <r_epik_State_Penalty>
1.26407

> <r_epik_Charging_Adjusted_Penalty>
2.44473

> <i_epik_Tot_Q>
2

> <i_epik_Tot_abs_Q>
2

> <r_epik_Metal_State_Penalty>
5.27628

> <b_epik_Metal_Only>
0

> <s_lp_Force_Field>
OPLS_2005

> <r_lp_Energy>
41.212

> <b_lp_Chiralities_Consistent>
1

> <s_lp_Variant>
AV-unprocessed.smi:1619-3

> <Gold.Version>
5.8.1

> <Gold.Id.Protein>
6NUR|6NUR_protein|mol2

> <Gold.PLP.Fitness>
51.6526

> <Gold.PLP.PLP>
-39.7886

> <Gold.PLP.part.hbond>
-2.9801

> <Gold.PLP.part.metal>
0.0000

> <Gold.PLP.part.buried>
-4.5747

> <Gold.PLP.part.nonpolar>
-32.1213

> <Gold.PLP.part.repulsive>
0.0680

> <Gold.PLP.ligand.clash>
0.0000

> <Gold.PLP.ligand.torsion>
0.8190

> <Gold.PLP.Chemscore.Hbond>
4.4875

> <Gold.PLP.Chemscore.CHOScore>
0.0000

> <Gold.PLP.Chemscore.Metal>
0.0000

> <Gold.Chemscore.Hbonds>
donor molecule, donor type, donor heavy atom, donor atom, acceptor molecule, acceptor atom, score
      L1  H     5    45       P1  8028  2.00
      L1  H    12    44       P1  7948  2.00
      P1  H 10752 10765       L1    10  0.46

> <Gold.PLP.Chemscore.Internal.Correction>
0.0394

> <Gold.Rescore>
     Score         DG    S(hbond)    S(metal)    S(lipo)     H(rot)  DE(clash)    DE(int)     intcor
     19.00     -19.87       2.11        0.00     108.22       2.08       0.15       0.72       ----

> <Gold.Chemscore.Fitness>
18.9959

> <Gold.Chemscore.DG>
-19.8707

> <Gold.Chemscore.ZeroCoef>
-5.4800

> <Gold.Chemscore.Hbond>
2.1126

> <Gold.Chemscore.Metal>
0.0000

> <Gold.Chemscore.Lipo>
108.2224

> <Gold.Chemscore.Internal_Hbond>
0.0000

> <Gold.Chemscore.DEClash>
0.1543

> <Gold.Chemscore.DEInternal>
0.7206

> <Gold.Chemscore.Rot>
2.0811

> <Gold.Chemscore.Internal.Correction>
   9.000000E+99

> <Gold.Chemscore.Hbonds>
donor molecule, donor type, donor heavy atom, donor atom, acceptor molecule, acceptor atom, score
      L1  H     5    45       P1  8028  1.00
      L1  H    12    44       P1  7948  1.00
      P1  H 10752 10765       L1    10  0.04

> <Gold.Chemscore.Hbond.Weighted>
-7.0562

> <Gold.Chemscore.Metal.Weighted>
-0.0000

> <Gold.Chemscore.Lipo.Weighted>
-12.6620

> <Gold.Chemscore.Internal_Hbond.Weighted>
0.0000

> <Gold.Chemscore.DEClash.Weighted>
0.1543

> <Gold.Chemscore.DEInternal.Weighted>
0.7206

> <Gold.Chemscore.Rot.Weighted>
5.3275

> <Gold.Chemscore.Internal.Correction.Weighted>
   9.000000E+99

> <Gold.Protein.RotatedTorsions>
[ 6907 6896 6895 6894 ] final   12.49 input  -60.11 | X-H torsion
[ 7974 7965 7964 7962 ] final -148.30 input  175.53 | X-H torsion
[ 8008 7997 7996 7995 ] final -124.58 input   59.86 | X-H torsion
[ 10167 10162 10161 10158 ] final  -13.00 input  -65.29 | X-H torsion
[ 10718 10713 10712 10709 ] final   45.36 input   66.30 | X-H torsion
[ 10763 10752 10751 10750 ] final  168.22 input  -60.55 | X-H torsion
[ 11005 11000 10999 10996 ] final  100.09 input  -57.11 | X-H torsion

> <Gold.Protein.ActiveResidues>
 VAL166  LYS551  ARG553  GLY616  TRP617  ASP618  TYR619  PRO620  LYS621  CYS622 
 ASP623  PHE694  ASN695  SER759  ASP760  ASP761  ALA762  ILE779  LEU786  VAL792 
 PHE793  MET794  SER795  GLU796  ALA797  LYS798  CYS799  TRP800  GLU811  SER814 

> <Gold.Protein.RotatedAtoms>
  151.7712  135.0786  160.0359 H   0  0  0  0  0  0  0  0  0  0  0  0  # atno 6907 bound_to 6896
  152.3287  133.5930  159.5803 H   0  0  0  0  0  0  0  0  0  0  0  0  # atno 6908 bound_to 6896
  150.7410  133.9817  159.3620 H   0  0  0  0  0  0  0  0  0  0  0  0  # atno 6909 bound_to 6896
  144.8038  140.5215  143.5689 H   0  0  0  0  0  0  0  0  0  0  0  0  # atno 7974 bound_to 7965
  155.1993  140.0415  157.2914 H   0  0  0  0  0  0  0  0  0  0  0  0  # atno 8008 bound_to 7997
  154.6086  140.2471  155.7670 H   0  0  0  0  0  0  0  0  0  0  0  0  # atno 8009 bound_to 7997
  156.2365  140.2919  156.0336 H   0  0  0  0  0  0  0  0  0  0  0  0  # atno 8010 bound_to 7997
  140.7173  143.5473  150.9341 H   0  0  0  0  0  0  0  0  0  0  0  0  # atno 10167 bound_to 10162
  157.4367  130.8057  149.7655 H   0  0  0  0  0  0  0  0  0  0  0  0  # atno 10718 bound_to 10713
  154.3653  135.2753  155.2297 H   0  0  0  0  0  0  0  0  0  0  0  0  # atno 10763 bound_to 10752
  154.4467  135.5941  153.6168 H   0  0  0  0  0  0  0  0  0  0  0  0  # atno 10764 bound_to 10752
  152.9841  135.6032  154.3879 H   0  0  0  0  0  0  0  0  0  0  0  0  # atno 10765 bound_to 10752
  139.8771  134.9125  156.4704 H   0  0  0  0  0  0  0  0  0  0  0  0  # atno 11005 bound_to 11000
  145.5487  139.1476  143.3406 LP  0  0  0  0  0  0  0  0  0  0  0  0  # atno 17320 bound_to 7965
  146.2325  140.5626  142.8969 LP  0  0  0  0  0  0  0  0  0  0  0  0  # atno 17321 bound_to 7965
  139.9196  143.6621  152.3099 LP  0  0  0  0  0  0  0  0  0  0  0  0  # atno 17342 bound_to 10162
  139.7034  144.7632  151.1235 LP  0  0  0  0  0  0  0  0  0  0  0  0  # atno 17343 bound_to 10162
  155.9933  130.3925  150.2905 LP  0  0  0  0  0  0  0  0  0  0  0  0  # atno 17370 bound_to 10713
  157.1067  131.0210  151.3064 LP  0  0  0  0  0  0  0  0  0  0  0  0  # atno 17371 bound_to 10713
  140.8799  133.7925  155.9456 LP  0  0  0  0  0  0  0  0  0  0  0  0  # atno 17394 bound_to 11000
  140.8864  134.2548  157.5117 LP  0  0  0  0  0  0  0  0  0  0  0  0  # atno 17395 bound_to 11000

$$$$
