AV-unprocessed.smi:1984|AV-procd|sdf|8041|dock2
  -GOLD-   2272010233D 1   1.00000     0.00000
 Structure written by MMmdl.
 38 39  0  0  0  0  0  0  0  0  1 V2000
  153.4474  139.7679  159.7955 C   0  0  0  0  0  0  0  0  0  0  0  0
  152.8036  141.1218  159.8478 C   0  0  0  0  0  0  0  0  0  0  0  0
  153.0765  142.1946  160.7420 C   0  0  0  0  0  0  0  0  0  0  0  0
  152.2147  143.1828  160.3574 C   0  0  0  0  0  0  0  0  0  0  0  0
  152.0170  144.5565  160.9094 C   0  0  0  0  0  0  0  0  0  0  0  0
  151.4847  142.6861  159.2915 N   0  0  0  0  0  0  0  0  0  0  0  0
  150.4354  143.3312  158.5161 C   0  0  0  0  0  0  0  0  0  0  0  0
  149.7974  142.3649  157.5138 C   0  0  0  0  0  0  0  0  0  0  0  0
  148.6760  141.9023  157.7232 O   0  0  0  0  0  0  0  0  0  0  0  0
  150.5216  142.0701  156.4246 N   0  0  0  0  0  0  0  0  0  0  0  0
  150.0783  141.1825  155.3571 C   0  0  0  0  0  0  0  0  0  0  0  0
  150.7737  139.8125  155.4411 C   0  0  1  0  0  0  0  0  0  0  0  0
  150.8176  139.0620  154.0930 C   0  0  0  0  0  0  0  0  0  0  0  0
  151.7734  137.8719  154.2243 C   0  0  0  0  0  0  0  0  0  0  0  0
  153.0888  138.4186  155.3751 S   0  0  0  0  0  0  0  0  0  0  0  0
  153.1952  137.4489  156.4756 O   0  0  0  0  0  0  0  0  0  0  0  0
  154.2748  138.8259  154.6069 O   0  0  0  0  0  0  0  0  0  0  0  0
  152.2155  139.9202  155.9623 C   0  0  0  0  0  0  0  0  0  0  0  0
  151.8522  141.4238  158.9801 N   0  0  0  0  0  0  0  0  0  0  0  0
  154.1929  139.6551  160.5827 H   0  0  0  0  0  0  0  0  0  0  0  0
  153.9470  139.6072  158.8399 H   0  0  0  0  0  0  0  0  0  0  0  0
  152.7081  138.9767  159.9236 H   0  0  0  0  0  0  0  0  0  0  0  0
  153.7966  142.2323  161.5458 H   0  0  0  0  0  0  0  0  0  0  0  0
  152.7408  144.7675  161.6968 H   0  0  0  0  0  0  0  0  0  0  0  0
  151.0193  144.6647  161.3349 H   0  0  0  0  0  0  0  0  0  0  0  0
  152.1398  145.3109  160.1324 H   0  0  0  0  0  0  0  0  0  0  0  0
  149.6874  143.7291  159.2030 H   0  0  0  0  0  0  0  0  0  0  0  0
  150.8529  144.1824  157.9757 H   0  0  0  0  0  0  0  0  0  0  0  0
  151.4336  142.4922  156.3261 H   0  0  0  0  0  0  0  0  0  0  0  0
  148.9956  141.0558  155.4106 H   0  0  0  0  0  0  0  0  0  0  0  0
  150.2976  141.6522  154.3971 H   0  0  0  0  0  0  0  0  0  0  0  0
  150.2218  139.1868  156.1444 H   0  0  0  0  0  0  0  0  0  0  0  0
  149.8272  138.7367  153.7732 H   0  0  0  0  0  0  0  0  0  0  0  0
  151.1959  139.7339  153.3216 H   0  0  0  0  0  0  0  0  0  0  0  0
  151.2672  137.0163  154.6720 H   0  0  0  0  0  0  0  0  0  0  0  0
  152.2070  137.5636  153.2728 H   0  0  0  0  0  0  0  0  0  0  0  0
  152.7241  140.7860  155.5370 H   0  0  0  0  0  0  0  0  0  0  0  0
  152.2704  139.9869  157.0490 H   0  0  0  0  0  0  0  0  0  0  0  0
  1  2  1  0  0  0  0
  1 20  1  0  0  0  0
  1 21  1  0  0  0  0
  1 22  1  0  0  0  0
  2 19  2  0  0  0  0
  2  3  1  0  0  0  0
  3  4  2  0  0  0  0
  3 23  1  0  0  0  0
  4  5  1  0  0  0  0
  4  6  1  0  0  0  0
  5 24  1  0  0  0  0
  5 25  1  0  0  0  0
  5 26  1  0  0  0  0
  6  7  1  0  0  0  0
  6 19  1  0  0  0  0
  7  8  1  0  0  0  0
  7 27  1  0  0  0  0
  7 28  1  0  0  0  0
  8  9  2  0  0  0  0
  8 10  1  0  0  0  0
 10 11  1  0  0  0  0
 10 29  1  0  0  0  0
 11 12  1  0  0  0  0
 11 30  1  0  0  0  0
 11 31  1  0  0  0  0
 12 18  1  0  0  0  0
 12 13  1  0  0  0  0
 12 32  1  0  0  0  0
 13 14  1  0  0  0  0
 13 33  1  0  0  0  0
 13 34  1  0  0  0  0
 14 15  1  0  0  0  0
 14 35  1  0  0  0  0
 14 36  1  0  0  0  0
 15 16  2  0  0  0  0
 15 17  2  0  0  0  0
 15 18  1  0  0  0  0
 18 37  1  0  0  0  0
 18 38  1  0  0  0  0
M  END
> <s_m_source_file>
AV-unprocessed.smi

> <i_m_source_file_index>
1984

> <i_lp_mmshare_version>
43012

> <i_f3d_flags>
0

> <s_epik_input>
W0NIM11jMVtjSF1jKFtDSDNdKW4objEpW0NIMl1DKD1PKVtOSF1bQ0gyXVtDQEBIXShbQ0gyXTIpW0NIMl1bQ0gyXVMyKD1PKT1P

> <s_epik_cmdline>
J2VwaWtfcHl0aG9uJywgJy1waCcsICc3LjAnLCAnLXRuJywgJzgnLCAnLW1hJywgJzIwMCcsICctbWV0YWxfYmluZGluZycsICctaW1hZScsICc8aW5maWxlLm1hZT4nLCAnLW9tYWUnLCAnPG91dGZpbGUubWFlPic=

> <r_lp_tautomer_probability>
1

> <r_epik_Ionization_Penalty>
0.000335865

> <r_epik_Ionization_Penalty_Charging>
0

> <r_epik_Ionization_Penalty_Neutral>
0.000335865

> <r_epik_State_Penalty>
-0

> <r_epik_Charging_Adjusted_Penalty>
0

> <i_epik_Tot_Q>
0

> <i_epik_Tot_abs_Q>
0

> <r_epik_Metal_State_Penalty>
-0

> <b_epik_Metal_Only>
0

> <s_lp_Force_Field>
OPLS_2005

> <r_lp_Energy>
4.96267

> <b_lp_Chiralities_Consistent>
1

> <s_lp_Variant>
AV-unprocessed.smi:1984-2

> <Gold.Version>
5.8.1

> <Gold.Id.Protein>
6NUR|6NUR_protein|mol2

> <Gold.PLP.Fitness>
42.1821

> <Gold.PLP.PLP>
-39.9775

> <Gold.PLP.part.hbond>
-2.3833

> <Gold.PLP.part.metal>
0.0000

> <Gold.PLP.part.buried>
-3.3677

> <Gold.PLP.part.nonpolar>
-33.9044

> <Gold.PLP.part.repulsive>
0.2004

> <Gold.PLP.ligand.clash>
0.0000

> <Gold.PLP.ligand.torsion>
0.5907

> <Gold.PLP.Chemscore.Hbond>
1.1265

> <Gold.PLP.Chemscore.CHOScore>
0.0000

> <Gold.PLP.Chemscore.Metal>
0.0000

> <Gold.Chemscore.Hbonds>
donor molecule, donor type, donor heavy atom, donor atom, acceptor molecule, acceptor atom, score
      P1  H  7997  8009       L1    17  0.82
      P1  H 10752 10764       L1    16  0.09

> <Gold.PLP.Chemscore.Internal.Correction>
0.0065

> <Gold.Rescore>
     Score         DG    S(hbond)    S(metal)    S(lipo)     H(rot)  DE(clash)    DE(int)     intcor
     13.61     -14.58       0.70        0.00      94.65       1.68       0.11       0.86       ----

> <Gold.Chemscore.Fitness>
13.6073

> <Gold.Chemscore.DG>
-14.5824

> <Gold.Chemscore.ZeroCoef>
-5.4800

> <Gold.Chemscore.Hbond>
0.6969

> <Gold.Chemscore.Metal>
0.0000

> <Gold.Chemscore.Lipo>
94.6521

> <Gold.Chemscore.Internal_Hbond>
0.0000

> <Gold.Chemscore.DEClash>
0.1119

> <Gold.Chemscore.DEInternal>
0.8632

> <Gold.Chemscore.Rot>
1.6795

> <Gold.Chemscore.Internal.Correction>
   9.000000E+99

> <Gold.Chemscore.Hbonds>
donor molecule, donor type, donor heavy atom, donor atom, acceptor molecule, acceptor atom, score
      P1  H  7997  8009       L1    17  0.24
      P1  H 10752 10764       L1    16  0.02

> <Gold.Chemscore.Hbond.Weighted>
-2.3276

> <Gold.Chemscore.Metal.Weighted>
-0.0000

> <Gold.Chemscore.Lipo.Weighted>
-11.0743

> <Gold.Chemscore.Internal_Hbond.Weighted>
0.0000

> <Gold.Chemscore.DEClash.Weighted>
0.1119

> <Gold.Chemscore.DEInternal.Weighted>
0.8632

> <Gold.Chemscore.Rot.Weighted>
4.2995

> <Gold.Chemscore.Internal.Correction.Weighted>
   9.000000E+99

> <Gold.Protein.RotatedTorsions>
[ 6907 6896 6895 6894 ] final  120.45 input  -60.11 | X-H torsion
[ 7974 7965 7964 7962 ] final    8.76 input  175.53 | X-H torsion
[ 8008 7997 7996 7995 ] final -105.85 input   59.86 | X-H torsion
[ 10167 10162 10161 10158 ] final   51.61 input  -65.29 | X-H torsion
[ 10718 10713 10712 10709 ] final   95.95 input   66.30 | X-H torsion
[ 10763 10752 10751 10750 ] final  -17.90 input  -60.55 | X-H torsion
[ 11005 11000 10999 10996 ] final  164.60 input  -57.11 | X-H torsion

> <Gold.Protein.ActiveResidues>
 VAL166  LYS551  ARG553  GLY616  TRP617  ASP618  TYR619  PRO620  LYS621  CYS622 
 ASP623  PHE694  ASN695  SER759  ASP760  ASP761  ALA762  ILE779  LEU786  VAL792 
 PHE793  MET794  SER795  GLU796  ALA797  LYS798  CYS799  TRP800  GLU811  SER814 

> <Gold.Protein.RotatedAtoms>
  152.4397  133.7426  159.6648 H   0  0  0  0  0  0  0  0  0  0  0  0  # atno 6907 bound_to 6896
  150.8286  133.8119  159.3114 H   0  0  0  0  0  0  0  0  0  0  0  0  # atno 6908 bound_to 6896
  151.5780  135.1062  160.0062 H   0  0  0  0  0  0  0  0  0  0  0  0  # atno 6909 bound_to 6896
  146.2412  139.9885  142.8428 H   0  0  0  0  0  0  0  0  0  0  0  0  # atno 7974 bound_to 7965
  154.9060  140.0411  157.1919 H   0  0  0  0  0  0  0  0  0  0  0  0  # atno 8008 bound_to 7997
  154.8396  140.2912  155.5647 H   0  0  0  0  0  0  0  0  0  0  0  0  # atno 8009 bound_to 7997
  156.2991  140.2485  156.3336 H   0  0  0  0  0  0  0  0  0  0  0  0  # atno 8010 bound_to 7997
  140.2601  144.3383  150.6321 H   0  0  0  0  0  0  0  0  0  0  0  0  # atno 10167 bound_to 10162
  157.6933  131.0562  150.4416 H   0  0  0  0  0  0  0  0  0  0  0  0  # atno 10718 bound_to 10713
  153.5810  135.7005  153.5463 H   0  0  0  0  0  0  0  0  0  0  0  0  # atno 10763 bound_to 10752
  153.3261  135.4060  155.1456 H   0  0  0  0  0  0  0  0  0  0  0  0  # atno 10764 bound_to 10752
  154.8617  135.3707  154.5338 H   0  0  0  0  0  0  0  0  0  0  0  0  # atno 10765 bound_to 10752
  140.2476  134.8002  157.3471 H   0  0  0  0  0  0  0  0  0  0  0  0  # atno 11005 bound_to 11000
  145.1525  140.9630  143.4424 LP  0  0  0  0  0  0  0  0  0  0  0  0  # atno 17320 bound_to 7965
  145.0192  139.3440  143.6081 LP  0  0  0  0  0  0  0  0  0  0  0  0  # atno 17321 bound_to 7965
  140.5973  143.2167  151.7140 LP  0  0  0  0  0  0  0  0  0  0  0  0  # atno 17342 bound_to 10162
  139.5019  144.3848  152.0340 LP  0  0  0  0  0  0  0  0  0  0  0  0  # atno 17343 bound_to 10162
  156.4774  130.4066  149.6481 LP  0  0  0  0  0  0  0  0  0  0  0  0  # atno 17370 bound_to 10713
  156.3539  130.7446  151.2410 LP  0  0  0  0  0  0  0  0  0  0  0  0  # atno 17371 bound_to 10713
  140.1590  134.4752  155.7907 LP  0  0  0  0  0  0  0  0  0  0  0  0  # atno 17394 bound_to 11000
  141.2204  133.6893  156.7512 LP  0  0  0  0  0  0  0  0  0  0  0  0  # atno 17395 bound_to 11000

$$$$
