AV-unprocessed.smi:1644|AV-procd|sdf|6587|dock10
  -GOLD-   22720 7283D 1   1.00000     0.00000
 Structure written by MMmdl.
 49 51  0  0  0  0  0  0  0  0  1 V2000
  143.9641  145.6172  153.9391 C   0  0  0  0  0  0  0  0  0  0  0  0
  143.7403  144.5931  155.0565 C   0  0  0  0  0  0  0  0  0  0  0  0
  144.4957  143.2726  154.8030 C   0  0  0  0  0  0  0  0  0  0  0  0
  146.0021  143.2831  155.1491 C   0  0  1  0  0  0  0  0  0  0  0  0
  146.2719  142.9908  156.5414 N   0  0  0  0  0  0  0  0  0  0  0  0
  147.0804  141.9345  156.6961 C   0  0  0  0  0  0  0  0  0  0  0  0
  147.4484  141.4817  157.7788 O   0  0  0  0  0  0  0  0  0  0  0  0
  147.4123  141.4668  155.4768 N   0  0  0  0  0  0  0  0  0  0  0  0
  148.2904  140.3122  155.2372 C   0  0  0  0  0  0  0  0  0  0  0  0
  149.7130  140.6836  154.7444 C   0  0  1  0  0  0  0  0  0  0  0  0
  149.6019  141.1311  153.4098 O   0  0  0  0  0  0  0  0  0  0  0  0
  150.4487  141.7860  155.5410 C   0  0  0  0  0  0  0  0  0  0  0  0
  151.0445  141.3322  156.7858 N   0  0  0  0  0  0  0  0  0  0  0  0
  151.4071  140.0706  157.0890 C   0  0  0  0  0  0  0  0  0  0  0  0
  151.9475  139.8617  158.2856 N   0  0  0  0  0  0  0  0  0  0  0  0
  151.9111  141.1318  158.8325 C   0  0  0  0  0  0  0  0  0  0  0  0
  152.3520  141.5977  160.0901 C   0  0  0  0  0  0  0  0  0  0  0  0
  152.2193  142.9584  160.4459 C   0  0  0  0  0  0  0  0  0  0  0  0
  152.7157  143.4184  161.8051 C   0  0  0  0  0  0  0  0  0  0  0  0
  151.6274  143.8744  159.5401 C   0  0  0  0  0  0  0  0  0  0  0  0
  151.4745  145.3417  159.8990 C   0  0  0  0  0  0  0  0  0  0  0  0
  151.1760  143.4241  158.2823 C   0  0  0  0  0  0  0  0  0  0  0  0
  151.3313  142.0715  157.9303 C   0  0  0  0  0  0  0  0  0  0  0  0
  146.8009  142.1634  154.5084 C   0  0  0  0  0  0  0  0  0  0  0  0
  146.8556  141.9664  153.2946 O   0  0  0  0  0  0  0  0  0  0  0  0
  143.4308  146.5442  154.1505 H   0  0  0  0  0  0  0  0  0  0  0  0
  143.6070  145.2390  152.9810 H   0  0  0  0  0  0  0  0  0  0  0  0
  145.0218  145.8590  153.8322 H   0  0  0  0  0  0  0  0  0  0  0  0
  144.0604  145.0296  156.0030 H   0  0  0  0  0  0  0  0  0  0  0  0
  142.6707  144.4034  155.1499 H   0  0  0  0  0  0  0  0  0  0  0  0
  144.0114  142.4701  155.3611 H   0  0  0  0  0  0  0  0  0  0  0  0
  144.3874  143.0047  153.7513 H   0  0  0  0  0  0  0  0  0  0  0  0
  146.4504  144.2419  154.8855 H   0  0  0  0  0  0  0  0  0  0  0  0
  145.8817  143.5284  157.3018 H   0  0  0  0  0  0  0  0  0  0  0  0
  148.3651  139.7781  156.1862 H   0  0  0  0  0  0  0  0  0  0  0  0
  147.8369  139.6023  154.5435 H   0  0  0  0  0  0  0  0  0  0  0  0
  150.3359  139.7922  154.7007 H   0  0  0  0  0  0  0  0  0  0  0  0
  149.7916  140.4065  152.8334 H   0  0  0  0  0  0  0  0  0  0  0  0
  151.2441  142.2174  154.9317 H   0  0  0  0  0  0  0  0  0  0  0  0
  149.7577  142.5995  155.7678 H   0  0  0  0  0  0  0  0  0  0  0  0
  151.2873  139.2619  156.3829 H   0  0  0  0  0  0  0  0  0  0  0  0
  152.7987  140.8981  160.7809 H   0  0  0  0  0  0  0  0  0  0  0  0
  151.8991  143.8492  162.3845 H   0  0  0  0  0  0  0  0  0  0  0  0
  153.4956  144.1716  161.6915 H   0  0  0  0  0  0  0  0  0  0  0  0
  153.1323  142.5899  162.3786 H   0  0  0  0  0  0  0  0  0  0  0  0
  151.0269  145.9066  159.0810 H   0  0  0  0  0  0  0  0  0  0  0  0
  152.4459  145.7852  160.1180 H   0  0  0  0  0  0  0  0  0  0  0  0
  150.8351  145.4558  160.7744 H   0  0  0  0  0  0  0  0  0  0  0  0
  150.7262  144.1158  157.5863 H   0  0  0  0  0  0  0  0  0  0  0  0
  1  2  1  0  0  0  0
  1 26  1  0  0  0  0
  1 27  1  0  0  0  0
  1 28  1  0  0  0  0
  2  3  1  0  0  0  0
  2 29  1  0  0  0  0
  2 30  1  0  0  0  0
  3  4  1  0  0  0  0
  3 31  1  0  0  0  0
  3 32  1  0  0  0  0
  4 24  1  0  0  0  0
  4  5  1  0  0  0  0
  4 33  1  0  0  0  0
  5  6  1  0  0  0  0
  5 34  1  0  0  0  0
  6  7  2  0  0  0  0
  6  8  1  0  0  0  0
  8  9  1  0  0  0  0
  8 24  1  0  0  0  0
  9 10  1  0  0  0  0
  9 35  1  0  0  0  0
  9 36  1  0  0  0  0
 10 11  1  0  0  0  0
 10 12  1  0  0  0  0
 10 37  1  0  0  0  0
 11 38  1  0  0  0  0
 12 13  1  0  0  0  0
 12 39  1  0  0  0  0
 12 40  1  0  0  0  0
 13 23  1  0  0  0  0
 13 14  1  0  0  0  0
 14 15  2  0  0  0  0
 14 41  1  0  0  0  0
 15 16  1  0  0  0  0
 16 23  2  0  0  0  0
 16 17  1  0  0  0  0
 17 18  2  0  0  0  0
 17 42  1  0  0  0  0
 18 19  1  0  0  0  0
 18 20  1  0  0  0  0
 19 43  1  0  0  0  0
 19 44  1  0  0  0  0
 19 45  1  0  0  0  0
 20 21  1  0  0  0  0
 20 22  2  0  0  0  0
 21 46  1  0  0  0  0
 21 47  1  0  0  0  0
 21 48  1  0  0  0  0
 22 23  1  0  0  0  0
 22 49  1  0  0  0  0
 24 25  2  0  0  0  0
M  END
> <s_m_source_file>
AV-unprocessed.smi

> <i_m_source_file_index>
1644

> <i_lp_mmshare_version>
43012

> <i_f3d_flags>
0

> <s_epik_input>
W0NIM11bQ0gyXVtDSDJdW0NAQEhdMVtOSF1DKD1PKU4oQzE9TylbQ0gyXVtDQEhdKFtPSF0pW0NIMl1uKFtjSF1uMiljKGMyMylbY0hdYyhbQ0gzXSljKFtjSF0zKVtDSDNd

> <s_epik_cmdline>
J2VwaWtfcHl0aG9uJywgJy1waCcsICc3LjAnLCAnLXRuJywgJzgnLCAnLW1hJywgJzIwMCcsICctbWV0YWxfYmluZGluZycsICctaW1hZScsICc8aW5maWxlLm1hZT4nLCAnLW9tYWUnLCAnPG91dGZpbGUubWFlPic=

> <r_lp_tautomer_probability>
1

> <r_epik_Ionization_Penalty>
0.10693

> <r_epik_Ionization_Penalty_Charging>
0

> <r_epik_Ionization_Penalty_Neutral>
0.10693

> <r_epik_State_Penalty>
0.096713

> <r_epik_Charging_Adjusted_Penalty>
0.096713

> <i_epik_Tot_Q>
0

> <i_epik_Tot_abs_Q>
0

> <r_epik_Metal_State_Penalty>
0.102757

> <b_epik_Metal_Only>
0

> <s_lp_Force_Field>
OPLS_2005

> <r_lp_Energy>
20.3603

> <b_lp_Chiralities_Consistent>
1

> <s_lp_Variant>
AV-unprocessed.smi:1644-4

> <Gold.Version>
5.8.1

> <Gold.Id.Protein>
6NUR|6NUR_protein|mol2

> <Gold.PLP.Fitness>
53.1517

> <Gold.PLP.PLP>
-50.2120

> <Gold.PLP.part.hbond>
-3.0000

> <Gold.PLP.part.metal>
0.0000

> <Gold.PLP.part.buried>
-6.6582

> <Gold.PLP.part.nonpolar>
-39.1174

> <Gold.PLP.part.repulsive>
0.2675

> <Gold.PLP.ligand.clash>
0.0000

> <Gold.PLP.ligand.torsion>
1.1115

> <Gold.PLP.Chemscore.Hbond>
1.6880

> <Gold.PLP.Chemscore.CHOScore>
0.0000

> <Gold.PLP.Chemscore.Metal>
0.0000

> <Gold.Chemscore.Hbonds>
donor molecule, donor type, donor heavy atom, donor atom, acceptor molecule, acceptor atom, score
      L1  H    11    38       P1  7957  0.74
      P1  H  8011  8017       L1    11  1.00

> <Gold.PLP.Chemscore.Internal.Correction>
0.0989

> <Gold.Rescore>
     Score         DG    S(hbond)    S(metal)    S(lipo)     H(rot)  DE(clash)    DE(int)     intcor
     14.04     -16.53       1.33        0.00     116.04       2.72       0.25       2.24       ----

> <Gold.Chemscore.Fitness>
14.0376

> <Gold.Chemscore.DG>
-16.5304

> <Gold.Chemscore.ZeroCoef>
-5.4800

> <Gold.Chemscore.Hbond>
1.3295

> <Gold.Chemscore.Metal>
0.0000

> <Gold.Chemscore.Lipo>
116.0370

> <Gold.Chemscore.Internal_Hbond>
0.0000

> <Gold.Chemscore.DEClash>
0.2520

> <Gold.Chemscore.DEInternal>
2.2408

> <Gold.Chemscore.Rot>
2.7212

> <Gold.Chemscore.Internal.Correction>
   9.000000E+99

> <Gold.Chemscore.Hbonds>
donor molecule, donor type, donor heavy atom, donor atom, acceptor molecule, acceptor atom, score
      L1  H    11    38       P1  7957  0.74
      P1  H  8011  8017       L1    11  0.25

> <Gold.Chemscore.Hbond.Weighted>
-4.4404

> <Gold.Chemscore.Metal.Weighted>
-0.0000

> <Gold.Chemscore.Lipo.Weighted>
-13.5763

> <Gold.Chemscore.Internal_Hbond.Weighted>
0.0000

> <Gold.Chemscore.DEClash.Weighted>
0.2520

> <Gold.Chemscore.DEInternal.Weighted>
2.2408

> <Gold.Chemscore.Rot.Weighted>
6.9663

> <Gold.Chemscore.Internal.Correction.Weighted>
   9.000000E+99

> <Gold.Protein.RotatedTorsions>
[ 6907 6896 6895 6894 ] final   21.41 input  -60.11 | X-H torsion
[ 7974 7965 7964 7962 ] final   -9.13 input  175.53 | X-H torsion
[ 8008 7997 7996 7995 ] final   89.96 input   59.86 | X-H torsion
[ 10167 10162 10161 10158 ] final  -16.70 input  -65.29 | X-H torsion
[ 10718 10713 10712 10709 ] final   60.80 input   66.30 | X-H torsion
[ 10763 10752 10751 10750 ] final  150.20 input  -60.55 | X-H torsion
[ 11005 11000 10999 10996 ] final   -4.91 input  -57.11 | X-H torsion

> <Gold.Protein.ActiveResidues>
 VAL166  LYS551  ARG553  GLY616  TRP617  ASP618  TYR619  PRO620  LYS621  CYS622 
 ASP623  PHE694  ASN695  SER759  ASP760  ASP761  ALA762  ILE779  LEU786  VAL792 
 PHE793  MET794  SER795  GLU796  ALA797  LYS798  CYS799  TRP800  GLU811  SER814 

> <Gold.Protein.RotatedAtoms>
  151.9114  135.0337  160.0514 H   0  0  0  0  0  0  0  0  0  0  0  0  # atno 6907 bound_to 6896
  152.2276  133.5028  159.5206 H   0  0  0  0  0  0  0  0  0  0  0  0  # atno 6908 bound_to 6896
  150.7016  134.1176  159.4065 H   0  0  0  0  0  0  0  0  0  0  0  0  # atno 6909 bound_to 6896
  146.2261  140.2570  142.8350 H   0  0  0  0  0  0  0  0  0  0  0  0  # atno 7974 bound_to 7965
  156.0062  140.3355  155.6895 H   0  0  0  0  0  0  0  0  0  0  0  0  # atno 8008 bound_to 7997
  155.6221  140.0676  157.2693 H   0  0  0  0  0  0  0  0  0  0  0  0  # atno 8009 bound_to 7997
  154.4266  140.1774  156.1371 H   0  0  0  0  0  0  0  0  0  0  0  0  # atno 8010 bound_to 7997
  140.7237  143.5090  150.9774 H   0  0  0  0  0  0  0  0  0  0  0  0  # atno 10167 bound_to 10162
  157.5780  130.8959  149.9381 H   0  0  0  0  0  0  0  0  0  0  0  0  # atno 10718 bound_to 10713
  154.0836  135.2857  155.3285 H   0  0  0  0  0  0  0  0  0  0  0  0  # atno 10763 bound_to 10752
  154.6667  135.5314  153.8089 H   0  0  0  0  0  0  0  0  0  0  0  0  # atno 10764 bound_to 10752
  153.0439  135.6547  154.1010 H   0  0  0  0  0  0  0  0  0  0  0  0  # atno 10765 bound_to 10752
  140.6854  133.9117  155.8582 H   0  0  0  0  0  0  0  0  0  0  0  0  # atno 11005 bound_to 11000
  144.9368  140.8035  143.5655 LP  0  0  0  0  0  0  0  0  0  0  0  0  # atno 17320 bound_to 7965
  145.2518  139.2028  143.4938 LP  0  0  0  0  0  0  0  0  0  0  0  0  # atno 17321 bound_to 7965
  139.8802  143.7081  152.3157 LP  0  0  0  0  0  0  0  0  0  0  0  0  # atno 17342 bound_to 10162
  139.7361  144.7571  151.0726 LP  0  0  0  0  0  0  0  0  0  0  0  0  # atno 17343 bound_to 10162
  156.0825  130.3671  150.0552 LP  0  0  0  0  0  0  0  0  0  0  0  0  # atno 17370 bound_to 10713
  156.8695  130.9519  151.3610 LP  0  0  0  0  0  0  0  0  0  0  0  0  # atno 17371 bound_to 10713
  141.0284  134.0790  157.4042 LP  0  0  0  0  0  0  0  0  0  0  0  0  # atno 17394 bound_to 11000
  139.8939  135.0133  156.6924 LP  0  0  0  0  0  0  0  0  0  0  0  0  # atno 17395 bound_to 11000

$$$$
