AV-unprocessed.smi:1731|AV-procd|sdf|6974|dock3
  -GOLD-   22720 8183D 1   1.00000     0.00000
 Structure written by MMmdl.
 41 42  0  0  0  0  0  0  0  0  1 V2000
  152.2427  145.8563  160.0471 C   0  0  0  0  0  0  0  0  0  0  0  0
  151.8817  144.3755  159.8632 C   0  0  2  0  0  0  0  0  0  0  0  0
  152.9396  143.4542  160.4996 C   0  0  0  0  0  0  0  0  0  0  0  0
  152.5821  141.9705  160.3179 C   0  0  0  0  0  0  0  0  0  0  0  0
  152.3785  141.6152  158.8313 C   0  0  1  0  0  0  0  0  0  0  0  0
  151.9599  140.2236  158.6908 N   0  0  0  0  0  0  0  0  0  0  0  0
  151.8706  139.5546  157.5323 C   0  0  0  0  0  0  0  0  0  0  0  0
  152.1209  140.0543  156.4351 O   0  0  0  0  0  0  0  0  0  0  0  0
  151.4843  138.2837  157.7315 N   0  0  0  0  0  0  0  0  0  0  0  0
  151.2983  137.2776  156.7501 C   0  0  0  0  0  0  0  0  0  0  0  0
  151.5406  137.4447  155.3620 C   0  0  0  0  0  0  0  0  0  0  0  0
  151.2787  136.3325  154.6927 N   0  0  0  0  0  0  0  0  0  0  0  0
  150.8681  135.4435  155.6316 N   0  0  0  0  0  0  0  0  0  0  0  0
  150.4966  134.0968  155.2346 C   0  0  0  0  0  0  0  0  0  0  0  0
  150.7271  133.1020  156.3739 C   0  0  0  0  0  0  0  0  0  0  0  0
  151.6426  132.1496  156.1769 N   0  0  0  0  0  0  0  0  0  0  0  0
  150.0901  133.1943  157.4209 O   0  0  0  0  0  0  0  0  0  0  0  0
  150.8729  135.9882  156.9014 C   0  0  0  0  0  0  0  0  0  0  0  0
  151.3264  142.5389  158.1905 C   0  0  0  0  0  0  0  0  0  0  0  0
  151.6892  144.0211  158.3765 C   0  0  0  0  0  0  0  0  0  0  0  0
  153.1906  146.0965  159.5647 H   0  0  0  0  0  0  0  0  0  0  0  0
  152.3330  146.1095  161.1038 H   0  0  0  0  0  0  0  0  0  0  0  0
  151.4772  146.5032  159.6179 H   0  0  0  0  0  0  0  0  0  0  0  0
  150.9337  144.2033  160.3754 H   0  0  0  0  0  0  0  0  0  0  0  0
  153.9156  143.6487  160.0526 H   0  0  0  0  0  0  0  0  0  0  0  0
  153.0377  143.6771  161.5626 H   0  0  0  0  0  0  0  0  0  0  0  0
  153.3698  141.3516  160.7489 H   0  0  0  0  0  0  0  0  0  0  0  0
  151.6736  141.7478  160.8795 H   0  0  0  0  0  0  0  0  0  0  0  0
  153.3219  141.7594  158.3009 H   0  0  0  0  0  0  0  0  0  0  0  0
  151.7332  139.7307  159.5421 H   0  0  0  0  0  0  0  0  0  0  0  0
  151.3213  138.0015  158.6868 H   0  0  0  0  0  0  0  0  0  0  0  0
  151.8885  138.3168  154.8283 H   0  0  0  0  0  0  0  0  0  0  0  0
  149.4460  134.0776  154.9404 H   0  0  0  0  0  0  0  0  0  0  0  0
  151.0798  133.8180  154.3557 H   0  0  0  0  0  0  0  0  0  0  0  0
  151.8280  131.4688  156.8990 H   0  0  0  0  0  0  0  0  0  0  0  0
  152.1457  132.1129  155.3021 H   0  0  0  0  0  0  0  0  0  0  0  0
  150.5776  135.4187  157.7701 H   0  0  0  0  0  0  0  0  0  0  0  0
  151.2324  142.3162  157.1269 H   0  0  0  0  0  0  0  0  0  0  0  0
  150.3473  142.3496  158.6331 H   0  0  0  0  0  0  0  0  0  0  0  0
  150.9071  144.6449  157.9425 H   0  0  0  0  0  0  0  0  0  0  0  0
  152.6029  144.2430  157.8228 H   0  0  0  0  0  0  0  0  0  0  0  0
  1  2  1  0  0  0  0
  1 21  1  0  0  0  0
  1 22  1  0  0  0  0
  1 23  1  0  0  0  0
  2 20  1  0  0  0  0
  2  3  1  0  0  0  0
  2 24  1  0  0  0  0
  3  4  1  0  0  0  0
  3 25  1  0  0  0  0
  3 26  1  0  0  0  0
  4  5  1  0  0  0  0
  4 27  1  0  0  0  0
  4 28  1  0  0  0  0
  5  6  1  0  0  0  0
  5 19  1  0  0  0  0
  5 29  1  0  0  0  0
  6  7  1  0  0  0  0
  6 30  1  0  0  0  0
  7  8  2  0  0  0  0
  7  9  1  0  0  0  0
  9 10  1  0  0  0  0
  9 31  1  0  0  0  0
 10 18  2  0  0  0  0
 10 11  1  0  0  0  0
 11 12  2  0  0  0  0
 11 32  1  0  0  0  0
 12 13  1  0  0  0  0
 13 14  1  0  0  0  0
 13 18  1  0  0  0  0
 14 15  1  0  0  0  0
 14 33  1  0  0  0  0
 14 34  1  0  0  0  0
 15 16  1  0  0  0  0
 15 17  2  0  0  0  0
 16 35  1  0  0  0  0
 16 36  1  0  0  0  0
 18 37  1  0  0  0  0
 19 20  1  0  0  0  0
 19 38  1  0  0  0  0
 19 39  1  0  0  0  0
 20 40  1  0  0  0  0
 20 41  1  0  0  0  0
M  END
> <s_m_source_file>
AV-unprocessed.smi

> <i_m_source_file_index>
1731

> <i_lp_mmshare_version>
43012

> <i_f3d_flags>
0

> <s_epik_input>
W0NIM11bQ0BASF0xW0NIMl1bQ0gyXVtDQEhdKFtDSDJdW0NIMl0xKVtOSF1DKD1PKVtOSF1jMltjSF1ubihbY0hdMilbQ0gyXUMoPU8pW05IMl0=

> <s_epik_cmdline>
J2VwaWtfcHl0aG9uJywgJy1waCcsICc3LjAnLCAnLXRuJywgJzgnLCAnLW1hJywgJzIwMCcsICctbWV0YWxfYmluZGluZycsICctaW1hZScsICc8aW5maWxlLm1hZT4nLCAnLW9tYWUnLCAnPG91dGZpbGUubWFlPic=

> <r_lp_tautomer_probability>
1

> <r_epik_Ionization_Penalty>
4.81284e-05

> <r_epik_Ionization_Penalty_Charging>
0

> <r_epik_Ionization_Penalty_Neutral>
4.81284e-05

> <r_epik_State_Penalty>
-0

> <r_epik_Charging_Adjusted_Penalty>
0

> <i_epik_Tot_Q>
0

> <i_epik_Tot_abs_Q>
0

> <r_epik_Metal_State_Penalty>
-0

> <b_epik_Metal_Only>
0

> <s_lp_Force_Field>
OPLS_2005

> <r_lp_Energy>
12.4361

> <b_lp_Chiralities_Consistent>
1

> <s_lp_Variant>
AV-unprocessed.smi:1731-1

> <Gold.Version>
5.8.1

> <Gold.Id.Protein>
6NUR|6NUR_protein|mol2

> <Gold.PLP.Fitness>
40.6023

> <Gold.PLP.PLP>
-33.9110

> <Gold.PLP.part.hbond>
-2.5019

> <Gold.PLP.part.metal>
0.0000

> <Gold.PLP.part.buried>
-5.1840

> <Gold.PLP.part.nonpolar>
-25.7200

> <Gold.PLP.part.repulsive>
0.4164

> <Gold.PLP.ligand.clash>
0.0000

> <Gold.PLP.ligand.torsion>
0.4529

> <Gold.PLP.Chemscore.Hbond>
2.5275

> <Gold.PLP.Chemscore.CHOScore>
0.0000

> <Gold.PLP.Chemscore.Metal>
0.0000

> <Gold.Chemscore.Hbonds>
donor molecule, donor type, donor heavy atom, donor atom, acceptor molecule, acceptor atom, score
      P1  H  6896  6907       L1    17  0.91
      P1  H  7997  8008       L1     8  0.54
      P1  H 10752 10764       L1    12  1.00

> <Gold.PLP.Chemscore.Internal.Correction>
0.0145

> <Gold.Rescore>
     Score         DG    S(hbond)    S(metal)    S(lipo)     H(rot)  DE(clash)    DE(int)     intcor
     16.23     -19.79       2.43        0.00      94.47       1.90       0.58       2.98       ----

> <Gold.Chemscore.Fitness>
16.2272

> <Gold.Chemscore.DG>
-19.7878

> <Gold.Chemscore.ZeroCoef>
-5.4800

> <Gold.Chemscore.Hbond>
2.4329

> <Gold.Chemscore.Metal>
0.0000

> <Gold.Chemscore.Lipo>
94.4716

> <Gold.Chemscore.Internal_Hbond>
0.0000

> <Gold.Chemscore.DEClash>
0.5801

> <Gold.Chemscore.DEInternal>
2.9805

> <Gold.Chemscore.Rot>
1.9029

> <Gold.Chemscore.Internal.Correction>
   9.000000E+99

> <Gold.Chemscore.Hbonds>
donor molecule, donor type, donor heavy atom, donor atom, acceptor molecule, acceptor atom, score
      P1  H  6896  6907       L1    17  0.84
      P1  H  7997  8008       L1     8  0.18
      P1  H 10752 10764       L1    12  0.13

> <Gold.Chemscore.Hbond.Weighted>
-8.1260

> <Gold.Chemscore.Metal.Weighted>
-0.0000

> <Gold.Chemscore.Lipo.Weighted>
-11.0532

> <Gold.Chemscore.Internal_Hbond.Weighted>
0.0000

> <Gold.Chemscore.DEClash.Weighted>
0.5801

> <Gold.Chemscore.DEInternal.Weighted>
2.9805

> <Gold.Chemscore.Rot.Weighted>
4.8714

> <Gold.Chemscore.Internal.Correction.Weighted>
   9.000000E+99

> <Gold.Protein.RotatedTorsions>
[ 6907 6896 6895 6894 ] final -145.42 input  -60.11 | X-H torsion
[ 7974 7965 7964 7962 ] final -178.73 input  175.53 | X-H torsion
[ 8008 7997 7996 7995 ] final  -50.94 input   59.86 | X-H torsion
[ 10167 10162 10161 10158 ] final  168.33 input  -65.29 | X-H torsion
[ 10718 10713 10712 10709 ] final  -50.76 input   66.30 | X-H torsion
[ 10763 10752 10751 10750 ] final  -78.65 input  -60.55 | X-H torsion
[ 11005 11000 10999 10996 ] final -106.59 input  -57.11 | X-H torsion

> <Gold.Protein.ActiveResidues>
 VAL166  LYS551  ARG553  GLY616  TRP617  ASP618  TYR619  PRO620  LYS621  CYS622 
 ASP623  PHE694  ASN695  SER759  ASP760  ASP761  ALA762  ILE779  LEU786  VAL792 
 PHE793  MET794  SER795  GLU796  ALA797  LYS798  CYS799  TRP800  GLU811  SER814 

> <Gold.Protein.RotatedAtoms>
  151.1276  133.5060  159.2599 H   0  0  0  0  0  0  0  0  0  0  0  0  # atno 6907 bound_to 6896
  151.1793  135.0353  159.8795 H   0  0  0  0  0  0  0  0  0  0  0  0  # atno 6908 bound_to 6896
  152.5458  134.1130  159.8420 H   0  0  0  0  0  0  0  0  0  0  0  0  # atno 6909 bound_to 6896
  144.7132  140.0825  143.6425 H   0  0  0  0  0  0  0  0  0  0  0  0  # atno 7974 bound_to 7965
  154.4072  140.1260  156.4748 H   0  0  0  0  0  0  0  0  0  0  0  0  # atno 8008 bound_to 7997
  155.7143  140.3493  155.4968 H   0  0  0  0  0  0  0  0  0  0  0  0  # atno 8009 bound_to 7997
  155.9272  140.1063  157.1151 H   0  0  0  0  0  0  0  0  0  0  0  0  # atno 8010 bound_to 7997
  139.4965  144.3826  151.9605 H   0  0  0  0  0  0  0  0  0  0  0  0  # atno 10167 bound_to 10162
  156.1771  130.4150  149.9561 H   0  0  0  0  0  0  0  0  0  0  0  0  # atno 10718 bound_to 10713
  154.5286  135.5722  153.6740 H   0  0  0  0  0  0  0  0  0  0  0  0  # atno 10763 bound_to 10752
  152.9934  135.6199  154.2659 H   0  0  0  0  0  0  0  0  0  0  0  0  # atno 10764 bound_to 10752
  154.2584  135.2857  155.2768 H   0  0  0  0  0  0  0  0  0  0  0  0  # atno 10765 bound_to 10752
  141.0997  133.8907  157.1874 H   0  0  0  0  0  0  0  0  0  0  0  0  # atno 11005 bound_to 11000
  145.9690  139.2856  143.1110 LP  0  0  0  0  0  0  0  0  0  0  0  0  # atno 17320 bound_to 7965
  145.9137  140.9162  143.0441 LP  0  0  0  0  0  0  0  0  0  0  0  0  # atno 17321 bound_to 7965
  140.3263  144.3369  150.5997 LP  0  0  0  0  0  0  0  0  0  0  0  0  # atno 17342 bound_to 10162
  140.5682  143.2184  151.7647 LP  0  0  0  0  0  0  0  0  0  0  0  0  # atno 17343 bound_to 10162
  156.7343  130.9055  151.3628 LP  0  0  0  0  0  0  0  0  0  0  0  0  # atno 17370 bound_to 10713
  157.6843  130.9170  150.0346 LP  0  0  0  0  0  0  0  0  0  0  0  0  # atno 17371 bound_to 10713
  139.9844  135.0087  156.9827 LP  0  0  0  0  0  0  0  0  0  0  0  0  # atno 17394 bound_to 11000
  140.5053  134.1056  155.7259 LP  0  0  0  0  0  0  0  0  0  0  0  0  # atno 17395 bound_to 11000

$$$$
