AV-unprocessed.smi:676|AV-procd|sdf|3308|dock7
  -GOLD-   22720 0273D 1   1.00000     0.00000
 Structure written by MMmdl.
 42 43  0  0  0  0  0  0  0  0  1 V2000
  146.2771  137.7527  155.6563 C   0  0  0  0  0  0  0  0  0  0  0  0
  146.2148  139.1708  155.5655 O   0  0  0  0  0  0  0  0  0  0  0  0
  147.1240  139.8132  154.6612 C   0  0  2  0  0  0  0  0  0  0  0  0
  146.8888  139.3273  153.2255 C   0  0  0  0  0  0  0  0  0  0  0  0
  148.5516  139.7950  155.2401 C   0  0  0  0  0  0  0  0  0  0  0  0
  148.1632  141.0342  156.0439 C   0  0  1  0  0  0  0  0  0  0  0  0
  149.2508  142.0009  156.1464 N   0  0  0  0  0  0  0  0  0  0  0  0
  150.4074  141.7752  156.7855 C   0  0  0  0  0  0  0  0  0  0  0  0
  150.6833  140.7016  157.3219 O   0  0  0  0  0  0  0  0  0  0  0  0
  151.4052  142.9406  156.8099 C   0  0  0  0  0  0  0  0  0  0  0  0
  151.5849  143.5084  158.1560 N   0  0  0  0  0  0  0  0  0  0  0  0
  151.0290  144.7804  158.3982 C   0  0  0  0  0  0  0  0  0  0  0  0
  151.1397  145.3884  159.5899 C   0  0  0  0  0  0  0  0  0  0  0  0
  151.8527  144.7037  160.6418 C   0  0  0  0  0  0  0  0  0  0  0  0
  152.3903  143.4877  160.4204 C   0  0  0  0  0  0  0  0  0  0  0  0
  152.2726  142.8198  159.1190 C   0  0  0  0  0  0  0  0  0  0  0  0
  152.7620  141.7096  158.9076 O   0  0  0  0  0  0  0  0  0  0  0  0
  147.1071  141.3497  154.9524 C   0  0  0  0  0  0  0  0  0  0  0  0
  147.5579  142.2606  153.7942 C   0  0  0  0  0  0  0  0  0  0  0  0
  145.7823  141.9377  155.4508 C   0  0  0  0  0  0  0  0  0  0  0  0
  145.6493  137.4224  156.4837 H   0  0  0  0  0  0  0  0  0  0  0  0
  147.2875  137.3909  155.8439 H   0  0  0  0  0  0  0  0  0  0  0  0
  145.8957  137.2754  154.7540 H   0  0  0  0  0  0  0  0  0  0  0  0
  147.4977  139.8755  152.5072 H   0  0  0  0  0  0  0  0  0  0  0  0
  145.8462  139.4504  152.9318 H   0  0  0  0  0  0  0  0  0  0  0  0
  147.1507  138.2769  153.1017 H   0  0  0  0  0  0  0  0  0  0  0  0
  148.8126  138.9308  155.8499 H   0  0  0  0  0  0  0  0  0  0  0  0
  149.3164  139.9852  154.4850 H   0  0  0  0  0  0  0  0  0  0  0  0
  147.7163  140.7676  157.0044 H   0  0  0  0  0  0  0  0  0  0  0  0
  149.1038  142.9069  155.7257 H   0  0  0  0  0  0  0  0  0  0  0  0
  152.3544  142.5812  156.4109 H   0  0  0  0  0  0  0  0  0  0  0  0
  151.0809  143.7211  156.1186 H   0  0  0  0  0  0  0  0  0  0  0  0
  150.5182  145.2282  157.5583 H   0  0  0  0  0  0  0  0  0  0  0  0
  150.7101  146.3652  159.7561 H   0  0  0  0  0  0  0  0  0  0  0  0
  151.9572  145.1694  161.6105 H   0  0  0  0  0  0  0  0  0  0  0  0
  152.9216  142.9916  161.2192 H   0  0  0  0  0  0  0  0  0  0  0  0
  147.6819  143.2945  154.1189 H   0  0  0  0  0  0  0  0  0  0  0  0
  146.8290  142.2654  152.9833 H   0  0  0  0  0  0  0  0  0  0  0  0
  148.5106  141.9459  153.3683 H   0  0  0  0  0  0  0  0  0  0  0  0
  145.8770  142.9977  155.6891 H   0  0  0  0  0  0  0  0  0  0  0  0
  145.4326  141.4451  156.3581 H   0  0  0  0  0  0  0  0  0  0  0  0
  144.9955  141.8365  154.7027 H   0  0  0  0  0  0  0  0  0  0  0  0
  1  2  1  0  0  0  0
  1 21  1  0  0  0  0
  1 22  1  0  0  0  0
  1 23  1  0  0  0  0
  2  3  1  0  0  0  0
  3 18  1  0  0  0  0
  3  4  1  0  0  0  0
  3  5  1  0  0  0  0
  4 24  1  0  0  0  0
  4 25  1  0  0  0  0
  4 26  1  0  0  0  0
  5  6  1  0  0  0  0
  5 27  1  0  0  0  0
  5 28  1  0  0  0  0
  6  7  1  0  0  0  0
  6 18  1  0  0  0  0
  6 29  1  0  0  0  0
  7  8  1  0  0  0  0
  7 30  1  0  0  0  0
  8  9  2  0  0  0  0
  8 10  1  0  0  0  0
 10 11  1  0  0  0  0
 10 31  1  0  0  0  0
 10 32  1  0  0  0  0
 11 16  1  0  0  0  0
 11 12  1  0  0  0  0
 12 13  2  0  0  0  0
 12 33  1  0  0  0  0
 13 14  1  0  0  0  0
 13 34  1  0  0  0  0
 14 15  2  0  0  0  0
 14 35  1  0  0  0  0
 15 16  1  0  0  0  0
 15 36  1  0  0  0  0
 16 17  2  0  0  0  0
 18 19  1  0  0  0  0
 18 20  1  0  0  0  0
 19 37  1  0  0  0  0
 19 38  1  0  0  0  0
 19 39  1  0  0  0  0
 20 40  1  0  0  0  0
 20 41  1  0  0  0  0
 20 42  1  0  0  0  0
M  END
> <s_m_source_file>
AV-unprocessed.smi

> <i_m_source_file_index>
676

> <i_lp_mmshare_version>
43012

> <i_f3d_flags>
0

> <s_epik_input>
W0NIM11PW0NAQF0xKFtDSDNdKVtDSDJdW0NASF0oQzEoW0NIM10pW0NIM10pW05IXUMoPU8pW0NIMl1uMltjSF1bY0hdW2NIXVtjSF1jMj1P

> <s_epik_cmdline>
J2VwaWtfcHl0aG9uJywgJy1waCcsICc3LjAnLCAnLXRuJywgJzgnLCAnLW1hJywgJzIwMCcsICctbWV0YWxfYmluZGluZycsICctaW1hZScsICc8aW5maWxlLm1hZT4nLCAnLW9tYWUnLCAnPG91dGZpbGUubWFlPic=

> <r_lp_tautomer_probability>
1

> <r_epik_Ionization_Penalty>
4.09771e-07

> <r_epik_Ionization_Penalty_Charging>
3.90712e-07

> <r_epik_Ionization_Penalty_Neutral>
1.90591e-08

> <r_epik_State_Penalty>
-0

> <r_epik_Charging_Adjusted_Penalty>
3.90712e-07

> <i_epik_Tot_Q>
0

> <i_epik_Tot_abs_Q>
0

> <r_epik_Metal_State_Penalty>
-0

> <b_epik_Metal_Only>
0

> <s_lp_Force_Field>
OPLS_2005

> <r_lp_Energy>
31.4736

> <b_lp_Chiralities_Consistent>
1

> <s_lp_Variant>
AV-unprocessed.smi:676-2

> <Gold.Version>
5.8.1

> <Gold.Id.Protein>
6NUR|6NUR_protein|mol2

> <Gold.PLP.Fitness>
40.5297

> <Gold.PLP.PLP>
-35.5046

> <Gold.PLP.part.hbond>
-1.0000

> <Gold.PLP.part.metal>
0.0000

> <Gold.PLP.part.buried>
-6.0225

> <Gold.PLP.part.nonpolar>
-29.1210

> <Gold.PLP.part.repulsive>
0.1241

> <Gold.PLP.ligand.clash>
0.0000

> <Gold.PLP.ligand.torsion>
0.4022

> <Gold.PLP.Chemscore.Hbond>
1.0000

> <Gold.PLP.Chemscore.CHOScore>
0.8163

> <Gold.PLP.Chemscore.Metal>
0.0000

> <Gold.Chemscore.Hbonds>
donor molecule, donor type, donor heavy atom, donor atom, acceptor molecule, acceptor atom, score
      L1  H     7    30       P1  8028  1.00
      L1  C    12    33       P1  8028  0.68
      L1  C    12    33       P1  8029  0.13

> <Gold.PLP.Chemscore.Internal.Correction>
0.3808

> <Gold.Rescore>
     Score         DG    S(hbond)    S(metal)    S(lipo)     H(rot)  DE(clash)    DE(int)     intcor
     12.98     -14.86       1.00        0.00      87.00       1.62       0.11       1.77       ----

> <Gold.Chemscore.Fitness>
12.9797

> <Gold.Chemscore.DG>
-14.8566

> <Gold.Chemscore.ZeroCoef>
-5.4800

> <Gold.Chemscore.Hbond>
0.9994

> <Gold.Chemscore.Metal>
0.0000

> <Gold.Chemscore.Lipo>
87.0020

> <Gold.Chemscore.Internal_Hbond>
0.0000

> <Gold.Chemscore.DEClash>
0.1078

> <Gold.Chemscore.DEInternal>
1.7692

> <Gold.Chemscore.Rot>
1.6175

> <Gold.Chemscore.Internal.Correction>
   9.000000E+99

> <Gold.Chemscore.Hbonds>
donor molecule, donor type, donor heavy atom, donor atom, acceptor molecule, acceptor atom, score
      L1  H     7    30       P1  8028  0.99

> <Gold.Chemscore.Hbond.Weighted>
-3.3381

> <Gold.Chemscore.Metal.Weighted>
-0.0000

> <Gold.Chemscore.Lipo.Weighted>
-10.1792

> <Gold.Chemscore.Internal_Hbond.Weighted>
0.0000

> <Gold.Chemscore.DEClash.Weighted>
0.1078

> <Gold.Chemscore.DEInternal.Weighted>
1.7692

> <Gold.Chemscore.Rot.Weighted>
4.1408

> <Gold.Chemscore.Internal.Correction.Weighted>
   9.000000E+99

> <Gold.Protein.RotatedTorsions>
[ 6907 6896 6895 6894 ] final -170.06 input  -60.11 | X-H torsion
[ 7974 7965 7964 7962 ] final  118.51 input  175.53 | X-H torsion
[ 8008 7997 7996 7995 ] final   15.19 input   59.86 | X-H torsion
[ 10167 10162 10161 10158 ] final  154.77 input  -65.29 | X-H torsion
[ 10718 10713 10712 10709 ] final  -62.64 input   66.30 | X-H torsion
[ 10763 10752 10751 10750 ] final -167.23 input  -60.55 | X-H torsion
[ 11005 11000 10999 10996 ] final -104.10 input  -57.11 | X-H torsion

> <Gold.Protein.ActiveResidues>
 VAL166  LYS551  ARG553  GLY616  TRP617  ASP618  TYR619  PRO620  LYS621  CYS622 
 ASP623  PHE694  ASN695  SER759  ASP760  ASP761  ALA762  ILE779  LEU786  VAL792 
 PHE793  MET794  SER795  GLU796  ALA797  LYS798  CYS799  TRP800  GLU811  SER814 

> <Gold.Protein.RotatedAtoms>
  151.5016  133.3503  159.2869 H   0  0  0  0  0  0  0  0  0  0  0  0  # atno 6907 bound_to 6896
  150.8769  134.8156  159.7207 H   0  0  0  0  0  0  0  0  0  0  0  0  # atno 6908 bound_to 6896
  152.4737  134.4908  159.9746 H   0  0  0  0  0  0  0  0  0  0  0  0  # atno 6909 bound_to 6896
  145.1544  139.3192  143.4550 H   0  0  0  0  0  0  0  0  0  0  0  0  # atno 7974 bound_to 7965
  154.8591  140.2941  155.5550 H   0  0  0  0  0  0  0  0  0  0  0  0  # atno 8008 bound_to 7997
  156.3019  140.2481  156.3495 H   0  0  0  0  0  0  0  0  0  0  0  0  # atno 8009 bound_to 7997
  154.8938  140.0393  157.1843 H   0  0  0  0  0  0  0  0  0  0  0  0  # atno 8010 bound_to 7997
  139.4822  144.5158  151.7954 H   0  0  0  0  0  0  0  0  0  0  0  0  # atno 10167 bound_to 10162
  156.0842  130.4211  150.1164 H   0  0  0  0  0  0  0  0  0  0  0  0  # atno 10718 bound_to 10713
  154.6752  135.2945  154.9688 H   0  0  0  0  0  0  0  0  0  0  0  0  # atno 10763 bound_to 10752
  154.0701  135.6619  153.4827 H   0  0  0  0  0  0  0  0  0  0  0  0  # atno 10764 bound_to 10752
  153.0512  135.5173  154.7768 H   0  0  0  0  0  0  0  0  0  0  0  0  # atno 10765 bound_to 10752
  141.1116  133.8695  157.1569 H   0  0  0  0  0  0  0  0  0  0  0  0  # atno 11005 bound_to 11000
  146.3490  140.1630  142.8590 LP  0  0  0  0  0  0  0  0  0  0  0  0  # atno 17320 bound_to 7965
  145.0397  140.8936  143.5060 LP  0  0  0  0  0  0  0  0  0  0  0  0  # atno 17321 bound_to 7965
  140.4666  144.1646  150.5912 LP  0  0  0  0  0  0  0  0  0  0  0  0  # atno 17342 bound_to 10162
  140.4427  143.2519  151.9451 LP  0  0  0  0  0  0  0  0  0  0  0  0  # atno 17343 bound_to 10162
  156.9189  130.9676  151.3551 LP  0  0  0  0  0  0  0  0  0  0  0  0  # atno 17370 bound_to 10713
  157.5970  130.8485  149.8744 LP  0  0  0  0  0  0  0  0  0  0  0  0  # atno 17371 bound_to 10713
  140.0013  135.0027  157.0195 LP  0  0  0  0  0  0  0  0  0  0  0  0  # atno 17394 bound_to 11000
  140.4761  134.1337  155.7210 LP  0  0  0  0  0  0  0  0  0  0  0  0  # atno 17395 bound_to 11000

$$$$
