AV-unprocessed.smi:1183|AV-procd|sdf|4968|dock7
  -GOLD-   22720 3563D 1   1.00000     0.00000
 Structure written by MMmdl.
 42 43  0  0  0  0  0  0  0  0  1 V2000
  152.2845  143.9378  161.8009 C   0  0  0  0  0  0  0  0  0  0  0  0
  152.1815  144.5447  160.3997 C   0  0  0  0  0  0  0  0  0  0  0  0
  151.8736  145.7329  160.3050 O   0  0  0  0  0  0  0  0  0  0  0  0
  152.4220  143.7630  159.3197 N   0  0  0  0  0  0  0  0  0  0  0  0
  152.7253  142.3276  159.3602 C   0  0  0  0  0  0  0  0  0  0  0  0
  151.5079  141.5494  158.8314 C   0  0  0  0  0  0  0  0  0  0  0  0
  151.1105  142.0203  157.4128 C   0  0  0  0  0  0  0  0  0  0  0  0
  149.8374  141.4280  157.0139 N   0  0  0  0  0  0  0  0  0  0  0  0
  149.5756  140.8813  155.8170 C   0  0  0  0  0  0  0  0  0  0  0  0
  150.4029  140.8287  154.9053 O   0  0  0  0  0  0  0  0  0  0  0  0
  148.1611  140.3138  155.6441 C   0  0  0  0  0  0  0  0  0  0  0  0
  147.1489  141.3463  155.4701 N   0  0  0  0  0  0  0  0  0  0  0  0
  147.0493  141.9764  154.2792 N   0  0  0  0  0  0  0  0  0  0  0  0
  146.0616  142.8425  154.4349 C   0  0  0  0  0  0  0  0  0  0  0  0
  145.6719  143.7303  153.2901 C   0  0  0  0  0  0  0  0  0  0  0  0
  145.4962  142.7864  155.7395 C   0  0  0  0  0  0  0  0  0  0  0  0
  146.2178  141.8180  156.3785 C   0  0  0  0  0  0  0  0  0  0  0  0
  146.1090  141.2972  157.7739 C   0  0  0  0  0  0  0  0  0  0  0  0
  151.0101  143.5594  157.3345 C   0  0  0  0  0  0  0  0  0  0  0  0
  152.2517  144.2376  157.9419 C   0  0  0  0  0  0  0  0  0  0  0  0
  151.6028  143.0935  161.9088 H   0  0  0  0  0  0  0  0  0  0  0  0
  152.0210  144.6760  162.5592 H   0  0  0  0  0  0  0  0  0  0  0  0
  153.3016  143.6013  162.0029 H   0  0  0  0  0  0  0  0  0  0  0  0
  153.5946  142.1272  158.7322 H   0  0  0  0  0  0  0  0  0  0  0  0
  152.9960  141.9661  160.3510 H   0  0  0  0  0  0  0  0  0  0  0  0
  151.7268  140.4811  158.8264 H   0  0  0  0  0  0  0  0  0  0  0  0
  150.6700  141.6894  159.5164 H   0  0  0  0  0  0  0  0  0  0  0  0
  151.8876  141.7044  156.7139 H   0  0  0  0  0  0  0  0  0  0  0  0
  149.1001  141.4306  157.7037 H   0  0  0  0  0  0  0  0  0  0  0  0
  148.1428  139.6465  154.7808 H   0  0  0  0  0  0  0  0  0  0  0  0
  147.9021  139.7109  156.5149 H   0  0  0  0  0  0  0  0  0  0  0  0
  144.8499  144.3909  153.5663 H   0  0  0  0  0  0  0  0  0  0  0  0
  145.3509  143.1432  152.4294 H   0  0  0  0  0  0  0  0  0  0  0  0
  146.5081  144.3555  152.9758 H   0  0  0  0  0  0  0  0  0  0  0  0
  144.6843  143.3710  156.1459 H   0  0  0  0  0  0  0  0  0  0  0  0
  145.3310  141.8240  158.3265 H   0  0  0  0  0  0  0  0  0  0  0  0
  147.0483  141.4274  158.3119 H   0  0  0  0  0  0  0  0  0  0  0  0
  145.8608  140.2358  157.7748 H   0  0  0  0  0  0  0  0  0  0  0  0
  150.8840  143.8736  156.2978 H   0  0  0  0  0  0  0  0  0  0  0  0
  150.1229  143.9003  157.8707 H   0  0  0  0  0  0  0  0  0  0  0  0
  152.1517  145.3219  157.8777 H   0  0  0  0  0  0  0  0  0  0  0  0
  153.1396  143.9871  157.3595 H   0  0  0  0  0  0  0  0  0  0  0  0
  1  2  1  0  0  0  0
  1 21  1  0  0  0  0
  1 22  1  0  0  0  0
  1 23  1  0  0  0  0
  2  3  2  0  0  0  0
  2  4  1  0  0  0  0
  4 20  1  0  0  0  0
  4  5  1  0  0  0  0
  5  6  1  0  0  0  0
  5 24  1  0  0  0  0
  5 25  1  0  0  0  0
  6  7  1  0  0  0  0
  6 26  1  0  0  0  0
  6 27  1  0  0  0  0
  7  8  1  0  0  0  0
  7 19  1  0  0  0  0
  7 28  1  0  0  0  0
  8  9  1  0  0  0  0
  8 29  1  0  0  0  0
  9 10  2  0  0  0  0
  9 11  1  0  0  0  0
 11 12  1  0  0  0  0
 11 30  1  0  0  0  0
 11 31  1  0  0  0  0
 12 17  1  0  0  0  0
 12 13  1  0  0  0  0
 13 14  2  0  0  0  0
 14 15  1  0  0  0  0
 14 16  1  0  0  0  0
 15 32  1  0  0  0  0
 15 33  1  0  0  0  0
 15 34  1  0  0  0  0
 16 17  2  0  0  0  0
 16 35  1  0  0  0  0
 17 18  1  0  0  0  0
 18 36  1  0  0  0  0
 18 37  1  0  0  0  0
 18 38  1  0  0  0  0
 19 20  1  0  0  0  0
 19 39  1  0  0  0  0
 19 40  1  0  0  0  0
 20 41  1  0  0  0  0
 20 42  1  0  0  0  0
M  END
> <s_m_source_file>
AV-unprocessed.smi

> <i_m_source_file_index>
1183

> <i_lp_mmshare_version>
43012

> <i_f3d_flags>
0

> <s_epik_input>
W0NIM11DKD1PKU4xW0NIMl1bQ0gyXVtDSF0oW0NIMl1bQ0gyXTEpW05IXUMoPU8pW0NIMl1uMm5jKFtDSDNdKVtjSF1jMltDSDNd

> <s_epik_cmdline>
J2VwaWtfcHl0aG9uJywgJy1waCcsICc3LjAnLCAnLXRuJywgJzgnLCAnLW1hJywgJzIwMCcsICctbWV0YWxfYmluZGluZycsICctaW1hZScsICc8aW5maWxlLm1hZT4nLCAnLW9tYWUnLCAnPG91dGZpbGUubWFlPic=

> <r_lp_tautomer_probability>
1

> <r_epik_Ionization_Penalty>
0.000413777

> <r_epik_Ionization_Penalty_Charging>
0

> <r_epik_Ionization_Penalty_Neutral>
0.000413777

> <r_epik_State_Penalty>
-0

> <r_epik_Charging_Adjusted_Penalty>
0

> <i_epik_Tot_Q>
0

> <i_epik_Tot_abs_Q>
0

> <r_epik_Metal_State_Penalty>
-0

> <b_epik_Metal_Only>
0

> <s_lp_Force_Field>
OPLS_2005

> <r_lp_Energy>
21.0351

> <b_lp_Chiralities_Consistent>
1

> <s_lp_Variant>
AV-unprocessed.smi:1183-1

> <Gold.Version>
5.8.1

> <Gold.Id.Protein>
6NUR|6NUR_protein|mol2

> <Gold.PLP.Fitness>
41.4411

> <Gold.PLP.PLP>
-40.3525

> <Gold.PLP.part.hbond>
-1.0000

> <Gold.PLP.part.metal>
0.0000

> <Gold.PLP.part.buried>
-4.1315

> <Gold.PLP.part.nonpolar>
-36.0828

> <Gold.PLP.part.repulsive>
0.4882

> <Gold.PLP.ligand.clash>
0.0000

> <Gold.PLP.ligand.torsion>
0.6171

> <Gold.PLP.Chemscore.Hbond>
0.7680

> <Gold.PLP.Chemscore.CHOScore>
0.0000

> <Gold.PLP.Chemscore.Metal>
0.0000

> <Gold.Chemscore.Hbonds>
donor molecule, donor type, donor heavy atom, donor atom, acceptor molecule, acceptor atom, score
      P1  H  7989  7998       L1    10  0.80

> <Gold.PLP.Chemscore.Internal.Correction>
0.0188

> <Gold.Rescore>
     Score         DG    S(hbond)    S(metal)    S(lipo)     H(rot)  DE(clash)    DE(int)     intcor
     14.00     -14.71       0.84        0.00      85.80       1.41       0.05       0.66       ----

> <Gold.Chemscore.Fitness>
14.0041

> <Gold.Chemscore.DG>
-14.7136

> <Gold.Chemscore.ZeroCoef>
-5.4800

> <Gold.Chemscore.Hbond>
0.8370

> <Gold.Chemscore.Metal>
0.0000

> <Gold.Chemscore.Lipo>
85.7973

> <Gold.Chemscore.Internal_Hbond>
0.0000

> <Gold.Chemscore.DEClash>
0.0522

> <Gold.Chemscore.DEInternal>
0.6572

> <Gold.Chemscore.Rot>
1.4064

> <Gold.Chemscore.Internal.Correction>
   9.000000E+99

> <Gold.Chemscore.Hbonds>
donor molecule, donor type, donor heavy atom, donor atom, acceptor molecule, acceptor atom, score
      P1  H  7989  7998       L1    10  0.80

> <Gold.Chemscore.Hbond.Weighted>
-2.7956

> <Gold.Chemscore.Metal.Weighted>
-0.0000

> <Gold.Chemscore.Lipo.Weighted>
-10.0383

> <Gold.Chemscore.Internal_Hbond.Weighted>
0.0000

> <Gold.Chemscore.DEClash.Weighted>
0.0522

> <Gold.Chemscore.DEInternal.Weighted>
0.6572

> <Gold.Chemscore.Rot.Weighted>
3.6003

> <Gold.Chemscore.Internal.Correction.Weighted>
   9.000000E+99

> <Gold.Protein.RotatedTorsions>
[ 6907 6896 6895 6894 ] final  -19.30 input  -60.11 | X-H torsion
[ 7974 7965 7964 7962 ] final -115.06 input  175.53 | X-H torsion
[ 8008 7997 7996 7995 ] final   91.12 input   59.86 | X-H torsion
[ 10167 10162 10161 10158 ] final  -20.72 input  -65.29 | X-H torsion
[ 10718 10713 10712 10709 ] final  -64.88 input   66.30 | X-H torsion
[ 10763 10752 10751 10750 ] final   54.55 input  -60.55 | X-H torsion
[ 11005 11000 10999 10996 ] final  -68.60 input  -57.11 | X-H torsion

> <Gold.Protein.ActiveResidues>
 VAL166  LYS551  ARG553  GLY616  TRP617  ASP618  TYR619  PRO620  LYS621  CYS622 
 ASP623  PHE694  ASN695  SER759  ASP760  ASP761  ALA762  ILE779  LEU786  VAL792 
 PHE793  MET794  SER795  GLU796  ALA797  LYS798  CYS799  TRP800  GLU811  SER814 

> <Gold.Protein.RotatedAtoms>
  151.2652  135.0667  159.9113 H   0  0  0  0  0  0  0  0  0  0  0  0  # atno 6907 bound_to 6896
  152.5359  134.0188  159.7982 H   0  0  0  0  0  0  0  0  0  0  0  0  # atno 6908 bound_to 6896
  151.0418  133.5650  159.2681 H   0  0  0  0  0  0  0  0  0  0  0  0  # atno 6909 bound_to 6896
  145.1129  140.8622  143.3859 H   0  0  0  0  0  0  0  0  0  0  0  0  # atno 7974 bound_to 7965
  156.0200  140.3341  155.7028 H   0  0  0  0  0  0  0  0  0  0  0  0  # atno 8008 bound_to 7997
  155.6036  140.0658  157.2743 H   0  0  0  0  0  0  0  0  0  0  0  0  # atno 8009 bound_to 7997
  154.4312  140.1806  156.1187 H   0  0  0  0  0  0  0  0  0  0  0  0  # atno 8010 bound_to 7997
  140.7278  143.4696  151.0266 H   0  0  0  0  0  0  0  0  0  0  0  0  # atno 10167 bound_to 10162
  156.0702  130.4239  150.1484 H   0  0  0  0  0  0  0  0  0  0  0  0  # atno 10718 bound_to 10713
  152.9806  135.5741  154.4923 H   0  0  0  0  0  0  0  0  0  0  0  0  # atno 10763 bound_to 10752
  154.4456  135.2777  155.1819 H   0  0  0  0  0  0  0  0  0  0  0  0  # atno 10764 bound_to 10752
  154.3469  135.6217  153.5677 H   0  0  0  0  0  0  0  0  0  0  0  0  # atno 10765 bound_to 10752
  141.1535  133.6744  156.6471 H   0  0  0  0  0  0  0  0  0  0  0  0  # atno 11005 bound_to 11000
  145.0827  139.2948  143.5775 LP  0  0  0  0  0  0  0  0  0  0  0  0  # atno 17320 bound_to 7965
  146.3525  140.0338  142.8648 LP  0  0  0  0  0  0  0  0  0  0  0  0  # atno 17321 bound_to 7965
  139.8387  143.7593  152.3180 LP  0  0  0  0  0  0  0  0  0  0  0  0  # atno 17342 bound_to 10162
  139.7734  144.7469  151.0191 LP  0  0  0  0  0  0  0  0  0  0  0  0  # atno 17343 bound_to 10162
  156.9536  130.9782  151.3493 LP  0  0  0  0  0  0  0  0  0  0  0  0  # atno 17370 bound_to 10713
  157.5769  130.8349  149.8468 LP  0  0  0  0  0  0  0  0  0  0  0  0  # atno 17371 bound_to 10713
  140.3349  134.7898  157.4354 LP  0  0  0  0  0  0  0  0  0  0  0  0  # atno 17394 bound_to 11000
  140.0986  134.5503  155.8374 LP  0  0  0  0  0  0  0  0  0  0  0  0  # atno 17395 bound_to 11000

$$$$
