AV-unprocessed.smi:3148|AV-procd|sdf|11996|dock2
  -GOLD-   2272017403D 1   1.00000     0.00000
 Structure written by MMmdl.
 35 37  0  0  0  0  0  0  0  0  2 V2000
  153.7664  140.6513  160.2436 C   0  0  0  0  0  0  0  0  0  0  0  0
  152.9385  140.4197  159.1085 O   0  0  0  0  0  0  0  0  0  0  0  0
  152.2456  141.4870  158.5758 C   0  0  0  0  0  0  0  0  0  0  0  0
  152.4777  142.7811  159.0699 C   0  0  0  0  0  0  0  0  0  0  0  0
  151.7402  143.8305  158.4885 C   0  0  0  0  0  0  0  0  0  0  0  0
  151.9025  145.2691  158.9304 C   0  0  0  0  0  0  0  0  0  0  0  0
  150.8533  143.5699  157.4960 N   0  3  0  0  0  0  0  0  0  0  0  0
  150.6801  142.3113  157.0661 C   0  0  0  0  0  0  0  0  0  0  0  0
  149.7699  142.1034  156.0456 N   0  0  0  0  0  0  0  0  0  0  0  0
  149.4708  140.7969  155.4708 C   0  0  1  0  0  0  0  0  0  0  0  0
  148.4773  139.9843  156.3046 C   0  0  0  0  0  0  0  0  0  0  0  0
  147.4047  139.6355  155.2631 C   0  0  1  0  0  0  0  0  0  0  0  0
  146.5267  140.8489  154.9310 C   0  0  0  0  0  0  0  0  0  0  0  0
  147.4809  141.7045  154.1002 C   0  0  0  0  0  0  0  0  0  0  0  0
  148.7602  140.8497  154.1036 C   0  0  2  0  0  0  0  0  0  0  0  0
  148.1889  139.5528  154.0846 O   0  0  0  0  0  0  0  0  0  0  0  0
  151.3518  141.2729  157.5825 N   0  0  0  0  0  0  0  0  0  0  0  0
  154.2513  139.7189  160.5326 H   0  0  0  0  0  0  0  0  0  0  0  0
  153.1844  141.0008  161.0975 H   0  0  0  0  0  0  0  0  0  0  0  0
  154.5513  141.3767  160.0245 H   0  0  0  0  0  0  0  0  0  0  0  0
  153.1915  142.9582  159.8614 H   0  0  0  0  0  0  0  0  0  0  0  0
  152.5184  145.3378  159.8274 H   0  0  0  0  0  0  0  0  0  0  0  0
  150.9313  145.7131  159.1507 H   0  0  0  0  0  0  0  0  0  0  0  0
  152.3785  145.8544  158.1432 H   0  0  0  0  0  0  0  0  0  0  0  0
  149.4072  142.9193  155.5744 H   0  0  0  0  0  0  0  0  0  0  0  0
  150.3975  140.2289  155.3763 H   0  0  0  0  0  0  0  0  0  0  0  0
  148.9553  139.0818  156.6873 H   0  0  0  0  0  0  0  0  0  0  0  0
  148.0603  140.5308  157.1519 H   0  0  0  0  0  0  0  0  0  0  0  0
  146.8403  138.7317  155.4938 H   0  0  0  0  0  0  0  0  0  0  0  0
  145.6617  140.5528  154.3361 H   0  0  0  0  0  0  0  0  0  0  0  0
  146.1675  141.3598  155.8251 H   0  0  0  0  0  0  0  0  0  0  0  0
  147.0999  141.8164  153.0845 H   0  0  0  0  0  0  0  0  0  0  0  0
  147.6287  142.7025  154.5133 H   0  0  0  0  0  0  0  0  0  0  0  0
  149.4268  141.0520  153.2649 H   0  0  0  0  0  0  0  0  0  0  0  0
  150.3264  144.3395  157.0827 H   0  0  0  0  0  0  0  0  0  0  0  0
  1  2  1  0  0  0  0
  1 18  1  0  0  0  0
  1 19  1  0  0  0  0
  1 20  1  0  0  0  0
  2  3  1  0  0  0  0
  3 17  1  0  0  0  0
  3  4  2  0  0  0  0
  4  5  1  0  0  0  0
  4 21  1  0  0  0  0
  5  6  1  0  0  0  0
  5  7  2  0  0  0  0
  6 22  1  0  0  0  0
  6 23  1  0  0  0  0
  6 24  1  0  0  0  0
  7  8  1  0  0  0  0
  7 35  1  0  0  0  0
  8  9  1  0  0  0  0
  8 17  2  0  0  0  0
  9 10  1  0  0  0  0
  9 25  1  0  0  0  0
 10 15  1  0  0  0  0
 10 11  1  0  0  0  0
 10 26  1  0  0  0  0
 11 12  1  0  0  0  0
 11 27  1  0  0  0  0
 11 28  1  0  0  0  0
 12 16  1  0  0  0  0
 12 13  1  0  0  0  0
 12 29  1  0  0  0  0
 13 14  1  0  0  0  0
 13 30  1  0  0  0  0
 13 31  1  0  0  0  0
 14 15  1  0  0  0  0
 14 32  1  0  0  0  0
 14 33  1  0  0  0  0
 15 16  1  0  0  0  0
 15 34  1  0  0  0  0
M  CHG  1   7   1
M  END
> <s_m_source_file>
AV-unprocessed.smi

> <i_m_source_file_index>
3148

> <i_lp_mmshare_version>
43012

> <i_f3d_flags>
0

> <s_epik_input>
W0NIM11PYzFbY0hdYyhbQ0gzXSluYyhuMSlbTkhdW0NASF0oW0NIMl1bQ0BASF0yMylbQ0BASF0oTzMpW0NIMl1bQ0gyXTI=

> <s_epik_cmdline>
J2VwaWtfcHl0aG9uJywgJy1waCcsICc3LjAnLCAnLXRuJywgJzgnLCAnLW1hJywgJzIwMCcsICctbWV0YWxfYmluZGluZycsICctaW1hZScsICc8aW5maWxlLm1hZT4nLCAnLW9tYWUnLCAnPG91dGZpbGUubWFlPic=

> <r_lp_tautomer_probability>
0.999985

> <r_epik_Ionization_Penalty>
1.09461

> <r_epik_Ionization_Penalty_Charging>
1.0946

> <r_epik_Ionization_Penalty_Neutral>
6.69406e-06

> <r_epik_State_Penalty>
1.15119

> <r_epik_Charging_Adjusted_Penalty>
2.24579

> <i_epik_Tot_Q>
1

> <i_epik_Tot_abs_Q>
1

> <r_epik_Metal_State_Penalty>
1.2392

> <b_epik_Metal_Only>
0

> <s_lp_Force_Field>
OPLS_2005

> <r_lp_Energy>
36.3956

> <b_lp_Chiralities_Consistent>
1

> <s_lp_Variant>
AV-unprocessed.smi:3148-6

> <Gold.Version>
5.8.1

> <Gold.Id.Protein>
6NUR|6NUR_protein|mol2

> <Gold.PLP.Fitness>
42.6934

> <Gold.PLP.PLP>
-32.1600

> <Gold.PLP.part.hbond>
-2.0000

> <Gold.PLP.part.metal>
0.0000

> <Gold.PLP.part.buried>
-5.4360

> <Gold.PLP.part.nonpolar>
-26.4949

> <Gold.PLP.part.repulsive>
0.2674

> <Gold.PLP.ligand.clash>
0.0000

> <Gold.PLP.ligand.torsion>
0.3057

> <Gold.PLP.Chemscore.Hbond>
3.7120

> <Gold.PLP.Chemscore.CHOScore>
0.0000

> <Gold.PLP.Chemscore.Metal>
0.0000

> <Gold.Chemscore.Hbonds>
donor molecule, donor type, donor heavy atom, donor atom, acceptor molecule, acceptor atom, score
      L1  H     7    35       P1  8028  1.71
      L1  H     9    25       P1  8028  1.98

> <Gold.PLP.Chemscore.Internal.Correction>
0.0088

> <Gold.Rescore>
     Score         DG    S(hbond)    S(metal)    S(lipo)     H(rot)  DE(clash)    DE(int)     intcor
     16.36     -16.71       1.68        0.00      75.24       1.24       0.03       0.32       ----

> <Gold.Chemscore.Fitness>
16.3598

> <Gold.Chemscore.DG>
-16.7113

> <Gold.Chemscore.ZeroCoef>
-5.4800

> <Gold.Chemscore.Hbond>
1.6755

> <Gold.Chemscore.Metal>
0.0000

> <Gold.Chemscore.Lipo>
75.2428

> <Gold.Chemscore.Internal_Hbond>
0.0000

> <Gold.Chemscore.DEClash>
0.0297

> <Gold.Chemscore.DEInternal>
0.3218

> <Gold.Chemscore.Rot>
1.2376

> <Gold.Chemscore.Internal.Correction>
   9.000000E+99

> <Gold.Chemscore.Hbonds>
donor molecule, donor type, donor heavy atom, donor atom, acceptor molecule, acceptor atom, score
      L1  H     7    35       P1  8028  0.68
      L1  H     9    25       P1  8028  0.93

> <Gold.Chemscore.Hbond.Weighted>
-5.5961

> <Gold.Chemscore.Metal.Weighted>
-0.0000

> <Gold.Chemscore.Lipo.Weighted>
-8.8034

> <Gold.Chemscore.Internal_Hbond.Weighted>
0.0000

> <Gold.Chemscore.DEClash.Weighted>
0.0297

> <Gold.Chemscore.DEInternal.Weighted>
0.3218

> <Gold.Chemscore.Rot.Weighted>
3.1681

> <Gold.Chemscore.Internal.Correction.Weighted>
   9.000000E+99

> <Gold.Protein.RotatedTorsions>
[ 6907 6896 6895 6894 ] final  -85.89 input  -60.11 | X-H torsion
[ 7974 7965 7964 7962 ] final -111.86 input  175.53 | X-H torsion
[ 8008 7997 7996 7995 ] final  142.32 input   59.86 | X-H torsion
[ 10167 10162 10161 10158 ] final -172.65 input  -65.29 | X-H torsion
[ 10718 10713 10712 10709 ] final  140.45 input   66.30 | X-H torsion
[ 10763 10752 10751 10750 ] final  -21.48 input  -60.55 | X-H torsion
[ 11005 11000 10999 10996 ] final   67.63 input  -57.11 | X-H torsion

> <Gold.Protein.ActiveResidues>
 VAL166  LYS551  ARG553  GLY616  TRP617  ASP618  TYR619  PRO620  LYS621  CYS622 
 ASP623  PHE694  ASN695  SER759  ASP760  ASP761  ALA762  ILE779  LEU786  VAL792 
 PHE793  MET794  SER795  GLU796  ALA797  LYS798  CYS799  TRP800  GLU811  SER814 

> <Gold.Protein.RotatedAtoms>
  150.6868  134.3135  159.4756 H   0  0  0  0  0  0  0  0  0  0  0  0  # atno 6907 bound_to 6896
  152.1018  134.9333  160.0578 H   0  0  0  0  0  0  0  0  0  0  0  0  # atno 6908 bound_to 6896
  152.0609  133.4027  159.4454 H   0  0  0  0  0  0  0  0  0  0  0  0  # atno 6909 bound_to 6896
  145.1510  140.8829  143.3646 H   0  0  0  0  0  0  0  0  0  0  0  0  # atno 7974 bound_to 7965
  156.2951  140.2292  156.4708 H   0  0  0  0  0  0  0  0  0  0  0  0  # atno 8008 bound_to 7997
  154.7937  140.0452  157.1241 H   0  0  0  0  0  0  0  0  0  0  0  0  # atno 8009 bound_to 7997
  154.9615  140.3055  155.5032 H   0  0  0  0  0  0  0  0  0  0  0  0  # atno 8010 bound_to 7997
  139.5732  144.1592  152.1414 H   0  0  0  0  0  0  0  0  0  0  0  0  # atno 10167 bound_to 10162
  157.4032  131.1019  151.0531 H   0  0  0  0  0  0  0  0  0  0  0  0  # atno 10718 bound_to 10713
  153.6368  135.6987  153.5255 H   0  0  0  0  0  0  0  0  0  0  0  0  # atno 10763 bound_to 10752
  153.2814  135.4184  155.1082 H   0  0  0  0  0  0  0  0  0  0  0  0  # atno 10764 bound_to 10752
  154.8509  135.3603  154.5912 H   0  0  0  0  0  0  0  0  0  0  0  0  # atno 10765 bound_to 10752
  139.9759  134.6823  156.0355 H   0  0  0  0  0  0  0  0  0  0  0  0  # atno 11005 bound_to 11000
  145.0431  139.3244  143.5967 LP  0  0  0  0  0  0  0  0  0  0  0  0  # atno 17320 bound_to 7965
  146.3494  139.9811  142.8695 LP  0  0  0  0  0  0  0  0  0  0  0  0  # atno 17321 bound_to 7965
  140.1130  144.5441  150.6913 LP  0  0  0  0  0  0  0  0  0  0  0  0  # atno 17342 bound_to 10162
  140.7016  143.2439  151.4847 LP  0  0  0  0  0  0  0  0  0  0  0  0  # atno 17343 bound_to 10162
  157.1522  130.6189  149.5585 LP  0  0  0  0  0  0  0  0  0  0  0  0  # atno 17370 bound_to 10713
  155.9829  130.4845  150.6905 LP  0  0  0  0  0  0  0  0  0  0  0  0  # atno 17371 bound_to 10713
  141.1436  133.6560  156.3802 LP  0  0  0  0  0  0  0  0  0  0  0  0  # atno 17394 bound_to 11000
  140.5196  134.6317  157.5313 LP  0  0  0  0  0  0  0  0  0  0  0  0  # atno 17395 bound_to 11000

$$$$
