AV-unprocessed.smi:1002|AV-procd|sdf|4359|dock4
  -GOLD-   22720 2263D 1   1.00000     0.00000
 Structure written by MMmdl.
 36 37  0  0  0  0  0  0  0  0  2 V2000
  146.7401  133.1974  154.8316 O   0  0  0  0  0  0  0  0  0  0  0  0
  147.0224  133.9159  153.8727 C   0  0  0  0  0  0  0  0  0  0  0  0
  145.9085  134.5469  153.0365 C   0  0  0  0  0  0  0  0  0  0  0  0
  145.4450  133.5841  151.9575 C   0  0  0  0  0  0  0  0  0  0  0  0
  144.1155  133.6142  151.4868 C   0  0  0  0  0  0  0  0  0  0  0  0
  143.7361  132.6995  150.4842 C   0  0  0  0  0  0  0  0  0  0  0  0
  144.5812  131.7920  149.9492 N   0  0  0  0  0  0  0  0  0  0  0  0
  145.8518  131.7671  150.4056 C   0  0  0  0  0  0  0  0  0  0  0  0
  146.3325  132.6363  151.4055 C   0  0  0  0  0  0  0  0  0  0  0  0
  148.2810  134.1944  153.4984 N   0  0  0  0  0  0  0  0  0  0  0  0
  149.4886  133.7096  154.1586 C   0  0  2  0  0  0  0  0  0  0  0  0
  149.3548  132.1981  154.4234 C   0  0  0  0  0  0  0  0  0  0  0  0
  150.5717  131.6493  155.1926 C   0  0  0  0  0  0  0  0  0  0  0  0
  150.8239  132.4071  156.5196 C   0  0  2  0  0  0  0  0  0  0  0  0
  149.7612  132.0971  157.6005 C   0  0  0  0  0  0  0  0  0  0  0  0
  149.4436  130.9000  157.7771 O   0  0  0  0  0  0  0  0  0  0  0  0
  149.2549  133.0598  158.2192 O   0  5  0  0  0  0  0  0  0  0  0  0
  150.9535  133.9232  156.2325 C   0  0  0  0  0  0  0  0  0  0  0  0
  149.7373  134.4825  155.4708 C   0  0  0  0  0  0  0  0  0  0  0  0
  145.0678  134.8218  153.6754 H   0  0  0  0  0  0  0  0  0  0  0  0
  146.2706  135.4692  152.5802 H   0  0  0  0  0  0  0  0  0  0  0  0
  143.4021  134.3228  151.8813 H   0  0  0  0  0  0  0  0  0  0  0  0
  142.7260  132.6969  150.1021 H   0  0  0  0  0  0  0  0  0  0  0  0
  146.5060  131.0319  149.9607 H   0  0  0  0  0  0  0  0  0  0  0  0
  147.3593  132.5776  151.7357 H   0  0  0  0  0  0  0  0  0  0  0  0
  148.4147  134.7925  152.6959 H   0  0  0  0  0  0  0  0  0  0  0  0
  150.3421  133.8607  153.4944 H   0  0  0  0  0  0  0  0  0  0  0  0
  148.4425  131.9996  154.9876 H   0  0  0  0  0  0  0  0  0  0  0  0
  149.2500  131.6631  153.4788 H   0  0  0  0  0  0  0  0  0  0  0  0
  150.4517  130.5795  155.3680 H   0  0  0  0  0  0  0  0  0  0  0  0
  151.4568  131.7401  154.5620 H   0  0  0  0  0  0  0  0  0  0  0  0
  151.7714  132.0589  156.9322 H   0  0  0  0  0  0  0  0  0  0  0  0
  151.1073  134.4870  157.1531 H   0  0  0  0  0  0  0  0  0  0  0  0
  151.8514  134.0931  155.6372 H   0  0  0  0  0  0  0  0  0  0  0  0
  149.8999  135.5397  155.2579 H   0  0  0  0  0  0  0  0  0  0  0  0
  148.8507  134.4330  156.1044 H   0  0  0  0  0  0  0  0  0  0  0  0
  1  2  2  0  0  0  0
  2  3  1  0  0  0  0
  2 10  1  0  0  0  0
  3  4  1  0  0  0  0
  3 20  1  0  0  0  0
  3 21  1  0  0  0  0
  4  9  1  0  0  0  0
  4  5  2  0  0  0  0
  5  6  1  0  0  0  0
  5 22  1  0  0  0  0
  6  7  2  0  0  0  0
  6 23  1  0  0  0  0
  7  8  1  0  0  0  0
  8  9  2  0  0  0  0
  8 24  1  0  0  0  0
  9 25  1  0  0  0  0
 10 11  1  0  0  0  0
 10 26  1  0  0  0  0
 11 19  1  0  0  0  0
 11 12  1  0  0  0  0
 11 27  1  0  0  0  0
 12 13  1  0  0  0  0
 12 28  1  0  0  0  0
 12 29  1  0  0  0  0
 13 14  1  0  0  0  0
 13 30  1  0  0  0  0
 13 31  1  0  0  0  0
 14 15  1  0  0  0  0
 14 18  1  0  0  0  0
 14 32  1  0  0  0  0
 15 16  2  0  0  0  0
 15 17  1  0  0  0  0
 18 19  1  0  0  0  0
 18 33  1  0  0  0  0
 18 34  1  0  0  0  0
 19 35  1  0  0  0  0
 19 36  1  0  0  0  0
M  CHG  1  17  -1
M  END
> <s_m_source_file>
AV-unprocessed.smi

> <i_m_source_file_index>
1002

> <i_lp_mmshare_version>
43012

> <i_f3d_flags>
0

> <s_epik_input>
Tz1DKFtPSF0pW0NAQEhdKFtDSDJdW0NIMl0xKVtDSDJdW0NIMl1bQ0BIXTFbTkhdQyg9TylbQ0gyXWMyW2NIXVtjSF1uW2NIXVtjSF0y

> <s_epik_cmdline>
J2VwaWtfcHl0aG9uJywgJy1waCcsICc3LjAnLCAnLXRuJywgJzgnLCAnLW1hJywgJzIwMCcsICctbWV0YWxfYmluZGluZycsICctaW1hZScsICc8aW5maWxlLm1hZT4nLCAnLW9tYWUnLCAnPG91dGZpbGUubWFlPic=

> <r_lp_tautomer_probability>
1

> <r_epik_Ionization_Penalty>
0.0065671

> <r_epik_Ionization_Penalty_Charging>
0.00222897

> <r_epik_Ionization_Penalty_Neutral>
0.00433813

> <r_epik_State_Penalty>
-0

> <r_epik_Charging_Adjusted_Penalty>
0.00222897

> <i_epik_Tot_Q>
-1

> <i_epik_Tot_abs_Q>
1

> <r_epik_Metal_State_Penalty>
-0

> <b_epik_Metal_Only>
0

> <s_lp_Force_Field>
OPLS_2005

> <r_lp_Energy>
6.9224

> <b_lp_Chiralities_Consistent>
1

> <s_lp_Variant>
AV-unprocessed.smi:1002-2

> <Gold.Version>
5.8.1

> <Gold.Id.Protein>
6NUR|6NUR_protein|mol2

> <Gold.PLP.Fitness>
43.3639

> <Gold.PLP.PLP>
-30.7484

> <Gold.PLP.part.hbond>
-2.5685

> <Gold.PLP.part.metal>
0.0000

> <Gold.PLP.part.buried>
-4.1106

> <Gold.PLP.part.nonpolar>
-23.4136

> <Gold.PLP.part.repulsive>
0.1914

> <Gold.PLP.ligand.clash>
0.0000

> <Gold.PLP.ligand.torsion>
1.1451

> <Gold.PLP.Chemscore.Hbond>
3.0000

> <Gold.PLP.Chemscore.CHOScore>
1.9574

> <Gold.PLP.Chemscore.Metal>
0.0000

> <Gold.Chemscore.Hbonds>
donor molecule, donor type, donor heavy atom, donor atom, acceptor molecule, acceptor atom, score
      L1  H    10    26       P1  7948  1.00
      P1  H  6896  6908       L1    17  1.80
      L1  C     6    23       P1 10186  1.00
      L1  C     8    24       P1 10747  0.95

> <Gold.PLP.Chemscore.Internal.Correction>
0.0334

> <Gold.Rescore>
     Score         DG    S(hbond)    S(metal)    S(lipo)     H(rot)  DE(clash)    DE(int)     intcor
     11.52     -14.16       1.76        0.00      65.08       1.88       0.03       2.61       ----

> <Gold.Chemscore.Fitness>
11.5249

> <Gold.Chemscore.DG>
-14.1628

> <Gold.Chemscore.ZeroCoef>
-5.4800

> <Gold.Chemscore.Hbond>
1.7631

> <Gold.Chemscore.Metal>
0.0000

> <Gold.Chemscore.Lipo>
65.0750

> <Gold.Chemscore.Internal_Hbond>
0.0000

> <Gold.Chemscore.DEClash>
0.0310

> <Gold.Chemscore.DEInternal>
2.6069

> <Gold.Chemscore.Rot>
1.8828

> <Gold.Chemscore.Internal.Correction>
   9.000000E+99

> <Gold.Chemscore.Hbonds>
donor molecule, donor type, donor heavy atom, donor atom, acceptor molecule, acceptor atom, score
      L1  H    10    26       P1  7948  0.39
      P1  H  6896  6908       L1    17  0.17
      P1  H 10785 10796       L1     7  0.02

> <Gold.Chemscore.Hbond.Weighted>
-5.8889

> <Gold.Chemscore.Metal.Weighted>
-0.0000

> <Gold.Chemscore.Lipo.Weighted>
-7.6138

> <Gold.Chemscore.Internal_Hbond.Weighted>
0.0000

> <Gold.Chemscore.DEClash.Weighted>
0.0310

> <Gold.Chemscore.DEInternal.Weighted>
2.6069

> <Gold.Chemscore.Rot.Weighted>
4.8199

> <Gold.Chemscore.Internal.Correction.Weighted>
   9.000000E+99

> <Gold.Protein.RotatedTorsions>
[ 6907 6896 6895 6894 ] final  107.74 input  -60.11 | X-H torsion
[ 7974 7965 7964 7962 ] final -114.23 input  175.53 | X-H torsion
[ 8008 7997 7996 7995 ] final -119.59 input   59.86 | X-H torsion
[ 10167 10162 10161 10158 ] final  140.34 input  -65.29 | X-H torsion
[ 10718 10713 10712 10709 ] final   22.62 input   66.30 | X-H torsion
[ 10763 10752 10751 10750 ] final -108.90 input  -60.55 | X-H torsion
[ 11005 11000 10999 10996 ] final  -45.84 input  -57.11 | X-H torsion

> <Gold.Protein.ActiveResidues>
 VAL166  LYS551  ARG553  GLY616  TRP617  ASP618  TYR619  PRO620  LYS621  CYS622 
 ASP623  PHE694  ASN695  SER759  ASP760  ASP761  ALA762  ILE779  LEU786  VAL792 
 PHE793  MET794  SER795  GLU796  ALA797  LYS798  CYS799  TRP800  GLU811  SER814 

> <Gold.Protein.RotatedAtoms>
  152.5141  133.9190  159.7524 H   0  0  0  0  0  0  0  0  0  0  0  0  # atno 6907 bound_to 6896
  150.9566  133.6482  159.2769 H   0  0  0  0  0  0  0  0  0  0  0  0  # atno 6908 bound_to 6896
  151.3742  135.0933  159.9528 H   0  0  0  0  0  0  0  0  0  0  0  0  # atno 6909 bound_to 6896
  145.1226  140.8678  143.3805 H   0  0  0  0  0  0  0  0  0  0  0  0  # atno 7974 bound_to 7965
  155.1181  140.0398  157.2742 H   0  0  0  0  0  0  0  0  0  0  0  0  # atno 8008 bound_to 7997
  154.6634  140.2596  155.7058 H   0  0  0  0  0  0  0  0  0  0  0  0  # atno 8009 bound_to 7997
  156.2629  140.2812  156.1115 H   0  0  0  0  0  0  0  0  0  0  0  0  # atno 8010 bound_to 7997
  139.5051  144.6240  151.5983 H   0  0  0  0  0  0  0  0  0  0  0  0  # atno 10167 bound_to 10162
  157.1549  130.6691  149.6024 H   0  0  0  0  0  0  0  0  0  0  0  0  # atno 10718 bound_to 10713
  154.8162  135.4621  154.0651 H   0  0  0  0  0  0  0  0  0  0  0  0  # atno 10763 bound_to 10752
  153.2041  135.6873  153.8201 H   0  0  0  0  0  0  0  0  0  0  0  0  # atno 10764 bound_to 10752
  153.7675  135.3275  155.3324 H   0  0  0  0  0  0  0  0  0  0  0  0  # atno 10765 bound_to 10752
  141.0541  133.6732  156.3070 H   0  0  0  0  0  0  0  0  0  0  0  0  # atno 11005 bound_to 11000
  145.0723  139.3022  143.5825 LP  0  0  0  0  0  0  0  0  0  0  0  0  # atno 17320 bound_to 7965
  146.3520  140.0202  142.8659 LP  0  0  0  0  0  0  0  0  0  0  0  0  # atno 17321 bound_to 7965
  140.5951  143.9711  150.6349 LP  0  0  0  0  0  0  0  0  0  0  0  0  # atno 17342 bound_to 10162
  140.2904  143.3328  152.1067 LP  0  0  0  0  0  0  0  0  0  0  0  0  # atno 17343 bound_to 10162
  155.9764  130.4732  150.6525 LP  0  0  0  0  0  0  0  0  0  0  0  0  # atno 17370 bound_to 10713
  157.4187  131.0833  151.1152 LP  0  0  0  0  0  0  0  0  0  0  0  0  # atno 17371 bound_to 10713
  140.5998  134.5566  157.5515 LP  0  0  0  0  0  0  0  0  0  0  0  0  # atno 17394 bound_to 11000
  139.9375  134.7848  156.0764 LP  0  0  0  0  0  0  0  0  0  0  0  0  # atno 17395 bound_to 11000

$$$$
