AV-unprocessed.smi:2217|AV-procd|sdf|8969|dock1
  -GOLD-   2272012183D 1   1.00000     0.00000
 Structure written by MMmdl.
 45 48  0  0  0  0  0  0  0  0  1 V2000
  141.4031  145.8556  160.2800 C   0  0  0  0  0  0  0  0  0  0  0  0
  142.7624  145.3967  159.7958 C   0  0  0  0  0  0  0  0  0  0  0  0
  143.2616  145.7951  158.5416 C   0  0  0  0  0  0  0  0  0  0  0  0
  144.5344  145.3429  158.1431 C   0  0  0  0  0  0  0  0  0  0  0  0
  145.2809  144.5056  159.0030 C   0  0  0  0  0  0  0  0  0  0  0  0
  146.5558  144.1201  158.4913 N   0  0  0  0  0  0  0  0  0  0  0  0
  147.5171  143.3179  158.9975 C   0  0  0  0  0  0  0  0  0  0  0  0
  147.3753  142.7618  160.0853 O   0  0  0  0  0  0  0  0  0  0  0  0
  148.6162  143.1642  158.2448 N   0  0  0  0  0  0  0  0  0  0  0  0
  149.7598  142.3111  158.5803 C   0  0  1  0  0  0  0  0  0  0  0  0
  149.9867  141.1628  157.5926 C   0  0  1  0  0  0  0  0  0  0  0  0
  149.1555  140.4452  156.5914 C   0  0  0  0  0  0  0  0  0  0  0  0
  150.2220  140.3714  155.4667 C   0  0  0  0  0  0  0  0  0  0  0  0
  151.3157  141.2205  155.8974 O   0  0  0  0  0  0  0  0  0  0  0  0
  150.6983  142.1840  156.7293 C   0  0  2  0  0  0  0  0  0  0  0  0
  151.1451  142.8500  158.0527 C   0  0  0  0  0  0  0  0  0  0  0  0
  151.3564  144.3695  158.0309 C   0  0  0  0  0  0  0  0  0  0  0  0
  152.8444  144.6335  158.2404 C   0  0  0  0  0  0  0  0  0  0  0  0
  153.2899  143.4923  159.1428 C   0  0  0  0  0  0  0  0  0  0  0  0
  152.4313  142.3051  158.7061 C   0  0  0  0  0  0  0  0  0  0  0  0
  144.7873  144.1292  160.2107 N   0  0  0  0  0  0  0  0  0  0  0  0
  143.5677  144.5617  160.5929 C   0  0  0  0  0  0  0  0  0  0  0  0
  140.7820  146.1907  159.4486 H   0  0  0  0  0  0  0  0  0  0  0  0
  141.5139  146.6825  160.9818 H   0  0  0  0  0  0  0  0  0  0  0  0
  140.8825  145.0422  160.7861 H   0  0  0  0  0  0  0  0  0  0  0  0
  142.6834  146.4372  157.8935 H   0  0  0  0  0  0  0  0  0  0  0  0
  144.9315  145.6416  157.1837 H   0  0  0  0  0  0  0  0  0  0  0  0
  146.7971  144.5520  157.6114 H   0  0  0  0  0  0  0  0  0  0  0  0
  148.6560  143.6583  157.3643 H   0  0  0  0  0  0  0  0  0  0  0  0
  149.7871  142.0024  159.6266 H   0  0  0  0  0  0  0  0  0  0  0  0
  150.6823  140.4525  158.0516 H   0  0  0  0  0  0  0  0  0  0  0  0
  148.8336  139.4614  156.9333 H   0  0  0  0  0  0  0  0  0  0  0  0
  148.2823  141.0239  156.2876 H   0  0  0  0  0  0  0  0  0  0  0  0
  150.5865  139.3549  155.3163 H   0  0  0  0  0  0  0  0  0  0  0  0
  149.8128  140.7288  154.5208 H   0  0  0  0  0  0  0  0  0  0  0  0
  150.0311  142.8223  156.1408 H   0  0  0  0  0  0  0  0  0  0  0  0
  151.0038  144.8272  157.1058 H   0  0  0  0  0  0  0  0  0  0  0  0
  150.7966  144.8352  158.8432 H   0  0  0  0  0  0  0  0  0  0  0  0
  153.3669  144.5722  157.2849 H   0  0  0  0  0  0  0  0  0  0  0  0
  153.0437  145.6155  158.6705 H   0  0  0  0  0  0  0  0  0  0  0  0
  154.3587  143.2893  159.0711 H   0  0  0  0  0  0  0  0  0  0  0  0
  153.0666  143.7413  160.1809 H   0  0  0  0  0  0  0  0  0  0  0  0
  152.2207  141.6540  159.5550 H   0  0  0  0  0  0  0  0  0  0  0  0
  152.9925  141.7069  157.9876 H   0  0  0  0  0  0  0  0  0  0  0  0
  143.2277  144.2312  161.5634 H   0  0  0  0  0  0  0  0  0  0  0  0
  1  2  1  0  0  0  0
  1 23  1  0  0  0  0
  1 24  1  0  0  0  0
  1 25  1  0  0  0  0
  2 22  1  0  0  0  0
  2  3  2  0  0  0  0
  3  4  1  0  0  0  0
  3 26  1  0  0  0  0
  4  5  2  0  0  0  0
  4 27  1  0  0  0  0
  5  6  1  0  0  0  0
  5 21  1  0  0  0  0
  6  7  1  0  0  0  0
  6 28  1  0  0  0  0
  7  8  2  0  0  0  0
  7  9  1  0  0  0  0
  9 10  1  0  0  0  0
  9 29  1  0  0  0  0
 10 16  1  0  0  0  0
 10 11  1  0  0  0  0
 10 30  1  0  0  0  0
 11 15  1  0  0  0  0
 11 12  1  0  0  0  0
 11 31  1  0  0  0  0
 12 13  1  0  0  0  0
 12 32  1  0  0  0  0
 12 33  1  0  0  0  0
 13 14  1  0  0  0  0
 13 34  1  0  0  0  0
 13 35  1  0  0  0  0
 14 15  1  0  0  0  0
 15 16  1  0  0  0  0
 15 36  1  0  0  0  0
 16 20  1  0  0  0  0
 16 17  1  0  0  0  0
 17 18  1  0  0  0  0
 17 37  1  0  0  0  0
 17 38  1  0  0  0  0
 18 19  1  0  0  0  0
 18 39  1  0  0  0  0
 18 40  1  0  0  0  0
 19 20  1  0  0  0  0
 19 41  1  0  0  0  0
 19 42  1  0  0  0  0
 20 43  1  0  0  0  0
 20 44  1  0  0  0  0
 21 22  2  0  0  0  0
 22 45  1  0  0  0  0
M  END
> <s_m_source_file>
AV-unprocessed.smi

> <i_m_source_file_index>
2217

> <i_lp_mmshare_version>
43012

> <i_f3d_flags>
0

> <s_epik_input>
W0NIM11jMVtjSF1bY0hdYyhuW2NIXTEpW05IXUMoPU8pW05IXVtDQEBIXTJbQ0BASF0oW0NIMl1bQ0gyXU8zKVtDQEhdM0MyNFtDSDJdW0NIMl1bQ0gyXVtDSDJdNA==

> <s_epik_cmdline>
J2VwaWtfcHl0aG9uJywgJy1waCcsICc3LjAnLCAnLXRuJywgJzgnLCAnLW1hJywgJzIwMCcsICctbWV0YWxfYmluZGluZycsICctaW1hZScsICc8aW5maWxlLm1hZT4nLCAnLW9tYWUnLCAnPG91dGZpbGUubWFlPic=

> <r_lp_tautomer_probability>
1

> <r_epik_Ionization_Penalty>
6.14796e-05

> <r_epik_Ionization_Penalty_Charging>
0

> <r_epik_Ionization_Penalty_Neutral>
6.14796e-05

> <r_epik_State_Penalty>
-0

> <r_epik_Charging_Adjusted_Penalty>
0

> <i_epik_Tot_Q>
0

> <i_epik_Tot_abs_Q>
0

> <r_epik_Metal_State_Penalty>
-0

> <b_epik_Metal_Only>
0

> <s_lp_Force_Field>
OPLS_2005

> <r_lp_Energy>
82.2592

> <b_lp_Chiralities_Consistent>
1

> <s_lp_Variant>
AV-unprocessed.smi:2217-2

> <Gold.Version>
5.8.1

> <Gold.Id.Protein>
6NUR|6NUR_protein|mol2

> <Gold.PLP.Fitness>
41.7229

> <Gold.PLP.PLP>
-33.9298

> <Gold.PLP.part.hbond>
-5.6609

> <Gold.PLP.part.metal>
0.0000

> <Gold.PLP.part.buried>
-0.4289

> <Gold.PLP.part.nonpolar>
-28.9939

> <Gold.PLP.part.repulsive>
0.2476

> <Gold.PLP.ligand.clash>
0.0000

> <Gold.PLP.ligand.torsion>
0.1916

> <Gold.PLP.Chemscore.Hbond>
2.6341

> <Gold.PLP.Chemscore.CHOScore>
0.0000

> <Gold.PLP.Chemscore.Metal>
0.0000

> <Gold.Chemscore.Hbonds>
donor molecule, donor type, donor heavy atom, donor atom, acceptor molecule, acceptor atom, score
      L1  H     6    28       P1  8029  0.47
      L1  H     9    29       P1  8028  0.65
      P1  H  6933  6944       L1     8  0.80
      P1  H  6934  6946       L1     8  0.66

> <Gold.PLP.Chemscore.Internal.Correction>
0.2739

> <Gold.Rescore>
     Score         DG    S(hbond)    S(metal)    S(lipo)     H(rot)  DE(clash)    DE(int)     intcor
     20.04     -21.58       1.73        0.00     110.02       1.00       0.13       1.41       ----

> <Gold.Chemscore.Fitness>
20.0380

> <Gold.Chemscore.DG>
-21.5827

> <Gold.Chemscore.ZeroCoef>
-5.4800

> <Gold.Chemscore.Hbond>
1.7338

> <Gold.Chemscore.Metal>
0.0000

> <Gold.Chemscore.Lipo>
110.0166

> <Gold.Chemscore.Internal_Hbond>
0.0000

> <Gold.Chemscore.DEClash>
0.1326

> <Gold.Chemscore.DEInternal>
1.4121

> <Gold.Chemscore.Rot>
1.0000

> <Gold.Chemscore.Internal.Correction>
   9.000000E+99

> <Gold.Chemscore.Hbonds>
donor molecule, donor type, donor heavy atom, donor atom, acceptor molecule, acceptor atom, score
      L1  H     6    28       P1  8029  0.06
      L1  H     9    29       P1  8028  0.05
      P1  H  6933  6944       L1     8  0.80
      P1  H  6934  6946       L1     8  0.60

> <Gold.Chemscore.Hbond.Weighted>
-5.7908

> <Gold.Chemscore.Metal.Weighted>
-0.0000

> <Gold.Chemscore.Lipo.Weighted>
-12.8719

> <Gold.Chemscore.Internal_Hbond.Weighted>
0.0000

> <Gold.Chemscore.DEClash.Weighted>
0.1326

> <Gold.Chemscore.DEInternal.Weighted>
1.4121

> <Gold.Chemscore.Rot.Weighted>
2.5600

> <Gold.Chemscore.Internal.Correction.Weighted>
   9.000000E+99

> <Gold.Protein.RotatedTorsions>
[ 6907 6896 6895 6894 ] final   60.61 input  -60.11 | X-H torsion
[ 7974 7965 7964 7962 ] final  -73.92 input  175.53 | X-H torsion
[ 8008 7997 7996 7995 ] final  103.46 input   59.86 | X-H torsion
[ 10167 10162 10161 10158 ] final   53.85 input  -65.29 | X-H torsion
[ 10718 10713 10712 10709 ] final   36.40 input   66.30 | X-H torsion
[ 10763 10752 10751 10750 ] final   25.05 input  -60.55 | X-H torsion
[ 11005 11000 10999 10996 ] final -103.77 input  -57.11 | X-H torsion

> <Gold.Protein.ActiveResidues>
 VAL166  LYS551  ARG553  GLY616  TRP617  ASP618  TYR619  PRO620  LYS621  CYS622 
 ASP623  PHE694  ASN695  SER759  ASP760  ASP761  ALA762  ILE779  LEU786  VAL792 
 PHE793  MET794  SER795  GLU796  ALA797  LYS798  CYS799  TRP800  GLU811  SER814 

> <Gold.Protein.RotatedAtoms>
  152.4018  134.6273  160.0066 H   0  0  0  0  0  0  0  0  0  0  0  0  # atno 6907 bound_to 6896
  151.6476  133.3317  159.3152 H   0  0  0  0  0  0  0  0  0  0  0  0  # atno 6908 bound_to 6896
  150.7918  134.6989  159.6583 H   0  0  0  0  0  0  0  0  0  0  0  0  # atno 6909 bound_to 6896
  145.6459  140.9297  143.1011 H   0  0  0  0  0  0  0  0  0  0  0  0  # atno 7974 bound_to 7965
  156.1486  140.3164  155.8611 H   0  0  0  0  0  0  0  0  0  0  0  0  # atno 8008 bound_to 7997
  155.4015  140.0500  157.3053 H   0  0  0  0  0  0  0  0  0  0  0  0  # atno 8009 bound_to 7997
  154.5038  140.2139  155.9303 H   0  0  0  0  0  0  0  0  0  0  0  0  # atno 8010 bound_to 7997
  140.2364  144.3631  150.6396 H   0  0  0  0  0  0  0  0  0  0  0  0  # atno 10167 bound_to 10162
  157.3344  130.7515  149.6869 H   0  0  0  0  0  0  0  0  0  0  0  0  # atno 10718 bound_to 10713
  153.0720  135.6592  154.0228 H   0  0  0  0  0  0  0  0  0  0  0  0  # atno 10763 bound_to 10752
  153.9871  135.2949  155.3416 H   0  0  0  0  0  0  0  0  0  0  0  0  # atno 10764 bound_to 10752
  154.7097  135.5210  153.8717 H   0  0  0  0  0  0  0  0  0  0  0  0  # atno 10765 bound_to 10752
  141.1131  133.8668  157.1528 H   0  0  0  0  0  0  0  0  0  0  0  0  # atno 11005 bound_to 11000
  144.7140  139.8264  143.7405 LP  0  0  0  0  0  0  0  0  0  0  0  0  # atno 17320 bound_to 7965
  146.1243  139.4267  143.0208 LP  0  0  0  0  0  0  0  0  0  0  0  0  # atno 17321 bound_to 7965
  140.6147  143.2171  151.6816 LP  0  0  0  0  0  0  0  0  0  0  0  0  # atno 17342 bound_to 10162
  139.5092  144.3584  152.0585 LP  0  0  0  0  0  0  0  0  0  0  0  0  # atno 17343 bound_to 10162
  155.9699  130.4186  150.4334 LP  0  0  0  0  0  0  0  0  0  0  0  0  # atno 17370 bound_to 10713
  157.2371  131.0517  151.2458 LP  0  0  0  0  0  0  0  0  0  0  0  0  # atno 17371 bound_to 10713
  140.0036  135.0018  157.0244 LP  0  0  0  0  0  0  0  0  0  0  0  0  # atno 17394 bound_to 11000
  140.4721  134.1375  155.7204 LP  0  0  0  0  0  0  0  0  0  0  0  0  # atno 17395 bound_to 11000

$$$$
