AV-unprocessed.smi:781|AV-procd|sdf|3710|dock2
  -GOLD-   22720 1133D 1   1.00000     0.00000
 Structure written by MMmdl.
 38 40  0  0  0  0  0  0  0  0  1 V2000
  152.3670  136.3182  157.3921 C   0  0  0  0  0  0  0  0  0  0  0  0
  151.2109  135.6931  156.6895 C   0  0  0  0  0  0  0  0  0  0  0  0
  150.6992  135.8361  155.4304 C   0  0  0  0  0  0  0  0  0  0  0  0
  149.5957  134.9419  155.4299 C   0  0  0  0  0  0  0  0  0  0  0  0
  148.7820  134.7905  154.2781 N   0  0  0  0  0  0  0  0  0  0  0  0
  147.6212  134.1206  154.1781 C   0  0  0  0  0  0  0  0  0  0  0  0
  147.0668  133.5199  155.0988 O   0  0  0  0  0  0  0  0  0  0  0  0
  147.1326  134.1775  152.9305 N   0  0  0  0  0  0  0  0  0  0  0  0
  145.8805  133.5654  152.4826 C   0  0  1  0  0  0  0  0  0  0  0  0
  145.5780  133.9770  151.0255 C   0  0  2  0  0  0  0  0  0  0  0  0
  144.1054  133.6599  150.7080 C   0  0  0  0  0  0  0  0  0  0  0  0
  144.1049  132.1213  150.6287 C   0  0  0  0  0  0  0  0  0  0  0  0
  145.5780  131.7621  150.9092 C   0  0  1  0  0  0  0  0  0  0  0  0
  146.3054  132.9086  150.2184 C   0  0  0  0  0  0  0  0  0  0  0  0
  145.8912  132.0077  152.4062 C   0  0  1  0  0  0  0  0  0  0  0  0
  147.1850  131.3083  152.8828 C   0  0  0  0  0  0  0  0  0  0  0  0
  147.2677  130.0043  152.3470 O   0  0  0  0  0  0  0  0  0  0  0  0
  149.4472  134.3102  156.5841 N   0  0  0  0  0  0  0  0  0  0  0  0
  150.4815  134.7885  157.3975 O   0  0  0  0  0  0  0  0  0  0  0  0
  152.8383  137.0774  156.7676 H   0  0  0  0  0  0  0  0  0  0  0  0
  153.1196  135.5694  157.6399 H   0  0  0  0  0  0  0  0  0  0  0  0
  152.0457  136.7945  158.3185 H   0  0  0  0  0  0  0  0  0  0  0  0
  151.0594  136.4772  154.6396 H   0  0  0  0  0  0  0  0  0  0  0  0
  149.1220  135.2378  153.4397 H   0  0  0  0  0  0  0  0  0  0  0  0
  147.6569  134.6910  152.2375 H   0  0  0  0  0  0  0  0  0  0  0  0
  145.0713  133.9068  153.1312 H   0  0  0  0  0  0  0  0  0  0  0  0
  145.8559  135.0044  150.7863 H   0  0  0  0  0  0  0  0  0  0  0  0
  143.4221  134.0398  151.4686 H   0  0  0  0  0  0  0  0  0  0  0  0
  143.8126  134.0925  149.7504 H   0  0  0  0  0  0  0  0  0  0  0  0
  143.4217  131.6665  151.3468 H   0  0  0  0  0  0  0  0  0  0  0  0
  143.8083  131.7904  149.6326 H   0  0  0  0  0  0  0  0  0  0  0  0
  145.8490  130.7682  150.5520 H   0  0  0  0  0  0  0  0  0  0  0  0
  146.1051  132.9649  149.1470 H   0  0  0  0  0  0  0  0  0  0  0  0
  147.3844  132.9017  150.3775 H   0  0  0  0  0  0  0  0  0  0  0  0
  145.0734  131.6216  153.0171 H   0  0  0  0  0  0  0  0  0  0  0  0
  148.0747  131.8689  152.5951 H   0  0  0  0  0  0  0  0  0  0  0  0
  147.1930  131.2178  153.9689 H   0  0  0  0  0  0  0  0  0  0  0  0
  147.7529  130.0421  151.5368 H   0  0  0  0  0  0  0  0  0  0  0  0
  1  2  1  0  0  0  0
  1 20  1  0  0  0  0
  1 21  1  0  0  0  0
  1 22  1  0  0  0  0
  2 19  1  0  0  0  0
  2  3  2  0  0  0  0
  3  4  1  0  0  0  0
  3 23  1  0  0  0  0
  4  5  1  0  0  0  0
  4 18  2  0  0  0  0
  5  6  1  0  0  0  0
  5 24  1  0  0  0  0
  6  7  2  0  0  0  0
  6  8  1  0  0  0  0
  8  9  1  0  0  0  0
  8 25  1  0  0  0  0
  9 15  1  0  0  0  0
  9 10  1  0  0  0  0
  9 26  1  0  0  0  0
 10 14  1  0  0  0  0
 10 11  1  0  0  0  0
 10 27  1  0  0  0  0
 11 12  1  0  0  0  0
 11 28  1  0  0  0  0
 11 29  1  0  0  0  0
 12 13  1  0  0  0  0
 12 30  1  0  0  0  0
 12 31  1  0  0  0  0
 13 14  1  0  0  0  0
 13 15  1  0  0  0  0
 13 32  1  0  0  0  0
 14 33  1  0  0  0  0
 14 34  1  0  0  0  0
 15 16  1  0  0  0  0
 15 35  1  0  0  0  0
 16 17  1  0  0  0  0
 16 36  1  0  0  0  0
 16 37  1  0  0  0  0
 17 38  1  0  0  0  0
 18 19  1  0  0  0  0
M  END
> <s_m_source_file>
AV-unprocessed.smi

> <i_m_source_file_index>
781

> <i_lp_mmshare_version>
43012

> <i_f3d_flags>
0

> <s_epik_input>
W0NIM11jMVtjSF1jKG5vMSlbTkhdQyg9TylbTkhdW0NASF0oW0NAQEhdMjMpW0NASF0oW0NIMl1bT0hdKVtDQEBIXShbQ0gyXTMpW0NIMl1bQ0gyXTI=

> <s_epik_cmdline>
J2VwaWtfcHl0aG9uJywgJy1waCcsICc3LjAnLCAnLXRuJywgJzgnLCAnLW1hJywgJzIwMCcsICctbWV0YWxfYmluZGluZycsICctaW1hZScsICc8aW5maWxlLm1hZT4nLCAnLW9tYWUnLCAnPG91dGZpbGUubWFlPic=

> <r_lp_tautomer_probability>
1

> <r_epik_Ionization_Penalty>
2.32222e-05

> <r_epik_Ionization_Penalty_Charging>
0

> <r_epik_Ionization_Penalty_Neutral>
2.32222e-05

> <r_epik_State_Penalty>
-0

> <r_epik_Charging_Adjusted_Penalty>
0

> <i_epik_Tot_Q>
0

> <i_epik_Tot_abs_Q>
0

> <r_epik_Metal_State_Penalty>
-0

> <b_epik_Metal_Only>
0

> <s_lp_Force_Field>
OPLS_2005

> <r_lp_Energy>
48.1353

> <b_lp_Chiralities_Consistent>
1

> <s_lp_Variant>
AV-unprocessed.smi:781-4

> <Gold.Version>
5.8.1

> <Gold.Id.Protein>
6NUR|6NUR_protein|mol2

> <Gold.PLP.Fitness>
38.3347

> <Gold.PLP.PLP>
-28.2881

> <Gold.PLP.part.hbond>
-4.0000

> <Gold.PLP.part.metal>
0.0000

> <Gold.PLP.part.buried>
-4.3464

> <Gold.PLP.part.nonpolar>
-20.1441

> <Gold.PLP.part.repulsive>
0.0296

> <Gold.PLP.ligand.clash>
0.0000

> <Gold.PLP.ligand.torsion>
0.2649

> <Gold.PLP.Chemscore.Hbond>
3.5189

> <Gold.PLP.Chemscore.CHOScore>
0.0000

> <Gold.PLP.Chemscore.Metal>
0.0000

> <Gold.Chemscore.Hbonds>
donor molecule, donor type, donor heavy atom, donor atom, acceptor molecule, acceptor atom, score
      L1  H     5    24       P1  7948  1.00
      L1  H     8    25       P1  7948  0.96
      L1  H    17    38       P1 10747  1.00
      P1  H  6896  6907       L1    19  0.53

> <Gold.PLP.Chemscore.Internal.Correction>
0.0198

> <Gold.Rescore>
     Score         DG    S(hbond)    S(metal)    S(lipo)     H(rot)  DE(clash)    DE(int)     intcor
     18.98     -20.63       3.61        0.00      67.14       1.86       0.14       1.51       ----

> <Gold.Chemscore.Fitness>
18.9755

> <Gold.Chemscore.DG>
-20.6255

> <Gold.Chemscore.ZeroCoef>
-5.4800

> <Gold.Chemscore.Hbond>
3.6074

> <Gold.Chemscore.Metal>
0.0000

> <Gold.Chemscore.Lipo>
67.1362

> <Gold.Chemscore.Internal_Hbond>
0.0000

> <Gold.Chemscore.DEClash>
0.1378

> <Gold.Chemscore.DEInternal>
1.5122

> <Gold.Chemscore.Rot>
1.8587

> <Gold.Chemscore.Internal.Correction>
   9.000000E+99

> <Gold.Chemscore.Hbonds>
donor molecule, donor type, donor heavy atom, donor atom, acceptor molecule, acceptor atom, score
      L1  H     5    24       P1  7948  0.34
      L1  H     8    25       P1  7948  0.66
      L1  H    17    38       P1 10747  0.97
      P1  H  6896  6907       L1    19  0.50

> <Gold.Chemscore.Hbond.Weighted>
-12.0489

> <Gold.Chemscore.Metal.Weighted>
-0.0000

> <Gold.Chemscore.Lipo.Weighted>
-7.8549

> <Gold.Chemscore.Internal_Hbond.Weighted>
0.0000

> <Gold.Chemscore.DEClash.Weighted>
0.1378

> <Gold.Chemscore.DEInternal.Weighted>
1.5122

> <Gold.Chemscore.Rot.Weighted>
4.7583

> <Gold.Chemscore.Internal.Correction.Weighted>
   9.000000E+99

> <Gold.Protein.RotatedTorsions>
[ 6907 6896 6895 6894 ] final  -96.83 input  -60.11 | X-H torsion
[ 7974 7965 7964 7962 ] final    5.15 input  175.53 | X-H torsion
[ 8008 7997 7996 7995 ] final    7.27 input   59.86 | X-H torsion
[ 10167 10162 10161 10158 ] final  148.26 input  -65.29 | X-H torsion
[ 10718 10713 10712 10709 ] final -166.13 input   66.30 | X-H torsion
[ 10763 10752 10751 10750 ] final -102.31 input  -60.55 | X-H torsion
[ 11005 11000 10999 10996 ] final   39.81 input  -57.11 | X-H torsion

> <Gold.Protein.ActiveResidues>
 VAL166  LYS551  ARG553  GLY616  TRP617  ASP618  TYR619  PRO620  LYS621  CYS622 
 ASP623  PHE694  ASN695  SER759  ASP760  ASP761  ALA762  ILE779  LEU786  VAL792 
 PHE793  MET794  SER795  GLU796  ALA797  LYS798  CYS799  TRP800  GLU811  SER814 

> <Gold.Protein.RotatedAtoms>
  150.6999  134.1442  159.4116 H   0  0  0  0  0  0  0  0  0  0  0  0  # atno 6907 bound_to 6896
  151.9426  135.0204  160.0546 H   0  0  0  0  0  0  0  0  0  0  0  0  # atno 6908 bound_to 6896
  152.2080  133.4855  159.5131 H   0  0  0  0  0  0  0  0  0  0  0  0  # atno 6909 bound_to 6896
  146.2441  140.0428  142.8381 H   0  0  0  0  0  0  0  0  0  0  0  0  # atno 7974 bound_to 7965
  154.7517  140.2768  155.6287 H   0  0  0  0  0  0  0  0  0  0  0  0  # atno 8008 bound_to 7997
  156.2897  140.2677  156.2199 H   0  0  0  0  0  0  0  0  0  0  0  0  # atno 8009 bound_to 7997
  155.0129  140.0372  157.2396 H   0  0  0  0  0  0  0  0  0  0  0  0  # atno 8010 bound_to 7997
  139.4877  144.5693  151.7086 H   0  0  0  0  0  0  0  0  0  0  0  0  # atno 10167 bound_to 10162
  156.6634  130.9055  151.3032 H   0  0  0  0  0  0  0  0  0  0  0  0  # atno 10718 bound_to 10713
  154.7724  135.4865  153.9676 H   0  0  0  0  0  0  0  0  0  0  0  0  # atno 10763 bound_to 10752
  153.1385  135.6768  153.9072 H   0  0  0  0  0  0  0  0  0  0  0  0  # atno 10764 bound_to 10752
  153.8753  135.3138  155.3422 H   0  0  0  0  0  0  0  0  0  0  0  0  # atno 10765 bound_to 10752
  140.1992  134.3892  155.8105 H   0  0  0  0  0  0  0  0  0  0  0  0  # atno 11005 bound_to 11000
  145.1054  140.9372  143.4688 LP  0  0  0  0  0  0  0  0  0  0  0  0  # atno 17320 bound_to 7965
  145.0630  139.3090  143.5871 LP  0  0  0  0  0  0  0  0  0  0  0  0  # atno 17321 bound_to 7965
  140.5277  144.0780  150.6043 LP  0  0  0  0  0  0  0  0  0  0  0  0  # atno 17342 bound_to 10162
  140.3759  143.2829  152.0225 LP  0  0  0  0  0  0  0  0  0  0  0  0  # atno 17343 bound_to 10162
  157.7102  130.9431  150.1063 LP  0  0  0  0  0  0  0  0  0  0  0  0  # atno 17370 bound_to 10713
  156.1994  130.3659  149.8808 LP  0  0  0  0  0  0  0  0  0  0  0  0  # atno 17371 bound_to 10713
  141.2227  133.7085  156.8228 LP  0  0  0  0  0  0  0  0  0  0  0  0  # atno 17394 bound_to 11000
  140.2073  134.8853  157.3236 LP  0  0  0  0  0  0  0  0  0  0  0  0  # atno 17395 bound_to 11000

$$$$
