AV-unprocessed.smi:2746|AV-procd|sdf|10576|dock1
  -GOLD-   2272015 23D 1   1.00000     0.00000
 Structure written by MMmdl.
 38 39  0  0  0  0  0  0  0  0  3 V2000
  144.3907  134.1421  152.1069 C   0  0  0  0  0  0  0  0  0  0  0  0
  144.9843  135.1890  151.5098 C   0  0  0  0  0  0  0  0  0  0  0  0
  144.7867  136.6461  151.8909 C   0  0  1  0  0  0  0  0  0  0  0  0
  143.5745  136.7901  152.8214 C   0  0  0  0  0  0  0  0  0  0  0  0
  145.9466  137.2519  152.5443 N   0  5  0  0  0  0  0  0  0  0  0  0
  146.6948  138.2605  152.0070 C   0  0  0  0  0  0  0  0  0  0  0  0
  146.9988  138.4617  150.8258 O   0  0  0  0  0  0  0  0  0  0  0  0
  147.1928  139.2413  153.0425 C   0  0  0  0  0  0  0  0  0  0  0  0
  148.4151  139.0337  153.7252 C   0  0  0  0  0  0  0  0  0  0  0  0
  148.8556  139.9722  154.6885 C   0  0  0  0  0  0  0  0  0  0  0  0
  150.0609  139.8090  155.3851 N   0  0  0  0  0  0  0  0  0  0  0  0
  150.9911  138.8936  154.7358 C   0  0  0  0  0  0  0  0  0  0  0  0
  152.2271  138.6815  155.6271 C   0  0  0  0  0  0  0  0  0  0  0  0
  152.8239  139.9411  155.9226 O   0  0  0  0  0  0  0  0  0  0  0  0
  151.9326  140.8053  156.6221 C   0  0  0  0  0  0  0  0  0  0  0  0
  150.6871  141.0711  155.7586 C   0  0  0  0  0  0  0  0  0  0  0  0
  148.0581  141.1058  154.9508 C   0  0  0  0  0  0  0  0  0  0  0  0
  146.8491  141.2724  154.2487 C   0  0  0  0  0  0  0  0  0  0  0  0
  146.4711  140.3512  153.3382 N   0  3  0  0  0  0  0  0  0  0  0  0
  143.7018  134.2605  152.9322 H   0  0  0  0  0  0  0  0  0  0  0  0
  144.5905  133.1361  151.7694 H   0  0  0  0  0  0  0  0  0  0  0  0
  145.6602  135.0033  150.6879 H   0  0  0  0  0  0  0  0  0  0  0  0
  144.5397  137.1822  150.9727 H   0  0  0  0  0  0  0  0  0  0  0  0
  142.6746  136.3874  152.3557 H   0  0  0  0  0  0  0  0  0  0  0  0
  143.3783  137.8371  153.0560 H   0  0  0  0  0  0  0  0  0  0  0  0
  143.7260  136.2595  153.7625 H   0  0  0  0  0  0  0  0  0  0  0  0
  149.0158  138.1616  153.5113 H   0  0  0  0  0  0  0  0  0  0  0  0
  150.4991  137.9393  154.5445 H   0  0  0  0  0  0  0  0  0  0  0  0
  151.2996  139.2977  153.7708 H   0  0  0  0  0  0  0  0  0  0  0  0
  151.9570  138.1688  156.5517 H   0  0  0  0  0  0  0  0  0  0  0  0
  152.9568  138.0537  155.1159 H   0  0  0  0  0  0  0  0  0  0  0  0
  151.6550  140.3613  157.5795 H   0  0  0  0  0  0  0  0  0  0  0  0
  152.4450  141.7419  156.8418 H   0  0  0  0  0  0  0  0  0  0  0  0
  150.9715  141.6241  154.8624 H   0  0  0  0  0  0  0  0  0  0  0  0
  149.9762  141.6897  156.3081 H   0  0  0  0  0  0  0  0  0  0  0  0
  148.3685  141.8398  155.6802 H   0  0  0  0  0  0  0  0  0  0  0  0
  146.1777  142.1073  154.3844 H   0  0  0  0  0  0  0  0  0  0  0  0
  145.5933  140.4848  152.8339 H   0  0  0  0  0  0  0  0  0  0  0  0
  1  2  2  0  0  0  0
  1 20  1  0  0  0  0
  1 21  1  0  0  0  0
  2  3  1  0  0  0  0
  2 22  1  0  0  0  0
  3  4  1  0  0  0  0
  3  5  1  0  0  0  0
  3 23  1  0  0  0  0
  4 24  1  0  0  0  0
  4 25  1  0  0  0  0
  4 26  1  0  0  0  0
  5  6  1  0  0  0  0
  6  7  2  0  0  0  0
  6  8  1  0  0  0  0
  8 19  1  0  0  0  0
  8  9  2  0  0  0  0
  9 10  1  0  0  0  0
  9 27  1  0  0  0  0
 10 11  1  0  0  0  0
 10 17  2  0  0  0  0
 11 16  1  0  0  0  0
 11 12  1  0  0  0  0
 12 13  1  0  0  0  0
 12 28  1  0  0  0  0
 12 29  1  0  0  0  0
 13 14  1  0  0  0  0
 13 30  1  0  0  0  0
 13 31  1  0  0  0  0
 14 15  1  0  0  0  0
 15 16  1  0  0  0  0
 15 32  1  0  0  0  0
 15 33  1  0  0  0  0
 16 34  1  0  0  0  0
 16 35  1  0  0  0  0
 17 18  1  0  0  0  0
 17 36  1  0  0  0  0
 18 19  2  0  0  0  0
 18 37  1  0  0  0  0
 19 38  1  0  0  0  0
M  CHG  1   5  -1
M  CHG  1  19   1
M  END
> <s_m_source_file>
AV-unprocessed.smi

> <i_m_source_file_index>
2746

> <i_lp_mmshare_version>
43012

> <i_f3d_flags>
0

> <s_epik_input>
W0NIMl09W0NIXVtDQEhdKFtDSDNdKVtOSF1DKD1PKWMxW2NIXWMoW2NIXVtjSF1uMSlOMltDSDJdW0NIMl1PW0NIMl1bQ0gyXTI=

> <s_epik_cmdline>
J2VwaWtfcHl0aG9uJywgJy1waCcsICc3LjAnLCAnLXRuJywgJzgnLCAnLW1hJywgJzIwMCcsICctbWV0YWxfYmluZGluZycsICctaW1hZScsICc8aW5maWxlLm1hZT4nLCAnLW9tYWUnLCAnPG91dGZpbGUubWFlPic=

> <r_lp_tautomer_probability>
1

> <r_epik_Ionization_Penalty>
4.23471

> <r_epik_Ionization_Penalty_Charging>
4.23471

> <r_epik_Ionization_Penalty_Neutral>
3.18831e-12

> <r_epik_State_Penalty>
4.68748

> <r_epik_Charging_Adjusted_Penalty>
8.92219

> <i_epik_Tot_Q>
0

> <i_epik_Tot_abs_Q>
2

> <r_epik_Metal_State_Penalty>
1.16626

> <b_epik_Metal_Only>
1

> <s_lp_Force_Field>
OPLS_2005

> <r_lp_Energy>
17.3094

> <b_lp_Chiralities_Consistent>
1

> <s_lp_Variant>
AV-unprocessed.smi:2746-6

> <Gold.Version>
5.8.1

> <Gold.Id.Protein>
6NUR|6NUR_protein|mol2

> <Gold.PLP.Fitness>
39.9153

> <Gold.PLP.PLP>
-32.7617

> <Gold.PLP.part.hbond>
-3.0000

> <Gold.PLP.part.metal>
0.0000

> <Gold.PLP.part.buried>
-1.4049

> <Gold.PLP.part.nonpolar>
-29.4569

> <Gold.PLP.part.repulsive>
0.8759

> <Gold.PLP.ligand.clash>
0.0000

> <Gold.PLP.ligand.torsion>
2.5578

> <Gold.PLP.Chemscore.Hbond>
3.9760

> <Gold.PLP.Chemscore.CHOScore>
0.0000

> <Gold.PLP.Chemscore.Metal>
0.0000

> <Gold.Chemscore.Hbonds>
donor molecule, donor type, donor heavy atom, donor atom, acceptor molecule, acceptor atom, score
      L1  H    19    38       P1 10175  2.00
      P1  H  7954  7966       L1     7  1.00
      P1  H  7997  8008       L1    14  1.00

> <Gold.PLP.Chemscore.Internal.Correction>
0.3412

> <Gold.Rescore>
     Score         DG    S(hbond)    S(metal)    S(lipo)     H(rot)  DE(clash)    DE(int)     intcor
     16.90     -19.67       2.74        0.00      70.87       1.27       0.25       2.52       ----

> <Gold.Chemscore.Fitness>
16.9000

> <Gold.Chemscore.DG>
-19.6684

> <Gold.Chemscore.ZeroCoef>
-5.4800

> <Gold.Chemscore.Hbond>
2.7419

> <Gold.Chemscore.Metal>
0.0000

> <Gold.Chemscore.Lipo>
70.8739

> <Gold.Chemscore.Internal_Hbond>
0.0000

> <Gold.Chemscore.DEClash>
0.2461

> <Gold.Chemscore.DEInternal>
2.5223

> <Gold.Chemscore.Rot>
1.2742

> <Gold.Chemscore.Internal.Correction>
   9.000000E+99

> <Gold.Chemscore.Hbonds>
donor molecule, donor type, donor heavy atom, donor atom, acceptor molecule, acceptor atom, score
      L1  H    19    38       P1 10175  0.78
      P1  H  7954  7966       L1     7  0.93
      P1  H  7997  8008       L1    14  0.85

> <Gold.Chemscore.Hbond.Weighted>
-9.1581

> <Gold.Chemscore.Metal.Weighted>
-0.0000

> <Gold.Chemscore.Lipo.Weighted>
-8.2922

> <Gold.Chemscore.Internal_Hbond.Weighted>
0.0000

> <Gold.Chemscore.DEClash.Weighted>
0.2461

> <Gold.Chemscore.DEInternal.Weighted>
2.5223

> <Gold.Chemscore.Rot.Weighted>
3.2619

> <Gold.Chemscore.Internal.Correction.Weighted>
   9.000000E+99

> <Gold.Protein.RotatedTorsions>
[ 6907 6896 6895 6894 ] final -179.88 input  -60.11 | X-H torsion
[ 7974 7965 7964 7962 ] final -164.64 input  175.53 | X-H torsion
[ 8008 7997 7996 7995 ] final  -40.57 input   59.86 | X-H torsion
[ 10167 10162 10161 10158 ] final  118.29 input  -65.29 | X-H torsion
[ 10718 10713 10712 10709 ] final   46.57 input   66.30 | X-H torsion
[ 10763 10752 10751 10750 ] final  125.06 input  -60.55 | X-H torsion
[ 11005 11000 10999 10996 ] final  -46.53 input  -57.11 | X-H torsion

> <Gold.Protein.ActiveResidues>
 VAL166  LYS551  ARG553  GLY616  TRP617  ASP618  TYR619  PRO620  LYS621  CYS622 
 ASP623  PHE694  ASN695  SER759  ASP760  ASP761  ALA762  ILE779  LEU786  VAL792 
 PHE793  MET794  SER795  GLU796  ALA797  LYS798  CYS799  TRP800  GLU811  SER814 

> <Gold.Protein.RotatedAtoms>
  151.6606  133.3317  159.3172 H   0  0  0  0  0  0  0  0  0  0  0  0  # atno 6907 bound_to 6896
  150.7915  134.6946  159.6525 H   0  0  0  0  0  0  0  0  0  0  0  0  # atno 6908 bound_to 6896
  152.3995  134.6313  160.0127 H   0  0  0  0  0  0  0  0  0  0  0  0  # atno 6909 bound_to 6896
  144.7291  140.2931  143.6217 H   0  0  0  0  0  0  0  0  0  0  0  0  # atno 7974 bound_to 7965
  154.4011  140.1522  156.3049 H   0  0  0  0  0  0  0  0  0  0  0  0  # atno 8008 bound_to 7997
  155.8667  140.3451  155.5772 H   0  0  0  0  0  0  0  0  0  0  0  0  # atno 8009 bound_to 7997
  155.7820  140.0844  157.2045 H   0  0  0  0  0  0  0  0  0  0  0  0  # atno 8010 bound_to 7997
  139.6121  144.7084  151.2820 H   0  0  0  0  0  0  0  0  0  0  0  0  # atno 10167 bound_to 10162
  157.4495  130.8129  149.7774 H   0  0  0  0  0  0  0  0  0  0  0  0  # atno 10718 bound_to 10713
  153.6713  135.3330  155.3154 H   0  0  0  0  0  0  0  0  0  0  0  0  # atno 10763 bound_to 10752
  154.8490  135.4387  154.1702 H   0  0  0  0  0  0  0  0  0  0  0  0  # atno 10764 bound_to 10752
  153.2694  135.6999  153.7572 H   0  0  0  0  0  0  0  0  0  0  0  0  # atno 10765 bound_to 10752
  141.0584  133.6717  156.3167 H   0  0  0  0  0  0  0  0  0  0  0  0  # atno 11005 bound_to 11000
  145.7835  139.1900  143.2144 LP  0  0  0  0  0  0  0  0  0  0  0  0  # atno 17320 bound_to 7965
  146.0814  140.7759  142.9639 LP  0  0  0  0  0  0  0  0  0  0  0  0  # atno 17321 bound_to 7965
  140.7326  143.6818  150.7995 LP  0  0  0  0  0  0  0  0  0  0  0  0  # atno 17342 bound_to 10162
  140.0414  143.5342  152.2716 LP  0  0  0  0  0  0  0  0  0  0  0  0  # atno 17343 bound_to 10162
  155.9981  130.3896  150.2715 LP  0  0  0  0  0  0  0  0  0  0  0  0  # atno 17370 bound_to 10713
  157.0885  131.0163  151.3130 LP  0  0  0  0  0  0  0  0  0  0  0  0  # atno 17371 bound_to 10713
  140.5917  134.5643  157.5501 LP  0  0  0  0  0  0  0  0  0  0  0  0  # atno 17394 bound_to 11000
  139.9411  134.7786  156.0677 LP  0  0  0  0  0  0  0  0  0  0  0  0  # atno 17395 bound_to 11000

$$$$
