AV-unprocessed.smi:2093|AV-procd|sdf|8545|dock1
  -GOLD-   2272011263D 1   1.00000     0.00000
 Structure written by MMmdl.
 31 32  0  0  0  0  0  0  0  0  1 V2000
  151.5254  141.7569  158.5665 C   0  0  0  0  0  0  0  0  0  0  0  0
  151.5961  142.9126  157.5578 C   0  0  1  0  0  0  0  0  0  0  0  0
  150.4801  142.7891  156.6210 N   0  0  0  0  0  0  0  0  0  0  0  0
  150.1210  141.6739  155.9677 C   0  0  0  0  0  0  0  0  0  0  0  0
  150.7066  140.5969  156.0825 O   0  0  0  0  0  0  0  0  0  0  0  0
  149.0560  141.8976  155.1784 N   0  0  0  0  0  0  0  0  0  0  0  0
  148.3804  140.9783  154.3336 C   0  0  0  0  0  0  0  0  0  0  0  0
  148.7750  139.7174  154.1209 N   0  0  0  0  0  0  0  0  0  0  0  0
  147.9204  139.0406  153.2470 C   0  0  0  0  0  0  0  0  0  0  0  0
  146.8730  139.8072  152.8003 C   0  0  0  0  0  0  0  0  0  0  0  0
  146.9180  141.4186  153.4641 S   0  0  0  0  0  0  0  0  0  0  0  0
  151.5628  144.2882  158.2553 C   0  0  2  0  0  0  0  0  0  0  0  0
  152.5144  144.4326  159.4454 C   0  0  0  0  0  0  0  0  0  0  0  0
  151.8520  145.5378  160.2342 C   0  0  0  0  0  0  0  0  0  0  0  0
  150.3758  145.1959  160.0616 C   0  0  0  0  0  0  0  0  0  0  0  0
  150.2687  144.5455  158.7976 O   0  0  0  0  0  0  0  0  0  0  0  0
  152.3671  141.7862  159.2589 H   0  0  0  0  0  0  0  0  0  0  0  0
  151.5536  140.7919  158.0596 H   0  0  0  0  0  0  0  0  0  0  0  0
  150.6086  141.7979  159.1559 H   0  0  0  0  0  0  0  0  0  0  0  0
  152.5430  142.8225  157.0224 H   0  0  0  0  0  0  0  0  0  0  0  0
  149.9396  143.6256  156.4560 H   0  0  0  0  0  0  0  0  0  0  0  0
  148.6857  142.8364  155.1803 H   0  0  0  0  0  0  0  0  0  0  0  0
  148.1331  138.0118  152.9965 H   0  0  0  0  0  0  0  0  0  0  0  0
  146.0806  139.5223  152.1241 H   0  0  0  0  0  0  0  0  0  0  0  0
  151.7799  145.0785  157.5344 H   0  0  0  0  0  0  0  0  0  0  0  0
  152.5352  143.5153  160.0358 H   0  0  0  0  0  0  0  0  0  0  0  0
  153.5360  144.6722  159.1491 H   0  0  0  0  0  0  0  0  0  0  0  0
  152.1639  145.5691  161.2784 H   0  0  0  0  0  0  0  0  0  0  0  0
  152.0715  146.5052  159.7804 H   0  0  0  0  0  0  0  0  0  0  0  0
  150.0535  144.4987  160.8361 H   0  0  0  0  0  0  0  0  0  0  0  0
  149.7368  146.0777  160.1122 H   0  0  0  0  0  0  0  0  0  0  0  0
  1  2  1  0  0  0  0
  1 17  1  0  0  0  0
  1 18  1  0  0  0  0
  1 19  1  0  0  0  0
  2  3  1  0  0  0  0
  2 12  1  0  0  0  0
  2 20  1  0  0  0  0
  3  4  1  0  0  0  0
  3 21  1  0  0  0  0
  4  5  2  0  0  0  0
  4  6  1  0  0  0  0
  6  7  1  0  0  0  0
  6 22  1  0  0  0  0
  7 11  1  0  0  0  0
  7  8  2  0  0  0  0
  8  9  1  0  0  0  0
  9 10  2  0  0  0  0
  9 23  1  0  0  0  0
 10 11  1  0  0  0  0
 10 24  1  0  0  0  0
 12 16  1  0  0  0  0
 12 13  1  0  0  0  0
 12 25  1  0  0  0  0
 13 14  1  0  0  0  0
 13 26  1  0  0  0  0
 13 27  1  0  0  0  0
 14 15  1  0  0  0  0
 14 28  1  0  0  0  0
 14 29  1  0  0  0  0
 15 16  1  0  0  0  0
 15 30  1  0  0  0  0
 15 31  1  0  0  0  0
M  END
> <s_m_source_file>
AV-unprocessed.smi

> <i_m_source_file_index>
2093

> <i_lp_mmshare_version>
43012

> <i_f3d_flags>
0

> <s_epik_input>
TzFbQ0gyXVtDSDJdW0NIMl1bQ0BIXTFbQ0BIXShbQ0gzXSlbTkhdQyg9TylbTkhdYzJuW2NIXVtjSF1zMg==

> <s_epik_cmdline>
J2VwaWtfcHl0aG9uJywgJy1waCcsICc3LjAnLCAnLXRuJywgJzgnLCAnLW1hJywgJzIwMCcsICctbWV0YWxfYmluZGluZycsICctaW1hZScsICc8aW5maWxlLm1hZT4nLCAnLW9tYWUnLCAnPG91dGZpbGUubWFlPic=

> <r_lp_tautomer_probability>
0.999

> <r_epik_Ionization_Penalty>
0.000334433

> <r_epik_Ionization_Penalty_Charging>
0

> <r_epik_Ionization_Penalty_Neutral>
0.000334433

> <r_epik_State_Penalty>
0.000177984

> <r_epik_Charging_Adjusted_Penalty>
0.000177984

> <i_epik_Tot_Q>
0

> <i_epik_Tot_abs_Q>
0

> <r_epik_Metal_State_Penalty>
0.00767616

> <b_epik_Metal_Only>
0

> <s_lp_Force_Field>
OPLS_2005

> <r_lp_Energy>
15.8348

> <b_lp_Chiralities_Consistent>
1

> <s_lp_Variant>
AV-unprocessed.smi:2093-2

> <Gold.Version>
5.8.1

> <Gold.Id.Protein>
6NUR|6NUR_protein|mol2

> <Gold.PLP.Fitness>
44.3780

> <Gold.PLP.PLP>
-33.3015

> <Gold.PLP.part.hbond>
-2.0000

> <Gold.PLP.part.metal>
0.0000

> <Gold.PLP.part.buried>
-4.4512

> <Gold.PLP.part.nonpolar>
-27.5722

> <Gold.PLP.part.repulsive>
0.6363

> <Gold.PLP.ligand.clash>
0.0000

> <Gold.PLP.ligand.torsion>
0.2187

> <Gold.PLP.Chemscore.Hbond>
2.0000

> <Gold.PLP.Chemscore.CHOScore>
1.8330

> <Gold.PLP.Chemscore.Metal>
0.0000

> <Gold.Chemscore.Hbonds>
donor molecule, donor type, donor heavy atom, donor atom, acceptor molecule, acceptor atom, score
      L1  H     3    21       P1  8028  1.00
      L1  H     6    22       P1  8028  1.00
      L1  C     9    23       P1  7948  1.00
      L1  C    10    24       P1 10175  0.68

> <Gold.PLP.Chemscore.Internal.Correction>
0.0148

> <Gold.Rescore>
     Score         DG    S(hbond)    S(metal)    S(lipo)     H(rot)  DE(clash)    DE(int)     intcor
     15.82     -19.03       1.96        0.00      88.25       1.29       0.51       2.71       ----

> <Gold.Chemscore.Fitness>
15.8206

> <Gold.Chemscore.DG>
-19.0347

> <Gold.Chemscore.ZeroCoef>
-5.4800

> <Gold.Chemscore.Hbond>
1.9587

> <Gold.Chemscore.Metal>
0.0000

> <Gold.Chemscore.Lipo>
88.2468

> <Gold.Chemscore.Internal_Hbond>
0.0000

> <Gold.Chemscore.DEClash>
0.5056

> <Gold.Chemscore.DEInternal>
2.7085

> <Gold.Chemscore.Rot>
1.2938

> <Gold.Chemscore.Internal.Correction>
   9.000000E+99

> <Gold.Chemscore.Hbonds>
donor molecule, donor type, donor heavy atom, donor atom, acceptor molecule, acceptor atom, score
      L1  H     3    21       P1  8028  1.00
      L1  H     6    22       P1  8028  0.94

> <Gold.Chemscore.Hbond.Weighted>
-6.5420

> <Gold.Chemscore.Metal.Weighted>
-0.0000

> <Gold.Chemscore.Lipo.Weighted>
-10.3249

> <Gold.Chemscore.Internal_Hbond.Weighted>
0.0000

> <Gold.Chemscore.DEClash.Weighted>
0.5056

> <Gold.Chemscore.DEInternal.Weighted>
2.7085

> <Gold.Chemscore.Rot.Weighted>
3.3122

> <Gold.Chemscore.Internal.Correction.Weighted>
   9.000000E+99

> <Gold.Protein.RotatedTorsions>
[ 6907 6896 6895 6894 ] final   -3.26 input  -60.11 | X-H torsion
[ 7974 7965 7964 7962 ] final   13.57 input  175.53 | X-H torsion
[ 8008 7997 7996 7995 ] final  144.68 input   59.86 | X-H torsion
[ 10167 10162 10161 10158 ] final   70.97 input  -65.29 | X-H torsion
[ 10718 10713 10712 10709 ] final -101.53 input   66.30 | X-H torsion
[ 10763 10752 10751 10750 ] final -154.87 input  -60.55 | X-H torsion
[ 11005 11000 10999 10996 ] final -108.30 input  -57.11 | X-H torsion

> <Gold.Protein.ActiveResidues>
 VAL166  LYS551  ARG553  GLY616  TRP617  ASP618  TYR619  PRO620  LYS621  CYS622 
 ASP623  PHE694  ASN695  SER759  ASP760  ASP761  ALA762  ILE779  LEU786  VAL792 
 PHE793  MET794  SER795  GLU796  ALA797  LYS798  CYS799  TRP800  GLU811  SER814 

> <Gold.Protein.RotatedAtoms>
  151.5167  135.1066  159.9867 H   0  0  0  0  0  0  0  0  0  0  0  0  # atno 6907 bound_to 6896
  152.4638  133.7875  159.6894 H   0  0  0  0  0  0  0  0  0  0  0  0  # atno 6908 bound_to 6896
  150.8612  133.7576  159.3017 H   0  0  0  0  0  0  0  0  0  0  0  0  # atno 6909 bound_to 6896
  146.2326  139.9170  142.8516 H   0  0  0  0  0  0  0  0  0  0  0  0  # atno 7974 bound_to 7965
  156.2902  140.2229  156.5093 H   0  0  0  0  0  0  0  0  0  0  0  0  # atno 8008 bound_to 7997
  154.7622  140.0472  157.1005 H   0  0  0  0  0  0  0  0  0  0  0  0  # atno 8009 bound_to 7997
  154.9976  140.3098  155.4883 H   0  0  0  0  0  0  0  0  0  0  0  0  # atno 8010 bound_to 7997
  140.0511  144.5311  150.7362 H   0  0  0  0  0  0  0  0  0  0  0  0  # atno 10167 bound_to 10162
  156.0198  130.5378  150.6977 H   0  0  0  0  0  0  0  0  0  0  0  0  # atno 10718 bound_to 10713
  154.7828  135.3180  154.7953 H   0  0  0  0  0  0  0  0  0  0  0  0  # atno 10763 bound_to 10752
  153.8660  135.6849  153.4783 H   0  0  0  0  0  0  0  0  0  0  0  0  # atno 10764 bound_to 10752
  153.1469  135.4715  154.9518 H   0  0  0  0  0  0  0  0  0  0  0  0  # atno 10765 bound_to 10752
  141.0909  133.9057  157.2078 H   0  0  0  0  0  0  0  0  0  0  0  0  # atno 11005 bound_to 11000
  145.2174  140.9921  143.4065 LP  0  0  0  0  0  0  0  0  0  0  0  0  # atno 17320 bound_to 7965
  144.9639  139.3950  143.6342 LP  0  0  0  0  0  0  0  0  0  0  0  0  # atno 17321 bound_to 7965
  140.7216  143.2594  151.4259 LP  0  0  0  0  0  0  0  0  0  0  0  0  # atno 17342 bound_to 10162
  139.5952  144.1412  152.2136 LP  0  0  0  0  0  0  0  0  0  0  0  0  # atno 17343 bound_to 10162
  157.4644  131.0886  151.0711 LP  0  0  0  0  0  0  0  0  0  0  0  0  # atno 17370 bound_to 10713
  157.1189  130.6053  149.5500 LP  0  0  0  0  0  0  0  0  0  0  0  0  # atno 17371 bound_to 10713
  139.9734  135.0121  156.9570 LP  0  0  0  0  0  0  0  0  0  0  0  0  # atno 17394 bound_to 11000
  140.5255  134.0865  155.7302 LP  0  0  0  0  0  0  0  0  0  0  0  0  # atno 17395 bound_to 11000

$$$$
