AV-unprocessed.smi:554|AV-procd|sdf|2906|dock3
  -GOLD-   2262023393D 1   1.00000     0.00000
 Structure written by MMmdl.
 27 28  0  0  0  0  0  0  0  0  1 V2000
  152.2309  143.2542  161.5966 C   0  0  0  0  0  0  0  0  0  0  0  0
  152.3934  144.2015  160.4278 C   0  0  2  0  0  0  0  0  0  0  0  0
  151.4953  145.4089  160.2855 C   0  0  0  0  0  0  0  0  0  0  0  0
  151.3618  144.2517  159.3232 C   0  0  1  0  0  0  0  0  0  0  0  0
  151.7953  144.3874  157.8762 C   0  0  0  0  0  0  0  0  0  0  0  0
  150.9340  143.7169  156.9108 N   0  0  0  0  0  0  0  0  0  0  0  0
  150.9683  142.4065  156.6303 C   0  0  0  0  0  0  0  0  0  0  0  0
  151.7402  141.6158  157.1738 O   0  0  0  0  0  0  0  0  0  0  0  0
  150.0590  142.0863  155.6932 N   0  0  0  0  0  0  0  0  0  0  0  0
  149.8194  140.8199  155.0984 C   0  0  0  0  0  0  0  0  0  0  0  0
  150.7767  139.9384  154.7865 N   0  0  0  0  0  0  0  0  0  0  0  0
  150.2539  138.7809  154.2043 C   0  0  0  0  0  0  0  0  0  0  0  0
  148.8870  138.7985  154.0792 C   0  0  0  0  0  0  0  0  0  0  0  0
  148.1975  140.2769  154.6944 S   0  0  0  0  0  0  0  0  0  0  0  0
  151.1808  143.1568  161.8744 H   0  0  0  0  0  0  0  0  0  0  0  0
  152.7856  143.6248  162.4586 H   0  0  0  0  0  0  0  0  0  0  0  0
  152.6136  142.2681  161.3335 H   0  0  0  0  0  0  0  0  0  0  0  0
  153.4289  144.3415  160.1230 H   0  0  0  0  0  0  0  0  0  0  0  0
  150.7026  145.5432  161.0188 H   0  0  0  0  0  0  0  0  0  0  0  0
  151.9469  146.3277  159.9163 H   0  0  0  0  0  0  0  0  0  0  0  0
  150.4939  143.6091  159.4621 H   0  0  0  0  0  0  0  0  0  0  0  0
  151.8374  145.4447  157.6125 H   0  0  0  0  0  0  0  0  0  0  0  0
  152.8148  144.0102  157.7812 H   0  0  0  0  0  0  0  0  0  0  0  0
  150.2678  144.2934  156.4182 H   0  0  0  0  0  0  0  0  0  0  0  0
  149.4822  142.8409  155.3517 H   0  0  0  0  0  0  0  0  0  0  0  0
  150.9289  137.9922  153.9062 H   0  0  0  0  0  0  0  0  0  0  0  0
  148.2470  138.0338  153.6647 H   0  0  0  0  0  0  0  0  0  0  0  0
  1  2  1  0  0  0  0
  1 15  1  0  0  0  0
  1 16  1  0  0  0  0
  1 17  1  0  0  0  0
  2  4  1  0  0  0  0
  2  3  1  0  0  0  0
  2 18  1  0  0  0  0
  3  4  1  0  0  0  0
  3 19  1  0  0  0  0
  3 20  1  0  0  0  0
  4  5  1  0  0  0  0
  4 21  1  0  0  0  0
  5  6  1  0  0  0  0
  5 22  1  0  0  0  0
  5 23  1  0  0  0  0
  6  7  1  0  0  0  0
  6 24  1  0  0  0  0
  7  8  2  0  0  0  0
  7  9  1  0  0  0  0
  9 10  1  0  0  0  0
  9 25  1  0  0  0  0
 10 14  1  0  0  0  0
 10 11  2  0  0  0  0
 11 12  1  0  0  0  0
 12 13  2  0  0  0  0
 12 26  1  0  0  0  0
 13 14  1  0  0  0  0
 13 27  1  0  0  0  0
M  END
> <s_m_source_file>
AV-unprocessed.smi

> <i_m_source_file_index>
554

> <i_lp_mmshare_version>
43012

> <i_f3d_flags>
0

> <s_epik_input>
W0NIM11bQ0BASF0xW0NIMl1bQ0BIXTFbQ0gyXVtOSF1DKD1PKVtOSF1jMm5bY0hdW2NIXXMy

> <s_epik_cmdline>
J2VwaWtfcHl0aG9uJywgJy1waCcsICc3LjAnLCAnLXRuJywgJzgnLCAnLW1hJywgJzIwMCcsICctbWV0YWxfYmluZGluZycsICctaW1hZScsICc8aW5maWxlLm1hZT4nLCAnLW9tYWUnLCAnPG91dGZpbGUubWFlPic=

> <r_lp_tautomer_probability>
0.999

> <r_epik_Ionization_Penalty>
0.00042678

> <r_epik_Ionization_Penalty_Charging>
0

> <r_epik_Ionization_Penalty_Neutral>
0.00042678

> <r_epik_State_Penalty>
0.000177984

> <r_epik_Charging_Adjusted_Penalty>
0.000177984

> <i_epik_Tot_Q>
0

> <i_epik_Tot_abs_Q>
0

> <r_epik_Metal_State_Penalty>
-0

> <b_epik_Metal_Only>
0

> <s_lp_Force_Field>
OPLS_2005

> <r_lp_Energy>
13.37

> <b_lp_Chiralities_Consistent>
1

> <s_lp_Variant>
AV-unprocessed.smi:554-1

> <Gold.Version>
5.8.1

> <Gold.Id.Protein>
6NUR|6NUR_protein|mol2

> <Gold.PLP.Fitness>
44.1940

> <Gold.PLP.PLP>
-34.5390

> <Gold.PLP.part.hbond>
-3.0000

> <Gold.PLP.part.metal>
0.0000

> <Gold.PLP.part.buried>
-2.1563

> <Gold.PLP.part.nonpolar>
-28.5402

> <Gold.PLP.part.repulsive>
0.2723

> <Gold.PLP.ligand.clash>
0.0000

> <Gold.PLP.ligand.torsion>
0.9025

> <Gold.PLP.Chemscore.Hbond>
2.9440

> <Gold.PLP.Chemscore.CHOScore>
0.6968

> <Gold.PLP.Chemscore.Metal>
0.0000

> <Gold.Chemscore.Hbonds>
donor molecule, donor type, donor heavy atom, donor atom, acceptor molecule, acceptor atom, score
      L1  H     6    24       P1  8028  1.00
      L1  H     9    25       P1  8028  0.93
      P1  H  7989  7998       L1    11  1.00
      L1  C    13    27       P1  7948  0.67

> <Gold.PLP.Chemscore.Internal.Correction>
0.5375

> <Gold.Rescore>
     Score         DG    S(hbond)    S(metal)    S(lipo)     H(rot)  DE(clash)    DE(int)     intcor
     19.00     -20.35       2.70        0.00      78.05       1.28       0.35       1.00       ----

> <Gold.Chemscore.Fitness>
18.9998

> <Gold.Chemscore.DG>
-20.3501

> <Gold.Chemscore.ZeroCoef>
-5.4800

> <Gold.Chemscore.Hbond>
2.6981

> <Gold.Chemscore.Metal>
0.0000

> <Gold.Chemscore.Lipo>
78.0547

> <Gold.Chemscore.Internal_Hbond>
0.0000

> <Gold.Chemscore.DEClash>
0.3522

> <Gold.Chemscore.DEInternal>
0.9981

> <Gold.Chemscore.Rot>
1.2788

> <Gold.Chemscore.Internal.Correction>
   9.000000E+99

> <Gold.Chemscore.Hbonds>
donor molecule, donor type, donor heavy atom, donor atom, acceptor molecule, acceptor atom, score
      L1  H     6    24       P1  8028  0.99
      L1  H     9    25       P1  8028  0.87
      P1  H  7989  7998       L1    11  0.17

> <Gold.Chemscore.Hbond.Weighted>
-9.0115

> <Gold.Chemscore.Metal.Weighted>
-0.0000

> <Gold.Chemscore.Lipo.Weighted>
-9.1324

> <Gold.Chemscore.Internal_Hbond.Weighted>
0.0000

> <Gold.Chemscore.DEClash.Weighted>
0.3522

> <Gold.Chemscore.DEInternal.Weighted>
0.9981

> <Gold.Chemscore.Rot.Weighted>
3.2738

> <Gold.Chemscore.Internal.Correction.Weighted>
   9.000000E+99

> <Gold.Protein.RotatedTorsions>
[ 6907 6896 6895 6894 ] final   -3.78 input  -60.11 | X-H torsion
[ 7974 7965 7964 7962 ] final  -35.82 input  175.53 | X-H torsion
[ 8008 7997 7996 7995 ] final   83.10 input   59.86 | X-H torsion
[ 10167 10162 10161 10158 ] final  100.04 input  -65.29 | X-H torsion
[ 10718 10713 10712 10709 ] final  113.94 input   66.30 | X-H torsion
[ 10763 10752 10751 10750 ] final  -96.44 input  -60.55 | X-H torsion
[ 11005 11000 10999 10996 ] final -114.50 input  -57.11 | X-H torsion

> <Gold.Protein.ActiveResidues>
 VAL166  LYS551  ARG553  GLY616  TRP617  ASP618  TYR619  PRO620  LYS621  CYS622 
 ASP623  PHE694  ASN695  SER759  ASP760  ASP761  ALA762  ILE779  LEU786  VAL792 
 PHE793  MET794  SER795  GLU796  ALA797  LYS798  CYS799  TRP800  GLU811  SER814 

> <Gold.Protein.RotatedAtoms>
  151.5082  135.1064  159.9846 H   0  0  0  0  0  0  0  0  0  0  0  0  # atno 6907 bound_to 6896
  152.4673  133.7947  159.6931 H   0  0  0  0  0  0  0  0  0  0  0  0  # atno 6908 bound_to 6896
  150.8663  133.7506  159.3001 H   0  0  0  0  0  0  0  0  0  0  0  0  # atno 6909 bound_to 6896
  146.0714  140.6205  142.8951 H   0  0  0  0  0  0  0  0  0  0  0  0  # atno 7974 bound_to 7965
  155.9194  140.3422  155.6161 H   0  0  0  0  0  0  0  0  0  0  0  0  # atno 8008 bound_to 7997
  155.7291  140.0793  157.2315 H   0  0  0  0  0  0  0  0  0  0  0  0  # atno 8009 bound_to 7997
  154.4067  140.1591  156.2476 H   0  0  0  0  0  0  0  0  0  0  0  0  # atno 8010 bound_to 7997
  139.7563  144.6968  151.0357 H   0  0  0  0  0  0  0  0  0  0  0  0  # atno 10167 bound_to 10162
  157.6310  131.0991  150.7114 H   0  0  0  0  0  0  0  0  0  0  0  0  # atno 10718 bound_to 10713
  154.7240  135.5083  153.8857 H   0  0  0  0  0  0  0  0  0  0  0  0  # atno 10763 bound_to 10752
  153.0888  135.6653  153.9904 H   0  0  0  0  0  0  0  0  0  0  0  0  # atno 10764 bound_to 10752
  153.9721  135.3037  155.3406 H   0  0  0  0  0  0  0  0  0  0  0  0  # atno 10765 bound_to 10752
  141.0548  133.9630  157.2774 H   0  0  0  0  0  0  0  0  0  0  0  0  # atno 11005 bound_to 11000
  144.7234  140.4447  143.6991 LP  0  0  0  0  0  0  0  0  0  0  0  0  # atno 17320 bound_to 7965
  145.6385  139.1546  143.2929 LP  0  0  0  0  0  0  0  0  0  0  0  0  # atno 17321 bound_to 7965
  140.7803  143.4749  151.0096 LP  0  0  0  0  0  0  0  0  0  0  0  0  # atno 17342 bound_to 10162
  139.8436  143.7531  152.3180 LP  0  0  0  0  0  0  0  0  0  0  0  0  # atno 17343 bound_to 10162
  156.7453  130.4752  149.5468 LP  0  0  0  0  0  0  0  0  0  0  0  0  # atno 17370 bound_to 10713
  156.1513  130.6312  151.0599 LP  0  0  0  0  0  0  0  0  0  0  0  0  # atno 17371 bound_to 10713
  139.9380  135.0194  156.8619 LP  0  0  0  0  0  0  0  0  0  0  0  0  # atno 17394 bound_to 11000
  140.5986  134.0193  155.7528 LP  0  0  0  0  0  0  0  0  0  0  0  0  # atno 17395 bound_to 11000

$$$$
