AV-unprocessed.smi:1191|AV-procd|sdf|4986|dock9
  -GOLD-   22720 3583D 1   1.00000     0.00000
 Structure written by MMmdl.
 47 48  0  0  0  0  0  0  0  0  2 V2000
  154.9085  141.4874  160.3608 C   0  0  0  0  0  0  0  0  0  0  0  0
  153.7519  142.3863  160.0365 C   0  0  0  0  0  0  0  0  0  0  0  0
  153.0879  143.3118  160.8892 C   0  0  0  0  0  0  0  0  0  0  0  0
  152.1185  143.8636  160.0997 C   0  0  0  0  0  0  0  0  0  0  0  0
  151.0942  144.9034  160.4162 C   0  0  0  0  0  0  0  0  0  0  0  0
  152.2302  143.2709  158.8543 N   0  0  0  0  0  0  0  0  0  0  0  0
  151.4459  143.5057  157.6518 C   0  0  0  0  0  0  0  0  0  0  0  0
  151.1126  142.1916  156.9442 C   0  0  0  0  0  0  0  0  0  0  0  0
  151.7317  141.1654  157.2244 O   0  0  0  0  0  0  0  0  0  0  0  0
  150.1286  142.2347  156.0326 N   0  0  0  0  0  0  0  0  0  0  0  0
  149.6434  141.0918  155.2700 C   0  0  0  0  0  0  0  0  0  0  0  0
  148.3765  141.4480  154.4692 C   0  0  0  0  0  0  0  0  0  0  0  0
  147.2065  141.6886  155.3499 N   0  3  1  0  0  0  0  0  0  0  0  0
  146.0057  142.1207  154.5895 C   0  0  0  0  0  0  0  0  0  0  0  0
  144.8644  142.5187  155.5386 C   0  0  0  0  0  0  0  0  0  0  0  0
  144.5245  141.3747  156.5044 C   0  0  0  0  0  0  0  0  0  0  0  0
  145.7788  140.8777  157.2474 C   0  0  2  0  0  0  0  0  0  0  0  0
  146.2505  141.8515  158.3414 C   0  0  0  0  0  0  0  0  0  0  0  0
  146.9022  140.5399  156.2459 C   0  0  0  0  0  0  0  0  0  0  0  0
  153.2351  142.3680  158.8190 N   0  0  0  0  0  0  0  0  0  0  0  0
  155.1774  141.5553  161.4150 H   0  0  0  0  0  0  0  0  0  0  0  0
  155.7889  141.7554  159.7763 H   0  0  0  0  0  0  0  0  0  0  0  0
  154.6693  140.4455  160.1466 H   0  0  0  0  0  0  0  0  0  0  0  0
  153.2924  143.5369  161.9255 H   0  0  0  0  0  0  0  0  0  0  0  0
  151.1864  145.2386  161.4496 H   0  0  0  0  0  0  0  0  0  0  0  0
  150.0862  144.5108  160.2808 H   0  0  0  0  0  0  0  0  0  0  0  0
  151.2104  145.7740  159.7705 H   0  0  0  0  0  0  0  0  0  0  0  0
  150.5253  144.0301  157.9137 H   0  0  0  0  0  0  0  0  0  0  0  0
  152.0039  144.1623  156.9834 H   0  0  0  0  0  0  0  0  0  0  0  0
  149.6756  143.1229  155.8691 H   0  0  0  0  0  0  0  0  0  0  0  0
  150.4495  140.7800  154.6071 H   0  0  0  0  0  0  0  0  0  0  0  0
  149.4496  140.2522  155.9400 H   0  0  0  0  0  0  0  0  0  0  0  0
  148.5794  142.3516  153.8926 H   0  0  0  0  0  0  0  0  0  0  0  0
  148.1418  140.6685  153.7426 H   0  0  0  0  0  0  0  0  0  0  0  0
  146.2536  142.9748  153.9578 H   0  0  0  0  0  0  0  0  0  0  0  0
  145.6840  141.3166  153.9257 H   0  0  0  0  0  0  0  0  0  0  0  0
  145.1468  143.4098  156.1000 H   0  0  0  0  0  0  0  0  0  0  0  0
  143.9802  142.7902  154.9612 H   0  0  0  0  0  0  0  0  0  0  0  0
  143.7585  141.6914  157.2131 H   0  0  0  0  0  0  0  0  0  0  0  0
  144.0928  140.5486  155.9376 H   0  0  0  0  0  0  0  0  0  0  0  0
  145.5071  139.9524  157.7574 H   0  0  0  0  0  0  0  0  0  0  0  0
  146.5713  142.8072  157.9269 H   0  0  0  0  0  0  0  0  0  0  0  0
  147.0917  141.4363  158.8973 H   0  0  0  0  0  0  0  0  0  0  0  0
  145.4533  142.0514  159.0580 H   0  0  0  0  0  0  0  0  0  0  0  0
  146.6064  139.6840  155.6366 H   0  0  0  0  0  0  0  0  0  0  0  0
  147.7921  140.2329  156.7944 H   0  0  0  0  0  0  0  0  0  0  0  0
  147.4550  142.4676  155.9432 H   0  0  0  0  0  0  0  0  0  0  0  0
  1  2  1  0  0  0  0
  1 21  1  0  0  0  0
  1 22  1  0  0  0  0
  1 23  1  0  0  0  0
  2 20  2  0  0  0  0
  2  3  1  0  0  0  0
  3  4  2  0  0  0  0
  3 24  1  0  0  0  0
  4  5  1  0  0  0  0
  4  6  1  0  0  0  0
  5 25  1  0  0  0  0
  5 26  1  0  0  0  0
  5 27  1  0  0  0  0
  6  7  1  0  0  0  0
  6 20  1  0  0  0  0
  7  8  1  0  0  0  0
  7 28  1  0  0  0  0
  7 29  1  0  0  0  0
  8  9  2  0  0  0  0
  8 10  1  0  0  0  0
 10 11  1  0  0  0  0
 10 30  1  0  0  0  0
 11 12  1  0  0  0  0
 11 31  1  0  0  0  0
 11 32  1  0  0  0  0
 12 13  1  0  0  0  0
 12 33  1  0  0  0  0
 12 34  1  0  0  0  0
 13 19  1  0  0  0  0
 13 14  1  0  0  0  0
 13 47  1  0  0  0  0
 14 15  1  0  0  0  0
 14 35  1  0  0  0  0
 14 36  1  0  0  0  0
 15 16  1  0  0  0  0
 15 37  1  0  0  0  0
 15 38  1  0  0  0  0
 16 17  1  0  0  0  0
 16 39  1  0  0  0  0
 16 40  1  0  0  0  0
 17 18  1  0  0  0  0
 17 19  1  0  0  0  0
 17 41  1  0  0  0  0
 18 42  1  0  0  0  0
 18 43  1  0  0  0  0
 18 44  1  0  0  0  0
 19 45  1  0  0  0  0
 19 46  1  0  0  0  0
M  CHG  1  13   1
M  END
> <s_m_source_file>
AV-unprocessed.smi

> <i_m_source_file_index>
1191

> <i_lp_mmshare_version>
43012

> <i_f3d_flags>
0

> <s_epik_input>
W0NIM11jMVtjSF1jKFtDSDNdKW4objEpW0NIMl1DKD1PKVtOSF1bQ0gyXVtDSDJdTjJbQ0gyXVtDSDJdW0NIMl1bQ0BASF0oW0NIM10pW0NIMl0y

> <s_epik_cmdline>
J2VwaWtfcHl0aG9uJywgJy1waCcsICc3LjAnLCAnLXRuJywgJzgnLCAnLW1hJywgJzIwMCcsICctbWV0YWxfYmluZGluZycsICctaW1hZScsICc8aW5maWxlLm1hZT4nLCAnLW9tYWUnLCAnPG91dGZpbGUubWFlPic=

> <r_lp_tautomer_probability>
1

> <r_epik_Ionization_Penalty>
0.00249932

> <r_epik_Ionization_Penalty_Charging>
0.00230623

> <r_epik_Ionization_Penalty_Neutral>
0.000193092

> <r_epik_State_Penalty>
-0

> <r_epik_Charging_Adjusted_Penalty>
0.00230623

> <i_epik_Tot_Q>
1

> <i_epik_Tot_abs_Q>
1

> <r_epik_Metal_State_Penalty>
-0

> <b_epik_Metal_Only>
0

> <s_lp_Force_Field>
OPLS_2005

> <r_lp_Energy>
16.3649

> <b_lp_Chiralities_Consistent>
1

> <s_lp_Variant>
AV-unprocessed.smi:1191-3

> <Gold.Version>
5.8.1

> <Gold.Id.Protein>
6NUR|6NUR_protein|mol2

> <Gold.PLP.Fitness>
55.8212

> <Gold.PLP.PLP>
-47.9432

> <Gold.PLP.part.hbond>
-2.0000

> <Gold.PLP.part.metal>
0.0000

> <Gold.PLP.part.buried>
-6.9763

> <Gold.PLP.part.nonpolar>
-39.0780

> <Gold.PLP.part.repulsive>
0.2577

> <Gold.PLP.ligand.clash>
0.0064

> <Gold.PLP.ligand.torsion>
0.5120

> <Gold.PLP.Chemscore.Hbond>
2.9600

> <Gold.PLP.Chemscore.CHOScore>
0.0000

> <Gold.PLP.Chemscore.Metal>
0.0000

> <Gold.Chemscore.Hbonds>
donor molecule, donor type, donor heavy atom, donor atom, acceptor molecule, acceptor atom, score
      L1  H    10    30       P1  8028  1.00

> <Gold.PLP.Chemscore.Internal.Correction>
0.0285

> <Gold.Rescore>
     Score         DG    S(hbond)    S(metal)    S(lipo)     H(rot)  DE(clash)    DE(int)     intcor
     16.46     -18.15       1.49        0.00     102.36       1.67       0.03       1.66       ----

> <Gold.Chemscore.Fitness>
16.4621

> <Gold.Chemscore.DG>
-18.1546

> <Gold.Chemscore.ZeroCoef>
-5.4800

> <Gold.Chemscore.Hbond>
1.4858

> <Gold.Chemscore.Metal>
0.0000

> <Gold.Chemscore.Lipo>
102.3589

> <Gold.Chemscore.Internal_Hbond>
0.0000

> <Gold.Chemscore.DEClash>
0.0301

> <Gold.Chemscore.DEInternal>
1.6623

> <Gold.Chemscore.Rot>
1.6657

> <Gold.Chemscore.Internal.Correction>
   9.000000E+99

> <Gold.Chemscore.Hbonds>
donor molecule, donor type, donor heavy atom, donor atom, acceptor molecule, acceptor atom, score
      L1  H    10    30       P1  8028  1.00

> <Gold.Chemscore.Hbond.Weighted>
-4.9627

> <Gold.Chemscore.Metal.Weighted>
-0.0000

> <Gold.Chemscore.Lipo.Weighted>
-11.9760

> <Gold.Chemscore.Internal_Hbond.Weighted>
0.0000

> <Gold.Chemscore.DEClash.Weighted>
0.0301

> <Gold.Chemscore.DEInternal.Weighted>
1.6623

> <Gold.Chemscore.Rot.Weighted>
4.2641

> <Gold.Chemscore.Internal.Correction.Weighted>
   9.000000E+99

> <Gold.Protein.RotatedTorsions>
[ 6907 6896 6895 6894 ] final -153.87 input  -60.11 | X-H torsion
[ 7974 7965 7964 7962 ] final   56.54 input  175.53 | X-H torsion
[ 8008 7997 7996 7995 ] final  -16.32 input   59.86 | X-H torsion
[ 10167 10162 10161 10158 ] final  113.30 input  -65.29 | X-H torsion
[ 10718 10713 10712 10709 ] final    6.67 input   66.30 | X-H torsion
[ 10763 10752 10751 10750 ] final   57.83 input  -60.55 | X-H torsion
[ 11005 11000 10999 10996 ] final  -83.99 input  -57.11 | X-H torsion

> <Gold.Protein.ActiveResidues>
 VAL166  LYS551  ARG553  GLY616  TRP617  ASP618  TYR619  PRO620  LYS621  CYS622 
 ASP623  PHE694  ASN695  SER759  ASP760  ASP761  ALA762  ILE779  LEU786  VAL792 
 PHE793  MET794  SER795  GLU796  ALA797  LYS798  CYS799  TRP800  GLU811  SER814 

> <Gold.Protein.RotatedAtoms>
  151.2490  133.4360  159.2610 H   0  0  0  0  0  0  0  0  0  0  0  0  # atno 6907 bound_to 6896
  151.0635  134.9752  159.8283 H   0  0  0  0  0  0  0  0  0  0  0  0  # atno 6908 bound_to 6896
  152.5402  134.2439  159.8925 H   0  0  0  0  0  0  0  0  0  0  0  0  # atno 6909 bound_to 6896
  145.9387  139.3869  143.0377 H   0  0  0  0  0  0  0  0  0  0  0  0  # atno 7974 bound_to 7965
  154.5062  140.2172  155.9247 H   0  0  0  0  0  0  0  0  0  0  0  0  # atno 8008 bound_to 7997
  156.1496  140.3164  155.8593 H   0  0  0  0  0  0  0  0  0  0  0  0  # atno 8009 bound_to 7997
  155.3964  140.0481  157.3029 H   0  0  0  0  0  0  0  0  0  0  0  0  # atno 8010 bound_to 7997
  139.6472  144.7127  151.2120 H   0  0  0  0  0  0  0  0  0  0  0  0  # atno 10167 bound_to 10162
  156.9256  130.5807  149.5648 H   0  0  0  0  0  0  0  0  0  0  0  0  # atno 10718 bound_to 10713
  152.9858  135.5628  154.5455 H   0  0  0  0  0  0  0  0  0  0  0  0  # atno 10763 bound_to 10752
  154.4901  135.2792  155.1505 H   0  0  0  0  0  0  0  0  0  0  0  0  # atno 10764 bound_to 10752
  154.2978  135.6313  153.5465 H   0  0  0  0  0  0  0  0  0  0  0  0  # atno 10765 bound_to 10752
  141.1654  133.7322  156.8801 H   0  0  0  0  0  0  0  0  0  0  0  0  # atno 11005 bound_to 11000
  145.8329  140.9621  143.0839 LP  0  0  0  0  0  0  0  0  0  0  0  0  # atno 17320 bound_to 7965
  144.6775  140.0186  143.7484 LP  0  0  0  0  0  0  0  0  0  0  0  0  # atno 17321 bound_to 7965
  140.7520  143.6212  150.8512 LP  0  0  0  0  0  0  0  0  0  0  0  0  # atno 17342 bound_to 10162
  139.9856  143.5903  152.2928 LP  0  0  0  0  0  0  0  0  0  0  0  0  # atno 17343 bound_to 10162
  156.0470  130.5545  150.8904 LP  0  0  0  0  0  0  0  0  0  0  0  0  # atno 17370 bound_to 10713
  157.5879  131.0945  150.9166 LP  0  0  0  0  0  0  0  0  0  0  0  0  # atno 17371 bound_to 10713
  140.1721  134.9093  157.2846 LP  0  0  0  0  0  0  0  0  0  0  0  0  # atno 17394 bound_to 11000
  140.2490  134.3705  155.7449 LP  0  0  0  0  0  0  0  0  0  0  0  0  # atno 17395 bound_to 11000

$$$$
