AV-unprocessed.smi:2222|AV-procd|sdf|8986|dock5
  -GOLD-   2272012203D 1   1.00000     0.00000
 Structure written by MMmdl.
 34 35  0  0  0  0  0  0  0  0  1 V2000
  151.5736  145.5990  159.8523 C   0  0  0  0  0  0  0  0  0  0  0  0
  151.3364  144.4612  159.0363 O   0  0  0  0  0  0  0  0  0  0  0  0
  151.9636  143.2762  159.3687 C   0  0  0  0  0  0  0  0  0  0  0  0
  152.8499  143.1388  160.4675 C   0  0  0  0  0  0  0  0  0  0  0  0
  153.4423  141.8905  160.7254 C   0  0  0  0  0  0  0  0  0  0  0  0
  153.1275  140.8170  159.8736 C   0  0  0  0  0  0  0  0  0  0  0  0
  153.7313  139.4455  160.0892 C   0  0  0  0  0  0  0  0  0  0  0  0
  152.2868  140.9353  158.8265 N   0  0  0  0  0  0  0  0  0  0  0  0
  151.7076  142.1337  158.5669 C   0  0  0  0  0  0  0  0  0  0  0  0
  150.8116  142.3392  157.4822 N   0  0  0  0  0  0  0  0  0  0  0  0
  150.5662  141.5373  156.4269 C   0  0  0  0  0  0  0  0  0  0  0  0
  151.0717  140.4292  156.2565 O   0  0  0  0  0  0  0  0  0  0  0  0
  149.6669  142.0298  155.5564 N   0  0  0  0  0  0  0  0  0  0  0  0
  149.1922  141.4285  154.3447 C   0  0  1  0  0  0  0  0  0  0  0  0
  148.2883  140.2229  154.4849 C   0  0  0  0  0  0  0  0  0  0  0  0
  147.7181  141.5287  153.9979 C   0  0  1  0  0  0  0  0  0  0  0  0
  146.7407  142.3127  154.8519 C   0  0  0  0  0  0  0  0  0  0  0  0
  151.0159  146.4472  159.4557 H   0  0  0  0  0  0  0  0  0  0  0  0
  152.6295  145.8728  159.8575 H   0  0  0  0  0  0  0  0  0  0  0  0
  151.2369  145.4335  160.8765 H   0  0  0  0  0  0  0  0  0  0  0  0
  153.0884  143.9658  161.1186 H   0  0  0  0  0  0  0  0  0  0  0  0
  154.1210  141.7651  161.5564 H   0  0  0  0  0  0  0  0  0  0  0  0
  154.2887  139.4014  161.0251 H   0  0  0  0  0  0  0  0  0  0  0  0
  154.4126  139.2008  159.2739 H   0  0  0  0  0  0  0  0  0  0  0  0
  152.9496  138.6862  160.1238 H   0  0  0  0  0  0  0  0  0  0  0  0
  150.3027  143.2106  157.5058 H   0  0  0  0  0  0  0  0  0  0  0  0
  149.2243  142.9000  155.8142 H   0  0  0  0  0  0  0  0  0  0  0  0
  149.8846  141.3792  153.5056 H   0  0  0  0  0  0  0  0  0  0  0  0
  148.4007  139.4234  153.7554 H   0  0  0  0  0  0  0  0  0  0  0  0
  148.0274  139.8984  155.4907 H   0  0  0  0  0  0  0  0  0  0  0  0
  147.4957  141.5838  152.9339 H   0  0  0  0  0  0  0  0  0  0  0  0
  146.9437  142.1718  155.9139 H   0  0  0  0  0  0  0  0  0  0  0  0
  145.7218  141.9817  154.6507 H   0  0  0  0  0  0  0  0  0  0  0  0
  146.8127  143.3757  154.6216 H   0  0  0  0  0  0  0  0  0  0  0  0
  1  2  1  0  0  0  0
  1 18  1  0  0  0  0
  1 19  1  0  0  0  0
  1 20  1  0  0  0  0
  2  3  1  0  0  0  0
  3  9  1  0  0  0  0
  3  4  2  0  0  0  0
  4  5  1  0  0  0  0
  4 21  1  0  0  0  0
  5  6  2  0  0  0  0
  5 22  1  0  0  0  0
  6  7  1  0  0  0  0
  6  8  1  0  0  0  0
  7 23  1  0  0  0  0
  7 24  1  0  0  0  0
  7 25  1  0  0  0  0
  8  9  2  0  0  0  0
  9 10  1  0  0  0  0
 10 11  1  0  0  0  0
 10 26  1  0  0  0  0
 11 12  2  0  0  0  0
 11 13  1  0  0  0  0
 13 14  1  0  0  0  0
 13 27  1  0  0  0  0
 14 16  1  0  0  0  0
 14 15  1  0  0  0  0
 14 28  1  0  0  0  0
 15 16  1  0  0  0  0
 15 29  1  0  0  0  0
 15 30  1  0  0  0  0
 16 17  1  0  0  0  0
 16 31  1  0  0  0  0
 17 32  1  0  0  0  0
 17 33  1  0  0  0  0
 17 34  1  0  0  0  0
M  END
> <s_m_source_file>
AV-unprocessed.smi

> <i_m_source_file_index>
2222

> <i_lp_mmshare_version>
43012

> <i_f3d_flags>
0

> <s_epik_input>
W0NIM11PYzFbY0hdW2NIXWMoW0NIM10pbmMxW05IXUMoPU8pW05IXVtDQEBIXTJbQ0gyXVtDQEhdMltDSDNd

> <s_epik_cmdline>
J2VwaWtfcHl0aG9uJywgJy1waCcsICc3LjAnLCAnLXRuJywgJzgnLCAnLW1hJywgJzIwMCcsICctbWV0YWxfYmluZGluZycsICctaW1hZScsICc8aW5maWxlLm1hZT4nLCAnLW9tYWUnLCAnPG91dGZpbGUubWFlPic=

> <r_lp_tautomer_probability>
1

> <r_epik_Ionization_Penalty>
6.59103e-05

> <r_epik_Ionization_Penalty_Charging>
0

> <r_epik_Ionization_Penalty_Neutral>
6.59103e-05

> <r_epik_State_Penalty>
-0

> <r_epik_Charging_Adjusted_Penalty>
0

> <i_epik_Tot_Q>
0

> <i_epik_Tot_abs_Q>
0

> <r_epik_Metal_State_Penalty>
-0

> <b_epik_Metal_Only>
0

> <s_lp_Force_Field>
OPLS_2005

> <r_lp_Energy>
34.1661

> <b_lp_Chiralities_Consistent>
1

> <s_lp_Variant>
AV-unprocessed.smi:2222-2

> <Gold.Version>
5.8.1

> <Gold.Id.Protein>
6NUR|6NUR_protein|mol2

> <Gold.PLP.Fitness>
41.3082

> <Gold.PLP.PLP>
-38.7242

> <Gold.PLP.part.hbond>
-1.0000

> <Gold.PLP.part.metal>
0.0000

> <Gold.PLP.part.buried>
-4.8521

> <Gold.PLP.part.nonpolar>
-32.9064

> <Gold.PLP.part.repulsive>
0.2870

> <Gold.PLP.ligand.clash>
0.0000

> <Gold.PLP.ligand.torsion>
0.2268

> <Gold.PLP.Chemscore.Hbond>
1.0000

> <Gold.PLP.Chemscore.CHOScore>
0.0000

> <Gold.PLP.Chemscore.Metal>
0.0000

> <Gold.Chemscore.Hbonds>
donor molecule, donor type, donor heavy atom, donor atom, acceptor molecule, acceptor atom, score
      L1  H    13    27       P1  8028  1.00

> <Gold.PLP.Chemscore.Internal.Correction>
0.0376

> <Gold.Rescore>
     Score         DG    S(hbond)    S(metal)    S(lipo)     H(rot)  DE(clash)    DE(int)     intcor
     14.49     -16.01       0.99        0.00      88.36       1.22       0.01       1.51       ----

> <Gold.Chemscore.Fitness>
14.4872

> <Gold.Chemscore.DG>
-16.0051

> <Gold.Chemscore.ZeroCoef>
-5.4800

> <Gold.Chemscore.Hbond>
0.9886

> <Gold.Chemscore.Metal>
0.0000

> <Gold.Chemscore.Lipo>
88.3606

> <Gold.Chemscore.Internal_Hbond>
0.0000

> <Gold.Chemscore.DEClash>
0.0073

> <Gold.Chemscore.DEInternal>
1.5106

> <Gold.Chemscore.Rot>
1.2168

> <Gold.Chemscore.Internal.Correction>
   9.000000E+99

> <Gold.Chemscore.Hbonds>
donor molecule, donor type, donor heavy atom, donor atom, acceptor molecule, acceptor atom, score
      L1  H    13    27       P1  8028  0.98

> <Gold.Chemscore.Hbond.Weighted>
-3.3019

> <Gold.Chemscore.Metal.Weighted>
-0.0000

> <Gold.Chemscore.Lipo.Weighted>
-10.3382

> <Gold.Chemscore.Internal_Hbond.Weighted>
0.0000

> <Gold.Chemscore.DEClash.Weighted>
0.0073

> <Gold.Chemscore.DEInternal.Weighted>
1.5106

> <Gold.Chemscore.Rot.Weighted>
3.1150

> <Gold.Chemscore.Internal.Correction.Weighted>
   9.000000E+99

> <Gold.Protein.RotatedTorsions>
[ 6907 6896 6895 6894 ] final   54.01 input  -60.11 | X-H torsion
[ 7974 7965 7964 7962 ] final -166.36 input  175.53 | X-H torsion
[ 8008 7997 7996 7995 ] final  -33.21 input   59.86 | X-H torsion
[ 10167 10162 10161 10158 ] final   80.22 input  -65.29 | X-H torsion
[ 10718 10713 10712 10709 ] final -139.42 input   66.30 | X-H torsion
[ 10763 10752 10751 10750 ] final   51.07 input  -60.55 | X-H torsion
[ 11005 11000 10999 10996 ] final   54.01 input  -57.11 | X-H torsion

> <Gold.Protein.ActiveResidues>
 VAL166  LYS551  ARG553  GLY616  TRP617  ASP618  TYR619  PRO620  LYS621  CYS622 
 ASP623  PHE694  ASN695  SER759  ASP760  ASP761  ALA762  ILE779  LEU786  VAL792 
 PHE793  MET794  SER795  GLU796  ALA797  LYS798  CYS799  TRP800  GLU811  SER814 

> <Gold.Protein.RotatedAtoms>
  152.3395  134.7153  160.0267 H   0  0  0  0  0  0  0  0  0  0  0  0  # atno 6907 bound_to 6896
  151.7542  133.3324  159.3408 H   0  0  0  0  0  0  0  0  0  0  0  0  # atno 6908 bound_to 6896
  150.7471  134.6097  159.6124 H   0  0  0  0  0  0  0  0  0  0  0  0  # atno 6909 bound_to 6896
  144.7247  140.2677  143.6255 H   0  0  0  0  0  0  0  0  0  0  0  0  # atno 7974 bound_to 7965
  154.4156  140.1716  156.1852 H   0  0  0  0  0  0  0  0  0  0  0  0  # atno 8008 bound_to 7997
  155.9649  140.3390  155.6500 H   0  0  0  0  0  0  0  0  0  0  0  0  # atno 8009 bound_to 7997
  155.6701  140.0710  157.2514 H   0  0  0  0  0  0  0  0  0  0  0  0  # atno 8010 bound_to 7997
  139.9520  144.6019  150.8152 H   0  0  0  0  0  0  0  0  0  0  0  0  # atno 10167 bound_to 10162
  156.3106  130.7479  151.1554 H   0  0  0  0  0  0  0  0  0  0  0  0  # atno 10718 bound_to 10713
  152.9785  135.5858  154.4356 H   0  0  0  0  0  0  0  0  0  0  0  0  # atno 10763 bound_to 10752
  154.3963  135.2768  155.2126 H   0  0  0  0  0  0  0  0  0  0  0  0  # atno 10764 bound_to 10752
  154.3976  135.6111  153.5933 H   0  0  0  0  0  0  0  0  0  0  0  0  # atno 10765 bound_to 10752
  140.0720  134.5456  155.9036 H   0  0  0  0  0  0  0  0  0  0  0  0  # atno 11005 bound_to 11000
  145.8073  139.1989  143.2013 LP  0  0  0  0  0  0  0  0  0  0  0  0  # atno 17320 bound_to 7965
  146.0626  140.7955  142.9727 LP  0  0  0  0  0  0  0  0  0  0  0  0  # atno 17321 bound_to 7965
  140.7580  143.3097  151.2874 LP  0  0  0  0  0  0  0  0  0  0  0  0  # atno 17342 bound_to 10162
  139.6621  144.0171  152.2699 LP  0  0  0  0  0  0  0  0  0  0  0  0  # atno 17343 bound_to 10162
  157.7390  131.0534  150.5260 LP  0  0  0  0  0  0  0  0  0  0  0  0  # atno 17370 bound_to 10713
  156.5399  130.4205  149.6159 LP  0  0  0  0  0  0  0  0  0  0  0  0  # atno 17371 bound_to 10713
  141.2015  133.6619  156.5957 LP  0  0  0  0  0  0  0  0  0  0  0  0  # atno 17394 bound_to 11000
  140.3613  134.7685  157.4535 LP  0  0  0  0  0  0  0  0  0  0  0  0  # atno 17395 bound_to 11000

$$$$
