AV-unprocessed.smi:2666|AV-procd|sdf|10333|dock1
  -GOLD-   2272014353D 1   1.00000     0.00000
 Structure written by MMmdl.
 43 44  0  0  0  0  0  0  0  0  1 V2000
  147.4157  142.0077  159.1992 O   0  0  0  0  0  0  0  0  0  0  0  0
  147.5384  142.7994  158.2654 C   0  0  0  0  0  0  0  0  0  0  0  0
  146.7231  143.8392  158.0192 N   0  0  0  0  0  0  0  0  0  0  0  0
  145.5965  144.2714  158.7698 C   0  0  0  0  0  0  0  0  0  0  0  0
  144.9335  143.3244  159.5773 C   0  0  0  0  0  0  0  0  0  0  0  0
  143.8047  143.7239  160.3178 C   0  0  0  0  0  0  0  0  0  0  0  0
  143.3743  145.0606  160.2130 C   0  0  0  0  0  0  0  0  0  0  0  0
  143.9861  145.9757  159.4321 N   0  0  0  0  0  0  0  0  0  0  0  0
  145.0699  145.5863  158.7264 C   0  0  0  0  0  0  0  0  0  0  0  0
  148.5045  142.7146  157.3382 N   0  0  0  0  0  0  0  0  0  0  0  0
  149.5567  141.6955  157.2778 C   0  0  1  0  0  0  0  0  0  0  0  0
  150.1511  141.6702  155.8463 C   0  0  0  0  0  0  0  0  0  0  0  0
  149.1401  141.3711  154.7232 C   0  0  0  0  0  0  0  0  0  0  0  0
  149.7982  140.8404  153.5923 O   0  0  0  0  0  0  0  0  0  0  0  0
  150.6158  141.9593  158.3881 C   0  0  0  0  0  0  0  0  0  0  0  0
  151.2859  143.3492  158.2514 C   0  0  0  0  0  0  0  0  0  0  0  0
  152.3465  143.6004  159.3357 C   0  0  0  0  0  0  0  0  0  0  0  0
  153.4163  142.5022  159.3379 C   0  0  0  0  0  0  0  0  0  0  0  0
  152.7706  141.1219  159.5062 C   0  0  0  0  0  0  0  0  0  0  0  0
  151.7140  140.8644  158.4205 C   0  0  0  0  0  0  0  0  0  0  0  0
  146.8954  144.3469  157.1641 H   0  0  0  0  0  0  0  0  0  0  0  0
  145.2865  142.3050  159.6355 H   0  0  0  0  0  0  0  0  0  0  0  0
  143.2808  143.0227  160.9504 H   0  0  0  0  0  0  0  0  0  0  0  0
  142.5116  145.4020  160.7659 H   0  0  0  0  0  0  0  0  0  0  0  0
  145.4996  146.3535  158.1014 H   0  0  0  0  0  0  0  0  0  0  0  0
  148.5172  143.4132  156.6098 H   0  0  0  0  0  0  0  0  0  0  0  0
  149.1256  140.7119  157.4728 H   0  0  0  0  0  0  0  0  0  0  0  0
  150.6250  142.6311  155.6423 H   0  0  0  0  0  0  0  0  0  0  0  0
  150.9425  140.9254  155.7765 H   0  0  0  0  0  0  0  0  0  0  0  0
  148.3626  140.6810  155.0510 H   0  0  0  0  0  0  0  0  0  0  0  0
  148.6370  142.2911  154.4247 H   0  0  0  0  0  0  0  0  0  0  0  0
  149.1931  140.2863  153.1233 H   0  0  0  0  0  0  0  0  0  0  0  0
  150.1013  141.9344  159.3500 H   0  0  0  0  0  0  0  0  0  0  0  0
  151.7446  143.4409  157.2660 H   0  0  0  0  0  0  0  0  0  0  0  0
  150.5467  144.1451  158.3233 H   0  0  0  0  0  0  0  0  0  0  0  0
  152.8141  144.5727  159.1790 H   0  0  0  0  0  0  0  0  0  0  0  0
  151.8652  143.6430  160.3135 H   0  0  0  0  0  0  0  0  0  0  0  0
  153.9801  142.5343  158.4045 H   0  0  0  0  0  0  0  0  0  0  0  0
  154.1326  142.6800  160.1405 H   0  0  0  0  0  0  0  0  0  0  0  0
  153.5368  140.3470  159.4697 H   0  0  0  0  0  0  0  0  0  0  0  0
  152.3071  141.0520  160.4911 H   0  0  0  0  0  0  0  0  0  0  0  0
  151.2777  139.8823  158.6018 H   0  0  0  0  0  0  0  0  0  0  0  0
  152.2011  140.8070  157.4461 H   0  0  0  0  0  0  0  0  0  0  0  0
  1  2  2  0  0  0  0
  2  3  1  0  0  0  0
  2 10  1  0  0  0  0
  3  4  1  0  0  0  0
  3 21  1  0  0  0  0
  4  9  1  0  0  0  0
  4  5  2  0  0  0  0
  5  6  1  0  0  0  0
  5 22  1  0  0  0  0
  6  7  2  0  0  0  0
  6 23  1  0  0  0  0
  7  8  1  0  0  0  0
  7 24  1  0  0  0  0
  8  9  2  0  0  0  0
  9 25  1  0  0  0  0
 10 11  1  0  0  0  0
 10 26  1  0  0  0  0
 11 12  1  0  0  0  0
 11 15  1  0  0  0  0
 11 27  1  0  0  0  0
 12 13  1  0  0  0  0
 12 28  1  0  0  0  0
 12 29  1  0  0  0  0
 13 14  1  0  0  0  0
 13 30  1  0  0  0  0
 13 31  1  0  0  0  0
 14 32  1  0  0  0  0
 15 20  1  0  0  0  0
 15 16  1  0  0  0  0
 15 33  1  0  0  0  0
 16 17  1  0  0  0  0
 16 34  1  0  0  0  0
 16 35  1  0  0  0  0
 17 18  1  0  0  0  0
 17 36  1  0  0  0  0
 17 37  1  0  0  0  0
 18 19  1  0  0  0  0
 18 38  1  0  0  0  0
 18 39  1  0  0  0  0
 19 20  1  0  0  0  0
 19 40  1  0  0  0  0
 19 41  1  0  0  0  0
 20 42  1  0  0  0  0
 20 43  1  0  0  0  0
M  END
> <s_m_source_file>
AV-unprocessed.smi

> <i_m_source_file_index>
2666

> <i_lp_mmshare_version>
43012

> <i_f3d_flags>
0

> <s_epik_input>
W2NIXTFuW2NIXVtjSF1bY0hdYzFbTkhdQyg9TylbTkhdW0NASF0oW0NIMl1bQ0gyXVtPSF0pW0NIXTJbQ0gyXVtDSDJdW0NIMl1bQ0gyXVtDSDJdMg==

> <s_epik_cmdline>
J2VwaWtfcHl0aG9uJywgJy1waCcsICc3LjAnLCAnLXRuJywgJzgnLCAnLW1hJywgJzIwMCcsICctbWV0YWxfYmluZGluZycsICctaW1hZScsICc8aW5maWxlLm1hZT4nLCAnLW9tYWUnLCAnPG91dGZpbGUubWFlPic=

> <r_epik_Ionization_Penalty>
0.00500145

> <r_epik_Ionization_Penalty_Charging>
0

> <r_epik_Ionization_Penalty_Neutral>
0.00500145

> <r_epik_State_Penalty>
0.00360517

> <r_epik_Charging_Adjusted_Penalty>
0.00360517

> <i_epik_Tot_Q>
0

> <i_epik_Tot_abs_Q>
0

> <r_epik_Metal_State_Penalty>
-0

> <b_epik_Metal_Only>
0

> <s_lp_Force_Field>
OPLS_2005

> <r_lp_Energy>
18.9025

> <b_lp_Chiralities_Consistent>
1

> <s_lp_Variant>
AV-unprocessed.smi:2666-2

> <Gold.Version>
5.8.1

> <Gold.Id.Protein>
6NUR|6NUR_protein|mol2

> <Gold.PLP.Fitness>
43.3044

> <Gold.PLP.PLP>
-32.4572

> <Gold.PLP.part.hbond>
-6.8537

> <Gold.PLP.part.metal>
0.0000

> <Gold.PLP.part.buried>
0.6267

> <Gold.PLP.part.nonpolar>
-24.1684

> <Gold.PLP.part.repulsive>
0.1831

> <Gold.PLP.ligand.clash>
0.0000

> <Gold.PLP.ligand.torsion>
0.4588

> <Gold.PLP.Chemscore.Hbond>
3.1520

> <Gold.PLP.Chemscore.CHOScore>
0.7547

> <Gold.PLP.Chemscore.Metal>
0.0000

> <Gold.Chemscore.Hbonds>
donor molecule, donor type, donor heavy atom, donor atom, acceptor molecule, acceptor atom, score
      L1  H    10    26       P1  8028  1.00
      L1  H    14    32       P1  7957  0.29
      P1  H  6934  6946       L1     1  0.50
      P1  H  7989  7998       L1    14  0.37
      P1  H  8011  8017       L1    14  0.95
      L1  C     9    25       P1  8029  0.76

> <Gold.PLP.Chemscore.Internal.Correction>
0.0447

> <Gold.Rescore>
     Score         DG    S(hbond)    S(metal)    S(lipo)     H(rot)  DE(clash)    DE(int)     intcor
     14.26     -16.57       1.72        0.00      94.42       2.23       0.48       1.82       ----

> <Gold.Chemscore.Fitness>
14.2634

> <Gold.Chemscore.DG>
-16.5706

> <Gold.Chemscore.ZeroCoef>
-5.4800

> <Gold.Chemscore.Hbond>
1.7186

> <Gold.Chemscore.Metal>
0.0000

> <Gold.Chemscore.Lipo>
94.4163

> <Gold.Chemscore.Internal_Hbond>
0.0000

> <Gold.Chemscore.DEClash>
0.4840

> <Gold.Chemscore.DEInternal>
1.8233

> <Gold.Chemscore.Rot>
2.2251

> <Gold.Chemscore.Internal.Correction>
   9.000000E+99

> <Gold.Chemscore.Hbonds>
donor molecule, donor type, donor heavy atom, donor atom, acceptor molecule, acceptor atom, score
      L1  H    10    26       P1  8028  0.50
      L1  H    14    32       P1  7957  0.28
      P1  H  6933  6944       L1     1  0.01
      P1  H  6934  6946       L1     1  0.50
      P1  H  7989  7998       L1    14  0.37
      P1  H  8011  8017       L1    14  0.07

> <Gold.Chemscore.Hbond.Weighted>
-5.7401

> <Gold.Chemscore.Metal.Weighted>
-0.0000

> <Gold.Chemscore.Lipo.Weighted>
-11.0467

> <Gold.Chemscore.Internal_Hbond.Weighted>
0.0000

> <Gold.Chemscore.DEClash.Weighted>
0.4840

> <Gold.Chemscore.DEInternal.Weighted>
1.8233

> <Gold.Chemscore.Rot.Weighted>
5.6962

> <Gold.Chemscore.Internal.Correction.Weighted>
   9.000000E+99

> <Gold.Protein.RotatedTorsions>
[ 6907 6896 6895 6894 ] final   95.14 input  -60.11 | X-H torsion
[ 7974 7965 7964 7962 ] final  -61.15 input  175.53 | X-H torsion
[ 8008 7997 7996 7995 ] final   40.07 input   59.86 | X-H torsion
[ 10167 10162 10161 10158 ] final   57.61 input  -65.29 | X-H torsion
[ 10718 10713 10712 10709 ] final  123.19 input   66.30 | X-H torsion
[ 10763 10752 10751 10750 ] final  -50.20 input  -60.55 | X-H torsion
[ 11005 11000 10999 10996 ] final  -33.53 input  -57.11 | X-H torsion

> <Gold.Protein.ActiveResidues>
 VAL166  LYS551  ARG553  GLY616  TRP617  ASP618  TYR619  PRO620  LYS621  CYS622 
 ASP623  PHE694  ASN695  SER759  ASP760  ASP761  ALA762  ILE779  LEU786  VAL792 
 PHE793  MET794  SER795  GLU796  ALA797  LYS798  CYS799  TRP800  GLU811  SER814 

> <Gold.Protein.RotatedAtoms>
  152.5445  134.1086  159.8348 H   0  0  0  0  0  0  0  0  0  0  0  0  # atno 6907 bound_to 6896
  151.1155  133.5134  159.2611 H   0  0  0  0  0  0  0  0  0  0  0  0  # atno 6908 bound_to 6896
  151.1837  135.0381  159.8857 H   0  0  0  0  0  0  0  0  0  0  0  0  # atno 6909 bound_to 6896
  145.8069  140.8622  143.0202 H   0  0  0  0  0  0  0  0  0  0  0  0  # atno 7974 bound_to 7965
  155.2471  140.3350  155.4286 H   0  0  0  0  0  0  0  0  0  0  0  0  # atno 8008 bound_to 7997
  156.2231  140.1817  156.7473 H   0  0  0  0  0  0  0  0  0  0  0  0  # atno 8009 bound_to 7997
  154.5856  140.0646  156.9152 H   0  0  0  0  0  0  0  0  0  0  0  0  # atno 8010 bound_to 7997
  140.1962  144.4035  150.6549 H   0  0  0  0  0  0  0  0  0  0  0  0  # atno 10167 bound_to 10162
  157.5684  131.1085  150.8412 H   0  0  0  0  0  0  0  0  0  0  0  0  # atno 10718 bound_to 10713
  154.1064  135.6555  153.4877 H   0  0  0  0  0  0  0  0  0  0  0  0  # atno 10763 bound_to 10752
  153.0271  135.5237  154.7235 H   0  0  0  0  0  0  0  0  0  0  0  0  # atno 10764 bound_to 10752
  154.6402  135.2987  155.0082 H   0  0  0  0  0  0  0  0  0  0  0  0  # atno 10765 bound_to 10752
  140.9642  133.7147  156.1418 H   0  0  0  0  0  0  0  0  0  0  0  0  # atno 11005 bound_to 11000
  144.6762  140.0339  143.7482 LP  0  0  0  0  0  0  0  0  0  0  0  0  # atno 17320 bound_to 7965
  145.9819  139.2947  143.1037 LP  0  0  0  0  0  0  0  0  0  0  0  0  # atno 17321 bound_to 7965
  140.6422  143.2206  151.6265 LP  0  0  0  0  0  0  0  0  0  0  0  0  # atno 17342 bound_to 10162
  139.5236  144.3129  152.0977 LP  0  0  0  0  0  0  0  0  0  0  0  0  # atno 17343 bound_to 10162
  156.8890  130.5206  149.5287 LP  0  0  0  0  0  0  0  0  0  0  0  0  # atno 17370 bound_to 10713
  156.0731  130.5759  150.9421 LP  0  0  0  0  0  0  0  0  0  0  0  0  # atno 17371 bound_to 10713
  140.7423  134.4136  157.5553 LP  0  0  0  0  0  0  0  0  0  0  0  0  # atno 17394 bound_to 11000
  139.8888  134.8845  156.2452 LP  0  0  0  0  0  0  0  0  0  0  0  0  # atno 17395 bound_to 11000

$$$$
