AV-unprocessed.smi:65|AV-procd|sdf|615|dock9
  -GOLD-   2262016503D 1   1.00000     0.00000
 Structure written by MMmdl.
 26 27  0  0  0  0  0  0  0  0  2 V2000
  149.5970  141.9974  154.9656 N   0  0  0  0  0  0  0  0  0  0  0  0
  150.2642  141.6899  156.1261 C   0  0  0  0  0  0  0  0  0  0  0  0
  150.7874  140.4672  156.2531 N   0  0  0  0  0  0  0  0  0  0  0  0
  151.4407  140.1579  157.3893 C   0  0  0  0  0  0  0  0  0  0  0  0
  151.5830  141.0883  158.4320 C   0  0  0  0  0  0  0  0  0  0  0  0
  151.0138  142.3674  158.2393 C   0  0  0  0  0  0  0  0  0  0  0  0
  151.0865  143.3819  159.2126 N   0  0  0  0  0  0  0  0  0  0  0  0
  151.7912  143.1750  160.4714 C   0  0  0  0  0  0  0  0  0  0  0  0
  152.2782  144.5635  160.9054 C   0  0  0  0  0  0  0  0  0  0  0  0
  151.3521  145.5229  160.1559 C   0  0  1  0  0  0  0  0  0  0  0  0
  151.9362  146.7912  159.9492 O   0  0  0  0  0  0  0  0  0  0  0  0
  151.0926  144.7883  158.8418 C   0  0  0  0  0  0  0  0  0  0  0  0
  150.3589  142.6304  157.0763 N   0  3  0  0  0  0  0  0  0  0  0  0
  149.1896  142.9127  154.8380 H   0  0  0  0  0  0  0  0  0  0  0  0
  149.4931  141.3105  154.2328 H   0  0  0  0  0  0  0  0  0  0  0  0
  151.8506  139.1617  157.4668 H   0  0  0  0  0  0  0  0  0  0  0  0
  152.1031  140.8167  159.3387 H   0  0  0  0  0  0  0  0  0  0  0  0
  151.0935  142.7638  161.2014 H   0  0  0  0  0  0  0  0  0  0  0  0
  152.6289  142.4842  160.3696 H   0  0  0  0  0  0  0  0  0  0  0  0
  152.2550  144.7035  161.9866 H   0  0  0  0  0  0  0  0  0  0  0  0
  153.3080  144.7023  160.5717 H   0  0  0  0  0  0  0  0  0  0  0  0
  150.4170  145.6367  160.7062 H   0  0  0  0  0  0  0  0  0  0  0  0
  151.5959  147.3904  160.5963 H   0  0  0  0  0  0  0  0  0  0  0  0
  151.8977  144.9682  158.1275 H   0  0  0  0  0  0  0  0  0  0  0  0
  150.1495  145.0938  158.3871 H   0  0  0  0  0  0  0  0  0  0  0  0
  149.9424  143.5503  156.9334 H   0  0  0  0  0  0  0  0  0  0  0  0
  1  2  1  0  0  0  0
  1 14  1  0  0  0  0
  1 15  1  0  0  0  0
  2 13  1  0  0  0  0
  2  3  2  0  0  0  0
  3  4  1  0  0  0  0
  4  5  2  0  0  0  0
  4 16  1  0  0  0  0
  5  6  1  0  0  0  0
  5 17  1  0  0  0  0
  6  7  1  0  0  0  0
  6 13  2  0  0  0  0
  7 12  1  0  0  0  0
  7  8  1  0  0  0  0
  8  9  1  0  0  0  0
  8 18  1  0  0  0  0
  8 19  1  0  0  0  0
  9 10  1  0  0  0  0
  9 20  1  0  0  0  0
  9 21  1  0  0  0  0
 10 11  1  0  0  0  0
 10 12  1  0  0  0  0
 10 22  1  0  0  0  0
 11 23  1  0  0  0  0
 12 24  1  0  0  0  0
 12 25  1  0  0  0  0
 13 26  1  0  0  0  0
M  CHG  1  13   1
M  END
> <s_m_source_file>
AV-unprocessed.smi

> <i_m_source_file_index>
65

> <i_lp_mmshare_version>
43012

> <i_f3d_flags>
0

> <s_epik_input>
W05IMl1jMW5bY0hdW2NIXWMobjEpTjJbQ0gyXVtDSDJdW0NAQEhdKFtPSF0pW0NIMl0y

> <s_epik_cmdline>
J2VwaWtfcHl0aG9uJywgJy1waCcsICc3LjAnLCAnLXRuJywgJzgnLCAnLW1hJywgJzIwMCcsICctbWV0YWxfYmluZGluZycsICctaW1hZScsICc8aW5maWxlLm1hZT4nLCAnLW9tYWUnLCAnPG91dGZpbGUubWFlPic=

> <r_lp_tautomer_probability>
0.424989

> <r_epik_Ionization_Penalty>
0.57487

> <r_epik_Ionization_Penalty_Charging>
0.574865

> <r_epik_Ionization_Penalty_Neutral>
4.40886e-06

> <r_epik_State_Penalty>
0.845539

> <r_epik_Charging_Adjusted_Penalty>
1.4204

> <i_epik_Tot_Q>
1

> <i_epik_Tot_abs_Q>
1

> <r_epik_Metal_State_Penalty>
1.14248

> <b_epik_Metal_Only>
0

> <s_lp_Force_Field>
OPLS_2005

> <r_lp_Energy>
20.8145

> <b_lp_Chiralities_Consistent>
1

> <s_lp_Variant>
AV-unprocessed.smi:65-5

> <Gold.Version>
5.8.1

> <Gold.Id.Protein>
6NUR|6NUR_protein|mol2

> <Gold.PLP.Fitness>
38.2795

> <Gold.PLP.PLP>
-27.1985

> <Gold.PLP.part.hbond>
-4.5841

> <Gold.PLP.part.metal>
0.0000

> <Gold.PLP.part.buried>
-2.7835

> <Gold.PLP.part.nonpolar>
-20.4217

> <Gold.PLP.part.repulsive>
0.2527

> <Gold.PLP.ligand.clash>
0.0000

> <Gold.PLP.ligand.torsion>
0.1816

> <Gold.PLP.Chemscore.Hbond>
3.7440

> <Gold.PLP.Chemscore.CHOScore>
0.0000

> <Gold.PLP.Chemscore.Metal>
0.0000

> <Gold.Chemscore.Hbonds>
donor molecule, donor type, donor heavy atom, donor atom, acceptor molecule, acceptor atom, score
      L1  H     1    14       P1  8028  1.86
      L1  H    13    26       P1  8028  1.86

> <Gold.PLP.Chemscore.Internal.Correction>
0.2122

> <Gold.Rescore>
     Score         DG    S(hbond)    S(metal)    S(lipo)     H(rot)  DE(clash)    DE(int)     intcor
     13.56     -14.63       1.60        0.00      54.48       1.00       0.89       0.18       ----

> <Gold.Chemscore.Fitness>
13.5630

> <Gold.Chemscore.DG>
-14.6342

> <Gold.Chemscore.ZeroCoef>
-5.4800

> <Gold.Chemscore.Hbond>
1.5988

> <Gold.Chemscore.Metal>
0.0000

> <Gold.Chemscore.Lipo>
54.4810

> <Gold.Chemscore.Internal_Hbond>
0.0000

> <Gold.Chemscore.DEClash>
0.8875

> <Gold.Chemscore.DEInternal>
0.1838

> <Gold.Chemscore.Rot>
1.0000

> <Gold.Chemscore.Internal.Correction>
   9.000000E+99

> <Gold.Chemscore.Hbonds>
donor molecule, donor type, donor heavy atom, donor atom, acceptor molecule, acceptor atom, score
      L1  H     1    14       P1  8028  0.88
      L1  H    13    26       P1  8028  0.84

> <Gold.Chemscore.Hbond.Weighted>
-5.3399

> <Gold.Chemscore.Metal.Weighted>
-0.0000

> <Gold.Chemscore.Lipo.Weighted>
-6.3743

> <Gold.Chemscore.Internal_Hbond.Weighted>
0.0000

> <Gold.Chemscore.DEClash.Weighted>
0.8875

> <Gold.Chemscore.DEInternal.Weighted>
0.1838

> <Gold.Chemscore.Rot.Weighted>
2.5600

> <Gold.Chemscore.Internal.Correction.Weighted>
   9.000000E+99

> <Gold.Protein.RotatedTorsions>
[ 6907 6896 6895 6894 ] final -126.98 input  -60.11 | X-H torsion
[ 7974 7965 7964 7962 ] final -172.79 input  175.53 | X-H torsion
[ 8008 7997 7996 7995 ] final   41.84 input   59.86 | X-H torsion
[ 10167 10162 10161 10158 ] final  -94.51 input  -65.29 | X-H torsion
[ 10718 10713 10712 10709 ] final  -54.07 input   66.30 | X-H torsion
[ 10763 10752 10751 10750 ] final   34.91 input  -60.55 | X-H torsion
[ 11005 11000 10999 10996 ] final -128.53 input  -57.11 | X-H torsion

> <Gold.Protein.ActiveResidues>
 VAL166  LYS551  ARG553  GLY616  TRP617  ASP618  TYR619  PRO620  LYS621  CYS622 
 ASP623  PHE694  ASN695  SER759  ASP760  ASP761  ALA762  ILE779  LEU786  VAL792 
 PHE793  MET794  SER795  GLU796  ALA797  LYS798  CYS799  TRP800  GLU811  SER814 

> <Gold.Protein.RotatedAtoms>
  150.9025  133.7100  159.2875 H   0  0  0  0  0  0  0  0  0  0  0  0  # atno 6907 bound_to 6896
  151.4614  135.1037  159.9735 H   0  0  0  0  0  0  0  0  0  0  0  0  # atno 6908 bound_to 6896
  152.4885  133.8387  159.7196 H   0  0  0  0  0  0  0  0  0  0  0  0  # atno 6909 bound_to 6896
  144.7143  140.1719  143.6366 H   0  0  0  0  0  0  0  0  0  0  0  0  # atno 7974 bound_to 7965
  155.2763  140.3369  155.4261 H   0  0  0  0  0  0  0  0  0  0  0  0  # atno 8008 bound_to 7997
  156.2110  140.1770  156.7736 H   0  0  0  0  0  0  0  0  0  0  0  0  # atno 8009 bound_to 7997
  154.5686  140.0674  156.8914 H   0  0  0  0  0  0  0  0  0  0  0  0  # atno 8010 bound_to 7997
  140.3137  143.3090  152.0121 H   0  0  0  0  0  0  0  0  0  0  0  0  # atno 10167 bound_to 10162
  156.1482  130.4152  149.9989 H   0  0  0  0  0  0  0  0  0  0  0  0  # atno 10718 bound_to 10713
  153.0142  135.6347  154.1743 H   0  0  0  0  0  0  0  0  0  0  0  0  # atno 10763 bound_to 10752
  154.1484  135.2830  155.3144 H   0  0  0  0  0  0  0  0  0  0  0  0  # atno 10764 bound_to 10752
  154.6072  135.5568  153.7496 H   0  0  0  0  0  0  0  0  0  0  0  0  # atno 10765 bound_to 10752
  140.9508  134.1068  157.4064 H   0  0  0  0  0  0  0  0  0  0  0  0  # atno 11005 bound_to 11000
  145.8935  139.2389  143.1535 LP  0  0  0  0  0  0  0  0  0  0  0  0  # atno 17320 bound_to 7965
  145.9880  140.8627  143.0081 LP  0  0  0  0  0  0  0  0  0  0  0  0  # atno 17321 bound_to 7965
  139.4888  144.6365  151.6965 LP  0  0  0  0  0  0  0  0  0  0  0  0  # atno 17342 bound_to 10162
  140.5546  144.0370  150.6142 LP  0  0  0  0  0  0  0  0  0  0  0  0  # atno 17343 bound_to 10162
  156.7854  130.9237  151.3646 LP  0  0  0  0  0  0  0  0  0  0  0  0  # atno 17370 bound_to 10713
  157.6634  130.8986  149.9880 LP  0  0  0  0  0  0  0  0  0  0  0  0  # atno 17371 bound_to 10713
  139.8847  135.0065  156.6385 LP  0  0  0  0  0  0  0  0  0  0  0  0  # atno 17394 bound_to 11000
  140.7605  133.8821  155.8415 LP  0  0  0  0  0  0  0  0  0  0  0  0  # atno 17395 bound_to 11000

$$$$
