AV-unprocessed.smi:2360|AV-procd|sdf|9410|dock6
  -GOLD-   2272013 43D 1   1.00000     0.00000
 Structure written by MMmdl.
 34 35  0  0  0  0  0  0  0  0  1 V2000
  153.6900  142.5572  163.3956 C   0  0  0  0  0  0  0  0  0  0  0  0
  153.4043  142.3827  161.9146 C   0  0  0  0  0  0  0  0  0  0  0  0
  152.5152  143.3065  161.3583 N   0  0  0  0  0  0  0  0  0  0  0  0
  152.2139  143.2354  160.1033 C   0  0  0  0  0  0  0  0  0  0  0  0
  152.7566  142.2444  159.2677 N   0  0  0  0  0  0  0  0  0  0  0  0
  152.3395  142.2805  157.8549 C   0  0  0  0  0  0  0  0  0  0  0  0
  150.8817  142.7662  157.6857 C   0  0  1  0  0  0  0  0  0  0  0  0
  150.8902  144.1287  157.3099 O   0  0  0  0  0  0  0  0  0  0  0  0
  150.1404  141.9216  156.6605 C   0  0  0  0  0  0  0  0  0  0  0  0
  148.7621  142.1221  156.4254 C   0  0  0  0  0  0  0  0  0  0  0  0
  148.0836  141.3415  155.4694 C   0  0  0  0  0  0  0  0  0  0  0  0
  148.7788  140.3568  154.7416 C   0  0  0  0  0  0  0  0  0  0  0  0
  148.1253  139.6074  153.8223 F   0  0  0  0  0  0  0  0  0  0  0  0
  150.1537  140.1536  154.9702 C   0  0  0  0  0  0  0  0  0  0  0  0
  150.8252  139.2079  154.2711 F   0  0  0  0  0  0  0  0  0  0  0  0
  150.8325  140.9348  155.9259 C   0  0  0  0  0  0  0  0  0  0  0  0
  153.6303  141.3039  159.7299 C   0  0  0  0  0  0  0  0  0  0  0  0
  154.1015  140.4374  158.9912 O   0  0  0  0  0  0  0  0  0  0  0  0
  153.9662  141.3992  161.1599 C   0  0  0  0  0  0  0  0  0  0  0  0
  154.9415  140.3665  161.7112 C   0  0  0  0  0  0  0  0  0  0  0  0
  154.7519  142.7403  163.5608 H   0  0  0  0  0  0  0  0  0  0  0  0
  153.3995  141.6637  163.9485 H   0  0  0  0  0  0  0  0  0  0  0  0
  153.1376  143.4011  163.8103 H   0  0  0  0  0  0  0  0  0  0  0  0
  151.5308  143.9351  159.6185 H   0  0  0  0  0  0  0  0  0  0  0  0
  153.0186  142.8745  157.2402 H   0  0  0  0  0  0  0  0  0  0  0  0
  152.4272  141.2713  157.4467 H   0  0  0  0  0  0  0  0  0  0  0  0
  150.3518  142.6913  158.6362 H   0  0  0  0  0  0  0  0  0  0  0  0
  149.9995  144.4031  157.1547 H   0  0  0  0  0  0  0  0  0  0  0  0
  148.2215  142.8774  156.9769 H   0  0  0  0  0  0  0  0  0  0  0  0
  147.0296  141.4994  155.2939 H   0  0  0  0  0  0  0  0  0  0  0  0
  151.8876  140.7729  156.0914 H   0  0  0  0  0  0  0  0  0  0  0  0
  154.5355  139.3624  161.5861 H   0  0  0  0  0  0  0  0  0  0  0  0
  155.1603  140.5031  162.7688 H   0  0  0  0  0  0  0  0  0  0  0  0
  155.8879  140.4183  161.1719 H   0  0  0  0  0  0  0  0  0  0  0  0
  1  2  1  0  0  0  0
  1 21  1  0  0  0  0
  1 22  1  0  0  0  0
  1 23  1  0  0  0  0
  2 19  2  0  0  0  0
  2  3  1  0  0  0  0
  3  4  2  0  0  0  0
  4  5  1  0  0  0  0
  4 24  1  0  0  0  0
  5  6  1  0  0  0  0
  5 17  1  0  0  0  0
  6  7  1  0  0  0  0
  6 25  1  0  0  0  0
  6 26  1  0  0  0  0
  7  8  1  0  0  0  0
  7  9  1  0  0  0  0
  7 27  1  0  0  0  0
  8 28  1  0  0  0  0
  9 16  1  0  0  0  0
  9 10  2  0  0  0  0
 10 11  1  0  0  0  0
 10 29  1  0  0  0  0
 11 12  2  0  0  0  0
 11 30  1  0  0  0  0
 12 13  1  0  0  0  0
 12 14  1  0  0  0  0
 14 15  1  0  0  0  0
 14 16  2  0  0  0  0
 16 31  1  0  0  0  0
 17 18  2  0  0  0  0
 17 19  1  0  0  0  0
 19 20  1  0  0  0  0
 20 32  1  0  0  0  0
 20 33  1  0  0  0  0
 20 34  1  0  0  0  0
M  END
> <s_m_source_file>
AV-unprocessed.smi

> <i_m_source_file_index>
2360

> <i_lp_mmshare_version>
43012

> <i_f3d_flags>
0

> <s_epik_input>
W0NIM11jMW5bY0hdbihjKD1PKWMxW0NIM10pW0NIMl1bQ0BIXShbT0hdKWMyW2NIXVtjSF1jKEYpYyhGKVtjSF0y

> <s_epik_cmdline>
J2VwaWtfcHl0aG9uJywgJy1waCcsICc3LjAnLCAnLXRuJywgJzgnLCAnLW1hJywgJzIwMCcsICctbWV0YWxfYmluZGluZycsICctaW1hZScsICc8aW5maWxlLm1hZT4nLCAnLW9tYWUnLCAnPG91dGZpbGUubWFlPic=

> <r_lp_tautomer_probability>
1

> <r_epik_Ionization_Penalty>
5.07449e-05

> <r_epik_Ionization_Penalty_Charging>
7.56727e-08

> <r_epik_Ionization_Penalty_Neutral>
5.06692e-05

> <r_epik_State_Penalty>
-0

> <r_epik_Charging_Adjusted_Penalty>
7.56727e-08

> <i_epik_Tot_Q>
0

> <i_epik_Tot_abs_Q>
0

> <r_epik_Metal_State_Penalty>
-0

> <b_epik_Metal_Only>
0

> <s_lp_Force_Field>
OPLS_2005

> <r_lp_Energy>
19.5716

> <b_lp_Chiralities_Consistent>
1

> <s_lp_Variant>
AV-unprocessed.smi:2360-2

> <Gold.Version>
5.8.1

> <Gold.Id.Protein>
6NUR|6NUR_protein|mol2

> <Gold.PLP.Fitness>
46.2538

> <Gold.PLP.PLP>
-43.2077

> <Gold.PLP.part.hbond>
-2.0000

> <Gold.PLP.part.metal>
0.0000

> <Gold.PLP.part.buried>
-2.8071

> <Gold.PLP.part.nonpolar>
-37.0112

> <Gold.PLP.part.repulsive>
0.0989

> <Gold.PLP.ligand.clash>
0.0000

> <Gold.PLP.ligand.torsion>
0.9912

> <Gold.PLP.Chemscore.Hbond>
1.6721

> <Gold.PLP.Chemscore.CHOScore>
0.0000

> <Gold.PLP.Chemscore.Metal>
0.0000

> <Gold.Chemscore.Hbonds>
donor molecule, donor type, donor heavy atom, donor atom, acceptor molecule, acceptor atom, score
      L1  H     8    28       P1  8028  0.75
      P1  H  7997  8009       L1    18  0.80

> <Gold.PLP.Chemscore.Internal.Correction>
0.0121

> <Gold.Rescore>
     Score         DG    S(hbond)    S(metal)    S(lipo)     H(rot)  DE(clash)    DE(int)     intcor
     13.72     -16.32       1.63        0.00      92.36       2.11       1.58       1.02       ----

> <Gold.Chemscore.Fitness>
13.7162

> <Gold.Chemscore.DG>
-16.3176

> <Gold.Chemscore.ZeroCoef>
-5.4800

> <Gold.Chemscore.Hbond>
1.6264

> <Gold.Chemscore.Metal>
0.0000

> <Gold.Chemscore.Lipo>
92.3611

> <Gold.Chemscore.Internal_Hbond>
0.0000

> <Gold.Chemscore.DEClash>
1.5779

> <Gold.Chemscore.DEInternal>
1.0235

> <Gold.Chemscore.Rot>
2.1097

> <Gold.Chemscore.Internal.Correction>
   9.000000E+99

> <Gold.Chemscore.Hbonds>
donor molecule, donor type, donor heavy atom, donor atom, acceptor molecule, acceptor atom, score
      L1  H     8    28       P1  8028  0.42
      P1  H  7997  8009       L1    18  0.79

> <Gold.Chemscore.Hbond.Weighted>
-5.4323

> <Gold.Chemscore.Metal.Weighted>
-0.0000

> <Gold.Chemscore.Lipo.Weighted>
-10.8062

> <Gold.Chemscore.Internal_Hbond.Weighted>
0.0000

> <Gold.Chemscore.DEClash.Weighted>
1.5779

> <Gold.Chemscore.DEInternal.Weighted>
1.0235

> <Gold.Chemscore.Rot.Weighted>
5.4009

> <Gold.Chemscore.Internal.Correction.Weighted>
   9.000000E+99

> <Gold.Protein.RotatedTorsions>
[ 6907 6896 6895 6894 ] final   97.23 input  -60.11 | X-H torsion
[ 7974 7965 7964 7962 ] final  -84.26 input  175.53 | X-H torsion
[ 8008 7997 7996 7995 ] final  130.20 input   59.86 | X-H torsion
[ 10167 10162 10161 10158 ] final   21.78 input  -65.29 | X-H torsion
[ 10718 10713 10712 10709 ] final  116.13 input   66.30 | X-H torsion
[ 10763 10752 10751 10750 ] final  114.78 input  -60.55 | X-H torsion
[ 11005 11000 10999 10996 ] final  -26.93 input  -57.11 | X-H torsion

> <Gold.Protein.ActiveResidues>
 VAL166  LYS551  ARG553  GLY616  TRP617  ASP618  TYR619  PRO620  LYS621  CYS622 
 ASP623  PHE694  ASN695  SER759  ASP760  ASP761  ALA762  ILE779  LEU786  VAL792 
 PHE793  MET794  SER795  GLU796  ALA797  LYS798  CYS799  TRP800  GLU811  SER814 

> <Gold.Protein.RotatedAtoms>
  152.5426  134.0764  159.8216 H   0  0  0  0  0  0  0  0  0  0  0  0  # atno 6907 bound_to 6896
  151.0872  133.5336  159.2624 H   0  0  0  0  0  0  0  0  0  0  0  0  # atno 6908 bound_to 6896
  151.2141  135.0502  159.8977 H   0  0  0  0  0  0  0  0  0  0  0  0  # atno 6909 bound_to 6896
  145.5090  140.9541  143.1718 H   0  0  0  0  0  0  0  0  0  0  0  0  # atno 7974 bound_to 7965
  156.2950  140.2602  156.2722 H   0  0  0  0  0  0  0  0  0  0  0  0  # atno 8008 bound_to 7997
  154.9683  140.0391  157.2241 H   0  0  0  0  0  0  0  0  0  0  0  0  # atno 8009 bound_to 7997
  154.7882  140.2807  155.6016 H   0  0  0  0  0  0  0  0  0  0  0  0  # atno 8010 bound_to 7997
  140.5400  143.9694  150.6513 H   0  0  0  0  0  0  0  0  0  0  0  0  # atno 10167 bound_to 10162
  157.6179  131.1021  150.7429 H   0  0  0  0  0  0  0  0  0  0  0  0  # atno 10718 bound_to 10713
  153.5124  135.3615  155.2593 H   0  0  0  0  0  0  0  0  0  0  0  0  # atno 10763 bound_to 10752
  154.8741  135.4026  154.3354 H   0  0  0  0  0  0  0  0  0  0  0  0  # atno 10764 bound_to 10752
  153.4009  135.7075  153.6493 H   0  0  0  0  0  0  0  0  0  0  0  0  # atno 10765 bound_to 10752
  140.9074  133.7483  156.0624 H   0  0  0  0  0  0  0  0  0  0  0  0  # atno 11005 bound_to 11000
  144.7738  139.6675  143.7183 LP  0  0  0  0  0  0  0  0  0  0  0  0  # atno 17320 bound_to 7965
  146.2179  139.5582  142.9638 LP  0  0  0  0  0  0  0  0  0  0  0  0  # atno 17321 bound_to 7965
  140.3092  143.3209  152.0896 LP  0  0  0  0  0  0  0  0  0  0  0  0  # atno 17342 bound_to 10162
  139.4985  144.6647  151.6383 LP  0  0  0  0  0  0  0  0  0  0  0  0  # atno 17343 bound_to 10162
  156.7793  130.4854  149.5404 LP  0  0  0  0  0  0  0  0  0  0  0  0  # atno 17370 bound_to 10713
  156.1310  130.6178  151.0333 LP  0  0  0  0  0  0  0  0  0  0  0  0  # atno 17371 bound_to 10713
  140.8153  134.3351  157.5399 LP  0  0  0  0  0  0  0  0  0  0  0  0  # atno 17394 bound_to 11000
  139.8751  134.9278  156.3434 LP  0  0  0  0  0  0  0  0  0  0  0  0  # atno 17395 bound_to 11000

$$$$
