AV-unprocessed.smi:33|AV-procd|sdf|207|dock4
  -GOLD-   2262015493D 1   1.00000     0.00000
 Structure written by MMmdl.
 67 72  0  0  0  0  0  0  0  0  1 V2000
  152.8430  140.2663  158.1744 O   0  0  0  0  0  0  0  0  0  0  0  0
  152.1545  141.2818  158.2951 C   0  0  0  0  0  0  0  0  0  0  0  0
  151.2283  141.6662  157.3946 O   0  0  0  0  0  0  0  0  0  0  0  0
  151.1548  141.0232  156.1326 C   0  0  0  0  0  0  0  0  0  0  0  0
  149.6814  140.7852  155.7623 C   0  0  2  0  0  0  0  0  0  0  0  0
  148.9003  141.8831  156.2240 O   0  0  0  0  0  0  0  0  0  0  0  0
  148.4843  141.6468  157.5357 C   0  0  1  0  0  0  0  0  0  0  0  0
  147.0710  142.1215  157.6819 N   0  0  0  0  0  0  0  0  0  0  0  0
  146.0518  142.0049  156.7623 C   0  0  0  0  0  0  0  0  0  0  0  0
  144.9024  142.5016  157.1317 N   0  0  0  0  0  0  0  0  0  0  0  0
  145.1476  143.0030  158.4033 C   0  0  0  0  0  0  0  0  0  0  0  0
  144.3505  143.6703  159.3731 C   0  0  0  0  0  0  0  0  0  0  0  0
  143.0430  143.9668  159.1786 N   0  0  0  0  0  0  0  0  0  0  0  0
  142.0539  143.1461  159.8934 C   0  0  0  0  0  0  0  0  0  0  0  0
  142.3539  142.0055  160.2512 O   0  0  0  0  0  0  0  0  0  0  0  0
  140.6689  143.6716  160.1476 C   0  0  0  0  0  0  0  0  0  0  0  0
  140.4394  145.0640  160.1980 C   0  0  0  0  0  0  0  0  0  0  0  0
  139.1411  145.5622  160.4216 C   0  0  0  0  0  0  0  0  0  0  0  0
  138.0618  144.6720  160.5787 C   0  0  0  0  0  0  0  0  0  0  0  0
  138.2788  143.2832  160.5020 C   0  0  0  0  0  0  0  0  0  0  0  0
  139.5765  142.7842  160.2774 C   0  0  0  0  0  0  0  0  0  0  0  0
  142.7300  145.0709  158.2590 C   0  0  0  0  0  0  0  0  0  0  0  0
  141.6494  145.0797  157.6662 O   0  0  0  0  0  0  0  0  0  0  0  0
  143.7402  146.1516  157.9931 C   0  0  0  0  0  0  0  0  0  0  0  0
  143.8459  146.7189  156.7042 C   0  0  0  0  0  0  0  0  0  0  0  0
  144.7800  147.7426  156.4531 C   0  0  0  0  0  0  0  0  0  0  0  0
  145.6007  148.2190  157.4931 C   0  0  0  0  0  0  0  0  0  0  0  0
  145.4810  147.6772  158.7870 C   0  0  0  0  0  0  0  0  0  0  0  0
  144.5483  146.6527  159.0386 C   0  0  0  0  0  0  0  0  0  0  0  0
  144.9382  144.0240  160.5457 N   0  0  0  0  0  0  0  0  0  0  0  0
  146.2265  143.7396  160.7554 C   0  0  0  0  0  0  0  0  0  0  0  0
  147.0878  143.1235  159.9431 N   0  0  0  0  0  0  0  0  0  0  0  0
  146.5037  142.7675  158.7624 C   0  0  0  0  0  0  0  0  0  0  0  0
  148.6527  140.1391  157.8181 C   0  0  1  0  0  0  0  0  0  0  0  0
  147.5244  139.4820  158.3671 O   0  0  0  0  0  0  0  0  0  0  0  0
  149.0526  139.5772  156.4607 C   0  0  1  0  0  0  0  0  0  0  0  0
  147.9832  139.2014  155.7567 F   0  0  0  0  0  0  0  0  0  0  0  0
  152.2571  142.2133  159.4551 C   0  0  0  0  0  0  0  0  0  0  0  0
  151.6243  143.4766  159.3881 C   0  0  0  0  0  0  0  0  0  0  0  0
  151.7060  144.3780  160.4673 C   0  0  0  0  0  0  0  0  0  0  0  0
  152.4192  144.0258  161.6278 C   0  0  0  0  0  0  0  0  0  0  0  0
  153.0506  142.7709  161.7080 C   0  0  0  0  0  0  0  0  0  0  0  0
  152.9720  141.8690  160.6290 C   0  0  0  0  0  0  0  0  0  0  0  0
  151.6568  141.6243  155.3736 H   0  0  0  0  0  0  0  0  0  0  0  0
  151.6767  140.0668  156.1888 H   0  0  0  0  0  0  0  0  0  0  0  0
  149.5914  140.7099  154.6779 H   0  0  0  0  0  0  0  0  0  0  0  0
  149.0526  142.2677  158.2296 H   0  0  0  0  0  0  0  0  0  0  0  0
  146.1896  141.5372  155.7983 H   0  0  0  0  0  0  0  0  0  0  0  0
  141.2603  145.7564  160.0789 H   0  0  0  0  0  0  0  0  0  0  0  0
  138.9734  146.6280  160.4717 H   0  0  0  0  0  0  0  0  0  0  0  0
  137.0664  145.0543  160.7509 H   0  0  0  0  0  0  0  0  0  0  0  0
  137.4500  142.5998  160.6136 H   0  0  0  0  0  0  0  0  0  0  0  0
  139.7302  141.7164  160.2146 H   0  0  0  0  0  0  0  0  0  0  0  0
  143.2207  146.3617  155.8986 H   0  0  0  0  0  0  0  0  0  0  0  0
  144.8661  148.1636  155.4622 H   0  0  0  0  0  0  0  0  0  0  0  0
  146.3166  149.0043  157.3000 H   0  0  0  0  0  0  0  0  0  0  0  0
  146.1038  148.0487  159.5874 H   0  0  0  0  0  0  0  0  0  0  0  0
  144.4617  146.2485  160.0371 H   0  0  0  0  0  0  0  0  0  0  0  0
  146.6243  144.0494  161.7104 H   0  0  0  0  0  0  0  0  0  0  0  0
  149.4869  140.0308  158.5122 H   0  0  0  0  0  0  0  0  0  0  0  0
  146.8318  140.1181  158.4671 H   0  0  0  0  0  0  0  0  0  0  0  0
  149.7144  138.7130  156.5270 H   0  0  0  0  0  0  0  0  0  0  0  0
  151.0714  143.7695  158.5071 H   0  0  0  0  0  0  0  0  0  0  0  0
  151.2208  145.3409  160.4042 H   0  0  0  0  0  0  0  0  0  0  0  0
  152.4818  144.7169  162.4554 H   0  0  0  0  0  0  0  0  0  0  0  0
  153.5968  142.4984  162.5993 H   0  0  0  0  0  0  0  0  0  0  0  0
  153.4677  140.9141  160.7243 H   0  0  0  0  0  0  0  0  0  0  0  0
  1  2  2  0  0  0  0
  2  3  1  0  0  0  0
  2 38  1  0  0  0  0
  3  4  1  0  0  0  0
  4  5  1  0  0  0  0
  4 44  1  0  0  0  0
  4 45  1  0  0  0  0
  5 36  1  0  0  0  0
  5  6  1  0  0  0  0
  5 46  1  0  0  0  0
  6  7  1  0  0  0  0
  7  8  1  0  0  0  0
  7 34  1  0  0  0  0
  7 47  1  0  0  0  0
  8 33  1  0  0  0  0
  8  9  1  0  0  0  0
  9 10  2  0  0  0  0
  9 48  1  0  0  0  0
 10 11  1  0  0  0  0
 11 33  2  0  0  0  0
 11 12  1  0  0  0  0
 12 13  1  0  0  0  0
 12 30  2  0  0  0  0
 13 14  1  0  0  0  0
 13 22  1  0  0  0  0
 14 15  2  0  0  0  0
 14 16  1  0  0  0  0
 16 21  1  0  0  0  0
 16 17  2  0  0  0  0
 17 18  1  0  0  0  0
 17 49  1  0  0  0  0
 18 19  2  0  0  0  0
 18 50  1  0  0  0  0
 19 20  1  0  0  0  0
 19 51  1  0  0  0  0
 20 21  2  0  0  0  0
 20 52  1  0  0  0  0
 21 53  1  0  0  0  0
 22 23  2  0  0  0  0
 22 24  1  0  0  0  0
 24 29  1  0  0  0  0
 24 25  2  0  0  0  0
 25 26  1  0  0  0  0
 25 54  1  0  0  0  0
 26 27  2  0  0  0  0
 26 55  1  0  0  0  0
 27 28  1  0  0  0  0
 27 56  1  0  0  0  0
 28 29  2  0  0  0  0
 28 57  1  0  0  0  0
 29 58  1  0  0  0  0
 30 31  1  0  0  0  0
 31 32  2  0  0  0  0
 31 59  1  0  0  0  0
 32 33  1  0  0  0  0
 34 35  1  0  0  0  0
 34 36  1  0  0  0  0
 34 60  1  0  0  0  0
 35 61  1  0  0  0  0
 36 37  1  0  0  0  0
 36 62  1  0  0  0  0
 38 43  1  0  0  0  0
 38 39  2  0  0  0  0
 39 40  1  0  0  0  0
 39 63  1  0  0  0  0
 40 41  2  0  0  0  0
 40 64  1  0  0  0  0
 41 42  1  0  0  0  0
 41 65  1  0  0  0  0
 42 43  2  0  0  0  0
 42 66  1  0  0  0  0
 43 67  1  0  0  0  0
M  END
> <s_m_source_file>
AV-unprocessed.smi

> <i_m_source_file_index>
33

> <i_lp_mmshare_version>
43012

> <i_f3d_flags>
0

> <s_epik_input>
W2NIXTFbY0hdW2NIXVtjSF1bY0hdYzFDKD1PKU9bQ0gyXVtDQEBIXTJPW0NASF0oW0NAQEhdKFtPSF0pW0NAQEhdMkYpbihbY0hdbjMpYyhjMzQpbltjSF1uYzROKEMoPU8pYzVbY0hdW2NIXVtjSF1bY0hdW2NIXTUpQyg9TyljNltjSF1bY0hdW2NIXVtjSF1bY0hdNg==

> <s_epik_cmdline>
J2VwaWtfcHl0aG9uJywgJy1waCcsICc3LjAnLCAnLXRuJywgJzgnLCAnLW1hJywgJzIwMCcsICctbWV0YWxfYmluZGluZycsICctaW1hZScsICc8aW5maWxlLm1hZT4nLCAnLW9tYWUnLCAnPG91dGZpbGUubWFlPic=

> <r_lp_tautomer_probability>
1

> <r_epik_Ionization_Penalty>
0.00067664

> <r_epik_Ionization_Penalty_Charging>
0

> <r_epik_Ionization_Penalty_Neutral>
0.00067664

> <r_epik_State_Penalty>
0.000428095

> <r_epik_Charging_Adjusted_Penalty>
0.000428095

> <i_epik_Tot_Q>
0

> <i_epik_Tot_abs_Q>
0

> <r_epik_Metal_State_Penalty>
-0

> <b_epik_Metal_Only>
0

> <s_epik_Chemistry_Notes>
This compound has an ester and may undergo hydrolysis at high or low pH. This compound contains an acetal/aminal-like group ( X-CH(R)-Y where X, Y are N, S, or O) that may be acid/base labile, releasing an aldehyde.

> <s_lp_Force_Field>
OPLS_2005

> <r_lp_Energy>
79.5237

> <b_lp_Chiralities_Consistent>
1

> <s_lp_Variant>
AV-unprocessed.smi:33-9

> <Gold.Version>
5.8.1

> <Gold.Id.Protein>
6NUR|6NUR_protein|mol2

> <Gold.PLP.Fitness>
58.2337

> <Gold.PLP.PLP>
-55.7281

> <Gold.PLP.part.hbond>
-3.8519

> <Gold.PLP.part.metal>
0.0000

> <Gold.PLP.part.buried>
-10.1671

> <Gold.PLP.part.nonpolar>
-44.6122

> <Gold.PLP.part.repulsive>
2.4150

> <Gold.PLP.ligand.clash>
0.0843

> <Gold.PLP.ligand.torsion>
3.9720

> <Gold.PLP.Chemscore.Hbond>
2.0176

> <Gold.PLP.Chemscore.CHOScore>
0.0000

> <Gold.PLP.Chemscore.Metal>
0.0000

> <Gold.Chemscore.Hbonds>
donor molecule, donor type, donor heavy atom, donor atom, acceptor molecule, acceptor atom, score
      P1  H  6933  6944       L1    32  0.58
      P1  H  6934  6946       L1    32  0.04
      P1  H  7997  8010       L1     1  0.80

> <Gold.PLP.Chemscore.Internal.Correction>
4.4811

> <Gold.Rescore>
     Score         DG    S(hbond)    S(metal)    S(lipo)     H(rot)  DE(clash)    DE(int)     intcor
      8.84     -18.84       1.07        0.00     138.89       2.52       0.91       9.10       ----

> <Gold.Chemscore.Fitness>
8.8362

> <Gold.Chemscore.DG>
-18.8414

> <Gold.Chemscore.ZeroCoef>
-5.4800

> <Gold.Chemscore.Hbond>
1.0702

> <Gold.Chemscore.Metal>
0.0000

> <Gold.Chemscore.Lipo>
138.8909

> <Gold.Chemscore.Internal_Hbond>
0.0000

> <Gold.Chemscore.DEClash>
0.9069

> <Gold.Chemscore.DEInternal>
9.0983

> <Gold.Chemscore.Rot>
2.5247

> <Gold.Chemscore.Internal.Correction>
   9.000000E+99

> <Gold.Chemscore.Hbonds>
donor molecule, donor type, donor heavy atom, donor atom, acceptor molecule, acceptor atom, score
      P1  H  6933  6944       L1    32  0.14
      P1  H  7997  8010       L1     1  0.75

> <Gold.Chemscore.Hbond.Weighted>
-3.5745

> <Gold.Chemscore.Metal.Weighted>
-0.0000

> <Gold.Chemscore.Lipo.Weighted>
-16.2502

> <Gold.Chemscore.Internal_Hbond.Weighted>
0.0000

> <Gold.Chemscore.DEClash.Weighted>
0.9069

> <Gold.Chemscore.DEInternal.Weighted>
9.0983

> <Gold.Chemscore.Rot.Weighted>
6.4633

> <Gold.Chemscore.Internal.Correction.Weighted>
   9.000000E+99

> <Gold.Protein.RotatedTorsions>
[ 6907 6896 6895 6894 ] final -115.81 input  -60.11 | X-H torsion
[ 7974 7965 7964 7962 ] final -179.75 input  175.53 | X-H torsion
[ 8008 7997 7996 7995 ] final   43.49 input   59.86 | X-H torsion
[ 10167 10162 10161 10158 ] final -146.44 input  -65.29 | X-H torsion
[ 10718 10713 10712 10709 ] final  135.05 input   66.30 | X-H torsion
[ 10763 10752 10751 10750 ] final -146.68 input  -60.55 | X-H torsion
[ 11005 11000 10999 10996 ] final   -3.84 input  -57.11 | X-H torsion

> <Gold.Protein.ActiveResidues>
 VAL166  LYS551  ARG553  GLY616  TRP617  ASP618  TYR619  PRO620  LYS621  CYS622 
 ASP623  PHE694  ASN695  SER759  ASP760  ASP761  ALA762  ILE779  LEU786  VAL792 
 PHE793  MET794  SER795  GLU796  ALA797  LYS798  CYS799  TRP800  GLU811  SER814 

> <Gold.Protein.RotatedAtoms>
  150.8006  133.8606  159.3230 H   0  0  0  0  0  0  0  0  0  0  0  0  # atno 6907 bound_to 6896
  151.6419  135.1010  160.0152 H   0  0  0  0  0  0  0  0  0  0  0  0  # atno 6908 bound_to 6896
  152.4093  133.6899  159.6419 H   0  0  0  0  0  0  0  0  0  0  0  0  # atno 6909 bound_to 6896
  144.7139  140.0670  143.6430 H   0  0  0  0  0  0  0  0  0  0  0  0  # atno 7974 bound_to 7965
  155.3036  140.3386  155.4246 H   0  0  0  0  0  0  0  0  0  0  0  0  # atno 8008 bound_to 7997
  156.1989  140.1725  156.7979 H   0  0  0  0  0  0  0  0  0  0  0  0  # atno 8009 bound_to 7997
  154.5534  140.0701  156.8688 H   0  0  0  0  0  0  0  0  0  0  0  0  # atno 8010 bound_to 7997
  139.7713  143.8233  152.2625 H   0  0  0  0  0  0  0  0  0  0  0  0  # atno 10167 bound_to 10162
  157.4610  131.1073  150.9919 H   0  0  0  0  0  0  0  0  0  0  0  0  # atno 10718 bound_to 10713
  154.8324  135.3380  154.6700 H   0  0  0  0  0  0  0  0  0  0  0  0  # atno 10763 bound_to 10752
  153.7319  135.6951  153.4992 H   0  0  0  0  0  0  0  0  0  0  0  0  # atno 10764 bound_to 10752
  153.2306  135.4417  155.0543 H   0  0  0  0  0  0  0  0  0  0  0  0  # atno 10765 bound_to 10752
  140.6737  133.9214  155.8511 H   0  0  0  0  0  0  0  0  0  0  0  0  # atno 11005 bound_to 11000
  145.9815  139.2945  143.1039 LP  0  0  0  0  0  0  0  0  0  0  0  0  # atno 17320 bound_to 7965
  145.9005  140.9246  143.0505 LP  0  0  0  0  0  0  0  0  0  0  0  0  # atno 17321 bound_to 7965
  139.8268  144.7271  150.9501 LP  0  0  0  0  0  0  0  0  0  0  0  0  # atno 17342 bound_to 10162
  140.7814  143.4107  151.0998 LP  0  0  0  0  0  0  0  0  0  0  0  0  # atno 17343 bound_to 10162
  157.0716  130.5866  149.5403 LP  0  0  0  0  0  0  0  0  0  0  0  0  # atno 17370 bound_to 10713
  156.0029  130.5111  150.7727 LP  0  0  0  0  0  0  0  0  0  0  0  0  # atno 17371 bound_to 10713
  141.0372  134.0673  157.3945 LP  0  0  0  0  0  0  0  0  0  0  0  0  # atno 17394 bound_to 11000
  139.8973  135.0150  156.7095 LP  0  0  0  0  0  0  0  0  0  0  0  0  # atno 17395 bound_to 11000

$$$$
