AV-unprocessed.smi:49|AV-procd|sdf|463|dock5
  -GOLD-   2262016333D 1   1.00000     0.00000
 Structure written by MMmdl.
 28 29  0  0  0  0  0  0  0  0  2 V2000
  153.4207  142.4206  161.2337 C   0  0  0  0  0  0  0  0  0  0  0  0
  152.6250  143.5582  160.5847 C   0  0  0  0  0  0  0  0  0  0  0  0
  151.9218  143.1293  159.3388 C   0  0  0  0  0  0  0  0  0  0  0  0
  151.0276  142.1491  159.2623 N   0  0  0  0  0  0  0  0  0  0  0  0
  150.7058  142.2134  157.9354 C   0  0  0  0  0  0  0  0  0  0  0  0
  149.7426  141.2554  157.3014 C   0  0  2  0  0  0  0  0  0  0  0  0
  150.4275  140.3024  156.3079 C   0  0  0  0  0  0  0  0  0  0  0  0
  150.0815  140.8817  154.9384 C   0  0  1  0  0  0  0  0  0  0  0  0
  150.1046  139.9017  153.9227 O   0  0  0  0  0  0  0  0  0  0  0  0
  148.6818  141.4515  155.1594 C   0  0  0  0  0  0  0  0  0  0  0  0
  148.6912  141.9672  156.5399 N   0  3  0  0  0  0  0  0  0  0  0  0
  151.3524  143.1393  157.2248 N   0  0  0  0  0  0  0  0  0  0  0  0
  152.1246  143.7268  158.1630 N   0  0  0  0  0  0  0  0  0  0  0  0
  149.2632  140.6751  158.0909 H   0  0  0  0  0  0  0  0  0  0  0  0
  150.7756  141.6857  154.6888 H   0  0  0  0  0  0  0  0  0  0  0  0
  152.7521  144.4930  157.9631 H   0  0  0  0  0  0  0  0  0  0  0  0
  153.9223  142.7644  162.1385 H   0  0  0  0  0  0  0  0  0  0  0  0
  154.1837  142.0370  160.5558 H   0  0  0  0  0  0  0  0  0  0  0  0
  152.7685  141.5912  161.5089 H   0  0  0  0  0  0  0  0  0  0  0  0
  151.8922  143.9487  161.2919 H   0  0  0  0  0  0  0  0  0  0  0  0
  153.2929  144.3852  160.3414 H   0  0  0  0  0  0  0  0  0  0  0  0
  151.4999  140.1898  156.4736 H   0  0  0  0  0  0  0  0  0  0  0  0
  149.9779  139.3124  156.4041 H   0  0  0  0  0  0  0  0  0  0  0  0
  149.8708  140.3092  153.1022 H   0  0  0  0  0  0  0  0  0  0  0  0
  148.4190  142.2260  154.4385 H   0  0  0  0  0  0  0  0  0  0  0  0
  147.9324  140.6607  155.0977 H   0  0  0  0  0  0  0  0  0  0  0  0
  147.7863  141.8565  156.9741 H   0  0  0  0  0  0  0  0  0  0  0  0
  148.9401  142.9462  156.5167 H   0  0  0  0  0  0  0  0  0  0  0  0
  1  2  1  0  0  0  0
  1 17  1  0  0  0  0
  1 18  1  0  0  0  0
  1 19  1  0  0  0  0
  2  3  1  0  0  0  0
  2 20  1  0  0  0  0
  2 21  1  0  0  0  0
  3 13  1  0  0  0  0
  3  4  2  0  0  0  0
  4  5  1  0  0  0  0
  5  6  1  0  0  0  0
  5 12  2  0  0  0  0
  6 14  1  0  0  0  0
  6 11  1  0  0  0  0
  6  7  1  0  0  0  0
  7  8  1  0  0  0  0
  7 22  1  0  0  0  0
  7 23  1  0  0  0  0
  8 15  1  0  0  0  0
  8  9  1  0  0  0  0
  8 10  1  0  0  0  0
  9 24  1  0  0  0  0
 10 11  1  0  0  0  0
 10 25  1  0  0  0  0
 10 26  1  0  0  0  0
 11 27  1  0  0  0  0
 11 28  1  0  0  0  0
 12 13  1  0  0  0  0
 13 16  1  0  0  0  0
M  CHG  1  11   1
M  END
> <s_m_source_file>
AV-unprocessed.smi

> <i_m_source_file_index>
49

> <i_lp_mmshare_version>
43012

> <i_f3d_flags>
0

> <s_epik_input>
W0NIM11bQ0gyXWMxbmMobltuSF0xKVtDQEBIXTJbQ0gyXVtDQEBIXShbT0hdKVtDSDJdW05IXTI=

> <s_epik_cmdline>
J2VwaWtfcHl0aG9uJywgJy1waCcsICc3LjAnLCAnLXRuJywgJzgnLCAnLW1hJywgJzIwMCcsICctbWV0YWxfYmluZGluZycsICctaW1hZScsICc8aW5maWxlLm1hZT4nLCAnLW9tYWUnLCAnPG91dGZpbGUubWFlPic=

> <r_lp_tautomer_probability>
0.948284

> <r_epik_Ionization_Penalty>
0.045643

> <r_epik_Ionization_Penalty_Charging>
0.0371552

> <r_epik_Ionization_Penalty_Neutral>
0.00848778

> <r_epik_State_Penalty>
0.283309

> <r_epik_Charging_Adjusted_Penalty>
0.320465

> <i_epik_Tot_Q>
1

> <i_epik_Tot_abs_Q>
1

> <r_epik_Metal_State_Penalty>
0.558162

> <b_epik_Metal_Only>
0

> <s_lp_Force_Field>
OPLS_2005

> <r_lp_Energy>
17.5806

> <b_lp_Chiralities_Consistent>
1

> <s_lp_Variant>
AV-unprocessed.smi:49-1

> <Gold.Version>
5.8.1

> <Gold.Id.Protein>
6NUR|6NUR_protein|mol2

> <Gold.PLP.Fitness>
33.7508

> <Gold.PLP.PLP>
-25.1128

> <Gold.PLP.part.hbond>
-3.9656

> <Gold.PLP.part.metal>
0.0000

> <Gold.PLP.part.buried>
-3.0023

> <Gold.PLP.part.nonpolar>
-18.5821

> <Gold.PLP.part.repulsive>
0.1306

> <Gold.PLP.ligand.clash>
0.0000

> <Gold.PLP.ligand.torsion>
0.1034

> <Gold.PLP.Chemscore.Hbond>
2.9440

> <Gold.PLP.Chemscore.CHOScore>
0.0000

> <Gold.PLP.Chemscore.Metal>
0.0000

> <Gold.Chemscore.Hbonds>
donor molecule, donor type, donor heavy atom, donor atom, acceptor molecule, acceptor atom, score
      L1  H     9    24       P1  7957  0.91
      L1  H    11    28       P1  8028  2.00

> <Gold.PLP.Chemscore.Internal.Correction>
0.0128

> <Gold.Rescore>
     Score         DG    S(hbond)    S(metal)    S(lipo)     H(rot)  DE(clash)    DE(int)     intcor
     12.14     -12.49       1.92        0.00      46.48       1.89       0.31       0.05       ----

> <Gold.Chemscore.Fitness>
12.1406

> <Gold.Chemscore.DG>
-12.4927

> <Gold.Chemscore.ZeroCoef>
-5.4800

> <Gold.Chemscore.Hbond>
1.9188

> <Gold.Chemscore.Metal>
0.0000

> <Gold.Chemscore.Lipo>
46.4780

> <Gold.Chemscore.Internal_Hbond>
0.0000

> <Gold.Chemscore.DEClash>
0.3057

> <Gold.Chemscore.DEInternal>
0.0464

> <Gold.Chemscore.Rot>
1.8883

> <Gold.Chemscore.Internal.Correction>
   9.000000E+99

> <Gold.Chemscore.Hbonds>
donor molecule, donor type, donor heavy atom, donor atom, acceptor molecule, acceptor atom, score
      L1  H     9    24       P1  7957  0.88
      L1  H    11    28       P1  8028  0.93

> <Gold.Chemscore.Hbond.Weighted>
-6.4088

> <Gold.Chemscore.Metal.Weighted>
-0.0000

> <Gold.Chemscore.Lipo.Weighted>
-5.4379

> <Gold.Chemscore.Internal_Hbond.Weighted>
0.0000

> <Gold.Chemscore.DEClash.Weighted>
0.3057

> <Gold.Chemscore.DEInternal.Weighted>
0.0464

> <Gold.Chemscore.Rot.Weighted>
4.8340

> <Gold.Chemscore.Internal.Correction.Weighted>
   9.000000E+99

> <Gold.Protein.RotatedTorsions>
[ 6907 6896 6895 6894 ] final   62.70 input  -60.11 | X-H torsion
[ 7974 7965 7964 7962 ] final  103.50 input  175.53 | X-H torsion
[ 8008 7997 7996 7995 ] final   15.17 input   59.86 | X-H torsion
[ 10167 10162 10161 10158 ] final -141.57 input  -65.29 | X-H torsion
[ 10718 10713 10712 10709 ] final  153.93 input   66.30 | X-H torsion
[ 10763 10752 10751 10750 ] final -164.11 input  -60.55 | X-H torsion
[ 11005 11000 10999 10996 ] final  111.85 input  -57.11 | X-H torsion

> <Gold.Protein.ActiveResidues>
 VAL166  LYS551  ARG553  GLY616  TRP617  ASP618  TYR619  PRO620  LYS621  CYS622 
 ASP623  PHE694  ASN695  SER759  ASP760  ASP761  ALA762  ILE779  LEU786  VAL792 
 PHE793  MET794  SER795  GLU796  ALA797  LYS798  CYS799  TRP800  GLU811  SER814 

> <Gold.Protein.RotatedAtoms>
  152.4193  134.5984  159.9993 H   0  0  0  0  0  0  0  0  0  0  0  0  # atno 6907 bound_to 6896
  151.6138  133.3339  159.3081 H   0  0  0  0  0  0  0  0  0  0  0  0  # atno 6908 bound_to 6896
  150.8081  134.7258  159.6729 H   0  0  0  0  0  0  0  0  0  0  0  0  # atno 6909 bound_to 6896
  145.3450  139.2453  143.3589 H   0  0  0  0  0  0  0  0  0  0  0  0  # atno 7974 bound_to 7965
  154.8589  140.2941  155.5552 H   0  0  0  0  0  0  0  0  0  0  0  0  # atno 8008 bound_to 7997
  156.3019  140.2482  156.3492 H   0  0  0  0  0  0  0  0  0  0  0  0  # atno 8009 bound_to 7997
  154.8940  140.0393  157.1844 H   0  0  0  0  0  0  0  0  0  0  0  0  # atno 8010 bound_to 7997
  139.8172  143.7622  152.2665 H   0  0  0  0  0  0  0  0  0  0  0  0  # atno 10167 bound_to 10162
  157.2382  131.0753  151.1809 H   0  0  0  0  0  0  0  0  0  0  0  0  # atno 10718 bound_to 10713
  154.7059  135.2997  154.9271 H   0  0  0  0  0  0  0  0  0  0  0  0  # atno 10763 bound_to 10752
  154.0188  135.6685  153.4775 H   0  0  0  0  0  0  0  0  0  0  0  0  # atno 10764 bound_to 10752
  153.0717  135.5057  154.8229 H   0  0  0  0  0  0  0  0  0  0  0  0  # atno 10765 bound_to 10752
  139.8913  134.9517  156.6496 H   0  0  0  0  0  0  0  0  0  0  0  0  # atno 11005 bound_to 11000
  146.2991  140.4055  142.8710 LP  0  0  0  0  0  0  0  0  0  0  0  0  # atno 17320 bound_to 7965
  144.8761  140.7338  143.6016 LP  0  0  0  0  0  0  0  0  0  0  0  0  # atno 17321 bound_to 7965
  139.7789  144.7451  151.0116 LP  0  0  0  0  0  0  0  0  0  0  0  0  # atno 17342 bound_to 10162
  140.7815  143.4563  151.0341 LP  0  0  0  0  0  0  0  0  0  0  0  0  # atno 17343 bound_to 10162
  157.3406  130.7031  149.6379 LP  0  0  0  0  0  0  0  0  0  0  0  0  # atno 17370 bound_to 10713
  155.9671  130.4281  150.4772 LP  0  0  0  0  0  0  0  0  0  0  0  0  # atno 17371 bound_to 10713
  140.7531  133.8881  155.8361 LP  0  0  0  0  0  0  0  0  0  0  0  0  # atno 17394 bound_to 11000
  140.9984  134.1183  157.4341 LP  0  0  0  0  0  0  0  0  0  0  0  0  # atno 17395 bound_to 11000

$$$$
