AV-unprocessed.smi:1717|AV-procd|sdf|6919|dock9
  -GOLD-   22720 8123D 1   1.00000     0.00000
 Structure written by MMmdl.
 41 42  0  0  0  0  0  0  0  0  2 V2000
  141.7488  138.9052  154.9129 C   0  0  0  0  0  0  0  0  0  0  0  0
  142.6305  140.0554  154.7838 N   0  0  0  0  0  0  0  0  0  0  0  0
  143.1398  140.7336  155.8215 C   0  0  0  0  0  0  0  0  0  0  0  0
  142.9016  140.4496  156.9960 O   0  0  0  0  0  0  0  0  0  0  0  0
  144.0412  141.9238  155.4782 C   0  0  0  0  0  0  0  0  0  0  0  0
  145.2517  141.5311  154.7115 N   0  3  2  0  0  0  0  0  0  0  0  0
  146.2056  140.7358  155.5260 C   0  0  0  0  0  0  0  0  0  0  0  0
  147.3764  140.2198  154.6691 C   0  0  0  0  0  0  0  0  0  0  0  0
  148.1033  141.3598  153.9347 C   0  0  2  0  0  0  0  0  0  0  0  0
  148.8769  142.1651  154.8799 N   0  0  0  0  0  0  0  0  0  0  0  0
  149.7252  141.6802  155.7982 C   0  0  0  0  0  0  0  0  0  0  0  0
  149.9616  140.4807  155.9382 O   0  0  0  0  0  0  0  0  0  0  0  0
  150.2727  142.6667  156.5262 N   0  0  0  0  0  0  0  0  0  0  0  0
  151.2103  142.5346  157.5808 C   0  0  0  0  0  0  0  0  0  0  0  0
  151.7165  141.3519  158.1961 C   0  0  0  0  0  0  0  0  0  0  0  0
  152.5830  141.6440  159.1557 N   0  0  0  0  0  0  0  0  0  0  0  0
  152.6340  142.9951  159.1600 N   0  0  0  0  0  0  0  0  0  0  0  0
  151.8139  143.5769  158.2187 C   0  0  0  0  0  0  0  0  0  0  0  0
  147.0800  142.2099  153.1553 C   0  0  0  0  0  0  0  0  0  0  0  0
  145.9229  142.6828  154.0520 C   0  0  0  0  0  0  0  0  0  0  0  0
  153.2263  143.4993  159.8046 H   0  0  0  0  0  0  0  0  0  0  0  0
  141.4843  138.5263  153.9257 H   0  0  0  0  0  0  0  0  0  0  0  0
  140.8285  139.1771  155.4315 H   0  0  0  0  0  0  0  0  0  0  0  0
  142.2359  138.1012  155.4665 H   0  0  0  0  0  0  0  0  0  0  0  0
  142.8654  140.3528  153.8476 H   0  0  0  0  0  0  0  0  0  0  0  0
  143.4826  142.6857  154.9317 H   0  0  0  0  0  0  0  0  0  0  0  0
  144.3367  142.3729  156.4273 H   0  0  0  0  0  0  0  0  0  0  0  0
  146.5764  141.3447  156.3520 H   0  0  0  0  0  0  0  0  0  0  0  0
  145.6888  139.8839  155.9694 H   0  0  0  0  0  0  0  0  0  0  0  0
  148.0780  139.6602  155.2891 H   0  0  0  0  0  0  0  0  0  0  0  0
  146.9917  139.5114  153.9340 H   0  0  0  0  0  0  0  0  0  0  0  0
  148.8030  140.9131  153.2257 H   0  0  0  0  0  0  0  0  0  0  0  0
  148.7417  143.1648  154.8452 H   0  0  0  0  0  0  0  0  0  0  0  0
  149.9917  143.6103  156.3035 H   0  0  0  0  0  0  0  0  0  0  0  0
  151.4961  140.3146  157.9921 H   0  0  0  0  0  0  0  0  0  0  0  0
  151.7362  144.6467  158.0913 H   0  0  0  0  0  0  0  0  0  0  0  0
  147.5656  143.0671  152.6876 H   0  0  0  0  0  0  0  0  0  0  0  0
  146.6724  141.6148  152.3368 H   0  0  0  0  0  0  0  0  0  0  0  0
  145.2073  143.2369  153.4440 H   0  0  0  0  0  0  0  0  0  0  0  0
  146.2913  143.3760  154.8098 H   0  0  0  0  0  0  0  0  0  0  0  0
  144.9280  140.9188  153.9756 H   0  0  0  0  0  0  0  0  0  0  0  0
  1  2  1  0  0  0  0
  1 22  1  0  0  0  0
  1 23  1  0  0  0  0
  1 24  1  0  0  0  0
  2  3  1  0  0  0  0
  2 25  1  0  0  0  0
  3  4  2  0  0  0  0
  3  5  1  0  0  0  0
  5  6  1  0  0  0  0
  5 26  1  0  0  0  0
  5 27  1  0  0  0  0
  6 20  1  0  0  0  0
  6  7  1  0  0  0  0
  6 41  1  0  0  0  0
  7  8  1  0  0  0  0
  7 28  1  0  0  0  0
  7 29  1  0  0  0  0
  8  9  1  0  0  0  0
  8 30  1  0  0  0  0
  8 31  1  0  0  0  0
  9 10  1  0  0  0  0
  9 19  1  0  0  0  0
  9 32  1  0  0  0  0
 10 11  1  0  0  0  0
 10 33  1  0  0  0  0
 11 12  2  0  0  0  0
 11 13  1  0  0  0  0
 13 14  1  0  0  0  0
 13 34  1  0  0  0  0
 14 18  2  0  0  0  0
 14 15  1  0  0  0  0
 15 16  2  0  0  0  0
 15 35  1  0  0  0  0
 16 17  1  0  0  0  0
 17 21  1  0  0  0  0
 17 18  1  0  0  0  0
 18 36  1  0  0  0  0
 19 20  1  0  0  0  0
 19 37  1  0  0  0  0
 19 38  1  0  0  0  0
 20 39  1  0  0  0  0
 20 40  1  0  0  0  0
M  CHG  1   6   1
M  END
> <s_m_source_file>
AV-unprocessed.smi

> <i_m_source_file_index>
1717

> <i_lp_mmshare_version>
43012

> <i_f3d_flags>
0

> <s_epik_input>
W0NIM11bTkhdQyg9TylbQ0gyXU4xW0NIMl1bQ0gyXVtDSF0oW0NIMl1bQ0gyXTEpW05IXUMoPU8pW05IXWMyW2NIXW5bbkhdW2NIXTI=

> <s_epik_cmdline>
J2VwaWtfcHl0aG9uJywgJy1waCcsICc3LjAnLCAnLXRuJywgJzgnLCAnLW1hJywgJzIwMCcsICctbWV0YWxfYmluZGluZycsICctaW1hZScsICc8aW5maWxlLm1hZT4nLCAnLW9tYWUnLCAnPG91dGZpbGUubWFlPic=

> <r_lp_tautomer_probability>
0.5

> <r_epik_Ionization_Penalty>
0.838906

> <r_epik_Ionization_Penalty_Charging>
0.838844

> <r_epik_Ionization_Penalty_Neutral>
6.24243e-05

> <r_epik_State_Penalty>
0.8734

> <r_epik_Charging_Adjusted_Penalty>
1.71224

> <i_epik_Tot_Q>
1

> <i_epik_Tot_abs_Q>
1

> <r_epik_Metal_State_Penalty>
0.877921

> <b_epik_Metal_Only>
0

> <s_lp_Force_Field>
OPLS_2005

> <r_lp_Energy>
16.7427

> <b_lp_Chiralities_Consistent>
1

> <s_lp_Variant>
AV-unprocessed.smi:1717-3

> <Gold.Version>
5.8.1

> <Gold.Id.Protein>
6NUR|6NUR_protein|mol2

> <Gold.PLP.Fitness>
41.3436

> <Gold.PLP.PLP>
-26.6645

> <Gold.PLP.part.hbond>
-4.0000

> <Gold.PLP.part.metal>
0.0000

> <Gold.PLP.part.buried>
-6.4866

> <Gold.PLP.part.nonpolar>
-16.3402

> <Gold.PLP.part.repulsive>
0.4018

> <Gold.PLP.ligand.clash>
0.0000

> <Gold.PLP.ligand.torsion>
0.1742

> <Gold.PLP.Chemscore.Hbond>
5.0000

> <Gold.PLP.Chemscore.CHOScore>
0.0000

> <Gold.PLP.Chemscore.Metal>
0.0000

> <Gold.Chemscore.Hbonds>
donor molecule, donor type, donor heavy atom, donor atom, acceptor molecule, acceptor atom, score
      L1  H     2    25       P1 10175  1.00
      L1  H     6    41       P1 10175  2.00
      L1  H    10    33       P1  8028  0.99
      L1  H    13    34       P1  8028  1.00

> <Gold.PLP.Chemscore.Internal.Correction>
0.0274

> <Gold.Rescore>
     Score         DG    S(hbond)    S(metal)    S(lipo)     H(rot)  DE(clash)    DE(int)     intcor
     16.81     -20.82       3.81        0.00      61.79       1.81       1.64       2.37       ----

> <Gold.Chemscore.Fitness>
16.8060

> <Gold.Chemscore.DG>
-20.8151

> <Gold.Chemscore.ZeroCoef>
-5.4800

> <Gold.Chemscore.Hbond>
3.8139

> <Gold.Chemscore.Metal>
0.0000

> <Gold.Chemscore.Lipo>
61.7879

> <Gold.Chemscore.Internal_Hbond>
0.0000

> <Gold.Chemscore.DEClash>
1.6416

> <Gold.Chemscore.DEInternal>
2.3675

> <Gold.Chemscore.Rot>
1.8096

> <Gold.Chemscore.Internal.Correction>
   9.000000E+99

> <Gold.Chemscore.Hbonds>
donor molecule, donor type, donor heavy atom, donor atom, acceptor molecule, acceptor atom, score
      L1  H     2    25       P1 10175  0.89
      L1  H     6    41       P1 10175  0.83
      L1  H    10    33       P1  8028  0.94
      L1  H    13    34       P1  8028  0.96

> <Gold.Chemscore.Hbond.Weighted>
-12.7385

> <Gold.Chemscore.Metal.Weighted>
-0.0000

> <Gold.Chemscore.Lipo.Weighted>
-7.2292

> <Gold.Chemscore.Internal_Hbond.Weighted>
0.0000

> <Gold.Chemscore.DEClash.Weighted>
1.6416

> <Gold.Chemscore.DEInternal.Weighted>
2.3675

> <Gold.Chemscore.Rot.Weighted>
4.6325

> <Gold.Chemscore.Internal.Correction.Weighted>
   9.000000E+99

> <Gold.Protein.RotatedTorsions>
[ 6907 6896 6895 6894 ] final -120.50 input  -60.11 | X-H torsion
[ 7974 7965 7964 7962 ] final -160.37 input  175.53 | X-H torsion
[ 8008 7997 7996 7995 ] final  150.16 input   59.86 | X-H torsion
[ 10167 10162 10161 10158 ] final   -8.39 input  -65.29 | X-H torsion
[ 10718 10713 10712 10709 ] final   95.03 input   66.30 | X-H torsion
[ 10763 10752 10751 10750 ] final -166.73 input  -60.55 | X-H torsion
[ 11005 11000 10999 10996 ] final   20.89 input  -57.11 | X-H torsion

> <Gold.Protein.ActiveResidues>
 VAL166  LYS551  ARG553  GLY616  TRP617  ASP618  TYR619  PRO620  LYS621  CYS622 
 ASP623  PHE694  ASN695  SER759  ASP760  ASP761  ALA762  ILE779  LEU786  VAL792 
 PHE793  MET794  SER795  GLU796  ALA797  LYS798  CYS799  TRP800  GLU811  SER814 

> <Gold.Protein.RotatedAtoms>
  150.8399  133.7954  159.3064 H   0  0  0  0  0  0  0  0  0  0  0  0  # atno 6907 bound_to 6896
  151.5658  135.1062  159.9993 H   0  0  0  0  0  0  0  0  0  0  0  0  # atno 6908 bound_to 6896
  152.4464  133.7503  159.6746 H   0  0  0  0  0  0  0  0  0  0  0  0  # atno 6909 bound_to 6896
  144.7430  140.3552  143.6107 H   0  0  0  0  0  0  0  0  0  0  0  0  # atno 7974 bound_to 7965
  156.2727  140.2082  156.5973 H   0  0  0  0  0  0  0  0  0  0  0  0  # atno 8008 bound_to 7997
  154.6935  140.0528  157.0410 H   0  0  0  0  0  0  0  0  0  0  0  0  # atno 8009 bound_to 7997
  155.0834  140.3189  155.4598 H   0  0  0  0  0  0  0  0  0  0  0  0  # atno 8010 bound_to 7997
  140.7057  143.5974  150.8832 H   0  0  0  0  0  0  0  0  0  0  0  0  # atno 10167 bound_to 10162
  157.6942  131.0532  150.4276 H   0  0  0  0  0  0  0  0  0  0  0  0  # atno 10718 bound_to 10713
  154.6804  135.2953  154.9621 H   0  0  0  0  0  0  0  0  0  0  0  0  # atno 10763 bound_to 10752
  154.0618  135.6630  153.4817 H   0  0  0  0  0  0  0  0  0  0  0  0  # atno 10764 bound_to 10752
  153.0543  135.5154  154.7844 H   0  0  0  0  0  0  0  0  0  0  0  0  # atno 10765 bound_to 10752
  140.3976  134.1752  155.7663 H   0  0  0  0  0  0  0  0  0  0  0  0  # atno 11005 bound_to 11000
  145.7235  139.1716  143.2471 LP  0  0  0  0  0  0  0  0  0  0  0  0  # atno 17320 bound_to 7965
  146.1260  140.7248  142.9435 LP  0  0  0  0  0  0  0  0  0  0  0  0  # atno 17321 bound_to 7965
  139.9699  143.6069  152.2977 LP  0  0  0  0  0  0  0  0  0  0  0  0  # atno 17342 bound_to 10162
  139.6652  144.7662  151.1887 LP  0  0  0  0  0  0  0  0  0  0  0  0  # atno 17343 bound_to 10162
  156.4646  130.4039  149.6555 LP  0  0  0  0  0  0  0  0  0  0  0  0  # atno 17370 bound_to 10713
  156.3658  130.7505  151.2482 LP  0  0  0  0  0  0  0  0  0  0  0  0  # atno 17371 bound_to 10713
  141.1868  133.8294  157.1054 LP  0  0  0  0  0  0  0  0  0  0  0  0  # atno 17394 bound_to 11000
  140.0360  134.9878  157.0872 LP  0  0  0  0  0  0  0  0  0  0  0  0  # atno 17395 bound_to 11000

$$$$
