AV-unprocessed.smi:3032|AV-procd|sdf|11567|dock2
  -GOLD-   2272016533D 1   1.00000     0.00000
 Structure written by MMmdl.
 37 38  0  0  0  0  0  0  0  0  1 V2000
  152.6670  143.0989  161.6108 C   0  0  0  0  0  0  0  0  0  0  0  0
  152.6516  143.0846  160.0756 C   0  0  2  0  0  0  0  0  0  0  0  0
  152.1691  144.4322  159.5047 C   0  0  0  0  0  0  0  0  0  0  0  0
  152.1445  144.4178  157.9681 C   0  0  0  0  0  0  0  0  0  0  0  0
  151.2857  143.2604  157.4354 C   0  0  0  0  0  0  0  0  0  0  0  0
  151.7712  141.9046  157.9886 C   0  0  2  0  0  0  0  0  0  0  0  0
  150.8966  140.7582  157.4645 C   0  0  0  0  0  0  0  0  0  0  0  0
  149.7419  140.6209  157.8697 O   0  0  0  0  0  0  0  0  0  0  0  0
  151.4560  139.9471  156.5540 N   0  0  0  0  0  0  0  0  0  0  0  0
  150.7902  138.8183  155.9102 C   0  0  0  0  0  0  0  0  0  0  0  0
  150.2790  139.1452  154.4927 C   0  0  0  0  0  0  0  0  0  0  0  0
  148.8403  139.5534  154.4480 C   0  0  0  0  0  0  0  0  0  0  0  0
  148.0481  139.6800  155.5194 N   0  0  0  0  0  0  0  0  0  0  0  0
  146.8085  140.0535  155.0237 N   0  0  0  0  0  0  0  0  0  0  0  0
  146.9738  140.1150  153.7014 C   0  0  0  0  0  0  0  0  0  0  0  0
  148.2116  139.8151  153.2916 N   0  0  0  0  0  0  0  0  0  0  0  0
  151.7876  141.9295  159.5324 C   0  0  0  0  0  0  0  0  0  0  0  0
  148.5789  139.7887  152.3515 H   0  0  0  0  0  0  0  0  0  0  0  0
  151.6664  143.2529  162.0159 H   0  0  0  0  0  0  0  0  0  0  0  0
  153.3058  143.8969  161.9904 H   0  0  0  0  0  0  0  0  0  0  0  0
  153.0460  142.1572  162.0085 H   0  0  0  0  0  0  0  0  0  0  0  0
  153.6771  142.9247  159.7392 H   0  0  0  0  0  0  0  0  0  0  0  0
  151.1698  144.6557  159.8808 H   0  0  0  0  0  0  0  0  0  0  0  0
  152.8163  145.2383  159.8522 H   0  0  0  0  0  0  0  0  0  0  0  0
  151.7600  145.3672  157.5943 H   0  0  0  0  0  0  0  0  0  0  0  0
  153.1621  144.3247  157.5865 H   0  0  0  0  0  0  0  0  0  0  0  0
  150.2439  143.4296  157.7124 H   0  0  0  0  0  0  0  0  0  0  0  0
  151.3183  143.2547  156.3449 H   0  0  0  0  0  0  0  0  0  0  0  0
  152.7935  141.7425  157.6415 H   0  0  0  0  0  0  0  0  0  0  0  0
  152.4089  140.1326  156.2754 H   0  0  0  0  0  0  0  0  0  0  0  0
  151.5158  138.0067  155.8524 H   0  0  0  0  0  0  0  0  0  0  0  0
  149.9728  138.4567  156.5357 H   0  0  0  0  0  0  0  0  0  0  0  0
  150.8810  139.9459  154.0621 H   0  0  0  0  0  0  0  0  0  0  0  0
  150.4169  138.2813  153.8410 H   0  0  0  0  0  0  0  0  0  0  0  0
  146.1782  140.3828  153.0219 H   0  0  0  0  0  0  0  0  0  0  0  0
  152.1676  140.9797  159.9119 H   0  0  0  0  0  0  0  0  0  0  0  0
  150.7707  142.0287  159.9167 H   0  0  0  0  0  0  0  0  0  0  0  0
  1  2  1  0  0  0  0
  1 19  1  0  0  0  0
  1 20  1  0  0  0  0
  1 21  1  0  0  0  0
  2 17  1  0  0  0  0
  2  3  1  0  0  0  0
  2 22  1  0  0  0  0
  3  4  1  0  0  0  0
  3 23  1  0  0  0  0
  3 24  1  0  0  0  0
  4  5  1  0  0  0  0
  4 25  1  0  0  0  0
  4 26  1  0  0  0  0
  5  6  1  0  0  0  0
  5 27  1  0  0  0  0
  5 28  1  0  0  0  0
  6  7  1  0  0  0  0
  6 17  1  0  0  0  0
  6 29  1  0  0  0  0
  7  8  2  0  0  0  0
  7  9  1  0  0  0  0
  9 10  1  0  0  0  0
  9 30  1  0  0  0  0
 10 11  1  0  0  0  0
 10 31  1  0  0  0  0
 10 32  1  0  0  0  0
 11 12  1  0  0  0  0
 11 33  1  0  0  0  0
 11 34  1  0  0  0  0
 12 16  1  0  0  0  0
 12 13  2  0  0  0  0
 13 14  1  0  0  0  0
 14 15  2  0  0  0  0
 15 16  1  0  0  0  0
 15 35  1  0  0  0  0
 16 18  1  0  0  0  0
 17 36  1  0  0  0  0
 17 37  1  0  0  0  0
M  END
> <s_m_source_file>
AV-unprocessed.smi

> <i_m_source_file_index>
3032

> <i_lp_mmshare_version>
43012

> <i_f3d_flags>
0

> <s_epik_input>
W0NIM11bQ0BASF0xW0NIMl1bQ0gyXVtDSDJdW0NASF0oW0NIMl0xKUMoPU8pW05IXVtDSDJdW0NIMl1jMm5uW2NIXVtuSF0y

> <s_epik_cmdline>
J2VwaWtfcHl0aG9uJywgJy1waCcsICc3LjAnLCAnLXRuJywgJzgnLCAnLW1hJywgJzIwMCcsICctbWV0YWxfYmluZGluZycsICctaW1hZScsICc8aW5maWxlLm1hZT4nLCAnLW9tYWUnLCAnPG91dGZpbGUubWFlPic=

> <r_lp_tautomer_probability>
0.0517155

> <r_epik_Ionization_Penalty>
0.00149837

> <r_epik_Ionization_Penalty_Charging>
0

> <r_epik_Ionization_Penalty_Neutral>
0.00149837

> <r_epik_State_Penalty>
2.1109

> <r_epik_Charging_Adjusted_Penalty>
2.1109

> <i_epik_Tot_Q>
0

> <i_epik_Tot_abs_Q>
0

> <r_epik_Metal_State_Penalty>
2.23635

> <b_epik_Metal_Only>
0

> <s_lp_Force_Field>
OPLS_2005

> <r_lp_Energy>
11.1501

> <b_lp_Chiralities_Consistent>
1

> <s_lp_Variant>
AV-unprocessed.smi:3032-11

> <Gold.Version>
5.8.1

> <Gold.Id.Protein>
6NUR|6NUR_protein|mol2

> <Gold.PLP.Fitness>
40.9051

> <Gold.PLP.PLP>
-36.0853

> <Gold.PLP.part.hbond>
-1.0000

> <Gold.PLP.part.metal>
0.0000

> <Gold.PLP.part.buried>
-5.1721

> <Gold.PLP.part.nonpolar>
-30.8492

> <Gold.PLP.part.repulsive>
0.3104

> <Gold.PLP.ligand.clash>
0.0000

> <Gold.PLP.ligand.torsion>
0.5805

> <Gold.PLP.Chemscore.Hbond>
1.0000

> <Gold.PLP.Chemscore.CHOScore>
0.9868

> <Gold.PLP.Chemscore.Metal>
0.0000

> <Gold.Chemscore.Hbonds>
donor molecule, donor type, donor heavy atom, donor atom, acceptor molecule, acceptor atom, score
      L1  H    16    18       P1  7957  1.00
      L1  C    15    35       P1 10175  0.95

> <Gold.PLP.Chemscore.Internal.Correction>
0.0204

> <Gold.Rescore>
     Score         DG    S(hbond)    S(metal)    S(lipo)     H(rot)  DE(clash)    DE(int)     intcor
     13.48     -13.98       0.99        0.00      93.68       2.25       0.01       0.49       ----

> <Gold.Chemscore.Fitness>
13.4838

> <Gold.Chemscore.DG>
-13.9808

> <Gold.Chemscore.ZeroCoef>
-5.4800

> <Gold.Chemscore.Hbond>
0.9881

> <Gold.Chemscore.Metal>
0.0000

> <Gold.Chemscore.Lipo>
93.6834

> <Gold.Chemscore.Internal_Hbond>
0.0000

> <Gold.Chemscore.DEClash>
0.0089

> <Gold.Chemscore.DEInternal>
0.4881

> <Gold.Chemscore.Rot>
2.2501

> <Gold.Chemscore.Internal.Correction>
   9.000000E+99

> <Gold.Chemscore.Hbonds>
donor molecule, donor type, donor heavy atom, donor atom, acceptor molecule, acceptor atom, score
      L1  H    16    18       P1  7957  0.97

> <Gold.Chemscore.Hbond.Weighted>
-3.3001

> <Gold.Chemscore.Metal.Weighted>
-0.0000

> <Gold.Chemscore.Lipo.Weighted>
-10.9610

> <Gold.Chemscore.Internal_Hbond.Weighted>
0.0000

> <Gold.Chemscore.DEClash.Weighted>
0.0089

> <Gold.Chemscore.DEInternal.Weighted>
0.4881

> <Gold.Chemscore.Rot.Weighted>
5.7603

> <Gold.Chemscore.Internal.Correction.Weighted>
   9.000000E+99

> <Gold.Protein.RotatedTorsions>
[ 6907 6896 6895 6894 ] final  -27.36 input  -60.11 | X-H torsion
[ 7974 7965 7964 7962 ] final   66.78 input  175.53 | X-H torsion
[ 8008 7997 7996 7995 ] final -140.68 input   59.86 | X-H torsion
[ 10167 10162 10161 10158 ] final   -0.95 input  -65.29 | X-H torsion
[ 10718 10713 10712 10709 ] final  103.03 input   66.30 | X-H torsion
[ 10763 10752 10751 10750 ] final   89.20 input  -60.55 | X-H torsion
[ 11005 11000 10999 10996 ] final -139.64 input  -57.11 | X-H torsion

> <Gold.Protein.ActiveResidues>
 VAL166  LYS551  ARG553  GLY616  TRP617  ASP618  TYR619  PRO620  LYS621  CYS622 
 ASP623  PHE694  ASN695  SER759  ASP760  ASP761  ALA762  ILE779  LEU786  VAL792 
 PHE793  MET794  SER795  GLU796  ALA797  LYS798  CYS799  TRP800  GLU811  SER814 

> <Gold.Protein.RotatedAtoms>
  151.1480  135.0213  159.8655 H   0  0  0  0  0  0  0  0  0  0  0  0  # atno 6907 bound_to 6896
  152.5453  134.1422  159.8494 H   0  0  0  0  0  0  0  0  0  0  0  0  # atno 6908 bound_to 6896
  151.1504  133.4865  159.2628 H   0  0  0  0  0  0  0  0  0  0  0  0  # atno 6909 bound_to 6896
  145.8225  139.3092  143.1035 H   0  0  0  0  0  0  0  0  0  0  0  0  # atno 7974 bound_to 7965
  155.4654  140.0549  157.2986 H   0  0  0  0  0  0  0  0  0  0  0  0  # atno 8008 bound_to 7997
  154.4720  140.2044  155.9925 H   0  0  0  0  0  0  0  0  0  0  0  0  # atno 8009 bound_to 7997
  156.1071  140.3210  155.8026 H   0  0  0  0  0  0  0  0  0  0  0  0  # atno 8010 bound_to 7997
  140.6789  143.6833  150.8087 H   0  0  0  0  0  0  0  0  0  0  0  0  # atno 10167 bound_to 10162
  157.6785  131.0768  150.5493 H   0  0  0  0  0  0  0  0  0  0  0  0  # atno 10718 bound_to 10713
  153.1847  135.4479  155.0073 H   0  0  0  0  0  0  0  0  0  0  0  0  # atno 10763 bound_to 10752
  154.8052  135.3272  154.7450 H   0  0  0  0  0  0  0  0  0  0  0  0  # atno 10764 bound_to 10752
  153.7911  135.6970  153.4926 H   0  0  0  0  0  0  0  0  0  0  0  0  # atno 10765 bound_to 10752
  140.8500  134.2298  157.4765 H   0  0  0  0  0  0  0  0  0  0  0  0  # atno 11005 bound_to 11000
  145.9660  140.8798  143.0187 LP  0  0  0  0  0  0  0  0  0  0  0  0  # atno 17320 bound_to 7965
  144.6746  140.1878  143.7399 LP  0  0  0  0  0  0  0  0  0  0  0  0  # atno 17321 bound_to 7965
  140.0530  143.5230  152.2664 LP  0  0  0  0  0  0  0  0  0  0  0  0  # atno 17342 bound_to 10162
  139.6099  144.7606  151.2976 LP  0  0  0  0  0  0  0  0  0  0  0  0  # atno 17343 bound_to 10162
  156.5798  130.4301  149.5982 LP  0  0  0  0  0  0  0  0  0  0  0  0  # atno 17370 bound_to 10713
  156.2670  130.6995  151.1781 LP  0  0  0  0  0  0  0  0  0  0  0  0  # atno 17371 bound_to 10713
  139.8704  134.9678  156.4610 LP  0  0  0  0  0  0  0  0  0  0  0  0  # atno 17394 bound_to 11000
  140.8801  133.7924  155.9457 LP  0  0  0  0  0  0  0  0  0  0  0  0  # atno 17395 bound_to 11000

$$$$
