AV-unprocessed.smi:1573|AV-procd|sdf|6334|dock1
  -GOLD-   22720 6543D 1   1.00000     0.00000
 Structure written by MMmdl.
 41 41  0  0  0  0  0  0  0  0  1 V2000
  144.1149  136.1188  151.7309 C   0  0  0  0  0  0  0  0  0  0  0  0
  145.5546  135.7606  151.3382 C   0  0  0  0  0  0  0  0  0  0  0  0
  146.4715  135.9268  152.4592 N   0  0  0  0  0  0  0  0  0  0  0  0
  146.2847  135.4251  153.6897 C   0  0  0  0  0  0  0  0  0  0  0  0
  145.2876  134.7753  154.0096 O   0  0  0  0  0  0  0  0  0  0  0  0
  147.3917  135.7154  154.7157 C   0  0  1  0  0  0  0  0  0  0  0  0
  148.1675  134.4115  154.9649 C   0  0  0  0  0  0  0  0  0  0  0  0
  148.3309  136.7026  154.1888 N   0  0  0  0  0  0  0  0  0  0  0  0
  148.7674  137.7902  154.8444 C   0  0  0  0  0  0  0  0  0  0  0  0
  148.4194  138.0788  155.9893 O   0  0  0  0  0  0  0  0  0  0  0  0
  149.7476  138.6890  154.0914 C   0  0  0  0  0  0  0  0  0  0  0  0
  150.6166  139.4312  155.0752 C   0  0  0  0  0  0  0  0  0  0  0  0
  152.0191  139.2781  155.2865 C   0  0  0  0  0  0  0  0  0  0  0  0
  152.9692  138.3440  154.5925 C   0  0  0  0  0  0  0  0  0  0  0  0
  152.4773  140.0808  156.2325 N   0  0  0  0  0  0  0  0  0  0  0  0
  151.3975  140.7695  156.6531 N   0  0  0  0  0  0  0  0  0  0  0  0
  151.5481  141.7563  157.7047 C   0  0  0  0  0  0  0  0  0  0  0  0
  150.2532  140.3975  155.9750 C   0  0  0  0  0  0  0  0  0  0  0  0
  148.9209  141.0101  156.2642 C   0  0  0  0  0  0  0  0  0  0  0  0
  143.4338  135.9558  150.8953 H   0  0  0  0  0  0  0  0  0  0  0  0
  144.0315  137.1653  152.0259 H   0  0  0  0  0  0  0  0  0  0  0  0
  143.7702  135.5067  152.5651 H   0  0  0  0  0  0  0  0  0  0  0  0
  145.5988  134.7207  151.0139 H   0  0  0  0  0  0  0  0  0  0  0  0
  145.8791  136.3647  150.4893 H   0  0  0  0  0  0  0  0  0  0  0  0
  147.3175  136.4495  152.2837 H   0  0  0  0  0  0  0  0  0  0  0  0
  146.9598  136.0712  155.6534 H   0  0  0  0  0  0  0  0  0  0  0  0
  147.5161  133.6325  155.3633 H   0  0  0  0  0  0  0  0  0  0  0  0
  148.9661  134.5681  155.6910 H   0  0  0  0  0  0  0  0  0  0  0  0
  148.6252  134.0286  154.0511 H   0  0  0  0  0  0  0  0  0  0  0  0
  148.6678  136.5515  153.2491 H   0  0  0  0  0  0  0  0  0  0  0  0
  150.3419  138.0758  153.4134 H   0  0  0  0  0  0  0  0  0  0  0  0
  149.1872  139.3765  153.4568 H   0  0  0  0  0  0  0  0  0  0  0  0
  152.8709  137.3304  154.9815 H   0  0  0  0  0  0  0  0  0  0  0  0
  154.0069  138.6516  154.7261 H   0  0  0  0  0  0  0  0  0  0  0  0
  152.7730  138.3091  153.5210 H   0  0  0  0  0  0  0  0  0  0  0  0
  151.1393  142.7112  157.3734 H   0  0  0  0  0  0  0  0  0  0  0  0
  152.6005  141.8933  157.9573 H   0  0  0  0  0  0  0  0  0  0  0  0
  151.0110  141.4272  158.5946 H   0  0  0  0  0  0  0  0  0  0  0  0
  148.1240  140.4955  155.7274 H   0  0  0  0  0  0  0  0  0  0  0  0
  148.9044  142.0584  155.9656 H   0  0  0  0  0  0  0  0  0  0  0  0
  148.6909  140.9566  157.3286 H   0  0  0  0  0  0  0  0  0  0  0  0
  1  2  1  0  0  0  0
  1 20  1  0  0  0  0
  1 21  1  0  0  0  0
  1 22  1  0  0  0  0
  2  3  1  0  0  0  0
  2 23  1  0  0  0  0
  2 24  1  0  0  0  0
  3  4  1  0  0  0  0
  3 25  1  0  0  0  0
  4  5  2  0  0  0  0
  4  6  1  0  0  0  0
  6  7  1  0  0  0  0
  6  8  1  0  0  0  0
  6 26  1  0  0  0  0
  7 27  1  0  0  0  0
  7 28  1  0  0  0  0
  7 29  1  0  0  0  0
  8  9  1  0  0  0  0
  8 30  1  0  0  0  0
  9 10  2  0  0  0  0
  9 11  1  0  0  0  0
 11 12  1  0  0  0  0
 11 31  1  0  0  0  0
 11 32  1  0  0  0  0
 12 18  2  0  0  0  0
 12 13  1  0  0  0  0
 13 14  1  0  0  0  0
 13 15  2  0  0  0  0
 14 33  1  0  0  0  0
 14 34  1  0  0  0  0
 14 35  1  0  0  0  0
 15 16  1  0  0  0  0
 16 17  1  0  0  0  0
 16 18  1  0  0  0  0
 17 36  1  0  0  0  0
 17 37  1  0  0  0  0
 17 38  1  0  0  0  0
 18 19  1  0  0  0  0
 19 39  1  0  0  0  0
 19 40  1  0  0  0  0
 19 41  1  0  0  0  0
M  END
> <s_m_source_file>
AV-unprocessed.smi

> <i_m_source_file_index>
1573

> <i_lp_mmshare_version>
43012

> <i_f3d_flags>
0

> <s_epik_input>
W0NIM11bQ0gyXVtOSF1DKD1PKVtDQEhdKFtDSDNdKVtOSF1DKD1PKVtDSDJdYzFjKFtDSDNdKW5uKFtDSDNdKWMxW0NIM10=

> <s_epik_cmdline>
J2VwaWtfcHl0aG9uJywgJy1waCcsICc3LjAnLCAnLXRuJywgJzgnLCAnLW1hJywgJzIwMCcsICctbWV0YWxfYmluZGluZycsICctaW1hZScsICc8aW5maWxlLm1hZT4nLCAnLW9tYWUnLCAnPG91dGZpbGUubWFlPic=

> <r_lp_tautomer_probability>
1

> <r_epik_Ionization_Penalty>
0.00278414

> <r_epik_Ionization_Penalty_Charging>
0

> <r_epik_Ionization_Penalty_Neutral>
0.00278414

> <r_epik_State_Penalty>
0.00194489

> <r_epik_Charging_Adjusted_Penalty>
0.00194489

> <i_epik_Tot_Q>
0

> <i_epik_Tot_abs_Q>
0

> <r_epik_Metal_State_Penalty>
-0

> <b_epik_Metal_Only>
0

> <s_lp_Force_Field>
OPLS_2005

> <r_lp_Energy>
-3.15373

> <b_lp_Chiralities_Consistent>
1

> <s_lp_Variant>
AV-unprocessed.smi:1573-2

> <Gold.Version>
5.8.1

> <Gold.Id.Protein>
6NUR|6NUR_protein|mol2

> <Gold.PLP.Fitness>
35.1109

> <Gold.PLP.PLP>
-28.1073

> <Gold.PLP.part.hbond>
-2.9918

> <Gold.PLP.part.metal>
0.0000

> <Gold.PLP.part.buried>
-1.8214

> <Gold.PLP.part.nonpolar>
-23.8607

> <Gold.PLP.part.repulsive>
0.1066

> <Gold.PLP.ligand.clash>
0.0000

> <Gold.PLP.ligand.torsion>
0.8173

> <Gold.PLP.Chemscore.Hbond>
2.8713

> <Gold.PLP.Chemscore.CHOScore>
0.0000

> <Gold.PLP.Chemscore.Metal>
0.0000

> <Gold.Chemscore.Hbonds>
donor molecule, donor type, donor heavy atom, donor atom, acceptor molecule, acceptor atom, score
      L1  H     3    25       P1  7948  0.82
      L1  H     8    30       P1  7948  0.78
      P1  H  7997  8010       L1    15  1.00

> <Gold.PLP.Chemscore.Internal.Correction>
0.0245

> <Gold.Rescore>
     Score         DG    S(hbond)    S(metal)    S(lipo)     H(rot)  DE(clash)    DE(int)     intcor
     14.44     -17.88       2.95        0.00      63.56       1.91       0.22       3.23       ----

> <Gold.Chemscore.Fitness>
14.4361

> <Gold.Chemscore.DG>
-17.8828

> <Gold.Chemscore.ZeroCoef>
-5.4800

> <Gold.Chemscore.Hbond>
2.9508

> <Gold.Chemscore.Metal>
0.0000

> <Gold.Chemscore.Lipo>
63.5617

> <Gold.Chemscore.Internal_Hbond>
0.0000

> <Gold.Chemscore.DEClash>
0.2202

> <Gold.Chemscore.DEInternal>
3.2265

> <Gold.Chemscore.Rot>
1.9100

> <Gold.Chemscore.Internal.Correction>
   9.000000E+99

> <Gold.Chemscore.Hbonds>
donor molecule, donor type, donor heavy atom, donor atom, acceptor molecule, acceptor atom, score
      L1  H     3    25       P1  7948  0.81
      L1  H     8    30       P1  7948  0.79
      P1  H  7997  8010       L1    15  0.73

> <Gold.Chemscore.Hbond.Weighted>
-9.8557

> <Gold.Chemscore.Metal.Weighted>
-0.0000

> <Gold.Chemscore.Lipo.Weighted>
-7.4367

> <Gold.Chemscore.Internal_Hbond.Weighted>
0.0000

> <Gold.Chemscore.DEClash.Weighted>
0.2202

> <Gold.Chemscore.DEInternal.Weighted>
3.2265

> <Gold.Chemscore.Rot.Weighted>
4.8896

> <Gold.Chemscore.Internal.Correction.Weighted>
   9.000000E+99

> <Gold.Protein.RotatedTorsions>
[ 6907 6896 6895 6894 ] final   -8.44 input  -60.11 | X-H torsion
[ 7974 7965 7964 7962 ] final  -44.07 input  175.53 | X-H torsion
[ 8008 7997 7996 7995 ] final   89.04 input   59.86 | X-H torsion
[ 10167 10162 10161 10158 ] final  148.63 input  -65.29 | X-H torsion
[ 10718 10713 10712 10709 ] final -123.04 input   66.30 | X-H torsion
[ 10763 10752 10751 10750 ] final   51.83 input  -60.55 | X-H torsion
[ 11005 11000 10999 10996 ] final  169.10 input  -57.11 | X-H torsion

> <Gold.Protein.ActiveResidues>
 VAL166  LYS551  ARG553  GLY616  TRP617  ASP618  TYR619  PRO620  LYS621  CYS622 
 ASP623  PHE694  ASN695  SER759  ASP760  ASP761  ALA762  ILE779  LEU786  VAL792 
 PHE793  MET794  SER795  GLU796  ALA797  LYS798  CYS799  TRP800  GLU811  SER814 

> <Gold.Protein.RotatedAtoms>
  151.4336  135.1012  159.9649 H   0  0  0  0  0  0  0  0  0  0  0  0  # atno 6907 bound_to 6896
  152.4947  133.8594  159.7253 H   0  0  0  0  0  0  0  0  0  0  0  0  # atno 6908 bound_to 6896
  150.9138  133.6907  159.2876 H   0  0  0  0  0  0  0  0  0  0  0  0  # atno 6909 bound_to 6896
  145.9956  140.7131  142.9295 H   0  0  0  0  0  0  0  0  0  0  0  0  # atno 7974 bound_to 7965
  155.9951  140.3365  155.6790 H   0  0  0  0  0  0  0  0  0  0  0  0  # atno 8008 bound_to 7997
  155.6368  140.0691  157.2649 H   0  0  0  0  0  0  0  0  0  0  0  0  # atno 8009 bound_to 7997
  154.4231  140.1750  156.1518 H   0  0  0  0  0  0  0  0  0  0  0  0  # atno 8010 bound_to 7997
  139.4872  144.5664  151.7136 H   0  0  0  0  0  0  0  0  0  0  0  0  # atno 10167 bound_to 10162
  156.1469  130.6506  150.9856 H   0  0  0  0  0  0  0  0  0  0  0  0  # atno 10718 bound_to 10713
  152.9786  135.5833  154.4479 H   0  0  0  0  0  0  0  0  0  0  0  0  # atno 10763 bound_to 10752
  154.4071  135.2769  155.2062 H   0  0  0  0  0  0  0  0  0  0  0  0  # atno 10764 bound_to 10752
  154.3868  135.6134  153.5875 H   0  0  0  0  0  0  0  0  0  0  0  0  # atno 10765 bound_to 10752
  140.2942  134.7648  157.3863 H   0  0  0  0  0  0  0  0  0  0  0  0  # atno 11005 bound_to 11000
  144.6903  140.3145  143.7242 LP  0  0  0  0  0  0  0  0  0  0  0  0  # atno 17320 bound_to 7965
  145.7564  139.1810  143.2292 LP  0  0  0  0  0  0  0  0  0  0  0  0  # atno 17321 bound_to 7965
  140.5243  144.0829  150.6032 LP  0  0  0  0  0  0  0  0  0  0  0  0  # atno 17342 bound_to 10162
  140.3798  143.2809  152.0183 LP  0  0  0  0  0  0  0  0  0  0  0  0  # atno 17343 bound_to 10162
  157.6624  131.0878  150.7807 LP  0  0  0  0  0  0  0  0  0  0  0  0  # atno 17370 bound_to 10713
  156.7878  130.4880  149.5390 LP  0  0  0  0  0  0  0  0  0  0  0  0  # atno 17371 bound_to 10713
  140.1168  134.5273  155.8218 LP  0  0  0  0  0  0  0  0  0  0  0  0  # atno 17394 bound_to 11000
  141.2140  133.6742  156.6791 LP  0  0  0  0  0  0  0  0  0  0  0  0  # atno 17395 bound_to 11000

$$$$
