AV-unprocessed.smi:1791|AV-procd|sdf|7219|dock10
  -GOLD-   22720 8463D 1   1.00000     0.00000
 Structure written by MMmdl.
 38 39  0  0  0  0  0  0  0  0  1 V2000
  151.1782  141.4017  158.1879 C   0  0  0  0  0  0  0  0  0  0  0  0
  151.3370  141.3138  156.7759 O   0  0  0  0  0  0  0  0  0  0  0  0
  150.5382  140.4284  156.0812 C   0  0  0  0  0  0  0  0  0  0  0  0
  149.4037  139.8945  156.7243 C   0  0  0  0  0  0  0  0  0  0  0  0
  148.5818  138.9927  156.0211 C   0  0  0  0  0  0  0  0  0  0  0  0
  148.9187  138.6576  154.6876 C   0  0  0  0  0  0  0  0  0  0  0  0
  148.1850  137.7532  153.8724 N   0  0  0  0  0  0  0  0  0  0  0  0
  146.9087  137.3499  153.9962 C   0  0  0  0  0  0  0  0  0  0  0  0
  146.1312  137.7075  154.8804 O   0  0  0  0  0  0  0  0  0  0  0  0
  146.5753  136.5070  153.0080 N   0  0  0  0  0  0  0  0  0  0  0  0
  145.2705  135.8747  152.8238 C   0  0  1  0  0  0  0  0  0  0  0  0
  144.2050  136.9736  152.6884 C   0  0  0  0  0  0  0  0  0  0  0  0
  145.3185  134.9493  151.5922 C   0  0  2  0  0  0  0  0  0  0  0  0
  144.1031  134.0337  151.4318 C   0  0  0  0  0  0  0  0  0  0  0  0
  144.6433  132.8430  150.6540 C   0  0  0  0  0  0  0  0  0  0  0  0
  146.1631  133.0074  150.7262 C   0  0  0  0  0  0  0  0  0  0  0  0
  146.3774  134.0109  151.7076 O   0  0  0  0  0  0  0  0  0  0  0  0
  150.0826  139.2364  154.1411 C   0  0  0  0  0  0  0  0  0  0  0  0
  150.8741  140.1017  154.8090 N   0  0  0  0  0  0  0  0  0  0  0  0
  151.8760  142.1387  158.5849 H   0  0  0  0  0  0  0  0  0  0  0  0
  151.3932  140.4486  158.6732 H   0  0  0  0  0  0  0  0  0  0  0  0
  150.1709  141.7219  158.4576 H   0  0  0  0  0  0  0  0  0  0  0  0
  149.1690  140.1697  157.7421 H   0  0  0  0  0  0  0  0  0  0  0  0
  147.7241  138.5735  156.5230 H   0  0  0  0  0  0  0  0  0  0  0  0
  148.6754  137.4165  153.0568 H   0  0  0  0  0  0  0  0  0  0  0  0
  147.2849  136.2750  152.3289 H   0  0  0  0  0  0  0  0  0  0  0  0
  145.0159  135.2721  153.6972 H   0  0  0  0  0  0  0  0  0  0  0  0
  143.2051  136.5487  152.5974 H   0  0  0  0  0  0  0  0  0  0  0  0
  144.3835  137.5955  151.8107 H   0  0  0  0  0  0  0  0  0  0  0  0
  144.2016  137.6249  153.5630 H   0  0  0  0  0  0  0  0  0  0  0  0
  145.4650  135.5330  150.6808 H   0  0  0  0  0  0  0  0  0  0  0  0
  143.7506  133.6989  152.4084 H   0  0  0  0  0  0  0  0  0  0  0  0
  143.2717  134.5257  150.9259 H   0  0  0  0  0  0  0  0  0  0  0  0
  144.3188  131.9062  151.1083 H   0  0  0  0  0  0  0  0  0  0  0  0
  144.3027  132.8494  149.6183 H   0  0  0  0  0  0  0  0  0  0  0  0
  146.6739  132.0815  150.9911 H   0  0  0  0  0  0  0  0  0  0  0  0
  146.5572  133.3522  149.7692 H   0  0  0  0  0  0  0  0  0  0  0  0
  150.3882  139.0030  153.1316 H   0  0  0  0  0  0  0  0  0  0  0  0
  1  2  1  0  0  0  0
  1 20  1  0  0  0  0
  1 21  1  0  0  0  0
  1 22  1  0  0  0  0
  2  3  1  0  0  0  0
  3 19  1  0  0  0  0
  3  4  2  0  0  0  0
  4  5  1  0  0  0  0
  4 23  1  0  0  0  0
  5  6  2  0  0  0  0
  5 24  1  0  0  0  0
  6  7  1  0  0  0  0
  6 18  1  0  0  0  0
  7  8  1  0  0  0  0
  7 25  1  0  0  0  0
  8  9  2  0  0  0  0
  8 10  1  0  0  0  0
 10 11  1  0  0  0  0
 10 26  1  0  0  0  0
 11 12  1  0  0  0  0
 11 13  1  0  0  0  0
 11 27  1  0  0  0  0
 12 28  1  0  0  0  0
 12 29  1  0  0  0  0
 12 30  1  0  0  0  0
 13 17  1  0  0  0  0
 13 14  1  0  0  0  0
 13 31  1  0  0  0  0
 14 15  1  0  0  0  0
 14 32  1  0  0  0  0
 14 33  1  0  0  0  0
 15 16  1  0  0  0  0
 15 34  1  0  0  0  0
 15 35  1  0  0  0  0
 16 17  1  0  0  0  0
 16 36  1  0  0  0  0
 16 37  1  0  0  0  0
 18 19  2  0  0  0  0
 18 38  1  0  0  0  0
M  END
> <s_m_source_file>
AV-unprocessed.smi

> <i_m_source_file_index>
1791

> <i_lp_mmshare_version>
43012

> <i_f3d_flags>
0

> <s_epik_input>
W0NIM11PYzFbY0hdW2NIXWMoW2NIXW4xKVtOSF1DKD1PKVtOSF1bQ0BIXShbQ0gzXSlbQ0BASF0yW0NIMl1bQ0gyXVtDSDJdTzI=

> <s_epik_cmdline>
J2VwaWtfcHl0aG9uJywgJy1waCcsICc3LjAnLCAnLXRuJywgJzgnLCAnLW1hJywgJzIwMCcsICctbWV0YWxfYmluZGluZycsICctaW1hZScsICc8aW5maWxlLm1hZT4nLCAnLW9tYWUnLCAnPG91dGZpbGUubWFlPic=

> <r_lp_tautomer_probability>
1

> <r_epik_Ionization_Penalty>
9.18737e-05

> <r_epik_Ionization_Penalty_Charging>
0

> <r_epik_Ionization_Penalty_Neutral>
9.18737e-05

> <r_epik_State_Penalty>
-0

> <r_epik_Charging_Adjusted_Penalty>
0

> <i_epik_Tot_Q>
0

> <i_epik_Tot_abs_Q>
0

> <r_epik_Metal_State_Penalty>
-0

> <b_epik_Metal_Only>
0

> <s_lp_Force_Field>
OPLS_2005

> <r_lp_Energy>
20.9022

> <b_lp_Chiralities_Consistent>
1

> <s_lp_Variant>
AV-unprocessed.smi:1791-2

> <Gold.Version>
5.8.1

> <Gold.Id.Protein>
6NUR|6NUR_protein|mol2

> <Gold.PLP.Fitness>
36.2520

> <Gold.PLP.PLP>
-24.9316

> <Gold.PLP.part.hbond>
-3.0000

> <Gold.PLP.part.metal>
0.0000

> <Gold.PLP.part.buried>
-3.1993

> <Gold.PLP.part.nonpolar>
-18.6634

> <Gold.PLP.part.repulsive>
0.3515

> <Gold.PLP.ligand.clash>
0.0000

> <Gold.PLP.ligand.torsion>
0.3436

> <Gold.PLP.Chemscore.Hbond>
2.9920

> <Gold.PLP.Chemscore.CHOScore>
0.9993

> <Gold.PLP.Chemscore.Metal>
0.0000

> <Gold.Chemscore.Hbonds>
donor molecule, donor type, donor heavy atom, donor atom, acceptor molecule, acceptor atom, score
      L1  H     7    25       P1  7948  1.00
      L1  H    10    26       P1  7948  1.00
      P1  H  7989  7998       L1    19  1.00
      L1  C    18    38       P1  7957  0.95

> <Gold.PLP.Chemscore.Internal.Correction>
0.0337

> <Gold.Rescore>
     Score         DG    S(hbond)    S(metal)    S(lipo)     H(rot)  DE(clash)    DE(int)     intcor
     14.73     -16.59       2.52        0.00      55.22       1.47       0.37       1.49       ----

> <Gold.Chemscore.Fitness>
14.7333

> <Gold.Chemscore.DG>
-16.5934

> <Gold.Chemscore.ZeroCoef>
-5.4800

> <Gold.Chemscore.Hbond>
2.5193

> <Gold.Chemscore.Metal>
0.0000

> <Gold.Chemscore.Lipo>
55.2163

> <Gold.Chemscore.Internal_Hbond>
0.0000

> <Gold.Chemscore.DEClash>
0.3706

> <Gold.Chemscore.DEInternal>
1.4895

> <Gold.Chemscore.Rot>
1.4693

> <Gold.Chemscore.Internal.Correction>
   9.000000E+99

> <Gold.Chemscore.Hbonds>
donor molecule, donor type, donor heavy atom, donor atom, acceptor molecule, acceptor atom, score
      L1  H     7    25       P1  7948  0.97
      L1  H    10    26       P1  7948  0.95
      P1  H  7989  7998       L1    19  0.26

> <Gold.Chemscore.Hbond.Weighted>
-8.4144

> <Gold.Chemscore.Metal.Weighted>
-0.0000

> <Gold.Chemscore.Lipo.Weighted>
-6.4603

> <Gold.Chemscore.Internal_Hbond.Weighted>
0.0000

> <Gold.Chemscore.DEClash.Weighted>
0.3706

> <Gold.Chemscore.DEInternal.Weighted>
1.4895

> <Gold.Chemscore.Rot.Weighted>
3.7613

> <Gold.Chemscore.Internal.Correction.Weighted>
   9.000000E+99

> <Gold.Protein.RotatedTorsions>
[ 6907 6896 6895 6894 ] final   -4.12 input  -60.11 | X-H torsion
[ 7974 7965 7964 7962 ] final   98.39 input  175.53 | X-H torsion
[ 8008 7997 7996 7995 ] final -179.25 input   59.86 | X-H torsion
[ 10167 10162 10161 10158 ] final -108.45 input  -65.29 | X-H torsion
[ 10718 10713 10712 10709 ] final  -81.29 input   66.30 | X-H torsion
[ 10763 10752 10751 10750 ] final -117.55 input  -60.55 | X-H torsion
[ 11005 11000 10999 10996 ] final -140.72 input  -57.11 | X-H torsion

> <Gold.Protein.ActiveResidues>
 VAL166  LYS551  ARG553  GLY616  TRP617  ASP618  TYR619  PRO620  LYS621  CYS622 
 ASP623  PHE694  ASN695  SER759  ASP760  ASP761  ALA762  ILE779  LEU786  VAL792 
 PHE793  MET794  SER795  GLU796  ALA797  LYS798  CYS799  TRP800  GLU811  SER814 

> <Gold.Protein.RotatedAtoms>
  151.5027  135.1062  159.9832 H   0  0  0  0  0  0  0  0  0  0  0  0  # atno 6907 bound_to 6896
  152.4695  133.7993  159.6955 H   0  0  0  0  0  0  0  0  0  0  0  0  # atno 6908 bound_to 6896
  150.8696  133.7461  159.2991 H   0  0  0  0  0  0  0  0  0  0  0  0  # atno 6909 bound_to 6896
  145.4128  139.2331  143.3238 H   0  0  0  0  0  0  0  0  0  0  0  0  # atno 7974 bound_to 7965
  156.0283  140.1276  157.0285 H   0  0  0  0  0  0  0  0  0  0  0  0  # atno 8008 bound_to 7997
  154.4339  140.1054  156.6133 H   0  0  0  0  0  0  0  0  0  0  0  0  # atno 8009 bound_to 7997
  155.5844  140.3468  155.4551 H   0  0  0  0  0  0  0  0  0  0  0  0  # atno 8010 bound_to 7997
  140.1660  143.4081  152.1390 H   0  0  0  0  0  0  0  0  0  0  0  0  # atno 10167 bound_to 10162
  156.0053  130.4599  150.3930 H   0  0  0  0  0  0  0  0  0  0  0  0  # atno 10718 bound_to 10713
  154.8558  135.4305  154.1998 H   0  0  0  0  0  0  0  0  0  0  0  0  # atno 10763 bound_to 10752
  153.3047  135.6971  153.7176 H   0  0  0  0  0  0  0  0  0  0  0  0  # atno 10764 bound_to 10752
  153.6292  135.3488  155.3010 H   0  0  0  0  0  0  0  0  0  0  0  0  # atno 10765 bound_to 10752
  140.8395  134.2419  157.4817 H   0  0  0  0  0  0  0  0  0  0  0  0  # atno 11005 bound_to 11000
  146.2696  140.4842  142.8820 LP  0  0  0  0  0  0  0  0  0  0  0  0  # atno 17320 bound_to 7965
  144.8297  140.6687  143.6299 LP  0  0  0  0  0  0  0  0  0  0  0  0  # atno 17321 bound_to 7965
  139.5359  144.7209  151.4894 LP  0  0  0  0  0  0  0  0  0  0  0  0  # atno 17342 bound_to 10162
  140.6613  143.8493  150.6891 LP  0  0  0  0  0  0  0  0  0  0  0  0  # atno 17343 bound_to 10162
  157.2003  131.0436  151.2654 LP  0  0  0  0  0  0  0  0  0  0  0  0  # atno 17370 bound_to 10713
  157.3981  130.7318  149.6747 LP  0  0  0  0  0  0  0  0  0  0  0  0  # atno 17371 bound_to 10713
  139.8703  134.9628  156.4441 LP  0  0  0  0  0  0  0  0  0  0  0  0  # atno 17394 bound_to 11000
  140.8910  133.7848  155.9572 LP  0  0  0  0  0  0  0  0  0  0  0  0  # atno 17395 bound_to 11000

$$$$
