AV-unprocessed.smi:1120|AV-procd|sdf|4820|dock10
  -GOLD-   22720 3373D 1   1.00000     0.00000
 Structure written by MMmdl.
 49 50  0  0  0  0  0  0  0  0  2 V2000
  153.4730  142.4051  161.1645 C   0  0  0  0  0  0  0  0  0  0  0  0
  152.3732  142.4845  160.0961 C   0  0  2  0  0  0  0  0  0  0  0  0
  152.2496  141.1624  159.3140 C   0  0  0  0  0  0  0  0  0  0  0  0
  151.1495  141.2380  158.2429 C   0  0  0  0  0  0  0  0  0  0  0  0
  151.3851  142.4184  157.2855 C   0  0  1  0  0  0  0  0  0  0  0  0
  150.2842  142.5047  156.3243 N   0  0  0  0  0  0  0  0  0  0  0  0
  149.9099  141.2009  155.2553 S   0  0  0  0  0  0  0  0  0  0  0  0
  149.0357  141.7409  154.2029 O   0  0  0  0  0  0  0  0  0  0  0  0
  151.1830  140.5523  154.9041 O   0  0  0  0  0  0  0  0  0  0  0  0
  148.9148  140.0568  156.3181 C   0  0  0  0  0  0  0  0  0  0  0  0
  148.2645  138.9592  155.4771 C   0  0  0  0  0  0  0  0  0  0  0  0
  148.9639  138.1122  154.9224 O   0  0  0  0  0  0  0  0  0  0  0  0
  146.9260  138.9850  155.3856 N   0  0  0  0  0  0  0  0  0  0  0  0
  146.1198  138.0199  154.6491 C   0  0  0  0  0  0  0  0  0  0  0  0
  146.4891  137.9940  153.1562 C   0  0  0  0  0  0  0  0  0  0  0  0
  145.6088  137.0458  152.3663 C   0  0  0  0  0  0  0  0  0  0  0  0
  144.2469  136.8488  152.6814 C   0  0  0  0  0  0  0  0  0  0  0  0
  143.4858  135.9433  151.9129 C   0  0  0  0  0  0  0  0  0  0  0  0
  144.1018  135.2539  150.8479 C   0  0  0  0  0  0  0  0  0  0  0  0
  145.4657  135.4875  150.5783 C   0  0  0  0  0  0  0  0  0  0  0  0
  146.1611  136.3628  151.3373 N   0  3  0  0  0  0  0  0  0  0  0  0
  151.5152  143.7442  158.0559 C   0  0  0  0  0  0  0  0  0  0  0  0
  152.6116  143.6610  159.1297 C   0  0  0  0  0  0  0  0  0  0  0  0
  154.4519  142.2347  160.7151 H   0  0  0  0  0  0  0  0  0  0  0  0
  153.2825  141.5914  161.8646 H   0  0  0  0  0  0  0  0  0  0  0  0
  153.5277  143.3290  161.7410 H   0  0  0  0  0  0  0  0  0  0  0  0
  151.4276  142.6594  160.6115 H   0  0  0  0  0  0  0  0  0  0  0  0
  153.2022  140.9244  158.8388 H   0  0  0  0  0  0  0  0  0  0  0  0
  152.0340  140.3419  159.9992 H   0  0  0  0  0  0  0  0  0  0  0  0
  151.1170  140.3029  157.6822 H   0  0  0  0  0  0  0  0  0  0  0  0
  150.1781  141.3415  158.7287 H   0  0  0  0  0  0  0  0  0  0  0  0
  152.3131  142.2385  156.7412 H   0  0  0  0  0  0  0  0  0  0  0  0
  150.0659  143.4355  155.9703 H   0  0  0  0  0  0  0  0  0  0  0  0
  149.5448  139.6413  157.1038 H   0  0  0  0  0  0  0  0  0  0  0  0
  148.1349  140.6471  156.8001 H   0  0  0  0  0  0  0  0  0  0  0  0
  146.4311  139.7218  155.8671 H   0  0  0  0  0  0  0  0  0  0  0  0
  146.2843  137.0371  155.0916 H   0  0  0  0  0  0  0  0  0  0  0  0
  145.0601  138.2467  154.7777 H   0  0  0  0  0  0  0  0  0  0  0  0
  146.4029  138.9929  152.7262 H   0  0  0  0  0  0  0  0  0  0  0  0
  147.5317  137.6971  153.0336 H   0  0  0  0  0  0  0  0  0  0  0  0
  143.7906  137.3818  153.5030 H   0  0  0  0  0  0  0  0  0  0  0  0
  142.4423  135.7792  152.1390 H   0  0  0  0  0  0  0  0  0  0  0  0
  143.5366  134.5558  150.2479 H   0  0  0  0  0  0  0  0  0  0  0  0
  146.0176  135.0046  149.7852 H   0  0  0  0  0  0  0  0  0  0  0  0
  151.7418  144.5588  157.3680 H   0  0  0  0  0  0  0  0  0  0  0  0
  150.5642  143.9932  158.5289 H   0  0  0  0  0  0  0  0  0  0  0  0
  152.6487  144.5987  159.6853 H   0  0  0  0  0  0  0  0  0  0  0  0
  153.5836  143.5506  158.6467 H   0  0  0  0  0  0  0  0  0  0  0  0
  147.1470  136.5156  151.1243 H   0  0  0  0  0  0  0  0  0  0  0  0
  1  2  1  0  0  0  0
  1 24  1  0  0  0  0
  1 25  1  0  0  0  0
  1 26  1  0  0  0  0
  2 23  1  0  0  0  0
  2  3  1  0  0  0  0
  2 27  1  0  0  0  0
  3  4  1  0  0  0  0
  3 28  1  0  0  0  0
  3 29  1  0  0  0  0
  4  5  1  0  0  0  0
  4 30  1  0  0  0  0
  4 31  1  0  0  0  0
  5  6  1  0  0  0  0
  5 22  1  0  0  0  0
  5 32  1  0  0  0  0
  6  7  1  0  0  0  0
  6 33  1  0  0  0  0
  7  8  2  0  0  0  0
  7  9  2  0  0  0  0
  7 10  1  0  0  0  0
 10 11  1  0  0  0  0
 10 34  1  0  0  0  0
 10 35  1  0  0  0  0
 11 12  2  0  0  0  0
 11 13  1  0  0  0  0
 13 14  1  0  0  0  0
 13 36  1  0  0  0  0
 14 15  1  0  0  0  0
 14 37  1  0  0  0  0
 14 38  1  0  0  0  0
 15 16  1  0  0  0  0
 15 39  1  0  0  0  0
 15 40  1  0  0  0  0
 16 21  1  0  0  0  0
 16 17  2  0  0  0  0
 17 18  1  0  0  0  0
 17 41  1  0  0  0  0
 18 19  2  0  0  0  0
 18 42  1  0  0  0  0
 19 20  1  0  0  0  0
 19 43  1  0  0  0  0
 20 21  2  0  0  0  0
 20 44  1  0  0  0  0
 21 49  1  0  0  0  0
 22 23  1  0  0  0  0
 22 45  1  0  0  0  0
 22 46  1  0  0  0  0
 23 47  1  0  0  0  0
 23 48  1  0  0  0  0
M  CHG  1  21   1
M  END
> <s_m_source_file>
AV-unprocessed.smi

> <i_m_source_file_index>
1120

> <i_lp_mmshare_version>
43012

> <i_f3d_flags>
0

> <s_epik_input>
W0NIM11bQ0BASF0xW0NIMl1bQ0gyXVtDQEhdKFtDSDJdW0NIMl0xKVtOSF1TKD1PKSg9TylbQ0gyXUMoPU8pW05IXVtDSDJdW0NIMl1jMltjSF1bY0hdW2NIXVtjSF1uMg==

> <s_epik_cmdline>
J2VwaWtfcHl0aG9uJywgJy1waCcsICc3LjAnLCAnLXRuJywgJzgnLCAnLW1hJywgJzIwMCcsICctbWV0YWxfYmluZGluZycsICctaW1hZScsICc8aW5maWxlLm1hZT4nLCAnLW9tYWUnLCAnPG91dGZpbGUubWFlPic=

> <r_epik_Ionization_Penalty>
1.97387

> <r_epik_Ionization_Penalty_Charging>
1.97382

> <r_epik_Ionization_Penalty_Neutral>
4.57635e-05

> <r_epik_State_Penalty>
2.10057

> <r_epik_Charging_Adjusted_Penalty>
4.07439

> <i_epik_Tot_Q>
1

> <i_epik_Tot_abs_Q>
1

> <r_epik_Metal_State_Penalty>
2.15877

> <b_epik_Metal_Only>
0

> <s_lp_Force_Field>
OPLS_2005

> <r_lp_Energy>
9.01473

> <b_lp_Chiralities_Consistent>
1

> <s_lp_Variant>
AV-unprocessed.smi:1120-3

> <Gold.Version>
5.8.1

> <Gold.Id.Protein>
6NUR|6NUR_protein|mol2

> <Gold.PLP.Fitness>
53.4237

> <Gold.PLP.PLP>
-41.2699

> <Gold.PLP.part.hbond>
-4.2151

> <Gold.PLP.part.metal>
0.0000

> <Gold.PLP.part.buried>
-6.0759

> <Gold.PLP.part.nonpolar>
-30.9329

> <Gold.PLP.part.repulsive>
0.5329

> <Gold.PLP.ligand.clash>
0.0000

> <Gold.PLP.ligand.torsion>
1.0863

> <Gold.PLP.Chemscore.Hbond>
4.3957

> <Gold.PLP.Chemscore.CHOScore>
0.0000

> <Gold.PLP.Chemscore.Metal>
0.0000

> <Gold.Chemscore.Hbonds>
donor molecule, donor type, donor heavy atom, donor atom, acceptor molecule, acceptor atom, score
      L1  H     6    33       P1  8028  1.00
      L1  H    21    49       P1  7948  1.73
      P1  H  7989  7998       L1     9  0.92
      P1  H  8011  8017       L1     8  0.40

> <Gold.PLP.Chemscore.Internal.Correction>
1.1392

> <Gold.Rescore>
     Score         DG    S(hbond)    S(metal)    S(lipo)     H(rot)  DE(clash)    DE(int)     intcor
     20.48     -22.71       3.20        0.00     100.69       2.05       0.13       2.09       ----

> <Gold.Chemscore.Fitness>
20.4847

> <Gold.Chemscore.DG>
-22.7054

> <Gold.Chemscore.ZeroCoef>
-5.4800

> <Gold.Chemscore.Hbond>
3.1987

> <Gold.Chemscore.Metal>
0.0000

> <Gold.Chemscore.Lipo>
100.6858

> <Gold.Chemscore.Internal_Hbond>
0.0000

> <Gold.Chemscore.DEClash>
0.1282

> <Gold.Chemscore.DEInternal>
2.0924

> <Gold.Chemscore.Rot>
2.0463

> <Gold.Chemscore.Internal.Correction>
   9.000000E+99

> <Gold.Chemscore.Hbonds>
donor molecule, donor type, donor heavy atom, donor atom, acceptor molecule, acceptor atom, score
      L1  H     6    33       P1  8028  0.95
      L1  H    21    49       P1  7948  0.84
      P1  H  7989  7998       L1     9  0.72
      P1  H  8011  8017       L1     8  0.39

> <Gold.Chemscore.Hbond.Weighted>
-10.6837

> <Gold.Chemscore.Metal.Weighted>
-0.0000

> <Gold.Chemscore.Lipo.Weighted>
-11.7802

> <Gold.Chemscore.Internal_Hbond.Weighted>
0.0000

> <Gold.Chemscore.DEClash.Weighted>
0.1282

> <Gold.Chemscore.DEInternal.Weighted>
2.0924

> <Gold.Chemscore.Rot.Weighted>
5.2386

> <Gold.Chemscore.Internal.Correction.Weighted>
   9.000000E+99

> <Gold.Protein.RotatedTorsions>
[ 6907 6896 6895 6894 ] final  -10.21 input  -60.11 | X-H torsion
[ 7974 7965 7964 7962 ] final -118.10 input  175.53 | X-H torsion
[ 8008 7997 7996 7995 ] final  -41.33 input   59.86 | X-H torsion
[ 10167 10162 10161 10158 ] final  116.84 input  -65.29 | X-H torsion
[ 10718 10713 10712 10709 ] final  -53.36 input   66.30 | X-H torsion
[ 10763 10752 10751 10750 ] final   56.48 input  -60.55 | X-H torsion
[ 11005 11000 10999 10996 ] final  103.76 input  -57.11 | X-H torsion

> <Gold.Protein.ActiveResidues>
 VAL166  LYS551  ARG553  GLY616  TRP617  ASP618  TYR619  PRO620  LYS621  CYS622 
 ASP623  PHE694  ASN695  SER759  ASP760  ASP761  ALA762  ILE779  LEU786  VAL792 
 PHE793  MET794  SER795  GLU796  ALA797  LYS798  CYS799  TRP800  GLU811  SER814 

> <Gold.Protein.RotatedAtoms>
  151.4056  135.0977  159.9569 H   0  0  0  0  0  0  0  0  0  0  0  0  # atno 6907 bound_to 6896
  152.5036  133.8846  159.7374 H   0  0  0  0  0  0  0  0  0  0  0  0  # atno 6908 bound_to 6896
  150.9330  133.6688  159.2835 H   0  0  0  0  0  0  0  0  0  0  0  0  # atno 6909 bound_to 6896
  145.0777  140.8404  143.4058 H   0  0  0  0  0  0  0  0  0  0  0  0  # atno 7974 bound_to 7965
  154.4005  140.1502  156.3172 H   0  0  0  0  0  0  0  0  0  0  0  0  # atno 8008 bound_to 7997
  155.8562  140.3455  155.5704 H   0  0  0  0  0  0  0  0  0  0  0  0  # atno 8009 bound_to 7997
  155.7930  140.0859  157.1989 H   0  0  0  0  0  0  0  0  0  0  0  0  # atno 8010 bound_to 7997
  139.6219  144.7102  151.2615 H   0  0  0  0  0  0  0  0  0  0  0  0  # atno 10167 bound_to 10162
  156.1542  130.4150  149.9896 H   0  0  0  0  0  0  0  0  0  0  0  0  # atno 10718 bound_to 10713
  152.9833  135.5675  154.5235 H   0  0  0  0  0  0  0  0  0  0  0  0  # atno 10763 bound_to 10752
  154.4719  135.2785  155.1638 H   0  0  0  0  0  0  0  0  0  0  0  0  # atno 10764 bound_to 10752
  154.3183  135.6274  153.5549 H   0  0  0  0  0  0  0  0  0  0  0  0  # atno 10765 bound_to 10752
  139.8786  134.9275  156.5259 H   0  0  0  0  0  0  0  0  0  0  0  0  # atno 11005 bound_to 11000
  145.1216  139.2690  143.5585 LP  0  0  0  0  0  0  0  0  0  0  0  0  # atno 17320 bound_to 7965
  146.3530  140.0841  142.8616 LP  0  0  0  0  0  0  0  0  0  0  0  0  # atno 17321 bound_to 7965
  140.7387  143.6639  150.8140 LP  0  0  0  0  0  0  0  0  0  0  0  0  # atno 17342 bound_to 10162
  140.0251  143.5502  152.2784 LP  0  0  0  0  0  0  0  0  0  0  0  0  # atno 17343 bound_to 10162
  156.7744  130.9198  151.3645 LP  0  0  0  0  0  0  0  0  0  0  0  0  # atno 17370 bound_to 10713
  157.6681  130.9026  149.9979 LP  0  0  0  0  0  0  0  0  0  0  0  0  # atno 17371 bound_to 10713
  140.8416  133.8200  155.9081 LP  0  0  0  0  0  0  0  0  0  0  0  0  # atno 17394 bound_to 11000
  140.9231  134.2116  157.4913 LP  0  0  0  0  0  0  0  0  0  0  0  0  # atno 17395 bound_to 11000

$$$$
