AV-unprocessed.smi:1584|AV-procd|sdf|6368|dock3
  -GOLD-   22720 6593D 1   1.00000     0.00000
 Structure written by MMmdl.
 39 40  0  0  0  0  0  0  0  0  1 V2000
  149.3586  138.5217  154.2448 C   0  0  0  0  0  0  0  0  0  0  0  0
  148.7619  139.9228  154.4412 C   0  0  1  0  0  0  0  0  0  0  0  0
  147.2212  139.8921  154.4403 C   0  0  0  0  0  0  0  0  0  0  0  0
  146.6901  138.9511  153.4697 N   0  0  0  0  0  0  0  0  0  0  0  0
  146.8648  138.9401  152.1016 C   0  0  0  0  0  0  0  0  0  0  0  0
  146.1895  137.8579  151.6146 C   0  0  0  0  0  0  0  0  0  0  0  0
  145.6242  137.2619  152.7764 C   0  0  0  0  0  0  0  0  0  0  0  0
  145.9252  137.9187  153.8852 N   0  0  0  0  0  0  0  0  0  0  0  0
  149.2463  140.4914  155.6976 N   0  0  0  0  0  0  0  0  0  0  0  0
  150.5331  140.6767  156.0295 C   0  0  0  0  0  0  0  0  0  0  0  0
  151.4744  140.3328  155.3139 O   0  0  0  0  0  0  0  0  0  0  0  0
  150.7931  141.3635  157.3765 C   0  0  1  0  0  0  0  0  0  0  0  0
  151.7036  140.5057  158.2633 C   0  0  0  0  0  0  0  0  0  0  0  0
  151.8917  141.1802  159.6285 C   0  0  0  0  0  0  0  0  0  0  0  0
  152.2259  142.6090  159.5389 N   0  0  0  0  0  0  0  0  0  0  0  0
  152.7800  143.1914  160.7623 C   0  0  0  0  0  0  0  0  0  0  0  0
  151.9871  143.3882  158.4561 C   0  0  0  0  0  0  0  0  0  0  0  0
  152.2257  144.5961  158.4465 O   0  0  0  0  0  0  0  0  0  0  0  0
  151.4297  142.7525  157.1714 C   0  0  0  0  0  0  0  0  0  0  0  0
  149.0253  138.0827  153.3043 H   0  0  0  0  0  0  0  0  0  0  0  0
  149.0641  137.8477  155.0499 H   0  0  0  0  0  0  0  0  0  0  0  0
  150.4483  138.5585  154.2217 H   0  0  0  0  0  0  0  0  0  0  0  0
  149.0849  140.5441  153.6036 H   0  0  0  0  0  0  0  0  0  0  0  0
  146.8483  139.6119  155.4265 H   0  0  0  0  0  0  0  0  0  0  0  0
  146.8167  140.8821  154.2248 H   0  0  0  0  0  0  0  0  0  0  0  0
  147.4528  139.6913  151.5954 H   0  0  0  0  0  0  0  0  0  0  0  0
  146.1119  137.5398  150.5856 H   0  0  0  0  0  0  0  0  0  0  0  0
  145.0092  136.3771  152.8466 H   0  0  0  0  0  0  0  0  0  0  0  0
  148.5436  140.7999  156.3536 H   0  0  0  0  0  0  0  0  0  0  0  0
  149.8377  141.4929  157.8891 H   0  0  0  0  0  0  0  0  0  0  0  0
  151.2855  139.5074  158.3995 H   0  0  0  0  0  0  0  0  0  0  0  0
  152.6774  140.3737  157.7879 H   0  0  0  0  0  0  0  0  0  0  0  0
  150.9733  141.0872  160.2094 H   0  0  0  0  0  0  0  0  0  0  0  0
  152.6664  140.6482  160.1826 H   0  0  0  0  0  0  0  0  0  0  0  0
  152.1688  144.0279  161.1050 H   0  0  0  0  0  0  0  0  0  0  0  0
  153.7926  143.5570  160.5863 H   0  0  0  0  0  0  0  0  0  0  0  0
  152.8254  142.4696  161.5787 H   0  0  0  0  0  0  0  0  0  0  0  0
  152.2566  142.6923  156.4618 H   0  0  0  0  0  0  0  0  0  0  0  0
  150.6975  143.4317  156.7325 H   0  0  0  0  0  0  0  0  0  0  0  0
  1  2  1  0  0  0  0
  1 20  1  0  0  0  0
  1 21  1  0  0  0  0
  1 22  1  0  0  0  0
  2  3  1  0  0  0  0
  2  9  1  0  0  0  0
  2 23  1  0  0  0  0
  3  4  1  0  0  0  0
  3 24  1  0  0  0  0
  3 25  1  0  0  0  0
  4  8  1  0  0  0  0
  4  5  1  0  0  0  0
  5  6  2  0  0  0  0
  5 26  1  0  0  0  0
  6  7  1  0  0  0  0
  6 27  1  0  0  0  0
  7  8  2  0  0  0  0
  7 28  1  0  0  0  0
  9 10  1  0  0  0  0
  9 29  1  0  0  0  0
 10 11  2  0  0  0  0
 10 12  1  0  0  0  0
 12 19  1  0  0  0  0
 12 13  1  0  0  0  0
 12 30  1  0  0  0  0
 13 14  1  0  0  0  0
 13 31  1  0  0  0  0
 13 32  1  0  0  0  0
 14 15  1  0  0  0  0
 14 33  1  0  0  0  0
 14 34  1  0  0  0  0
 15 16  1  0  0  0  0
 15 17  1  0  0  0  0
 16 35  1  0  0  0  0
 16 36  1  0  0  0  0
 16 37  1  0  0  0  0
 17 18  2  0  0  0  0
 17 19  1  0  0  0  0
 19 38  1  0  0  0  0
 19 39  1  0  0  0  0
M  END
> <s_m_source_file>
AV-unprocessed.smi

> <i_m_source_file_index>
1584

> <i_lp_mmshare_version>
43012

> <i_f3d_flags>
0

> <s_epik_input>
bjFbY0hdW2NIXVtjSF1uMVtDSDJdW0NAQEhdKFtDSDNdKVtOSF1DKD1PKVtDQEBIXTJbQ0gyXVtDSDJdTihbQ0gzXSlDKD1PKVtDSDJdMg==

> <s_epik_cmdline>
J2VwaWtfcHl0aG9uJywgJy1waCcsICc3LjAnLCAnLXRuJywgJzgnLCAnLW1hJywgJzIwMCcsICctbWV0YWxfYmluZGluZycsICctaW1hZScsICc8aW5maWxlLm1hZT4nLCAnLW9tYWUnLCAnPG91dGZpbGUubWFlPic=

> <r_lp_tautomer_probability>
1

> <r_epik_Ionization_Penalty>
0.000299422

> <r_epik_Ionization_Penalty_Charging>
0

> <r_epik_Ionization_Penalty_Neutral>
0.000299422

> <r_epik_State_Penalty>
-0

> <r_epik_Charging_Adjusted_Penalty>
0

> <i_epik_Tot_Q>
0

> <i_epik_Tot_abs_Q>
0

> <r_epik_Metal_State_Penalty>
-0

> <b_epik_Metal_Only>
0

> <s_lp_Force_Field>
OPLS_2005

> <r_lp_Energy>
13.2703

> <b_lp_Chiralities_Consistent>
1

> <s_lp_Variant>
AV-unprocessed.smi:1584-4

> <Gold.Version>
5.8.1

> <Gold.Id.Protein>
6NUR|6NUR_protein|mol2

> <Gold.PLP.Fitness>
41.7913

> <Gold.PLP.PLP>
-36.7101

> <Gold.PLP.part.hbond>
-1.0000

> <Gold.PLP.part.metal>
0.0000

> <Gold.PLP.part.buried>
-0.5613

> <Gold.PLP.part.nonpolar>
-35.7759

> <Gold.PLP.part.repulsive>
0.3164

> <Gold.PLP.ligand.clash>
0.0000

> <Gold.PLP.ligand.torsion>
0.2674

> <Gold.PLP.Chemscore.Hbond>
0.8640

> <Gold.PLP.Chemscore.CHOScore>
1.0000

> <Gold.PLP.Chemscore.Metal>
0.0000

> <Gold.Chemscore.Hbonds>
donor molecule, donor type, donor heavy atom, donor atom, acceptor molecule, acceptor atom, score
      P1  H  7989  7998       L1    11  0.93
      L1  C     5    26       P1  7957  1.00

> <Gold.PLP.Chemscore.Internal.Correction>
0.0240

> <Gold.Rescore>
     Score         DG    S(hbond)    S(metal)    S(lipo)     H(rot)  DE(clash)    DE(int)     intcor
     11.46     -13.40       0.81        0.00      81.11       1.67       0.56       1.38       ----

> <Gold.Chemscore.Fitness>
11.4607

> <Gold.Chemscore.DG>
-13.4042

> <Gold.Chemscore.ZeroCoef>
-5.4800

> <Gold.Chemscore.Hbond>
0.8137

> <Gold.Chemscore.Metal>
0.0000

> <Gold.Chemscore.Lipo>
81.1145

> <Gold.Chemscore.Internal_Hbond>
0.0000

> <Gold.Chemscore.DEClash>
0.5604

> <Gold.Chemscore.DEInternal>
1.3831

> <Gold.Chemscore.Rot>
1.6734

> <Gold.Chemscore.Internal.Correction>
   9.000000E+99

> <Gold.Chemscore.Hbonds>
donor molecule, donor type, donor heavy atom, donor atom, acceptor molecule, acceptor atom, score
      P1  H  7989  7998       L1    11  0.89

> <Gold.Chemscore.Hbond.Weighted>
-2.7178

> <Gold.Chemscore.Metal.Weighted>
-0.0000

> <Gold.Chemscore.Lipo.Weighted>
-9.4904

> <Gold.Chemscore.Internal_Hbond.Weighted>
0.0000

> <Gold.Chemscore.DEClash.Weighted>
0.5604

> <Gold.Chemscore.DEInternal.Weighted>
1.3831

> <Gold.Chemscore.Rot.Weighted>
4.2840

> <Gold.Chemscore.Internal.Correction.Weighted>
   9.000000E+99

> <Gold.Protein.RotatedTorsions>
[ 6907 6896 6895 6894 ] final  -22.03 input  -60.11 | X-H torsion
[ 7974 7965 7964 7962 ] final  -88.33 input  175.53 | X-H torsion
[ 8008 7997 7996 7995 ] final -154.67 input   59.86 | X-H torsion
[ 10167 10162 10161 10158 ] final  -40.66 input  -65.29 | X-H torsion
[ 10718 10713 10712 10709 ] final  169.96 input   66.30 | X-H torsion
[ 10763 10752 10751 10750 ] final   64.14 input  -60.55 | X-H torsion
[ 11005 11000 10999 10996 ] final -174.30 input  -57.11 | X-H torsion

> <Gold.Protein.ActiveResidues>
 VAL166  LYS551  ARG553  GLY616  TRP617  ASP618  TYR619  PRO620  LYS621  CYS622 
 ASP623  PHE694  ASN695  SER759  ASP760  ASP761  ALA762  ILE779  LEU786  VAL792 
 PHE793  MET794  SER795  GLU796  ALA797  LYS798  CYS799  TRP800  GLU811  SER814 

> <Gold.Protein.RotatedAtoms>
  151.2246  135.0531  159.8963 H   0  0  0  0  0  0  0  0  0  0  0  0  # atno 6907 bound_to 6896
  152.5411  134.0603  159.8159 H   0  0  0  0  0  0  0  0  0  0  0  0  # atno 6908 bound_to 6896
  151.0774  133.5369  159.2654 H   0  0  0  0  0  0  0  0  0  0  0  0  # atno 6909 bound_to 6896
  145.4546  140.9561  143.2003 H   0  0  0  0  0  0  0  0  0  0  0  0  # atno 7974 bound_to 7965
  155.6900  140.0754  157.2452 H   0  0  0  0  0  0  0  0  0  0  0  0  # atno 8008 bound_to 7997
  154.4090  140.1666  156.2128 H   0  0  0  0  0  0  0  0  0  0  0  0  # atno 8009 bound_to 7997
  155.9460  140.3381  155.6371 H   0  0  0  0  0  0  0  0  0  0  0  0  # atno 8010 bound_to 7997
  140.7027  143.3140  151.2955 H   0  0  0  0  0  0  0  0  0  0  0  0  # atno 10167 bound_to 10162
  157.0150  131.0215  151.2792 H   0  0  0  0  0  0  0  0  0  0  0  0  # atno 10718 bound_to 10713
  153.0044  135.5404  154.6463 H   0  0  0  0  0  0  0  0  0  0  0  0  # atno 10763 bound_to 10752
  154.5706  135.2841  155.0833 H   0  0  0  0  0  0  0  0  0  0  0  0  # atno 10764 bound_to 10752
  154.2000  135.6485  153.5137 H   0  0  0  0  0  0  0  0  0  0  0  0  # atno 10765 bound_to 10752
  140.4761  134.6119  157.4901 H   0  0  0  0  0  0  0  0  0  0  0  0  # atno 11005 bound_to 11000
  144.8040  139.6086  143.7059 LP  0  0  0  0  0  0  0  0  0  0  0  0  # atno 17320 bound_to 7965
  146.2485  139.6149  142.9443 LP  0  0  0  0  0  0  0  0  0  0  0  0  # atno 17321 bound_to 7965
  139.6573  144.0253  152.2668 LP  0  0  0  0  0  0  0  0  0  0  0  0  # atno 17342 bound_to 10162
  139.9809  144.6429  150.7902 LP  0  0  0  0  0  0  0  0  0  0  0  0  # atno 17343 bound_to 10162
  157.5292  130.8047  149.7897 LP  0  0  0  0  0  0  0  0  0  0  0  0  # atno 17370 bound_to 10713
  156.0122  130.3828  150.2226 LP  0  0  0  0  0  0  0  0  0  0  0  0  # atno 17371 bound_to 10713
  139.9855  134.7068  155.9782 LP  0  0  0  0  0  0  0  0  0  0  0  0  # atno 17394 bound_to 11000
  141.1554  133.6543  156.4144 LP  0  0  0  0  0  0  0  0  0  0  0  0  # atno 17395 bound_to 11000

$$$$
