AV-unprocessed.smi:2353|AV-procd|sdf|9380|dock7
  -GOLD-   2272013 03D 1   1.00000     0.00000
 Structure written by MMmdl.
 45 47  0  0  0  0  0  0  0  0  1 V2000
  151.6085  144.9592  159.2638 C   0  0  0  0  0  0  0  0  0  0  0  0
  152.1767  143.5632  159.4162 C   0  0  0  0  0  0  0  0  0  0  0  0
  152.8196  143.1833  160.6101 C   0  0  0  0  0  0  0  0  0  0  0  0
  153.3400  141.8838  160.7448 C   0  0  0  0  0  0  0  0  0  0  0  0
  153.2224  140.9573  159.6883 C   0  0  0  0  0  0  0  0  0  0  0  0
  153.7895  139.5595  159.8504 C   0  0  0  0  0  0  0  0  0  0  0  0
  152.5831  141.3265  158.4821 C   0  0  0  0  0  0  0  0  0  0  0  0
  152.5067  140.3736  157.4873 O   0  0  0  0  0  0  0  0  0  0  0  0
  151.6253  140.5978  156.3952 C   0  0  0  0  0  0  0  0  0  0  0  0
  151.9801  139.6135  155.2681 C   0  0  2  0  0  0  0  0  0  0  0  0
  151.0269  139.7943  154.2387 O   0  0  0  0  0  0  0  0  0  0  0  0
  151.8972  138.1445  155.7395 C   0  0  0  0  0  0  0  0  0  0  0  0
  150.5088  137.6894  155.8799 N   0  0  0  0  0  0  0  0  0  0  0  0
  149.6586  138.6400  156.4152 N   0  0  0  0  0  0  0  0  0  0  0  0
  148.3998  138.3940  156.5761 C   0  0  0  0  0  0  0  0  0  0  0  0
  147.5192  139.4078  157.1285 N   0  0  0  0  0  0  0  0  0  0  0  0
  146.2161  139.1286  157.5430 C   0  0  0  0  0  0  0  0  0  0  0  0
  145.7011  140.3230  157.9968 C   0  0  0  0  0  0  0  0  0  0  0  0
  146.6526  141.3334  157.8708 N   0  0  0  0  0  0  0  0  0  0  0  0
  147.7038  140.7173  157.3465 C   0  0  0  0  0  0  0  0  0  0  0  0
  147.8659  137.0884  156.2033 C   0  0  0  0  0  0  0  0  0  0  0  0
  148.7059  136.1663  155.6853 C   0  0  0  0  0  0  0  0  0  0  0  0
  150.1280  136.4386  155.4867 C   0  0  0  0  0  0  0  0  0  0  0  0
  150.9108  135.6194  155.0065 O   0  0  0  0  0  0  0  0  0  0  0  0
  152.0587  142.6387  158.3586 C   0  0  0  0  0  0  0  0  0  0  0  0
  151.9073  145.6031  160.0914 H   0  0  0  0  0  0  0  0  0  0  0  0
  150.5194  144.9213  159.2364 H   0  0  0  0  0  0  0  0  0  0  0  0
  151.9603  145.4135  158.3373 H   0  0  0  0  0  0  0  0  0  0  0  0
  152.9152  143.8842  161.4266 H   0  0  0  0  0  0  0  0  0  0  0  0
  153.8308  141.6012  161.6646 H   0  0  0  0  0  0  0  0  0  0  0  0
  154.5941  139.3925  159.1337 H   0  0  0  0  0  0  0  0  0  0  0  0
  153.0135  138.8135  159.6765 H   0  0  0  0  0  0  0  0  0  0  0  0
  154.1884  139.4038  160.8532 H   0  0  0  0  0  0  0  0  0  0  0  0
  150.6066  140.4081  156.7367 H   0  0  0  0  0  0  0  0  0  0  0  0
  151.6732  141.6291  156.0405 H   0  0  0  0  0  0  0  0  0  0  0  0
  152.9795  139.8373  154.8926 H   0  0  0  0  0  0  0  0  0  0  0  0
  150.7153  138.9456  153.9641 H   0  0  0  0  0  0  0  0  0  0  0  0
  152.4037  137.4951  155.0233 H   0  0  0  0  0  0  0  0  0  0  0  0
  152.4473  138.0108  156.6734 H   0  0  0  0  0  0  0  0  0  0  0  0
  145.7412  138.1622  157.4977 H   0  0  0  0  0  0  0  0  0  0  0  0
  144.7215  140.5323  158.4004 H   0  0  0  0  0  0  0  0  0  0  0  0
  148.6262  141.2311  157.1187 H   0  0  0  0  0  0  0  0  0  0  0  0
  146.8288  136.8276  156.3304 H   0  0  0  0  0  0  0  0  0  0  0  0
  148.3176  135.1968  155.4091 H   0  0  0  0  0  0  0  0  0  0  0  0
  151.5573  142.9602  157.4584 H   0  0  0  0  0  0  0  0  0  0  0  0
  1  2  1  0  0  0  0
  1 26  1  0  0  0  0
  1 27  1  0  0  0  0
  1 28  1  0  0  0  0
  2 25  1  0  0  0  0
  2  3  2  0  0  0  0
  3  4  1  0  0  0  0
  3 29  1  0  0  0  0
  4  5  2  0  0  0  0
  4 30  1  0  0  0  0
  5  6  1  0  0  0  0
  5  7  1  0  0  0  0
  6 31  1  0  0  0  0
  6 32  1  0  0  0  0
  6 33  1  0  0  0  0
  7  8  1  0  0  0  0
  7 25  2  0  0  0  0
  8  9  1  0  0  0  0
  9 10  1  0  0  0  0
  9 34  1  0  0  0  0
  9 35  1  0  0  0  0
 10 11  1  0  0  0  0
 10 12  1  0  0  0  0
 10 36  1  0  0  0  0
 11 37  1  0  0  0  0
 12 13  1  0  0  0  0
 12 38  1  0  0  0  0
 12 39  1  0  0  0  0
 13 23  1  0  0  0  0
 13 14  1  0  0  0  0
 14 15  2  0  0  0  0
 15 16  1  0  0  0  0
 15 21  1  0  0  0  0
 16 20  1  0  0  0  0
 16 17  1  0  0  0  0
 17 18  2  0  0  0  0
 17 40  1  0  0  0  0
 18 19  1  0  0  0  0
 18 41  1  0  0  0  0
 19 20  2  0  0  0  0
 20 42  1  0  0  0  0
 21 22  2  0  0  0  0
 21 43  1  0  0  0  0
 22 23  1  0  0  0  0
 22 44  1  0  0  0  0
 23 24  2  0  0  0  0
 25 45  1  0  0  0  0
M  END
> <s_m_source_file>
AV-unprocessed.smi

> <i_m_source_file_index>
2353

> <i_lp_mmshare_version>
43012

> <i_f3d_flags>
0

> <s_epik_input>
W0NIM11jMVtjSF1bY0hdYyhbQ0gzXSljKFtjSF0xKU9bQ0gyXVtDQEhdKFtPSF0pW0NIMl1uMm5jKFtjSF1bY0hdYzI9TyktbjNbY0hdW2NIXW5bY0hdMw==

> <s_epik_cmdline>
J2VwaWtfcHl0aG9uJywgJy1waCcsICc3LjAnLCAnLXRuJywgJzgnLCAnLW1hJywgJzIwMCcsICctbWV0YWxfYmluZGluZycsICctaW1hZScsICc8aW5maWxlLm1hZT4nLCAnLW9tYWUnLCAnPG91dGZpbGUubWFlPic=

> <r_lp_tautomer_probability>
1

> <r_epik_Ionization_Penalty>
0.03707

> <r_epik_Ionization_Penalty_Charging>
0.0370699

> <r_epik_Ionization_Penalty_Neutral>
1.17174e-07

> <r_epik_State_Penalty>
0.0310055

> <r_epik_Charging_Adjusted_Penalty>
0.0680754

> <i_epik_Tot_Q>
0

> <i_epik_Tot_abs_Q>
0

> <r_epik_Metal_State_Penalty>
0.0291724

> <b_epik_Metal_Only>
0

> <s_lp_Force_Field>
OPLS_2005

> <r_lp_Energy>
36.9493

> <b_lp_Chiralities_Consistent>
1

> <s_lp_Variant>
AV-unprocessed.smi:2353-1

> <Gold.Version>
5.8.1

> <Gold.Id.Protein>
6NUR|6NUR_protein|mol2

> <Gold.PLP.Fitness>
45.6946

> <Gold.PLP.PLP>
-38.2511

> <Gold.PLP.part.hbond>
-3.0000

> <Gold.PLP.part.metal>
0.0000

> <Gold.PLP.part.buried>
-4.5337

> <Gold.PLP.part.nonpolar>
-30.2028

> <Gold.PLP.part.repulsive>
0.1324

> <Gold.PLP.ligand.clash>
0.0000

> <Gold.PLP.ligand.torsion>
0.6850

> <Gold.PLP.Chemscore.Hbond>
2.9204

> <Gold.PLP.Chemscore.CHOScore>
0.0000

> <Gold.PLP.Chemscore.Metal>
0.0000

> <Gold.Chemscore.Hbonds>
donor molecule, donor type, donor heavy atom, donor atom, acceptor molecule, acceptor atom, score
      P1  H  7989  7998       L1    11  0.76
      P1  H  7997  8010       L1     8  0.86
      P1  H 10752 10764       L1    24  0.78

> <Gold.PLP.Chemscore.Internal.Correction>
0.0524

> <Gold.Rescore>
     Score         DG    S(hbond)    S(metal)    S(lipo)     H(rot)  DE(clash)    DE(int)     intcor
     14.94     -18.30       1.97        0.00     110.09       2.60       0.07       3.29       ----

> <Gold.Chemscore.Fitness>
14.9401

> <Gold.Chemscore.DG>
-18.3020

> <Gold.Chemscore.ZeroCoef>
-5.4800

> <Gold.Chemscore.Hbond>
1.9743

> <Gold.Chemscore.Metal>
0.0000

> <Gold.Chemscore.Lipo>
110.0883

> <Gold.Chemscore.Internal_Hbond>
0.0000

> <Gold.Chemscore.DEClash>
0.0689

> <Gold.Chemscore.DEInternal>
3.2930

> <Gold.Chemscore.Rot>
2.5986

> <Gold.Chemscore.Internal.Correction>
   9.000000E+99

> <Gold.Chemscore.Hbonds>
donor molecule, donor type, donor heavy atom, donor atom, acceptor molecule, acceptor atom, score
      P1  H  7989  7998       L1    11  0.22
      P1  H  7997  8010       L1     8  0.32
      P1  H 10752 10764       L1    24  0.73

> <Gold.Chemscore.Hbond.Weighted>
-6.5940

> <Gold.Chemscore.Metal.Weighted>
-0.0000

> <Gold.Chemscore.Lipo.Weighted>
-12.8803

> <Gold.Chemscore.Internal_Hbond.Weighted>
0.0000

> <Gold.Chemscore.DEClash.Weighted>
0.0689

> <Gold.Chemscore.DEInternal.Weighted>
3.2930

> <Gold.Chemscore.Rot.Weighted>
6.6524

> <Gold.Chemscore.Internal.Correction.Weighted>
   9.000000E+99

> <Gold.Protein.RotatedTorsions>
[ 6907 6896 6895 6894 ] final  -79.32 input  -60.11 | X-H torsion
[ 7974 7965 7964 7962 ] final -120.10 input  175.53 | X-H torsion
[ 8008 7997 7996 7995 ] final   56.76 input   59.86 | X-H torsion
[ 10167 10162 10161 10158 ] final  157.91 input  -65.29 | X-H torsion
[ 10718 10713 10712 10709 ] final  -66.53 input   66.30 | X-H torsion
[ 10763 10752 10751 10750 ] final  -41.78 input  -60.55 | X-H torsion
[ 11005 11000 10999 10996 ] final  -93.37 input  -57.11 | X-H torsion

> <Gold.Protein.ActiveResidues>
 VAL166  LYS551  ARG553  GLY616  TRP617  ASP618  TYR619  PRO620  LYS621  CYS622 
 ASP623  PHE694  ASN695  SER759  ASP760  ASP761  ALA762  ILE779  LEU786  VAL792 
 PHE793  MET794  SER795  GLU796  ALA797  LYS798  CYS799  TRP800  GLU811  SER814 

> <Gold.Protein.RotatedAtoms>
  150.6952  134.4139  159.5174 H   0  0  0  0  0  0  0  0  0  0  0  0  # atno 6907 bound_to 6896
  152.1893  134.8683  160.0528 H   0  0  0  0  0  0  0  0  0  0  0  0  # atno 6908 bound_to 6896
  151.9644  133.3671  159.4084 H   0  0  0  0  0  0  0  0  0  0  0  0  # atno 6909 bound_to 6896
  145.0552  140.8248  143.4186 H   0  0  0  0  0  0  0  0  0  0  0  0  # atno 7974 bound_to 7965
  155.5227  140.3480  155.4410 H   0  0  0  0  0  0  0  0  0  0  0  0  # atno 8008 bound_to 7997
  156.0773  140.1378  156.9783 H   0  0  0  0  0  0  0  0  0  0  0  0  # atno 8009 bound_to 7997
  154.4560  140.0953  156.6734 H   0  0  0  0  0  0  0  0  0  0  0  0  # atno 8010 bound_to 7997
  139.4824  144.4874  151.8358 H   0  0  0  0  0  0  0  0  0  0  0  0  # atno 10167 bound_to 10162
  156.0607  130.4263  150.1723 H   0  0  0  0  0  0  0  0  0  0  0  0  # atno 10718 bound_to 10713
  153.9681  135.6731  153.4746 H   0  0  0  0  0  0  0  0  0  0  0  0  # atno 10763 bound_to 10752
  153.0806  135.4925  154.8491 H   0  0  0  0  0  0  0  0  0  0  0  0  # atno 10764 bound_to 10752
  154.7234  135.3122  154.8970 H   0  0  0  0  0  0  0  0  0  0  0  0  # atno 10765 bound_to 10752
  141.1499  133.7883  157.0150 H   0  0  0  0  0  0  0  0  0  0  0  0  # atno 11005 bound_to 11000
  145.1478  139.2533  143.5457 LP  0  0  0  0  0  0  0  0  0  0  0  0  # atno 17320 bound_to 7965
  146.3521  140.1172  142.8601 LP  0  0  0  0  0  0  0  0  0  0  0  0  # atno 17321 bound_to 7965
  140.4355  144.2058  150.5889 LP  0  0  0  0  0  0  0  0  0  0  0  0  # atno 17342 bound_to 10162
  140.4736  143.2404  151.9054 LP  0  0  0  0  0  0  0  0  0  0  0  0  # atno 17343 bound_to 10162
  156.9792  130.9859  151.3441 LP  0  0  0  0  0  0  0  0  0  0  0  0  # atno 17370 bound_to 10713
  157.5613  130.8248  149.8270 LP  0  0  0  0  0  0  0  0  0  0  0  0  # atno 17371 bound_to 10713
  140.0853  134.9624  157.1690 LP  0  0  0  0  0  0  0  0  0  0  0  0  # atno 17394 bound_to 11000
  140.3520  134.2588  155.7197 LP  0  0  0  0  0  0  0  0  0  0  0  0  # atno 17395 bound_to 11000

$$$$
