AV-unprocessed.smi:753|AV-procd|sdf|3602|dock7
  -GOLD-   22720 0593D 1   1.00000     0.00000
 Structure written by MMmdl.
 43 45  0  0  0  0  0  0  0  0  1 V2000
  150.9516  141.3954  155.8488 C   0  0  0  0  0  0  0  0  0  0  0  0
  150.9303  139.8825  155.7855 C   0  0  0  0  0  0  0  0  0  0  0  0
  150.8993  139.1084  156.9647 C   0  0  0  0  0  0  0  0  0  0  0  0
  150.8809  137.7054  156.8451 C   0  0  0  0  0  0  0  0  0  0  0  0
  150.8942  137.1330  155.5568 C   0  0  0  0  0  0  0  0  0  0  0  0
  150.8827  135.6288  155.3734 C   0  0  0  0  0  0  0  0  0  0  0  0
  149.4694  135.0420  155.5142 C   0  0  0  0  0  0  0  0  0  0  0  0
  148.8557  134.8172  154.2119 N   0  0  0  0  0  0  0  0  0  0  0  0
  148.0163  133.8101  153.9184 C   0  0  0  0  0  0  0  0  0  0  0  0
  147.6872  132.9444  154.7271 O   0  0  0  0  0  0  0  0  0  0  0  0
  147.5513  133.8158  152.6565 N   0  0  0  0  0  0  0  0  0  0  0  0
  146.6292  132.8651  152.0302 C   0  0  1  0  0  0  0  0  0  0  0  0
  145.2474  132.8690  152.7206 C   0  0  0  0  0  0  0  0  0  0  0  0
  144.2855  133.2014  151.5646 C   0  0  2  0  0  0  0  0  0  0  0  0
  144.2229  132.0120  150.5867 C   0  0  0  0  0  0  0  0  0  0  0  0
  145.5956  132.0703  149.8877 C   0  0  0  0  0  0  0  0  0  0  0  0
  146.2723  133.2680  150.5789 C   0  0  1  0  0  0  0  0  0  0  0  0
  145.0939  134.2179  150.7706 C   0  0  0  0  0  0  0  0  0  0  0  0
  150.9265  137.9966  154.4418 C   0  0  0  0  0  0  0  0  0  0  0  0
  150.9443  139.3427  154.5466 N   0  0  0  0  0  0  0  0  0  0  0  0
  150.8967  141.7487  156.8787 H   0  0  0  0  0  0  0  0  0  0  0  0
  150.1044  141.8101  155.3017 H   0  0  0  0  0  0  0  0  0  0  0  0
  151.8703  141.7799  155.4050 H   0  0  0  0  0  0  0  0  0  0  0  0
  150.8907  139.5752  157.9387 H   0  0  0  0  0  0  0  0  0  0  0  0
  150.8589  137.0824  157.7273 H   0  0  0  0  0  0  0  0  0  0  0  0
  151.2964  135.3882  154.3930 H   0  0  0  0  0  0  0  0  0  0  0  0
  151.5510  135.1778  156.1084 H   0  0  0  0  0  0  0  0  0  0  0  0
  149.5130  134.0856  156.0358 H   0  0  0  0  0  0  0  0  0  0  0  0
  148.8397  135.6979  156.1183 H   0  0  0  0  0  0  0  0  0  0  0  0
  149.0735  135.4817  153.4838 H   0  0  0  0  0  0  0  0  0  0  0  0
  147.8892  134.5557  152.0581 H   0  0  0  0  0  0  0  0  0  0  0  0
  147.0608  131.8630  152.0681 H   0  0  0  0  0  0  0  0  0  0  0  0
  145.0155  131.9102  153.1858 H   0  0  0  0  0  0  0  0  0  0  0  0
  145.1870  133.6339  153.4964 H   0  0  0  0  0  0  0  0  0  0  0  0
  143.3065  133.5483  151.8961 H   0  0  0  0  0  0  0  0  0  0  0  0
  144.0562  131.0640  151.0993 H   0  0  0  0  0  0  0  0  0  0  0  0
  143.4191  132.1469  149.8619 H   0  0  0  0  0  0  0  0  0  0  0  0
  146.1634  131.1463  150.0021 H   0  0  0  0  0  0  0  0  0  0  0  0
  145.4738  132.2578  148.8201 H   0  0  0  0  0  0  0  0  0  0  0  0
  147.1045  133.6784  150.0056 H   0  0  0  0  0  0  0  0  0  0  0  0
  144.6180  134.5130  149.8338 H   0  0  0  0  0  0  0  0  0  0  0  0
  145.3460  135.1131  151.3418 H   0  0  0  0  0  0  0  0  0  0  0  0
  150.9422  137.5973  153.4385 H   0  0  0  0  0  0  0  0  0  0  0  0
  1  2  1  0  0  0  0
  1 21  1  0  0  0  0
  1 22  1  0  0  0  0
  1 23  1  0  0  0  0
  2 20  1  0  0  0  0
  2  3  2  0  0  0  0
  3  4  1  0  0  0  0
  3 24  1  0  0  0  0
  4  5  2  0  0  0  0
  4 25  1  0  0  0  0
  5  6  1  0  0  0  0
  5 19  1  0  0  0  0
  6  7  1  0  0  0  0
  6 26  1  0  0  0  0
  6 27  1  0  0  0  0
  7  8  1  0  0  0  0
  7 28  1  0  0  0  0
  7 29  1  0  0  0  0
  8  9  1  0  0  0  0
  8 30  1  0  0  0  0
  9 10  2  0  0  0  0
  9 11  1  0  0  0  0
 11 12  1  0  0  0  0
 11 31  1  0  0  0  0
 12 17  1  0  0  0  0
 12 13  1  0  0  0  0
 12 32  1  0  0  0  0
 13 14  1  0  0  0  0
 13 33  1  0  0  0  0
 13 34  1  0  0  0  0
 14 18  1  0  0  0  0
 14 15  1  0  0  0  0
 14 35  1  0  0  0  0
 15 16  1  0  0  0  0
 15 36  1  0  0  0  0
 15 37  1  0  0  0  0
 16 17  1  0  0  0  0
 16 38  1  0  0  0  0
 16 39  1  0  0  0  0
 17 18  1  0  0  0  0
 17 40  1  0  0  0  0
 18 41  1  0  0  0  0
 18 42  1  0  0  0  0
 19 20  2  0  0  0  0
 19 43  1  0  0  0  0
M  END
> <s_m_source_file>
AV-unprocessed.smi

> <i_m_source_file_index>
753

> <i_lp_mmshare_version>
43012

> <i_f3d_flags>
0

> <s_epik_input>
W0NIM11jMVtjSF1bY0hdYyhbY0hdbjEpW0NIMl1bQ0gyXVtOSF1DKD1PKVtOSF1bQ0BIXShbQ0gyXVtDQEBIXTIzKVtDQEBIXShbQ0gyXTMpW0NIMl1bQ0gyXTI=

> <s_epik_cmdline>
J2VwaWtfcHl0aG9uJywgJy1waCcsICc3LjAnLCAnLXRuJywgJzgnLCAnLW1hJywgJzIwMCcsICctbWV0YWxfYmluZGluZycsICctaW1hZScsICc8aW5maWxlLm1hZT4nLCAnLW9tYWUnLCAnPG91dGZpbGUubWFlPic=

> <r_epik_Ionization_Penalty>
0.0569047

> <r_epik_Ionization_Penalty_Charging>
0

> <r_epik_Ionization_Penalty_Neutral>
0.0569047

> <r_epik_State_Penalty>
0.0490541

> <r_epik_Charging_Adjusted_Penalty>
0.0490541

> <i_epik_Tot_Q>
0

> <i_epik_Tot_abs_Q>
0

> <r_epik_Metal_State_Penalty>
0.0447357

> <b_epik_Metal_Only>
0

> <s_lp_Force_Field>
OPLS_2005

> <r_lp_Energy>
50.3887

> <b_lp_Chiralities_Consistent>
1

> <s_lp_Variant>
AV-unprocessed.smi:753-4

> <Gold.Version>
5.8.1

> <Gold.Id.Protein>
6NUR|6NUR_protein|mol2

> <Gold.PLP.Fitness>
46.5205

> <Gold.PLP.PLP>
-35.8066

> <Gold.PLP.part.hbond>
-3.0000

> <Gold.PLP.part.metal>
0.0000

> <Gold.PLP.part.buried>
-3.5923

> <Gold.PLP.part.nonpolar>
-27.8033

> <Gold.PLP.part.repulsive>
0.1463

> <Gold.PLP.ligand.clash>
0.0000

> <Gold.PLP.ligand.torsion>
0.7461

> <Gold.PLP.Chemscore.Hbond>
2.9920

> <Gold.PLP.Chemscore.CHOScore>
1.0694

> <Gold.PLP.Chemscore.Metal>
0.0000

> <Gold.Chemscore.Hbonds>
donor molecule, donor type, donor heavy atom, donor atom, acceptor molecule, acceptor atom, score
      L1  H     8    30       P1  7948  1.00
      L1  H    11    31       P1  7948  0.99
      P1  H  7989  7998       L1    20  1.00
      L1  C    19    43       P1  7948  0.09
      L1  C    19    43       P1  7949  0.99

> <Gold.PLP.Chemscore.Internal.Correction>
0.0219

> <Gold.Rescore>
     Score         DG    S(hbond)    S(metal)    S(lipo)     H(rot)  DE(clash)    DE(int)     intcor
     20.11     -20.94       2.61        0.00      88.77       1.43       0.08       0.75       ----

> <Gold.Chemscore.Fitness>
20.1055

> <Gold.Chemscore.DG>
-20.9381

> <Gold.Chemscore.ZeroCoef>
-5.4800

> <Gold.Chemscore.Hbond>
2.6140

> <Gold.Chemscore.Metal>
0.0000

> <Gold.Chemscore.Lipo>
88.7672

> <Gold.Chemscore.Internal_Hbond>
0.0000

> <Gold.Chemscore.DEClash>
0.0779

> <Gold.Chemscore.DEInternal>
0.7546

> <Gold.Chemscore.Rot>
1.4291

> <Gold.Chemscore.Internal.Correction>
   9.000000E+99

> <Gold.Chemscore.Hbonds>
donor molecule, donor type, donor heavy atom, donor atom, acceptor molecule, acceptor atom, score
      L1  H     8    30       P1  7948  0.59
      L1  H    11    31       P1  7948  0.28
      P1  H  7989  7998       L1    20  0.29

> <Gold.Chemscore.Hbond.Weighted>
-8.7308

> <Gold.Chemscore.Metal.Weighted>
-0.0000

> <Gold.Chemscore.Lipo.Weighted>
-10.3858

> <Gold.Chemscore.Internal_Hbond.Weighted>
0.0000

> <Gold.Chemscore.DEClash.Weighted>
0.0779

> <Gold.Chemscore.DEInternal.Weighted>
0.7546

> <Gold.Chemscore.Rot.Weighted>
3.6585

> <Gold.Chemscore.Internal.Correction.Weighted>
   9.000000E+99

> <Gold.Protein.RotatedTorsions>
[ 6907 6896 6895 6894 ] final  172.95 input  -60.11 | X-H torsion
[ 7974 7965 7964 7962 ] final  158.73 input  175.53 | X-H torsion
[ 8008 7997 7996 7995 ] final   49.90 input   59.86 | X-H torsion
[ 10167 10162 10161 10158 ] final  -73.97 input  -65.29 | X-H torsion
[ 10718 10713 10712 10709 ] final  161.84 input   66.30 | X-H torsion
[ 10763 10752 10751 10750 ] final   28.39 input  -60.55 | X-H torsion
[ 11005 11000 10999 10996 ] final  143.41 input  -57.11 | X-H torsion

> <Gold.Protein.ActiveResidues>
 VAL166  LYS551  ARG553  GLY616  TRP617  ASP618  TYR619  PRO620  LYS621  CYS622 
 ASP623  PHE694  ASN695  SER759  ASP760  ASP761  ALA762  ILE779  LEU786  VAL792 
 PHE793  MET794  SER795  GLU796  ALA797  LYS798  CYS799  TRP800  GLU811  SER814 

> <Gold.Protein.RotatedAtoms>
  151.7761  133.3345  159.3457 H   0  0  0  0  0  0  0  0  0  0  0  0  # atno 6907 bound_to 6896
  150.7443  134.5974  159.6028 H   0  0  0  0  0  0  0  0  0  0  0  0  # atno 6908 bound_to 6896
  152.3308  134.7263  160.0341 H   0  0  0  0  0  0  0  0  0  0  0  0  # atno 6909 bound_to 6896
  144.7829  139.7519  143.6252 H   0  0  0  0  0  0  0  0  0  0  0  0  # atno 7974 bound_to 7965
  155.4099  140.3442  155.4263 H   0  0  0  0  0  0  0  0  0  0  0  0  # atno 8008 bound_to 7997
  156.1455  140.1555  156.8886 H   0  0  0  0  0  0  0  0  0  0  0  0  # atno 8009 bound_to 7997
  154.5006  140.0815  156.7772 H   0  0  0  0  0  0  0  0  0  0  0  0  # atno 8010 bound_to 7997
  140.5066  143.2352  151.7663 H   0  0  0  0  0  0  0  0  0  0  0  0  # atno 10167 bound_to 10162
  157.1309  131.0516  151.2372 H   0  0  0  0  0  0  0  0  0  0  0  0  # atno 10718 bound_to 10713
  153.0495  135.6514  154.0731 H   0  0  0  0  0  0  0  0  0  0  0  0  # atno 10763 bound_to 10752
  154.0422  135.2902  155.3355 H   0  0  0  0  0  0  0  0  0  0  0  0  # atno 10764 bound_to 10752
  154.6774  135.5333  153.8284 H   0  0  0  0  0  0  0  0  0  0  0  0  # atno 10765 bound_to 10752
  140.0551  134.9235  157.1087 H   0  0  0  0  0  0  0  0  0  0  0  0  # atno 11005 bound_to 11000
  146.2046  139.5363  142.9721 LP  0  0  0  0  0  0  0  0  0  0  0  0  # atno 17320 bound_to 7965
  145.6001  141.0356  143.2023 LP  0  0  0  0  0  0  0  0  0  0  0  0  # atno 17321 bound_to 7965
  139.4885  144.4449  151.9722 LP  0  0  0  0  0  0  0  0  0  0  0  0  # atno 17342 bound_to 10162
  140.3539  144.3055  150.5944 LP  0  0  0  0  0  0  0  0  0  0  0  0  # atno 17343 bound_to 10162
  157.4393  130.7535  149.7055 LP  0  0  0  0  0  0  0  0  0  0  0  0  # atno 17370 bound_to 10713
  155.9808  130.4026  150.3508 LP  0  0  0  0  0  0  0  0  0  0  0  0  # atno 17371 bound_to 10713
  140.3856  134.2240  155.7168 LP  0  0  0  0  0  0  0  0  0  0  0  0  # atno 17394 bound_to 11000
  141.1948  133.8119  157.0740 LP  0  0  0  0  0  0  0  0  0  0  0  0  # atno 17395 bound_to 11000

$$$$
