AV-unprocessed.smi:2562|AV-procd|sdf|10044|dock5
  -GOLD-   2272014 83D 1   1.00000     0.00000
 Structure written by MMmdl.
 31 32  0  0  0  0  0  0  0  0  2 V2000
  137.8324  138.1152  153.8493 C   0  0  0  0  0  0  0  0  0  0  0  0
  138.8062  136.9337  153.9176 C   0  0  0  0  0  0  0  0  0  0  0  0
  140.1973  137.2820  153.3684 C   0  0  0  0  0  0  0  0  0  0  0  0
  141.1215  136.1096  153.3933 C   0  0  0  0  0  0  0  0  0  0  0  0
  140.7255  134.9276  153.8633 N   0  0  0  0  0  0  0  0  0  0  0  0
  141.8502  134.1902  153.7524 N   0  0  0  0  0  0  0  0  0  0  0  0
  142.8285  134.9480  153.2513 C   0  0  0  0  0  0  0  0  0  0  0  0
  144.2132  134.4239  153.0370 C   0  0  2  0  0  0  0  0  0  0  0  0
  145.1699  135.5027  152.4930 C   0  0  0  0  0  0  0  0  0  0  0  0
  146.4893  134.9083  152.2030 N   0  3  0  0  0  0  0  0  0  0  0  0
  146.3717  133.7529  151.2917 C   0  0  0  0  0  0  0  0  0  0  0  0
  145.3756  132.7280  151.8623 C   0  0  0  0  0  0  0  0  0  0  0  0
  144.1196  133.3565  152.0963 O   0  0  0  0  0  0  0  0  0  0  0  0
  142.4302  136.1930  153.0073 N   0  0  0  0  0  0  0  0  0  0  0  0
  141.9007  133.2194  154.0266 H   0  0  0  0  0  0  0  0  0  0  0  0
  136.8616  137.8419  154.2632 H   0  0  0  0  0  0  0  0  0  0  0  0
  137.6764  138.4375  152.8193 H   0  0  0  0  0  0  0  0  0  0  0  0
  138.2069  138.9683  154.4155 H   0  0  0  0  0  0  0  0  0  0  0  0
  138.8955  136.6019  154.9527 H   0  0  0  0  0  0  0  0  0  0  0  0
  138.3909  136.0942  153.3589 H   0  0  0  0  0  0  0  0  0  0  0  0
  140.1140  137.6501  152.3449 H   0  0  0  0  0  0  0  0  0  0  0  0
  140.6376  138.0911  153.9525 H   0  0  0  0  0  0  0  0  0  0  0  0
  144.5867  134.0343  153.9862 H   0  0  0  0  0  0  0  0  0  0  0  0
  144.7698  135.9414  151.5775 H   0  0  0  0  0  0  0  0  0  0  0  0
  145.2882  136.3129  153.2131 H   0  0  0  0  0  0  0  0  0  0  0  0
  147.0883  135.6065  151.7855 H   0  0  0  0  0  0  0  0  0  0  0  0
  146.0360  134.1003  150.3136 H   0  0  0  0  0  0  0  0  0  0  0  0
  147.3533  133.2993  151.1533 H   0  0  0  0  0  0  0  0  0  0  0  0
  145.2350  131.9076  151.1584 H   0  0  0  0  0  0  0  0  0  0  0  0
  145.7538  132.2921  152.7885 H   0  0  0  0  0  0  0  0  0  0  0  0
  146.9028  134.5959  153.0701 H   0  0  0  0  0  0  0  0  0  0  0  0
  1  2  1  0  0  0  0
  1 16  1  0  0  0  0
  1 17  1  0  0  0  0
  1 18  1  0  0  0  0
  2  3  1  0  0  0  0
  2 19  1  0  0  0  0
  2 20  1  0  0  0  0
  3  4  1  0  0  0  0
  3 21  1  0  0  0  0
  3 22  1  0  0  0  0
  4 14  1  0  0  0  0
  4  5  2  0  0  0  0
  5  6  1  0  0  0  0
  6 15  1  0  0  0  0
  6  7  1  0  0  0  0
  7  8  1  0  0  0  0
  7 14  2  0  0  0  0
  8 13  1  0  0  0  0
  8  9  1  0  0  0  0
  8 23  1  0  0  0  0
  9 10  1  0  0  0  0
  9 24  1  0  0  0  0
  9 25  1  0  0  0  0
 10 11  1  0  0  0  0
 10 26  1  0  0  0  0
 10 31  1  0  0  0  0
 11 12  1  0  0  0  0
 11 27  1  0  0  0  0
 11 28  1  0  0  0  0
 12 13  1  0  0  0  0
 12 29  1  0  0  0  0
 12 30  1  0  0  0  0
M  CHG  1  10   1
M  END
> <s_m_source_file>
AV-unprocessed.smi

> <i_m_source_file_index>
2562

> <i_lp_mmshare_version>
43012

> <i_f3d_flags>
0

> <s_epik_input>
W0NIM11bQ0gyXVtDSDJdYzFuW25IXWMobjEpW0NAQEhdMltDSDJdW05IXVtDSDJdW0NIMl1PMg==

> <s_epik_cmdline>
J2VwaWtfcHl0aG9uJywgJy1waCcsICc3LjAnLCAnLXRuJywgJzgnLCAnLW1hJywgJzIwMCcsICctbWV0YWxfYmluZGluZycsICctaW1hZScsICc8aW5maWxlLm1hZT4nLCAnLW9tYWUnLCAnPG91dGZpbGUubWFlPic=

> <r_epik_Ionization_Penalty>
0.162344

> <r_epik_Ionization_Penalty_Charging>
0.125708

> <r_epik_Ionization_Penalty_Neutral>
0.0366364

> <r_epik_State_Penalty>
0.771409

> <r_epik_Charging_Adjusted_Penalty>
0.897117

> <i_epik_Tot_Q>
1

> <i_epik_Tot_abs_Q>
1

> <r_epik_Metal_State_Penalty>
0.893868

> <b_epik_Metal_Only>
0

> <s_lp_Force_Field>
OPLS_2005

> <r_lp_Energy>
9.76643

> <b_lp_Chiralities_Consistent>
1

> <s_lp_Variant>
AV-unprocessed.smi:2562-3

> <Gold.Version>
5.8.1

> <Gold.Id.Protein>
6NUR|6NUR_protein|mol2

> <Gold.PLP.Fitness>
36.3149

> <Gold.PLP.PLP>
-24.9019

> <Gold.PLP.part.hbond>
-4.0541

> <Gold.PLP.part.metal>
0.0000

> <Gold.PLP.part.buried>
-6.5509

> <Gold.PLP.part.nonpolar>
-14.8463

> <Gold.PLP.part.repulsive>
0.5735

> <Gold.PLP.ligand.clash>
0.0000

> <Gold.PLP.ligand.torsion>
0.0089

> <Gold.PLP.Chemscore.Hbond>
3.8073

> <Gold.PLP.Chemscore.CHOScore>
0.0000

> <Gold.PLP.Chemscore.Metal>
0.0000

> <Gold.Chemscore.Hbonds>
donor molecule, donor type, donor heavy atom, donor atom, acceptor molecule, acceptor atom, score
      L1  H     6    15       P1 10957  1.00
      L1  H    10    26       P1  7948  1.60
      P1  H 11000 11005       L1     5  0.96

> <Gold.PLP.Chemscore.Internal.Correction>
0.0090

> <Gold.Rescore>
     Score         DG    S(hbond)    S(metal)    S(lipo)     H(rot)  DE(clash)    DE(int)     intcor
     14.63     -14.66       2.61        0.00      37.14       1.51       0.00       0.02       ----

> <Gold.Chemscore.Fitness>
14.6343

> <Gold.Chemscore.DG>
-14.6569

> <Gold.Chemscore.ZeroCoef>
-5.4800

> <Gold.Chemscore.Hbond>
2.6050

> <Gold.Chemscore.Metal>
0.0000

> <Gold.Chemscore.Lipo>
37.1409

> <Gold.Chemscore.Internal_Hbond>
0.0000

> <Gold.Chemscore.DEClash>
0.0000

> <Gold.Chemscore.DEInternal>
0.0225

> <Gold.Chemscore.Rot>
1.5115

> <Gold.Chemscore.Internal.Correction>
   9.000000E+99

> <Gold.Chemscore.Hbonds>
donor molecule, donor type, donor heavy atom, donor atom, acceptor molecule, acceptor atom, score
      L1  H     6    15       P1 10957  0.99
      L1  H    10    26       P1  7948  0.79
      P1  H 11000 11005       L1     5  0.26

> <Gold.Chemscore.Hbond.Weighted>
-8.7008

> <Gold.Chemscore.Metal.Weighted>
-0.0000

> <Gold.Chemscore.Lipo.Weighted>
-4.3455

> <Gold.Chemscore.Internal_Hbond.Weighted>
0.0000

> <Gold.Chemscore.DEClash.Weighted>
0.0000

> <Gold.Chemscore.DEInternal.Weighted>
0.0225

> <Gold.Chemscore.Rot.Weighted>
3.8695

> <Gold.Chemscore.Internal.Correction.Weighted>
   9.000000E+99

> <Gold.Protein.RotatedTorsions>
[ 6907 6896 6895 6894 ] final  -18.60 input  -60.11 | X-H torsion
[ 7974 7965 7964 7962 ] final   41.98 input  175.53 | X-H torsion
[ 8008 7997 7996 7995 ] final  148.27 input   59.86 | X-H torsion
[ 10167 10162 10161 10158 ] final -173.61 input  -65.29 | X-H torsion
[ 10718 10713 10712 10709 ] final   23.84 input   66.30 | X-H torsion
[ 10763 10752 10751 10750 ] final -174.09 input  -60.55 | X-H torsion
[ 11005 11000 10999 10996 ] final   46.15 input  -57.11 | X-H torsion

> <Gold.Protein.ActiveResidues>
 VAL166  LYS551  ARG553  GLY616  TRP617  ASP618  TYR619  PRO620  LYS621  CYS622 
 ASP623  PHE694  ASN695  SER759  ASP760  ASP761  ALA762  ILE779  LEU786  VAL792 
 PHE793  MET794  SER795  GLU796  ALA797  LYS798  CYS799  TRP800  GLU811  SER814 

> <Gold.Protein.RotatedAtoms>
  151.2758  135.0698  159.9150 H   0  0  0  0  0  0  0  0  0  0  0  0  # atno 6907 bound_to 6896
  152.5343  134.0083  159.7937 H   0  0  0  0  0  0  0  0  0  0  0  0  # atno 6908 bound_to 6896
  151.0328  133.5724  159.2690 H   0  0  0  0  0  0  0  0  0  0  0  0  # atno 6909 bound_to 6896
  146.0779  139.5353  142.9556 H   0  0  0  0  0  0  0  0  0  0  0  0  # atno 7974 bound_to 7965
  156.2797  140.2133  156.5671 H   0  0  0  0  0  0  0  0  0  0  0  0  # atno 8008 bound_to 7997
  154.7166  140.0507  157.0623 H   0  0  0  0  0  0  0  0  0  0  0  0  # atno 8009 bound_to 7997
  155.0534  140.3158  155.4687 H   0  0  0  0  0  0  0  0  0  0  0  0  # atno 8010 bound_to 7997
  139.5679  144.1712  152.1340 H   0  0  0  0  0  0  0  0  0  0  0  0  # atno 10167 bound_to 10162
  157.1715  130.6762  149.6080 H   0  0  0  0  0  0  0  0  0  0  0  0  # atno 10718 bound_to 10713
  154.6003  135.2854  155.0542 H   0  0  0  0  0  0  0  0  0  0  0  0  # atno 10763 bound_to 10752
  154.1809  135.6457  153.5038 H   0  0  0  0  0  0  0  0  0  0  0  0  # atno 10764 bound_to 10752
  153.0154  135.5423  154.6720 H   0  0  0  0  0  0  0  0  0  0  0  0  # atno 10765 bound_to 10752
  140.1395  134.4602  155.8460 H   0  0  0  0  0  0  0  0  0  0  0  0  # atno 11005 bound_to 11000
  145.6272  141.0311  143.1882 LP  0  0  0  0  0  0  0  0  0  0  0  0  # atno 17320 bound_to 7965
  144.7273  139.7834  143.7360 LP  0  0  0  0  0  0  0  0  0  0  0  0  # atno 17321 bound_to 7965
  140.1239  144.5349  150.6845 LP  0  0  0  0  0  0  0  0  0  0  0  0  # atno 17342 bound_to 10162
  140.6963  143.2406  151.4992 LP  0  0  0  0  0  0  0  0  0  0  0  0  # atno 17343 bound_to 10162
  155.9737  130.4677  150.6334 LP  0  0  0  0  0  0  0  0  0  0  0  0  # atno 17370 bound_to 10713
  157.4038  131.0814  151.1284 LP  0  0  0  0  0  0  0  0  0  0  0  0  # atno 17371 bound_to 10713
  141.2183  133.6827  156.7220 LP  0  0  0  0  0  0  0  0  0  0  0  0  # atno 17394 bound_to 11000
  140.2740  134.8369  157.3873 LP  0  0  0  0  0  0  0  0  0  0  0  0  # atno 17395 bound_to 11000

$$$$
