AV-unprocessed.smi:3011|AV-procd|sdf|11458|dock3
  -GOLD-   2272016393D 1   1.00000     0.00000
 Structure written by MMmdl.
 46 48  0  0  0  0  0  0  0  0  1 V2000
  142.1791  134.3595  152.5682 C   0  0  0  0  0  0  0  0  0  0  0  0
  143.5684  134.0660  152.5725 O   0  0  0  0  0  0  0  0  0  0  0  0
  144.1054  133.4185  151.4792 C   0  0  0  0  0  0  0  0  0  0  0  0
  143.4394  133.3015  150.2328 C   0  0  0  0  0  0  0  0  0  0  0  0
  144.0515  132.6371  149.1548 C   0  0  0  0  0  0  0  0  0  0  0  0
  145.3341  132.0846  149.3080 C   0  0  0  0  0  0  0  0  0  0  0  0
  146.0042  132.1946  150.5397 C   0  0  0  0  0  0  0  0  0  0  0  0
  145.3955  132.8596  151.6344 C   0  0  0  0  0  0  0  0  0  0  0  0
  145.9921  132.9955  152.8708 O   0  0  0  0  0  0  0  0  0  0  0  0
  147.3122  132.4991  153.0424 C   0  0  0  0  0  0  0  0  0  0  0  0
  147.3517  131.5283  154.2308 C   0  0  0  0  0  0  0  0  0  0  0  0
  148.1521  130.3424  153.9547 N   0  0  0  0  0  0  0  0  0  0  0  0
  149.2958  129.9133  154.5532 C   0  0  0  0  0  0  0  0  0  0  0  0
  149.9586  130.6474  155.6916 C   0  0  1  0  0  0  0  0  0  0  0  0
  150.3092  132.0954  155.3197 C   0  0  0  0  0  0  0  0  0  0  0  0
  149.0587  130.6244  156.8394 N   0  0  0  0  0  0  0  0  0  0  0  0
  149.2846  131.2773  157.9858 C   0  0  0  0  0  0  0  0  0  0  0  0
  150.2826  131.9658  158.1820 O   0  0  0  0  0  0  0  0  0  0  0  0
  149.8267  128.7989  154.0426 N   0  0  0  0  0  0  0  0  0  0  0  0
  148.9321  128.4551  153.0506 C   0  0  0  0  0  0  0  0  0  0  0  0
  148.9296  127.3616  152.1555 C   0  0  0  0  0  0  0  0  0  0  0  0
  147.8913  127.2137  151.2125 C   0  0  0  0  0  0  0  0  0  0  0  0
  146.8445  128.1558  151.1512 C   0  0  0  0  0  0  0  0  0  0  0  0
  146.8303  129.2540  152.0326 C   0  0  0  0  0  0  0  0  0  0  0  0
  147.8694  129.3973  152.9723 C   0  0  0  0  0  0  0  0  0  0  0  0
  141.9145  134.8545  153.5023 H   0  0  0  0  0  0  0  0  0  0  0  0
  141.5798  133.4510  152.4964 H   0  0  0  0  0  0  0  0  0  0  0  0
  141.9163  135.0337  151.7522 H   0  0  0  0  0  0  0  0  0  0  0  0
  142.4554  133.7163  150.0756 H   0  0  0  0  0  0  0  0  0  0  0  0
  143.5367  132.5536  148.2090 H   0  0  0  0  0  0  0  0  0  0  0  0
  145.8051  131.5747  148.4805 H   0  0  0  0  0  0  0  0  0  0  0  0
  146.9862  131.7547  150.6192 H   0  0  0  0  0  0  0  0  0  0  0  0
  147.6514  131.9855  152.1418 H   0  0  0  0  0  0  0  0  0  0  0  0
  147.9942  133.3289  153.2339 H   0  0  0  0  0  0  0  0  0  0  0  0
  147.7872  132.0349  155.0924 H   0  0  0  0  0  0  0  0  0  0  0  0
  146.3480  131.2398  154.5407 H   0  0  0  0  0  0  0  0  0  0  0  0
  150.8902  130.1576  155.9703 H   0  0  0  0  0  0  0  0  0  0  0  0
  150.9664  132.1259  154.4503 H   0  0  0  0  0  0  0  0  0  0  0  0
  150.8201  132.5987  156.1408 H   0  0  0  0  0  0  0  0  0  0  0  0
  149.4179  132.6757  155.0789 H   0  0  0  0  0  0  0  0  0  0  0  0
  148.2207  130.0670  156.7596 H   0  0  0  0  0  0  0  0  0  0  0  0
  148.4749  131.1197  158.7151 H   0  0  0  0  0  0  0  0  0  0  0  0
  149.7277  126.6351  152.1954 H   0  0  0  0  0  0  0  0  0  0  0  0
  147.8984  126.3739  150.5333 H   0  0  0  0  0  0  0  0  0  0  0  0
  146.0525  128.0354  150.4267 H   0  0  0  0  0  0  0  0  0  0  0  0
  146.0291  129.9764  151.9868 H   0  0  0  0  0  0  0  0  0  0  0  0
  1  2  1  0  0  0  0
  1 26  1  0  0  0  0
  1 27  1  0  0  0  0
  1 28  1  0  0  0  0
  2  3  1  0  0  0  0
  3  8  1  0  0  0  0
  3  4  2  0  0  0  0
  4  5  1  0  0  0  0
  4 29  1  0  0  0  0
  5  6  2  0  0  0  0
  5 30  1  0  0  0  0
  6  7  1  0  0  0  0
  6 31  1  0  0  0  0
  7  8  2  0  0  0  0
  7 32  1  0  0  0  0
  8  9  1  0  0  0  0
  9 10  1  0  0  0  0
 10 11  1  0  0  0  0
 10 33  1  0  0  0  0
 10 34  1  0  0  0  0
 11 12  1  0  0  0  0
 11 35  1  0  0  0  0
 11 36  1  0  0  0  0
 12 25  1  0  0  0  0
 12 13  1  0  0  0  0
 13 14  1  0  0  0  0
 13 19  2  0  0  0  0
 14 15  1  0  0  0  0
 14 16  1  0  0  0  0
 14 37  1  0  0  0  0
 15 38  1  0  0  0  0
 15 39  1  0  0  0  0
 15 40  1  0  0  0  0
 16 17  1  0  0  0  0
 16 41  1  0  0  0  0
 17 18  2  0  0  0  0
 17 42  1  0  0  0  0
 19 20  1  0  0  0  0
 20 25  2  0  0  0  0
 20 21  1  0  0  0  0
 21 22  2  0  0  0  0
 21 43  1  0  0  0  0
 22 23  1  0  0  0  0
 22 44  1  0  0  0  0
 23 24  2  0  0  0  0
 23 45  1  0  0  0  0
 24 25  1  0  0  0  0
 24 46  1  0  0  0  0
M  END
> <s_m_source_file>
AV-unprocessed.smi

> <i_m_source_file_index>
3011

> <i_lp_mmshare_version>
43012

> <i_f3d_flags>
0

> <s_epik_input>
W0NIM11PYzFbY0hdW2NIXVtjSF1bY0hdYzFPW0NIMl1bQ0gyXW4oYyhuMilbQ0BIXShbQ0gzXSlbTkhdW0NIXT1PKWMoYzIzKVtjSF1bY0hdW2NIXVtjSF0z

> <s_epik_cmdline>
J2VwaWtfcHl0aG9uJywgJy1waCcsICc3LjAnLCAnLXRuJywgJzgnLCAnLW1hJywgJzIwMCcsICctbWV0YWxfYmluZGluZycsICctaW1hZScsICc8aW5maWxlLm1hZT4nLCAnLW9tYWUnLCAnPG91dGZpbGUubWFlPic=

> <r_lp_tautomer_probability>
1

> <r_epik_Ionization_Penalty>
0.0924205

> <r_epik_Ionization_Penalty_Charging>
0

> <r_epik_Ionization_Penalty_Neutral>
0.0924205

> <r_epik_State_Penalty>
0.0827154

> <r_epik_Charging_Adjusted_Penalty>
0.0827154

> <i_epik_Tot_Q>
0

> <i_epik_Tot_abs_Q>
0

> <r_epik_Metal_State_Penalty>
0.071464

> <b_epik_Metal_Only>
0

> <s_lp_Force_Field>
OPLS_2005

> <r_lp_Energy>
16.1318

> <b_lp_Chiralities_Consistent>
1

> <s_lp_Variant>
AV-unprocessed.smi:3011-2

> <Gold.Version>
5.8.1

> <Gold.Id.Protein>
6NUR|6NUR_protein|mol2

> <Gold.PLP.Fitness>
45.2857

> <Gold.PLP.PLP>
-44.0450

> <Gold.PLP.part.hbond>
-1.0000

> <Gold.PLP.part.metal>
0.0000

> <Gold.PLP.part.buried>
-1.3928

> <Gold.PLP.part.nonpolar>
-40.7439

> <Gold.PLP.part.repulsive>
0.3711

> <Gold.PLP.ligand.clash>
0.0000

> <Gold.PLP.ligand.torsion>
0.9444

> <Gold.PLP.Chemscore.Hbond>
1.0000

> <Gold.PLP.Chemscore.CHOScore>
0.0000

> <Gold.PLP.Chemscore.Metal>
0.0000

> <Gold.Chemscore.Hbonds>
donor molecule, donor type, donor heavy atom, donor atom, acceptor molecule, acceptor atom, score
      P1  H  6896  6907       L1    18  0.87

> <Gold.PLP.Chemscore.Internal.Correction>
0.1295

> <Gold.Rescore>
     Score         DG    S(hbond)    S(metal)    S(lipo)     H(rot)  DE(clash)    DE(int)     intcor
     14.38     -17.52       0.97        0.00     131.75       2.59       0.97       2.16       ----

> <Gold.Chemscore.Fitness>
14.3786

> <Gold.Chemscore.DG>
-17.5156

> <Gold.Chemscore.ZeroCoef>
-5.4800

> <Gold.Chemscore.Hbond>
0.9743

> <Gold.Chemscore.Metal>
0.0000

> <Gold.Chemscore.Lipo>
131.7547

> <Gold.Chemscore.Internal_Hbond>
0.0000

> <Gold.Chemscore.DEClash>
0.9747

> <Gold.Chemscore.DEInternal>
2.1623

> <Gold.Chemscore.Rot>
2.5914

> <Gold.Chemscore.Internal.Correction>
   9.000000E+99

> <Gold.Chemscore.Hbonds>
donor molecule, donor type, donor heavy atom, donor atom, acceptor molecule, acceptor atom, score
      P1  H  6896  6907       L1    18  0.80

> <Gold.Chemscore.Hbond.Weighted>
-3.2543

> <Gold.Chemscore.Metal.Weighted>
-0.0000

> <Gold.Chemscore.Lipo.Weighted>
-15.4153

> <Gold.Chemscore.Internal_Hbond.Weighted>
0.0000

> <Gold.Chemscore.DEClash.Weighted>
0.9747

> <Gold.Chemscore.DEInternal.Weighted>
2.1623

> <Gold.Chemscore.Rot.Weighted>
6.6340

> <Gold.Chemscore.Internal.Correction.Weighted>
   9.000000E+99

> <Gold.Protein.RotatedTorsions>
[ 6907 6896 6895 6894 ] final -169.33 input  -60.11 | X-H torsion
[ 7974 7965 7964 7962 ] final -131.95 input  175.53 | X-H torsion
[ 8008 7997 7996 7995 ] final  -22.27 input   59.86 | X-H torsion
[ 10167 10162 10161 10158 ] final   77.36 input  -65.29 | X-H torsion
[ 10718 10713 10712 10709 ] final  117.27 input   66.30 | X-H torsion
[ 10763 10752 10751 10750 ] final -137.26 input  -60.55 | X-H torsion
[ 11005 11000 10999 10996 ] final -166.56 input  -57.11 | X-H torsion

> <Gold.Protein.ActiveResidues>
 VAL166  LYS551  ARG553  GLY616  TRP617  ASP618  TYR619  PRO620  LYS621  CYS622 
 ASP623  PHE694  ASN695  SER759  ASP760  ASP761  ALA762  ILE779  LEU786  VAL792 
 PHE793  MET794  SER795  GLU796  ALA797  LYS798  CYS799  TRP800  GLU811  SER814 

> <Gold.Protein.RotatedAtoms>
  151.4899  133.3527  159.2851 H   0  0  0  0  0  0  0  0  0  0  0  0  # atno 6907 bound_to 6896
  150.8842  134.8239  159.7257 H   0  0  0  0  0  0  0  0  0  0  0  0  # atno 6908 bound_to 6896
  152.4782  134.4800  159.9714 H   0  0  0  0  0  0  0  0  0  0  0  0  # atno 6909 bound_to 6896
  144.9331  140.7151  143.4894 H   0  0  0  0  0  0  0  0  0  0  0  0  # atno 7974 bound_to 7965
  154.4654  140.2012  156.0132 H   0  0  0  0  0  0  0  0  0  0  0  0  # atno 8008 bound_to 7997
  156.0917  140.3257  155.7796 H   0  0  0  0  0  0  0  0  0  0  0  0  # atno 8009 bound_to 7997
  155.4945  140.0549  157.2939 H   0  0  0  0  0  0  0  0  0  0  0  0  # atno 8010 bound_to 7997
  139.9824  144.5817  150.7889 H   0  0  0  0  0  0  0  0  0  0  0  0  # atno 10167 bound_to 10162
  157.6107  131.1035  150.7590 H   0  0  0  0  0  0  0  0  0  0  0  0  # atno 10718 bound_to 10713
  154.8666  135.3648  154.5193 H   0  0  0  0  0  0  0  0  0  0  0  0  # atno 10763 bound_to 10752
  153.5824  135.7018  153.5462 H   0  0  0  0  0  0  0  0  0  0  0  0  # atno 10764 bound_to 10752
  153.3445  135.4089  155.1560 H   0  0  0  0  0  0  0  0  0  0  0  0  # atno 10765 bound_to 10752
  140.5631  134.5313  157.5147 H   0  0  0  0  0  0  0  0  0  0  0  0  # atno 11005 bound_to 11000
  145.3111  139.1818  143.4638 LP  0  0  0  0  0  0  0  0  0  0  0  0  # atno 17320 bound_to 7965
  146.3255  140.3115  142.8627 LP  0  0  0  0  0  0  0  0  0  0  0  0  # atno 17321 bound_to 7965
  140.7484  143.2922  151.3300 LP  0  0  0  0  0  0  0  0  0  0  0  0  # atno 17342 bound_to 10162
  139.6400  144.0557  152.2547 LP  0  0  0  0  0  0  0  0  0  0  0  0  # atno 17343 bound_to 10162
  156.7968  130.4908  149.5376 LP  0  0  0  0  0  0  0  0  0  0  0  0  # atno 17370 bound_to 10713
  156.1209  130.6109  151.0192 LP  0  0  0  0  0  0  0  0  0  0  0  0  # atno 17371 bound_to 10713
  139.9398  134.7808  156.0708 LP  0  0  0  0  0  0  0  0  0  0  0  0  # atno 17394 bound_to 11000
  141.1102  133.6646  156.2961 LP  0  0  0  0  0  0  0  0  0  0  0  0  # atno 17395 bound_to 11000

$$$$
