AV-unprocessed.smi:69|AV-procd|sdf|657|dock8
  -GOLD-   2262016563D 1   1.00000     0.00000
 Structure written by MMmdl.
 32 34  0  0  0  0  0  0  0  0  1 V2000
  146.5359  131.0741  149.1060 N   0  0  0  0  0  0  0  0  0  0  0  0
  145.6548  131.8582  149.7423 C   0  0  0  0  0  0  0  0  0  0  0  0
  144.3525  131.7870  149.3812 N   0  0  0  0  0  0  0  0  0  0  0  0
  143.4554  132.5618  149.9995 C   0  0  0  0  0  0  0  0  0  0  0  0
  143.6518  133.4498  150.9772 N   0  0  0  0  0  0  0  0  0  0  0  0
  144.9656  133.5207  151.3417 C   0  0  0  0  0  0  0  0  0  0  0  0
  146.0243  132.7596  150.7724 C   0  0  0  0  0  0  0  0  0  0  0  0
  147.2268  133.0910  151.3812 N   0  0  0  0  0  0  0  0  0  0  0  0
  146.8937  133.9990  152.2585 C   0  0  0  0  0  0  0  0  0  0  0  0
  145.5549  134.3231  152.3003 N   0  0  0  0  0  0  0  0  0  0  0  0
  144.8950  135.3308  153.1950 C   0  0  2  0  0  0  0  0  0  0  0  0
  143.6128  134.8883  153.5335 O   0  0  0  0  0  0  0  0  0  0  0  0
  142.6254  135.8247  153.1010 C   0  0  1  0  0  0  0  0  0  0  0  0
  141.4421  135.8218  154.0812 C   0  0  0  0  0  0  0  0  0  0  0  0
  140.4699  134.8851  153.6688 O   0  0  0  0  0  0  0  0  0  0  0  0
  143.3944  137.1473  153.0768 C   0  0  2  0  0  0  0  0  0  0  0  0
  142.7730  138.1405  152.2828 O   0  0  0  0  0  0  0  0  0  0  0  0
  144.7578  136.7236  152.5497 C   0  0  2  0  0  0  0  0  0  0  0  0
  144.8178  136.7064  151.1316 O   0  0  0  0  0  0  0  0  0  0  0  0
  145.5069  135.3429  154.0980 H   0  0  0  0  0  0  0  0  0  0  0  0
  142.2992  135.5765  152.0898 H   0  0  0  0  0  0  0  0  0  0  0  0
  143.5079  137.5246  154.0944 H   0  0  0  0  0  0  0  0  0  0  0  0
  145.5523  137.3748  152.9153 H   0  0  0  0  0  0  0  0  0  0  0  0
  147.5135  131.1115  149.3565 H   0  0  0  0  0  0  0  0  0  0  0  0
  146.2206  130.4485  148.3790 H   0  0  0  0  0  0  0  0  0  0  0  0
  142.4343  132.4564  149.6633 H   0  0  0  0  0  0  0  0  0  0  0  0
  147.6243  134.4658  152.9029 H   0  0  0  0  0  0  0  0  0  0  0  0
  141.7695  135.6076  155.0990 H   0  0  0  0  0  0  0  0  0  0  0  0
  140.9644  136.8019  154.0945 H   0  0  0  0  0  0  0  0  0  0  0  0
  140.0620  134.5169  154.4375 H   0  0  0  0  0  0  0  0  0  0  0  0
  143.2796  138.2541  151.4934 H   0  0  0  0  0  0  0  0  0  0  0  0
  144.4897  137.5312  150.8074 H   0  0  0  0  0  0  0  0  0  0  0  0
  1  2  1  0  0  0  0
  1 24  1  0  0  0  0
  1 25  1  0  0  0  0
  2  7  1  0  0  0  0
  2  3  2  0  0  0  0
  3  4  1  0  0  0  0
  4  5  2  0  0  0  0
  4 26  1  0  0  0  0
  5  6  1  0  0  0  0
  6 10  1  0  0  0  0
  6  7  2  0  0  0  0
  7  8  1  0  0  0  0
  8  9  2  0  0  0  0
  9 10  1  0  0  0  0
  9 27  1  0  0  0  0
 10 11  1  0  0  0  0
 11 20  1  0  0  0  0
 11 18  1  0  0  0  0
 11 12  1  0  0  0  0
 12 13  1  0  0  0  0
 13 21  1  0  0  0  0
 13 14  1  0  0  0  0
 13 16  1  0  0  0  0
 14 15  1  0  0  0  0
 14 28  1  0  0  0  0
 14 29  1  0  0  0  0
 15 30  1  0  0  0  0
 16 22  1  0  0  0  0
 16 17  1  0  0  0  0
 16 18  1  0  0  0  0
 17 31  1  0  0  0  0
 18 23  1  0  0  0  0
 18 19  1  0  0  0  0
 19 32  1  0  0  0  0
M  END
> <s_m_source_file>
AV-unprocessed.smi

> <i_m_source_file_index>
69

> <i_lp_mmshare_version>
43012

> <i_f3d_flags>
0

> <s_epik_input>
bjFbY0hdbmMoW05IMl0pYyhjMTIpbltjSF1uMltDQEBIXTNPW0NASF0oW0NIMl1bT0hdKVtDQEBIXShbT0hdKVtDQEhdM1tPSF0=

> <s_epik_cmdline>
J2VwaWtfcHl0aG9uJywgJy1waCcsICc3LjAnLCAnLXRuJywgJzgnLCAnLW1hJywgJzIwMCcsICctbWV0YWxfYmluZGluZycsICctaW1hZScsICc8aW5maWxlLm1hZT4nLCAnLW9tYWUnLCAnPG91dGZpbGUubWFlPic=

> <r_lp_tautomer_probability>
1

> <r_epik_Ionization_Penalty>
0.000428445

> <r_epik_Ionization_Penalty_Charging>
0

> <r_epik_Ionization_Penalty_Neutral>
0.000428445

> <r_epik_State_Penalty>
-0

> <r_epik_Charging_Adjusted_Penalty>
0

> <i_epik_Tot_Q>
0

> <i_epik_Tot_abs_Q>
0

> <r_epik_Metal_State_Penalty>
-0

> <b_epik_Metal_Only>
0

> <s_epik_Chemistry_Notes>
This compound contains an acetal/aminal-like group ( X-CH(R)-Y where X, Y are N, S, or O) that may be acid/base labile, releasing an aldehyde.

> <s_lp_Force_Field>
OPLS_2005

> <r_lp_Energy>
44.883

> <b_lp_Chiralities_Consistent>
1

> <s_lp_Variant>
AV-unprocessed.smi:69-15

> <Gold.Version>
5.8.1

> <Gold.Id.Protein>
6NUR|6NUR_protein|mol2

> <Gold.PLP.Fitness>
42.9520

> <Gold.PLP.PLP>
-24.2753

> <Gold.PLP.part.hbond>
-6.7229

> <Gold.PLP.part.metal>
0.0000

> <Gold.PLP.part.buried>
-0.9227

> <Gold.PLP.part.nonpolar>
-19.6373

> <Gold.PLP.part.repulsive>
1.5937

> <Gold.PLP.ligand.clash>
0.0000

> <Gold.PLP.ligand.torsion>
1.0568

> <Gold.PLP.Chemscore.Hbond>
4.4862

> <Gold.PLP.Chemscore.CHOScore>
2.4413

> <Gold.PLP.Chemscore.Metal>
0.0000

> <Gold.Chemscore.Hbonds>
donor molecule, donor type, donor heavy atom, donor atom, acceptor molecule, acceptor atom, score
      L1  H     1    24       P1 10747  1.00
      L1  H    15    30       P1 11000  0.41
      L1  H    17    31       P1 10171  1.00
      L1  H    19    32       P1 10171  1.00
      P1  H 10785 10796       L1     3  0.45
      L1  C     4    26       P1 10186  0.80
      L1  C     4    26       P1 10952  0.71
      L1  C     9    27       P1  7948  0.69

> <Gold.PLP.Chemscore.Internal.Correction>
0.0080

> <Gold.Rescore>
     Score         DG    S(hbond)    S(metal)    S(lipo)     H(rot)  DE(clash)    DE(int)     intcor
      6.60      -9.92       3.59        0.00      23.50       4.03       1.08       2.24       ----

> <Gold.Chemscore.Fitness>
6.5957

> <Gold.Chemscore.DG>
-9.9169

> <Gold.Chemscore.ZeroCoef>
-5.4800

> <Gold.Chemscore.Hbond>
3.5922

> <Gold.Chemscore.Metal>
0.0000

> <Gold.Chemscore.Lipo>
23.5034

> <Gold.Chemscore.Internal_Hbond>
0.0000

> <Gold.Chemscore.DEClash>
1.0844

> <Gold.Chemscore.DEInternal>
2.2369

> <Gold.Chemscore.Rot>
4.0277

> <Gold.Chemscore.Internal.Correction>
   9.000000E+99

> <Gold.Chemscore.Hbonds>
donor molecule, donor type, donor heavy atom, donor atom, acceptor molecule, acceptor atom, score
      L1  H     1    24       P1 10747  1.00
      L1  H    15    30       P1 11000  0.15
      L1  H    17    31       P1 10171  0.50
      L1  H    19    32       P1 10171  0.97
      P1  H 10785 10796       L1     3  0.20

> <Gold.Chemscore.Hbond.Weighted>
-11.9980

> <Gold.Chemscore.Metal.Weighted>
-0.0000

> <Gold.Chemscore.Lipo.Weighted>
-2.7499

> <Gold.Chemscore.Internal_Hbond.Weighted>
0.0000

> <Gold.Chemscore.DEClash.Weighted>
1.0844

> <Gold.Chemscore.DEInternal.Weighted>
2.2369

> <Gold.Chemscore.Rot.Weighted>
10.3110

> <Gold.Chemscore.Internal.Correction.Weighted>
   9.000000E+99

> <Gold.Protein.RotatedTorsions>
[ 6907 6896 6895 6894 ] final  167.95 input  -60.11 | X-H torsion
[ 7974 7965 7964 7962 ] final    0.99 input  175.53 | X-H torsion
[ 8008 7997 7996 7995 ] final   38.12 input   59.86 | X-H torsion
[ 10167 10162 10161 10158 ] final  -69.09 input  -65.29 | X-H torsion
[ 10718 10713 10712 10709 ] final  -28.49 input   66.30 | X-H torsion
[ 10763 10752 10751 10750 ] final -127.28 input  -60.55 | X-H torsion
[ 11005 11000 10999 10996 ] final  153.06 input  -57.11 | X-H torsion

> <Gold.Protein.ActiveResidues>
 VAL166  LYS551  ARG553  GLY616  TRP617  ASP618  TYR619  PRO620  LYS621  CYS622 
 ASP623  PHE694  ASN695  SER759  ASP760  ASP761  ALA762  ILE779  LEU786  VAL792 
 PHE793  MET794  SER795  GLU796  ALA797  LYS798  CYS799  TRP800  GLU811  SER814 

> <Gold.Protein.RotatedAtoms>
  151.8552  133.3447  159.3685 H   0  0  0  0  0  0  0  0  0  0  0  0  # atno 6907 bound_to 6896
  150.7195  134.5260  159.5686 H   0  0  0  0  0  0  0  0  0  0  0  0  # atno 6908 bound_to 6896
  152.2762  134.7880  160.0456 H   0  0  0  0  0  0  0  0  0  0  0  0  # atno 6909 bound_to 6896
  146.2438  140.1054  142.8346 H   0  0  0  0  0  0  0  0  0  0  0  0  # atno 7974 bound_to 7965
  155.2150  140.3326  155.4323 H   0  0  0  0  0  0  0  0  0  0  0  0  # atno 8008 bound_to 7997
  156.2355  140.1870  156.7177 H   0  0  0  0  0  0  0  0  0  0  0  0  # atno 8009 bound_to 7997
  154.6053  140.0617  156.9408 H   0  0  0  0  0  0  0  0  0  0  0  0  # atno 8010 bound_to 7997
  140.5457  143.2313  151.7005 H   0  0  0  0  0  0  0  0  0  0  0  0  # atno 10167 bound_to 10162
  156.4246  130.4433  149.7159 H   0  0  0  0  0  0  0  0  0  0  0  0  # atno 10718 bound_to 10713
  154.8751  135.3967  154.3569 H   0  0  0  0  0  0  0  0  0  0  0  0  # atno 10763 bound_to 10752
  153.4347  135.7026  153.6213 H   0  0  0  0  0  0  0  0  0  0  0  0  # atno 10764 bound_to 10752
  153.4820  135.3767  155.2416 H   0  0  0  0  0  0  0  0  0  0  0  0  # atno 10765 bound_to 10752
  140.1364  134.8768  157.2272 H   0  0  0  0  0  0  0  0  0  0  0  0  # atno 11005 bound_to 11000
  145.0532  140.9033  143.4983 LP  0  0  0  0  0  0  0  0  0  0  0  0  # atno 17320 bound_to 7965
  145.1156  139.2728  143.5615 LP  0  0  0  0  0  0  0  0  0  0  0  0  # atno 17321 bound_to 7965
  139.5006  144.3898  152.0292 LP  0  0  0  0  0  0  0  0  0  0  0  0  # atno 17342 bound_to 10162
  140.3010  144.3646  150.6060 LP  0  0  0  0  0  0  0  0  0  0  0  0  # atno 17343 bound_to 10162
  156.4086  130.7711  151.2723 LP  0  0  0  0  0  0  0  0  0  0  0  0  # atno 17370 bound_to 10713
  157.7508  131.0218  150.3765 LP  0  0  0  0  0  0  0  0  0  0  0  0  # atno 17371 bound_to 10713
  140.2777  134.3386  155.7353 LP  0  0  0  0  0  0  0  0  0  0  0  0  # atno 17394 bound_to 11000
  141.2179  133.7460  156.9318 LP  0  0  0  0  0  0  0  0  0  0  0  0  # atno 17395 bound_to 11000

$$$$
