AV-unprocessed.smi:561|AV-procd|sdf|2939|dock3
  -GOLD-   2262023433D 1   1.00000     0.00000
 Structure written by MMmdl.
 36 37  0  0  0  0  0  0  0  0  1 V2000
  149.0665  138.0771  156.0792 C   0  0  0  0  0  0  0  0  0  0  0  0
  150.1694  138.9791  155.5058 C   0  0  1  0  0  0  0  0  0  0  0  0
  149.7748  139.5531  154.1317 C   0  0  0  0  0  0  0  0  0  0  0  0
  148.6147  140.4218  154.2130 N   0  0  0  0  0  0  0  0  0  0  0  0
  147.3212  140.1324  153.7999 C   0  0  0  0  0  0  0  0  0  0  0  0
  146.5657  141.2532  154.0603 C   0  0  0  0  0  0  0  0  0  0  0  0
  147.3683  142.2379  154.6321 N   0  0  0  0  0  0  0  0  0  0  0  0
  148.5669  141.6726  154.6926 C   0  0  0  0  0  0  0  0  0  0  0  0
  150.4538  140.0702  156.4345 N   0  0  0  0  0  0  0  0  0  0  0  0
  151.6215  140.2837  157.0674 C   0  0  0  0  0  0  0  0  0  0  0  0
  152.5840  139.5210  156.9789 O   0  0  0  0  0  0  0  0  0  0  0  0
  151.6932  141.5225  157.8870 C   0  0  0  0  0  0  0  0  0  0  0  0
  152.4013  141.5395  158.9729 N   0  0  0  0  0  0  0  0  0  0  0  0
  152.4845  142.6547  159.7804 N   0  0  0  0  0  0  0  0  0  0  0  0
  153.0880  142.3870  161.0855 C   0  0  0  0  0  0  0  0  0  0  0  0
  152.0710  143.8969  159.4190 C   0  0  0  0  0  0  0  0  0  0  0  0
  152.1220  144.8834  160.1532 O   0  0  0  0  0  0  0  0  0  0  0  0
  151.5398  144.0486  157.9903 C   0  0  0  0  0  0  0  0  0  0  0  0
  150.9080  142.7461  157.4614 C   0  0  0  0  0  0  0  0  0  0  0  0
  148.8537  137.2444  155.4081 H   0  0  0  0  0  0  0  0  0  0  0  0
  148.1385  138.6302  156.2282 H   0  0  0  0  0  0  0  0  0  0  0  0
  149.3617  137.6555  157.0406 H   0  0  0  0  0  0  0  0  0  0  0  0
  151.0682  138.3738  155.3724 H   0  0  0  0  0  0  0  0  0  0  0  0
  150.6000  140.1315  153.7143 H   0  0  0  0  0  0  0  0  0  0  0  0
  149.5649  138.7504  153.4231 H   0  0  0  0  0  0  0  0  0  0  0  0
  147.0541  139.1808  153.3640 H   0  0  0  0  0  0  0  0  0  0  0  0
  145.5146  141.4254  153.8809 H   0  0  0  0  0  0  0  0  0  0  0  0
  149.4328  142.1835  155.0884 H   0  0  0  0  0  0  0  0  0  0  0  0
  149.7184  140.7480  156.5750 H   0  0  0  0  0  0  0  0  0  0  0  0
  153.2297  143.2785  161.6977 H   0  0  0  0  0  0  0  0  0  0  0  0
  154.0669  141.9231  160.9588 H   0  0  0  0  0  0  0  0  0  0  0  0
  152.4609  141.6964  161.6507 H   0  0  0  0  0  0  0  0  0  0  0  0
  150.8201  144.8664  157.9414 H   0  0  0  0  0  0  0  0  0  0  0  0
  152.3808  144.3323  157.3566 H   0  0  0  0  0  0  0  0  0  0  0  0
  150.8498  142.8067  156.3740 H   0  0  0  0  0  0  0  0  0  0  0  0
  149.8820  142.6579  157.8204 H   0  0  0  0  0  0  0  0  0  0  0  0
  1  2  1  0  0  0  0
  1 20  1  0  0  0  0
  1 21  1  0  0  0  0
  1 22  1  0  0  0  0
  2  3  1  0  0  0  0
  2  9  1  0  0  0  0
  2 23  1  0  0  0  0
  3  4  1  0  0  0  0
  3 24  1  0  0  0  0
  3 25  1  0  0  0  0
  4  8  1  0  0  0  0
  4  5  1  0  0  0  0
  5  6  2  0  0  0  0
  5 26  1  0  0  0  0
  6  7  1  0  0  0  0
  6 27  1  0  0  0  0
  7  8  2  0  0  0  0
  8 28  1  0  0  0  0
  9 10  1  0  0  0  0
  9 29  1  0  0  0  0
 10 11  2  0  0  0  0
 10 12  1  0  0  0  0
 12 19  1  0  0  0  0
 12 13  2  0  0  0  0
 13 14  1  0  0  0  0
 14 15  1  0  0  0  0
 14 16  1  0  0  0  0
 15 30  1  0  0  0  0
 15 31  1  0  0  0  0
 15 32  1  0  0  0  0
 16 17  2  0  0  0  0
 16 18  1  0  0  0  0
 18 19  1  0  0  0  0
 18 33  1  0  0  0  0
 18 34  1  0  0  0  0
 19 35  1  0  0  0  0
 19 36  1  0  0  0  0
M  END
> <s_m_source_file>
AV-unprocessed.smi

> <i_m_source_file_index>
561

> <i_lp_mmshare_version>
43012

> <i_f3d_flags>
0

> <s_epik_input>
W2NIXTFuW2NIXVtjSF1uMVtDSDJdW0NAQEhdKFtDSDNdKVtOSF1DKD1PKUMyPU5OKFtDSDNdKUMoPU8pW0NIMl1bQ0gyXTI=

> <s_epik_cmdline>
J2VwaWtfcHl0aG9uJywgJy1waCcsICc3LjAnLCAnLXRuJywgJzgnLCAnLW1hJywgJzIwMCcsICctbWV0YWxfYmluZGluZycsICctaW1hZScsICc8aW5maWxlLm1hZT4nLCAnLW9tYWUnLCAnPG91dGZpbGUubWFlPic=

> <r_lp_tautomer_probability>
1

> <r_epik_Ionization_Penalty>
0.46798

> <r_epik_Ionization_Penalty_Charging>
0.467902

> <r_epik_Ionization_Penalty_Neutral>
7.78263e-05

> <r_epik_State_Penalty>
0.47192

> <r_epik_Charging_Adjusted_Penalty>
0.939822

> <i_epik_Tot_Q>
0

> <i_epik_Tot_abs_Q>
0

> <r_epik_Metal_State_Penalty>
0.280825

> <b_epik_Metal_Only>
0

> <s_epik_Chemistry_Notes>
This compound has an imine and may undergo hydrolysis.

> <s_lp_Force_Field>
OPLS_2005

> <r_lp_Energy>
18.7987

> <b_lp_Chiralities_Consistent>
1

> <s_lp_Variant>
AV-unprocessed.smi:561-4

> <Gold.Version>
5.8.1

> <Gold.Id.Protein>
6NUR|6NUR_protein|mol2

> <Gold.PLP.Fitness>
41.9690

> <Gold.PLP.PLP>
-35.6300

> <Gold.PLP.part.hbond>
-1.0000

> <Gold.PLP.part.metal>
0.0000

> <Gold.PLP.part.buried>
-0.5147

> <Gold.PLP.part.nonpolar>
-34.7374

> <Gold.PLP.part.repulsive>
1.0976

> <Gold.PLP.ligand.clash>
0.0000

> <Gold.PLP.ligand.torsion>
0.6278

> <Gold.PLP.Chemscore.Hbond>
1.0000

> <Gold.PLP.Chemscore.CHOScore>
1.5192

> <Gold.PLP.Chemscore.Metal>
0.0000

> <Gold.Chemscore.Hbonds>
donor molecule, donor type, donor heavy atom, donor atom, acceptor molecule, acceptor atom, score
      P1  H  7997  8009       L1    11  1.00
      L1  C     6    27       P1 10175  1.00
      L1  C     8    28       P1  8028  0.44

> <Gold.PLP.Chemscore.Internal.Correction>
0.0370

> <Gold.Rescore>
     Score         DG    S(hbond)    S(metal)    S(lipo)     H(rot)  DE(clash)    DE(int)     intcor
     11.24     -12.12       1.00        0.00      65.61       1.71       0.03       0.85       ----

> <Gold.Chemscore.Fitness>
11.2374

> <Gold.Chemscore.DG>
-12.1166

> <Gold.Chemscore.ZeroCoef>
-5.4800

> <Gold.Chemscore.Hbond>
0.9981

> <Gold.Chemscore.Metal>
0.0000

> <Gold.Chemscore.Lipo>
65.6147

> <Gold.Chemscore.Internal_Hbond>
0.0000

> <Gold.Chemscore.DEClash>
0.0251

> <Gold.Chemscore.DEInternal>
0.8541

> <Gold.Chemscore.Rot>
1.7086

> <Gold.Chemscore.Internal.Correction>
   9.000000E+99

> <Gold.Chemscore.Hbonds>
donor molecule, donor type, donor heavy atom, donor atom, acceptor molecule, acceptor atom, score
      P1  H  7997  8009       L1    11  0.94

> <Gold.Chemscore.Hbond.Weighted>
-3.3336

> <Gold.Chemscore.Metal.Weighted>
-0.0000

> <Gold.Chemscore.Lipo.Weighted>
-7.6769

> <Gold.Chemscore.Internal_Hbond.Weighted>
0.0000

> <Gold.Chemscore.DEClash.Weighted>
0.0251

> <Gold.Chemscore.DEInternal.Weighted>
0.8541

> <Gold.Chemscore.Rot.Weighted>
4.3739

> <Gold.Chemscore.Internal.Correction.Weighted>
   9.000000E+99

> <Gold.Protein.RotatedTorsions>
[ 6907 6896 6895 6894 ] final  169.17 input  -60.11 | X-H torsion
[ 7974 7965 7964 7962 ] final -107.13 input  175.53 | X-H torsion
[ 8008 7997 7996 7995 ] final -159.32 input   59.86 | X-H torsion
[ 10167 10162 10161 10158 ] final  -90.45 input  -65.29 | X-H torsion
[ 10718 10713 10712 10709 ] final  117.61 input   66.30 | X-H torsion
[ 10763 10752 10751 10750 ] final -148.24 input  -60.55 | X-H torsion
[ 11005 11000 10999 10996 ] final  153.78 input  -57.11 | X-H torsion

> <Gold.Protein.ActiveResidues>
 VAL166  LYS551  ARG553  GLY616  TRP617  ASP618  TYR619  PRO620  LYS621  CYS622 
 ASP623  PHE694  ASN695  SER759  ASP760  ASP761  ALA762  ILE779  LEU786  VAL792 
 PHE793  MET794  SER795  GLU796  ALA797  LYS798  CYS799  TRP800  GLU811  SER814 

> <Gold.Protein.RotatedAtoms>
  151.8361  133.3416  159.3628 H   0  0  0  0  0  0  0  0  0  0  0  0  # atno 6907 bound_to 6896
  150.7249  134.5436  159.5769 H   0  0  0  0  0  0  0  0  0  0  0  0  # atno 6908 bound_to 6896
  152.2899  134.7733  160.0431 H   0  0  0  0  0  0  0  0  0  0  0  0  # atno 6909 bound_to 6896
  145.2092  140.9089  143.3324 H   0  0  0  0  0  0  0  0  0  0  0  0  # atno 7974 bound_to 7965
  155.7608  140.0839  157.2156 H   0  0  0  0  0  0  0  0  0  0  0  0  # atno 8008 bound_to 7997
  154.4004  140.1543  156.2887 H   0  0  0  0  0  0  0  0  0  0  0  0  # atno 8009 bound_to 7997
  155.8841  140.3419  155.5912 H   0  0  0  0  0  0  0  0  0  0  0  0  # atno 8010 bound_to 7997
  140.3548  143.2872  151.9684 H   0  0  0  0  0  0  0  0  0  0  0  0  # atno 10167 bound_to 10162
  157.6085  131.1039  150.7639 H   0  0  0  0  0  0  0  0  0  0  0  0  # atno 10718 bound_to 10713
  154.8243  135.3339  154.6943 H   0  0  0  0  0  0  0  0  0  0  0  0  # atno 10763 bound_to 10752
  153.7571  135.6935  153.4937 H   0  0  0  0  0  0  0  0  0  0  0  0  # atno 10764 bound_to 10752
  153.2136  135.4473  155.0358 H   0  0  0  0  0  0  0  0  0  0  0  0  # atno 10765 bound_to 10752
  140.1428  134.8727  157.2354 H   0  0  0  0  0  0  0  0  0  0  0  0  # atno 11005 bound_to 11000
  144.9872  139.3724  143.6232 LP  0  0  0  0  0  0  0  0  0  0  0  0  # atno 17320 bound_to 7965
  146.3401  139.9039  142.8790 LP  0  0  0  0  0  0  0  0  0  0  0  0  # atno 17321 bound_to 7965
  139.4821  144.6044  151.7547 LP  0  0  0  0  0  0  0  0  0  0  0  0  # atno 17342 bound_to 10162
  140.5184  144.0917  150.6015 LP  0  0  0  0  0  0  0  0  0  0  0  0  # atno 17343 bound_to 10162
  156.8021  130.4924  149.5368 LP  0  0  0  0  0  0  0  0  0  0  0  0  # atno 17370 bound_to 10713
  156.1180  130.6089  151.0150 LP  0  0  0  0  0  0  0  0  0  0  0  0  # atno 17371 bound_to 10713
  140.2700  134.3471  155.7377 LP  0  0  0  0  0  0  0  0  0  0  0  0  # atno 17394 bound_to 11000
  141.2188  133.7418  156.9209 LP  0  0  0  0  0  0  0  0  0  0  0  0  # atno 17395 bound_to 11000

$$$$
