AV-unprocessed.smi:976|AV-procd|sdf|4302|dock6
  -GOLD-   22720 2213D 1   1.00000     0.00000
 Structure written by MMmdl.
 41 42  0  0  0  0  0  0  0  0  1 V2000
  146.6481  137.7302  158.4769 C   0  0  0  0  0  0  0  0  0  0  0  0
  147.4811  136.4490  158.3235 C   0  0  2  0  0  0  0  0  0  0  0  0
  147.4133  135.7420  159.5597 O   0  0  0  0  0  0  0  0  0  0  0  0
  147.8419  136.4682  160.7077 C   0  0  0  0  0  0  0  0  0  0  0  0
  147.3197  135.7748  161.9718 C   0  0  0  0  0  0  0  0  0  0  0  0
  145.9895  135.8480  161.9943 F   0  0  0  0  0  0  0  0  0  0  0  0
  147.6772  134.4909  161.9752 F   0  0  0  0  0  0  0  0  0  0  0  0
  147.7998  136.3768  163.0596 F   0  0  0  0  0  0  0  0  0  0  0  0
  148.9423  136.7699  157.9692 C   0  0  0  0  0  0  0  0  0  0  0  0
  149.8554  136.2789  158.6329 O   0  0  0  0  0  0  0  0  0  0  0  0
  149.1202  137.5961  156.9226 N   0  0  0  0  0  0  0  0  0  0  0  0
  150.3437  138.0705  156.3702 C   0  0  0  0  0  0  0  0  0  0  0  0
  151.6005  137.5355  156.7434 C   0  0  0  0  0  0  0  0  0  0  0  0
  152.7649  138.0178  156.1196 C   0  0  0  0  0  0  0  0  0  0  0  0
  152.6316  139.0118  155.1347 C   0  0  0  0  0  0  0  0  0  0  0  0
  151.4414  139.5211  154.7572 N   0  0  0  0  0  0  0  0  0  0  0  0
  150.3136  139.0648  155.3550 C   0  0  0  0  0  0  0  0  0  0  0  0
  149.0895  139.6344  154.9509 N   0  0  0  0  0  0  0  0  0  0  0  0
  149.2245  140.9811  154.4081 C   0  0  0  0  0  0  0  0  0  0  0  0
  147.8362  141.6218  154.2428 C   0  0  0  0  0  0  0  0  0  0  0  0
  147.0152  140.7862  153.4316 O   0  0  0  0  0  0  0  0  0  0  0  0
  146.8285  139.4954  154.0056 C   0  0  0  0  0  0  0  0  0  0  0  0
  148.1908  138.7980  154.1613 C   0  0  0  0  0  0  0  0  0  0  0  0
  146.6678  138.3275  157.5647 H   0  0  0  0  0  0  0  0  0  0  0  0
  147.0149  138.3527  159.2941 H   0  0  0  0  0  0  0  0  0  0  0  0
  145.6065  137.4897  158.6902 H   0  0  0  0  0  0  0  0  0  0  0  0
  147.0316  135.8425  157.5345 H   0  0  0  0  0  0  0  0  0  0  0  0
  148.9315  136.5119  160.7347 H   0  0  0  0  0  0  0  0  0  0  0  0
  147.4753  137.4950  160.6812 H   0  0  0  0  0  0  0  0  0  0  0  0
  148.2829  138.0035  156.5318 H   0  0  0  0  0  0  0  0  0  0  0  0
  151.6891  136.7520  157.4802 H   0  0  0  0  0  0  0  0  0  0  0  0
  153.7365  137.6276  156.3842 H   0  0  0  0  0  0  0  0  0  0  0  0
  153.5027  139.4047  154.6318 H   0  0  0  0  0  0  0  0  0  0  0  0
  149.8452  141.6028  155.0534 H   0  0  0  0  0  0  0  0  0  0  0  0
  149.7274  140.9263  153.4417 H   0  0  0  0  0  0  0  0  0  0  0  0
  147.3648  141.7815  155.2140 H   0  0  0  0  0  0  0  0  0  0  0  0
  147.9277  142.5987  153.7683 H   0  0  0  0  0  0  0  0  0  0  0  0
  146.3234  139.5832  154.9689 H   0  0  0  0  0  0  0  0  0  0  0  0
  146.1778  138.9091  153.3568 H   0  0  0  0  0  0  0  0  0  0  0  0
  148.6250  138.6169  153.1770 H   0  0  0  0  0  0  0  0  0  0  0  0
  148.0625  137.8291  154.6455 H   0  0  0  0  0  0  0  0  0  0  0  0
  1  2  1  0  0  0  0
  1 24  1  0  0  0  0
  1 25  1  0  0  0  0
  1 26  1  0  0  0  0
  2  3  1  0  0  0  0
  2  9  1  0  0  0  0
  2 27  1  0  0  0  0
  3  4  1  0  0  0  0
  4  5  1  0  0  0  0
  4 28  1  0  0  0  0
  4 29  1  0  0  0  0
  5  6  1  0  0  0  0
  5  7  1  0  0  0  0
  5  8  1  0  0  0  0
  9 10  2  0  0  0  0
  9 11  1  0  0  0  0
 11 12  1  0  0  0  0
 11 30  1  0  0  0  0
 12 17  1  0  0  0  0
 12 13  2  0  0  0  0
 13 14  1  0  0  0  0
 13 31  1  0  0  0  0
 14 15  2  0  0  0  0
 14 32  1  0  0  0  0
 15 16  1  0  0  0  0
 15 33  1  0  0  0  0
 16 17  2  0  0  0  0
 17 18  1  0  0  0  0
 18 23  1  0  0  0  0
 18 19  1  0  0  0  0
 19 20  1  0  0  0  0
 19 34  1  0  0  0  0
 19 35  1  0  0  0  0
 20 21  1  0  0  0  0
 20 36  1  0  0  0  0
 20 37  1  0  0  0  0
 21 22  1  0  0  0  0
 22 23  1  0  0  0  0
 22 38  1  0  0  0  0
 22 39  1  0  0  0  0
 23 40  1  0  0  0  0
 23 41  1  0  0  0  0
M  END
> <s_m_source_file>
AV-unprocessed.smi

> <i_m_source_file_index>
976

> <i_lp_mmshare_version>
43012

> <i_f3d_flags>
0

> <s_epik_input>
RkMoRikoRilbQ0gyXU9bQ0BASF0oW0NIM10pQyg9TylbTkhdYzFbY0hdW2NIXVtjSF1uYzFOMltDSDJdW0NIMl1PW0NIMl1bQ0gyXTI=

> <s_epik_cmdline>
J2VwaWtfcHl0aG9uJywgJy1waCcsICc3LjAnLCAnLXRuJywgJzgnLCAnLW1hJywgJzIwMCcsICctbWV0YWxfYmluZGluZycsICctaW1hZScsICc8aW5maWxlLm1hZT4nLCAnLW9tYWUnLCAnPG91dGZpbGUubWFlPic=

> <r_lp_tautomer_probability>
1

> <r_epik_Ionization_Penalty>
0.000443367

> <r_epik_Ionization_Penalty_Charging>
0

> <r_epik_Ionization_Penalty_Neutral>
0.000443367

> <r_epik_State_Penalty>
0.00027288

> <r_epik_Charging_Adjusted_Penalty>
0.00027288

> <i_epik_Tot_Q>
0

> <i_epik_Tot_abs_Q>
0

> <r_epik_Metal_State_Penalty>
-0

> <b_epik_Metal_Only>
0

> <s_lp_Force_Field>
OPLS_2005

> <r_lp_Energy>
26.1193

> <b_lp_Chiralities_Consistent>
1

> <s_lp_Variant>
AV-unprocessed.smi:976-1

> <Gold.Version>
5.8.1

> <Gold.Id.Protein>
6NUR|6NUR_protein|mol2

> <Gold.PLP.Fitness>
40.1824

> <Gold.PLP.PLP>
-35.4189

> <Gold.PLP.part.hbond>
-2.0000

> <Gold.PLP.part.metal>
0.0000

> <Gold.PLP.part.buried>
-6.5072

> <Gold.PLP.part.nonpolar>
-28.1533

> <Gold.PLP.part.repulsive>
0.3142

> <Gold.PLP.ligand.clash>
0.0000

> <Gold.PLP.ligand.torsion>
0.7506

> <Gold.PLP.Chemscore.Hbond>
1.9913

> <Gold.PLP.Chemscore.CHOScore>
0.0000

> <Gold.PLP.Chemscore.Metal>
0.0000

> <Gold.Chemscore.Hbonds>
donor molecule, donor type, donor heavy atom, donor atom, acceptor molecule, acceptor atom, score
      P1  H  6896  6907       L1    10  1.00
      P1  H  7989  7998       L1    16  1.00

> <Gold.PLP.Chemscore.Internal.Correction>
0.2908

> <Gold.Rescore>
     Score         DG    S(hbond)    S(metal)    S(lipo)     H(rot)  DE(clash)    DE(int)     intcor
     12.23     -14.42       1.92        0.00      64.15       1.95       0.06       2.14       ----

> <Gold.Chemscore.Fitness>
12.2275

> <Gold.Chemscore.DG>
-14.4242

> <Gold.Chemscore.ZeroCoef>
-5.4800

> <Gold.Chemscore.Hbond>
1.9246

> <Gold.Chemscore.Metal>
0.0000

> <Gold.Chemscore.Lipo>
64.1521

> <Gold.Chemscore.Internal_Hbond>
0.0000

> <Gold.Chemscore.DEClash>
0.0584

> <Gold.Chemscore.DEInternal>
2.1383

> <Gold.Chemscore.Rot>
1.9491

> <Gold.Chemscore.Internal.Correction>
   9.000000E+99

> <Gold.Chemscore.Hbonds>
donor molecule, donor type, donor heavy atom, donor atom, acceptor molecule, acceptor atom, score
      P1  H  6896  6907       L1    10  0.94
      P1  H  7989  7998       L1    16  0.78

> <Gold.Chemscore.Hbond.Weighted>
-6.4281

> <Gold.Chemscore.Metal.Weighted>
-0.0000

> <Gold.Chemscore.Lipo.Weighted>
-7.5058

> <Gold.Chemscore.Internal_Hbond.Weighted>
0.0000

> <Gold.Chemscore.DEClash.Weighted>
0.0584

> <Gold.Chemscore.DEInternal.Weighted>
2.1383

> <Gold.Chemscore.Rot.Weighted>
4.9897

> <Gold.Chemscore.Internal.Correction.Weighted>
   9.000000E+99

> <Gold.Protein.RotatedTorsions>
[ 6907 6896 6895 6894 ] final  -52.66 input  -60.11 | X-H torsion
[ 7974 7965 7964 7962 ] final  -34.41 input  175.53 | X-H torsion
[ 8008 7997 7996 7995 ] final  172.60 input   59.86 | X-H torsion
[ 10167 10162 10161 10158 ] final  -58.85 input  -65.29 | X-H torsion
[ 10718 10713 10712 10709 ] final -129.73 input   66.30 | X-H torsion
[ 10763 10752 10751 10750 ] final  -48.70 input  -60.55 | X-H torsion
[ 11005 11000 10999 10996 ] final  125.30 input  -57.11 | X-H torsion

> <Gold.Protein.ActiveResidues>
 VAL166  LYS551  ARG553  GLY616  TRP617  ASP618  TYR619  PRO620  LYS621  CYS622 
 ASP623  PHE694  ASN695  SER759  ASP760  ASP761  ALA762  ILE779  LEU786  VAL792 
 PHE793  MET794  SER795  GLU796  ALA797  LYS798  CYS799  TRP800  GLU811  SER814 

> <Gold.Protein.RotatedAtoms>
  150.8497  134.7818  159.6998 H   0  0  0  0  0  0  0  0  0  0  0  0  # atno 6907 bound_to 6896
  152.4565  134.5277  159.9811 H   0  0  0  0  0  0  0  0  0  0  0  0  # atno 6908 bound_to 6896
  151.5400  133.3396  159.2969 H   0  0  0  0  0  0  0  0  0  0  0  0  # atno 6909 bound_to 6896
  146.0831  140.6035  142.8899 H   0  0  0  0  0  0  0  0  0  0  0  0  # atno 7974 bound_to 7965
  156.1159  140.1482  156.9274 H   0  0  0  0  0  0  0  0  0  0  0  0  # atno 8008 bound_to 7997
  154.4800  140.0882  156.7397 H   0  0  0  0  0  0  0  0  0  0  0  0  # atno 8009 bound_to 7997
  155.4515  140.3435  155.4303 H   0  0  0  0  0  0  0  0  0  0  0  0  # atno 8010 bound_to 7997
  140.6172  143.2406  151.5569 H   0  0  0  0  0  0  0  0  0  0  0  0  # atno 10167 bound_to 10162
  156.2075  130.6897  151.0611 H   0  0  0  0  0  0  0  0  0  0  0  0  # atno 10718 bound_to 10713
  154.0821  135.6589  153.4839 H   0  0  0  0  0  0  0  0  0  0  0  0  # atno 10763 bound_to 10752
  153.0352  135.5182  154.7463 H   0  0  0  0  0  0  0  0  0  0  0  0  # atno 10764 bound_to 10752
  154.6562  135.3008  154.9893 H   0  0  0  0  0  0  0  0  0  0  0  0  # atno 10765 bound_to 10752
  139.9400  134.9636  156.8538 H   0  0  0  0  0  0  0  0  0  0  0  0  # atno 11005 bound_to 11000
  144.7307  140.4663  143.6940 LP  0  0  0  0  0  0  0  0  0  0  0  0  # atno 17320 bound_to 7965
  145.6180  139.1521  143.3038 LP  0  0  0  0  0  0  0  0  0  0  0  0  # atno 17321 bound_to 7965
  139.5408  144.2653  152.1347 LP  0  0  0  0  0  0  0  0  0  0  0  0  # atno 17342 bound_to 10162
  140.1864  144.4794  150.6501 LP  0  0  0  0  0  0  0  0  0  0  0  0  # atno 17343 bound_to 10162
  157.7020  131.0772  150.6789 LP  0  0  0  0  0  0  0  0  0  0  0  0  # atno 17370 bound_to 10713
  156.6848  130.4578  149.5617 LP  0  0  0  0  0  0  0  0  0  0  0  0  # atno 17371 bound_to 10713
  140.5977  134.0202  155.7524 LP  0  0  0  0  0  0  0  0  0  0  0  0  # atno 17394 bound_to 11000
  141.1030  133.9738  157.3046 LP  0  0  0  0  0  0  0  0  0  0  0  0  # atno 17395 bound_to 11000

$$$$
