AV-unprocessed.smi:1680|AV-procd|sdf|6740|dock3
  -GOLD-   22720 7493D 1   1.00000     0.00000
 Structure written by MMmdl.
 38 39  0  0  0  0  0  0  0  0  3 V2000
  150.9707  141.1799  156.3919 C   0  0  0  0  0  0  0  0  0  0  0  0
  151.6320  139.8887  155.9050 C   0  0  0  0  0  0  0  0  0  0  0  0
  152.7164  139.5738  156.3950 O   0  0  0  0  0  0  0  0  0  0  0  0
  151.0125  139.1411  154.9602 N   0  0  0  0  0  0  0  0  0  0  0  0
  149.6978  139.4840  154.4107 C   0  0  0  0  0  0  0  0  0  0  0  0
  148.6750  138.4214  154.8517 C   0  0  0  0  0  0  0  0  0  0  0  0
  149.1073  137.0522  154.4629 N   0  3  0  0  0  0  0  0  0  0  0  0
  148.1223  136.0198  154.8702 C   0  0  0  0  0  0  0  0  0  0  0  0
  148.5663  135.2445  156.1247 C   0  0  0  0  0  0  0  0  0  0  0  0
  148.3432  136.0255  157.3354 N   0  0  0  0  0  0  0  0  0  0  0  0
  148.5286  135.5919  158.5904 C   0  0  0  0  0  0  0  0  0  0  0  0
  148.9276  134.4421  158.7896 O   0  0  0  0  0  0  0  0  0  0  0  0
  148.2340  136.5140  159.5336 N   0  5  0  0  0  0  0  0  0  0  0  0
  147.7384  136.1262  160.7205 C   0  0  0  0  0  0  0  0  0  0  0  0
  147.3676  137.0056  161.6648 N   0  0  0  0  0  0  0  0  0  0  0  0
  146.8774  136.3993  162.8134 N   0  0  0  0  0  0  0  0  0  0  0  0
  146.8845  135.0711  162.7025 C   0  0  0  0  0  0  0  0  0  0  0  0
  147.4866  134.4407  161.1839 S   0  0  0  0  0  0  0  0  0  0  0  0
  150.5001  136.7461  154.8935 C   0  0  0  0  0  0  0  0  0  0  0  0
  151.4818  137.8480  154.4528 C   0  0  0  0  0  0  0  0  0  0  0  0
  150.8360  141.8812  155.5678 H   0  0  0  0  0  0  0  0  0  0  0  0
  151.5897  141.6683  157.1457 H   0  0  0  0  0  0  0  0  0  0  0  0
  150.0005  140.9711  156.8440 H   0  0  0  0  0  0  0  0  0  0  0  0
  149.3546  140.4736  154.7155 H   0  0  0  0  0  0  0  0  0  0  0  0
  149.7613  139.5143  153.3220 H   0  0  0  0  0  0  0  0  0  0  0  0
  148.5410  138.4638  155.9340 H   0  0  0  0  0  0  0  0  0  0  0  0
  147.7059  138.6417  154.4025 H   0  0  0  0  0  0  0  0  0  0  0  0
  147.1449  136.4795  155.0244 H   0  0  0  0  0  0  0  0  0  0  0  0
  148.0013  135.3096  154.0507 H   0  0  0  0  0  0  0  0  0  0  0  0
  148.0423  134.2896  156.1932 H   0  0  0  0  0  0  0  0  0  0  0  0
  149.6300  135.0137  156.0839 H   0  0  0  0  0  0  0  0  0  0  0  0
  148.0212  136.9752  157.2169 H   0  0  0  0  0  0  0  0  0  0  0  0
  146.5304  134.4592  163.5185 H   0  0  0  0  0  0  0  0  0  0  0  0
  150.5289  136.6413  155.9795 H   0  0  0  0  0  0  0  0  0  0  0  0
  150.8250  135.7945  154.4749 H   0  0  0  0  0  0  0  0  0  0  0  0
  151.5262  137.8912  153.3635 H   0  0  0  0  0  0  0  0  0  0  0  0
  152.4897  137.5896  154.7742 H   0  0  0  0  0  0  0  0  0  0  0  0
  149.1138  137.0490  153.4528 H   0  0  0  0  0  0  0  0  0  0  0  0
  1  2  1  0  0  0  0
  1 21  1  0  0  0  0
  1 22  1  0  0  0  0
  1 23  1  0  0  0  0
  2  3  2  0  0  0  0
  2  4  1  0  0  0  0
  4 20  1  0  0  0  0
  4  5  1  0  0  0  0
  5  6  1  0  0  0  0
  5 24  1  0  0  0  0
  5 25  1  0  0  0  0
  6  7  1  0  0  0  0
  6 26  1  0  0  0  0
  6 27  1  0  0  0  0
  7  8  1  0  0  0  0
  7 19  1  0  0  0  0
  7 38  1  0  0  0  0
  8  9  1  0  0  0  0
  8 28  1  0  0  0  0
  8 29  1  0  0  0  0
  9 10  1  0  0  0  0
  9 30  1  0  0  0  0
  9 31  1  0  0  0  0
 10 11  1  0  0  0  0
 10 32  1  0  0  0  0
 11 12  2  0  0  0  0
 11 13  1  0  0  0  0
 13 14  1  0  0  0  0
 14 18  1  0  0  0  0
 14 15  2  0  0  0  0
 15 16  1  0  0  0  0
 16 17  2  0  0  0  0
 17 18  1  0  0  0  0
 17 33  1  0  0  0  0
 19 20  1  0  0  0  0
 19 34  1  0  0  0  0
 19 35  1  0  0  0  0
 20 36  1  0  0  0  0
 20 37  1  0  0  0  0
M  CHG  1   7   1
M  CHG  1  13  -1
M  END
> <s_m_source_file>
AV-unprocessed.smi

> <i_m_source_file_index>
1680

> <i_lp_mmshare_version>
43012

> <i_f3d_flags>
0

> <s_epik_input>
W0NIM11DKD1PKU4xW0NIMl1bQ0gyXU4oW0NIMl1bQ0gyXTEpW0NIMl1bQ0gyXVtOSF1DKD1PKVtOSF1jMm5uW2NIXXMy

> <s_epik_cmdline>
J2VwaWtfcHl0aG9uJywgJy1waCcsICc3LjAnLCAnLXRuJywgJzgnLCAnLW1hJywgJzIwMCcsICctbWV0YWxfYmluZGluZycsICctaW1hZScsICc8aW5maWxlLm1hZT4nLCAnLW9tYWUnLCAnPG91dGZpbGUubWFlPic=

> <r_lp_tautomer_probability>
1

> <r_epik_Ionization_Penalty>
3.68953

> <r_epik_Ionization_Penalty_Charging>
3.65812

> <r_epik_Ionization_Penalty_Neutral>
0.0314116

> <r_epik_State_Penalty>
3.68215

> <r_epik_Charging_Adjusted_Penalty>
7.34027

> <i_epik_Tot_Q>
0

> <i_epik_Tot_abs_Q>
2

> <r_epik_Metal_State_Penalty>
1.11495

> <b_epik_Metal_Only>
1

> <s_lp_Force_Field>
OPLS_2005

> <r_lp_Energy>
32.4697

> <b_lp_Chiralities_Consistent>
1

> <s_lp_Variant>
AV-unprocessed.smi:1680-4

> <Gold.Version>
5.8.1

> <Gold.Id.Protein>
6NUR|6NUR_protein|mol2

> <Gold.PLP.Fitness>
49.2980

> <Gold.PLP.PLP>
-34.0934

> <Gold.PLP.part.hbond>
-5.0000

> <Gold.PLP.part.metal>
0.0000

> <Gold.PLP.part.buried>
-3.1328

> <Gold.PLP.part.nonpolar>
-26.2809

> <Gold.PLP.part.repulsive>
0.0256

> <Gold.PLP.ligand.clash>
0.3449

> <Gold.PLP.ligand.torsion>
0.8430

> <Gold.PLP.Chemscore.Hbond>
5.7280

> <Gold.PLP.Chemscore.CHOScore>
0.0000

> <Gold.PLP.Chemscore.Metal>
0.0000

> <Gold.Chemscore.Hbonds>
donor molecule, donor type, donor heavy atom, donor atom, acceptor molecule, acceptor atom, score
      L1  H     7    38       P1  7948  2.00
      P1  H  6896  6907       L1    12  1.00
      P1  H  6931  6943       L1    15  0.85
      P1  H  6934  6947       L1    15  0.61
      P1  H  7997  8010       L1     3  0.99

> <Gold.PLP.Chemscore.Internal.Correction>
0.0514

> <Gold.Rescore>
     Score         DG    S(hbond)    S(metal)    S(lipo)     H(rot)  DE(clash)    DE(int)     intcor
     19.29     -21.81       4.41        0.00      53.09       1.80       0.37       2.15       ----

> <Gold.Chemscore.Fitness>
19.2856

> <Gold.Chemscore.DG>
-21.8071

> <Gold.Chemscore.ZeroCoef>
-5.4800

> <Gold.Chemscore.Hbond>
4.4084

> <Gold.Chemscore.Metal>
0.0000

> <Gold.Chemscore.Lipo>
53.0928

> <Gold.Chemscore.Internal_Hbond>
0.0000

> <Gold.Chemscore.DEClash>
0.3696

> <Gold.Chemscore.DEInternal>
2.1519

> <Gold.Chemscore.Rot>
1.8003

> <Gold.Chemscore.Internal.Correction>
   9.000000E+99

> <Gold.Chemscore.Hbonds>
donor molecule, donor type, donor heavy atom, donor atom, acceptor molecule, acceptor atom, score
      L1  H     7    38       P1  7948  0.97
      P1  H  6896  6907       L1    12  0.97
      P1  H  6931  6943       L1    15  0.37
      P1  H  6934  6947       L1    15  0.54
      P1  H  7997  8010       L1     3  0.93

> <Gold.Chemscore.Hbond.Weighted>
-14.7241

> <Gold.Chemscore.Metal.Weighted>
-0.0000

> <Gold.Chemscore.Lipo.Weighted>
-6.2119

> <Gold.Chemscore.Internal_Hbond.Weighted>
0.0000

> <Gold.Chemscore.DEClash.Weighted>
0.3696

> <Gold.Chemscore.DEInternal.Weighted>
2.1519

> <Gold.Chemscore.Rot.Weighted>
4.6088

> <Gold.Chemscore.Internal.Correction.Weighted>
   9.000000E+99

> <Gold.Protein.RotatedTorsions>
[ 6907 6896 6895 6894 ] final  -93.86 input  -60.11 | X-H torsion
[ 7974 7965 7964 7962 ] final  104.41 input  175.53 | X-H torsion
[ 8008 7997 7996 7995 ] final   94.61 input   59.86 | X-H torsion
[ 10167 10162 10161 10158 ] final -162.82 input  -65.29 | X-H torsion
[ 10718 10713 10712 10709 ] final  156.37 input   66.30 | X-H torsion
[ 10763 10752 10751 10750 ] final -157.62 input  -60.55 | X-H torsion
[ 11005 11000 10999 10996 ] final -121.68 input  -57.11 | X-H torsion

> <Gold.Protein.ActiveResidues>
 VAL166  LYS551  ARG553  GLY616  TRP617  ASP618  TYR619  PRO620  LYS621  CYS622 
 ASP623  PHE694  ASN695  SER759  ASP760  ASP761  ALA762  ILE779  LEU786  VAL792 
 PHE793  MET794  SER795  GLU796  ALA797  LYS798  CYS799  TRP800  GLU811  SER814 

> <Gold.Protein.RotatedAtoms>
  150.6930  134.1901  159.4281 H   0  0  0  0  0  0  0  0  0  0  0  0  # atno 6907 bound_to 6896
  151.9872  134.9995  160.0569 H   0  0  0  0  0  0  0  0  0  0  0  0  # atno 6908 bound_to 6896
  152.1700  133.4602  159.4941 H   0  0  0  0  0  0  0  0  0  0  0  0  # atno 6909 bound_to 6896
  145.3331  139.2481  143.3650 H   0  0  0  0  0  0  0  0  0  0  0  0  # atno 7974 bound_to 7965
  156.0598  140.3297  155.7448 H   0  0  0  0  0  0  0  0  0  0  0  0  # atno 8008 bound_to 7997
  155.5473  140.0607  157.2875 H   0  0  0  0  0  0  0  0  0  0  0  0  # atno 8009 bound_to 7997
  154.4476  140.1900  156.0639 H   0  0  0  0  0  0  0  0  0  0  0  0  # atno 8010 bound_to 7997
  139.6365  144.0341  152.2058 H   0  0  0  0  0  0  0  0  0  0  0  0  # atno 10167 bound_to 10162
  157.2058  131.0686  151.1998 H   0  0  0  0  0  0  0  0  0  0  0  0  # atno 10718 bound_to 10713
  154.7621  135.3121  154.8357 H   0  0  0  0  0  0  0  0  0  0  0  0  # atno 10763 bound_to 10752
  153.9115  135.6805  153.4755 H   0  0  0  0  0  0  0  0  0  0  0  0  # atno 10764 bound_to 10752
  153.1223  135.4817  154.9147 H   0  0  0  0  0  0  0  0  0  0  0  0  # atno 10765 bound_to 10752
  141.0052  134.0345  157.3487 H   0  0  0  0  0  0  0  0  0  0  0  0  # atno 11005 bound_to 11000
  146.3037  140.3913  142.8694 LP  0  0  0  0  0  0  0  0  0  0  0  0  # atno 17320 bound_to 7965
  144.8848  140.7448  143.5963 LP  0  0  0  0  0  0  0  0  0  0  0  0  # atno 17321 bound_to 7965
  140.0019  144.6287  150.7722 LP  0  0  0  0  0  0  0  0  0  0  0  0  # atno 17342 bound_to 10162
  140.7468  143.2896  151.3367 LP  0  0  0  0  0  0  0  0  0  0  0  0  # atno 17343 bound_to 10162
  157.3722  130.7187  149.6572 LP  0  0  0  0  0  0  0  0  0  0  0  0  # atno 17370 bound_to 10713
  155.9695  130.4196  150.4381 LP  0  0  0  0  0  0  0  0  0  0  0  0  # atno 17371 bound_to 10713
  139.9059  135.0179  156.7484 LP  0  0  0  0  0  0  0  0  0  0  0  0  # atno 17394 bound_to 11000
  140.6825  133.9462  155.7918 LP  0  0  0  0  0  0  0  0  0  0  0  0  # atno 17395 bound_to 11000

$$$$
