AV-unprocessed.smi:199|AV-procd|sdf|1575|dock3
  -GOLD-   2262019453D 1   1.00000     0.00000
 Structure written by MMmdl.
 51 55  0  0  0  0  0  0  0  0  1 V2000
  147.4730  132.7629  161.9454 C   0  0  0  0  0  0  0  0  0  0  0  0
  146.8871  134.1409  162.2910 C   0  0  1  0  0  0  0  0  0  0  0  0
  147.5639  134.6205  163.4502 O   0  0  0  0  0  0  0  0  0  0  0  0
  147.6142  136.0353  163.4012 C   0  0  0  0  0  0  0  0  0  0  0  0
  147.8994  136.3009  161.9312 C   0  0  0  0  0  0  0  0  0  0  0  0
  147.0413  135.2580  161.2199 C   0  0  2  0  0  0  0  0  0  0  0  0
  145.7587  135.8237  161.0050 O   0  0  0  0  0  0  0  0  0  0  0  0
  147.6071  134.8216  159.8428 C   0  0  0  0  0  0  0  0  0  0  0  0
  147.7268  135.9171  158.8920 N   0  0  0  0  0  0  0  0  0  0  0  0
  146.7008  136.5338  158.2135 C   0  0  0  0  0  0  0  0  0  0  0  0
  147.0645  137.4974  157.4129 N   0  0  0  0  0  0  0  0  0  0  0  0
  148.4483  137.5442  157.5362 C   0  0  0  0  0  0  0  0  0  0  0  0
  149.4758  138.3417  156.9531 C   0  0  0  0  0  0  0  0  0  0  0  0
  149.2435  139.3262  156.0435 N   0  0  0  0  0  0  0  0  0  0  0  0
  149.8241  140.6510  156.1946 C   0  0  2  0  0  0  0  0  0  0  0  0
  149.0975  141.4490  155.0982 C   0  0  0  0  0  0  0  0  0  0  0  0
  148.9410  140.3815  154.0021 C   0  0  0  0  0  0  0  0  0  0  0  0
  149.6427  139.1748  154.6515 C   0  0  1  0  0  0  0  0  0  0  0  0
  151.1708  139.4333  154.6381 C   0  0  2  0  0  0  0  0  0  0  0  0
  152.0269  138.1654  154.8211 C   0  0  0  0  0  0  0  0  0  0  0  0
  151.7717  137.2517  153.7757 O   0  0  0  0  0  0  0  0  0  0  0  0
  151.2992  140.4550  155.7867 C   0  0  0  0  0  0  0  0  0  0  0  0
  150.7522  138.1031  157.3567 N   0  0  0  0  0  0  0  0  0  0  0  0
  151.0156  137.1371  158.2404 C   0  0  0  0  0  0  0  0  0  0  0  0
  150.1649  136.3082  158.8466 N   0  0  0  0  0  0  0  0  0  0  0  0
  148.8790  136.5551  158.4667 C   0  0  0  0  0  0  0  0  0  0  0  0
  146.9895  132.3334  161.0681 H   0  0  0  0  0  0  0  0  0  0  0  0
  147.3259  132.0665  162.7710 H   0  0  0  0  0  0  0  0  0  0  0  0
  148.5445  132.8189  161.7531 H   0  0  0  0  0  0  0  0  0  0  0  0
  145.8358  134.0091  162.5545 H   0  0  0  0  0  0  0  0  0  0  0  0
  146.6509  136.4516  163.6994 H   0  0  0  0  0  0  0  0  0  0  0  0
  148.3855  136.4342  164.0603 H   0  0  0  0  0  0  0  0  0  0  0  0
  147.6908  137.3283  161.6290 H   0  0  0  0  0  0  0  0  0  0  0  0
  148.9563  136.1078  161.7441 H   0  0  0  0  0  0  0  0  0  0  0  0
  145.7271  136.6648  161.4350 H   0  0  0  0  0  0  0  0  0  0  0  0
  148.5950  134.3753  159.9585 H   0  0  0  0  0  0  0  0  0  0  0  0
  146.9728  134.0545  159.3970 H   0  0  0  0  0  0  0  0  0  0  0  0
  145.6662  136.2480  158.3374 H   0  0  0  0  0  0  0  0  0  0  0  0
  149.7028  141.0958  157.1830 H   0  0  0  0  0  0  0  0  0  0  0  0
  148.1206  141.7893  155.4437 H   0  0  0  0  0  0  0  0  0  0  0  0
  149.6640  142.3198  154.7664 H   0  0  0  0  0  0  0  0  0  0  0  0
  147.8861  140.1666  153.8272 H   0  0  0  0  0  0  0  0  0  0  0  0
  149.3863  140.6768  153.0515 H   0  0  0  0  0  0  0  0  0  0  0  0
  149.3573  138.2390  154.1738 H   0  0  0  0  0  0  0  0  0  0  0  0
  151.4531  139.8925  153.6894 H   0  0  0  0  0  0  0  0  0  0  0  0
  153.0923  138.3927  154.8368 H   0  0  0  0  0  0  0  0  0  0  0  0
  151.7869  137.6819  155.7682 H   0  0  0  0  0  0  0  0  0  0  0  0
  151.2098  137.6706  153.1416 H   0  0  0  0  0  0  0  0  0  0  0  0
  151.7758  141.3839  155.4724 H   0  0  0  0  0  0  0  0  0  0  0  0
  151.8795  140.0502  156.6169 H   0  0  0  0  0  0  0  0  0  0  0  0
  152.0565  137.0114  158.4991 H   0  0  0  0  0  0  0  0  0  0  0  0
  1  2  1  0  0  0  0
  1 27  1  0  0  0  0
  1 28  1  0  0  0  0
  1 29  1  0  0  0  0
  2  6  1  0  0  0  0
  2  3  1  0  0  0  0
  2 30  1  0  0  0  0
  3  4  1  0  0  0  0
  4  5  1  0  0  0  0
  4 31  1  0  0  0  0
  4 32  1  0  0  0  0
  5  6  1  0  0  0  0
  5 33  1  0  0  0  0
  5 34  1  0  0  0  0
  6  7  1  0  0  0  0
  6  8  1  0  0  0  0
  7 35  1  0  0  0  0
  8  9  1  0  0  0  0
  8 36  1  0  0  0  0
  8 37  1  0  0  0  0
  9 26  1  0  0  0  0
  9 10  1  0  0  0  0
 10 11  2  0  0  0  0
 10 38  1  0  0  0  0
 11 12  1  0  0  0  0
 12 26  2  0  0  0  0
 12 13  1  0  0  0  0
 13 14  1  0  0  0  0
 13 23  2  0  0  0  0
 14 18  1  0  0  0  0
 14 15  1  0  0  0  0
 15 22  1  0  0  0  0
 15 16  1  0  0  0  0
 15 39  1  0  0  0  0
 16 17  1  0  0  0  0
 16 40  1  0  0  0  0
 16 41  1  0  0  0  0
 17 18  1  0  0  0  0
 17 42  1  0  0  0  0
 17 43  1  0  0  0  0
 18 19  1  0  0  0  0
 18 44  1  0  0  0  0
 19 20  1  0  0  0  0
 19 22  1  0  0  0  0
 19 45  1  0  0  0  0
 20 21  1  0  0  0  0
 20 46  1  0  0  0  0
 20 47  1  0  0  0  0
 21 48  1  0  0  0  0
 22 49  1  0  0  0  0
 22 50  1  0  0  0  0
 23 24  1  0  0  0  0
 24 25  2  0  0  0  0
 24 51  1  0  0  0  0
 25 26  1  0  0  0  0
M  END
> <s_m_source_file>
AV-unprocessed.smi

> <i_m_source_file_index>
199

> <i_lp_mmshare_version>
43012

> <i_f3d_flags>
0

> <s_epik_input>
W0NIMl0xW0NIMl1PW0NAQEhdKFtDSDNdKVtDQEBdMShbT0hdKVtDSDJdbihbY0hdbjIpYyhjMjMpbltjSF1uYzNOKFtDQEBIXTQ1KVtDQEhdKFtDSDJdW0NIMl00KVtDQEhdKFtDSDJdNSlbQ0gyXVtPSF0=

> <s_epik_cmdline>
J2VwaWtfcHl0aG9uJywgJy1waCcsICc3LjAnLCAnLXRuJywgJzgnLCAnLW1hJywgJzIwMCcsICctbWV0YWxfYmluZGluZycsICctaW1hZScsICc8aW5maWxlLm1hZT4nLCAnLW9tYWUnLCAnPG91dGZpbGUubWFlPic=

> <r_lp_tautomer_probability>
1

> <r_epik_Ionization_Penalty>
0.00583903

> <r_epik_Ionization_Penalty_Charging>
0

> <r_epik_Ionization_Penalty_Neutral>
0.00583903

> <r_epik_State_Penalty>
-0

> <r_epik_Charging_Adjusted_Penalty>
0

> <i_epik_Tot_Q>
0

> <i_epik_Tot_abs_Q>
0

> <r_epik_Metal_State_Penalty>
-0

> <b_epik_Metal_Only>
0

> <s_lp_Force_Field>
OPLS_2005

> <r_lp_Energy>
84.1241

> <b_lp_Chiralities_Consistent>
1

> <s_lp_Variant>
AV-unprocessed.smi:199-16

> <Gold.Version>
5.8.1

> <Gold.Id.Protein>
6NUR|6NUR_protein|mol2

> <Gold.PLP.Fitness>
47.2506

> <Gold.PLP.PLP>
-42.0209

> <Gold.PLP.part.hbond>
-4.6817

> <Gold.PLP.part.metal>
0.0000

> <Gold.PLP.part.buried>
-1.7830

> <Gold.PLP.part.nonpolar>
-36.1245

> <Gold.PLP.part.repulsive>
0.0270

> <Gold.PLP.ligand.clash>
0.0000

> <Gold.PLP.ligand.torsion>
0.3934

> <Gold.PLP.Chemscore.Hbond>
2.0000

> <Gold.PLP.Chemscore.CHOScore>
0.0000

> <Gold.PLP.Chemscore.Metal>
0.0000

> <Gold.Chemscore.Hbonds>
donor molecule, donor type, donor heavy atom, donor atom, acceptor molecule, acceptor atom, score
      P1  H  6896  6908       L1    25  1.00
      P1  H 10752 10765       L1    21  1.00

> <Gold.PLP.Chemscore.Internal.Correction>
0.0165

> <Gold.Rescore>
     Score         DG    S(hbond)    S(metal)    S(lipo)     H(rot)  DE(clash)    DE(int)     intcor
     10.62     -16.45       2.10        0.00     101.05       3.07       1.88       3.96       ----

> <Gold.Chemscore.Fitness>
10.6162

> <Gold.Chemscore.DG>
-16.4532

> <Gold.Chemscore.ZeroCoef>
-5.4800

> <Gold.Chemscore.Hbond>
2.1011

> <Gold.Chemscore.Metal>
0.0000

> <Gold.Chemscore.Lipo>
101.0461

> <Gold.Chemscore.Internal_Hbond>
0.0000

> <Gold.Chemscore.DEClash>
1.8798

> <Gold.Chemscore.DEInternal>
3.9573

> <Gold.Chemscore.Rot>
3.0729

> <Gold.Chemscore.Internal.Correction>
   9.000000E+99

> <Gold.Chemscore.Hbonds>
donor molecule, donor type, donor heavy atom, donor atom, acceptor molecule, acceptor atom, score
      L1  H    21    48       P1  7949  0.01
      P1  H  6896  6908       L1    25  0.95
      P1  H 10752 10765       L1    21  0.48

> <Gold.Chemscore.Hbond.Weighted>
-7.0176

> <Gold.Chemscore.Metal.Weighted>
-0.0000

> <Gold.Chemscore.Lipo.Weighted>
-11.8224

> <Gold.Chemscore.Internal_Hbond.Weighted>
0.0000

> <Gold.Chemscore.DEClash.Weighted>
1.8798

> <Gold.Chemscore.DEInternal.Weighted>
3.9573

> <Gold.Chemscore.Rot.Weighted>
7.8667

> <Gold.Chemscore.Internal.Correction.Weighted>
   9.000000E+99

> <Gold.Protein.RotatedTorsions>
[ 6907 6896 6895 6894 ] final -175.42 input  -60.11 | X-H torsion
[ 7974 7965 7964 7962 ] final  -42.54 input  175.53 | X-H torsion
[ 8008 7997 7996 7995 ] final  -50.77 input   59.86 | X-H torsion
[ 10167 10162 10161 10158 ] final   24.02 input  -65.29 | X-H torsion
[ 10718 10713 10712 10709 ] final  -60.17 input   66.30 | X-H torsion
[ 10763 10752 10751 10750 ] final  152.16 input  -60.55 | X-H torsion
[ 11005 11000 10999 10996 ] final  -85.93 input  -57.11 | X-H torsion

> <Gold.Protein.ActiveResidues>
 VAL166  LYS551  ARG553  GLY616  TRP617  ASP618  TYR619  PRO620  LYS621  CYS622 
 ASP623  PHE694  ASN695  SER759  ASP760  ASP761  ALA762  ILE779  LEU786  VAL792 
 PHE793  MET794  SER795  GLU796  ALA797  LYS798  CYS799  TRP800  GLU811  SER814 

> <Gold.Protein.RotatedAtoms>
  151.5883  133.3369  159.3022 H   0  0  0  0  0  0  0  0  0  0  0  0  # atno 6907 bound_to 6896
  150.8274  134.7515  159.6836 H   0  0  0  0  0  0  0  0  0  0  0  0  # atno 6908 bound_to 6896
  152.4362  134.5688  159.9967 H   0  0  0  0  0  0  0  0  0  0  0  0  # atno 6909 bound_to 6896
  146.0106  140.6968  142.9226 H   0  0  0  0  0  0  0  0  0  0  0  0  # atno 7974 bound_to 7965
  154.4069  140.1264  156.4720 H   0  0  0  0  0  0  0  0  0  0  0  0  # atno 8008 bound_to 7997
  155.7169  140.3493  155.4979 H   0  0  0  0  0  0  0  0  0  0  0  0  # atno 8009 bound_to 7997
  155.9249  140.1059  157.1168 H   0  0  0  0  0  0  0  0  0  0  0  0  # atno 8010 bound_to 7997
  140.5222  143.9983  150.6422 H   0  0  0  0  0  0  0  0  0  0  0  0  # atno 10167 bound_to 10162
  156.1009  130.4186  150.0817 H   0  0  0  0  0  0  0  0  0  0  0  0  # atno 10718 bound_to 10713
  154.1155  135.2836  155.3220 H   0  0  0  0  0  0  0  0  0  0  0  0  # atno 10763 bound_to 10752
  154.6460  135.5386  153.7848 H   0  0  0  0  0  0  0  0  0  0  0  0  # atno 10764 bound_to 10752
  153.0330  135.6498  154.1312 H   0  0  0  0  0  0  0  0  0  0  0  0  # atno 10765 bound_to 10752
  141.1636  133.7426  156.9087 H   0  0  0  0  0  0  0  0  0  0  0  0  # atno 11005 bound_to 11000
  144.6951  140.3392  143.7202 LP  0  0  0  0  0  0  0  0  0  0  0  0  # atno 17320 bound_to 7965
  145.7348  139.1746  143.2410 LP  0  0  0  0  0  0  0  0  0  0  0  0  # atno 17321 bound_to 7965
  140.3335  143.3063  152.0662 LP  0  0  0  0  0  0  0  0  0  0  0  0  # atno 17342 bound_to 10162
  139.4927  144.6492  151.6712 LP  0  0  0  0  0  0  0  0  0  0  0  0  # atno 17343 bound_to 10162
  156.8805  130.9555  151.3600 LP  0  0  0  0  0  0  0  0  0  0  0  0  # atno 17370 bound_to 10713
  157.6179  130.8632  149.9059 LP  0  0  0  0  0  0  0  0  0  0  0  0  # atno 17371 bound_to 10713
  140.1532  134.9216  157.2619 LP  0  0  0  0  0  0  0  0  0  0  0  0  # atno 17394 bound_to 11000
  140.2698  134.3473  155.7377 LP  0  0  0  0  0  0  0  0  0  0  0  0  # atno 17395 bound_to 11000

$$$$
