AV-unprocessed.smi:2671|AV-procd|sdf|10352|dock4
  -GOLD-   2272014373D 1   1.00000     0.00000
 Structure written by MMmdl.
 29 30  0  0  0  0  0  0  0  0  1 V2000
  151.7841  137.2840  153.8664 O   0  0  0  0  0  0  0  0  0  0  0  0
  151.1607  138.2087  154.6503 C   0  0  0  0  0  0  0  0  0  0  0  0
  149.7609  138.3640  154.5699 C   0  0  0  0  0  0  0  0  0  0  0  0
  149.1818  139.3424  155.4110 C   0  0  0  0  0  0  0  0  0  0  0  0
  147.6850  139.6130  155.4250 C   0  0  0  0  0  0  0  0  0  0  0  0
  147.0346  138.8106  154.5817 F   0  0  0  0  0  0  0  0  0  0  0  0
  147.2033  139.4154  156.6523 F   0  0  0  0  0  0  0  0  0  0  0  0
  147.4529  140.8768  155.0694 F   0  0  0  0  0  0  0  0  0  0  0  0
  149.9383  140.0885  156.2490 N   0  0  0  0  0  0  0  0  0  0  0  0
  151.2498  139.8487  156.2350 C   0  0  0  0  0  0  0  0  0  0  0  0
  152.2358  140.8319  157.3326 S   0  0  0  0  0  0  0  0  0  0  0  0
  150.9392  141.9098  158.0009 C   0  0  0  0  0  0  0  0  0  0  0  0
  151.5076  143.2417  158.5091 C   0  0  2  0  0  0  0  0  0  0  0  0
  152.4908  143.1117  159.6777 C   0  0  0  0  0  0  0  0  0  0  0  0
  152.2438  144.3576  160.5182 C   0  0  0  0  0  0  0  0  0  0  0  0
  151.0962  145.0706  159.8038 C   0  0  0  0  0  0  0  0  0  0  0  0
  150.4705  144.0464  159.0476 O   0  0  0  0  0  0  0  0  0  0  0  0
  151.9069  138.9586  155.4895 N   0  0  0  0  0  0  0  0  0  0  0  0
  151.2052  136.9015  153.2251 H   0  0  0  0  0  0  0  0  0  0  0  0
  149.1681  137.7621  153.8967 H   0  0  0  0  0  0  0  0  0  0  0  0
  150.2077  142.0959  157.2141 H   0  0  0  0  0  0  0  0  0  0  0  0
  150.4166  141.3867  158.8023 H   0  0  0  0  0  0  0  0  0  0  0  0
  151.9743  143.7897  157.6886 H   0  0  0  0  0  0  0  0  0  0  0  0
  152.2766  142.2220  160.2710 H   0  0  0  0  0  0  0  0  0  0  0  0
  153.5225  143.0394  159.3317 H   0  0  0  0  0  0  0  0  0  0  0  0
  151.9492  144.0732  161.5290 H   0  0  0  0  0  0  0  0  0  0  0  0
  153.1271  144.9923  160.5927 H   0  0  0  0  0  0  0  0  0  0  0  0
  150.3982  145.5437  160.4950 H   0  0  0  0  0  0  0  0  0  0  0  0
  151.4791  145.8363  159.1272 H   0  0  0  0  0  0  0  0  0  0  0  0
  1  2  1  0  0  0  0
  1 19  1  0  0  0  0
  2 18  1  0  0  0  0
  2  3  2  0  0  0  0
  3  4  1  0  0  0  0
  3 20  1  0  0  0  0
  4  5  1  0  0  0  0
  4  9  2  0  0  0  0
  5  6  1  0  0  0  0
  5  7  1  0  0  0  0
  5  8  1  0  0  0  0
  9 10  1  0  0  0  0
 10 11  1  0  0  0  0
 10 18  2  0  0  0  0
 11 12  1  0  0  0  0
 12 13  1  0  0  0  0
 12 21  1  0  0  0  0
 12 22  1  0  0  0  0
 13 17  1  0  0  0  0
 13 14  1  0  0  0  0
 13 23  1  0  0  0  0
 14 15  1  0  0  0  0
 14 24  1  0  0  0  0
 14 25  1  0  0  0  0
 15 16  1  0  0  0  0
 15 26  1  0  0  0  0
 15 27  1  0  0  0  0
 16 17  1  0  0  0  0
 16 28  1  0  0  0  0
 16 29  1  0  0  0  0
M  END
> <s_m_source_file>
AV-unprocessed.smi

> <i_m_source_file_index>
2671

> <i_lp_mmshare_version>
43012

> <i_f3d_flags>
0

> <s_epik_input>
W09IXWMxW2NIXWMoQyhGKShGKUYpbmMobjEpU1tDSDJdW0NAQEhdMltDSDJdW0NIMl1bQ0gyXU8y

> <s_epik_cmdline>
J2VwaWtfcHl0aG9uJywgJy1waCcsICc3LjAnLCAnLXRuJywgJzgnLCAnLW1hJywgJzIwMCcsICctbWV0YWxfYmluZGluZycsICctaW1hZScsICc8aW5maWxlLm1hZT4nLCAnLW9tYWUnLCAnPG91dGZpbGUubWFlPic=

> <r_lp_tautomer_probability>
0.0660145

> <r_epik_Ionization_Penalty>
3.60098

> <r_epik_Ionization_Penalty_Charging>
0

> <r_epik_Ionization_Penalty_Neutral>
3.60098

> <r_epik_State_Penalty>
2.71709

> <r_epik_Charging_Adjusted_Penalty>
2.71709

> <i_epik_Tot_Q>
0

> <i_epik_Tot_abs_Q>
0

> <r_epik_Metal_State_Penalty>
3.44057

> <b_epik_Metal_Only>
0

> <s_lp_Force_Field>
OPLS_2005

> <r_lp_Energy>
11.8845

> <b_lp_Chiralities_Consistent>
1

> <s_lp_Variant>
AV-unprocessed.smi:2671-7

> <Gold.Version>
5.8.1

> <Gold.Id.Protein>
6NUR|6NUR_protein|mol2

> <Gold.PLP.Fitness>
44.4017

> <Gold.PLP.PLP>
-38.7005

> <Gold.PLP.part.hbond>
-2.0000

> <Gold.PLP.part.metal>
0.0000

> <Gold.PLP.part.buried>
-5.3042

> <Gold.PLP.part.nonpolar>
-30.7773

> <Gold.PLP.part.repulsive>
0.1933

> <Gold.PLP.ligand.clash>
0.0000

> <Gold.PLP.ligand.torsion>
0.1526

> <Gold.PLP.Chemscore.Hbond>
2.0000

> <Gold.PLP.Chemscore.CHOScore>
0.0000

> <Gold.PLP.Chemscore.Metal>
0.0000

> <Gold.Chemscore.Hbonds>
donor molecule, donor type, donor heavy atom, donor atom, acceptor molecule, acceptor atom, score
      L1  H     1    19       P1  7949  0.86
      P1  H 10752 10763       L1     1  0.90

> <Gold.PLP.Chemscore.Internal.Correction>
0.0065

> <Gold.Rescore>
     Score         DG    S(hbond)    S(metal)    S(lipo)     H(rot)  DE(clash)    DE(int)     intcor
     11.54     -11.70       0.79        0.00      80.22       2.27       0.01       0.15       ----

> <Gold.Chemscore.Fitness>
11.5373

> <Gold.Chemscore.DG>
-11.6971

> <Gold.Chemscore.ZeroCoef>
-5.4800

> <Gold.Chemscore.Hbond>
0.7874

> <Gold.Chemscore.Metal>
0.0000

> <Gold.Chemscore.Lipo>
80.2205

> <Gold.Chemscore.Internal_Hbond>
0.0000

> <Gold.Chemscore.DEClash>
0.0138

> <Gold.Chemscore.DEInternal>
0.1460

> <Gold.Chemscore.Rot>
2.2650

> <Gold.Chemscore.Internal.Correction>
   9.000000E+99

> <Gold.Chemscore.Hbonds>
donor molecule, donor type, donor heavy atom, donor atom, acceptor molecule, acceptor atom, score
      L1  H     1    19       P1  7949  0.46
      P1  H 10752 10763       L1     1  0.17

> <Gold.Chemscore.Hbond.Weighted>
-2.6298

> <Gold.Chemscore.Metal.Weighted>
-0.0000

> <Gold.Chemscore.Lipo.Weighted>
-9.3858

> <Gold.Chemscore.Internal_Hbond.Weighted>
0.0000

> <Gold.Chemscore.DEClash.Weighted>
0.0138

> <Gold.Chemscore.DEInternal.Weighted>
0.1460

> <Gold.Chemscore.Rot.Weighted>
5.7984

> <Gold.Chemscore.Internal.Correction.Weighted>
   9.000000E+99

> <Gold.Protein.RotatedTorsions>
[ 6907 6896 6895 6894 ] final   28.77 input  -60.11 | X-H torsion
[ 7974 7965 7964 7962 ] final -168.36 input  175.53 | X-H torsion
[ 8008 7997 7996 7995 ] final  -32.70 input   59.86 | X-H torsion
[ 10167 10162 10161 10158 ] final  107.99 input  -65.29 | X-H torsion
[ 10718 10713 10712 10709 ] final  133.46 input   66.30 | X-H torsion
[ 10763 10752 10751 10750 ] final   31.69 input  -60.55 | X-H torsion
[ 11005 11000 10999 10996 ] final -168.83 input  -57.11 | X-H torsion

> <Gold.Protein.ActiveResidues>
 VAL166  LYS551  ARG553  GLY616  TRP617  ASP618  TYR619  PRO620  LYS621  CYS622 
 ASP623  PHE694  ASN695  SER759  ASP760  ASP761  ALA762  ILE779  LEU786  VAL792 
 PHE793  MET794  SER795  GLU796  ALA797  LYS798  CYS799  TRP800  GLU811  SER814 

> <Gold.Protein.RotatedAtoms>
  152.0218  134.9818  160.0570 H   0  0  0  0  0  0  0  0  0  0  0  0  # atno 6907 bound_to 6896
  152.1330  133.4414  159.4738 H   0  0  0  0  0  0  0  0  0  0  0  0  # atno 6908 bound_to 6896
  150.6858  134.2316  159.4480 H   0  0  0  0  0  0  0  0  0  0  0  0  # atno 6909 bound_to 6896
  144.7205  140.2382  143.6295 H   0  0  0  0  0  0  0  0  0  0  0  0  # atno 7974 bound_to 7965
  154.4171  140.1730  156.1770 H   0  0  0  0  0  0  0  0  0  0  0  0  # atno 8008 bound_to 7997
  155.9714  140.3385  155.6555 H   0  0  0  0  0  0  0  0  0  0  0  0  # atno 8009 bound_to 7997
  155.6621  140.0702  157.2541 H   0  0  0  0  0  0  0  0  0  0  0  0  # atno 8010 bound_to 7997
  139.6882  144.7111  151.1394 H   0  0  0  0  0  0  0  0  0  0  0  0  # atno 10167 bound_to 10162
  157.4770  131.1083  150.9730 H   0  0  0  0  0  0  0  0  0  0  0  0  # atno 10718 bound_to 10713
  153.0302  135.6432  154.1239 H   0  0  0  0  0  0  0  0  0  0  0  0  # atno 10763 bound_to 10752
  154.0962  135.2863  155.3263 H   0  0  0  0  0  0  0  0  0  0  0  0  # atno 10764 bound_to 10752
  154.6430  135.5453  153.7875 H   0  0  0  0  0  0  0  0  0  0  0  0  # atno 10765 bound_to 10752
  140.5376  134.5554  157.5091 H   0  0  0  0  0  0  0  0  0  0  0  0  # atno 11005 bound_to 11000
  145.8345  139.2101  143.1863 LP  0  0  0  0  0  0  0  0  0  0  0  0  # atno 17320 bound_to 7965
  146.0401  140.8173  142.9833 LP  0  0  0  0  0  0  0  0  0  0  0  0  # atno 17321 bound_to 7965
  140.7674  143.5598  150.9112 LP  0  0  0  0  0  0  0  0  0  0  0  0  # atno 17342 bound_to 10162
  139.9274  143.6534  152.3084 LP  0  0  0  0  0  0  0  0  0  0  0  0  # atno 17343 bound_to 10162
  157.0476  130.5774  149.5365 LP  0  0  0  0  0  0  0  0  0  0  0  0  # atno 17370 bound_to 10713
  156.0102  130.5193  150.7963 LP  0  0  0  0  0  0  0  0  0  0  0  0  # atno 17371 bound_to 10713
  139.9521  134.7599  156.0425 LP  0  0  0  0  0  0  0  0  0  0  0  0  # atno 17394 bound_to 11000
  141.1245  133.6603  156.3302 LP  0  0  0  0  0  0  0  0  0  0  0  0  # atno 17395 bound_to 11000

$$$$
