AV-unprocessed.smi:381|AV-procd|sdf|2461|dock4
  -GOLD-   2262022403D 1   1.00000     0.00000
 Structure written by MMmdl.
 45 46  0  0  0  0  0  0  0  0  1 V2000
  151.2943  140.9230  155.4242 O   0  0  0  0  0  0  0  0  0  0  0  0
  150.5219  141.8706  155.5546 C   0  0  0  0  0  0  0  0  0  0  0  0
  149.4274  142.0398  154.7956 N   0  0  0  0  0  0  0  0  0  0  0  0
  149.0073  141.1278  153.7414 C   0  0  0  0  0  0  0  0  0  0  0  0
  147.5673  140.6535  153.9780 C   0  0  0  0  0  0  0  0  0  0  0  0
  146.6440  141.7976  154.3486 C   0  0  0  0  0  0  0  0  0  0  0  0
  146.3291  142.8036  153.4117 C   0  0  0  0  0  0  0  0  0  0  0  0
  145.4606  143.8426  153.7978 C   0  0  0  0  0  0  0  0  0  0  0  0
  144.9438  143.8319  155.1088 C   0  0  0  0  0  0  0  0  0  0  0  0
  145.2391  142.8748  156.0147 N   0  0  0  0  0  0  0  0  0  0  0  0
  146.0715  141.8811  155.6359 C   0  0  0  0  0  0  0  0  0  0  0  0
  150.7179  142.8213  156.4866 N   0  0  0  0  0  0  0  0  0  0  0  0
  151.8007  142.9383  157.4683 C   0  0  0  0  0  0  0  0  0  0  0  0
  151.5226  141.9362  158.6131 C   0  0  0  0  0  0  0  0  0  0  0  0
  152.4721  141.9970  159.8241 C   0  0  0  0  0  0  0  0  0  0  0  0
  151.9852  142.8718  161.0020 C   0  0  0  0  0  0  0  0  0  0  0  0
  152.4025  144.3532  160.9455 C   0  0  0  0  0  0  0  0  0  0  0  0
  151.4109  145.3215  160.2662 C   0  0  0  0  0  0  0  0  0  0  0  0
  150.8914  144.9252  158.8723 C   0  0  0  0  0  0  0  0  0  0  0  0
  151.9760  144.4108  157.9056 C   0  0  0  0  0  0  0  0  0  0  0  0
  148.8440  142.8454  154.9689 H   0  0  0  0  0  0  0  0  0  0  0  0
  149.0808  141.6257  152.7729 H   0  0  0  0  0  0  0  0  0  0  0  0
  149.6868  140.2745  153.7187 H   0  0  0  0  0  0  0  0  0  0  0  0
  147.1843  140.1573  153.0851 H   0  0  0  0  0  0  0  0  0  0  0  0
  147.5437  139.9114  154.7774 H   0  0  0  0  0  0  0  0  0  0  0  0
  146.7421  142.7786  152.4138 H   0  0  0  0  0  0  0  0  0  0  0  0
  145.1958  144.6280  153.1056 H   0  0  0  0  0  0  0  0  0  0  0  0
  144.2749  144.6131  155.4382 H   0  0  0  0  0  0  0  0  0  0  0  0
  146.2843  141.1299  156.3823 H   0  0  0  0  0  0  0  0  0  0  0  0
  150.0288  143.5589  156.5160 H   0  0  0  0  0  0  0  0  0  0  0  0
  152.7343  142.6234  156.9991 H   0  0  0  0  0  0  0  0  0  0  0  0
  150.4893  142.0040  158.9547 H   0  0  0  0  0  0  0  0  0  0  0  0
  151.6009  140.9363  158.1838 H   0  0  0  0  0  0  0  0  0  0  0  0
  152.5540  140.9790  160.2072 H   0  0  0  0  0  0  0  0  0  0  0  0
  153.4837  142.2663  159.5185 H   0  0  0  0  0  0  0  0  0  0  0  0
  150.9096  142.7747  161.1516 H   0  0  0  0  0  0  0  0  0  0  0  0
  152.4348  142.4556  161.9046 H   0  0  0  0  0  0  0  0  0  0  0  0
  152.5288  144.7040  161.9705 H   0  0  0  0  0  0  0  0  0  0  0  0
  153.3954  144.4428  160.5050 H   0  0  0  0  0  0  0  0  0  0  0  0
  150.5515  145.4682  160.9215 H   0  0  0  0  0  0  0  0  0  0  0  0
  151.8918  146.2976  160.1944 H   0  0  0  0  0  0  0  0  0  0  0  0
  150.0867  144.1994  158.9794 H   0  0  0  0  0  0  0  0  0  0  0  0
  150.4095  145.7967  158.4282 H   0  0  0  0  0  0  0  0  0  0  0  0
  152.9695  144.5424  158.3303 H   0  0  0  0  0  0  0  0  0  0  0  0
  151.9872  145.0504  157.0224 H   0  0  0  0  0  0  0  0  0  0  0  0
  1  2  2  0  0  0  0
  2  3  1  0  0  0  0
  2 12  1  0  0  0  0
  3  4  1  0  0  0  0
  3 21  1  0  0  0  0
  4  5  1  0  0  0  0
  4 22  1  0  0  0  0
  4 23  1  0  0  0  0
  5  6  1  0  0  0  0
  5 24  1  0  0  0  0
  5 25  1  0  0  0  0
  6 11  1  0  0  0  0
  6  7  2  0  0  0  0
  7  8  1  0  0  0  0
  7 26  1  0  0  0  0
  8  9  2  0  0  0  0
  8 27  1  0  0  0  0
  9 10  1  0  0  0  0
  9 28  1  0  0  0  0
 10 11  2  0  0  0  0
 11 29  1  0  0  0  0
 12 13  1  0  0  0  0
 12 30  1  0  0  0  0
 13 20  1  0  0  0  0
 13 14  1  0  0  0  0
 13 31  1  0  0  0  0
 14 15  1  0  0  0  0
 14 32  1  0  0  0  0
 14 33  1  0  0  0  0
 15 16  1  0  0  0  0
 15 34  1  0  0  0  0
 15 35  1  0  0  0  0
 16 17  1  0  0  0  0
 16 36  1  0  0  0  0
 16 37  1  0  0  0  0
 17 18  1  0  0  0  0
 17 38  1  0  0  0  0
 17 39  1  0  0  0  0
 18 19  1  0  0  0  0
 18 40  1  0  0  0  0
 18 41  1  0  0  0  0
 19 20  1  0  0  0  0
 19 42  1  0  0  0  0
 19 43  1  0  0  0  0
 20 44  1  0  0  0  0
 20 45  1  0  0  0  0
M  END
> <s_m_source_file>
AV-unprocessed.smi

> <i_m_source_file_index>
381

> <i_lp_mmshare_version>
43012

> <i_f3d_flags>
0

> <s_epik_input>
W0NIMl0xW0NIMl1bQ0gyXVtDSDJdW0NIMl1bQ0gyXVtDSDJdW0NIXTFbTkhdQyg9TylbTkhdW0NIMl1bQ0gyXWMyW2NIXVtjSF1bY0hdbltjSF0y

> <s_epik_cmdline>
J2VwaWtfcHl0aG9uJywgJy1waCcsICc3LjAnLCAnLXRuJywgJzgnLCAnLW1hJywgJzIwMCcsICctbWV0YWxfYmluZGluZycsICctaW1hZScsICc8aW5maWxlLm1hZT4nLCAnLW9tYWUnLCAnPG91dGZpbGUubWFlPic=

> <r_epik_Ionization_Penalty>
0.0144395

> <r_epik_Ionization_Penalty_Charging>
0

> <r_epik_Ionization_Penalty_Neutral>
0.0144395

> <r_epik_State_Penalty>
0.0112394

> <r_epik_Charging_Adjusted_Penalty>
0.0112394

> <i_epik_Tot_Q>
0

> <i_epik_Tot_abs_Q>
0

> <r_epik_Metal_State_Penalty>
0.0109727

> <b_epik_Metal_Only>
0

> <s_lp_Force_Field>
OPLS_2005

> <r_lp_Energy>
29.8357

> <b_lp_Chiralities_Consistent>
1

> <s_lp_Variant>
AV-unprocessed.smi:381-1

> <Gold.Version>
5.8.1

> <Gold.Id.Protein>
6NUR|6NUR_protein|mol2

> <Gold.PLP.Fitness>
51.9995

> <Gold.PLP.PLP>
-45.6274

> <Gold.PLP.part.hbond>
-3.0000

> <Gold.PLP.part.metal>
0.0000

> <Gold.PLP.part.buried>
-7.6048

> <Gold.PLP.part.nonpolar>
-34.8166

> <Gold.PLP.part.repulsive>
0.4297

> <Gold.PLP.ligand.clash>
0.0000

> <Gold.PLP.ligand.torsion>
0.3975

> <Gold.PLP.Chemscore.Hbond>
2.3703

> <Gold.PLP.Chemscore.CHOScore>
0.0000

> <Gold.PLP.Chemscore.Metal>
0.0000

> <Gold.Chemscore.Hbonds>
donor molecule, donor type, donor heavy atom, donor atom, acceptor molecule, acceptor atom, score
      L1  H     3    21       P1  8028  0.86
      L1  H    12    30       P1  8028  1.00
      P1  H  7989  7998       L1     1  0.67

> <Gold.PLP.Chemscore.Internal.Correction>
0.0561

> <Gold.Rescore>
     Score         DG    S(hbond)    S(metal)    S(lipo)     H(rot)  DE(clash)    DE(int)     intcor
     22.13     -22.97       1.88        0.00     126.97       1.42       0.32       0.53       ----

> <Gold.Chemscore.Fitness>
22.1264

> <Gold.Chemscore.DG>
-22.9713

> <Gold.Chemscore.ZeroCoef>
-5.4800

> <Gold.Chemscore.Hbond>
1.8785

> <Gold.Chemscore.Metal>
0.0000

> <Gold.Chemscore.Lipo>
126.9708

> <Gold.Chemscore.Internal_Hbond>
0.0000

> <Gold.Chemscore.DEClash>
0.3166

> <Gold.Chemscore.DEInternal>
0.5284

> <Gold.Chemscore.Rot>
1.4213

> <Gold.Chemscore.Internal.Correction>
   9.000000E+99

> <Gold.Chemscore.Hbonds>
donor molecule, donor type, donor heavy atom, donor atom, acceptor molecule, acceptor atom, score
      L1  H     3    21       P1  8028  0.84
      L1  H    12    30       P1  8028  0.95
      P1  H  7989  7998       L1     1  0.27

> <Gold.Chemscore.Hbond.Weighted>
-6.2743

> <Gold.Chemscore.Metal.Weighted>
-0.0000

> <Gold.Chemscore.Lipo.Weighted>
-14.8556

> <Gold.Chemscore.Internal_Hbond.Weighted>
0.0000

> <Gold.Chemscore.DEClash.Weighted>
0.3166

> <Gold.Chemscore.DEInternal.Weighted>
0.5284

> <Gold.Chemscore.Rot.Weighted>
3.6385

> <Gold.Chemscore.Internal.Correction.Weighted>
   9.000000E+99

> <Gold.Protein.RotatedTorsions>
[ 6907 6896 6895 6894 ] final   95.96 input  -60.11 | X-H torsion
[ 7974 7965 7964 7962 ] final  179.63 input  175.53 | X-H torsion
[ 8008 7997 7996 7995 ] final   -5.18 input   59.86 | X-H torsion
[ 10167 10162 10161 10158 ] final  156.55 input  -65.29 | X-H torsion
[ 10718 10713 10712 10709 ] final  -95.93 input   66.30 | X-H torsion
[ 10763 10752 10751 10750 ] final  148.17 input  -60.55 | X-H torsion
[ 11005 11000 10999 10996 ] final -161.73 input  -57.11 | X-H torsion

> <Gold.Protein.ActiveResidues>
 VAL166  LYS551  ARG553  GLY616  TRP617  ASP618  TYR619  PRO620  LYS621  CYS622 
 ASP623  PHE694  ASN695  SER759  ASP760  ASP761  ALA762  ILE779  LEU786  VAL792 
 PHE793  MET794  SER795  GLU796  ALA797  LYS798  CYS799  TRP800  GLU811  SER814 

> <Gold.Protein.RotatedAtoms>
  152.5439  134.0960  159.8296 H   0  0  0  0  0  0  0  0  0  0  0  0  # atno 6907 bound_to 6896
  151.1043  133.5212  159.2616 H   0  0  0  0  0  0  0  0  0  0  0  0  # atno 6908 bound_to 6896
  151.1955  135.0430  159.8905 H   0  0  0  0  0  0  0  0  0  0  0  0  # atno 6909 bound_to 6896
  144.7144  140.0577  143.6433 H   0  0  0  0  0  0  0  0  0  0  0  0  # atno 7974 bound_to 7965
  154.6066  140.2465  155.7723 H   0  0  0  0  0  0  0  0  0  0  0  0  # atno 8008 bound_to 7997
  156.2344  140.2955  156.0225 H   0  0  0  0  0  0  0  0  0  0  0  0  # atno 8009 bound_to 7997
  155.2122  140.0397  157.2925 H   0  0  0  0  0  0  0  0  0  0  0  0  # atno 8010 bound_to 7997
  139.4821  144.4998  151.8185 H   0  0  0  0  0  0  0  0  0  0  0  0  # atno 10167 bound_to 10162
  156.0052  130.5130  150.6150 H   0  0  0  0  0  0  0  0  0  0  0  0  # atno 10718 bound_to 10713
  154.0503  135.2882  155.3341 H   0  0  0  0  0  0  0  0  0  0  0  0  # atno 10763 bound_to 10752
  154.6873  135.5240  153.8347 H   0  0  0  0  0  0  0  0  0  0  0  0  # atno 10764 bound_to 10752
  153.0563  135.6596  154.0700 H   0  0  0  0  0  0  0  0  0  0  0  0  # atno 10765 bound_to 10752
  140.6171  134.4789  157.5220 H   0  0  0  0  0  0  0  0  0  0  0  0  # atno 11005 bound_to 11000
  145.9891  139.3000  143.0996 LP  0  0  0  0  0  0  0  0  0  0  0  0  # atno 17320 bound_to 7965
  145.8924  140.9295  143.0545 LP  0  0  0  0  0  0  0  0  0  0  0  0  # atno 17321 bound_to 7965
  140.4490  144.1881  150.5896 LP  0  0  0  0  0  0  0  0  0  0  0  0  # atno 17342 bound_to 10162
  140.4604  143.2451  151.9227 LP  0  0  0  0  0  0  0  0  0  0  0  0  # atno 17343 bound_to 10162
  157.3976  131.0805  151.1338 LP  0  0  0  0  0  0  0  0  0  0  0  0  # atno 17370 bound_to 10713
  157.2009  130.6394  149.5738 LP  0  0  0  0  0  0  0  0  0  0  0  0  # atno 17371 bound_to 10713
  139.9168  134.8229  156.1339 LP  0  0  0  0  0  0  0  0  0  0  0  0  # atno 17394 bound_to 11000
  141.0768  133.6772  156.2253 LP  0  0  0  0  0  0  0  0  0  0  0  0  # atno 17395 bound_to 11000

$$$$
