AV-unprocessed.smi:3015|AV-procd|sdf|11471|dock4
  -GOLD-   2272016403D 1   1.00000     0.00000
 Structure written by MMmdl.
 24 24  0  0  0  0  0  0  0  0  2 V2000
  144.7580  137.7747  151.9346 N   0  3  0  0  0  0  0  0  0  0  0  0
  143.9683  136.7519  152.6465 C   0  0  1  0  0  0  0  0  0  0  0  0
  142.8023  137.4105  153.4039 C   0  0  0  0  0  0  0  0  0  0  0  0
  141.9980  138.1530  152.5113 O   0  0  0  0  0  0  0  0  0  0  0  0
  143.4658  135.6776  151.6629 C   0  0  0  0  0  0  0  0  0  0  0  0
  144.5039  134.6097  151.3652 C   0  0  0  0  0  0  0  0  0  0  0  0
  145.7969  134.6826  151.9241 C   0  0  0  0  0  0  0  0  0  0  0  0
  146.7275  133.6715  151.6167 C   0  0  0  0  0  0  0  0  0  0  0  0
  146.3247  132.6258  150.7623 C   0  0  0  0  0  0  0  0  0  0  0  0
  145.0893  132.5452  150.2223 N   0  0  0  0  0  0  0  0  0  0  0  0
  144.2018  133.5162  150.5251 C   0  0  0  0  0  0  0  0  0  0  0  0
  144.5496  137.7377  150.9474 H   0  0  0  0  0  0  0  0  0  0  0  0
  145.7423  137.6002  152.0793 H   0  0  0  0  0  0  0  0  0  0  0  0
  144.6254  136.2719  153.3733 H   0  0  0  0  0  0  0  0  0  0  0  0
  142.1920  136.6660  153.9168 H   0  0  0  0  0  0  0  0  0  0  0  0
  143.1811  138.0955  154.1634 H   0  0  0  0  0  0  0  0  0  0  0  0
  142.4112  138.9891  152.3548 H   0  0  0  0  0  0  0  0  0  0  0  0
  142.5836  135.1839  152.0729 H   0  0  0  0  0  0  0  0  0  0  0  0
  143.1448  136.1419  150.7291 H   0  0  0  0  0  0  0  0  0  0  0  0
  146.0733  135.4992  152.5751 H   0  0  0  0  0  0  0  0  0  0  0  0
  147.7264  133.6956  152.0266 H   0  0  0  0  0  0  0  0  0  0  0  0
  147.0131  131.8341  150.5055 H   0  0  0  0  0  0  0  0  0  0  0  0
  143.2241  133.4216  150.0758 H   0  0  0  0  0  0  0  0  0  0  0  0
  144.5201  138.6879  152.2950 H   0  0  0  0  0  0  0  0  0  0  0  0
  1  2  1  0  0  0  0
  1 12  1  0  0  0  0
  1 13  1  0  0  0  0
  1 24  1  0  0  0  0
  2  3  1  0  0  0  0
  2  5  1  0  0  0  0
  2 14  1  0  0  0  0
  3  4  1  0  0  0  0
  3 15  1  0  0  0  0
  3 16  1  0  0  0  0
  4 17  1  0  0  0  0
  5  6  1  0  0  0  0
  5 18  1  0  0  0  0
  5 19  1  0  0  0  0
  6 11  1  0  0  0  0
  6  7  2  0  0  0  0
  7  8  1  0  0  0  0
  7 20  1  0  0  0  0
  8  9  2  0  0  0  0
  8 21  1  0  0  0  0
  9 10  1  0  0  0  0
  9 22  1  0  0  0  0
 10 11  2  0  0  0  0
 11 23  1  0  0  0  0
M  CHG  1   1   1
M  END
> <s_m_source_file>
AV-unprocessed.smi

> <i_m_source_file_index>
3015

> <i_lp_mmshare_version>
43012

> <i_f3d_flags>
0

> <s_epik_input>
W09IXVtDSDJdW0NAQEhdKFtOSDJdKVtDSDJdYzFbY0hdW2NIXVtjSF1uW2NIXTE=

> <s_epik_cmdline>
J2VwaWtfcHl0aG9uJywgJy1waCcsICc3LjAnLCAnLXRuJywgJzgnLCAnLW1hJywgJzIwMCcsICctbWV0YWxfYmluZGluZycsICctaW1hZScsICc8aW5maWxlLm1hZT4nLCAnLW9tYWUnLCAnPG91dGZpbGUubWFlPic=

> <r_epik_Ionization_Penalty>
0.0193991

> <r_epik_Ionization_Penalty_Charging>
0.0188044

> <r_epik_Ionization_Penalty_Neutral>
0.000594726

> <r_epik_State_Penalty>
0.00921718

> <r_epik_Charging_Adjusted_Penalty>
0.0280216

> <i_epik_Tot_Q>
1

> <i_epik_Tot_abs_Q>
1

> <r_epik_Metal_State_Penalty>
0.00867471

> <b_epik_Metal_Only>
0

> <s_lp_Force_Field>
OPLS_2005

> <r_lp_Energy>
6.76442

> <b_lp_Chiralities_Consistent>
1

> <s_lp_Variant>
AV-unprocessed.smi:3015-2

> <Gold.Version>
5.8.1

> <Gold.Id.Protein>
6NUR|6NUR_protein|mol2

> <Gold.PLP.Fitness>
38.2767

> <Gold.PLP.PLP>
-20.8544

> <Gold.PLP.part.hbond>
-3.0000

> <Gold.PLP.part.metal>
0.0000

> <Gold.PLP.part.buried>
-4.7017

> <Gold.PLP.part.nonpolar>
-14.0667

> <Gold.PLP.part.repulsive>
0.1754

> <Gold.PLP.ligand.clash>
0.0000

> <Gold.PLP.ligand.torsion>
0.2825

> <Gold.PLP.Chemscore.Hbond>
3.9920

> <Gold.PLP.Chemscore.CHOScore>
2.0000

> <Gold.PLP.Chemscore.Metal>
0.0000

> <Gold.Chemscore.Hbonds>
donor molecule, donor type, donor heavy atom, donor atom, acceptor molecule, acceptor atom, score
      L1  H     1    12       P1 10171  0.82
      L1  H     1    24       P1 10175  2.00
      L1  H     4    17       P1 10175  1.00
      L1  C     9    22       P1 10747  1.00
      L1  C    11    23       P1 10186  1.00

> <Gold.PLP.Chemscore.Internal.Correction>
0.0113

> <Gold.Rescore>
     Score         DG    S(hbond)    S(metal)    S(lipo)     H(rot)  DE(clash)    DE(int)     intcor
     14.18     -14.49       2.88        0.00      41.56       2.14       0.02       0.29       ----

> <Gold.Chemscore.Fitness>
14.1789

> <Gold.Chemscore.DG>
-14.4923

> <Gold.Chemscore.ZeroCoef>
-5.4800

> <Gold.Chemscore.Hbond>
2.8832

> <Gold.Chemscore.Metal>
0.0000

> <Gold.Chemscore.Lipo>
41.5563

> <Gold.Chemscore.Internal_Hbond>
0.0000

> <Gold.Chemscore.DEClash>
0.0234

> <Gold.Chemscore.DEInternal>
0.2899

> <Gold.Chemscore.Rot>
2.1405

> <Gold.Chemscore.Internal.Correction>
   9.000000E+99

> <Gold.Chemscore.Hbonds>
donor molecule, donor type, donor heavy atom, donor atom, acceptor molecule, acceptor atom, score
      L1  H     1    12       P1 10171  0.79
      L1  H     1    24       P1 10175  0.98
      L1  H     4    17       P1 10175  0.93

> <Gold.Chemscore.Hbond.Weighted>
-9.6299

> <Gold.Chemscore.Metal.Weighted>
-0.0000

> <Gold.Chemscore.Lipo.Weighted>
-4.8621

> <Gold.Chemscore.Internal_Hbond.Weighted>
0.0000

> <Gold.Chemscore.DEClash.Weighted>
0.0234

> <Gold.Chemscore.DEInternal.Weighted>
0.2899

> <Gold.Chemscore.Rot.Weighted>
5.4797

> <Gold.Chemscore.Internal.Correction.Weighted>
   9.000000E+99

> <Gold.Protein.RotatedTorsions>
[ 6907 6896 6895 6894 ] final   56.26 input  -60.11 | X-H torsion
[ 7974 7965 7964 7962 ] final  -65.38 input  175.53 | X-H torsion
[ 8008 7997 7996 7995 ] final -109.15 input   59.86 | X-H torsion
[ 10167 10162 10161 10158 ] final -136.28 input  -65.29 | X-H torsion
[ 10718 10713 10712 10709 ] final -126.90 input   66.30 | X-H torsion
[ 10763 10752 10751 10750 ] final   82.60 input  -60.55 | X-H torsion
[ 11005 11000 10999 10996 ] final   46.50 input  -57.11 | X-H torsion

> <Gold.Protein.ActiveResidues>
 VAL166  LYS551  ARG553  GLY616  TRP617  ASP618  TYR619  PRO620  LYS621  CYS622 
 ASP623  PHE694  ASN695  SER759  ASP760  ASP761  ALA762  ILE779  LEU786  VAL792 
 PHE793  MET794  SER795  GLU796  ALA797  LYS798  CYS799  TRP800  GLU811  SER814 

> <Gold.Protein.RotatedAtoms>
  152.3619  134.6859  160.0204 H   0  0  0  0  0  0  0  0  0  0  0  0  # atno 6907 bound_to 6896
  151.7180  133.3308  159.3316 H   0  0  0  0  0  0  0  0  0  0  0  0  # atno 6908 bound_to 6896
  150.7611  134.6408  159.6280 H   0  0  0  0  0  0  0  0  0  0  0  0  # atno 6909 bound_to 6896
  145.7550  140.8890  143.0460 H   0  0  0  0  0  0  0  0  0  0  0  0  # atno 7974 bound_to 7965
  154.9549  140.0400  157.2162 H   0  0  0  0  0  0  0  0  0  0  0  0  # atno 8008 bound_to 7997
  154.7943  140.2841  155.5946 H   0  0  0  0  0  0  0  0  0  0  0  0  # atno 8009 bound_to 7997
  156.2953  140.2567  156.2798 H   0  0  0  0  0  0  0  0  0  0  0  0  # atno 8010 bound_to 7997
  139.8694  143.6977  152.2641 H   0  0  0  0  0  0  0  0  0  0  0  0  # atno 10167 bound_to 10162
  156.1807  130.6730  151.0301 H   0  0  0  0  0  0  0  0  0  0  0  0  # atno 10718 bound_to 10713
  153.1217  135.4722  154.9206 H   0  0  0  0  0  0  0  0  0  0  0  0  # atno 10763 bound_to 10752
  154.7582  135.3124  154.8432 H   0  0  0  0  0  0  0  0  0  0  0  0  # atno 10764 bound_to 10752
  153.8995  135.6876  153.4810 H   0  0  0  0  0  0  0  0  0  0  0  0  # atno 10765 bound_to 10752
  140.1364  134.4640  155.8482 H   0  0  0  0  0  0  0  0  0  0  0  0  # atno 11005 bound_to 11000
  144.6842  139.9643  143.7481 LP  0  0  0  0  0  0  0  0  0  0  0  0  # atno 17320 bound_to 7965
  146.0320  139.3343  143.0749 LP  0  0  0  0  0  0  0  0  0  0  0  0  # atno 17321 bound_to 7965
  139.7298  144.7585  151.0819 LP  0  0  0  0  0  0  0  0  0  0  0  0  # atno 17342 bound_to 10162
  140.7763  143.5102  150.9662 LP  0  0  0  0  0  0  0  0  0  0  0  0  # atno 17343 bound_to 10162
  157.6866  131.0823  150.7225 LP  0  0  0  0  0  0  0  0  0  0  0  0  # atno 17370 bound_to 10713
  156.7282  130.4701  149.5506 LP  0  0  0  0  0  0  0  0  0  0  0  0  # atno 17371 bound_to 10713
  141.2179  133.6815  156.7164 LP  0  0  0  0  0  0  0  0  0  0  0  0  # atno 17394 bound_to 11000
  140.2777  134.8341  157.3905 LP  0  0  0  0  0  0  0  0  0  0  0  0  # atno 17395 bound_to 11000

$$$$
