AV-unprocessed.smi:3341|AV-procd|sdf|12886|dock1
  -GOLD-   2272019293D 1   1.00000     0.00000
 Structure written by MMmdl.
 46 47  0  0  0  0  0  0  0  0  2 V2000
  149.9978  142.8606  158.1588 C   0  0  0  0  0  0  0  0  0  0  0  0
  151.1454  142.6218  157.1708 C   0  0  0  0  0  0  0  0  0  0  0  0
  150.8247  141.5730  156.2227 N   0  0  0  0  0  0  0  0  0  0  0  0
  149.8017  141.5451  155.2959 C   0  0  0  0  0  0  0  0  0  0  0  0
  149.9191  140.3456  154.6523 C   0  0  0  0  0  0  0  0  0  0  0  0
  149.1277  139.8031  153.6083 N   0  0  0  0  0  0  0  0  0  0  0  0
  147.9322  139.2016  153.7205 C   0  0  0  0  0  0  0  0  0  0  0  0
  147.3304  139.0107  154.7776 O   0  0  0  0  0  0  0  0  0  0  0  0
  147.4575  138.8285  152.5234 N   0  0  0  0  0  0  0  0  0  0  0  0
  146.1830  138.1531  152.3067 C   0  0  0  0  0  0  0  0  0  0  0  0
  146.1005  136.8341  153.1002 C   0  0  0  0  0  0  0  0  0  0  0  0
  146.1376  135.6370  152.2227 N   0  3  2  0  0  0  0  0  0  0  0  0
  145.0659  135.6672  151.1937 C   0  0  0  0  0  0  0  0  0  0  0  0
  145.2009  134.4904  150.2148 C   0  0  0  0  0  0  0  0  0  0  0  0
  145.1974  133.1518  150.9633 C   0  0  0  0  0  0  0  0  0  0  0  0
  146.2933  133.1422  152.0419 C   0  0  2  0  0  0  0  0  0  0  0  0
  146.2971  131.8219  152.8257 C   0  0  0  0  0  0  0  0  0  0  0  0
  146.1309  134.3555  152.9800 C   0  0  0  0  0  0  0  0  0  0  0  0
  151.0353  139.6973  155.2424 C   0  0  0  0  0  0  0  0  0  0  0  0
  151.5766  140.4447  156.1924 N   0  0  0  0  0  0  0  0  0  0  0  0
  150.2481  143.6579  158.8586 H   0  0  0  0  0  0  0  0  0  0  0  0
  149.7836  141.9629  158.7394 H   0  0  0  0  0  0  0  0  0  0  0  0
  149.0845  143.1494  157.6377 H   0  0  0  0  0  0  0  0  0  0  0  0
  151.3628  143.5361  156.6175 H   0  0  0  0  0  0  0  0  0  0  0  0
  152.0569  142.3502  157.7052 H   0  0  0  0  0  0  0  0  0  0  0  0
  149.1044  142.3627  155.1879 H   0  0  0  0  0  0  0  0  0  0  0  0
  149.5110  139.8887  152.6783 H   0  0  0  0  0  0  0  0  0  0  0  0
  148.0187  139.0220  151.7066 H   0  0  0  0  0  0  0  0  0  0  0  0
  145.3854  138.8261  152.6220 H   0  0  0  0  0  0  0  0  0  0  0  0
  146.0467  137.9899  151.2373 H   0  0  0  0  0  0  0  0  0  0  0  0
  146.9001  136.7660  153.8396 H   0  0  0  0  0  0  0  0  0  0  0  0
  145.1647  136.8401  153.6613 H   0  0  0  0  0  0  0  0  0  0  0  0
  144.0903  135.6414  151.6821 H   0  0  0  0  0  0  0  0  0  0  0  0
  145.1164  136.6021  150.6339 H   0  0  0  0  0  0  0  0  0  0  0  0
  144.3866  134.5133  149.4900 H   0  0  0  0  0  0  0  0  0  0  0  0
  146.1253  134.5910  149.6443 H   0  0  0  0  0  0  0  0  0  0  0  0
  144.2207  132.9910  151.4223 H   0  0  0  0  0  0  0  0  0  0  0  0
  145.3498  132.3329  150.2594 H   0  0  0  0  0  0  0  0  0  0  0  0
  147.2594  133.2292  151.5423 H   0  0  0  0  0  0  0  0  0  0  0  0
  145.3571  131.6736  153.3585 H   0  0  0  0  0  0  0  0  0  0  0  0
  147.1025  131.8030  153.5605 H   0  0  0  0  0  0  0  0  0  0  0  0
  146.4398  130.9704  152.1599 H   0  0  0  0  0  0  0  0  0  0  0  0
  146.9407  134.3469  153.7085 H   0  0  0  0  0  0  0  0  0  0  0  0
  145.2010  134.2737  153.5455 H   0  0  0  0  0  0  0  0  0  0  0  0
  151.4616  138.7304  155.0189 H   0  0  0  0  0  0  0  0  0  0  0  0
  147.0119  135.6776  151.7183 H   0  0  0  0  0  0  0  0  0  0  0  0
  1  2  1  0  0  0  0
  1 21  1  0  0  0  0
  1 22  1  0  0  0  0
  1 23  1  0  0  0  0
  2  3  1  0  0  0  0
  2 24  1  0  0  0  0
  2 25  1  0  0  0  0
  3 20  1  0  0  0  0
  3  4  1  0  0  0  0
  4  5  2  0  0  0  0
  4 26  1  0  0  0  0
  5  6  1  0  0  0  0
  5 19  1  0  0  0  0
  6  7  1  0  0  0  0
  6 27  1  0  0  0  0
  7  8  2  0  0  0  0
  7  9  1  0  0  0  0
  9 10  1  0  0  0  0
  9 28  1  0  0  0  0
 10 11  1  0  0  0  0
 10 29  1  0  0  0  0
 10 30  1  0  0  0  0
 11 12  1  0  0  0  0
 11 31  1  0  0  0  0
 11 32  1  0  0  0  0
 12 18  1  0  0  0  0
 12 13  1  0  0  0  0
 12 46  1  0  0  0  0
 13 14  1  0  0  0  0
 13 33  1  0  0  0  0
 13 34  1  0  0  0  0
 14 15  1  0  0  0  0
 14 35  1  0  0  0  0
 14 36  1  0  0  0  0
 15 16  1  0  0  0  0
 15 37  1  0  0  0  0
 15 38  1  0  0  0  0
 16 17  1  0  0  0  0
 16 18  1  0  0  0  0
 16 39  1  0  0  0  0
 17 40  1  0  0  0  0
 17 41  1  0  0  0  0
 17 42  1  0  0  0  0
 18 43  1  0  0  0  0
 18 44  1  0  0  0  0
 19 20  2  0  0  0  0
 19 45  1  0  0  0  0
M  CHG  1  12   1
M  END
> <s_m_source_file>
AV-unprocessed.smi

> <i_m_source_file_index>
3341

> <i_lp_mmshare_version>
43012

> <i_f3d_flags>
0

> <s_epik_input>
W0NIM11bQ0gyXW4xW2NIXWMoW2NIXW4xKVtOSF1DKD1PKVtOSF1bQ0gyXVtDSDJdTjJbQ0gyXVtDSDJdW0NIMl1bQ0BASF0oW0NIM10pW0NIMl0y

> <s_epik_cmdline>
J2VwaWtfcHl0aG9uJywgJy1waCcsICc3LjAnLCAnLXRuJywgJzgnLCAnLW1hJywgJzIwMCcsICctbWV0YWxfYmluZGluZycsICctaW1hZScsICc8aW5maWxlLm1hZT4nLCAnLW9tYWUnLCAnPG91dGZpbGUubWFlPic=

> <r_lp_tautomer_probability>
1

> <r_epik_Ionization_Penalty>
0.00203389

> <r_epik_Ionization_Penalty_Charging>
0.00188267

> <r_epik_Ionization_Penalty_Neutral>
0.000151224

> <r_epik_State_Penalty>
0.0012808

> <r_epik_Charging_Adjusted_Penalty>
0.00316346

> <i_epik_Tot_Q>
1

> <i_epik_Tot_abs_Q>
1

> <r_epik_Metal_State_Penalty>
-0

> <b_epik_Metal_Only>
0

> <s_lp_Force_Field>
OPLS_2005

> <r_lp_Energy>
20.62

> <b_lp_Chiralities_Consistent>
1

> <s_lp_Variant>
AV-unprocessed.smi:3341-4

> <Gold.Version>
5.8.1

> <Gold.Id.Protein>
6NUR|6NUR_protein|mol2

> <Gold.PLP.Fitness>
47.2499

> <Gold.PLP.PLP>
-35.2641

> <Gold.PLP.part.hbond>
-4.0000

> <Gold.PLP.part.metal>
0.0000

> <Gold.PLP.part.buried>
-1.0191

> <Gold.PLP.part.nonpolar>
-30.5897

> <Gold.PLP.part.repulsive>
0.2828

> <Gold.PLP.ligand.clash>
0.0000

> <Gold.PLP.ligand.torsion>
1.0931

> <Gold.PLP.Chemscore.Hbond>
3.6880

> <Gold.PLP.Chemscore.CHOScore>
1.0000

> <Gold.PLP.Chemscore.Metal>
0.0000

> <Gold.Chemscore.Hbonds>
donor molecule, donor type, donor heavy atom, donor atom, acceptor molecule, acceptor atom, score
      L1  H     6    27       P1  7957  0.99
      L1  H     9    28       P1  7957  0.85
      L1  H    12    46       P1  7948  1.82
      L1  C     4    26       P1  8028  1.00

> <Gold.PLP.Chemscore.Internal.Correction>
0.1080

> <Gold.Rescore>
     Score         DG    S(hbond)    S(metal)    S(lipo)     H(rot)  DE(clash)    DE(int)     intcor
     18.29     -20.96       2.95        0.00      82.92       1.59       1.61       1.06       ----

> <Gold.Chemscore.Fitness>
18.2893

> <Gold.Chemscore.DG>
-20.9631

> <Gold.Chemscore.ZeroCoef>
-5.4800

> <Gold.Chemscore.Hbond>
2.9503

> <Gold.Chemscore.Metal>
0.0000

> <Gold.Chemscore.Lipo>
82.9228

> <Gold.Chemscore.Internal_Hbond>
0.0000

> <Gold.Chemscore.DEClash>
1.6104

> <Gold.Chemscore.DEInternal>
1.0634

> <Gold.Chemscore.Rot>
1.5909

> <Gold.Chemscore.Internal.Correction>
   9.000000E+99

> <Gold.Chemscore.Hbonds>
donor molecule, donor type, donor heavy atom, donor atom, acceptor molecule, acceptor atom, score
      L1  H     6    27       P1  7957  0.92
      L1  H     9    28       P1  7957  0.77
      L1  H    12    46       P1  7948  0.86

> <Gold.Chemscore.Hbond.Weighted>
-9.8539

> <Gold.Chemscore.Metal.Weighted>
-0.0000

> <Gold.Chemscore.Lipo.Weighted>
-9.7020

> <Gold.Chemscore.Internal_Hbond.Weighted>
0.0000

> <Gold.Chemscore.DEClash.Weighted>
1.6104

> <Gold.Chemscore.DEInternal.Weighted>
1.0634

> <Gold.Chemscore.Rot.Weighted>
4.0728

> <Gold.Chemscore.Internal.Correction.Weighted>
   9.000000E+99

> <Gold.Protein.RotatedTorsions>
[ 6907 6896 6895 6894 ] final   71.69 input  -60.11 | X-H torsion
[ 7974 7965 7964 7962 ] final  -14.21 input  175.53 | X-H torsion
[ 8008 7997 7996 7995 ] final  100.10 input   59.86 | X-H torsion
[ 10167 10162 10161 10158 ] final  165.39 input  -65.29 | X-H torsion
[ 10718 10713 10712 10709 ] final  102.75 input   66.30 | X-H torsion
[ 10763 10752 10751 10750 ] final   -8.22 input  -60.55 | X-H torsion
[ 11005 11000 10999 10996 ] final -116.80 input  -57.11 | X-H torsion

> <Gold.Protein.ActiveResidues>
 VAL166  LYS551  ARG553  GLY616  TRP617  ASP618  TYR619  PRO620  LYS621  CYS622 
 ASP623  PHE694  ASN695  SER759  ASP760  ASP761  ALA762  ILE779  LEU786  VAL792 
 PHE793  MET794  SER795  GLU796  ALA797  LYS798  CYS799  TRP800  GLU811  SER814 

> <Gold.Protein.RotatedAtoms>
  152.4824  134.4683  159.9627 H   0  0  0  0  0  0  0  0  0  0  0  0  # atno 6907 bound_to 6896
  151.4686  133.3568  159.2828 H   0  0  0  0  0  0  0  0  0  0  0  0  # atno 6908 bound_to 6896
  150.8908  134.8336  159.7352 H   0  0  0  0  0  0  0  0  0  0  0  0  # atno 6909 bound_to 6896
  146.2083  140.3316  142.8399 H   0  0  0  0  0  0  0  0  0  0  0  0  # atno 7974 bound_to 7965
  156.1170  140.3218  155.8154 H   0  0  0  0  0  0  0  0  0  0  0  0  # atno 8008 bound_to 7997
  155.4572  140.0536  157.3012 H   0  0  0  0  0  0  0  0  0  0  0  0  # atno 8009 bound_to 7997
  154.4800  140.2049  155.9800 H   0  0  0  0  0  0  0  0  0  0  0  0  # atno 8010 bound_to 7997
  139.4905  144.4137  151.9269 H   0  0  0  0  0  0  0  0  0  0  0  0  # atno 10167 bound_to 10162
  157.6793  131.0761  150.5452 H   0  0  0  0  0  0  0  0  0  0  0  0  # atno 10718 bound_to 10713
  153.4373  135.7013  153.6191 H   0  0  0  0  0  0  0  0  0  0  0  0  # atno 10763 bound_to 10752
  153.4581  135.3742  155.2322 H   0  0  0  0  0  0  0  0  0  0  0  0  # atno 10764 bound_to 10752
  154.8727  135.4013  154.3767 H   0  0  0  0  0  0  0  0  0  0  0  0  # atno 10765 bound_to 10752
  141.0398  133.9854  157.3013 H   0  0  0  0  0  0  0  0  0  0  0  0  # atno 11005 bound_to 11000
  144.8848  140.7448  143.5963 LP  0  0  0  0  0  0  0  0  0  0  0  0  # atno 17320 bound_to 7965
  145.3237  139.1780  143.4574 LP  0  0  0  0  0  0  0  0  0  0  0  0  # atno 17321 bound_to 7965
  140.3579  144.3009  150.5938 LP  0  0  0  0  0  0  0  0  0  0  0  0  # atno 17342 bound_to 10162
  140.5429  143.2220  151.8056 LP  0  0  0  0  0  0  0  0  0  0  0  0  # atno 17343 bound_to 10162
  156.5758  130.4291  149.5999 LP  0  0  0  0  0  0  0  0  0  0  0  0  # atno 17370 bound_to 10713
  156.2703  130.7013  151.1808 LP  0  0  0  0  0  0  0  0  0  0  0  0  # atno 17371 bound_to 10713
  139.9267  135.0201  156.8259 LP  0  0  0  0  0  0  0  0  0  0  0  0  # atno 17394 bound_to 11000
  140.6256  133.9953  155.7638 LP  0  0  0  0  0  0  0  0  0  0  0  0  # atno 17395 bound_to 11000

$$$$
