AV-unprocessed.smi:3024|AV-procd|sdf|11504|dock1
  -GOLD-   2272016443D 1   1.00000     0.00000
 Structure written by MMmdl.
 31 32  0  0  0  0  0  0  0  0  1 V2000
  145.4080  138.1281  153.6317 O   0  0  0  0  0  0  0  0  0  0  0  0
  146.3802  137.6264  153.0682 C   0  0  0  0  0  0  0  0  0  0  0  0
  146.3336  136.4525  152.4234 N   0  0  0  0  0  0  0  0  0  0  0  0
  145.1512  135.6070  152.3045 C   0  0  0  0  0  0  0  0  0  0  0  0
  145.2282  134.6944  151.0691 C   0  0  1  0  0  0  0  0  0  0  0  0
  146.3912  133.7028  151.1017 C   0  0  0  0  0  0  0  0  0  0  0  0
  145.8911  132.5265  150.2745 C   0  0  0  0  0  0  0  0  0  0  0  0
  144.4057  132.8243  150.0556 C   0  0  0  0  0  0  0  0  0  0  0  0
  144.0985  133.8386  150.9999 O   0  0  0  0  0  0  0  0  0  0  0  0
  147.6165  138.1522  153.0252 N   0  0  0  0  0  0  0  0  0  0  0  0
  148.0904  139.3699  153.5854 C   0  0  0  0  0  0  0  0  0  0  0  0
  147.3131  140.5453  153.7296 C   0  0  0  0  0  0  0  0  0  0  0  0
  147.9107  141.6907  154.2902 C   0  0  0  0  0  0  0  0  0  0  0  0
  149.2625  141.6230  154.6791 C   0  0  0  0  0  0  0  0  0  0  0  0
  150.0185  140.5144  154.5367 N   0  0  0  0  0  0  0  0  0  0  0  0
  149.4387  139.4201  153.9989 C   0  0  0  0  0  0  0  0  0  0  0  0
  147.1810  136.1093  151.9954 H   0  0  0  0  0  0  0  0  0  0  0  0
  145.0332  135.0087  153.2096 H   0  0  0  0  0  0  0  0  0  0  0  0
  144.2737  136.2512  152.2418 H   0  0  0  0  0  0  0  0  0  0  0  0
  145.2811  135.2867  150.1535 H   0  0  0  0  0  0  0  0  0  0  0  0
  147.3141  134.1334  150.7120 H   0  0  0  0  0  0  0  0  0  0  0  0
  146.5820  133.3725  152.1239 H   0  0  0  0  0  0  0  0  0  0  0  0
  146.4170  132.4436  149.3229 H   0  0  0  0  0  0  0  0  0  0  0  0
  146.0311  131.5915  150.8181 H   0  0  0  0  0  0  0  0  0  0  0  0
  144.2356  133.2098  149.0492 H   0  0  0  0  0  0  0  0  0  0  0  0
  143.7747  131.9464  150.1951 H   0  0  0  0  0  0  0  0  0  0  0  0
  148.3201  137.5840  152.5768 H   0  0  0  0  0  0  0  0  0  0  0  0
  146.2834  140.6001  153.4140 H   0  0  0  0  0  0  0  0  0  0  0  0
  147.3458  142.6027  154.4151 H   0  0  0  0  0  0  0  0  0  0  0  0
  149.7511  142.4839  155.1106 H   0  0  0  0  0  0  0  0  0  0  0  0
  150.0749  138.5527  153.8989 H   0  0  0  0  0  0  0  0  0  0  0  0
  1  2  2  0  0  0  0
  2  3  1  0  0  0  0
  2 10  1  0  0  0  0
  3  4  1  0  0  0  0
  3 17  1  0  0  0  0
  4  5  1  0  0  0  0
  4 18  1  0  0  0  0
  4 19  1  0  0  0  0
  5  9  1  0  0  0  0
  5  6  1  0  0  0  0
  5 20  1  0  0  0  0
  6  7  1  0  0  0  0
  6 21  1  0  0  0  0
  6 22  1  0  0  0  0
  7  8  1  0  0  0  0
  7 23  1  0  0  0  0
  7 24  1  0  0  0  0
  8  9  1  0  0  0  0
  8 25  1  0  0  0  0
  8 26  1  0  0  0  0
 10 11  1  0  0  0  0
 10 27  1  0  0  0  0
 11 16  1  0  0  0  0
 11 12  2  0  0  0  0
 12 13  1  0  0  0  0
 12 28  1  0  0  0  0
 13 14  2  0  0  0  0
 13 29  1  0  0  0  0
 14 15  1  0  0  0  0
 14 30  1  0  0  0  0
 15 16  2  0  0  0  0
 16 31  1  0  0  0  0
M  END
> <s_m_source_file>
AV-unprocessed.smi

> <i_m_source_file_index>
3024

> <i_lp_mmshare_version>
43012

> <i_f3d_flags>
0

> <s_epik_input>
W2NIXTFuW2NIXVtjSF1bY0hdYzFbTkhdQyg9TylbTkhdW0NIMl1bQ0BASF0yW0NIMl1bQ0gyXVtDSDJdTzI=

> <s_epik_cmdline>
J2VwaWtfcHl0aG9uJywgJy1waCcsICc3LjAnLCAnLXRuJywgJzgnLCAnLW1hJywgJzIwMCcsICctbWV0YWxfYmluZGluZycsICctaW1hZScsICc8aW5maWxlLm1hZT4nLCAnLW9tYWUnLCAnPG91dGZpbGUubWFlPic=

> <r_epik_Ionization_Penalty>
0.00471982

> <r_epik_Ionization_Penalty_Charging>
0

> <r_epik_Ionization_Penalty_Neutral>
0.00471982

> <r_epik_State_Penalty>
0.00339234

> <r_epik_Charging_Adjusted_Penalty>
0.00339234

> <i_epik_Tot_Q>
0

> <i_epik_Tot_abs_Q>
0

> <r_epik_Metal_State_Penalty>
-0

> <b_epik_Metal_Only>
0

> <s_lp_Force_Field>
OPLS_2005

> <r_lp_Energy>
19.1473

> <b_lp_Chiralities_Consistent>
1

> <s_lp_Variant>
AV-unprocessed.smi:3024-2

> <Gold.Version>
5.8.1

> <Gold.Id.Protein>
6NUR|6NUR_protein|mol2

> <Gold.PLP.Fitness>
39.1428

> <Gold.PLP.PLP>
-28.2397

> <Gold.PLP.part.hbond>
-3.2092

> <Gold.PLP.part.metal>
0.0000

> <Gold.PLP.part.buried>
-1.0379

> <Gold.PLP.part.nonpolar>
-25.4731

> <Gold.PLP.part.repulsive>
1.3063

> <Gold.PLP.ligand.clash>
0.0000

> <Gold.PLP.ligand.torsion>
0.3813

> <Gold.PLP.Chemscore.Hbond>
2.8880

> <Gold.PLP.Chemscore.CHOScore>
0.9978

> <Gold.PLP.Chemscore.Metal>
0.0000

> <Gold.Chemscore.Hbonds>
donor molecule, donor type, donor heavy atom, donor atom, acceptor molecule, acceptor atom, score
      L1  H     3    17       P1  7948  0.98
      L1  H    10    27       P1  7948  1.00
      P1  H  7989  7998       L1    15  0.86
      L1  C    14    30       P1  8028  1.00

> <Gold.PLP.Chemscore.Internal.Correction>
0.0084

> <Gold.Rescore>
     Score         DG    S(hbond)    S(metal)    S(lipo)     H(rot)  DE(clash)    DE(int)     intcor
     16.36     -18.01       2.29        0.00      68.72       1.24       0.51       1.14       ----

> <Gold.Chemscore.Fitness>
16.3619

> <Gold.Chemscore.DG>
-18.0096

> <Gold.Chemscore.ZeroCoef>
-5.4800

> <Gold.Chemscore.Hbond>
2.2937

> <Gold.Chemscore.Metal>
0.0000

> <Gold.Chemscore.Lipo>
68.7203

> <Gold.Chemscore.Internal_Hbond>
0.0000

> <Gold.Chemscore.DEClash>
0.5073

> <Gold.Chemscore.DEInternal>
1.1404

> <Gold.Chemscore.Rot>
1.2390

> <Gold.Chemscore.Internal.Correction>
   9.000000E+99

> <Gold.Chemscore.Hbonds>
donor molecule, donor type, donor heavy atom, donor atom, acceptor molecule, acceptor atom, score
      L1  H     3    17       P1  7948  0.93
      L1  H    10    27       P1  7948  0.99
      P1  H  7989  7998       L1    15  0.40

> <Gold.Chemscore.Hbond.Weighted>
-7.6611

> <Gold.Chemscore.Metal.Weighted>
-0.0000

> <Gold.Chemscore.Lipo.Weighted>
-8.0403

> <Gold.Chemscore.Internal_Hbond.Weighted>
0.0000

> <Gold.Chemscore.DEClash.Weighted>
0.5073

> <Gold.Chemscore.DEInternal.Weighted>
1.1404

> <Gold.Chemscore.Rot.Weighted>
3.1718

> <Gold.Chemscore.Internal.Correction.Weighted>
   9.000000E+99

> <Gold.Protein.RotatedTorsions>
[ 6907 6896 6895 6894 ] final    1.88 input  -60.11 | X-H torsion
[ 7974 7965 7964 7962 ] final   42.09 input  175.53 | X-H torsion
[ 8008 7997 7996 7995 ] final -102.16 input   59.86 | X-H torsion
[ 10167 10162 10161 10158 ] final  100.71 input  -65.29 | X-H torsion
[ 10718 10713 10712 10709 ] final  -80.60 input   66.30 | X-H torsion
[ 10763 10752 10751 10750 ] final  117.01 input  -60.55 | X-H torsion
[ 11005 11000 10999 10996 ] final   20.12 input  -57.11 | X-H torsion

> <Gold.Protein.ActiveResidues>
 VAL166  LYS551  ARG553  GLY616  TRP617  ASP618  TYR619  PRO620  LYS621  CYS622 
 ASP623  PHE694  ASN695  SER759  ASP760  ASP761  ALA762  ILE779  LEU786  VAL792 
 PHE793  MET794  SER795  GLU796  ALA797  LYS798  CYS799  TRP800  GLU811  SER814 

> <Gold.Protein.RotatedAtoms>
  151.5999  135.1048  160.0057 H   0  0  0  0  0  0  0  0  0  0  0  0  # atno 6907 bound_to 6896
  152.4263  133.7197  159.6537 H   0  0  0  0  0  0  0  0  0  0  0  0  # atno 6908 bound_to 6896
  150.8152  133.8277  159.3186 H   0  0  0  0  0  0  0  0  0  0  0  0  # atno 6909 bound_to 6896
  146.0770  139.5341  142.9561 H   0  0  0  0  0  0  0  0  0  0  0  0  # atno 7974 bound_to 7965
  154.8528  140.0430  157.1615 H   0  0  0  0  0  0  0  0  0  0  0  0  # atno 8008 bound_to 7997
  154.8924  140.2988  155.5342 H   0  0  0  0  0  0  0  0  0  0  0  0  # atno 8009 bound_to 7997
  156.2996  140.2391  156.3942 H   0  0  0  0  0  0  0  0  0  0  0  0  # atno 8010 bound_to 7997
  139.7503  144.6986  151.0442 H   0  0  0  0  0  0  0  0  0  0  0  0  # atno 10167 bound_to 10162
  156.0067  130.4579  150.3826 H   0  0  0  0  0  0  0  0  0  0  0  0  # atno 10718 bound_to 10713
  153.5459  135.3549  155.2738 H   0  0  0  0  0  0  0  0  0  0  0  0  # atno 10763 bound_to 10752
  154.8712  135.4102  154.2991 H   0  0  0  0  0  0  0  0  0  0  0  0  # atno 10764 bound_to 10752
  153.3708  135.7064  153.6708 H   0  0  0  0  0  0  0  0  0  0  0  0  # atno 10765 bound_to 10752
  140.4061  134.1667  155.7665 H   0  0  0  0  0  0  0  0  0  0  0  0  # atno 11005 bound_to 11000
  145.6288  141.0308  143.1874 LP  0  0  0  0  0  0  0  0  0  0  0  0  # atno 17320 bound_to 7965
  144.7268  139.7851  143.7362 LP  0  0  0  0  0  0  0  0  0  0  0  0  # atno 17321 bound_to 7965
  140.7797  143.4817  151.0009 LP  0  0  0  0  0  0  0  0  0  0  0  0  # atno 17342 bound_to 10162
  139.8505  143.7445  152.3178 LP  0  0  0  0  0  0  0  0  0  0  0  0  # atno 17343 bound_to 10162
  157.1905  131.0414  151.2703 LP  0  0  0  0  0  0  0  0  0  0  0  0  # atno 17370 bound_to 10713
  157.4066  130.7362  149.6807 LP  0  0  0  0  0  0  0  0  0  0  0  0  # atno 17371 bound_to 10713
  141.1839  133.8356  157.1160 LP  0  0  0  0  0  0  0  0  0  0  0  0  # atno 17394 bound_to 11000
  140.0301  134.9905  157.0763 LP  0  0  0  0  0  0  0  0  0  0  0  0  # atno 17395 bound_to 11000

$$$$
