AV-unprocessed.smi:440|AV-procd|sdf|2581|dock10
  -GOLD-   2262022573D 1   1.00000     0.00000
 Structure written by MMmdl.
 41 42  0  0  0  0  0  0  0  0  1 V2000
  152.5234  138.6717  155.1369 C   0  0  0  0  0  0  0  0  0  0  0  0
  151.8214  139.6068  156.0799 C   0  0  0  0  0  0  0  0  0  0  0  0
  152.4984  140.1498  157.0767 N   0  0  0  0  0  0  0  0  0  0  0  0
  151.6025  140.9215  157.7262 N   0  0  0  0  0  0  0  0  0  0  0  0
  152.0308  141.6682  158.8997 C   0  0  0  0  0  0  0  0  0  0  0  0
  151.5782  143.1445  158.8830 C   0  0  0  0  0  0  0  0  0  0  0  0
  151.7290  143.7410  157.4761 C   0  0  0  0  0  0  0  0  0  0  0  0
  152.3080  144.0100  159.9253 C   0  0  0  0  0  0  0  0  0  0  0  0
  150.3564  140.8728  157.1277 C   0  0  0  0  0  0  0  0  0  0  0  0
  149.1846  141.6467  157.6417 C   0  0  0  0  0  0  0  0  0  0  0  0
  150.4588  140.0259  156.0563 C   0  0  0  0  0  0  0  0  0  0  0  0
  149.3922  139.6232  155.0694 C   0  0  0  0  0  0  0  0  0  0  0  0
  148.7233  140.8720  154.4948 C   0  0  0  0  0  0  0  0  0  0  0  0
  149.3682  141.6438  153.7852 O   0  0  0  0  0  0  0  0  0  0  0  0
  147.4311  141.0513  154.8070 N   0  0  0  0  0  0  0  0  0  0  0  0
  146.6084  142.1263  154.3573 C   0  0  0  0  0  0  0  0  0  0  0  0
  146.1609  143.1465  155.3815 C   0  0  0  0  0  0  0  0  0  0  0  0
  145.1729  142.1525  154.8359 C   0  0  0  0  0  0  0  0  0  0  0  0
  151.9768  137.7336  155.0389 H   0  0  0  0  0  0  0  0  0  0  0  0
  153.5304  138.4313  155.4800 H   0  0  0  0  0  0  0  0  0  0  0  0
  152.6089  139.1125  154.1437 H   0  0  0  0  0  0  0  0  0  0  0  0
  151.6447  141.1705  159.7910 H   0  0  0  0  0  0  0  0  0  0  0  0
  153.1173  141.6071  158.9673 H   0  0  0  0  0  0  0  0  0  0  0  0
  150.5165  143.1712  159.1294 H   0  0  0  0  0  0  0  0  0  0  0  0
  152.7724  143.7500  157.1595 H   0  0  0  0  0  0  0  0  0  0  0  0
  151.3616  144.7670  157.4412 H   0  0  0  0  0  0  0  0  0  0  0  0
  151.1634  143.1656  156.7425 H   0  0  0  0  0  0  0  0  0  0  0  0
  153.3870  143.9890  159.7697 H   0  0  0  0  0  0  0  0  0  0  0  0
  152.1104  143.6690  160.9416 H   0  0  0  0  0  0  0  0  0  0  0  0
  151.9841  145.0495  159.8674 H   0  0  0  0  0  0  0  0  0  0  0  0
  148.3446  141.5968  156.9491 H   0  0  0  0  0  0  0  0  0  0  0  0
  149.4374  142.6986  157.7747 H   0  0  0  0  0  0  0  0  0  0  0  0
  148.8489  141.2524  158.6005 H   0  0  0  0  0  0  0  0  0  0  0  0
  149.8056  139.0312  154.2521 H   0  0  0  0  0  0  0  0  0  0  0  0
  148.6334  138.9953  155.5377 H   0  0  0  0  0  0  0  0  0  0  0  0
  146.9899  140.3594  155.3951 H   0  0  0  0  0  0  0  0  0  0  0  0
  146.7823  142.5024  153.3500 H   0  0  0  0  0  0  0  0  0  0  0  0
  146.4911  143.0141  156.4103 H   0  0  0  0  0  0  0  0  0  0  0  0
  146.0676  144.1793  155.0521 H   0  0  0  0  0  0  0  0  0  0  0  0
  144.4201  142.5212  154.1420 H   0  0  0  0  0  0  0  0  0  0  0  0
  144.8428  141.3566  155.5014 H   0  0  0  0  0  0  0  0  0  0  0  0
  1  2  1  0  0  0  0
  1 19  1  0  0  0  0
  1 20  1  0  0  0  0
  1 21  1  0  0  0  0
  2 11  1  0  0  0  0
  2  3  2  0  0  0  0
  3  4  1  0  0  0  0
  4  5  1  0  0  0  0
  4  9  1  0  0  0  0
  5  6  1  0  0  0  0
  5 22  1  0  0  0  0
  5 23  1  0  0  0  0
  6  7  1  0  0  0  0
  6  8  1  0  0  0  0
  6 24  1  0  0  0  0
  7 25  1  0  0  0  0
  7 26  1  0  0  0  0
  7 27  1  0  0  0  0
  8 28  1  0  0  0  0
  8 29  1  0  0  0  0
  8 30  1  0  0  0  0
  9 10  1  0  0  0  0
  9 11  2  0  0  0  0
 10 31  1  0  0  0  0
 10 32  1  0  0  0  0
 10 33  1  0  0  0  0
 11 12  1  0  0  0  0
 12 13  1  0  0  0  0
 12 34  1  0  0  0  0
 12 35  1  0  0  0  0
 13 14  2  0  0  0  0
 13 15  1  0  0  0  0
 15 16  1  0  0  0  0
 15 36  1  0  0  0  0
 16 18  1  0  0  0  0
 16 17  1  0  0  0  0
 16 37  1  0  0  0  0
 17 18  1  0  0  0  0
 17 38  1  0  0  0  0
 17 39  1  0  0  0  0
 18 40  1  0  0  0  0
 18 41  1  0  0  0  0
M  END
> <s_m_source_file>
AV-unprocessed.smi

> <i_m_source_file_index>
440

> <i_lp_mmshare_version>
43012

> <i_f3d_flags>
0

> <s_epik_input>
W0NIM11jMW5uKFtDSDJdW0NIXShbQ0gzXSlbQ0gzXSljKFtDSDNdKWMxW0NIMl1DKD1PKVtOSF1bQ0hdMltDSDJdW0NIMl0y

> <s_epik_cmdline>
J2VwaWtfcHl0aG9uJywgJy1waCcsICc3LjAnLCAnLXRuJywgJzgnLCAnLW1hJywgJzIwMCcsICctbWV0YWxfYmluZGluZycsICctaW1hZScsICc8aW5maWxlLm1hZT4nLCAnLW9tYWUnLCAnPG91dGZpbGUubWFlPic=

> <r_lp_tautomer_probability>
1

> <r_epik_Ionization_Penalty>
0.00313774

> <r_epik_Ionization_Penalty_Charging>
0

> <r_epik_Ionization_Penalty_Neutral>
0.00313774

> <r_epik_State_Penalty>
0.00220979

> <r_epik_Charging_Adjusted_Penalty>
0.00220979

> <i_epik_Tot_Q>
0

> <i_epik_Tot_abs_Q>
0

> <r_epik_Metal_State_Penalty>
-0

> <b_epik_Metal_Only>
0

> <s_lp_Force_Field>
OPLS_2005

> <r_lp_Energy>
13.2521

> <b_lp_Chiralities_Consistent>
1

> <s_lp_Variant>
AV-unprocessed.smi:440-1

> <Gold.Version>
5.8.1

> <Gold.Id.Protein>
6NUR|6NUR_protein|mol2

> <Gold.PLP.Fitness>
39.9132

> <Gold.PLP.PLP>
-35.7570

> <Gold.PLP.part.hbond>
-2.9335

> <Gold.PLP.part.metal>
0.0000

> <Gold.PLP.part.buried>
-1.9453

> <Gold.PLP.part.nonpolar>
-30.7696

> <Gold.PLP.part.repulsive>
0.2414

> <Gold.PLP.ligand.clash>
0.0000

> <Gold.PLP.ligand.torsion>
0.4141

> <Gold.PLP.Chemscore.Hbond>
1.6400

> <Gold.PLP.Chemscore.CHOScore>
0.0000

> <Gold.PLP.Chemscore.Metal>
0.0000

> <Gold.Chemscore.Hbonds>
donor molecule, donor type, donor heavy atom, donor atom, acceptor molecule, acceptor atom, score
      P1  H  7989  7998       L1    14  0.02
      P1  H  7997  8009       L1     3  1.00
      P1  H  8011  8017       L1    14  0.67

> <Gold.PLP.Chemscore.Internal.Correction>
0.0644

> <Gold.Rescore>
     Score         DG    S(hbond)    S(metal)    S(lipo)     H(rot)  DE(clash)    DE(int)     intcor
     16.79     -17.44       1.58        0.00      90.58       1.53       0.25       0.41       ----

> <Gold.Chemscore.Fitness>
16.7870

> <Gold.Chemscore.DG>
-17.4430

> <Gold.Chemscore.ZeroCoef>
-5.4800

> <Gold.Chemscore.Hbond>
1.5846

> <Gold.Chemscore.Metal>
0.0000

> <Gold.Chemscore.Lipo>
90.5820

> <Gold.Chemscore.Internal_Hbond>
0.0000

> <Gold.Chemscore.DEClash>
0.2451

> <Gold.Chemscore.DEInternal>
0.4109

> <Gold.Chemscore.Rot>
1.5342

> <Gold.Chemscore.Internal.Correction>
   9.000000E+99

> <Gold.Chemscore.Hbonds>
donor molecule, donor type, donor heavy atom, donor atom, acceptor molecule, acceptor atom, score
      P1  H  7989  7998       L1    14  0.02
      P1  H  7997  8009       L1     3  0.48
      P1  H  8011  8017       L1    14  0.68

> <Gold.Chemscore.Hbond.Weighted>
-5.2925

> <Gold.Chemscore.Metal.Weighted>
-0.0000

> <Gold.Chemscore.Lipo.Weighted>
-10.5981

> <Gold.Chemscore.Internal_Hbond.Weighted>
0.0000

> <Gold.Chemscore.DEClash.Weighted>
0.2451

> <Gold.Chemscore.DEInternal.Weighted>
0.4109

> <Gold.Chemscore.Rot.Weighted>
3.9276

> <Gold.Chemscore.Internal.Correction.Weighted>
   9.000000E+99

> <Gold.Protein.RotatedTorsions>
[ 6907 6896 6895 6894 ] final  -65.66 input  -60.11 | X-H torsion
[ 7974 7965 7964 7962 ] final  -85.34 input  175.53 | X-H torsion
[ 8008 7997 7996 7995 ] final -170.21 input   59.86 | X-H torsion
[ 10167 10162 10161 10158 ] final  157.71 input  -65.29 | X-H torsion
[ 10718 10713 10712 10709 ] final  -92.75 input   66.30 | X-H torsion
[ 10763 10752 10751 10750 ] final  -35.36 input  -60.55 | X-H torsion
[ 11005 11000 10999 10996 ] final  110.92 input  -57.11 | X-H torsion

> <Gold.Protein.ActiveResidues>
 VAL166  LYS551  ARG553  GLY616  TRP617  ASP618  TYR619  PRO620  LYS621  CYS622 
 ASP623  PHE694  ASN695  SER759  ASP760  ASP761  ALA762  ILE779  LEU786  VAL792 
 PHE793  MET794  SER795  GLU796  ALA797  LYS798  CYS799  TRP800  GLU811  SER814 

> <Gold.Protein.RotatedAtoms>
  150.7511  134.6130  159.6095 H   0  0  0  0  0  0  0  0  0  0  0  0  # atno 6907 bound_to 6896
  152.3458  134.7069  160.0259 H   0  0  0  0  0  0  0  0  0  0  0  0  # atno 6908 bound_to 6896
  151.7506  133.3291  159.3427 H   0  0  0  0  0  0  0  0  0  0  0  0  # atno 6909 bound_to 6896
  145.4946  140.9551  143.1793 H   0  0  0  0  0  0  0  0  0  0  0  0  # atno 7974 bound_to 7965
  155.9152  140.1064  157.1249 H   0  0  0  0  0  0  0  0  0  0  0  0  # atno 8008 bound_to 7997
  154.4045  140.1266  156.4674 H   0  0  0  0  0  0  0  0  0  0  0  0  # atno 8009 bound_to 7997
  155.7262  140.3469  155.5040 H   0  0  0  0  0  0  0  0  0  0  0  0  # atno 8010 bound_to 7997
  139.4824  144.4892  151.8332 H   0  0  0  0  0  0  0  0  0  0  0  0  # atno 10167 bound_to 10162
  156.0005  130.4999  150.5672 H   0  0  0  0  0  0  0  0  0  0  0  0  # atno 10718 bound_to 10713
  153.8620  135.6839  153.4782 H   0  0  0  0  0  0  0  0  0  0  0  0  # atno 10763 bound_to 10752
  153.1336  135.4687  154.9386 H   0  0  0  0  0  0  0  0  0  0  0  0  # atno 10764 bound_to 10752
  154.7754  135.3252  154.8052 H   0  0  0  0  0  0  0  0  0  0  0  0  # atno 10765 bound_to 10752
  139.8892  134.9495  156.6353 H   0  0  0  0  0  0  0  0  0  0  0  0  # atno 11005 bound_to 11000
  144.7814  139.6517  143.7152 LP  0  0  0  0  0  0  0  0  0  0  0  0  # atno 17320 bound_to 7965
  146.2263  139.5730  142.9585 LP  0  0  0  0  0  0  0  0  0  0  0  0  # atno 17321 bound_to 7965
  140.4375  144.2032  150.5890 LP  0  0  0  0  0  0  0  0  0  0  0  0  # atno 17342 bound_to 10162
  140.4717  143.2410  151.9080 LP  0  0  0  0  0  0  0  0  0  0  0  0  # atno 17343 bound_to 10162
  157.3572  131.0743  151.1666 LP  0  0  0  0  0  0  0  0  0  0  0  0  # atno 17370 bound_to 10713
  157.2462  130.6592  149.5911 LP  0  0  0  0  0  0  0  0  0  0  0  0  # atno 17371 bound_to 10713
  140.7635  133.8797  155.8437 LP  0  0  0  0  0  0  0  0  0  0  0  0  # atno 17394 bound_to 11000
  140.9902  134.1289  157.4415 LP  0  0  0  0  0  0  0  0  0  0  0  0  # atno 17395 bound_to 11000

$$$$
