AV-unprocessed.smi:1239|AV-procd|sdf|5186|dock9
  -GOLD-   22720 4273D 1   1.00000     0.00000
 Structure written by MMmdl.
 48 49  0  0  0  0  0  0  0  0  2 V2000
  151.0652  138.2448  154.6327 C   0  0  0  0  0  0  0  0  0  0  0  0
  149.7611  138.8888  155.1691 C   0  0  1  0  0  0  0  0  0  0  0  0
  148.7511  137.7631  155.5281 C   0  0  0  0  0  0  0  0  0  0  0  0
  148.8120  136.6299  154.6070 N   0  0  0  0  0  0  0  0  0  0  0  0
  148.9248  135.3416  154.9610 C   0  0  0  0  0  0  0  0  0  0  0  0
  149.0062  134.9589  156.1278 O   0  0  0  0  0  0  0  0  0  0  0  0
  148.9565  134.5427  153.8801 N   0  0  0  0  0  0  0  0  0  0  0  0
  149.0201  133.1233  153.8294 C   0  0  0  0  0  0  0  0  0  0  0  0
  149.7999  132.4631  154.8018 C   0  0  0  0  0  0  0  0  0  0  0  0
  149.9072  131.0572  154.7807 C   0  0  0  0  0  0  0  0  0  0  0  0
  149.2387  130.3142  153.7769 C   0  0  0  0  0  0  0  0  0  0  0  0
  149.2991  128.9067  153.6867 N   0  0  0  0  0  0  0  0  0  0  0  0
  150.0304  128.1462  154.6941 C   0  0  0  0  0  0  0  0  0  0  0  0
  148.6335  128.2208  152.5870 C   0  0  0  0  0  0  0  0  0  0  0  0
  148.5106  130.9941  152.8578 N   0  3  0  0  0  0  0  0  0  0  0  0
  148.3793  132.3381  152.8418 C   0  0  0  0  0  0  0  0  0  0  0  0
  150.0064  139.8304  156.2871 N   0  0  0  0  0  0  0  0  0  0  0  0
  150.8249  139.2397  157.3527 C   0  0  0  0  0  0  0  0  0  0  0  0
  151.1038  140.2190  158.5061 C   0  0  0  0  0  0  0  0  0  0  0  0
  151.7349  141.3865  157.9997 O   0  0  0  0  0  0  0  0  0  0  0  0
  150.9398  142.0377  157.0190 C   0  0  0  0  0  0  0  0  0  0  0  0
  150.6568  141.0730  155.8542 C   0  0  0  0  0  0  0  0  0  0  0  0
  150.8783  137.5338  153.8290 H   0  0  0  0  0  0  0  0  0  0  0  0
  151.5953  137.7129  155.4233 H   0  0  0  0  0  0  0  0  0  0  0  0
  151.7462  138.9784  154.2043 H   0  0  0  0  0  0  0  0  0  0  0  0
  149.3250  139.4550  154.3444 H   0  0  0  0  0  0  0  0  0  0  0  0
  148.8983  137.4506  156.5634 H   0  0  0  0  0  0  0  0  0  0  0  0
  147.7243  138.1168  155.4576 H   0  0  0  0  0  0  0  0  0  0  0  0
  148.7595  136.8484  153.6229 H   0  0  0  0  0  0  0  0  0  0  0  0
  148.9648  135.0099  152.9850 H   0  0  0  0  0  0  0  0  0  0  0  0
  150.3136  133.0282  155.5660 H   0  0  0  0  0  0  0  0  0  0  0  0
  150.5051  130.5714  155.5373 H   0  0  0  0  0  0  0  0  0  0  0  0
  149.6042  128.3123  155.6841 H   0  0  0  0  0  0  0  0  0  0  0  0
  151.0792  128.4443  154.7126 H   0  0  0  0  0  0  0  0  0  0  0  0
  149.9913  127.0760  154.4903 H   0  0  0  0  0  0  0  0  0  0  0  0
  149.0358  128.5521  151.6291 H   0  0  0  0  0  0  0  0  0  0  0  0
  147.5616  128.4200  152.6037 H   0  0  0  0  0  0  0  0  0  0  0  0
  148.7722  127.1415  152.6508 H   0  0  0  0  0  0  0  0  0  0  0  0
  147.7786  132.7227  152.0314 H   0  0  0  0  0  0  0  0  0  0  0  0
  150.3272  138.3742  157.7860 H   0  0  0  0  0  0  0  0  0  0  0  0
  151.7717  138.8884  156.9399 H   0  0  0  0  0  0  0  0  0  0  0  0
  150.1783  140.4879  159.0181 H   0  0  0  0  0  0  0  0  0  0  0  0
  151.7556  139.7559  159.2468 H   0  0  0  0  0  0  0  0  0  0  0  0
  150.0079  142.3865  157.4668 H   0  0  0  0  0  0  0  0  0  0  0  0
  151.4709  142.9192  156.6597 H   0  0  0  0  0  0  0  0  0  0  0  0
  151.5906  140.8421  155.3393 H   0  0  0  0  0  0  0  0  0  0  0  0
  150.0285  141.6111  155.1473 H   0  0  0  0  0  0  0  0  0  0  0  0
  148.0344  130.4596  152.1310 H   0  0  0  0  0  0  0  0  0  0  0  0
  1  2  1  0  0  0  0
  1 23  1  0  0  0  0
  1 24  1  0  0  0  0
  1 25  1  0  0  0  0
  2  3  1  0  0  0  0
  2 17  1  0  0  0  0
  2 26  1  0  0  0  0
  3  4  1  0  0  0  0
  3 27  1  0  0  0  0
  3 28  1  0  0  0  0
  4  5  1  0  0  0  0
  4 29  1  0  0  0  0
  5  6  2  0  0  0  0
  5  7  1  0  0  0  0
  7  8  1  0  0  0  0
  7 30  1  0  0  0  0
  8 16  1  0  0  0  0
  8  9  2  0  0  0  0
  9 10  1  0  0  0  0
  9 31  1  0  0  0  0
 10 11  2  0  0  0  0
 10 32  1  0  0  0  0
 11 12  1  0  0  0  0
 11 15  1  0  0  0  0
 12 13  1  0  0  0  0
 12 14  1  0  0  0  0
 13 33  1  0  0  0  0
 13 34  1  0  0  0  0
 13 35  1  0  0  0  0
 14 36  1  0  0  0  0
 14 37  1  0  0  0  0
 14 38  1  0  0  0  0
 15 16  2  0  0  0  0
 15 48  1  0  0  0  0
 16 39  1  0  0  0  0
 17 22  1  0  0  0  0
 17 18  1  0  0  0  0
 18 19  1  0  0  0  0
 18 40  1  0  0  0  0
 18 41  1  0  0  0  0
 19 20  1  0  0  0  0
 19 42  1  0  0  0  0
 19 43  1  0  0  0  0
 20 21  1  0  0  0  0
 21 22  1  0  0  0  0
 21 44  1  0  0  0  0
 21 45  1  0  0  0  0
 22 46  1  0  0  0  0
 22 47  1  0  0  0  0
M  CHG  1  15   1
M  END
> <s_m_source_file>
AV-unprocessed.smi

> <i_m_source_file_index>
1239

> <i_lp_mmshare_version>
43012

> <i_f3d_flags>
0

> <s_epik_input>
W0NIMl0xW0NIMl1PW0NIMl1bQ0gyXU4xW0NASF0oW0NIM10pW0NIMl1bTkhdQyg9TylbTkhdYzJbY0hdW2NIXWMoTihbQ0gzXSlbQ0gzXSluW2NIXTI=

> <s_epik_cmdline>
J2VwaWtfcHl0aG9uJywgJy1waCcsICc3LjAnLCAnLXRuJywgJzgnLCAnLW1hJywgJzIwMCcsICctbWV0YWxfYmluZGluZycsICctaW1hZScsICc8aW5maWxlLm1hZT4nLCAnLW9tYWUnLCAnPG91dGZpbGUubWFlPic=

> <r_lp_tautomer_probability>
0.999994

> <r_epik_Ionization_Penalty>
0.528791

> <r_epik_Ionization_Penalty_Charging>
0.26278

> <r_epik_Ionization_Penalty_Neutral>
0.26601

> <r_epik_State_Penalty>
0.520375

> <r_epik_Charging_Adjusted_Penalty>
0.783156

> <i_epik_Tot_Q>
1

> <i_epik_Tot_abs_Q>
1

> <r_epik_Metal_State_Penalty>
0.806531

> <b_epik_Metal_Only>
0

> <s_lp_Force_Field>
OPLS_2005

> <r_lp_Energy>
38.5694

> <b_lp_Chiralities_Consistent>
1

> <s_lp_Variant>
AV-unprocessed.smi:1239-2

> <Gold.Version>
5.8.1

> <Gold.Id.Protein>
6NUR|6NUR_protein|mol2

> <Gold.PLP.Fitness>
40.0134

> <Gold.PLP.PLP>
-35.1511

> <Gold.PLP.part.hbond>
-3.0000

> <Gold.PLP.part.metal>
0.0000

> <Gold.PLP.part.buried>
-2.8510

> <Gold.PLP.part.nonpolar>
-28.7016

> <Gold.PLP.part.repulsive>
0.0683

> <Gold.PLP.ligand.clash>
0.0000

> <Gold.PLP.ligand.torsion>
0.6538

> <Gold.PLP.Chemscore.Hbond>
2.0425

> <Gold.PLP.Chemscore.CHOScore>
0.0000

> <Gold.PLP.Chemscore.Metal>
0.0000

> <Gold.Chemscore.Hbonds>
donor molecule, donor type, donor heavy atom, donor atom, acceptor molecule, acceptor atom, score
      L1  H     4    29       P1  7948  0.93
      L1  H     7    30       P1  7948  0.85
      L1  H    15    48       P1 10747  0.15

> <Gold.PLP.Chemscore.Internal.Correction>
0.0425

> <Gold.Rescore>
     Score         DG    S(hbond)    S(metal)    S(lipo)     H(rot)  DE(clash)    DE(int)     intcor
     12.96     -14.90       1.51        0.00      69.34       1.46       0.10       1.84       ----

> <Gold.Chemscore.Fitness>
12.9643

> <Gold.Chemscore.DG>
-14.8986

> <Gold.Chemscore.ZeroCoef>
-5.4800

> <Gold.Chemscore.Hbond>
1.5102

> <Gold.Chemscore.Metal>
0.0000

> <Gold.Chemscore.Lipo>
69.3432

> <Gold.Chemscore.Internal_Hbond>
0.0000

> <Gold.Chemscore.DEClash>
0.0962

> <Gold.Chemscore.DEInternal>
1.8381

> <Gold.Chemscore.Rot>
1.4604

> <Gold.Chemscore.Internal.Correction>
   9.000000E+99

> <Gold.Chemscore.Hbonds>
donor molecule, donor type, donor heavy atom, donor atom, acceptor molecule, acceptor atom, score
      L1  H     4    29       P1  7948  0.91
      L1  H     7    30       P1  7948  0.14
      L1  H    15    48       P1 10747  0.13

> <Gold.Chemscore.Hbond.Weighted>
-5.0440

> <Gold.Chemscore.Metal.Weighted>
-0.0000

> <Gold.Chemscore.Lipo.Weighted>
-8.1132

> <Gold.Chemscore.Internal_Hbond.Weighted>
0.0000

> <Gold.Chemscore.DEClash.Weighted>
0.0962

> <Gold.Chemscore.DEInternal.Weighted>
1.8381

> <Gold.Chemscore.Rot.Weighted>
3.7385

> <Gold.Chemscore.Internal.Correction.Weighted>
   9.000000E+99

> <Gold.Protein.RotatedTorsions>
[ 6907 6896 6895 6894 ] final  -76.63 input  -60.11 | X-H torsion
[ 7974 7965 7964 7962 ] final  166.56 input  175.53 | X-H torsion
[ 8008 7997 7996 7995 ] final   80.32 input   59.86 | X-H torsion
[ 10167 10162 10161 10158 ] final  102.27 input  -65.29 | X-H torsion
[ 10718 10713 10712 10709 ] final  115.72 input   66.30 | X-H torsion
[ 10763 10752 10751 10750 ] final  -74.04 input  -60.55 | X-H torsion
[ 11005 11000 10999 10996 ] final  126.26 input  -57.11 | X-H torsion

> <Gold.Protein.ActiveResidues>
 VAL166  LYS551  ARG553  GLY616  TRP617  ASP618  TYR619  PRO620  LYS621  CYS622 
 ASP623  PHE694  ASN695  SER759  ASP760  ASP761  ALA762  ILE779  LEU786  VAL792 
 PHE793  MET794  SER795  GLU796  ALA797  LYS798  CYS799  TRP800  GLU811  SER814 

> <Gold.Protein.RotatedAtoms>
  150.7022  134.4544  159.5350 H   0  0  0  0  0  0  0  0  0  0  0  0  # atno 6907 bound_to 6896
  152.2230  134.8392  160.0492 H   0  0  0  0  0  0  0  0  0  0  0  0  # atno 6908 bound_to 6896
  151.9235  133.3557  159.3942 H   0  0  0  0  0  0  0  0  0  0  0  0  # atno 6909 bound_to 6896
  144.7457  139.8634  143.6383 H   0  0  0  0  0  0  0  0  0  0  0  0  # atno 7974 bound_to 7965
  155.8819  140.3443  155.5894 H   0  0  0  0  0  0  0  0  0  0  0  0  # atno 8008 bound_to 7997
  155.7710  140.0845  157.2127 H   0  0  0  0  0  0  0  0  0  0  0  0  # atno 8009 bound_to 7997
  154.4025  140.1518  156.2929 H   0  0  0  0  0  0  0  0  0  0  0  0  # atno 8010 bound_to 7997
  139.7364  144.7023  151.0642 H   0  0  0  0  0  0  0  0  0  0  0  0  # atno 10167 bound_to 10162
  157.6205  131.1016  150.7370 H   0  0  0  0  0  0  0  0  0  0  0  0  # atno 10718 bound_to 10713
  154.4677  135.5877  153.6300 H   0  0  0  0  0  0  0  0  0  0  0  0  # atno 10763 bound_to 10752
  152.9830  135.6059  154.3406 H   0  0  0  0  0  0  0  0  0  0  0  0  # atno 10764 bound_to 10752
  154.3285  135.2843  155.2463 H   0  0  0  0  0  0  0  0  0  0  0  0  # atno 10765 bound_to 10752
  139.9447  134.9631  156.8680 H   0  0  0  0  0  0  0  0  0  0  0  0  # atno 11005 bound_to 11000
  146.1332  139.4372  143.0155 LP  0  0  0  0  0  0  0  0  0  0  0  0  # atno 17320 bound_to 7965
  145.7131  141.0100  143.1443 LP  0  0  0  0  0  0  0  0  0  0  0  0  # atno 17321 bound_to 7965
  140.7779  143.4978  150.9810 LP  0  0  0  0  0  0  0  0  0  0  0  0  # atno 17342 bound_to 10162
  139.8667  143.7245  152.3169 LP  0  0  0  0  0  0  0  0  0  0  0  0  # atno 17343 bound_to 10162
  156.7729  130.4834  149.5415 LP  0  0  0  0  0  0  0  0  0  0  0  0  # atno 17370 bound_to 10713
  156.1347  130.6203  151.0384 LP  0  0  0  0  0  0  0  0  0  0  0  0  # atno 17371 bound_to 10713
  140.5864  134.0303  155.7483 LP  0  0  0  0  0  0  0  0  0  0  0  0  # atno 17394 bound_to 11000
  141.1094  133.9641  157.2938 LP  0  0  0  0  0  0  0  0  0  0  0  0  # atno 17395 bound_to 11000

$$$$
