AV-unprocessed.smi:1424|AV-procd|sdf|5801|dock1
  -GOLD-   22720 5453D 1   1.00000     0.00000
 Structure written by MMmdl.
 46 48  0  0  0  0  0  0  0  0  2 V2000
  147.9206  132.0812  152.8164 O   0  0  0  0  0  0  0  0  0  0  0  0
  147.0248  132.4355  153.5824 C   0  0  0  0  0  0  0  0  0  0  0  0
  147.1667  132.4898  154.9141 N   0  0  0  0  0  0  0  0  0  0  0  0
  148.3850  132.1489  155.6420 C   0  0  0  0  0  0  0  0  0  0  0  0
  149.6643  132.6555  154.9361 C   0  0  2  0  0  0  0  0  0  0  0  0
  150.9555  132.0462  155.5291 C   0  0  0  0  0  0  0  0  0  0  0  0
  151.3050  132.7721  156.8352 C   0  0  0  0  0  0  0  0  0  0  0  0
  150.6892  134.4869  156.6352 S   0  0  0  0  0  0  0  0  0  0  0  0
  149.7132  134.7679  157.6990 O   0  0  0  0  0  0  0  0  0  0  0  0
  151.8191  135.3943  156.3842 O   0  0  0  0  0  0  0  0  0  0  0  0
  149.8027  134.1814  155.0597 C   0  0  0  0  0  0  0  0  0  0  0  0
  145.7843  132.7930  153.2094 N   0  0  0  0  0  0  0  0  0  0  0  0
  145.2389  132.8385  151.8944 C   0  0  0  0  0  0  0  0  0  0  0  0
  145.8281  132.1135  150.8262 C   0  0  0  0  0  0  0  0  0  0  0  0
  145.2540  132.1612  149.5420 C   0  0  0  0  0  0  0  0  0  0  0  0
  144.0997  132.9369  149.3419 C   0  0  0  0  0  0  0  0  0  0  0  0
  143.5745  133.6312  150.3721 N   0  3  0  0  0  0  0  0  0  0  0  0
  144.0894  133.6386  151.6272 C   0  0  0  0  0  0  0  0  0  0  0  0
  143.4368  134.4277  152.6021 N   0  0  0  0  0  0  0  0  0  0  0  0
  142.0236  134.2196  152.8962 C   0  0  0  0  0  0  0  0  0  0  0  0
  141.6004  135.4483  153.6964 C   0  0  0  0  0  0  0  0  0  0  0  0
  142.4369  136.5557  153.0633 C   0  0  0  0  0  0  0  0  0  0  0  0
  143.7443  135.8521  152.6846 C   0  0  0  0  0  0  0  0  0  0  0  0
  146.3779  132.7906  155.4677 H   0  0  0  0  0  0  0  0  0  0  0  0
  148.3269  132.5551  156.6533 H   0  0  0  0  0  0  0  0  0  0  0  0
  148.4154  131.0649  155.7538 H   0  0  0  0  0  0  0  0  0  0  0  0
  149.5936  132.3946  153.8795 H   0  0  0  0  0  0  0  0  0  0  0  0
  150.8891  130.9679  155.6738 H   0  0  0  0  0  0  0  0  0  0  0  0
  151.7670  132.2089  154.8190 H   0  0  0  0  0  0  0  0  0  0  0  0
  150.7868  132.3234  157.6828 H   0  0  0  0  0  0  0  0  0  0  0  0
  152.3749  132.7781  157.0443 H   0  0  0  0  0  0  0  0  0  0  0  0
  150.4199  134.5742  154.2514 H   0  0  0  0  0  0  0  0  0  0  0  0
  148.8506  134.7124  155.0509 H   0  0  0  0  0  0  0  0  0  0  0  0
  145.1285  132.9599  153.9581 H   0  0  0  0  0  0  0  0  0  0  0  0
  146.7199  131.5225  150.9696 H   0  0  0  0  0  0  0  0  0  0  0  0
  145.6927  131.6084  148.7240 H   0  0  0  0  0  0  0  0  0  0  0  0
  143.5886  133.0300  148.3946 H   0  0  0  0  0  0  0  0  0  0  0  0
  141.4443  134.1675  151.9735 H   0  0  0  0  0  0  0  0  0  0  0  0
  141.8641  133.2973  153.4558 H   0  0  0  0  0  0  0  0  0  0  0  0
  140.5281  135.6399  153.6473 H   0  0  0  0  0  0  0  0  0  0  0  0
  141.8763  135.3261  154.7449 H   0  0  0  0  0  0  0  0  0  0  0  0
  141.9404  136.9182  152.1621 H   0  0  0  0  0  0  0  0  0  0  0  0
  142.5906  137.4070  153.7270 H   0  0  0  0  0  0  0  0  0  0  0  0
  144.4882  136.0050  153.4667 H   0  0  0  0  0  0  0  0  0  0  0  0
  144.1470  136.2411  151.7484 H   0  0  0  0  0  0  0  0  0  0  0  0
  142.7423  134.1931  150.1925 H   0  0  0  0  0  0  0  0  0  0  0  0
  1  2  2  0  0  0  0
  2  3  1  0  0  0  0
  2 12  1  0  0  0  0
  3  4  1  0  0  0  0
  3 24  1  0  0  0  0
  4  5  1  0  0  0  0
  4 25  1  0  0  0  0
  4 26  1  0  0  0  0
  5 11  1  0  0  0  0
  5  6  1  0  0  0  0
  5 27  1  0  0  0  0
  6  7  1  0  0  0  0
  6 28  1  0  0  0  0
  6 29  1  0  0  0  0
  7  8  1  0  0  0  0
  7 30  1  0  0  0  0
  7 31  1  0  0  0  0
  8  9  2  0  0  0  0
  8 10  2  0  0  0  0
  8 11  1  0  0  0  0
 11 32  1  0  0  0  0
 11 33  1  0  0  0  0
 12 13  1  0  0  0  0
 12 34  1  0  0  0  0
 13 18  1  0  0  0  0
 13 14  2  0  0  0  0
 14 15  1  0  0  0  0
 14 35  1  0  0  0  0
 15 16  2  0  0  0  0
 15 36  1  0  0  0  0
 16 17  1  0  0  0  0
 16 37  1  0  0  0  0
 17 18  2  0  0  0  0
 17 46  1  0  0  0  0
 18 19  1  0  0  0  0
 19 23  1  0  0  0  0
 19 20  1  0  0  0  0
 20 21  1  0  0  0  0
 20 38  1  0  0  0  0
 20 39  1  0  0  0  0
 21 22  1  0  0  0  0
 21 40  1  0  0  0  0
 21 41  1  0  0  0  0
 22 23  1  0  0  0  0
 22 42  1  0  0  0  0
 22 43  1  0  0  0  0
 23 44  1  0  0  0  0
 23 45  1  0  0  0  0
M  CHG  1  17   1
M  END
> <s_m_source_file>
AV-unprocessed.smi

> <i_m_source_file_index>
1424

> <i_lp_mmshare_version>
43012

> <i_f3d_flags>
0

> <s_epik_input>
Tz1TMSg9TylbQ0gyXVtDSDJdW0NASF0oW0NIMl0xKVtDSDJdW05IXUMoPU8pW05IXWMyW2NIXVtjSF1bY0hdbmMyTjNbQ0gyXVtDSDJdW0NIMl1bQ0gyXTM=

> <s_epik_cmdline>
J2VwaWtfcHl0aG9uJywgJy1waCcsICc3LjAnLCAnLXRuJywgJzgnLCAnLW1hJywgJzIwMCcsICctbWV0YWxfYmluZGluZycsICctaW1hZScsICc8aW5maWxlLm1hZT4nLCAnLW9tYWUnLCAnPG91dGZpbGUubWFlPic=

> <r_lp_tautomer_probability>
0.999994

> <r_epik_Ionization_Penalty>
1.12573

> <r_epik_Ionization_Penalty_Charging>
1.12571

> <r_epik_Ionization_Penalty_Neutral>
1.92863e-05

> <r_epik_State_Penalty>
1.18495

> <r_epik_Charging_Adjusted_Penalty>
2.31065

> <i_epik_Tot_Q>
1

> <i_epik_Tot_abs_Q>
1

> <r_epik_Metal_State_Penalty>
1.26881

> <b_epik_Metal_Only>
0

> <s_lp_Force_Field>
OPLS_2005

> <r_lp_Energy>
41.4787

> <b_lp_Chiralities_Consistent>
1

> <s_lp_Variant>
AV-unprocessed.smi:1424-3

> <Gold.Version>
5.8.1

> <Gold.Id.Protein>
6NUR|6NUR_protein|mol2

> <Gold.PLP.Fitness>
47.7327

> <Gold.PLP.PLP>
-36.7383

> <Gold.PLP.part.hbond>
-3.0000

> <Gold.PLP.part.metal>
0.0000

> <Gold.PLP.part.buried>
-6.6872

> <Gold.PLP.part.nonpolar>
-28.4403

> <Gold.PLP.part.repulsive>
1.0844

> <Gold.PLP.ligand.clash>
0.0000

> <Gold.PLP.ligand.torsion>
0.6372

> <Gold.PLP.Chemscore.Hbond>
3.9600

> <Gold.PLP.Chemscore.CHOScore>
0.0000

> <Gold.PLP.Chemscore.Metal>
0.0000

> <Gold.Chemscore.Hbonds>
donor molecule, donor type, donor heavy atom, donor atom, acceptor molecule, acceptor atom, score
      L1  H    17    46       P1 10186  2.00
      P1  H  6896  6907       L1     9  1.00
      P1  H 10752 10763       L1    10  1.00

> <Gold.PLP.Chemscore.Internal.Correction>
0.3888

> <Gold.Rescore>
     Score         DG    S(hbond)    S(metal)    S(lipo)     H(rot)  DE(clash)    DE(int)     intcor
     16.29     -19.79       2.56        0.00      82.07       1.50       0.28       3.22       ----

> <Gold.Chemscore.Fitness>
16.2869

> <Gold.Chemscore.DG>
-19.7877

> <Gold.Chemscore.ZeroCoef>
-5.4800

> <Gold.Chemscore.Hbond>
2.5556

> <Gold.Chemscore.Metal>
0.0000

> <Gold.Chemscore.Lipo>
82.0714

> <Gold.Chemscore.Internal_Hbond>
0.0000

> <Gold.Chemscore.DEClash>
0.2837

> <Gold.Chemscore.DEInternal>
3.2171

> <Gold.Chemscore.Rot>
1.4962

> <Gold.Chemscore.Internal.Correction>
   9.000000E+99

> <Gold.Chemscore.Hbonds>
donor molecule, donor type, donor heavy atom, donor atom, acceptor molecule, acceptor atom, score
      L1  H    17    46       P1 10186  0.90
      P1  H  6896  6907       L1     9  0.41
      P1  H 10752 10763       L1    10  1.00

> <Gold.Chemscore.Hbond.Weighted>
-8.5357

> <Gold.Chemscore.Metal.Weighted>
-0.0000

> <Gold.Chemscore.Lipo.Weighted>
-9.6024

> <Gold.Chemscore.Internal_Hbond.Weighted>
0.0000

> <Gold.Chemscore.DEClash.Weighted>
0.2837

> <Gold.Chemscore.DEInternal.Weighted>
3.2171

> <Gold.Chemscore.Rot.Weighted>
3.8303

> <Gold.Chemscore.Internal.Correction.Weighted>
   9.000000E+99

> <Gold.Protein.RotatedTorsions>
[ 6907 6896 6895 6894 ] final  -92.44 input  -60.11 | X-H torsion
[ 7974 7965 7964 7962 ] final  -84.69 input  175.53 | X-H torsion
[ 8008 7997 7996 7995 ] final   17.63 input   59.86 | X-H torsion
[ 10167 10162 10161 10158 ] final  -89.19 input  -65.29 | X-H torsion
[ 10718 10713 10712 10709 ] final   24.23 input   66.30 | X-H torsion
[ 10763 10752 10751 10750 ] final   90.76 input  -60.55 | X-H torsion
[ 11005 11000 10999 10996 ] final  -34.60 input  -57.11 | X-H torsion

> <Gold.Protein.ActiveResidues>
 VAL166  LYS551  ARG553  GLY616  TRP617  ASP618  TYR619  PRO620  LYS621  CYS622 
 ASP623  PHE694  ASN695  SER759  ASP760  ASP761  ALA762  ILE779  LEU786  VAL792 
 PHE793  MET794  SER795  GLU796  ALA797  LYS798  CYS799  TRP800  GLU811  SER814 

> <Gold.Protein.RotatedAtoms>
  150.6906  134.2122  159.4363 H   0  0  0  0  0  0  0  0  0  0  0  0  # atno 6907 bound_to 6896
  152.0083  134.9888  160.0576 H   0  0  0  0  0  0  0  0  0  0  0  0  # atno 6908 bound_to 6896
  152.1513  133.4488  159.4851 H   0  0  0  0  0  0  0  0  0  0  0  0  # atno 6909 bound_to 6896
  145.5032  140.9545  143.1748 H   0  0  0  0  0  0  0  0  0  0  0  0  # atno 7974 bound_to 7965
  154.8942  140.2991  155.5354 H   0  0  0  0  0  0  0  0  0  0  0  0  # atno 8008 bound_to 7997
  156.3020  140.2419  156.3896 H   0  0  0  0  0  0  0  0  0  0  0  0  # atno 8009 bound_to 7997
  154.8588  140.0406  157.1640 H   0  0  0  0  0  0  0  0  0  0  0  0  # atno 8010 bound_to 7997
  140.3672  143.2812  151.9543 H   0  0  0  0  0  0  0  0  0  0  0  0  # atno 10167 bound_to 10162
  157.1769  130.6785  149.6098 H   0  0  0  0  0  0  0  0  0  0  0  0  # atno 10718 bound_to 10713
  153.2010  135.4422  155.0266 H   0  0  0  0  0  0  0  0  0  0  0  0  # atno 10763 bound_to 10752
  154.8147  135.3310  154.7212 H   0  0  0  0  0  0  0  0  0  0  0  0  # atno 10764 bound_to 10752
  153.7657  135.6988  153.4972 H   0  0  0  0  0  0  0  0  0  0  0  0  # atno 10765 bound_to 10752
  140.9729  133.7099  156.1554 H   0  0  0  0  0  0  0  0  0  0  0  0  # atno 11005 bound_to 11000
  144.7768  139.6612  143.7171 LP  0  0  0  0  0  0  0  0  0  0  0  0  # atno 17320 bound_to 7965
  146.2213  139.5640  142.9617 LP  0  0  0  0  0  0  0  0  0  0  0  0  # atno 17321 bound_to 7965
  139.4807  144.5939  151.7723 LP  0  0  0  0  0  0  0  0  0  0  0  0  # atno 17342 bound_to 10162
  140.5069  144.1085  150.5985 LP  0  0  0  0  0  0  0  0  0  0  0  0  # atno 17343 bound_to 10162
  155.9730  130.4660  150.6273 LP  0  0  0  0  0  0  0  0  0  0  0  0  # atno 17370 bound_to 10713
  157.3989  131.0807  151.1326 LP  0  0  0  0  0  0  0  0  0  0  0  0  # atno 17371 bound_to 10713
  140.7302  134.4263  157.5566 LP  0  0  0  0  0  0  0  0  0  0  0  0  # atno 17394 bound_to 11000
  139.8919  134.8768  156.2296 LP  0  0  0  0  0  0  0  0  0  0  0  0  # atno 17395 bound_to 11000

$$$$
