AV-unprocessed.smi:198|AV-procd|sdf|1558|dock2
  -GOLD-   2262019433D 1   1.00000     0.00000
 Structure written by MMmdl.
 59 63  0  0  0  0  0  0  0  0  2 V2000
  149.4554  141.2721  154.7392 C   0  0  0  0  0  0  0  0  0  0  0  0
  148.3579  142.2292  155.0117 N   0  3  1  0  0  0  0  0  0  0  0  0
  147.3858  142.3585  153.8971 C   0  0  0  0  0  0  0  0  0  0  0  0
  146.4486  141.1421  153.8088 C   0  0  0  0  0  0  0  0  0  0  0  0
  145.7239  140.9015  155.1522 C   0  0  2  0  0  0  0  0  0  0  0  0
  146.7430  140.7955  156.3112 C   0  0  2  0  0  0  0  0  0  0  0  0
  145.9959  140.6572  157.6519 C   0  0  0  0  0  0  0  0  0  0  0  0
  145.0215  139.4697  157.6200 C   0  0  0  0  0  0  0  0  0  0  0  0
  144.0728  139.5538  156.4067 C   0  0  0  0  0  0  0  0  0  0  0  0
  144.7957  139.7618  155.1510 N   0  0  0  0  0  0  0  0  0  0  0  0
  145.1628  138.6389  154.4866 C   0  0  0  0  0  0  0  0  0  0  0  0
  146.4755  138.3742  154.2612 N   0  0  0  0  0  0  0  0  0  0  0  0
  146.8313  137.2749  153.5896 C   0  0  0  0  0  0  0  0  0  0  0  0
  146.0501  136.3309  153.0596 N   0  0  0  0  0  0  0  0  0  0  0  0
  144.7309  136.5961  153.2834 C   0  0  0  0  0  0  0  0  0  0  0  0
  144.2062  137.7159  153.9859 C   0  0  0  0  0  0  0  0  0  0  0  0
  142.8198  137.6511  154.0180 N   0  0  0  0  0  0  0  0  0  0  0  0
  142.5389  136.5548  153.3671 C   0  0  0  0  0  0  0  0  0  0  0  0
  143.6284  135.8619  152.8835 N   0  0  0  0  0  0  0  0  0  0  0  0
  143.6352  134.6336  152.1415 C   0  0  0  0  0  0  0  0  0  0  0  0
  144.6479  133.5135  152.3977 C   0  0  0  0  0  0  0  0  0  0  0  0
  144.5943  133.1426  150.8969 C   0  0  0  0  0  0  0  0  0  0  0  0
  145.9400  132.8081  150.2298 C   0  0  0  0  0  0  0  0  0  0  0  0
  146.4456  131.5586  150.6542 O   0  0  0  0  0  0  0  0  0  0  0  0
  143.5480  132.0858  150.4837 C   0  0  0  0  0  0  0  0  0  0  0  0
  143.3656  132.0404  149.0836 O   0  0  0  0  0  0  0  0  0  0  0  0
  144.1255  134.6023  150.6942 C   0  0  0  0  0  0  0  0  0  0  0  0
  147.6890  142.0163  156.3209 C   0  0  0  0  0  0  0  0  0  0  0  0
  149.0935  140.2478  154.6508 H   0  0  0  0  0  0  0  0  0  0  0  0
  150.1940  141.3012  155.5407 H   0  0  0  0  0  0  0  0  0  0  0  0
  149.9662  141.5313  153.8113 H   0  0  0  0  0  0  0  0  0  0  0  0
  146.7956  143.2617  154.0576 H   0  0  0  0  0  0  0  0  0  0  0  0
  147.9153  142.5017  152.9544 H   0  0  0  0  0  0  0  0  0  0  0  0
  145.7180  141.3070  153.0167 H   0  0  0  0  0  0  0  0  0  0  0  0
  147.0283  140.2662  153.5163 H   0  0  0  0  0  0  0  0  0  0  0  0
  145.1062  141.7819  155.3368 H   0  0  0  0  0  0  0  0  0  0  0  0
  147.3444  139.8969  156.1694 H   0  0  0  0  0  0  0  0  0  0  0  0
  146.7064  140.5305  158.4693 H   0  0  0  0  0  0  0  0  0  0  0  0
  145.4409  141.5726  157.8620 H   0  0  0  0  0  0  0  0  0  0  0  0
  145.5866  138.5382  157.5942 H   0  0  0  0  0  0  0  0  0  0  0  0
  144.4392  139.4411  158.5412 H   0  0  0  0  0  0  0  0  0  0  0  0
  143.4591  138.6537  156.3455 H   0  0  0  0  0  0  0  0  0  0  0  0
  143.3816  140.3865  156.5396 H   0  0  0  0  0  0  0  0  0  0  0  0
  147.8935  137.1329  153.4545 H   0  0  0  0  0  0  0  0  0  0  0  0
  141.5190  136.2299  153.2243 H   0  0  0  0  0  0  0  0  0  0  0  0
  142.6202  134.2377  152.2113 H   0  0  0  0  0  0  0  0  0  0  0  0
  145.6332  133.8754  152.6948 H   0  0  0  0  0  0  0  0  0  0  0  0
  144.2977  132.7381  153.0795 H   0  0  0  0  0  0  0  0  0  0  0  0
  145.8532  132.8039  149.1429 H   0  0  0  0  0  0  0  0  0  0  0  0
  146.6892  133.5617  150.4735 H   0  0  0  0  0  0  0  0  0  0  0  0
  147.2948  131.4283  150.2601 H   0  0  0  0  0  0  0  0  0  0  0  0
  143.8434  131.0878  150.8075 H   0  0  0  0  0  0  0  0  0  0  0  0
  142.5844  132.2815  150.9549 H   0  0  0  0  0  0  0  0  0  0  0  0
  143.2549  132.9253  148.7698 H   0  0  0  0  0  0  0  0  0  0  0  0
  143.3399  134.7369  149.9497 H   0  0  0  0  0  0  0  0  0  0  0  0
  144.9469  135.3004  150.5221 H   0  0  0  0  0  0  0  0  0  0  0  0
  148.4401  141.9129  157.1052 H   0  0  0  0  0  0  0  0  0  0  0  0
  147.1212  142.9168  156.5590 H   0  0  0  0  0  0  0  0  0  0  0  0
  148.8125  143.1285  155.0811 H   0  0  0  0  0  0  0  0  0  0  0  0
  1  2  1  0  0  0  0
  1 29  1  0  0  0  0
  1 30  1  0  0  0  0
  1 31  1  0  0  0  0
  2 28  1  0  0  0  0
  2  3  1  0  0  0  0
  2 59  1  0  0  0  0
  3  4  1  0  0  0  0
  3 32  1  0  0  0  0
  3 33  1  0  0  0  0
  4  5  1  0  0  0  0
  4 34  1  0  0  0  0
  4 35  1  0  0  0  0
  5 10  1  0  0  0  0
  5  6  1  0  0  0  0
  5 36  1  0  0  0  0
  6  7  1  0  0  0  0
  6 28  1  0  0  0  0
  6 37  1  0  0  0  0
  7  8  1  0  0  0  0
  7 38  1  0  0  0  0
  7 39  1  0  0  0  0
  8  9  1  0  0  0  0
  8 40  1  0  0  0  0
  8 41  1  0  0  0  0
  9 10  1  0  0  0  0
  9 42  1  0  0  0  0
  9 43  1  0  0  0  0
 10 11  1  0  0  0  0
 11 16  1  0  0  0  0
 11 12  2  0  0  0  0
 12 13  1  0  0  0  0
 13 14  2  0  0  0  0
 13 44  1  0  0  0  0
 14 15  1  0  0  0  0
 15 19  1  0  0  0  0
 15 16  2  0  0  0  0
 16 17  1  0  0  0  0
 17 18  2  0  0  0  0
 18 19  1  0  0  0  0
 18 45  1  0  0  0  0
 19 20  1  0  0  0  0
 20 27  1  0  0  0  0
 20 21  1  0  0  0  0
 20 46  1  0  0  0  0
 21 22  1  0  0  0  0
 21 47  1  0  0  0  0
 21 48  1  0  0  0  0
 22 23  1  0  0  0  0
 22 25  1  0  0  0  0
 22 27  1  0  0  0  0
 23 24  1  0  0  0  0
 23 49  1  0  0  0  0
 23 50  1  0  0  0  0
 24 51  1  0  0  0  0
 25 26  1  0  0  0  0
 25 52  1  0  0  0  0
 25 53  1  0  0  0  0
 26 54  1  0  0  0  0
 27 55  1  0  0  0  0
 27 56  1  0  0  0  0
 28 57  1  0  0  0  0
 28 58  1  0  0  0  0
M  CHG  1   2   1
M  END
> <s_m_source_file>
AV-unprocessed.smi

> <i_m_source_file_index>
198

> <i_lp_mmshare_version>
43012

> <i_f3d_flags>
0

> <s_epik_input>
W0NIMl0xW0NIMl1OKFtDSDNdKVtDSDJdW0NAQEhdKFtDQEhdMTIpW0NIMl1bQ0gyXVtDSDJdTjJjKG5bY0hdbjMpYyhjMzQpbltjSF1uNFtDSF0oW0NIMl01KVtDSDJdQzUoW0NIMl1bT0hdKVtDSDJdW09IXQ==

> <s_epik_cmdline>
J2VwaWtfcHl0aG9uJywgJy1waCcsICc3LjAnLCAnLXRuJywgJzgnLCAnLW1hJywgJzIwMCcsICctbWV0YWxfYmluZGluZycsICctaW1hZScsICc8aW5maWxlLm1hZT4nLCAnLW9tYWUnLCAnPG91dGZpbGUubWFlPic=

> <r_lp_tautomer_probability>
1

> <r_epik_Ionization_Penalty>
0.00239938

> <r_epik_Ionization_Penalty_Charging>
0.00138697

> <r_epik_Ionization_Penalty_Neutral>
0.00101241

> <r_epik_State_Penalty>
-0

> <r_epik_Charging_Adjusted_Penalty>
0.00138697

> <i_epik_Tot_Q>
1

> <i_epik_Tot_abs_Q>
1

> <r_epik_Metal_State_Penalty>
-0

> <b_epik_Metal_Only>
0

> <s_lp_Force_Field>
OPLS_2005

> <r_lp_Energy>
58.8774

> <b_lp_Chiralities_Consistent>
1

> <s_lp_Variant>
AV-unprocessed.smi:198-7

> <Gold.Version>
5.8.1

> <Gold.Id.Protein>
6NUR|6NUR_protein|mol2

> <Gold.PLP.Fitness>
47.1350

> <Gold.PLP.PLP>
-32.8813

> <Gold.PLP.part.hbond>
-3.8429

> <Gold.PLP.part.metal>
0.0000

> <Gold.PLP.part.buried>
-5.0991

> <Gold.PLP.part.nonpolar>
-25.8181

> <Gold.PLP.part.repulsive>
0.5635

> <Gold.PLP.ligand.clash>
0.0000

> <Gold.PLP.ligand.torsion>
0.7893

> <Gold.PLP.Chemscore.Hbond>
3.9920

> <Gold.PLP.Chemscore.CHOScore>
0.9802

> <Gold.PLP.Chemscore.Metal>
0.0000

> <Gold.Chemscore.Hbonds>
donor molecule, donor type, donor heavy atom, donor atom, acceptor molecule, acceptor atom, score
      L1  H     2    59       P1  8028  2.00
      L1  H    24    51       P1 10747  1.00
      P1  H 10785 10796       L1    26  0.99
      L1  C    13    44       P1  7948  1.00

> <Gold.PLP.Chemscore.Internal.Correction>
0.9156

> <Gold.Rescore>
     Score         DG    S(hbond)    S(metal)    S(lipo)     H(rot)  DE(clash)    DE(int)     intcor
     12.76     -15.00       2.88        0.00      66.45       3.08       0.13       2.12       ----

> <Gold.Chemscore.Fitness>
12.7573

> <Gold.Chemscore.DG>
-15.0018

> <Gold.Chemscore.ZeroCoef>
-5.4800

> <Gold.Chemscore.Hbond>
2.8822

> <Gold.Chemscore.Metal>
0.0000

> <Gold.Chemscore.Lipo>
66.4546

> <Gold.Chemscore.Internal_Hbond>
0.0000

> <Gold.Chemscore.DEClash>
0.1261

> <Gold.Chemscore.DEInternal>
2.1184

> <Gold.Chemscore.Rot>
3.0781

> <Gold.Chemscore.Internal.Correction>
   9.000000E+99

> <Gold.Chemscore.Hbonds>
donor molecule, donor type, donor heavy atom, donor atom, acceptor molecule, acceptor atom, score
      L1  H     2    59       P1  8028  0.95
      L1  H    24    51       P1 10747  0.98
      P1  H 10785 10796       L1    26  0.37

> <Gold.Chemscore.Hbond.Weighted>
-9.6266

> <Gold.Chemscore.Metal.Weighted>
-0.0000

> <Gold.Chemscore.Lipo.Weighted>
-7.7752

> <Gold.Chemscore.Internal_Hbond.Weighted>
0.0000

> <Gold.Chemscore.DEClash.Weighted>
0.1261

> <Gold.Chemscore.DEInternal.Weighted>
2.1184

> <Gold.Chemscore.Rot.Weighted>
7.8800

> <Gold.Chemscore.Internal.Correction.Weighted>
   9.000000E+99

> <Gold.Protein.RotatedTorsions>
[ 6907 6896 6895 6894 ] final  -78.36 input  -60.11 | X-H torsion
[ 7974 7965 7964 7962 ] final  106.67 input  175.53 | X-H torsion
[ 8008 7997 7996 7995 ] final  108.09 input   59.86 | X-H torsion
[ 10167 10162 10161 10158 ] final  -40.17 input  -65.29 | X-H torsion
[ 10718 10713 10712 10709 ] final   44.15 input   66.30 | X-H torsion
[ 10763 10752 10751 10750 ] final -114.20 input  -60.55 | X-H torsion
[ 11005 11000 10999 10996 ] final  170.48 input  -57.11 | X-H torsion

> <Gold.Protein.ActiveResidues>
 VAL166  LYS551  ARG553  GLY616  TRP617  ASP618  TYR619  PRO620  LYS621  CYS622 
 ASP623  PHE694  ASN695  SER759  ASP760  ASP761  ALA762  ILE779  LEU786  VAL792 
 PHE793  MET794  SER795  GLU796  ALA797  LYS798  CYS799  TRP800  GLU811  SER814 

> <Gold.Protein.RotatedAtoms>
  150.6975  134.4284  159.5236 H   0  0  0  0  0  0  0  0  0  0  0  0  # atno 6907 bound_to 6896
  152.2015  134.8581  160.0516 H   0  0  0  0  0  0  0  0  0  0  0  0  # atno 6908 bound_to 6896
  151.9499  133.3628  159.4033 H   0  0  0  0  0  0  0  0  0  0  0  0  # atno 6909 bound_to 6896
  145.3036  139.2562  143.3800 H   0  0  0  0  0  0  0  0  0  0  0  0  # atno 7974 bound_to 7965
  156.1876  140.3083  155.9268 H   0  0  0  0  0  0  0  0  0  0  0  0  # atno 8008 bound_to 7997
  155.3247  140.0457  157.3057 H   0  0  0  0  0  0  0  0  0  0  0  0  # atno 8009 bound_to 7997
  154.5413  140.2262  155.8645 H   0  0  0  0  0  0  0  0  0  0  0  0  # atno 8010 bound_to 7997
  140.7042  143.3169  151.2886 H   0  0  0  0  0  0  0  0  0  0  0  0  # atno 10167 bound_to 10162
  157.4237  130.7984  149.7539 H   0  0  0  0  0  0  0  0  0  0  0  0  # atno 10718 bound_to 10713
  154.8430  135.4426  154.1469 H   0  0  0  0  0  0  0  0  0  0  0  0  # atno 10763 bound_to 10752
  153.2640  135.6939  153.7555 H   0  0  0  0  0  0  0  0  0  0  0  0  # atno 10764 bound_to 10752
  153.6821  135.3401  155.3156 H   0  0  0  0  0  0  0  0  0  0  0  0  # atno 10765 bound_to 10752
  140.3088  134.7534  157.3975 H   0  0  0  0  0  0  0  0  0  0  0  0  # atno 11005 bound_to 11000
  146.3143  140.3556  142.8660 LP  0  0  0  0  0  0  0  0  0  0  0  0  # atno 17320 bound_to 7965
  144.9073  140.7715  143.5829 LP  0  0  0  0  0  0  0  0  0  0  0  0  # atno 17321 bound_to 7965
  139.6611  144.0187  152.2693 LP  0  0  0  0  0  0  0  0  0  0  0  0  # atno 17342 bound_to 10162
  139.9755  144.6464  150.7949 LP  0  0  0  0  0  0  0  0  0  0  0  0  # atno 17343 bound_to 10162
  155.9889  130.3955  150.3096 LP  0  0  0  0  0  0  0  0  0  0  0  0  # atno 17370 bound_to 10713
  157.1247  131.0256  151.2995 LP  0  0  0  0  0  0  0  0  0  0  0  0  # atno 17371 bound_to 10713
  140.1043  134.5430  155.8324 LP  0  0  0  0  0  0  0  0  0  0  0  0  # atno 17394 bound_to 11000
  141.2112  133.6704  156.6569 LP  0  0  0  0  0  0  0  0  0  0  0  0  # atno 17395 bound_to 11000

$$$$
