AV-unprocessed.smi:2584|AV-procd|sdf|10143|dock3
  -GOLD-   2272014153D 1   1.00000     0.00000
 Structure written by MMmdl.
 35 36  0  0  0  0  0  0  0  0  2 V2000
  148.5091  137.9852  155.1661 O   0  0  0  0  0  0  0  0  0  0  0  0
  148.8233  138.5834  154.1366 C   0  0  0  0  0  0  0  0  0  0  0  0
  147.9445  138.9141  153.1793 N   0  0  0  0  0  0  0  0  0  0  0  0
  146.5216  138.5959  153.2102 C   0  0  0  0  0  0  0  0  0  0  0  0
  146.0634  137.9095  151.9083 C   0  0  0  0  0  0  0  0  0  0  0  0
  146.1861  136.4314  151.9740 N   0  3  0  0  0  0  0  0  0  0  0  0
  145.6630  135.7703  150.7494 C   0  0  0  0  0  0  0  0  0  0  0  0
  145.9232  134.2546  150.7789 C   0  0  0  0  0  0  0  0  0  0  0  0
  145.3223  133.6178  152.0385 C   0  0  0  0  0  0  0  0  0  0  0  0
  145.8480  134.3351  153.2880 C   0  0  0  0  0  0  0  0  0  0  0  0
  145.5878  135.8487  153.2060 C   0  0  0  0  0  0  0  0  0  0  0  0
  150.0657  138.9864  153.8219 N   0  0  0  0  0  0  0  0  0  0  0  0
  151.1987  138.8198  154.5493 C   0  0  0  0  0  0  0  0  0  0  0  0
  152.2378  137.9283  154.4386 C   0  0  0  0  0  0  0  0  0  0  0  0
  153.2354  138.0963  155.4119 N   0  0  0  0  0  0  0  0  0  0  0  0
  153.0052  139.0653  156.2484 N   0  0  0  0  0  0  0  0  0  0  0  0
  151.5571  139.8310  155.9017 S   0  0  0  0  0  0  0  0  0  0  0  0
  148.2868  139.4046  152.3657 H   0  0  0  0  0  0  0  0  0  0  0  0
  146.3409  137.9371  154.0600 H   0  0  0  0  0  0  0  0  0  0  0  0
  145.9589  139.5097  153.4021 H   0  0  0  0  0  0  0  0  0  0  0  0
  145.0357  138.1784  151.6585 H   0  0  0  0  0  0  0  0  0  0  0  0
  146.6848  138.2870  151.0948 H   0  0  0  0  0  0  0  0  0  0  0  0
  144.5938  135.9679  150.6563 H   0  0  0  0  0  0  0  0  0  0  0  0
  146.1420  136.1954  149.8665 H   0  0  0  0  0  0  0  0  0  0  0  0
  145.5025  133.7864  149.8885 H   0  0  0  0  0  0  0  0  0  0  0  0
  146.9973  134.0665  150.7492 H   0  0  0  0  0  0  0  0  0  0  0  0
  144.2341  133.6858  152.0037 H   0  0  0  0  0  0  0  0  0  0  0  0
  145.5686  132.5563  152.0802 H   0  0  0  0  0  0  0  0  0  0  0  0
  145.3753  133.9230  154.1802 H   0  0  0  0  0  0  0  0  0  0  0  0
  146.9184  134.1526  153.3933 H   0  0  0  0  0  0  0  0  0  0  0  0
  146.0037  136.3236  154.0936 H   0  0  0  0  0  0  0  0  0  0  0  0
  144.5144  136.0453  153.2186 H   0  0  0  0  0  0  0  0  0  0  0  0
  150.1799  139.4624  152.9390 H   0  0  0  0  0  0  0  0  0  0  0  0
  152.3641  137.1407  153.7111 H   0  0  0  0  0  0  0  0  0  0  0  0
  147.1748  136.2268  152.0009 H   0  0  0  0  0  0  0  0  0  0  0  0
  1  2  2  0  0  0  0
  2  3  1  0  0  0  0
  2 12  1  0  0  0  0
  3  4  1  0  0  0  0
  3 18  1  0  0  0  0
  4  5  1  0  0  0  0
  4 19  1  0  0  0  0
  4 20  1  0  0  0  0
  5  6  1  0  0  0  0
  5 21  1  0  0  0  0
  5 22  1  0  0  0  0
  6 11  1  0  0  0  0
  6  7  1  0  0  0  0
  6 35  1  0  0  0  0
  7  8  1  0  0  0  0
  7 23  1  0  0  0  0
  7 24  1  0  0  0  0
  8  9  1  0  0  0  0
  8 25  1  0  0  0  0
  8 26  1  0  0  0  0
  9 10  1  0  0  0  0
  9 27  1  0  0  0  0
  9 28  1  0  0  0  0
 10 11  1  0  0  0  0
 10 29  1  0  0  0  0
 10 30  1  0  0  0  0
 11 31  1  0  0  0  0
 11 32  1  0  0  0  0
 12 13  1  0  0  0  0
 12 33  1  0  0  0  0
 13 17  1  0  0  0  0
 13 14  2  0  0  0  0
 14 15  1  0  0  0  0
 14 34  1  0  0  0  0
 15 16  2  0  0  0  0
 16 17  1  0  0  0  0
M  CHG  1   6   1
M  END
> <s_m_source_file>
AV-unprocessed.smi

> <i_m_source_file_index>
2584

> <i_lp_mmshare_version>
43012

> <i_f3d_flags>
0

> <s_epik_input>
czFubltjSF1jMVtOSF1DKD1PKVtOSF1bQ0gyXVtDSDJdTjJbQ0gyXVtDSDJdW0NIMl1bQ0gyXVtDSDJdMg==

> <s_epik_cmdline>
J2VwaWtfcHl0aG9uJywgJy1waCcsICc3LjAnLCAnLXRuJywgJzgnLCAnLW1hJywgJzIwMCcsICctbWV0YWxfYmluZGluZycsICctaW1hZScsICc8aW5maWxlLm1hZT4nLCAnLW9tYWUnLCAnPG91dGZpbGUubWFlPic=

> <r_lp_tautomer_probability>
1

> <r_epik_Ionization_Penalty>
0.00255984

> <r_epik_Ionization_Penalty_Charging>
0.0025387

> <r_epik_Ionization_Penalty_Neutral>
2.11374e-05

> <r_epik_State_Penalty>
0.00176242

> <r_epik_Charging_Adjusted_Penalty>
0.00430112

> <i_epik_Tot_Q>
1

> <i_epik_Tot_abs_Q>
1

> <r_epik_Metal_State_Penalty>
-0

> <b_epik_Metal_Only>
0

> <s_lp_Force_Field>
OPLS_2005

> <r_lp_Energy>
17.0629

> <b_lp_Chiralities_Consistent>
1

> <s_lp_Variant>
AV-unprocessed.smi:2584-1

> <Gold.Version>
5.8.1

> <Gold.Id.Protein>
6NUR|6NUR_protein|mol2

> <Gold.PLP.Fitness>
43.8756

> <Gold.PLP.PLP>
-28.6318

> <Gold.PLP.part.hbond>
-5.7573

> <Gold.PLP.part.metal>
0.0000

> <Gold.PLP.part.buried>
-2.0361

> <Gold.PLP.part.nonpolar>
-21.1426

> <Gold.PLP.part.repulsive>
0.2906

> <Gold.PLP.ligand.clash>
0.0000

> <Gold.PLP.ligand.torsion>
0.9755

> <Gold.PLP.Chemscore.Hbond>
5.0000

> <Gold.PLP.Chemscore.CHOScore>
0.7239

> <Gold.PLP.Chemscore.Metal>
0.0000

> <Gold.Chemscore.Hbonds>
donor molecule, donor type, donor heavy atom, donor atom, acceptor molecule, acceptor atom, score
      L1  H     3    18       P1  7957  1.00
      L1  H     6    35       P1  7948  2.00
      L1  H    12    33       P1  7957  1.00
      P1  H  7997  8008       L1    16  1.00
      L1  C    14    34       P1  7949  0.41

> <Gold.PLP.Chemscore.Internal.Correction>
0.0232

> <Gold.Rescore>
     Score         DG    S(hbond)    S(metal)    S(lipo)     H(rot)  DE(clash)    DE(int)     intcor
     20.01     -21.16       3.83        0.00      60.86       1.65       0.15       0.99       ----

> <Gold.Chemscore.Fitness>
20.0149

> <Gold.Chemscore.DG>
-21.1615

> <Gold.Chemscore.ZeroCoef>
-5.4800

> <Gold.Chemscore.Hbond>
3.8276

> <Gold.Chemscore.Metal>
0.0000

> <Gold.Chemscore.Lipo>
60.8592

> <Gold.Chemscore.Internal_Hbond>
0.0000

> <Gold.Chemscore.DEClash>
0.1525

> <Gold.Chemscore.DEInternal>
0.9940

> <Gold.Chemscore.Rot>
1.6497

> <Gold.Chemscore.Internal.Correction>
   9.000000E+99

> <Gold.Chemscore.Hbonds>
donor molecule, donor type, donor heavy atom, donor atom, acceptor molecule, acceptor atom, score
      L1  H     3    18       P1  7957  0.98
      L1  H     6    35       P1  7948  1.00
      L1  H    12    33       P1  7957  0.92
      P1  H  7997  8008       L1    16  0.55

> <Gold.Chemscore.Hbond.Weighted>
-12.7841

> <Gold.Chemscore.Metal.Weighted>
-0.0000

> <Gold.Chemscore.Lipo.Weighted>
-7.1205

> <Gold.Chemscore.Internal_Hbond.Weighted>
0.0000

> <Gold.Chemscore.DEClash.Weighted>
0.1525

> <Gold.Chemscore.DEInternal.Weighted>
0.9940

> <Gold.Chemscore.Rot.Weighted>
4.2232

> <Gold.Chemscore.Internal.Correction.Weighted>
   9.000000E+99

> <Gold.Protein.RotatedTorsions>
[ 6907 6896 6895 6894 ] final    9.35 input  -60.11 | X-H torsion
[ 7974 7965 7964 7962 ] final  161.87 input  175.53 | X-H torsion
[ 8008 7997 7996 7995 ] final  -34.47 input   59.86 | X-H torsion
[ 10167 10162 10161 10158 ] final -154.53 input  -65.29 | X-H torsion
[ 10718 10713 10712 10709 ] final  -98.24 input   66.30 | X-H torsion
[ 10763 10752 10751 10750 ] final   69.93 input  -60.55 | X-H torsion
[ 11005 11000 10999 10996 ] final -117.75 input  -57.11 | X-H torsion

> <Gold.Protein.ActiveResidues>
 VAL166  LYS551  ARG553  GLY616  TRP617  ASP618  TYR619  PRO620  LYS621  CYS622 
 ASP623  PHE694  ASN695  SER759  ASP760  ASP761  ALA762  ILE779  LEU786  VAL792 
 PHE793  MET794  SER795  GLU796  ALA797  LYS798  CYS799  TRP800  GLU811  SER814 

> <Gold.Protein.RotatedAtoms>
  151.7207  135.0895  160.0283 H   0  0  0  0  0  0  0  0  0  0  0  0  # atno 6907 bound_to 6896
  152.3604  133.6285  159.6019 H   0  0  0  0  0  0  0  0  0  0  0  0  # atno 6908 bound_to 6896
  150.7600  133.9349  159.3480 H   0  0  0  0  0  0  0  0  0  0  0  0  # atno 6909 bound_to 6896
  144.7664  139.7960  143.6313 H   0  0  0  0  0  0  0  0  0  0  0  0  # atno 7974 bound_to 7965
  154.4120  140.1683  156.2054 H   0  0  0  0  0  0  0  0  0  0  0  0  # atno 8008 bound_to 7997
  155.9488  140.3402  155.6367 H   0  0  0  0  0  0  0  0  0  0  0  0  # atno 8009 bound_to 7997
  155.6896  140.0732  157.2444 H   0  0  0  0  0  0  0  0  0  0  0  0  # atno 8010 bound_to 7997
  139.7006  143.9269  152.2427 H   0  0  0  0  0  0  0  0  0  0  0  0  # atno 10167 bound_to 10162
  156.0102  130.5229  150.6493 H   0  0  0  0  0  0  0  0  0  0  0  0  # atno 10718 bound_to 10713
  153.0314  135.5192  154.7363 H   0  0  0  0  0  0  0  0  0  0  0  0  # atno 10763 bound_to 10752
  154.6376  135.2908  155.0144 H   0  0  0  0  0  0  0  0  0  0  0  0  # atno 10764 bound_to 10752
  154.1074  135.6627  153.4931 H   0  0  0  0  0  0  0  0  0  0  0  0  # atno 10765 bound_to 10752
  141.0333  133.9948  157.3110 H   0  0  0  0  0  0  0  0  0  0  0  0  # atno 11005 bound_to 11000
  146.1775  139.4952  142.9888 LP  0  0  0  0  0  0  0  0  0  0  0  0  # atno 17320 bound_to 7965
  145.6457  141.0274  143.1787 LP  0  0  0  0  0  0  0  0  0  0  0  0  # atno 17321 bound_to 7965
  139.9111  144.6856  150.8561 LP  0  0  0  0  0  0  0  0  0  0  0  0  # atno 17342 bound_to 10162
  140.7708  143.3443  151.2144 LP  0  0  0  0  0  0  0  0  0  0  0  0  # atno 17343 bound_to 10162
  157.4257  131.0843  151.1087 LP  0  0  0  0  0  0  0  0  0  0  0  0  # atno 17370 bound_to 10713
  157.1675  130.6253  149.5630 LP  0  0  0  0  0  0  0  0  0  0  0  0  # atno 17371 bound_to 10713
  139.9223  135.0201  156.8108 LP  0  0  0  0  0  0  0  0  0  0  0  0  # atno 17394 bound_to 11000
  140.6368  133.9855  155.7688 LP  0  0  0  0  0  0  0  0  0  0  0  0  # atno 17395 bound_to 11000

$$$$
