AV-unprocessed.smi:417|AV-procd|sdf|2527|dock4
  -GOLD-   2262022483D 1   1.00000     0.00000
 Structure written by MMmdl.
 37 38  0  0  0  0  0  0  0  0  1 V2000
  154.7945  134.2319  162.5474 C   0  0  0  0  0  0  0  0  0  0  0  0
  154.9470  135.7138  162.9285 C   0  0  0  0  0  0  0  0  0  0  0  0
  154.2804  136.0122  164.2820 C   0  0  0  0  0  0  0  0  0  0  0  0
  154.3747  136.6206  161.8299 C   0  0  0  0  0  0  0  0  0  0  0  0
  153.8367  136.1157  160.8437 O   0  0  0  0  0  0  0  0  0  0  0  0
  154.5090  137.9451  162.0323 N   0  0  0  0  0  0  0  0  0  0  0  0
  154.0610  139.0122  161.2088 C   0  0  0  0  0  0  0  0  0  0  0  0
  154.3530  140.3053  161.6917 C   0  0  0  0  0  0  0  0  0  0  0  0
  153.9403  141.4315  160.9548 C   0  0  0  0  0  0  0  0  0  0  0  0
  153.2348  141.2514  159.7409 C   0  0  0  0  0  0  0  0  0  0  0  0
  152.7843  142.3312  158.9506 N   0  0  0  0  0  0  0  0  0  0  0  0
  153.1315  143.6857  159.3712 C   0  0  0  0  0  0  0  0  0  0  0  0
  152.8190  144.6925  158.2509 C   0  0  0  0  0  0  0  0  0  0  0  0
  151.4549  144.5702  157.8632 O   0  0  0  0  0  0  0  0  0  0  0  0
  151.1665  143.2744  157.3484 C   0  0  0  0  0  0  0  0  0  0  0  0
  151.4232  142.2130  158.4325 C   0  0  0  0  0  0  0  0  0  0  0  0
  152.9991  139.9165  159.3386 C   0  0  0  0  0  0  0  0  0  0  0  0
  153.3951  138.8358  160.0428 N   0  0  0  0  0  0  0  0  0  0  0  0
  155.2487  134.0216  161.5784 H   0  0  0  0  0  0  0  0  0  0  0  0
  153.7459  133.9361  162.4958 H   0  0  0  0  0  0  0  0  0  0  0  0
  155.2822  133.5902  163.2816 H   0  0  0  0  0  0  0  0  0  0  0  0
  156.0132  135.9240  163.0280 H   0  0  0  0  0  0  0  0  0  0  0  0
  154.3904  137.0624  164.5553 H   0  0  0  0  0  0  0  0  0  0  0  0
  154.7317  135.4192  165.0778 H   0  0  0  0  0  0  0  0  0  0  0  0
  153.2142  135.7822  164.2645 H   0  0  0  0  0  0  0  0  0  0  0  0
  154.9798  138.2202  162.8818 H   0  0  0  0  0  0  0  0  0  0  0  0
  154.8851  140.4398  162.6223 H   0  0  0  0  0  0  0  0  0  0  0  0
  154.1635  142.4137  161.3434 H   0  0  0  0  0  0  0  0  0  0  0  0
  152.5663  143.9422  160.2683 H   0  0  0  0  0  0  0  0  0  0  0  0
  154.1917  143.7432  159.6208 H   0  0  0  0  0  0  0  0  0  0  0  0
  152.9993  145.7094  158.5998 H   0  0  0  0  0  0  0  0  0  0  0  0
  153.4694  144.5312  157.3896 H   0  0  0  0  0  0  0  0  0  0  0  0
  150.1239  143.2424  157.0322 H   0  0  0  0  0  0  0  0  0  0  0  0
  151.7734  143.0798  156.4627 H   0  0  0  0  0  0  0  0  0  0  0  0
  151.2339  141.2260  158.0125 H   0  0  0  0  0  0  0  0  0  0  0  0
  150.7211  142.3464  159.2566 H   0  0  0  0  0  0  0  0  0  0  0  0
  152.4891  139.6949  158.4130 H   0  0  0  0  0  0  0  0  0  0  0  0
  1  2  1  0  0  0  0
  1 19  1  0  0  0  0
  1 20  1  0  0  0  0
  1 21  1  0  0  0  0
  2  3  1  0  0  0  0
  2  4  1  0  0  0  0
  2 22  1  0  0  0  0
  3 23  1  0  0  0  0
  3 24  1  0  0  0  0
  3 25  1  0  0  0  0
  4  5  2  0  0  0  0
  4  6  1  0  0  0  0
  6  7  1  0  0  0  0
  6 26  1  0  0  0  0
  7 18  1  0  0  0  0
  7  8  2  0  0  0  0
  8  9  1  0  0  0  0
  8 27  1  0  0  0  0
  9 10  2  0  0  0  0
  9 28  1  0  0  0  0
 10 11  1  0  0  0  0
 10 17  1  0  0  0  0
 11 16  1  0  0  0  0
 11 12  1  0  0  0  0
 12 13  1  0  0  0  0
 12 29  1  0  0  0  0
 12 30  1  0  0  0  0
 13 14  1  0  0  0  0
 13 31  1  0  0  0  0
 13 32  1  0  0  0  0
 14 15  1  0  0  0  0
 15 16  1  0  0  0  0
 15 33  1  0  0  0  0
 15 34  1  0  0  0  0
 16 35  1  0  0  0  0
 16 36  1  0  0  0  0
 17 18  2  0  0  0  0
 17 37  1  0  0  0  0
M  END
> <s_m_source_file>
AV-unprocessed.smi

> <i_m_source_file_index>
417

> <i_lp_mmshare_version>
43012

> <i_f3d_flags>
0

> <s_epik_input>
W0NIM11bQ0hdKFtDSDNdKUMoPU8pW05IXWMxW2NIXVtjSF1jKFtjSF1uMSlOMltDSDJdW0NIMl1PW0NIMl1bQ0gyXTI=

> <s_epik_cmdline>
J2VwaWtfcHl0aG9uJywgJy1waCcsICc3LjAnLCAnLXRuJywgJzgnLCAnLW1hJywgJzIwMCcsICctbWV0YWxfYmluZGluZycsICctaW1hZScsICc8aW5maWxlLm1hZT4nLCAnLW9tYWUnLCAnPG91dGZpbGUubWFlPic=

> <r_lp_tautomer_probability>
1

> <r_epik_Ionization_Penalty>
0.00384847

> <r_epik_Ionization_Penalty_Charging>
0

> <r_epik_Ionization_Penalty_Neutral>
0.00384847

> <r_epik_State_Penalty>
0.00343319

> <r_epik_Charging_Adjusted_Penalty>
0.00343319

> <i_epik_Tot_Q>
0

> <i_epik_Tot_abs_Q>
0

> <r_epik_Metal_State_Penalty>
-0

> <b_epik_Metal_Only>
0

> <s_lp_Force_Field>
OPLS_2005

> <r_lp_Energy>
26.2331

> <b_lp_Chiralities_Consistent>
1

> <s_lp_Variant>
AV-unprocessed.smi:417-1

> <Gold.Version>
5.8.1

> <Gold.Id.Protein>
6NUR|6NUR_protein|mol2

> <Gold.PLP.Fitness>
39.0773

> <Gold.PLP.PLP>
-36.8636

> <Gold.PLP.part.hbond>
-0.7529

> <Gold.PLP.part.metal>
0.0000

> <Gold.PLP.part.buried>
-4.3491

> <Gold.PLP.part.nonpolar>
-31.8692

> <Gold.PLP.part.repulsive>
0.1490

> <Gold.PLP.ligand.clash>
0.0000

> <Gold.PLP.ligand.torsion>
0.2264

> <Gold.PLP.Chemscore.Hbond>
0.7638

> <Gold.PLP.Chemscore.CHOScore>
0.0000

> <Gold.PLP.Chemscore.Metal>
0.0000

> <Gold.Chemscore.Hbonds>
donor molecule, donor type, donor heavy atom, donor atom, acceptor molecule, acceptor atom, score
      P1  H  6896  6908       L1     5  0.75

> <Gold.PLP.Chemscore.Internal.Correction>
0.3751

> <Gold.Rescore>
     Score         DG    S(hbond)    S(metal)    S(lipo)     H(rot)  DE(clash)    DE(int)     intcor
     16.24     -17.76       0.99        0.00     102.46       1.18       0.02       1.50       ----

> <Gold.Chemscore.Fitness>
16.2434

> <Gold.Chemscore.DG>
-17.7626

> <Gold.Chemscore.ZeroCoef>
-5.4800

> <Gold.Chemscore.Hbond>
0.9890

> <Gold.Chemscore.Metal>
0.0000

> <Gold.Chemscore.Lipo>
102.4553

> <Gold.Chemscore.Internal_Hbond>
0.0000

> <Gold.Chemscore.DEClash>
0.0240

> <Gold.Chemscore.DEInternal>
1.4952

> <Gold.Chemscore.Rot>
1.1750

> <Gold.Chemscore.Internal.Correction>
   9.000000E+99

> <Gold.Chemscore.Hbonds>
donor molecule, donor type, donor heavy atom, donor atom, acceptor molecule, acceptor atom, score
      P1  H  6896  6908       L1     5  0.75

> <Gold.Chemscore.Hbond.Weighted>
-3.3033

> <Gold.Chemscore.Metal.Weighted>
-0.0000

> <Gold.Chemscore.Lipo.Weighted>
-11.9873

> <Gold.Chemscore.Internal_Hbond.Weighted>
0.0000

> <Gold.Chemscore.DEClash.Weighted>
0.0240

> <Gold.Chemscore.DEInternal.Weighted>
1.4952

> <Gold.Chemscore.Rot.Weighted>
3.0080

> <Gold.Chemscore.Internal.Correction.Weighted>
   9.000000E+99

> <Gold.Protein.RotatedTorsions>
[ 6907 6896 6895 6894 ] final  -70.79 input  -60.11 | X-H torsion
[ 7974 7965 7964 7962 ] final   60.74 input  175.53 | X-H torsion
[ 8008 7997 7996 7995 ] final -134.84 input   59.86 | X-H torsion
[ 10167 10162 10161 10158 ] final -124.90 input  -65.29 | X-H torsion
[ 10718 10713 10712 10709 ] final   21.51 input   66.30 | X-H torsion
[ 10763 10752 10751 10750 ] final  158.40 input  -60.55 | X-H torsion
[ 11005 11000 10999 10996 ] final  164.36 input  -57.11 | X-H torsion

> <Gold.Protein.ActiveResidues>
 VAL166  LYS551  ARG553  GLY616  TRP617  ASP618  TYR619  PRO620  LYS621  CYS622 
 ASP623  PHE694  ASN695  SER759  ASP760  ASP761  ALA762  ILE779  LEU786  VAL792 
 PHE793  MET794  SER795  GLU796  ALA797  LYS798  CYS799  TRP800  GLU811  SER814 

> <Gold.Protein.RotatedAtoms>
  150.7241  134.5402  159.5743 H   0  0  0  0  0  0  0  0  0  0  0  0  # atno 6907 bound_to 6896
  152.2914  134.7714  160.0386 H   0  0  0  0  0  0  0  0  0  0  0  0  # atno 6908 bound_to 6896
  151.8326  133.3375  159.3655 H   0  0  0  0  0  0  0  0  0  0  0  0  # atno 6909 bound_to 6896
  145.8926  139.3522  143.0640 H   0  0  0  0  0  0  0  0  0  0  0  0  # atno 7974 bound_to 7965
  155.3688  140.0487  157.3046 H   0  0  0  0  0  0  0  0  0  0  0  0  # atno 8008 bound_to 7997
  154.5141  140.2202  155.9063 H   0  0  0  0  0  0  0  0  0  0  0  0  # atno 8009 bound_to 7997
  156.1616  140.3115  155.8822 H   0  0  0  0  0  0  0  0  0  0  0  0  # atno 8010 bound_to 7997
  139.9878  143.5673  152.2354 H   0  0  0  0  0  0  0  0  0  0  0  0  # atno 10167 bound_to 10162
  157.1394  130.6626  149.5976 H   0  0  0  0  0  0  0  0  0  0  0  0  # atno 10718 bound_to 10713
  154.2154  135.2784  155.2944 H   0  0  0  0  0  0  0  0  0  0  0  0  # atno 10763 bound_to 10752
  154.5745  135.5608  153.7129 H   0  0  0  0  0  0  0  0  0  0  0  0  # atno 10764 bound_to 10752
  153.0054  135.6329  154.2293 H   0  0  0  0  0  0  0  0  0  0  0  0  # atno 10765 bound_to 10752
  140.2451  134.8021  157.3448 H   0  0  0  0  0  0  0  0  0  0  0  0  # atno 11005 bound_to 11000
  145.8889  140.9316  143.0562 LP  0  0  0  0  0  0  0  0  0  0  0  0  # atno 17320 bound_to 7965
  144.6731  140.0879  143.7466 LP  0  0  0  0  0  0  0  0  0  0  0  0  # atno 17321 bound_to 7965
  139.6362  144.7650  151.2433 LP  0  0  0  0  0  0  0  0  0  0  0  0  # atno 17342 bound_to 10162
  140.7466  143.6394  150.8349 LP  0  0  0  0  0  0  0  0  0  0  0  0  # atno 17343 bound_to 10162
  155.9791  130.4783  150.6698 LP  0  0  0  0  0  0  0  0  0  0  0  0  # atno 17370 bound_to 10713
  157.4320  131.0850  151.1029 LP  0  0  0  0  0  0  0  0  0  0  0  0  # atno 17371 bound_to 10713
  140.1614  134.4724  155.7892 LP  0  0  0  0  0  0  0  0  0  0  0  0  # atno 17394 bound_to 11000
  141.2207  133.6903  156.7551 LP  0  0  0  0  0  0  0  0  0  0  0  0  # atno 17395 bound_to 11000

$$$$
