AV-unprocessed.smi:3228|AV-procd|sdf|12321|dock1
  -GOLD-   2272018173D 1   1.00000     0.00000
 Structure written by MMmdl.
 31 32  0  0  0  0  0  0  0  0  1 V2000
  145.3755  138.5990  152.4659 O   0  0  0  0  0  0  0  0  0  0  0  0
  146.4111  137.9774  152.2260 C   0  0  0  0  0  0  0  0  0  0  0  0
  146.4360  136.8128  151.5621 N   0  0  0  0  0  0  0  0  0  0  0  0
  145.2601  136.1222  151.0419 C   0  0  0  0  0  0  0  0  0  0  0  0
  145.2369  134.6298  151.4361 C   0  0  2  0  0  0  0  0  0  0  0  0
  146.5419  133.8810  151.1424 C   0  0  0  0  0  0  0  0  0  0  0  0
  146.1621  132.3940  151.0673 C   0  0  0  0  0  0  0  0  0  0  0  0
  144.6265  132.3337  151.0391 C   0  0  0  0  0  0  0  0  0  0  0  0
  144.1519  133.7661  150.7730 C   0  0  2  0  0  0  0  0  0  0  0  0
  144.1009  133.9809  149.3745 O   0  0  0  0  0  0  0  0  0  0  0  0
  147.6492  138.3628  152.5821 N   0  0  0  0  0  0  0  0  0  0  0  0
  148.0323  139.5217  153.3074 C   0  0  0  0  0  0  0  0  0  0  0  0
  149.1040  139.5928  154.1057 N   0  0  0  0  0  0  0  0  0  0  0  0
  149.2414  140.8551  154.6884 C   0  0  0  0  0  0  0  0  0  0  0  0
  148.2582  141.7394  154.3203 C   0  0  0  0  0  0  0  0  0  0  0  0
  147.1137  141.0176  153.2208 S   0  0  0  0  0  0  0  0  0  0  0  0
  147.3298  136.3687  151.4108 H   0  0  0  0  0  0  0  0  0  0  0  0
  144.3727  136.6310  151.4193 H   0  0  0  0  0  0  0  0  0  0  0  0
  145.2250  136.2222  149.9557 H   0  0  0  0  0  0  0  0  0  0  0  0
  145.0768  134.5694  152.5143 H   0  0  0  0  0  0  0  0  0  0  0  0
  146.9477  134.1999  150.1814 H   0  0  0  0  0  0  0  0  0  0  0  0
  147.3035  134.0753  151.8983 H   0  0  0  0  0  0  0  0  0  0  0  0
  146.5863  131.9412  150.1707 H   0  0  0  0  0  0  0  0  0  0  0  0
  146.5500  131.8430  151.9245 H   0  0  0  0  0  0  0  0  0  0  0  0
  144.2463  131.6155  150.3114 H   0  0  0  0  0  0  0  0  0  0  0  0
  144.2677  132.0171  152.0192 H   0  0  0  0  0  0  0  0  0  0  0  0
  143.1639  133.9511  151.1954 H   0  0  0  0  0  0  0  0  0  0  0  0
  144.9846  134.0675  149.0518 H   0  0  0  0  0  0  0  0  0  0  0  0
  148.4059  137.7533  152.3091 H   0  0  0  0  0  0  0  0  0  0  0  0
  150.0711  141.0379  155.3554 H   0  0  0  0  0  0  0  0  0  0  0  0
  148.1386  142.7674  154.6280 H   0  0  0  0  0  0  0  0  0  0  0  0
  1  2  2  0  0  0  0
  2  3  1  0  0  0  0
  2 11  1  0  0  0  0
  3  4  1  0  0  0  0
  3 17  1  0  0  0  0
  4  5  1  0  0  0  0
  4 18  1  0  0  0  0
  4 19  1  0  0  0  0
  5  9  1  0  0  0  0
  5  6  1  0  0  0  0
  5 20  1  0  0  0  0
  6  7  1  0  0  0  0
  6 21  1  0  0  0  0
  6 22  1  0  0  0  0
  7  8  1  0  0  0  0
  7 23  1  0  0  0  0
  7 24  1  0  0  0  0
  8  9  1  0  0  0  0
  8 25  1  0  0  0  0
  8 26  1  0  0  0  0
  9 10  1  0  0  0  0
  9 27  1  0  0  0  0
 10 28  1  0  0  0  0
 11 12  1  0  0  0  0
 11 29  1  0  0  0  0
 12 16  1  0  0  0  0
 12 13  2  0  0  0  0
 13 14  1  0  0  0  0
 14 15  2  0  0  0  0
 14 30  1  0  0  0  0
 15 16  1  0  0  0  0
 15 31  1  0  0  0  0
M  END
> <s_m_source_file>
AV-unprocessed.smi

> <i_m_source_file_index>
3228

> <i_lp_mmshare_version>
43012

> <i_f3d_flags>
0

> <s_epik_input>
czFbY0hdW2NIXW5jMVtOSF1DKD1PKVtOSF1bQ0gyXVtDQEBIXTJbQ0gyXVtDSDJdW0NIMl1bQ0BIXTJbT0hd

> <s_epik_cmdline>
J2VwaWtfcHl0aG9uJywgJy1waCcsICc3LjAnLCAnLXRuJywgJzgnLCAnLW1hJywgJzIwMCcsICctbWV0YWxfYmluZGluZycsICctaW1hZScsICc8aW5maWxlLm1hZT4nLCAnLW9tYWUnLCAnPG91dGZpbGUubWFlPic=

> <r_lp_tautomer_probability>
0.999

> <r_epik_Ionization_Penalty>
0.000399498

> <r_epik_Ionization_Penalty_Charging>
0

> <r_epik_Ionization_Penalty_Neutral>
0.000399498

> <r_epik_State_Penalty>
0.000177984

> <r_epik_Charging_Adjusted_Penalty>
0.000177984

> <i_epik_Tot_Q>
0

> <i_epik_Tot_abs_Q>
0

> <r_epik_Metal_State_Penalty>
0.0060793

> <b_epik_Metal_Only>
0

> <s_lp_Force_Field>
OPLS_2005

> <r_lp_Energy>
23.3722

> <b_lp_Chiralities_Consistent>
1

> <s_lp_Variant>
AV-unprocessed.smi:3228-3

> <Gold.Version>
5.8.1

> <Gold.Id.Protein>
6NUR|6NUR_protein|mol2

> <Gold.PLP.Fitness>
39.9131

> <Gold.PLP.PLP>
-28.5650

> <Gold.PLP.part.hbond>
-4.8566

> <Gold.PLP.part.metal>
0.0000

> <Gold.PLP.part.buried>
-1.6510

> <Gold.PLP.part.nonpolar>
-25.9282

> <Gold.PLP.part.repulsive>
4.7934

> <Gold.PLP.ligand.clash>
0.0000

> <Gold.PLP.ligand.torsion>
0.2855

> <Gold.PLP.Chemscore.Hbond>
2.9680

> <Gold.PLP.Chemscore.CHOScore>
1.0000

> <Gold.PLP.Chemscore.Metal>
0.0000

> <Gold.Chemscore.Hbonds>
donor molecule, donor type, donor heavy atom, donor atom, acceptor molecule, acceptor atom, score
      L1  H     3    17       P1  7948  0.99
      L1  H    10    28       P1  7921  0.91
      L1  H    11    29       P1  7948  1.00
      L1  C    15    31       P1  8028  1.00

> <Gold.PLP.Chemscore.Internal.Correction>
0.0152

> <Gold.Rescore>
     Score         DG    S(hbond)    S(metal)    S(lipo)     H(rot)  DE(clash)    DE(int)     intcor
     15.45     -17.50       2.89        0.00      61.34       1.88       1.69       0.36       ----

> <Gold.Chemscore.Fitness>
15.4524

> <Gold.Chemscore.DG>
-17.4957

> <Gold.Chemscore.ZeroCoef>
-5.4800

> <Gold.Chemscore.Hbond>
2.8887

> <Gold.Chemscore.Metal>
0.0000

> <Gold.Chemscore.Lipo>
61.3389

> <Gold.Chemscore.Internal_Hbond>
0.0000

> <Gold.Chemscore.DEClash>
1.6852

> <Gold.Chemscore.DEInternal>
0.3581

> <Gold.Chemscore.Rot>
1.8786

> <Gold.Chemscore.Internal.Correction>
   9.000000E+99

> <Gold.Chemscore.Hbonds>
donor molecule, donor type, donor heavy atom, donor atom, acceptor molecule, acceptor atom, score
      L1  H     3    17       P1  7948  0.94
      L1  H    10    28       P1  7921  0.87
      L1  H    11    29       P1  7948  0.95

> <Gold.Chemscore.Hbond.Weighted>
-9.6482

> <Gold.Chemscore.Metal.Weighted>
-0.0000

> <Gold.Chemscore.Lipo.Weighted>
-7.1766

> <Gold.Chemscore.Internal_Hbond.Weighted>
0.0000

> <Gold.Chemscore.DEClash.Weighted>
1.6852

> <Gold.Chemscore.DEInternal.Weighted>
0.3581

> <Gold.Chemscore.Rot.Weighted>
4.8091

> <Gold.Chemscore.Internal.Correction.Weighted>
   9.000000E+99

> <Gold.Protein.RotatedTorsions>
[ 6907 6896 6895 6894 ] final -149.46 input  -60.11 | X-H torsion
[ 7974 7965 7964 7962 ] final   14.40 input  175.53 | X-H torsion
[ 8008 7997 7996 7995 ] final -158.41 input   59.86 | X-H torsion
[ 10167 10162 10161 10158 ] final -164.10 input  -65.29 | X-H torsion
[ 10718 10713 10712 10709 ] final  -12.26 input   66.30 | X-H torsion
[ 10763 10752 10751 10750 ] final   50.13 input  -60.55 | X-H torsion
[ 11005 11000 10999 10996 ] final   -8.68 input  -57.11 | X-H torsion

> <Gold.Protein.ActiveResidues>
 VAL166  LYS551  ARG553  GLY616  TRP617  ASP618  TYR619  PRO620  LYS621  CYS622 
 ASP623  PHE694  ASN695  SER759  ASP760  ASP761  ALA762  ILE779  LEU786  VAL792 
 PHE793  MET794  SER795  GLU796  ALA797  LYS798  CYS799  TRP800  GLU811  SER814 

> <Gold.Protein.RotatedAtoms>
  151.1845  133.4704  159.2594 H   0  0  0  0  0  0  0  0  0  0  0  0  # atno 6907 bound_to 6896
  151.1225  135.0087  159.8555 H   0  0  0  0  0  0  0  0  0  0  0  0  # atno 6908 bound_to 6896
  152.5456  134.1755  159.8667 H   0  0  0  0  0  0  0  0  0  0  0  0  # atno 6909 bound_to 6896
  146.2306  139.9046  142.8534 H   0  0  0  0  0  0  0  0  0  0  0  0  # atno 7974 bound_to 7965
  155.7471  140.0821  157.2218 H   0  0  0  0  0  0  0  0  0  0  0  0  # atno 8008 bound_to 7997
  154.4016  140.1567  156.2737 H   0  0  0  0  0  0  0  0  0  0  0  0  # atno 8009 bound_to 7997
  155.8965  140.3412  155.5998 H   0  0  0  0  0  0  0  0  0  0  0  0  # atno 8010 bound_to 7997
  139.6274  144.0505  152.1987 H   0  0  0  0  0  0  0  0  0  0  0  0  # atno 10167 bound_to 10162
  156.6471  130.4944  149.6075 H   0  0  0  0  0  0  0  0  0  0  0  0  # atno 10718 bound_to 10713
  152.9785  135.5889  154.4202 H   0  0  0  0  0  0  0  0  0  0  0  0  # atno 10763 bound_to 10752
  154.3828  135.2767  155.2203 H   0  0  0  0  0  0  0  0  0  0  0  0  # atno 10764 bound_to 10752
  154.4110  135.6081  153.6007 H   0  0  0  0  0  0  0  0  0  0  0  0  # atno 10765 bound_to 10752
  140.7261  133.8788  155.8857 H   0  0  0  0  0  0  0  0  0  0  0  0  # atno 11005 bound_to 11000
  145.2289  140.9965  143.4002 LP  0  0  0  0  0  0  0  0  0  0  0  0  # atno 17320 bound_to 7965
  144.9547  139.4045  143.6385 LP  0  0  0  0  0  0  0  0  0  0  0  0  # atno 17321 bound_to 7965
  140.0162  144.6187  150.7605 LP  0  0  0  0  0  0  0  0  0  0  0  0  # atno 17342 bound_to 10162
  140.7419  143.2825  151.3559 LP  0  0  0  0  0  0  0  0  0  0  0  0  # atno 17343 bound_to 10162
  156.2113  130.6681  151.1272 LP  0  0  0  0  0  0  0  0  0  0  0  0  # atno 17370 bound_to 10713
  157.7153  131.0713  150.6351 LP  0  0  0  0  0  0  0  0  0  0  0  0  # atno 17371 bound_to 10713
  140.9962  134.1212  157.4361 LP  0  0  0  0  0  0  0  0  0  0  0  0  # atno 17394 bound_to 11000
  139.8837  135.0055  156.6318 LP  0  0  0  0  0  0  0  0  0  0  0  0  # atno 17395 bound_to 11000

$$$$
