AV-unprocessed.smi:50|AV-procd|sdf|492|dock9
  -GOLD-   2262016353D 1   1.00000     0.00000
 Structure written by MMmdl.
 44 45  0  0  0  0  0  0  0  0  2 V2000
  149.3234  140.5454  155.3696 C   0  0  0  0  0  0  0  0  0  0  0  0
  150.0389  139.2646  155.8425 C   0  0  0  0  0  0  0  0  0  0  0  0
  151.5557  139.5241  155.9099 C   0  0  0  0  0  0  0  0  0  0  0  0
  149.6994  138.0365  154.9537 C   0  0  1  0  0  0  0  0  0  0  0  0
  149.7641  138.3665  153.5176 N   0  3  0  0  0  0  0  0  0  0  0  0
  150.6457  136.8409  155.1480 C   0  0  0  0  0  0  0  0  0  0  0  0
  151.8508  136.8549  154.8923 O   0  0  0  0  0  0  0  0  0  0  0  0
  149.9620  135.7740  155.5961 O   0  0  0  0  0  0  0  0  0  0  0  0
  150.5865  134.5001  155.6230 C   0  0  0  0  0  0  0  0  0  0  0  0
  149.6360  133.4757  156.2487 C   0  0  0  0  0  0  0  0  0  0  0  0
  149.5664  133.7134  157.6454 O   0  0  0  0  0  0  0  0  0  0  0  0
  148.4605  133.1261  158.2490 C   0  0  0  0  0  0  0  0  0  0  0  0
  147.8511  134.1039  159.1335 N   0  0  0  0  0  0  0  0  0  0  0  0
  148.2099  135.4106  159.3618 C   0  0  0  0  0  0  0  0  0  0  0  0
  147.4544  136.0244  160.2292 N   0  0  0  0  0  0  0  0  0  0  0  0
  146.5306  135.0598  160.6199 C   0  0  0  0  0  0  0  0  0  0  0  0
  145.4480  135.1422  161.5592 C   0  0  0  0  0  0  0  0  0  0  0  0
  145.0935  136.1087  162.2307 O   0  0  0  0  0  0  0  0  0  0  0  0
  144.7543  133.9305  161.6724 N   0  0  0  0  0  0  0  0  0  0  0  0
  145.0726  132.7773  160.9589 C   0  0  0  0  0  0  0  0  0  0  0  0
  144.3114  131.6988  161.1860 N   0  0  0  0  0  0  0  0  0  0  0  0
  146.0671  132.7040  160.0916 N   0  0  0  0  0  0  0  0  0  0  0  0
  146.7681  133.8725  159.9547 C   0  0  0  0  0  0  0  0  0  0  0  0
  148.6788  137.7200  155.1721 H   0  0  0  0  0  0  0  0  0  0  0  0
  143.9779  133.9081  162.3171 H   0  0  0  0  0  0  0  0  0  0  0  0
  149.5940  140.7922  154.3424 H   0  0  0  0  0  0  0  0  0  0  0  0
  149.5915  141.3974  155.9951 H   0  0  0  0  0  0  0  0  0  0  0  0
  148.2387  140.4512  155.4129 H   0  0  0  0  0  0  0  0  0  0  0  0
  149.7041  139.0593  156.8608 H   0  0  0  0  0  0  0  0  0  0  0  0
  151.9713  139.7015  154.9173 H   0  0  0  0  0  0  0  0  0  0  0  0
  152.0934  138.6859  156.3530 H   0  0  0  0  0  0  0  0  0  0  0  0
  151.7763  140.4003  156.5207 H   0  0  0  0  0  0  0  0  0  0  0  0
  149.4887  137.5594  152.9766 H   0  0  0  0  0  0  0  0  0  0  0  0
  150.7099  138.6267  153.2765 H   0  0  0  0  0  0  0  0  0  0  0  0
  150.8283  134.2036  154.6016 H   0  0  0  0  0  0  0  0  0  0  0  0
  151.5218  134.5390  156.1837 H   0  0  0  0  0  0  0  0  0  0  0  0
  148.6478  133.5330  155.7895 H   0  0  0  0  0  0  0  0  0  0  0  0
  150.0236  132.4716  156.0708 H   0  0  0  0  0  0  0  0  0  0  0  0
  147.7322  132.8270  157.4926 H   0  0  0  0  0  0  0  0  0  0  0  0
  148.7541  132.2599  158.8440 H   0  0  0  0  0  0  0  0  0  0  0  0
  149.0412  135.8937  158.8690 H   0  0  0  0  0  0  0  0  0  0  0  0
  143.5513  131.7533  161.8489 H   0  0  0  0  0  0  0  0  0  0  0  0
  144.4926  130.8343  160.6968 H   0  0  0  0  0  0  0  0  0  0  0  0
  149.1409  139.1361  153.3192 H   0  0  0  0  0  0  0  0  0  0  0  0
  1  2  1  0  0  0  0
  1 26  1  0  0  0  0
  1 27  1  0  0  0  0
  1 28  1  0  0  0  0
  2  3  1  0  0  0  0
  2  4  1  0  0  0  0
  2 29  1  0  0  0  0
  3 30  1  0  0  0  0
  3 31  1  0  0  0  0
  3 32  1  0  0  0  0
  4 24  1  0  0  0  0
  4  5  1  0  0  0  0
  4  6  1  0  0  0  0
  5 33  1  0  0  0  0
  5 34  1  0  0  0  0
  5 44  1  0  0  0  0
  6  7  2  0  0  0  0
  6  8  1  0  0  0  0
  8  9  1  0  0  0  0
  9 10  1  0  0  0  0
  9 35  1  0  0  0  0
  9 36  1  0  0  0  0
 10 11  1  0  0  0  0
 10 37  1  0  0  0  0
 10 38  1  0  0  0  0
 11 12  1  0  0  0  0
 12 13  1  0  0  0  0
 12 39  1  0  0  0  0
 12 40  1  0  0  0  0
 13 23  1  0  0  0  0
 13 14  1  0  0  0  0
 14 15  2  0  0  0  0
 14 41  1  0  0  0  0
 15 16  1  0  0  0  0
 16 23  2  0  0  0  0
 16 17  1  0  0  0  0
 17 18  2  0  0  0  0
 17 19  1  0  0  0  0
 19 25  1  0  0  0  0
 19 20  1  0  0  0  0
 20 21  1  0  0  0  0
 20 22  2  0  0  0  0
 21 42  1  0  0  0  0
 21 43  1  0  0  0  0
 22 23  1  0  0  0  0
M  CHG  1   5   1
M  END
> <s_m_source_file>
AV-unprocessed.smi

> <i_m_source_file_index>
50

> <i_lp_mmshare_version>
43012

> <i_f3d_flags>
0

> <s_epik_input>
W0NIM11bQ0hdKFtDSDNdKVtDQEhdKFtOSDJdKUMoPU8pT1tDSDJdW0NIMl1PW0NIMl1uKFtjSF1uMSljKGMxMiluYyhbTkgyXSlbbkhdYzI9Tw==

> <s_epik_cmdline>
J2VwaWtfcHl0aG9uJywgJy1waCcsICc3LjAnLCAnLXRuJywgJzgnLCAnLW1hJywgJzIwMCcsICctbWV0YWxfYmluZGluZycsICctaW1hZScsICc8aW5maWxlLm1hZT4nLCAnLW9tYWUnLCAnPG91dGZpbGUubWFlPic=

> <r_lp_tautomer_probability>
0.99994

> <r_epik_Ionization_Penalty>
0.217551

> <r_epik_Ionization_Penalty_Charging>
0.217477

> <r_epik_Ionization_Penalty_Neutral>
7.42487e-05

> <r_epik_State_Penalty>
0.206211

> <r_epik_Charging_Adjusted_Penalty>
0.423688

> <i_epik_Tot_Q>
1

> <i_epik_Tot_abs_Q>
1

> <r_epik_Metal_State_Penalty>
0.526339

> <b_epik_Metal_Only>
0

> <s_epik_Chemistry_Notes>
This compound has an ester and may undergo hydrolysis at high or low pH. This compound contains an acetal/aminal-like group ( X-CH(R)-Y where X, Y are N, S, or O) that may be acid/base labile, releasing an aldehyde.

> <s_lp_Force_Field>
OPLS_2005

> <r_lp_Energy>
7.49642

> <b_lp_Chiralities_Consistent>
1

> <s_lp_Variant>
AV-unprocessed.smi:50-2

> <Gold.Version>
5.8.1

> <Gold.Id.Protein>
6NUR|6NUR_protein|mol2

> <Gold.PLP.Fitness>
47.9507

> <Gold.PLP.PLP>
-32.2544

> <Gold.PLP.part.hbond>
-6.6364

> <Gold.PLP.part.metal>
0.0000

> <Gold.PLP.part.buried>
-5.6665

> <Gold.PLP.part.nonpolar>
-21.2551

> <Gold.PLP.part.repulsive>
0.4009

> <Gold.PLP.ligand.clash>
0.0000

> <Gold.PLP.ligand.torsion>
0.8213

> <Gold.PLP.Chemscore.Hbond>
5.7069

> <Gold.PLP.Chemscore.CHOScore>
0.0000

> <Gold.PLP.Chemscore.Metal>
0.0000

> <Gold.Chemscore.Hbonds>
donor molecule, donor type, donor heavy atom, donor atom, acceptor molecule, acceptor atom, score
      L1  H     5    33       P1  7948  2.00
      L1  H     5    44       P1  7957  0.02
      P1  H  6896  6907       L1    11  0.95
      P1  H 10752 10764       L1     7  1.00

> <Gold.PLP.Chemscore.Internal.Correction>
0.2183

> <Gold.Rescore>
     Score         DG    S(hbond)    S(metal)    S(lipo)     H(rot)  DE(clash)    DE(int)     intcor
      9.26     -11.55       4.24        0.00      37.06       4.86       0.11       2.19       ----

> <Gold.Chemscore.Fitness>
9.2594

> <Gold.Chemscore.DG>
-11.5528

> <Gold.Chemscore.ZeroCoef>
-5.4800

> <Gold.Chemscore.Hbond>
4.2427

> <Gold.Chemscore.Metal>
0.0000

> <Gold.Chemscore.Lipo>
37.0621

> <Gold.Chemscore.Internal_Hbond>
0.0000

> <Gold.Chemscore.DEClash>
0.1056

> <Gold.Chemscore.DEInternal>
2.1878

> <Gold.Chemscore.Rot>
4.8571

> <Gold.Chemscore.Internal.Correction>
   9.000000E+99

> <Gold.Chemscore.Hbonds>
donor molecule, donor type, donor heavy atom, donor atom, acceptor molecule, acceptor atom, score
      L1  H     5    33       P1  7948  0.85
      L1  H     5    44       P1  7957  0.03
      P1  H  6896  6907       L1    11  0.20
      P1  H 10752 10764       L1     7  0.97

> <Gold.Chemscore.Hbond.Weighted>
-14.1708

> <Gold.Chemscore.Metal.Weighted>
-0.0000

> <Gold.Chemscore.Lipo.Weighted>
-4.3363

> <Gold.Chemscore.Internal_Hbond.Weighted>
0.0000

> <Gold.Chemscore.DEClash.Weighted>
0.1056

> <Gold.Chemscore.DEInternal.Weighted>
2.1878

> <Gold.Chemscore.Rot.Weighted>
12.4343

> <Gold.Chemscore.Internal.Correction.Weighted>
   9.000000E+99

> <Gold.Protein.RotatedTorsions>
[ 6907 6896 6895 6894 ] final -115.74 input  -60.11 | X-H torsion
[ 7974 7965 7964 7962 ] final  117.63 input  175.53 | X-H torsion
[ 8008 7997 7996 7995 ] final -165.82 input   59.86 | X-H torsion
[ 10167 10162 10161 10158 ] final  113.85 input  -65.29 | X-H torsion
[ 10718 10713 10712 10709 ] final -166.81 input   66.30 | X-H torsion
[ 10763 10752 10751 10750 ] final  -72.53 input  -60.55 | X-H torsion
[ 11005 11000 10999 10996 ] final   66.83 input  -57.11 | X-H torsion

> <Gold.Protein.ActiveResidues>
 VAL166  LYS551  ARG553  GLY616  TRP617  ASP618  TYR619  PRO620  LYS621  CYS622 
 ASP623  PHE694  ASN695  SER759  ASP760  ASP761  ALA762  ILE779  LEU786  VAL792 
 PHE793  MET794  SER795  GLU796  ALA797  LYS798  CYS799  TRP800  GLU811  SER814 

> <Gold.Protein.RotatedAtoms>
  150.8002  133.8615  159.3232 H   0  0  0  0  0  0  0  0  0  0  0  0  # atno 6907 bound_to 6896
  151.6429  135.1009  160.0154 H   0  0  0  0  0  0  0  0  0  0  0  0  # atno 6908 bound_to 6896
  152.4088  133.6891  159.6414 H   0  0  0  0  0  0  0  0  0  0  0  0  # atno 6909 bound_to 6896
  145.1650  139.3133  143.4497 H   0  0  0  0  0  0  0  0  0  0  0  0  # atno 7974 bound_to 7965
  155.8552  140.0969  157.1649 H   0  0  0  0  0  0  0  0  0  0  0  0  # atno 8008 bound_to 7997
  154.3987  140.1375  156.3955 H   0  0  0  0  0  0  0  0  0  0  0  0  # atno 8009 bound_to 7997
  155.7918  140.3455  155.5356 H   0  0  0  0  0  0  0  0  0  0  0  0  # atno 8010 bound_to 7997
  139.6431  144.7125  151.2197 H   0  0  0  0  0  0  0  0  0  0  0  0  # atno 10167 bound_to 10162
  156.6732  130.9092  151.3047 H   0  0  0  0  0  0  0  0  0  0  0  0  # atno 10718 bound_to 10713
  154.4470  135.5927  153.6166 H   0  0  0  0  0  0  0  0  0  0  0  0  # atno 10763 bound_to 10752
  152.9810  135.6011  154.3652 H   0  0  0  0  0  0  0  0  0  0  0  0  # atno 10764 bound_to 10752
  154.3509  135.2841  155.2351 H   0  0  0  0  0  0  0  0  0  0  0  0  # atno 10765 bound_to 10752
  139.9808  134.6748  156.0267 H   0  0  0  0  0  0  0  0  0  0  0  0  # atno 11005 bound_to 11000
  146.3477  140.1774  142.8589 LP  0  0  0  0  0  0  0  0  0  0  0  0  # atno 17320 bound_to 7965
  145.0292  140.8856  143.5120 LP  0  0  0  0  0  0  0  0  0  0  0  0  # atno 17321 bound_to 7965
  140.7501  143.6278  150.8452 LP  0  0  0  0  0  0  0  0  0  0  0  0  # atno 17342 bound_to 10162
  139.9917  143.5839  152.2907 LP  0  0  0  0  0  0  0  0  0  0  0  0  # atno 17343 bound_to 10162
  157.7070  130.9396  150.0962 LP  0  0  0  0  0  0  0  0  0  0  0  0  # atno 17370 bound_to 10713
  156.1923  130.3655  149.8894 LP  0  0  0  0  0  0  0  0  0  0  0  0  # atno 17371 bound_to 10713
  141.1480  133.6553  156.3926 LP  0  0  0  0  0  0  0  0  0  0  0  0  # atno 17394 bound_to 11000
  140.5101  134.6403  157.5281 LP  0  0  0  0  0  0  0  0  0  0  0  0  # atno 17395 bound_to 11000

$$$$
