AV-unprocessed.smi:1752|AV-procd|sdf|7060|dock6
  -GOLD-   22720 8273D 1   1.00000     0.00000
 Structure written by MMmdl.
 43 44  0  0  0  0  0  0  0  0  2 V2000
  151.6886  139.7504  156.0526 C   0  0  0  0  0  0  0  0  0  0  0  0
  151.3676  141.1987  156.4447 C   0  0  2  0  0  0  0  0  0  0  0  0
  151.7559  141.4821  157.9116 C   0  0  0  0  0  0  0  0  0  0  0  0
  151.6655  142.8894  158.2579 N   0  0  0  0  0  0  0  0  0  0  0  0
  152.6745  143.7424  158.6534 C   0  0  0  0  0  0  0  0  0  0  0  0
  152.1091  144.9654  158.8742 C   0  0  0  0  0  0  0  0  0  0  0  0
  150.7324  144.7596  158.5779 C   0  0  0  0  0  0  0  0  0  0  0  0
  150.4709  143.5170  158.2059 N   0  0  0  0  0  0  0  0  0  0  0  0
  149.9421  141.4392  156.2267 N   0  0  0  0  0  0  0  0  0  0  0  0
  149.2892  141.3227  155.0568 C   0  0  0  0  0  0  0  0  0  0  0  0
  149.8571  141.0131  154.0089 O   0  0  0  0  0  0  0  0  0  0  0  0
  147.9582  141.5797  155.1225 N   0  0  0  0  0  0  0  0  0  0  0  0
  147.1147  141.4432  156.3216 C   0  0  0  0  0  0  0  0  0  0  0  0
  146.5386  140.0198  156.4166 C   0  0  0  0  0  0  0  0  0  0  0  0
  145.7252  139.5878  155.1782 C   0  0  0  0  0  0  0  0  0  0  0  0
  146.5971  139.3632  153.9937 N   0  3  1  0  0  0  0  0  0  0  0  0
  146.1746  138.1943  153.1905 C   0  0  0  0  0  0  0  0  0  0  0  0
  146.8083  140.5652  153.1385 C   0  0  0  0  0  0  0  0  0  0  0  0
  147.1854  141.8546  153.9047 C   0  0  0  0  0  0  0  0  0  0  0  0
  152.7532  139.5421  156.1634 H   0  0  0  0  0  0  0  0  0  0  0  0
  151.4233  139.5565  155.0127 H   0  0  0  0  0  0  0  0  0  0  0  0
  151.1440  139.0394  156.6751 H   0  0  0  0  0  0  0  0  0  0  0  0
  151.9575  141.8441  155.7911 H   0  0  0  0  0  0  0  0  0  0  0  0
  151.1231  140.9114  158.5930 H   0  0  0  0  0  0  0  0  0  0  0  0
  152.7810  141.1582  158.0971 H   0  0  0  0  0  0  0  0  0  0  0  0
  153.6979  143.4107  158.7476 H   0  0  0  0  0  0  0  0  0  0  0  0
  152.6029  145.8698  159.1968 H   0  0  0  0  0  0  0  0  0  0  0  0
  149.9213  145.4715  158.6201 H   0  0  0  0  0  0  0  0  0  0  0  0
  149.4044  141.7121  157.0366 H   0  0  0  0  0  0  0  0  0  0  0  0
  147.6565  141.6883  157.2357 H   0  0  0  0  0  0  0  0  0  0  0  0
  146.2973  142.1646  156.2964 H   0  0  0  0  0  0  0  0  0  0  0  0
  147.3429  139.3046  156.5942 H   0  0  0  0  0  0  0  0  0  0  0  0
  145.8950  139.9678  157.2952 H   0  0  0  0  0  0  0  0  0  0  0  0
  145.2192  138.6560  155.4349 H   0  0  0  0  0  0  0  0  0  0  0  0
  144.9341  140.3031  154.9482 H   0  0  0  0  0  0  0  0  0  0  0  0
  145.1758  138.3436  152.7781 H   0  0  0  0  0  0  0  0  0  0  0  0
  146.1637  137.2893  153.7991 H   0  0  0  0  0  0  0  0  0  0  0  0
  146.8649  138.0243  152.3635 H   0  0  0  0  0  0  0  0  0  0  0  0
  147.6092  140.3296  152.4364 H   0  0  0  0  0  0  0  0  0  0  0  0
  145.9185  140.7524  152.5355 H   0  0  0  0  0  0  0  0  0  0  0  0
  146.2706  142.3933  154.1533 H   0  0  0  0  0  0  0  0  0  0  0  0
  147.7293  142.5347  153.2469 H   0  0  0  0  0  0  0  0  0  0  0  0
  147.5038  139.1203  154.3671 H   0  0  0  0  0  0  0  0  0  0  0  0
  1  2  1  0  0  0  0
  1 20  1  0  0  0  0
  1 21  1  0  0  0  0
  1 22  1  0  0  0  0
  2  3  1  0  0  0  0
  2  9  1  0  0  0  0
  2 23  1  0  0  0  0
  3  4  1  0  0  0  0
  3 24  1  0  0  0  0
  3 25  1  0  0  0  0
  4  8  1  0  0  0  0
  4  5  1  0  0  0  0
  5  6  2  0  0  0  0
  5 26  1  0  0  0  0
  6  7  1  0  0  0  0
  6 27  1  0  0  0  0
  7  8  2  0  0  0  0
  7 28  1  0  0  0  0
  9 10  1  0  0  0  0
  9 29  1  0  0  0  0
 10 11  2  0  0  0  0
 10 12  1  0  0  0  0
 12 19  1  0  0  0  0
 12 13  1  0  0  0  0
 13 14  1  0  0  0  0
 13 30  1  0  0  0  0
 13 31  1  0  0  0  0
 14 15  1  0  0  0  0
 14 32  1  0  0  0  0
 14 33  1  0  0  0  0
 15 16  1  0  0  0  0
 15 34  1  0  0  0  0
 15 35  1  0  0  0  0
 16 17  1  0  0  0  0
 16 18  1  0  0  0  0
 16 43  1  0  0  0  0
 17 36  1  0  0  0  0
 17 37  1  0  0  0  0
 17 38  1  0  0  0  0
 18 19  1  0  0  0  0
 18 39  1  0  0  0  0
 18 40  1  0  0  0  0
 19 41  1  0  0  0  0
 19 42  1  0  0  0  0
M  CHG  1  16   1
M  END
> <s_m_source_file>
AV-unprocessed.smi

> <i_m_source_file_index>
1752

> <i_lp_mmshare_version>
43012

> <i_f3d_flags>
0

> <s_epik_input>
bjFbY0hdW2NIXVtjSF1uMVtDSDJdW0NAQEhdKFtDSDNdKVtOSF1DKD1PKU4yW0NIMl1bQ0gyXVtDSDJdTihbQ0gzXSlbQ0gyXVtDSDJdMg==

> <s_epik_cmdline>
J2VwaWtfcHl0aG9uJywgJy1waCcsICc3LjAnLCAnLXRuJywgJzgnLCAnLW1hJywgJzIwMCcsICctbWV0YWxfYmluZGluZycsICctaW1hZScsICc8aW5maWxlLm1hZT4nLCAnLW9tYWUnLCAnPG91dGZpbGUubWFlPic=

> <r_lp_tautomer_probability>
1

> <r_epik_Ionization_Penalty>
0.00208423

> <r_epik_Ionization_Penalty_Charging>
0.00203643

> <r_epik_Ionization_Penalty_Neutral>
4.77939e-05

> <r_epik_State_Penalty>
0.00139278

> <r_epik_Charging_Adjusted_Penalty>
0.00342922

> <i_epik_Tot_Q>
1

> <i_epik_Tot_abs_Q>
1

> <r_epik_Metal_State_Penalty>
-0

> <b_epik_Metal_Only>
0

> <s_lp_Force_Field>
OPLS_2005

> <r_lp_Energy>
39.6128

> <b_lp_Chiralities_Consistent>
1

> <s_lp_Variant>
AV-unprocessed.smi:1752-3

> <Gold.Version>
5.8.1

> <Gold.Id.Protein>
6NUR|6NUR_protein|mol2

> <Gold.PLP.Fitness>
40.4607

> <Gold.PLP.PLP>
-34.5829

> <Gold.PLP.part.hbond>
-1.6438

> <Gold.PLP.part.metal>
0.0000

> <Gold.PLP.part.buried>
-3.5503

> <Gold.PLP.part.nonpolar>
-31.0016

> <Gold.PLP.part.repulsive>
1.3978

> <Gold.PLP.ligand.clash>
0.0000

> <Gold.PLP.ligand.torsion>
0.2478

> <Gold.PLP.Chemscore.Hbond>
1.1160

> <Gold.PLP.Chemscore.CHOScore>
1.0000

> <Gold.PLP.Chemscore.Metal>
0.0000

> <Gold.Chemscore.Hbonds>
donor molecule, donor type, donor heavy atom, donor atom, acceptor molecule, acceptor atom, score
      P1  H  7989  7998       L1    11  0.45
      P1  H  8011  8017       L1    11  0.51
      L1  C     7    28       P1  8029  1.00

> <Gold.PLP.Chemscore.Internal.Correction>
0.0253

> <Gold.Rescore>
     Score         DG    S(hbond)    S(metal)    S(lipo)     H(rot)  DE(clash)    DE(int)     intcor
     14.01     -15.23       1.10        0.00      82.76       1.41       1.07       0.15       ----

> <Gold.Chemscore.Fitness>
14.0058

> <Gold.Chemscore.DG>
-15.2268

> <Gold.Chemscore.ZeroCoef>
-5.4800

> <Gold.Chemscore.Hbond>
1.1016

> <Gold.Chemscore.Metal>
0.0000

> <Gold.Chemscore.Lipo>
82.7637

> <Gold.Chemscore.Internal_Hbond>
0.0000

> <Gold.Chemscore.DEClash>
1.0721

> <Gold.Chemscore.DEInternal>
0.1488

> <Gold.Chemscore.Rot>
1.4125

> <Gold.Chemscore.Internal.Correction>
   9.000000E+99

> <Gold.Chemscore.Hbonds>
donor molecule, donor type, donor heavy atom, donor atom, acceptor molecule, acceptor atom, score
      P1  H  7989  7998       L1    11  0.46
      P1  H  8011  8017       L1    11  0.49

> <Gold.Chemscore.Hbond.Weighted>
-3.6794

> <Gold.Chemscore.Metal.Weighted>
-0.0000

> <Gold.Chemscore.Lipo.Weighted>
-9.6834

> <Gold.Chemscore.Internal_Hbond.Weighted>
0.0000

> <Gold.Chemscore.DEClash.Weighted>
1.0721

> <Gold.Chemscore.DEInternal.Weighted>
0.1488

> <Gold.Chemscore.Rot.Weighted>
3.6160

> <Gold.Chemscore.Internal.Correction.Weighted>
   9.000000E+99

> <Gold.Protein.RotatedTorsions>
[ 6907 6896 6895 6894 ] final -106.15 input  -60.11 | X-H torsion
[ 7974 7965 7964 7962 ] final  165.26 input  175.53 | X-H torsion
[ 8008 7997 7996 7995 ] final  -40.37 input   59.86 | X-H torsion
[ 10167 10162 10161 10158 ] final  -70.36 input  -65.29 | X-H torsion
[ 10718 10713 10712 10709 ] final   20.98 input   66.30 | X-H torsion
[ 10763 10752 10751 10750 ] final -172.85 input  -60.55 | X-H torsion
[ 11005 11000 10999 10996 ] final  -61.89 input  -57.11 | X-H torsion

> <Gold.Protein.ActiveResidues>
 VAL166  LYS551  ARG553  GLY616  TRP617  ASP618  TYR619  PRO620  LYS621  CYS622 
 ASP623  PHE694  ASN695  SER759  ASP760  ASP761  ALA762  ILE779  LEU786  VAL792 
 PHE793  MET794  SER795  GLU796  ALA797  LYS798  CYS799  TRP800  GLU811  SER814 

> <Gold.Protein.RotatedAtoms>
  150.7374  134.0019  159.3640 H   0  0  0  0  0  0  0  0  0  0  0  0  # atno 6907 bound_to 6896
  151.7974  135.0716  160.0405 H   0  0  0  0  0  0  0  0  0  0  0  0  # atno 6908 bound_to 6896
  152.3165  133.5771  159.5752 H   0  0  0  0  0  0  0  0  0  0  0  0  # atno 6909 bound_to 6896
  144.7510  139.8444  143.6366 H   0  0  0  0  0  0  0  0  0  0  0  0  # atno 7974 bound_to 7965
  154.4013  140.1527  156.3016 H   0  0  0  0  0  0  0  0  0  0  0  0  # atno 8008 bound_to 7997
  155.8695  140.3449  155.5790 H   0  0  0  0  0  0  0  0  0  0  0  0  # atno 8009 bound_to 7997
  155.7790  140.0841  157.2059 H   0  0  0  0  0  0  0  0  0  0  0  0  # atno 8010 bound_to 7997
  140.5358  143.2318  151.7179 H   0  0  0  0  0  0  0  0  0  0  0  0  # atno 10167 bound_to 10162
  157.1321  130.6595  149.5955 H   0  0  0  0  0  0  0  0  0  0  0  0  # atno 10718 bound_to 10713
  154.6146  135.2868  155.0394 H   0  0  0  0  0  0  0  0  0  0  0  0  # atno 10763 bound_to 10752
  154.1611  135.6488  153.4990 H   0  0  0  0  0  0  0  0  0  0  0  0  # atno 10764 bound_to 10752
  153.0209  135.5378  154.6913 H   0  0  0  0  0  0  0  0  0  0  0  0  # atno 10765 bound_to 10752
  141.1340  133.6634  156.5443 H   0  0  0  0  0  0  0  0  0  0  0  0  # atno 11005 bound_to 11000
  146.1460  139.4529  143.0079 LP  0  0  0  0  0  0  0  0  0  0  0  0  # atno 17320 bound_to 7965
  145.6945  141.0154  143.1537 LP  0  0  0  0  0  0  0  0  0  0  0  0  # atno 17321 bound_to 7965
  139.4970  144.4044  152.0147 LP  0  0  0  0  0  0  0  0  0  0  0  0  # atno 17342 bound_to 10162
  140.3149  144.3495  150.6024 LP  0  0  0  0  0  0  0  0  0  0  0  0  # atno 17343 bound_to 10162
  155.9806  130.4807  150.6780 LP  0  0  0  0  0  0  0  0  0  0  0  0  # atno 17370 bound_to 10713
  157.4383  131.0858  151.0969 LP  0  0  0  0  0  0  0  0  0  0  0  0  # atno 17371 bound_to 10713
  140.4114  134.7269  157.4838 LP  0  0  0  0  0  0  0  0  0  0  0  0  # atno 17394 bound_to 11000
  140.0424  134.6247  155.8963 LP  0  0  0  0  0  0  0  0  0  0  0  0  # atno 17395 bound_to 11000

$$$$
