AV-unprocessed.smi:3181|AV-procd|sdf|12137|dock1
  -GOLD-   2272017573D 1   1.00000     0.00000
 Structure written by MMmdl.
 42 43  0  0  0  0  0  0  0  0  2 V2000
  148.8519  141.3833  154.9831 C   0  0  0  0  0  0  0  0  0  0  0  0
  150.1066  141.3989  155.8724 C   0  0  2  0  0  0  0  0  0  0  0  0
  150.3159  140.0702  156.6347 C   0  0  0  0  0  0  0  0  0  0  0  0
  150.8502  139.0159  155.7922 N   0  0  0  0  0  0  0  0  0  0  0  0
  151.1820  137.7571  156.0839 C   0  0  0  0  0  0  0  0  0  0  0  0
  151.6468  137.0729  155.0484 N   0  0  0  0  0  0  0  0  0  0  0  0
  151.5638  138.0355  154.0819 C   0  0  0  0  0  0  0  0  0  0  0  0
  151.0914  139.2184  154.4756 N   0  0  0  0  0  0  0  0  0  0  0  0
  150.0229  142.5398  156.8117 N   0  3  0  0  0  0  0  0  0  0  0  0
  151.2909  142.9367  157.4642 C   0  0  1  0  0  0  0  0  0  0  0  0
  151.2464  144.4265  157.8438 C   0  0  0  0  0  0  0  0  0  0  0  0
  152.5273  144.8550  158.5798 C   0  0  0  0  0  0  0  0  0  0  0  0
  152.8008  143.9936  159.8302 C   0  0  1  0  0  0  0  0  0  0  0  0
  151.8233  144.3298  160.9747 C   0  0  0  0  0  0  0  0  0  0  0  0
  152.8356  142.4919  159.4443 C   0  0  1  0  0  0  0  0  0  0  0  0
  153.1485  141.5652  160.6309 C   0  0  0  0  0  0  0  0  0  0  0  0
  151.5510  142.0630  158.7058 C   0  0  0  0  0  0  0  0  0  0  0  0
  148.9202  140.6241  154.2036 H   0  0  0  0  0  0  0  0  0  0  0  0
  148.7133  142.3427  154.4836 H   0  0  0  0  0  0  0  0  0  0  0  0
  147.9539  141.1802  155.5676 H   0  0  0  0  0  0  0  0  0  0  0  0
  150.9623  141.5699  155.2171 H   0  0  0  0  0  0  0  0  0  0  0  0
  151.0044  140.2050  157.4693 H   0  0  0  0  0  0  0  0  0  0  0  0
  149.3725  139.7303  157.0655 H   0  0  0  0  0  0  0  0  0  0  0  0
  151.0856  137.3339  157.0731 H   0  0  0  0  0  0  0  0  0  0  0  0
  151.8600  137.8586  153.0583 H   0  0  0  0  0  0  0  0  0  0  0  0
  149.6948  143.3402  156.2902 H   0  0  0  0  0  0  0  0  0  0  0  0
  152.1208  142.7966  156.7696 H   0  0  0  0  0  0  0  0  0  0  0  0
  151.1236  145.0343  156.9464 H   0  0  0  0  0  0  0  0  0  0  0  0
  150.3756  144.6279  158.4689 H   0  0  0  0  0  0  0  0  0  0  0  0
  153.3730  144.7721  157.8959 H   0  0  0  0  0  0  0  0  0  0  0  0
  152.4650  145.9090  158.8527 H   0  0  0  0  0  0  0  0  0  0  0  0
  153.7953  144.2627  160.1894 H   0  0  0  0  0  0  0  0  0  0  0  0
  150.7986  144.0440  160.7396 H   0  0  0  0  0  0  0  0  0  0  0  0
  151.8245  145.4000  161.1838 H   0  0  0  0  0  0  0  0  0  0  0  0
  152.1029  143.8275  161.9005 H   0  0  0  0  0  0  0  0  0  0  0  0
  153.6604  142.3699  158.7403 H   0  0  0  0  0  0  0  0  0  0  0  0
  152.3379  141.5521  161.3597 H   0  0  0  0  0  0  0  0  0  0  0  0
  154.0582  141.8768  161.1449 H   0  0  0  0  0  0  0  0  0  0  0  0
  153.2986  140.5392  160.2940 H   0  0  0  0  0  0  0  0  0  0  0  0
  150.6976  142.1122  159.3835 H   0  0  0  0  0  0  0  0  0  0  0  0
  151.6370  141.0185  158.4033 H   0  0  0  0  0  0  0  0  0  0  0  0
  149.3389  142.3262  157.5235 H   0  0  0  0  0  0  0  0  0  0  0  0
  1  2  1  0  0  0  0
  1 18  1  0  0  0  0
  1 19  1  0  0  0  0
  1 20  1  0  0  0  0
  2  3  1  0  0  0  0
  2  9  1  0  0  0  0
  2 21  1  0  0  0  0
  3  4  1  0  0  0  0
  3 22  1  0  0  0  0
  3 23  1  0  0  0  0
  4  8  1  0  0  0  0
  4  5  1  0  0  0  0
  5  6  2  0  0  0  0
  5 24  1  0  0  0  0
  6  7  1  0  0  0  0
  7  8  2  0  0  0  0
  7 25  1  0  0  0  0
  9 10  1  0  0  0  0
  9 26  1  0  0  0  0
  9 42  1  0  0  0  0
 10 17  1  0  0  0  0
 10 11  1  0  0  0  0
 10 27  1  0  0  0  0
 11 12  1  0  0  0  0
 11 28  1  0  0  0  0
 11 29  1  0  0  0  0
 12 13  1  0  0  0  0
 12 30  1  0  0  0  0
 12 31  1  0  0  0  0
 13 14  1  0  0  0  0
 13 15  1  0  0  0  0
 13 32  1  0  0  0  0
 14 33  1  0  0  0  0
 14 34  1  0  0  0  0
 14 35  1  0  0  0  0
 15 16  1  0  0  0  0
 15 17  1  0  0  0  0
 15 36  1  0  0  0  0
 16 37  1  0  0  0  0
 16 38  1  0  0  0  0
 16 39  1  0  0  0  0
 17 40  1  0  0  0  0
 17 41  1  0  0  0  0
M  CHG  1   9   1
M  END
> <s_m_source_file>
AV-unprocessed.smi

> <i_m_source_file_index>
3181

> <i_lp_mmshare_version>
43012

> <i_f3d_flags>
0

> <s_epik_input>
bjFbY0hdbltjSF1uMVtDSDJdW0NAQEhdKFtDSDNdKVtOSF1bQ0BASF0yW0NIMl1bQ0gyXVtDQEBIXShbQ0gzXSlbQ0BASF0oW0NIM10pW0NIMl0y

> <s_epik_cmdline>
J2VwaWtfcHl0aG9uJywgJy1waCcsICc3LjAnLCAnLXRuJywgJzgnLCAnLW1hJywgJzIwMCcsICctbWV0YWxfYmluZGluZycsICctaW1hZScsICc8aW5maWxlLm1hZT4nLCAnLW9tYWUnLCAnPG91dGZpbGUubWFlPic=

> <r_lp_tautomer_probability>
1

> <r_epik_Ionization_Penalty>
0.000617007

> <r_epik_Ionization_Penalty_Charging>
0.000616215

> <r_epik_Ionization_Penalty_Neutral>
7.92544e-07

> <r_epik_State_Penalty>
0.000388807

> <r_epik_Charging_Adjusted_Penalty>
0.00100502

> <i_epik_Tot_Q>
1

> <i_epik_Tot_abs_Q>
1

> <r_epik_Metal_State_Penalty>
-0

> <b_epik_Metal_Only>
0

> <s_lp_Force_Field>
OPLS_2005

> <r_lp_Energy>
21.565

> <b_lp_Chiralities_Consistent>
1

> <s_lp_Variant>
AV-unprocessed.smi:3181-3

> <Gold.Version>
5.8.1

> <Gold.Id.Protein>
6NUR|6NUR_protein|mol2

> <Gold.PLP.Fitness>
55.2752

> <Gold.PLP.PLP>
-41.2516

> <Gold.PLP.part.hbond>
-3.0000

> <Gold.PLP.part.metal>
0.0000

> <Gold.PLP.part.buried>
-5.6279

> <Gold.PLP.part.nonpolar>
-33.8816

> <Gold.PLP.part.repulsive>
0.2635

> <Gold.PLP.ligand.clash>
0.0000

> <Gold.PLP.ligand.torsion>
0.5490

> <Gold.PLP.Chemscore.Hbond>
4.0000

> <Gold.PLP.Chemscore.CHOScore>
1.0000

> <Gold.PLP.Chemscore.Metal>
0.0000

> <Gold.Chemscore.Hbonds>
donor molecule, donor type, donor heavy atom, donor atom, acceptor molecule, acceptor atom, score
      L1  H     9    26       P1  8028  2.00
      P1  H  7989  7998       L1     8  1.00
      P1  H 10752 10765       L1     6  1.00
      L1  C     7    25       P1  7949  1.00

> <Gold.PLP.Chemscore.Internal.Correction>
0.1216

> <Gold.Rescore>
     Score         DG    S(hbond)    S(metal)    S(lipo)     H(rot)  DE(clash)    DE(int)     intcor
     21.47     -22.08       2.80        0.00     108.22       2.11       0.00       0.60       ----

> <Gold.Chemscore.Fitness>
21.4737

> <Gold.Chemscore.DG>
-22.0774

> <Gold.Chemscore.ZeroCoef>
-5.4800

> <Gold.Chemscore.Hbond>
2.7951

> <Gold.Chemscore.Metal>
0.0000

> <Gold.Chemscore.Lipo>
108.2238

> <Gold.Chemscore.Internal_Hbond>
0.0000

> <Gold.Chemscore.DEClash>
0.0013

> <Gold.Chemscore.DEInternal>
0.6023

> <Gold.Chemscore.Rot>
2.1095

> <Gold.Chemscore.Internal.Correction>
   9.000000E+99

> <Gold.Chemscore.Hbonds>
donor molecule, donor type, donor heavy atom, donor atom, acceptor molecule, acceptor atom, score
      L1  H     9    26       P1  8028  1.00
      P1  H  7989  7998       L1     8  0.94
      P1  H 10752 10765       L1     6  0.77

> <Gold.Chemscore.Hbond.Weighted>
-9.3355

> <Gold.Chemscore.Metal.Weighted>
-0.0000

> <Gold.Chemscore.Lipo.Weighted>
-12.6622

> <Gold.Chemscore.Internal_Hbond.Weighted>
0.0000

> <Gold.Chemscore.DEClash.Weighted>
0.0013

> <Gold.Chemscore.DEInternal.Weighted>
0.6023

> <Gold.Chemscore.Rot.Weighted>
5.4003

> <Gold.Chemscore.Internal.Correction.Weighted>
   9.000000E+99

> <Gold.Protein.RotatedTorsions>
[ 6907 6896 6895 6894 ] final   67.01 input  -60.11 | X-H torsion
[ 7974 7965 7964 7962 ] final  135.45 input  175.53 | X-H torsion
[ 8008 7997 7996 7995 ] final  -78.07 input   59.86 | X-H torsion
[ 10167 10162 10161 10158 ] final   65.80 input  -65.29 | X-H torsion
[ 10718 10713 10712 10709 ] final -102.05 input   66.30 | X-H torsion
[ 10763 10752 10751 10750 ] final  176.73 input  -60.55 | X-H torsion
[ 11005 11000 10999 10996 ] final -133.00 input  -57.11 | X-H torsion

> <Gold.Protein.ActiveResidues>
 VAL166  LYS551  ARG553  GLY616  TRP617  ASP618  TYR619  PRO620  LYS621  CYS622 
 ASP623  PHE694  ASN695  SER759  ASP760  ASP761  ALA762  ILE779  LEU786  VAL792 
 PHE793  MET794  SER795  GLU796  ALA797  LYS798  CYS799  TRP800  GLU811  SER814 

> <Gold.Protein.RotatedAtoms>
  152.4522  134.5369  159.9827 H   0  0  0  0  0  0  0  0  0  0  0  0  # atno 6907 bound_to 6896
  151.5439  133.3422  159.2948 H   0  0  0  0  0  0  0  0  0  0  0  0  # atno 6908 bound_to 6896
  150.8454  134.7793  159.7029 H   0  0  0  0  0  0  0  0  0  0  0  0  # atno 6909 bound_to 6896
  144.9662  139.4656  143.5455 H   0  0  0  0  0  0  0  0  0  0  0  0  # atno 7974 bound_to 7965
  154.5655  140.0700  156.8885 H   0  0  0  0  0  0  0  0  0  0  0  0  # atno 8008 bound_to 7997
  155.2731  140.3366  155.4245 H   0  0  0  0  0  0  0  0  0  0  0  0  # atno 8009 bound_to 7997
  156.2077  140.1746  156.7750 H   0  0  0  0  0  0  0  0  0  0  0  0  # atno 8010 bound_to 7997
  140.1074  144.4849  150.6999 H   0  0  0  0  0  0  0  0  0  0  0  0  # atno 10167 bound_to 10162
  156.0215  130.5402  150.7052 H   0  0  0  0  0  0  0  0  0  0  0  0  # atno 10718 bound_to 10713
  154.4850  135.2776  155.1541 H   0  0  0  0  0  0  0  0  0  0  0  0  # atno 10763 bound_to 10752
  154.3235  135.6204  153.5522 H   0  0  0  0  0  0  0  0  0  0  0  0  # atno 10764 bound_to 10752
  152.9880  135.5748  154.5259 H   0  0  0  0  0  0  0  0  0  0  0  0  # atno 10765 bound_to 10752
  140.9120  134.1556  157.4382 H   0  0  0  0  0  0  0  0  0  0  0  0  # atno 11005 bound_to 11000
  146.3368  139.8844  142.8819 LP  0  0  0  0  0  0  0  0  0  0  0  0  # atno 17320 bound_to 7965
  145.2627  141.0082  143.3817 LP  0  0  0  0  0  0  0  0  0  0  0  0  # atno 17321 bound_to 7965
  140.6945  143.2395  151.5040 LP  0  0  0  0  0  0  0  0  0  0  0  0  # atno 17342 bound_to 10162
  139.5638  144.2092  152.1733 LP  0  0  0  0  0  0  0  0  0  0  0  0  # atno 17343 bound_to 10162
  157.4703  131.0892  151.0649 LP  0  0  0  0  0  0  0  0  0  0  0  0  # atno 17370 bound_to 10713
  157.1112  130.6022  149.5482 LP  0  0  0  0  0  0  0  0  0  0  0  0  # atno 17371 bound_to 10713
  139.8759  134.9939  156.5668 LP  0  0  0  0  0  0  0  0  0  0  0  0  # atno 17394 bound_to 11000
  140.8098  133.8438  155.8800 LP  0  0  0  0  0  0  0  0  0  0  0  0  # atno 17395 bound_to 11000

$$$$
