AV-unprocessed.smi:1218|AV-procd|sdf|5108|dock8
  -GOLD-   22720 4163D 1   1.00000     0.00000
 Structure written by MMmdl.
 45 46  0  0  0  0  0  0  0  0  2 V2000
  145.6600  132.5459  150.0356 C   0  0  0  0  0  0  0  0  0  0  0  0
  145.6826  133.5199  151.2254 C   0  0  0  0  0  0  0  0  0  0  0  0
  145.3911  134.9514  150.7513 C   0  0  0  0  0  0  0  0  0  0  0  0
  147.0227  133.4656  151.9908 C   0  0  0  0  0  0  0  0  0  0  0  0
  146.8526  133.2661  153.4563 N   0  3  1  0  0  0  0  0  0  0  0  0
  147.1068  131.8732  153.8980 C   0  0  0  0  0  0  0  0  0  0  0  0
  148.6163  131.5832  153.9807 C   0  0  0  0  0  0  0  0  0  0  0  0
  149.2302  132.5220  154.8552 O   0  0  0  0  0  0  0  0  0  0  0  0
  149.1034  133.8633  154.3920 C   0  0  2  0  0  0  0  0  0  0  0  0
  149.8555  134.7875  155.3662 C   0  0  0  0  0  0  0  0  0  0  0  0
  150.0335  136.1295  154.8220 N   0  0  0  0  0  0  0  0  0  0  0  0
  150.8947  137.0437  155.2944 C   0  0  0  0  0  0  0  0  0  0  0  0
  151.6239  136.8400  156.2662 O   0  0  0  0  0  0  0  0  0  0  0  0
  150.9347  138.3814  154.5469 C   0  0  0  0  0  0  0  0  0  0  0  0
  150.7792  139.5193  155.4380 N   0  0  0  0  0  0  0  0  0  0  0  0
  150.8014  139.5385  156.8175 C   0  0  0  0  0  0  0  0  0  0  0  0
  150.6103  140.8324  157.2098 C   0  0  0  0  0  0  0  0  0  0  0  0
  150.4774  141.5411  155.9829 C   0  0  0  0  0  0  0  0  0  0  0  0
  150.5774  140.7528  154.9248 N   0  0  0  0  0  0  0  0  0  0  0  0
  147.6031  134.2225  154.3105 C   0  0  0  0  0  0  0  0  0  0  0  0
  146.4495  132.7753  149.3191 H   0  0  0  0  0  0  0  0  0  0  0  0
  144.7080  132.5968  149.5063 H   0  0  0  0  0  0  0  0  0  0  0  0
  145.7939  131.5137  150.3601 H   0  0  0  0  0  0  0  0  0  0  0  0
  144.8716  133.2446  151.8987 H   0  0  0  0  0  0  0  0  0  0  0  0
  146.1581  135.3064  150.0622 H   0  0  0  0  0  0  0  0  0  0  0  0
  145.3525  135.6446  151.5923 H   0  0  0  0  0  0  0  0  0  0  0  0
  144.4307  135.0080  150.2380 H   0  0  0  0  0  0  0  0  0  0  0  0
  147.6111  132.6432  151.5813 H   0  0  0  0  0  0  0  0  0  0  0  0
  147.6035  134.3681  151.8014 H   0  0  0  0  0  0  0  0  0  0  0  0
  146.6605  131.7397  154.8844 H   0  0  0  0  0  0  0  0  0  0  0  0
  146.6083  131.1610  153.2396 H   0  0  0  0  0  0  0  0  0  0  0  0
  148.7833  130.5797  154.3721 H   0  0  0  0  0  0  0  0  0  0  0  0
  149.0838  131.6202  152.9955 H   0  0  0  0  0  0  0  0  0  0  0  0
  149.5572  133.9481  153.4040 H   0  0  0  0  0  0  0  0  0  0  0  0
  149.3217  134.8513  156.3160 H   0  0  0  0  0  0  0  0  0  0  0  0
  150.8389  134.3742  155.5925 H   0  0  0  0  0  0  0  0  0  0  0  0
  149.4709  136.3755  154.0201 H   0  0  0  0  0  0  0  0  0  0  0  0
  151.8817  138.4652  154.0114 H   0  0  0  0  0  0  0  0  0  0  0  0
  150.1391  138.4201  153.8014 H   0  0  0  0  0  0  0  0  0  0  0  0
  150.9504  138.6397  157.3977 H   0  0  0  0  0  0  0  0  0  0  0  0
  150.5707  141.2148  158.2189 H   0  0  0  0  0  0  0  0  0  0  0  0
  150.3116  142.5973  155.8305 H   0  0  0  0  0  0  0  0  0  0  0  0
  147.4728  135.2464  153.9629 H   0  0  0  0  0  0  0  0  0  0  0  0
  147.1703  134.1877  155.3113 H   0  0  0  0  0  0  0  0  0  0  0  0
  145.8714  133.4337  153.6286 H   0  0  0  0  0  0  0  0  0  0  0  0
  1  2  1  0  0  0  0
  1 21  1  0  0  0  0
  1 22  1  0  0  0  0
  1 23  1  0  0  0  0
  2  3  1  0  0  0  0
  2  4  1  0  0  0  0
  2 24  1  0  0  0  0
  3 25  1  0  0  0  0
  3 26  1  0  0  0  0
  3 27  1  0  0  0  0
  4  5  1  0  0  0  0
  4 28  1  0  0  0  0
  4 29  1  0  0  0  0
  5 20  1  0  0  0  0
  5  6  1  0  0  0  0
  5 45  1  0  0  0  0
  6  7  1  0  0  0  0
  6 30  1  0  0  0  0
  6 31  1  0  0  0  0
  7  8  1  0  0  0  0
  7 32  1  0  0  0  0
  7 33  1  0  0  0  0
  8  9  1  0  0  0  0
  9 10  1  0  0  0  0
  9 20  1  0  0  0  0
  9 34  1  0  0  0  0
 10 11  1  0  0  0  0
 10 35  1  0  0  0  0
 10 36  1  0  0  0  0
 11 12  1  0  0  0  0
 11 37  1  0  0  0  0
 12 13  2  0  0  0  0
 12 14  1  0  0  0  0
 14 15  1  0  0  0  0
 14 38  1  0  0  0  0
 14 39  1  0  0  0  0
 15 19  1  0  0  0  0
 15 16  1  0  0  0  0
 16 17  2  0  0  0  0
 16 40  1  0  0  0  0
 17 18  1  0  0  0  0
 17 41  1  0  0  0  0
 18 19  2  0  0  0  0
 18 42  1  0  0  0  0
 20 43  1  0  0  0  0
 20 44  1  0  0  0  0
M  CHG  1   5   1
M  END
> <s_m_source_file>
AV-unprocessed.smi

> <i_m_source_file_index>
1218

> <i_lp_mmshare_version>
43012

> <i_f3d_flags>
0

> <s_epik_input>
W0NIM11bQ0hdKFtDSDNdKVtDSDJdTjFbQ0gyXVtDSDJdT1tDQEhdKFtDSDJdMSlbQ0gyXVtOSF1DKD1PKVtDSDJdbjJbY0hdW2NIXVtjSF1uMg==

> <s_epik_cmdline>
J2VwaWtfcHl0aG9uJywgJy1waCcsICc3LjAnLCAnLXRuJywgJzgnLCAnLW1hJywgJzIwMCcsICctbWV0YWxfYmluZGluZycsICctaW1hZScsICc8aW5maWxlLm1hZT4nLCAnLW9tYWUnLCAnPG91dGZpbGUubWFlPic=

> <r_lp_tautomer_probability>
1

> <r_epik_Ionization_Penalty>
0.0995066

> <r_epik_Ionization_Penalty_Charging>
0.0994921

> <r_epik_Ionization_Penalty_Neutral>
1.44634e-05

> <r_epik_State_Penalty>
0.0895432

> <r_epik_Charging_Adjusted_Penalty>
0.189035

> <i_epik_Tot_Q>
1

> <i_epik_Tot_abs_Q>
1

> <r_epik_Metal_State_Penalty>
0.0895432

> <b_epik_Metal_Only>
0

> <s_lp_Force_Field>
OPLS_2005

> <r_lp_Energy>
21.49

> <b_lp_Chiralities_Consistent>
1

> <s_lp_Variant>
AV-unprocessed.smi:1218-3

> <Gold.Version>
5.8.1

> <Gold.Id.Protein>
6NUR|6NUR_protein|mol2

> <Gold.PLP.Fitness>
46.2146

> <Gold.PLP.PLP>
-38.0036

> <Gold.PLP.part.hbond>
-3.8586

> <Gold.PLP.part.metal>
0.0000

> <Gold.PLP.part.buried>
-4.7363

> <Gold.PLP.part.nonpolar>
-30.0330

> <Gold.PLP.part.repulsive>
0.2679

> <Gold.PLP.ligand.clash>
0.0000

> <Gold.PLP.ligand.torsion>
1.6898

> <Gold.PLP.Chemscore.Hbond>
2.8960

> <Gold.PLP.Chemscore.CHOScore>
0.9267

> <Gold.PLP.Chemscore.Metal>
0.0000

> <Gold.Chemscore.Hbonds>
donor molecule, donor type, donor heavy atom, donor atom, acceptor molecule, acceptor atom, score
      L1  H    11    37       P1  7948  0.59
      P1  H  7989  7998       L1    19  0.86
      P1  H 10752 10763       L1    13  0.09
      L1  C    18    42       P1  8028  0.93

> <Gold.PLP.Chemscore.Internal.Correction>
0.1225

> <Gold.Rescore>
     Score         DG    S(hbond)    S(metal)    S(lipo)     H(rot)  DE(clash)    DE(int)     intcor
     14.34     -17.12       2.38        0.00      74.52       1.96       0.04       2.74       ----

> <Gold.Chemscore.Fitness>
14.3378

> <Gold.Chemscore.DG>
-17.1181

> <Gold.Chemscore.ZeroCoef>
-5.4800

> <Gold.Chemscore.Hbond>
2.3780

> <Gold.Chemscore.Metal>
0.0000

> <Gold.Chemscore.Lipo>
74.5233

> <Gold.Chemscore.Internal_Hbond>
0.0000

> <Gold.Chemscore.DEClash>
0.0353

> <Gold.Chemscore.DEInternal>
2.7449

> <Gold.Chemscore.Rot>
1.9624

> <Gold.Chemscore.Internal.Correction>
   9.000000E+99

> <Gold.Chemscore.Hbonds>
donor molecule, donor type, donor heavy atom, donor atom, acceptor molecule, acceptor atom, score
      L1  H    11    37       P1  7948  0.46
      P1  H  7989  7998       L1    19  0.51
      P1  H 10752 10763       L1    13  0.01

> <Gold.Chemscore.Hbond.Weighted>
-7.9425

> <Gold.Chemscore.Metal.Weighted>
-0.0000

> <Gold.Chemscore.Lipo.Weighted>
-8.7192

> <Gold.Chemscore.Internal_Hbond.Weighted>
0.0000

> <Gold.Chemscore.DEClash.Weighted>
0.0353

> <Gold.Chemscore.DEInternal.Weighted>
2.7449

> <Gold.Chemscore.Rot.Weighted>
5.0237

> <Gold.Chemscore.Internal.Correction.Weighted>
   9.000000E+99

> <Gold.Protein.RotatedTorsions>
[ 6907 6896 6895 6894 ] final -151.19 input  -60.11 | X-H torsion
[ 7974 7965 7964 7962 ] final  166.34 input  175.53 | X-H torsion
[ 8008 7997 7996 7995 ] final  173.69 input   59.86 | X-H torsion
[ 10167 10162 10161 10158 ] final   67.76 input  -65.29 | X-H torsion
[ 10718 10713 10712 10709 ] final    3.00 input   66.30 | X-H torsion
[ 10763 10752 10751 10750 ] final   82.29 input  -60.55 | X-H torsion
[ 11005 11000 10999 10996 ] final  134.77 input  -57.11 | X-H torsion

> <Gold.Protein.ActiveResidues>
 VAL166  LYS551  ARG553  GLY616  TRP617  ASP618  TYR619  PRO620  LYS621  CYS622 
 ASP623  PHE694  ASN695  SER759  ASP760  ASP761  ALA762  ILE779  LEU786  VAL792 
 PHE793  MET794  SER795  GLU796  ALA797  LYS798  CYS799  TRP800  GLU811  SER814 

> <Gold.Protein.RotatedAtoms>
  151.2094  133.4564  159.2597 H   0  0  0  0  0  0  0  0  0  0  0  0  # atno 6907 bound_to 6896
  151.0991  134.9961  159.8450 H   0  0  0  0  0  0  0  0  0  0  0  0  # atno 6908 bound_to 6896
  152.5442  134.2022  159.8769 H   0  0  0  0  0  0  0  0  0  0  0  0  # atno 6909 bound_to 6896
  144.7466  139.8602  143.6380 H   0  0  0  0  0  0  0  0  0  0  0  0  # atno 7974 bound_to 7965
  156.1050  140.1454  156.9416 H   0  0  0  0  0  0  0  0  0  0  0  0  # atno 8008 bound_to 7997
  154.4728  140.0904  156.7232 H   0  0  0  0  0  0  0  0  0  0  0  0  # atno 8009 bound_to 7997
  155.4694  140.3441  155.4326 H   0  0  0  0  0  0  0  0  0  0  0  0  # atno 8010 bound_to 7997
  140.0860  144.5029  150.7130 H   0  0  0  0  0  0  0  0  0  0  0  0  # atno 10167 bound_to 10162
  156.8713  130.5621  149.5657 H   0  0  0  0  0  0  0  0  0  0  0  0  # atno 10718 bound_to 10713
  153.1190  135.4734  154.9163 H   0  0  0  0  0  0  0  0  0  0  0  0  # atno 10763 bound_to 10752
  154.7556  135.3117  154.8478 H   0  0  0  0  0  0  0  0  0  0  0  0  # atno 10764 bound_to 10752
  153.9047  135.6871  153.4807 H   0  0  0  0  0  0  0  0  0  0  0  0  # atno 10765 bound_to 10752
  139.9936  134.9505  156.9914 H   0  0  0  0  0  0  0  0  0  0  0  0  # atno 11005 bound_to 11000
  146.1354  139.4398  143.0142 LP  0  0  0  0  0  0  0  0  0  0  0  0  # atno 17320 bound_to 7965
  145.7100  141.0109  143.1458 LP  0  0  0  0  0  0  0  0  0  0  0  0  # atno 17321 bound_to 7965
  140.7053  143.2463  151.4744 LP  0  0  0  0  0  0  0  0  0  0  0  0  # atno 17342 bound_to 10162
  139.5752  144.1836  152.1893 LP  0  0  0  0  0  0  0  0  0  0  0  0  # atno 17343 bound_to 10162
  156.0725  130.5754  150.9410 LP  0  0  0  0  0  0  0  0  0  0  0  0  # atno 17370 bound_to 10713
  157.6194  131.0931  150.8650 LP  0  0  0  0  0  0  0  0  0  0  0  0  # atno 17371 bound_to 10713
  140.4860  134.1241  155.7224 LP  0  0  0  0  0  0  0  0  0  0  0  0  # atno 17394 bound_to 11000
  141.1586  133.8835  157.1909 LP  0  0  0  0  0  0  0  0  0  0  0  0  # atno 17395 bound_to 11000

$$$$
