AV-unprocessed.smi:1180|AV-procd|sdf|4960|dock9
  -GOLD-   22720 3553D 1   1.00000     0.00000
 Structure written by MMmdl.
 38 39  0  0  0  0  0  0  0  0  1 V2000
  151.2419  142.7567  157.5390 C   0  0  0  0  0  0  0  0  0  0  0  0
  150.7694  141.6853  156.5792 C   0  0  0  0  0  0  0  0  0  0  0  0
  151.1767  140.4592  156.6106 N   0  0  0  0  0  0  0  0  0  0  0  0
  150.6654  139.5548  155.6695 C   0  0  0  0  0  0  0  0  0  0  0  0
  151.1884  138.1329  155.7751 C   0  0  0  0  0  0  0  0  0  0  0  0
  149.7567  139.9407  154.7263 C   0  0  0  0  0  0  0  0  0  0  0  0
  149.1750  138.9806  153.6887 C   0  0  0  0  0  0  0  0  0  0  0  0
  147.6477  138.9339  153.5872 C   0  0  0  0  0  0  0  0  0  0  0  0
  146.9481  139.6931  154.2585 O   0  0  0  0  0  0  0  0  0  0  0  0
  147.1435  138.0306  152.7335 N   0  0  0  0  0  0  0  0  0  0  0  0
  145.7230  137.8232  152.4749 C   0  0  0  0  0  0  0  0  0  0  0  0
  145.3910  136.3415  152.2121 C   0  0  2  0  0  0  0  0  0  0  0  0
  145.6294  135.8995  150.7730 C   0  0  0  0  0  0  0  0  0  0  0  0
  144.4710  134.9427  150.4704 C   0  0  0  0  0  0  0  0  0  0  0  0
  143.7952  134.7607  151.7069 O   0  0  0  0  0  0  0  0  0  0  0  0
  143.9286  135.9641  152.4427 C   0  0  0  0  0  0  0  0  0  0  0  0
  149.2972  141.3427  154.7005 C   0  0  0  0  0  0  0  0  0  0  0  0
  148.4772  141.7930  153.9016 O   0  0  0  0  0  0  0  0  0  0  0  0
  149.8424  142.1429  155.6440 N   0  0  0  0  0  0  0  0  0  0  0  0
  149.5588  143.1115  155.6690 H   0  0  0  0  0  0  0  0  0  0  0  0
  150.9880  142.4805  158.5627 H   0  0  0  0  0  0  0  0  0  0  0  0
  150.7841  143.7228  157.3222 H   0  0  0  0  0  0  0  0  0  0  0  0
  152.3244  142.8691  157.4726 H   0  0  0  0  0  0  0  0  0  0  0  0
  151.7594  137.8689  154.8849 H   0  0  0  0  0  0  0  0  0  0  0  0
  150.3651  137.4265  155.8827 H   0  0  0  0  0  0  0  0  0  0  0  0
  151.8433  138.0146  156.6394 H   0  0  0  0  0  0  0  0  0  0  0  0
  149.5828  139.2054  152.7021 H   0  0  0  0  0  0  0  0  0  0  0  0
  149.5226  137.9712  153.9083 H   0  0  0  0  0  0  0  0  0  0  0  0
  147.7907  137.4480  152.2220 H   0  0  0  0  0  0  0  0  0  0  0  0
  145.1679  138.1831  153.3417 H   0  0  0  0  0  0  0  0  0  0  0  0
  145.4060  138.4369  151.6301 H   0  0  0  0  0  0  0  0  0  0  0  0
  146.0048  135.7121  152.8586 H   0  0  0  0  0  0  0  0  0  0  0  0
  145.6114  136.7412  150.0794 H   0  0  0  0  0  0  0  0  0  0  0  0
  146.5976  135.4076  150.6727 H   0  0  0  0  0  0  0  0  0  0  0  0
  143.7849  135.3893  149.7494 H   0  0  0  0  0  0  0  0  0  0  0  0
  144.8115  133.9880  150.0689 H   0  0  0  0  0  0  0  0  0  0  0  0
  143.6916  135.8165  153.4969 H   0  0  0  0  0  0  0  0  0  0  0  0
  143.2523  136.7189  152.0376 H   0  0  0  0  0  0  0  0  0  0  0  0
  1  2  1  0  0  0  0
  1 21  1  0  0  0  0
  1 22  1  0  0  0  0
  1 23  1  0  0  0  0
  2 19  1  0  0  0  0
  2  3  2  0  0  0  0
  3  4  1  0  0  0  0
  4  5  1  0  0  0  0
  4  6  2  0  0  0  0
  5 24  1  0  0  0  0
  5 25  1  0  0  0  0
  5 26  1  0  0  0  0
  6  7  1  0  0  0  0
  6 17  1  0  0  0  0
  7  8  1  0  0  0  0
  7 27  1  0  0  0  0
  7 28  1  0  0  0  0
  8  9  2  0  0  0  0
  8 10  1  0  0  0  0
 10 11  1  0  0  0  0
 10 29  1  0  0  0  0
 11 12  1  0  0  0  0
 11 30  1  0  0  0  0
 11 31  1  0  0  0  0
 12 16  1  0  0  0  0
 12 13  1  0  0  0  0
 12 32  1  0  0  0  0
 13 14  1  0  0  0  0
 13 33  1  0  0  0  0
 13 34  1  0  0  0  0
 14 15  1  0  0  0  0
 14 35  1  0  0  0  0
 14 36  1  0  0  0  0
 15 16  1  0  0  0  0
 16 37  1  0  0  0  0
 16 38  1  0  0  0  0
 17 18  2  0  0  0  0
 17 19  1  0  0  0  0
 19 20  1  0  0  0  0
M  END
> <s_m_source_file>
AV-unprocessed.smi

> <i_m_source_file_index>
1180

> <i_lp_mmshare_version>
43012

> <i_f3d_flags>
0

> <s_epik_input>
W0NIM11jMW5jKFtDSDNdKWMoYyg9TylbbkhdMSlbQ0gyXUMoPU8pW05IXVtDSDJdW0NAQEhdMltDSDJdW0NIMl1PW0NIMl0y

> <s_epik_cmdline>
J2VwaWtfcHl0aG9uJywgJy1waCcsICc3LjAnLCAnLXRuJywgJzgnLCAnLW1hJywgJzIwMCcsICctbWV0YWxfYmluZGluZycsICctaW1hZScsICc8aW5maWxlLm1hZT4nLCAnLW9tYWUnLCAnPG91dGZpbGUubWFlPic=

> <r_lp_tautomer_probability>
0.839158

> <r_epik_Ionization_Penalty>
0.000395459

> <r_epik_Ionization_Penalty_Charging>
0.000363703

> <r_epik_Ionization_Penalty_Neutral>
3.17556e-05

> <r_epik_State_Penalty>
0.0471244

> <r_epik_Charging_Adjusted_Penalty>
0.0474881

> <i_epik_Tot_Q>
0

> <i_epik_Tot_abs_Q>
0

> <r_epik_Metal_State_Penalty>
0.225307

> <b_epik_Metal_Only>
0

> <s_lp_Force_Field>
OPLS_2005

> <r_lp_Energy>
20.5307

> <b_lp_Chiralities_Consistent>
1

> <s_lp_Variant>
AV-unprocessed.smi:1180-1

> <Gold.Version>
5.8.1

> <Gold.Id.Protein>
6NUR|6NUR_protein|mol2

> <Gold.PLP.Fitness>
37.5884

> <Gold.PLP.PLP>
-30.9825

> <Gold.PLP.part.hbond>
-3.0000

> <Gold.PLP.part.metal>
0.0000

> <Gold.PLP.part.buried>
-1.2999

> <Gold.PLP.part.nonpolar>
-27.7933

> <Gold.PLP.part.repulsive>
0.7207

> <Gold.PLP.ligand.clash>
0.0000

> <Gold.PLP.ligand.torsion>
0.4854

> <Gold.PLP.Chemscore.Hbond>
2.5234

> <Gold.PLP.Chemscore.CHOScore>
0.0000

> <Gold.PLP.Chemscore.Metal>
0.0000

> <Gold.Chemscore.Hbonds>
donor molecule, donor type, donor heavy atom, donor atom, acceptor molecule, acceptor atom, score
      L1  H    10    29       P1  7948  1.00
      L1  H    19    20       P1  8028  1.00
      P1  H  8011  8017       L1    18  0.39

> <Gold.PLP.Chemscore.Internal.Correction>
0.0066

> <Gold.Rescore>
     Score         DG    S(hbond)    S(metal)    S(lipo)     H(rot)  DE(clash)    DE(int)     intcor
     13.49     -16.32       2.58        0.00      58.67       1.81       0.12       2.71       ----

> <Gold.Chemscore.Fitness>
13.4934

> <Gold.Chemscore.DG>
-16.3250

> <Gold.Chemscore.ZeroCoef>
-5.4800

> <Gold.Chemscore.Hbond>
2.5762

> <Gold.Chemscore.Metal>
0.0000

> <Gold.Chemscore.Lipo>
58.6750

> <Gold.Chemscore.Internal_Hbond>
0.0000

> <Gold.Chemscore.DEClash>
0.1232

> <Gold.Chemscore.DEInternal>
2.7083

> <Gold.Chemscore.Rot>
1.8065

> <Gold.Chemscore.Internal.Correction>
   9.000000E+99

> <Gold.Chemscore.Hbonds>
donor molecule, donor type, donor heavy atom, donor atom, acceptor molecule, acceptor atom, score
      L1  H    10    29       P1  7948  1.00
      L1  H    19    20       P1  8028  1.00
      P1  H  8011  8017       L1    18  0.10

> <Gold.Chemscore.Hbond.Weighted>
-8.6046

> <Gold.Chemscore.Metal.Weighted>
-0.0000

> <Gold.Chemscore.Lipo.Weighted>
-6.8650

> <Gold.Chemscore.Internal_Hbond.Weighted>
0.0000

> <Gold.Chemscore.DEClash.Weighted>
0.1232

> <Gold.Chemscore.DEInternal.Weighted>
2.7083

> <Gold.Chemscore.Rot.Weighted>
4.6246

> <Gold.Chemscore.Internal.Correction.Weighted>
   9.000000E+99

> <Gold.Protein.RotatedTorsions>
[ 6907 6896 6895 6894 ] final  -77.89 input  -60.11 | X-H torsion
[ 7974 7965 7964 7962 ] final  136.80 input  175.53 | X-H torsion
[ 8008 7997 7996 7995 ] final   97.15 input   59.86 | X-H torsion
[ 10167 10162 10161 10158 ] final  165.53 input  -65.29 | X-H torsion
[ 10718 10713 10712 10709 ] final  103.97 input   66.30 | X-H torsion
[ 10763 10752 10751 10750 ] final -121.36 input  -60.55 | X-H torsion
[ 11005 11000 10999 10996 ] final  168.83 input  -57.11 | X-H torsion

> <Gold.Protein.ActiveResidues>
 VAL166  LYS551  ARG553  GLY616  TRP617  ASP618  TYR619  PRO620  LYS621  CYS622 
 ASP623  PHE694  ASN695  SER759  ASP760  ASP761  ALA762  ILE779  LEU786  VAL792 
 PHE793  MET794  SER795  GLU796  ALA797  LYS798  CYS799  TRP800  GLU811  SER814 

> <Gold.Protein.RotatedAtoms>
  150.6987  134.4354  159.5267 H   0  0  0  0  0  0  0  0  0  0  0  0  # atno 6907 bound_to 6896
  152.2073  134.8531  160.0510 H   0  0  0  0  0  0  0  0  0  0  0  0  # atno 6908 bound_to 6896
  151.9429  133.3608  159.4008 H   0  0  0  0  0  0  0  0  0  0  0  0  # atno 6909 bound_to 6896
  144.9530  139.4797  143.5517 H   0  0  0  0  0  0  0  0  0  0  0  0  # atno 7974 bound_to 7965
  156.0871  140.3262  155.7768 H   0  0  0  0  0  0  0  0  0  0  0  0  # atno 8008 bound_to 7997
  155.5058  140.0573  157.2949 H   0  0  0  0  0  0  0  0  0  0  0  0  # atno 8009 bound_to 7997
  154.4615  140.1969  156.0247 H   0  0  0  0  0  0  0  0  0  0  0  0  # atno 8010 bound_to 7997
  139.4907  144.4123  151.9285 H   0  0  0  0  0  0  0  0  0  0  0  0  # atno 10167 bound_to 10162
  157.6755  131.0792  150.5636 H   0  0  0  0  0  0  0  0  0  0  0  0  # atno 10718 bound_to 10713
  154.8666  135.4170  154.2608 H   0  0  0  0  0  0  0  0  0  0  0  0  # atno 10763 bound_to 10752
  153.3537  135.7000  153.6774 H   0  0  0  0  0  0  0  0  0  0  0  0  # atno 10764 bound_to 10752
  153.5703  135.3592  155.2807 H   0  0  0  0  0  0  0  0  0  0  0  0  # atno 10765 bound_to 10752
  140.2914  134.7670  157.3841 H   0  0  0  0  0  0  0  0  0  0  0  0  # atno 11005 bound_to 11000
  146.3327  139.8628  142.8853 LP  0  0  0  0  0  0  0  0  0  0  0  0  # atno 17320 bound_to 7965
  145.2815  141.0140  143.3714 LP  0  0  0  0  0  0  0  0  0  0  0  0  # atno 17321 bound_to 7965
  140.3564  144.3026  150.5940 LP  0  0  0  0  0  0  0  0  0  0  0  0  # atno 17342 bound_to 10162
  140.5440  143.2218  151.8037 LP  0  0  0  0  0  0  0  0  0  0  0  0  # atno 17343 bound_to 10162
  156.5938  130.4336  149.5925 LP  0  0  0  0  0  0  0  0  0  0  0  0  # atno 17370 bound_to 10713
  156.2561  130.6935  151.1689 LP  0  0  0  0  0  0  0  0  0  0  0  0  # atno 17371 bound_to 10713
  140.1192  134.5242  155.8198 LP  0  0  0  0  0  0  0  0  0  0  0  0  # atno 17394 bound_to 11000
  141.2145  133.6750  156.6834 LP  0  0  0  0  0  0  0  0  0  0  0  0  # atno 17395 bound_to 11000

$$$$
