AV-unprocessed.smi:3232|AV-procd|sdf|12342|dock1
  -GOLD-   2272018203D 1   1.00000     0.00000
 Structure written by MMmdl.
 40 41  0  0  0  0  0  0  0  0  2 V2000
  147.2572  131.7458  153.0307 C   0  0  0  0  0  0  0  0  0  0  0  0
  147.9386  133.0241  152.5238 C   0  0  0  0  0  0  0  0  0  0  0  0
  146.9585  134.0786  152.1678 N   0  3  1  0  0  0  0  0  0  0  0  0
  146.1089  133.7669  150.9994 C   0  0  0  0  0  0  0  0  0  0  0  0
  144.8767  134.6467  151.1634 C   0  0  0  0  0  0  0  0  0  0  0  0
  144.6557  134.6461  152.6716 C   0  0  0  0  0  0  0  0  0  0  0  0
  146.0627  134.4806  153.2817 C   0  0  2  0  0  0  0  0  0  0  0  0
  146.5962  135.7567  153.9665 C   0  0  0  0  0  0  0  0  0  0  0  0
  148.0490  135.7480  154.0896 N   0  0  0  0  0  0  0  0  0  0  0  0
  148.7257  135.8633  155.2430 C   0  0  0  0  0  0  0  0  0  0  0  0
  148.1720  135.9342  156.3409 O   0  0  0  0  0  0  0  0  0  0  0  0
  150.2557  135.9334  155.1226 C   0  0  2  0  0  0  0  0  0  0  0  0
  150.9837  135.0997  156.1932 C   0  0  0  0  0  0  0  0  0  0  0  0
  150.6933  137.3223  155.1554 N   0  0  0  0  0  0  0  0  0  0  0  0
  151.3141  138.0674  154.2361 C   0  0  0  0  0  0  0  0  0  0  0  0
  151.5725  139.3051  154.6333 N   0  0  0  0  0  0  0  0  0  0  0  0
  151.0413  139.2563  155.8910 C   0  0  0  0  0  0  0  0  0  0  0  0
  150.5071  138.0906  156.2552 N   0  0  0  0  0  0  0  0  0  0  0  0
  147.9953  130.9670  153.2236 H   0  0  0  0  0  0  0  0  0  0  0  0
  146.5512  131.3573  152.2965 H   0  0  0  0  0  0  0  0  0  0  0  0
  146.7156  131.9192  153.9607 H   0  0  0  0  0  0  0  0  0  0  0  0
  148.6418  133.4014  153.2675 H   0  0  0  0  0  0  0  0  0  0  0  0
  148.5237  132.7775  151.6369 H   0  0  0  0  0  0  0  0  0  0  0  0
  146.6285  133.9526  150.0590 H   0  0  0  0  0  0  0  0  0  0  0  0
  145.8141  132.7163  151.0232 H   0  0  0  0  0  0  0  0  0  0  0  0
  145.0948  135.6592  150.8210 H   0  0  0  0  0  0  0  0  0  0  0  0
  144.0142  134.2792  150.6063 H   0  0  0  0  0  0  0  0  0  0  0  0
  144.1311  135.5409  153.0078 H   0  0  0  0  0  0  0  0  0  0  0  0
  144.0385  133.7898  152.9472 H   0  0  0  0  0  0  0  0  0  0  0  0
  146.0170  133.6720  154.0136 H   0  0  0  0  0  0  0  0  0  0  0  0
  146.2842  136.6457  153.4154 H   0  0  0  0  0  0  0  0  0  0  0  0
  146.1718  135.8496  154.9667 H   0  0  0  0  0  0  0  0  0  0  0  0
  148.5815  135.6907  153.2330 H   0  0  0  0  0  0  0  0  0  0  0  0
  150.5203  135.5176  154.1484 H   0  0  0  0  0  0  0  0  0  0  0  0
  150.6703  134.0555  156.1623 H   0  0  0  0  0  0  0  0  0  0  0  0
  150.7932  135.4757  157.1993 H   0  0  0  0  0  0  0  0  0  0  0  0
  152.0620  135.1210  156.0332 H   0  0  0  0  0  0  0  0  0  0  0  0
  151.5876  137.6942  153.2599 H   0  0  0  0  0  0  0  0  0  0  0  0
  151.0531  140.1040  156.5602 H   0  0  0  0  0  0  0  0  0  0  0  0
  147.4818  134.9072  151.9240 H   0  0  0  0  0  0  0  0  0  0  0  0
  1  2  1  0  0  0  0
  1 19  1  0  0  0  0
  1 20  1  0  0  0  0
  1 21  1  0  0  0  0
  2  3  1  0  0  0  0
  2 22  1  0  0  0  0
  2 23  1  0  0  0  0
  3  7  1  0  0  0  0
  3  4  1  0  0  0  0
  3 40  1  0  0  0  0
  4  5  1  0  0  0  0
  4 24  1  0  0  0  0
  4 25  1  0  0  0  0
  5  6  1  0  0  0  0
  5 26  1  0  0  0  0
  5 27  1  0  0  0  0
  6  7  1  0  0  0  0
  6 28  1  0  0  0  0
  6 29  1  0  0  0  0
  7  8  1  0  0  0  0
  7 30  1  0  0  0  0
  8  9  1  0  0  0  0
  8 31  1  0  0  0  0
  8 32  1  0  0  0  0
  9 10  1  0  0  0  0
  9 33  1  0  0  0  0
 10 11  2  0  0  0  0
 10 12  1  0  0  0  0
 12 13  1  0  0  0  0
 12 14  1  0  0  0  0
 12 34  1  0  0  0  0
 13 35  1  0  0  0  0
 13 36  1  0  0  0  0
 13 37  1  0  0  0  0
 14 18  1  0  0  0  0
 14 15  1  0  0  0  0
 15 16  2  0  0  0  0
 15 38  1  0  0  0  0
 16 17  1  0  0  0  0
 17 18  2  0  0  0  0
 17 39  1  0  0  0  0
M  CHG  1   3   1
M  END
> <s_m_source_file>
AV-unprocessed.smi

> <i_m_source_file_index>
3232

> <i_lp_mmshare_version>
43012

> <i_f3d_flags>
0

> <s_epik_input>
W0NIM11bQ0gyXU4xW0NIMl1bQ0gyXVtDSDJdW0NASF0xW0NIMl1bTkhdQyg9TylbQ0BIXShbQ0gzXSluMltjSF1uW2NIXW4y

> <s_epik_cmdline>
J2VwaWtfcHl0aG9uJywgJy1waCcsICc3LjAnLCAnLXRuJywgJzgnLCAnLW1hJywgJzIwMCcsICctbWV0YWxfYmluZGluZycsICctaW1hZScsICc8aW5maWxlLm1hZT4nLCAnLW9tYWUnLCAnPG91dGZpbGUubWFlPic=

> <r_lp_tautomer_probability>
1

> <r_epik_Ionization_Penalty>
0.00177695

> <r_epik_Ionization_Penalty_Charging>
0.00176881

> <r_epik_Ionization_Penalty_Neutral>
8.13528e-06

> <r_epik_State_Penalty>
0.00119827

> <r_epik_Charging_Adjusted_Penalty>
0.00296709

> <i_epik_Tot_Q>
1

> <i_epik_Tot_abs_Q>
1

> <r_epik_Metal_State_Penalty>
-0

> <b_epik_Metal_Only>
0

> <s_lp_Force_Field>
OPLS_2005

> <r_lp_Energy>
32.398

> <b_lp_Chiralities_Consistent>
1

> <s_lp_Variant>
AV-unprocessed.smi:3232-4

> <Gold.Version>
5.8.1

> <Gold.Id.Protein>
6NUR|6NUR_protein|mol2

> <Gold.PLP.Fitness>
38.6184

> <Gold.PLP.PLP>
-25.1364

> <Gold.PLP.part.hbond>
-2.7474

> <Gold.PLP.part.metal>
0.0000

> <Gold.PLP.part.buried>
-3.9385

> <Gold.PLP.part.nonpolar>
-19.3533

> <Gold.PLP.part.repulsive>
0.1194

> <Gold.PLP.ligand.clash>
0.0000

> <Gold.PLP.ligand.torsion>
0.7991

> <Gold.PLP.Chemscore.Hbond>
3.9920

> <Gold.PLP.Chemscore.CHOScore>
0.9981

> <Gold.PLP.Chemscore.Metal>
0.0000

> <Gold.Chemscore.Hbonds>
donor molecule, donor type, donor heavy atom, donor atom, acceptor molecule, acceptor atom, score
      L1  H     3    40       P1  7948  2.00
      L1  H     9    33       P1  7948  0.93
      P1  H  7989  7998       L1    16  1.00
      L1  C    15    38       P1  7949  1.00

> <Gold.PLP.Chemscore.Internal.Correction>
0.1098

> <Gold.Rescore>
     Score         DG    S(hbond)    S(metal)    S(lipo)     H(rot)  DE(clash)    DE(int)     intcor
     12.32     -13.09       2.84        0.00      38.56       2.49       0.00       0.77       ----

> <Gold.Chemscore.Fitness>
12.3215

> <Gold.Chemscore.DG>
-13.0923

> <Gold.Chemscore.ZeroCoef>
-5.4800

> <Gold.Chemscore.Hbond>
2.8356

> <Gold.Chemscore.Metal>
0.0000

> <Gold.Chemscore.Lipo>
38.5576

> <Gold.Chemscore.Internal_Hbond>
0.0000

> <Gold.Chemscore.DEClash>
0.0048

> <Gold.Chemscore.DEInternal>
0.7660

> <Gold.Chemscore.Rot>
2.4882

> <Gold.Chemscore.Internal.Correction>
   9.000000E+99

> <Gold.Chemscore.Hbonds>
donor molecule, donor type, donor heavy atom, donor atom, acceptor molecule, acceptor atom, score
      L1  H     3    40       P1  7948  0.81
      L1  H     9    33       P1  7948  0.85
      P1  H  7989  7998       L1    16  0.98

> <Gold.Chemscore.Hbond.Weighted>
-9.4708

> <Gold.Chemscore.Metal.Weighted>
-0.0000

> <Gold.Chemscore.Lipo.Weighted>
-4.5112

> <Gold.Chemscore.Internal_Hbond.Weighted>
0.0000

> <Gold.Chemscore.DEClash.Weighted>
0.0048

> <Gold.Chemscore.DEInternal.Weighted>
0.7660

> <Gold.Chemscore.Rot.Weighted>
6.3697

> <Gold.Chemscore.Internal.Correction.Weighted>
   9.000000E+99

> <Gold.Protein.RotatedTorsions>
[ 6907 6896 6895 6894 ] final   67.42 input  -60.11 | X-H torsion
[ 7974 7965 7964 7962 ] final    2.88 input  175.53 | X-H torsion
[ 8008 7997 7996 7995 ] final  -70.79 input   59.86 | X-H torsion
[ 10167 10162 10161 10158 ] final  147.71 input  -65.29 | X-H torsion
[ 10718 10713 10712 10709 ] final  -89.56 input   66.30 | X-H torsion
[ 10763 10752 10751 10750 ] final   73.13 input  -60.55 | X-H torsion
[ 11005 11000 10999 10996 ] final  -10.41 input  -57.11 | X-H torsion

> <Gold.Protein.ActiveResidues>
 VAL166  LYS551  ARG553  GLY616  TRP617  ASP618  TYR619  PRO620  LYS621  CYS622 
 ASP623  PHE694  ASN695  SER759  ASP760  ASP761  ALA762  ILE779  LEU786  VAL792 
 PHE793  MET794  SER795  GLU796  ALA797  LYS798  CYS799  TRP800  GLU811  SER814 

> <Gold.Protein.RotatedAtoms>
  152.4551  134.5310  159.9810 H   0  0  0  0  0  0  0  0  0  0  0  0  # atno 6907 bound_to 6896
  151.5373  133.3433  159.2937 H   0  0  0  0  0  0  0  0  0  0  0  0  # atno 6908 bound_to 6896
  150.8492  134.7842  159.7058 H   0  0  0  0  0  0  0  0  0  0  0  0  # atno 6909 bound_to 6896
  146.2444  140.0770  142.8359 H   0  0  0  0  0  0  0  0  0  0  0  0  # atno 7974 bound_to 7965
  154.5038  140.0828  156.7853 H   0  0  0  0  0  0  0  0  0  0  0  0  # atno 8008 bound_to 7997
  155.3941  140.3434  155.4235 H   0  0  0  0  0  0  0  0  0  0  0  0  # atno 8009 bound_to 7997
  156.1490  140.1552  156.8788 H   0  0  0  0  0  0  0  0  0  0  0  0  # atno 8010 bound_to 7997
  139.4886  144.5735  151.7010 H   0  0  0  0  0  0  0  0  0  0  0  0  # atno 10167 bound_to 10162
  155.9985  130.4877  150.5189 H   0  0  0  0  0  0  0  0  0  0  0  0  # atno 10718 bound_to 10713
  153.0502  135.5074  154.7848 H   0  0  0  0  0  0  0  0  0  0  0  0  # atno 10763 bound_to 10752
  154.6716  135.2954  154.9736 H   0  0  0  0  0  0  0  0  0  0  0  0  # atno 10764 bound_to 10752
  154.0553  135.6698  153.4858 H   0  0  0  0  0  0  0  0  0  0  0  0  # atno 10765 bound_to 10752
  140.7444  133.8643  155.8994 H   0  0  0  0  0  0  0  0  0  0  0  0  # atno 11005 bound_to 11000
  145.0766  140.9192  143.4850 LP  0  0  0  0  0  0  0  0  0  0  0  0  # atno 17320 bound_to 7965
  145.0915  139.2887  143.5733 LP  0  0  0  0  0  0  0  0  0  0  0  0  # atno 17321 bound_to 7965
  140.5326  144.0706  150.6059 LP  0  0  0  0  0  0  0  0  0  0  0  0  # atno 17342 bound_to 10162
  140.3701  143.2859  152.0287 LP  0  0  0  0  0  0  0  0  0  0  0  0  # atno 17343 bound_to 10162
  157.3153  131.0671  151.1971 LP  0  0  0  0  0  0  0  0  0  0  0  0  # atno 17370 bound_to 10713
  157.2903  130.6793  149.6111 LP  0  0  0  0  0  0  0  0  0  0  0  0  # atno 17371 bound_to 10713
  140.9807  134.1409  157.4496 LP  0  0  0  0  0  0  0  0  0  0  0  0  # atno 17394 bound_to 11000
  139.8799  135.0009  156.6039 LP  0  0  0  0  0  0  0  0  0  0  0  0  # atno 17395 bound_to 11000

$$$$
