AV-unprocessed.smi:1084|AV-procd|sdf|4718|dock6
  -GOLD-   22720 3243D 1   1.00000     0.00000
 Structure written by MMmdl.
 53 55  0  0  0  0  0  0  0  0  2 V2000
  149.3571  131.3606  154.0765 C   0  0  0  0  0  0  0  0  0  0  0  0
  148.8026  132.5979  153.3336 C   0  0  2  0  0  0  0  0  0  0  0  0
  148.2749  133.6541  154.3443 C   0  0  0  0  0  0  0  0  0  0  0  0
  148.8655  134.9764  154.1484 N   0  0  0  0  0  0  0  0  0  0  0  0
  149.3064  135.7875  155.1211 C   0  0  0  0  0  0  0  0  0  0  0  0
  149.2788  135.4897  156.3142 O   0  0  0  0  0  0  0  0  0  0  0  0
  149.7692  136.9413  154.6096 N   0  0  0  0  0  0  0  0  0  0  0  0
  150.3404  138.0637  155.2713 C   0  0  0  0  0  0  0  0  0  0  0  0
  151.4165  138.8403  154.7799 C   0  0  0  0  0  0  0  0  0  0  0  0
  151.8724  139.9340  155.5414 C   0  0  0  0  0  0  0  0  0  0  0  0
  151.2458  140.2317  156.7743 C   0  0  0  0  0  0  0  0  0  0  0  0
  151.6853  141.3266  157.5500 N   0  0  0  0  0  0  0  0  0  0  0  0
  150.9578  142.5887  157.4272 C   0  0  0  0  0  0  0  0  0  0  0  0
  151.7387  143.7264  158.1060 C   0  0  0  0  0  0  0  0  0  0  0  0
  152.0086  143.3796  159.4600 O   0  0  0  0  0  0  0  0  0  0  0  0
  152.8124  142.2082  159.5554 C   0  0  0  0  0  0  0  0  0  0  0  0
  152.0758  141.0146  158.9226 C   0  0  0  0  0  0  0  0  0  0  0  0
  150.2104  139.4903  157.2377 N   0  0  0  0  0  0  0  0  0  0  0  0
  149.7781  138.4425  156.5067 C   0  0  0  0  0  0  0  0  0  0  0  0
  147.7801  132.1706  152.3216 N   0  3  0  0  0  0  0  0  0  0  0  0
  146.7114  131.2623  152.8230 C   0  0  0  0  0  0  0  0  0  0  0  0
  145.7477  130.8627  151.6921 C   0  0  0  0  0  0  0  0  0  0  0  0
  145.1853  132.0255  151.1031 O   0  0  0  0  0  0  0  0  0  0  0  0
  146.1859  132.8485  150.5223 C   0  0  0  0  0  0  0  0  0  0  0  0
  147.1568  133.3240  151.6153 C   0  0  0  0  0  0  0  0  0  0  0  0
  150.1566  131.6275  154.7668 H   0  0  0  0  0  0  0  0  0  0  0  0
  149.7848  130.6200  153.4036 H   0  0  0  0  0  0  0  0  0  0  0  0
  148.5750  130.8680  154.6548 H   0  0  0  0  0  0  0  0  0  0  0  0
  149.6255  133.0660  152.7906 H   0  0  0  0  0  0  0  0  0  0  0  0
  147.2026  133.8026  154.2186 H   0  0  0  0  0  0  0  0  0  0  0  0
  148.4229  133.3074  155.3685 H   0  0  0  0  0  0  0  0  0  0  0  0
  148.9294  135.3058  153.1961 H   0  0  0  0  0  0  0  0  0  0  0  0
  149.6936  137.0357  153.6073 H   0  0  0  0  0  0  0  0  0  0  0  0
  151.8991  138.6363  153.8380 H   0  0  0  0  0  0  0  0  0  0  0  0
  152.6822  140.5398  155.1626 H   0  0  0  0  0  0  0  0  0  0  0  0
  150.8030  142.8349  156.3759 H   0  0  0  0  0  0  0  0  0  0  0  0
  149.9740  142.4854  157.8872 H   0  0  0  0  0  0  0  0  0  0  0  0
  152.6718  143.9280  157.5772 H   0  0  0  0  0  0  0  0  0  0  0  0
  151.1554  144.6470  158.0838 H   0  0  0  0  0  0  0  0  0  0  0  0
  153.7745  142.3738  159.0679 H   0  0  0  0  0  0  0  0  0  0  0  0
  153.0198  142.0057  160.6062 H   0  0  0  0  0  0  0  0  0  0  0  0
  151.1789  140.7833  159.4985 H   0  0  0  0  0  0  0  0  0  0  0  0
  152.7180  140.1362  158.9705 H   0  0  0  0  0  0  0  0  0  0  0  0
  148.9509  137.8876  156.9250 H   0  0  0  0  0  0  0  0  0  0  0  0
  147.1369  130.3431  153.2241 H   0  0  0  0  0  0  0  0  0  0  0  0
  146.1616  131.7512  153.6290 H   0  0  0  0  0  0  0  0  0  0  0  0
  146.2619  130.2685  150.9348 H   0  0  0  0  0  0  0  0  0  0  0  0
  144.9423  130.2435  152.0875 H   0  0  0  0  0  0  0  0  0  0  0  0
  146.7145  132.3070  149.7361 H   0  0  0  0  0  0  0  0  0  0  0  0
  145.7049  133.7049  150.0498 H   0  0  0  0  0  0  0  0  0  0  0  0
  146.6219  133.9456  152.3351 H   0  0  0  0  0  0  0  0  0  0  0  0
  147.9104  133.9579  151.1522 H   0  0  0  0  0  0  0  0  0  0  0  0
  148.2827  131.6379  151.6257 H   0  0  0  0  0  0  0  0  0  0  0  0
  1  2  1  0  0  0  0
  1 26  1  0  0  0  0
  1 27  1  0  0  0  0
  1 28  1  0  0  0  0
  2  3  1  0  0  0  0
  2 20  1  0  0  0  0
  2 29  1  0  0  0  0
  3  4  1  0  0  0  0
  3 30  1  0  0  0  0
  3 31  1  0  0  0  0
  4  5  1  0  0  0  0
  4 32  1  0  0  0  0
  5  6  2  0  0  0  0
  5  7  1  0  0  0  0
  7  8  1  0  0  0  0
  7 33  1  0  0  0  0
  8 19  1  0  0  0  0
  8  9  2  0  0  0  0
  9 10  1  0  0  0  0
  9 34  1  0  0  0  0
 10 11  2  0  0  0  0
 10 35  1  0  0  0  0
 11 12  1  0  0  0  0
 11 18  1  0  0  0  0
 12 17  1  0  0  0  0
 12 13  1  0  0  0  0
 13 14  1  0  0  0  0
 13 36  1  0  0  0  0
 13 37  1  0  0  0  0
 14 15  1  0  0  0  0
 14 38  1  0  0  0  0
 14 39  1  0  0  0  0
 15 16  1  0  0  0  0
 16 17  1  0  0  0  0
 16 40  1  0  0  0  0
 16 41  1  0  0  0  0
 17 42  1  0  0  0  0
 17 43  1  0  0  0  0
 18 19  2  0  0  0  0
 19 44  1  0  0  0  0
 20 25  1  0  0  0  0
 20 21  1  0  0  0  0
 20 53  1  0  0  0  0
 21 22  1  0  0  0  0
 21 45  1  0  0  0  0
 21 46  1  0  0  0  0
 22 23  1  0  0  0  0
 22 47  1  0  0  0  0
 22 48  1  0  0  0  0
 23 24  1  0  0  0  0
 24 25  1  0  0  0  0
 24 49  1  0  0  0  0
 24 50  1  0  0  0  0
 25 51  1  0  0  0  0
 25 52  1  0  0  0  0
M  CHG  1  20   1
M  END
> <s_m_source_file>
AV-unprocessed.smi

> <i_m_source_file_index>
1084

> <i_lp_mmshare_version>
43012

> <i_f3d_flags>
0

> <s_epik_input>
W0NIMl0xW0NIMl1PW0NIMl1bQ0gyXU4xW0NASF0oW0NIM10pW0NIMl1bTkhdQyg9TylbTkhdYzJbY0hdW2NIXWMobltjSF0yKU4zW0NIMl1bQ0gyXU9bQ0gyXVtDSDJdMw==

> <s_epik_cmdline>
J2VwaWtfcHl0aG9uJywgJy1waCcsICc3LjAnLCAnLXRuJywgJzgnLCAnLW1hJywgJzIwMCcsICctbWV0YWxfYmluZGluZycsICctaW1hZScsICc8aW5maWxlLm1hZT4nLCAnLW9tYWUnLCAnPG91dGZpbGUubWFlPic=

> <r_lp_tautomer_probability>
1

> <r_epik_Ionization_Penalty>
0.604236

> <r_epik_Ionization_Penalty_Charging>
0.602531

> <r_epik_Ionization_Penalty_Neutral>
0.00170595

> <r_epik_State_Penalty>
0.59929

> <r_epik_Charging_Adjusted_Penalty>
1.20182

> <i_epik_Tot_Q>
1

> <i_epik_Tot_abs_Q>
1

> <r_epik_Metal_State_Penalty>
0.598238

> <b_epik_Metal_Only>
0

> <s_lp_Force_Field>
OPLS_2005

> <r_lp_Energy>
38.6371

> <b_lp_Chiralities_Consistent>
1

> <s_lp_Variant>
AV-unprocessed.smi:1084-3

> <Gold.Version>
5.8.1

> <Gold.Id.Protein>
6NUR|6NUR_protein|mol2

> <Gold.PLP.Fitness>
50.1407

> <Gold.PLP.PLP>
-43.8278

> <Gold.PLP.part.hbond>
-3.0000

> <Gold.PLP.part.metal>
0.0000

> <Gold.PLP.part.buried>
-6.1491

> <Gold.PLP.part.nonpolar>
-35.5869

> <Gold.PLP.part.repulsive>
0.1671

> <Gold.PLP.ligand.clash>
0.0000

> <Gold.PLP.ligand.torsion>
1.5436

> <Gold.PLP.Chemscore.Hbond>
2.9760

> <Gold.PLP.Chemscore.CHOScore>
0.0000

> <Gold.PLP.Chemscore.Metal>
0.0000

> <Gold.Chemscore.Hbonds>
donor molecule, donor type, donor heavy atom, donor atom, acceptor molecule, acceptor atom, score
      L1  H     4    32       P1  7948  1.00
      L1  H     7    33       P1  7948  0.94
      L1  H    20    53       P1 10747  1.00

> <Gold.PLP.Chemscore.Internal.Correction>
0.4721

> <Gold.Rescore>
     Score         DG    S(hbond)    S(metal)    S(lipo)     H(rot)  DE(clash)    DE(int)     intcor
     20.14     -22.68       2.74        0.00     105.57       1.68       0.05       2.50       ----

> <Gold.Chemscore.Fitness>
20.1401

> <Gold.Chemscore.DG>
-22.6819

> <Gold.Chemscore.ZeroCoef>
-5.4800

> <Gold.Chemscore.Hbond>
2.7400

> <Gold.Chemscore.Metal>
0.0000

> <Gold.Chemscore.Lipo>
105.5658

> <Gold.Chemscore.Internal_Hbond>
0.0000

> <Gold.Chemscore.DEClash>
0.0456

> <Gold.Chemscore.DEInternal>
2.4962

> <Gold.Chemscore.Rot>
1.6800

> <Gold.Chemscore.Internal.Correction>
   9.000000E+99

> <Gold.Chemscore.Hbonds>
donor molecule, donor type, donor heavy atom, donor atom, acceptor molecule, acceptor atom, score
      L1  H     4    32       P1  7948  0.49
      L1  H     7    33       P1  7948  0.59
      L1  H    20    53       P1 10747  1.00

> <Gold.Chemscore.Hbond.Weighted>
-9.1515

> <Gold.Chemscore.Metal.Weighted>
-0.0000

> <Gold.Chemscore.Lipo.Weighted>
-12.3512

> <Gold.Chemscore.Internal_Hbond.Weighted>
0.0000

> <Gold.Chemscore.DEClash.Weighted>
0.0456

> <Gold.Chemscore.DEInternal.Weighted>
2.4962

> <Gold.Chemscore.Rot.Weighted>
4.3007

> <Gold.Chemscore.Internal.Correction.Weighted>
   9.000000E+99

> <Gold.Protein.RotatedTorsions>
[ 6907 6896 6895 6894 ] final  139.35 input  -60.11 | X-H torsion
[ 7974 7965 7964 7962 ] final -146.61 input  175.53 | X-H torsion
[ 8008 7997 7996 7995 ] final  -36.89 input   59.86 | X-H torsion
[ 10167 10162 10161 10158 ] final  -90.75 input  -65.29 | X-H torsion
[ 10718 10713 10712 10709 ] final  -14.24 input   66.30 | X-H torsion
[ 10763 10752 10751 10750 ] final  146.35 input  -60.55 | X-H torsion
[ 11005 11000 10999 10996 ] final  176.37 input  -57.11 | X-H torsion

> <Gold.Protein.ActiveResidues>
 VAL166  LYS551  ARG553  GLY616  TRP617  ASP618  TYR619  PRO620  LYS621  CYS622 
 ASP623  PHE694  ASN695  SER759  ASP760  ASP761  ALA762  ILE779  LEU786  VAL792 
 PHE793  MET794  SER795  GLU796  ALA797  LYS798  CYS799  TRP800  GLU811  SER814 

> <Gold.Protein.RotatedAtoms>
  152.2560  133.5255  159.5352 H   0  0  0  0  0  0  0  0  0  0  0  0  # atno 6907 bound_to 6896
  150.7109  134.0895  159.3936 H   0  0  0  0  0  0  0  0  0  0  0  0  # atno 6908 bound_to 6896
  151.8814  135.0452  160.0540 H   0  0  0  0  0  0  0  0  0  0  0  0  # atno 6909 bound_to 6896
  144.8148  140.5434  143.5618 H   0  0  0  0  0  0  0  0  0  0  0  0  # atno 7974 bound_to 7965
  154.4064  140.1619  156.2447 H   0  0  0  0  0  0  0  0  0  0  0  0  # atno 8008 bound_to 7997
  155.9170  140.3423  155.6121 H   0  0  0  0  0  0  0  0  0  0  0  0  # atno 8009 bound_to 7997
  155.7267  140.0775  157.2297 H   0  0  0  0  0  0  0  0  0  0  0  0  # atno 8010 bound_to 7997
  140.3517  143.2887  151.9718 H   0  0  0  0  0  0  0  0  0  0  0  0  # atno 10167 bound_to 10162
  156.6188  130.4869  149.6173 H   0  0  0  0  0  0  0  0  0  0  0  0  # atno 10718 bound_to 10713
  154.0204  135.2906  155.3381 H   0  0  0  0  0  0  0  0  0  0  0  0  # atno 10763 bound_to 10752
  154.7049  135.5173  153.8584 H   0  0  0  0  0  0  0  0  0  0  0  0  # atno 10764 bound_to 10752
  153.0683  135.6639  154.0427 H   0  0  0  0  0  0  0  0  0  0  0  0  # atno 10765 bound_to 10752
  140.3724  134.7018  157.4400 H   0  0  0  0  0  0  0  0  0  0  0  0  # atno 11005 bound_to 11000
  145.5240  139.1476  143.3536 LP  0  0  0  0  0  0  0  0  0  0  0  0  # atno 17320 bound_to 7965
  146.2450  140.5380  142.8917 LP  0  0  0  0  0  0  0  0  0  0  0  0  # atno 17321 bound_to 7965
  139.4825  144.6070  151.7503 LP  0  0  0  0  0  0  0  0  0  0  0  0  # atno 17342 bound_to 10162
  140.5212  144.0876  150.6023 LP  0  0  0  0  0  0  0  0  0  0  0  0  # atno 17343 bound_to 10162
  156.2329  130.6805  151.1481 LP  0  0  0  0  0  0  0  0  0  0  0  0  # atno 17370 bound_to 10713
  157.7233  131.0667  150.6040 LP  0  0  0  0  0  0  0  0  0  0  0  0  # atno 17371 bound_to 10713
  140.0541  134.6088  155.8826 LP  0  0  0  0  0  0  0  0  0  0  0  0  # atno 17394 bound_to 11000
  141.1950  133.6585  156.5623 LP  0  0  0  0  0  0  0  0  0  0  0  0  # atno 17395 bound_to 11000

$$$$
