AV-unprocessed.smi:1203|AV-procd|sdf|5036|dock4
  -GOLD-   22720 4 63D 1   1.00000     0.00000
 Structure written by MMmdl.
 40 41  0  0  0  0  0  0  0  0  2 V2000
  150.2775  136.8715  157.4378 C   0  0  0  0  0  0  0  0  0  0  0  0
  150.0702  136.7560  155.6127 S   0  0  0  0  0  0  0  0  0  0  0  0
  151.4088  136.7543  155.0035 O   0  0  0  0  0  0  0  0  0  0  0  0
  149.1225  135.6718  155.3119 O   0  0  0  0  0  0  0  0  0  0  0  0
  149.3146  138.2622  155.2002 N   0  0  0  0  0  0  0  0  0  0  0  0
  148.6554  138.4804  153.9151 C   0  0  0  0  0  0  0  0  0  0  0  0
  147.9417  139.8188  154.0834 C   0  0  0  0  0  0  0  0  0  0  0  0
  148.8314  140.5907  155.0543 C   0  0  0  0  0  0  0  0  0  0  0  0
  149.4541  139.5125  155.9669 C   0  0  2  0  0  0  0  0  0  0  0  0
  150.8876  139.8729  156.3841 C   0  0  0  0  0  0  0  0  0  0  0  0
  151.7680  140.0172  155.5351 O   0  0  0  0  0  0  0  0  0  0  0  0
  151.1066  140.0169  157.7008 N   0  0  0  0  0  0  0  0  0  0  0  0
  152.3825  140.3723  158.3172 C   0  0  0  0  0  0  0  0  0  0  0  0
  152.2041  141.2439  159.5761 C   0  0  0  0  0  0  0  0  0  0  0  0
  151.8223  142.6829  159.2733 C   0  0  0  0  0  0  0  0  0  0  0  0
  152.0174  143.6949  160.2392 C   0  0  0  0  0  0  0  0  0  0  0  0
  151.6844  145.0280  159.9212 C   0  0  0  0  0  0  0  0  0  0  0  0
  151.1608  145.3188  158.6450 C   0  0  0  0  0  0  0  0  0  0  0  0
  150.9836  144.3241  157.7480 N   0  3  0  0  0  0  0  0  0  0  0  0
  151.2901  143.0354  158.0137 C   0  0  0  0  0  0  0  0  0  0  0  0
  150.8185  135.9950  157.7932 H   0  0  0  0  0  0  0  0  0  0  0  0
  149.3052  136.9087  157.9252 H   0  0  0  0  0  0  0  0  0  0  0  0
  150.8449  137.7682  157.6854 H   0  0  0  0  0  0  0  0  0  0  0  0
  149.4108  138.5320  153.1304 H   0  0  0  0  0  0  0  0  0  0  0  0
  147.9631  137.6706  153.6832 H   0  0  0  0  0  0  0  0  0  0  0  0
  147.7935  140.3404  153.1376 H   0  0  0  0  0  0  0  0  0  0  0  0
  146.9614  139.6565  154.5337 H   0  0  0  0  0  0  0  0  0  0  0  0
  149.5867  141.1344  154.4846 H   0  0  0  0  0  0  0  0  0  0  0  0
  148.2630  141.3284  155.6214 H   0  0  0  0  0  0  0  0  0  0  0  0
  148.8365  139.4105  156.8607 H   0  0  0  0  0  0  0  0  0  0  0  0
  150.3295  139.8590  158.3264 H   0  0  0  0  0  0  0  0  0  0  0  0
  152.8952  139.4485  158.5854 H   0  0  0  0  0  0  0  0  0  0  0  0
  153.0286  140.8768  157.5969 H   0  0  0  0  0  0  0  0  0  0  0  0
  151.4444  140.8016  160.2221 H   0  0  0  0  0  0  0  0  0  0  0  0
  153.1286  141.2434  160.1546 H   0  0  0  0  0  0  0  0  0  0  0  0
  152.4289  143.4552  161.2090 H   0  0  0  0  0  0  0  0  0  0  0  0
  151.8319  145.8163  160.6450 H   0  0  0  0  0  0  0  0  0  0  0  0
  150.8805  146.3092  158.3171 H   0  0  0  0  0  0  0  0  0  0  0  0
  151.1123  142.3334  157.2119 H   0  0  0  0  0  0  0  0  0  0  0  0
  150.6033  144.5562  156.8301 H   0  0  0  0  0  0  0  0  0  0  0  0
  1  2  1  0  0  0  0
  1 21  1  0  0  0  0
  1 22  1  0  0  0  0
  1 23  1  0  0  0  0
  2  3  2  0  0  0  0
  2  4  2  0  0  0  0
  2  5  1  0  0  0  0
  5  9  1  0  0  0  0
  5  6  1  0  0  0  0
  6  7  1  0  0  0  0
  6 24  1  0  0  0  0
  6 25  1  0  0  0  0
  7  8  1  0  0  0  0
  7 26  1  0  0  0  0
  7 27  1  0  0  0  0
  8  9  1  0  0  0  0
  8 28  1  0  0  0  0
  8 29  1  0  0  0  0
  9 10  1  0  0  0  0
  9 30  1  0  0  0  0
 10 11  2  0  0  0  0
 10 12  1  0  0  0  0
 12 13  1  0  0  0  0
 12 31  1  0  0  0  0
 13 14  1  0  0  0  0
 13 32  1  0  0  0  0
 13 33  1  0  0  0  0
 14 15  1  0  0  0  0
 14 34  1  0  0  0  0
 14 35  1  0  0  0  0
 15 20  1  0  0  0  0
 15 16  2  0  0  0  0
 16 17  1  0  0  0  0
 16 36  1  0  0  0  0
 17 18  2  0  0  0  0
 17 37  1  0  0  0  0
 18 19  1  0  0  0  0
 18 38  1  0  0  0  0
 19 20  2  0  0  0  0
 19 40  1  0  0  0  0
 20 39  1  0  0  0  0
M  CHG  1  19   1
M  END
> <s_m_source_file>
AV-unprocessed.smi

> <i_m_source_file_index>
1203

> <i_lp_mmshare_version>
43012

> <i_f3d_flags>
0

> <s_epik_input>
W0NIM11TKD1PKSg9TylOMVtDSDJdW0NIMl1bQ0gyXVtDQEhdMUMoPU8pW05IXVtDSDJdW0NIMl1jMltjSF1bY0hdW2NIXW5bY0hdMg==

> <s_epik_cmdline>
J2VwaWtfcHl0aG9uJywgJy1waCcsICc3LjAnLCAnLXRuJywgJzgnLCAnLW1hJywgJzIwMCcsICctbWV0YWxfYmluZGluZycsICctaW1hZScsICc8aW5maWxlLm1hZT4nLCAnLW9tYWUnLCAnPG91dGZpbGUubWFlPic=

> <r_epik_Ionization_Penalty>
2.2835

> <r_epik_Ionization_Penalty_Charging>
2.2835

> <r_epik_Ionization_Penalty_Neutral>
1.4017e-07

> <r_epik_State_Penalty>
2.43297

> <r_epik_Charging_Adjusted_Penalty>
4.71647

> <i_epik_Tot_Q>
1

> <i_epik_Tot_abs_Q>
1

> <r_epik_Metal_State_Penalty>
2.44558

> <b_epik_Metal_Only>
0

> <s_lp_Force_Field>
OPLS_2005

> <r_lp_Energy>
15.5637

> <b_lp_Chiralities_Consistent>
1

> <s_lp_Variant>
AV-unprocessed.smi:1203-4

> <Gold.Version>
5.8.1

> <Gold.Id.Protein>
6NUR|6NUR_protein|mol2

> <Gold.PLP.Fitness>
42.9410

> <Gold.PLP.PLP>
-32.5774

> <Gold.PLP.part.hbond>
-3.0000

> <Gold.PLP.part.metal>
0.0000

> <Gold.PLP.part.buried>
-3.9564

> <Gold.PLP.part.nonpolar>
-26.1018

> <Gold.PLP.part.repulsive>
0.4179

> <Gold.PLP.ligand.clash>
0.0000

> <Gold.PLP.ligand.torsion>
1.6970

> <Gold.PLP.Chemscore.Hbond>
3.8960

> <Gold.PLP.Chemscore.CHOScore>
0.0000

> <Gold.PLP.Chemscore.Metal>
0.0000

> <Gold.Chemscore.Hbonds>
donor molecule, donor type, donor heavy atom, donor atom, acceptor molecule, acceptor atom, score
      L1  H    19    40       P1  8028  1.78
      P1  H  7989  7998       L1    11  0.51
      P1  H 10752 10763       L1     3  1.00

> <Gold.PLP.Chemscore.Internal.Correction>
2.0695

> <Gold.Rescore>
     Score         DG    S(hbond)    S(metal)    S(lipo)     H(rot)  DE(clash)    DE(int)     intcor
     18.40     -21.15       2.80        0.00      91.23       1.70       0.19       2.56       ----

> <Gold.Chemscore.Fitness>
18.3993

> <Gold.Chemscore.DG>
-21.1506

> <Gold.Chemscore.ZeroCoef>
-5.4800

> <Gold.Chemscore.Hbond>
2.8001

> <Gold.Chemscore.Metal>
0.0000

> <Gold.Chemscore.Lipo>
91.2267

> <Gold.Chemscore.Internal_Hbond>
0.0000

> <Gold.Chemscore.DEClash>
0.1907

> <Gold.Chemscore.DEInternal>
2.5605

> <Gold.Chemscore.Rot>
1.7012

> <Gold.Chemscore.Internal.Correction>
   9.000000E+99

> <Gold.Chemscore.Hbonds>
donor molecule, donor type, donor heavy atom, donor atom, acceptor molecule, acceptor atom, score
      L1  H    19    40       P1  8028  0.74
      P1  H  7989  7998       L1    11  0.50
      P1  H 10752 10763       L1     3  0.99

> <Gold.Chemscore.Hbond.Weighted>
-9.3522

> <Gold.Chemscore.Metal.Weighted>
-0.0000

> <Gold.Chemscore.Lipo.Weighted>
-10.6735

> <Gold.Chemscore.Internal_Hbond.Weighted>
0.0000

> <Gold.Chemscore.DEClash.Weighted>
0.1907

> <Gold.Chemscore.DEInternal.Weighted>
2.5605

> <Gold.Chemscore.Rot.Weighted>
4.3551

> <Gold.Chemscore.Internal.Correction.Weighted>
   9.000000E+99

> <Gold.Protein.RotatedTorsions>
[ 6907 6896 6895 6894 ] final -160.18 input  -60.11 | X-H torsion
[ 7974 7965 7964 7962 ] final   -9.90 input  175.53 | X-H torsion
[ 8008 7997 7996 7995 ] final   29.27 input   59.86 | X-H torsion
[ 10167 10162 10161 10158 ] final  -73.51 input  -65.29 | X-H torsion
[ 10718 10713 10712 10709 ] final  144.02 input   66.30 | X-H torsion
[ 10763 10752 10751 10750 ] final   61.40 input  -60.55 | X-H torsion
[ 11005 11000 10999 10996 ] final   56.46 input  -57.11 | X-H torsion

> <Gold.Protein.ActiveResidues>
 VAL166  LYS551  ARG553  GLY616  TRP617  ASP618  TYR619  PRO620  LYS621  CYS622 
 ASP623  PHE694  ASN695  SER759  ASP760  ASP761  ALA762  ILE779  LEU786  VAL792 
 PHE793  MET794  SER795  GLU796  ALA797  LYS798  CYS799  TRP800  GLU811  SER814 

> <Gold.Protein.RotatedAtoms>
  151.3450  133.3947  159.2674 H   0  0  0  0  0  0  0  0  0  0  0  0  # atno 6907 bound_to 6896
  150.9847  134.9196  159.7875 H   0  0  0  0  0  0  0  0  0  0  0  0  # atno 6908 bound_to 6896
  152.5228  134.3414  159.9271 H   0  0  0  0  0  0  0  0  0  0  0  0  # atno 6909 bound_to 6896
  146.2237  140.2685  142.8355 H   0  0  0  0  0  0  0  0  0  0  0  0  # atno 7974 bound_to 7965
  155.0719  140.3201  155.4628 H   0  0  0  0  0  0  0  0  0  0  0  0  # atno 8008 bound_to 7997
  156.2788  140.2110  156.5792 H   0  0  0  0  0  0  0  0  0  0  0  0  # atno 8009 bound_to 7997
  154.7048  140.0503  157.0480 H   0  0  0  0  0  0  0  0  0  0  0  0  # atno 8010 bound_to 7997
  140.5104  143.2346  151.7602 H   0  0  0  0  0  0  0  0  0  0  0  0  # atno 10167 bound_to 10162
  157.3621  131.0966  151.0906 H   0  0  0  0  0  0  0  0  0  0  0  0  # atno 10718 bound_to 10713
  152.9949  135.5502  154.6028 H   0  0  0  0  0  0  0  0  0  0  0  0  # atno 10763 bound_to 10752
  154.5366  135.2817  155.1135 H   0  0  0  0  0  0  0  0  0  0  0  0  # atno 10764 bound_to 10752
  154.2429  135.6413  153.5266 H   0  0  0  0  0  0  0  0  0  0  0  0  # atno 10765 bound_to 10752
  140.0528  134.5713  155.9244 H   0  0  0  0  0  0  0  0  0  0  0  0  # atno 11005 bound_to 11000
  144.9286  140.7949  143.5703 LP  0  0  0  0  0  0  0  0  0  0  0  0  # atno 17320 bound_to 7965
  145.2626  139.1986  143.4884 LP  0  0  0  0  0  0  0  0  0  0  0  0  # atno 17321 bound_to 7965
  139.4894  144.4398  151.9777 LP  0  0  0  0  0  0  0  0  0  0  0  0  # atno 17342 bound_to 10162
  140.3490  144.3112  150.5953 LP  0  0  0  0  0  0  0  0  0  0  0  0  # atno 17343 bound_to 10162
  157.2042  130.6408  149.5750 LP  0  0  0  0  0  0  0  0  0  0  0  0  # atno 17370 bound_to 10713
  155.9739  130.4681  150.6348 LP  0  0  0  0  0  0  0  0  0  0  0  0  # atno 17371 bound_to 10713
  141.1938  133.6580  156.5565 LP  0  0  0  0  0  0  0  0  0  0  0  0  # atno 17394 bound_to 11000
  140.3891  134.7456  157.4710 LP  0  0  0  0  0  0  0  0  0  0  0  0  # atno 17395 bound_to 11000

$$$$
