AV-unprocessed.smi:2388|AV-procd|sdf|9471|dock5
  -GOLD-   2272013103D 1   1.00000     0.00000
 Structure written by MMmdl.
 43 44  0  0  0  0  0  0  0  0  1 V2000
  153.6972  141.0726  160.0303 C   0  0  0  0  0  0  0  0  0  0  0  0
  152.9085  142.2465  159.4896 C   0  0  0  0  0  0  0  0  0  0  0  0
  153.0499  143.5329  160.0459 C   0  0  0  0  0  0  0  0  0  0  0  0
  152.2929  144.5811  159.4925 C   0  0  0  0  0  0  0  0  0  0  0  0
  151.4317  144.3018  158.4138 C   0  0  0  0  0  0  0  0  0  0  0  0
  151.3457  142.9818  157.9167 C   0  0  0  0  0  0  0  0  0  0  0  0
  150.4475  142.8050  156.8310 N   0  0  0  0  0  0  0  0  0  0  0  0
  150.1581  141.6716  156.1674 C   0  0  0  0  0  0  0  0  0  0  0  0
  150.6376  140.5634  156.4084 O   0  0  0  0  0  0  0  0  0  0  0  0
  149.2622  141.8971  155.1960 N   0  0  0  0  0  0  0  0  0  0  0  0
  148.7217  140.8853  154.2953 C   0  0  0  0  0  0  0  0  0  0  0  0
  147.1852  140.8525  154.3875 C   0  0  0  0  0  0  0  0  0  0  0  0
  146.5312  142.2457  154.3881 C   0  0  0  0  0  0  0  0  0  0  0  0
  147.1109  143.1773  153.8273 O   0  0  0  0  0  0  0  0  0  0  0  0
  145.3381  142.4104  155.0106 N   0  0  0  0  0  0  0  0  0  0  0  0
  144.6096  141.3704  155.7504 C   0  0  0  0  0  0  0  0  0  0  0  0
  144.6963  141.6835  157.2554 C   0  0  0  0  0  0  0  0  0  0  0  0
  144.1550  143.0948  157.5551 C   0  0  0  0  0  0  0  0  0  0  0  0
  144.7823  144.1556  156.6305 C   0  0  0  0  0  0  0  0  0  0  0  0
  144.6946  143.7229  155.1551 C   0  0  0  0  0  0  0  0  0  0  0  0
  152.0816  141.9781  158.4561 N   0  0  0  0  0  0  0  0  0  0  0  0
  154.2395  141.3441  160.9364 H   0  0  0  0  0  0  0  0  0  0  0  0
  154.4202  140.7307  159.2891 H   0  0  0  0  0  0  0  0  0  0  0  0
  153.0310  140.2429  160.2689 H   0  0  0  0  0  0  0  0  0  0  0  0
  153.7200  143.7149  160.8730 H   0  0  0  0  0  0  0  0  0  0  0  0
  152.3708  145.5831  159.8877 H   0  0  0  0  0  0  0  0  0  0  0  0
  150.8434  145.0961  157.9776 H   0  0  0  0  0  0  0  0  0  0  0  0
  149.9634  143.6372  156.5289 H   0  0  0  0  0  0  0  0  0  0  0  0
  148.9221  142.8398  155.0744 H   0  0  0  0  0  0  0  0  0  0  0  0
  149.0239  141.0794  153.2643 H   0  0  0  0  0  0  0  0  0  0  0  0
  149.1448  139.9200  154.5766 H   0  0  0  0  0  0  0  0  0  0  0  0
  146.7836  140.2818  153.5491 H   0  0  0  0  0  0  0  0  0  0  0  0
  146.9027  140.3303  155.3029 H   0  0  0  0  0  0  0  0  0  0  0  0
  143.5663  141.3697  155.4317 H   0  0  0  0  0  0  0  0  0  0  0  0
  144.9676  140.3606  155.5569 H   0  0  0  0  0  0  0  0  0  0  0  0
  144.1382  140.9416  157.8269 H   0  0  0  0  0  0  0  0  0  0  0  0
  145.7344  141.6122  157.5830 H   0  0  0  0  0  0  0  0  0  0  0  0
  143.0732  143.0976  157.4159 H   0  0  0  0  0  0  0  0  0  0  0  0
  144.3316  143.3532  158.5996 H   0  0  0  0  0  0  0  0  0  0  0  0
  144.2849  145.1155  156.7713 H   0  0  0  0  0  0  0  0  0  0  0  0
  145.8280  144.3055  156.9030 H   0  0  0  0  0  0  0  0  0  0  0  0
  145.1397  144.4871  154.5169 H   0  0  0  0  0  0  0  0  0  0  0  0
  143.6506  143.6511  154.8465 H   0  0  0  0  0  0  0  0  0  0  0  0
  1  2  1  0  0  0  0
  1 22  1  0  0  0  0
  1 23  1  0  0  0  0
  1 24  1  0  0  0  0
  2 21  1  0  0  0  0
  2  3  2  0  0  0  0
  3  4  1  0  0  0  0
  3 25  1  0  0  0  0
  4  5  2  0  0  0  0
  4 26  1  0  0  0  0
  5  6  1  0  0  0  0
  5 27  1  0  0  0  0
  6  7  1  0  0  0  0
  6 21  2  0  0  0  0
  7  8  1  0  0  0  0
  7 28  1  0  0  0  0
  8  9  2  0  0  0  0
  8 10  1  0  0  0  0
 10 11  1  0  0  0  0
 10 29  1  0  0  0  0
 11 12  1  0  0  0  0
 11 30  1  0  0  0  0
 11 31  1  0  0  0  0
 12 13  1  0  0  0  0
 12 32  1  0  0  0  0
 12 33  1  0  0  0  0
 13 14  2  0  0  0  0
 13 15  1  0  0  0  0
 15 20  1  0  0  0  0
 15 16  1  0  0  0  0
 16 17  1  0  0  0  0
 16 34  1  0  0  0  0
 16 35  1  0  0  0  0
 17 18  1  0  0  0  0
 17 36  1  0  0  0  0
 17 37  1  0  0  0  0
 18 19  1  0  0  0  0
 18 38  1  0  0  0  0
 18 39  1  0  0  0  0
 19 20  1  0  0  0  0
 19 40  1  0  0  0  0
 19 41  1  0  0  0  0
 20 42  1  0  0  0  0
 20 43  1  0  0  0  0
M  END
> <s_m_source_file>
AV-unprocessed.smi

> <i_m_source_file_index>
2388

> <i_lp_mmshare_version>
43012

> <i_f3d_flags>
0

> <s_epik_input>
W0NIM11jMVtjSF1bY0hdW2NIXWMobjEpW05IXUMoPU8pW05IXVtDSDJdW0NIMl1DKD1PKU4yW0NIMl1bQ0gyXVtDSDJdW0NIMl1bQ0gyXTI=

> <s_epik_cmdline>
J2VwaWtfcHl0aG9uJywgJy1waCcsICc3LjAnLCAnLXRuJywgJzgnLCAnLW1hJywgJzIwMCcsICctbWV0YWxfYmluZGluZycsICctaW1hZScsICc8aW5maWxlLm1hZT4nLCAnLW9tYWUnLCAnPG91dGZpbGUubWFlPic=

> <r_lp_tautomer_probability>
1

> <r_epik_Ionization_Penalty>
7.16628e-05

> <r_epik_Ionization_Penalty_Charging>
0

> <r_epik_Ionization_Penalty_Neutral>
7.16628e-05

> <r_epik_State_Penalty>
-0

> <r_epik_Charging_Adjusted_Penalty>
0

> <i_epik_Tot_Q>
0

> <i_epik_Tot_abs_Q>
0

> <r_epik_Metal_State_Penalty>
-0

> <b_epik_Metal_Only>
0

> <s_lp_Force_Field>
OPLS_2005

> <r_lp_Energy>
26.3076

> <b_lp_Chiralities_Consistent>
1

> <s_lp_Variant>
AV-unprocessed.smi:2388-1

> <Gold.Version>
5.8.1

> <Gold.Id.Protein>
6NUR|6NUR_protein|mol2

> <Gold.PLP.Fitness>
45.7109

> <Gold.PLP.PLP>
-39.3870

> <Gold.PLP.part.hbond>
-3.3460

> <Gold.PLP.part.metal>
0.0000

> <Gold.PLP.part.buried>
-4.7644

> <Gold.PLP.part.nonpolar>
-34.3900

> <Gold.PLP.part.repulsive>
1.7526

> <Gold.PLP.ligand.clash>
0.0000

> <Gold.PLP.ligand.torsion>
0.4412

> <Gold.PLP.Chemscore.Hbond>
2.3931

> <Gold.PLP.Chemscore.CHOScore>
0.0000

> <Gold.PLP.Chemscore.Metal>
0.0000

> <Gold.Chemscore.Hbonds>
donor molecule, donor type, donor heavy atom, donor atom, acceptor molecule, acceptor atom, score
      L1  H     7    28       P1  8028  1.00
      L1  H    10    29       P1  8028  1.00
      P1  H  8022  8030       L1    14  0.29

> <Gold.PLP.Chemscore.Internal.Correction>
0.0270

> <Gold.Rescore>
     Score         DG    S(hbond)    S(metal)    S(lipo)     H(rot)  DE(clash)    DE(int)     intcor
     14.85     -19.52       2.48        0.00      82.27       1.51       1.59       3.08       ----

> <Gold.Chemscore.Fitness>
14.8522

> <Gold.Chemscore.DG>
-19.5228

> <Gold.Chemscore.ZeroCoef>
-5.4800

> <Gold.Chemscore.Hbond>
2.4824

> <Gold.Chemscore.Metal>
0.0000

> <Gold.Chemscore.Lipo>
82.2663

> <Gold.Chemscore.Internal_Hbond>
0.0000

> <Gold.Chemscore.DEClash>
1.5865

> <Gold.Chemscore.DEInternal>
3.0841

> <Gold.Chemscore.Rot>
1.5131

> <Gold.Chemscore.Internal.Correction>
   9.000000E+99

> <Gold.Chemscore.Hbonds>
donor molecule, donor type, donor heavy atom, donor atom, acceptor molecule, acceptor atom, score
      L1  H     7    28       P1  8028  1.00
      L1  H    10    29       P1  8028  0.94
      P1  H  8022  8030       L1    14  0.30

> <Gold.Chemscore.Hbond.Weighted>
-8.2912

> <Gold.Chemscore.Metal.Weighted>
-0.0000

> <Gold.Chemscore.Lipo.Weighted>
-9.6252

> <Gold.Chemscore.Internal_Hbond.Weighted>
0.0000

> <Gold.Chemscore.DEClash.Weighted>
1.5865

> <Gold.Chemscore.DEInternal.Weighted>
3.0841

> <Gold.Chemscore.Rot.Weighted>
3.8735

> <Gold.Chemscore.Internal.Correction.Weighted>
   9.000000E+99

> <Gold.Protein.RotatedTorsions>
[ 6907 6896 6895 6894 ] final   18.31 input  -60.11 | X-H torsion
[ 7974 7965 7964 7962 ] final  -75.74 input  175.53 | X-H torsion
[ 8008 7997 7996 7995 ] final   19.27 input   59.86 | X-H torsion
[ 10167 10162 10161 10158 ] final   38.15 input  -65.29 | X-H torsion
[ 10718 10713 10712 10709 ] final    8.82 input   66.30 | X-H torsion
[ 10763 10752 10751 10750 ] final -165.47 input  -60.55 | X-H torsion
[ 11005 11000 10999 10996 ] final  -52.69 input  -57.11 | X-H torsion

> <Gold.Protein.ActiveResidues>
 VAL166  LYS551  ARG553  GLY616  TRP617  ASP618  TYR619  PRO620  LYS621  CYS622 
 ASP623  PHE694  ASN695  SER759  ASP760  ASP761  ALA762  ILE779  LEU786  VAL792 
 PHE793  MET794  SER795  GLU796  ALA797  LYS798  CYS799  TRP800  GLU811  SER814 

> <Gold.Protein.RotatedAtoms>
  151.8633  135.0516  160.0471 H   0  0  0  0  0  0  0  0  0  0  0  0  # atno 6907 bound_to 6896
  152.2645  133.5323  159.5410 H   0  0  0  0  0  0  0  0  0  0  0  0  # atno 6908 bound_to 6896
  150.7129  134.0699  159.3903 H   0  0  0  0  0  0  0  0  0  0  0  0  # atno 6909 bound_to 6896
  145.6221  140.9360  143.1132 H   0  0  0  0  0  0  0  0  0  0  0  0  # atno 7974 bound_to 7965
  154.9183  140.3024  155.5229 H   0  0  0  0  0  0  0  0  0  0  0  0  # atno 8008 bound_to 7997
  156.3011  140.2376  156.4166 H   0  0  0  0  0  0  0  0  0  0  0  0  # atno 8009 bound_to 7997
  154.8356  140.0416  157.1495 H   0  0  0  0  0  0  0  0  0  0  0  0  # atno 8010 bound_to 7997
  140.3964  144.1783  150.6132 H   0  0  0  0  0  0  0  0  0  0  0  0  # atno 10167 bound_to 10162
  156.9572  130.5919  149.5660 H   0  0  0  0  0  0  0  0  0  0  0  0  # atno 10718 bound_to 10713
  154.6928  135.2974  154.9454 H   0  0  0  0  0  0  0  0  0  0  0  0  # atno 10763 bound_to 10752
  154.0412  135.6657  153.4794 H   0  0  0  0  0  0  0  0  0  0  0  0  # atno 10764 bound_to 10752
  153.0624  135.5107  154.8030 H   0  0  0  0  0  0  0  0  0  0  0  0  # atno 10765 bound_to 10752
  141.0937  133.6628  156.4061 H   0  0  0  0  0  0  0  0  0  0  0  0  # atno 11005 bound_to 11000
  144.7227  139.7977  143.7376 LP  0  0  0  0  0  0  0  0  0  0  0  0  # atno 17320 bound_to 7965
  146.1423  139.4483  143.0101 LP  0  0  0  0  0  0  0  0  0  0  0  0  # atno 17321 bound_to 7965
  140.4786  143.2387  151.8987 LP  0  0  0  0  0  0  0  0  0  0  0  0  # atno 17342 bound_to 10162
  139.4786  144.5293  151.8689 LP  0  0  0  0  0  0  0  0  0  0  0  0  # atno 17343 bound_to 10162
  156.0337  130.5427  150.8600 LP  0  0  0  0  0  0  0  0  0  0  0  0  # atno 17370 bound_to 10713
  157.5682  131.0946  150.9458 LP  0  0  0  0  0  0  0  0  0  0  0  0  # atno 17371 bound_to 10713
  140.5191  134.6321  157.5312 LP  0  0  0  0  0  0  0  0  0  0  0  0  # atno 17394 bound_to 11000
  139.9769  134.7201  155.9933 LP  0  0  0  0  0  0  0  0  0  0  0  0  # atno 17395 bound_to 11000

$$$$
