AV-unprocessed.smi:1640|AV-procd|sdf|6555|dock7
  -GOLD-   22720 7243D 1   1.00000     0.00000
 Structure written by MMmdl.
 46 47  0  0  0  0  0  0  0  0  2 V2000
  151.9926  144.1594  159.0718 C   0  0  0  0  0  0  0  0  0  0  0  0
  152.3278  143.1212  160.1561 C   0  0  0  0  0  0  0  0  0  0  0  0
  152.3454  143.7824  161.5426 C   0  0  0  0  0  0  0  0  0  0  0  0
  153.6598  142.3945  159.8814 C   0  0  0  0  0  0  0  0  0  0  0  0
  154.0806  141.4217  160.9967 C   0  0  0  0  0  0  0  0  0  0  0  0
  155.3527  140.2174  160.4169 S   0  0  0  0  0  0  0  0  0  0  0  0
  154.7839  139.5331  159.2443 O   0  0  0  0  0  0  0  0  0  0  0  0
  156.5770  141.0076  160.2083 O   0  0  0  0  0  0  0  0  0  0  0  0
  155.4573  139.2485  161.7115 N   0  5  0  0  0  0  0  0  0  0  0  0
  154.3516  138.3621  162.0270 C   0  0  0  0  0  0  0  0  0  0  0  0
  154.8422  136.9491  162.3778 C   0  0  0  0  0  0  0  0  0  0  0  0
  154.9487  136.5988  163.7458 C   0  0  0  0  0  0  0  0  0  0  0  0
  155.3779  135.3086  164.1046 C   0  0  0  0  0  0  0  0  0  0  0  0
  155.6898  134.4018  163.0789 C   0  0  0  0  0  0  0  0  0  0  0  0
  155.6005  134.7103  161.7706 N   0  0  0  0  0  0  0  0  0  0  0  0
  155.1886  135.9514  161.4075 C   0  0  0  0  0  0  0  0  0  0  0  0
  155.1534  136.1920  160.0167 N   0  0  0  0  0  0  0  0  0  0  0  0
  155.6376  135.0718  159.2202 C   0  0  0  0  0  0  0  0  0  0  0  0
  155.7935  135.5059  157.7532 C   0  0  0  0  0  0  0  0  0  0  0  0
  154.5540  136.0216  157.2730 O   0  0  0  0  0  0  0  0  0  0  0  0
  154.1239  137.1601  158.0152 C   0  0  0  0  0  0  0  0  0  0  0  0
  153.9226  136.7692  159.4896 C   0  0  0  0  0  0  0  0  0  0  0  0
  152.7838  144.9039  158.9793 H   0  0  0  0  0  0  0  0  0  0  0  0
  151.0675  144.6861  159.3073 H   0  0  0  0  0  0  0  0  0  0  0  0
  151.8557  143.6942  158.0961 H   0  0  0  0  0  0  0  0  0  0  0  0
  151.5317  142.3757  160.1646 H   0  0  0  0  0  0  0  0  0  0  0  0
  153.1167  144.5508  161.6050 H   0  0  0  0  0  0  0  0  0  0  0  0
  152.5412  143.0500  162.3263 H   0  0  0  0  0  0  0  0  0  0  0  0
  151.3875  144.2524  161.7672 H   0  0  0  0  0  0  0  0  0  0  0  0
  153.5991  141.8617  158.9317 H   0  0  0  0  0  0  0  0  0  0  0  0
  154.4455  143.1404  159.7584 H   0  0  0  0  0  0  0  0  0  0  0  0
  154.5158  141.9782  161.8265 H   0  0  0  0  0  0  0  0  0  0  0  0
  153.2379  140.8540  161.3895 H   0  0  0  0  0  0  0  0  0  0  0  0
  153.7549  138.7464  162.8549 H   0  0  0  0  0  0  0  0  0  0  0  0
  153.6543  138.2658  161.1940 H   0  0  0  0  0  0  0  0  0  0  0  0
  154.7062  137.2992  164.5340 H   0  0  0  0  0  0  0  0  0  0  0  0
  155.4646  135.0226  165.1422 H   0  0  0  0  0  0  0  0  0  0  0  0
  156.0218  133.4015  163.3142 H   0  0  0  0  0  0  0  0  0  0  0  0
  156.5919  134.7144  159.6076 H   0  0  0  0  0  0  0  0  0  0  0  0
  154.9316  134.2436  159.2931 H   0  0  0  0  0  0  0  0  0  0  0  0
  156.5762  136.2594  157.6528 H   0  0  0  0  0  0  0  0  0  0  0  0
  156.0890  134.6556  157.1387 H   0  0  0  0  0  0  0  0  0  0  0  0
  154.8554  137.9645  157.9228 H   0  0  0  0  0  0  0  0  0  0  0  0
  153.1890  137.5283  157.5928 H   0  0  0  0  0  0  0  0  0  0  0  0
  153.1084  136.0477  159.5709 H   0  0  0  0  0  0  0  0  0  0  0  0
  153.6435  137.6444  160.0773 H   0  0  0  0  0  0  0  0  0  0  0  0
  1  2  1  0  0  0  0
  1 23  1  0  0  0  0
  1 24  1  0  0  0  0
  1 25  1  0  0  0  0
  2  3  1  0  0  0  0
  2  4  1  0  0  0  0
  2 26  1  0  0  0  0
  3 27  1  0  0  0  0
  3 28  1  0  0  0  0
  3 29  1  0  0  0  0
  4  5  1  0  0  0  0
  4 30  1  0  0  0  0
  4 31  1  0  0  0  0
  5  6  1  0  0  0  0
  5 32  1  0  0  0  0
  5 33  1  0  0  0  0
  6  7  2  0  0  0  0
  6  8  2  0  0  0  0
  6  9  1  0  0  0  0
  9 10  1  0  0  0  0
 10 11  1  0  0  0  0
 10 34  1  0  0  0  0
 10 35  1  0  0  0  0
 11 16  1  0  0  0  0
 11 12  2  0  0  0  0
 12 13  1  0  0  0  0
 12 36  1  0  0  0  0
 13 14  2  0  0  0  0
 13 37  1  0  0  0  0
 14 15  1  0  0  0  0
 14 38  1  0  0  0  0
 15 16  2  0  0  0  0
 16 17  1  0  0  0  0
 17 22  1  0  0  0  0
 17 18  1  0  0  0  0
 18 19  1  0  0  0  0
 18 39  1  0  0  0  0
 18 40  1  0  0  0  0
 19 20  1  0  0  0  0
 19 41  1  0  0  0  0
 19 42  1  0  0  0  0
 20 21  1  0  0  0  0
 21 22  1  0  0  0  0
 21 43  1  0  0  0  0
 21 44  1  0  0  0  0
 22 45  1  0  0  0  0
 22 46  1  0  0  0  0
M  CHG  1   9  -1
M  END
> <s_m_source_file>
AV-unprocessed.smi

> <i_m_source_file_index>
1640

> <i_lp_mmshare_version>
43012

> <i_f3d_flags>
0

> <s_epik_input>
W0NIM11bQ0hdKFtDSDNdKVtDSDJdW0NIMl1TKD1PKSg9TylbTkhdW0NIMl1jMVtjSF1bY0hdW2NIXW5jMU4yW0NIMl1bQ0gyXU9bQ0gyXVtDSDJdMg==

> <s_epik_cmdline>
J2VwaWtfcHl0aG9uJywgJy1waCcsICc3LjAnLCAnLXRuJywgJzgnLCAnLW1hJywgJzIwMCcsICctbWV0YWxfYmluZGluZycsICctaW1hZScsICc8aW5maWxlLm1hZT4nLCAnLW9tYWUnLCAnPG91dGZpbGUubWFlPic=

> <r_lp_tautomer_probability>
1

> <r_epik_Ionization_Penalty>
6.15599

> <r_epik_Ionization_Penalty_Charging>
6.0779

> <r_epik_Ionization_Penalty_Neutral>
0.078089

> <r_epik_State_Penalty>
6.0833

> <r_epik_Charging_Adjusted_Penalty>
12.1612

> <i_epik_Tot_Q>
-1

> <i_epik_Tot_abs_Q>
1

> <r_epik_Metal_State_Penalty>
2.0323

> <b_epik_Metal_Only>
1

> <s_lp_Force_Field>
OPLS_2005

> <r_lp_Energy>
20.5141

> <b_lp_Chiralities_Consistent>
1

> <s_lp_Variant>
AV-unprocessed.smi:1640-2

> <Gold.Version>
5.8.1

> <Gold.Id.Protein>
6NUR|6NUR_protein|mol2

> <Gold.PLP.Fitness>
45.8566

> <Gold.PLP.PLP>
-40.9491

> <Gold.PLP.part.hbond>
-3.0000

> <Gold.PLP.part.metal>
0.0000

> <Gold.PLP.part.buried>
-4.9360

> <Gold.PLP.part.nonpolar>
-33.0913

> <Gold.PLP.part.repulsive>
0.0000

> <Gold.PLP.ligand.clash>
0.0000

> <Gold.PLP.ligand.torsion>
1.1701

> <Gold.PLP.Chemscore.Hbond>
2.0000

> <Gold.PLP.Chemscore.CHOScore>
0.0000

> <Gold.PLP.Chemscore.Metal>
0.0000

> <Gold.Chemscore.Hbonds>
donor molecule, donor type, donor heavy atom, donor atom, acceptor molecule, acceptor atom, score
      P1  H  7997  8010       L1     7  1.00
      P1  H 10752 10763       L1    20  0.89

> <Gold.PLP.Chemscore.Internal.Correction>
1.2476

> <Gold.Rescore>
     Score         DG    S(hbond)    S(metal)    S(lipo)     H(rot)  DE(clash)    DE(int)     intcor
     18.26     -20.80       1.98        0.00     112.50       1.73       1.35       1.19       ----

> <Gold.Chemscore.Fitness>
18.2559

> <Gold.Chemscore.DG>
-20.8005

> <Gold.Chemscore.ZeroCoef>
-5.4800

> <Gold.Chemscore.Hbond>
1.9757

> <Gold.Chemscore.Metal>
0.0000

> <Gold.Chemscore.Lipo>
112.5009

> <Gold.Chemscore.Internal_Hbond>
0.0000

> <Gold.Chemscore.DEClash>
1.3507

> <Gold.Chemscore.DEInternal>
1.1939

> <Gold.Chemscore.Rot>
1.7347

> <Gold.Chemscore.Internal.Correction>
   9.000000E+99

> <Gold.Chemscore.Hbonds>
donor molecule, donor type, donor heavy atom, donor atom, acceptor molecule, acceptor atom, score
      P1  H  7997  8010       L1     7  0.95
      P1  H 10752 10763       L1    20  0.77

> <Gold.Chemscore.Hbond.Weighted>
-6.5988

> <Gold.Chemscore.Metal.Weighted>
-0.0000

> <Gold.Chemscore.Lipo.Weighted>
-13.1626

> <Gold.Chemscore.Internal_Hbond.Weighted>
0.0000

> <Gold.Chemscore.DEClash.Weighted>
1.3507

> <Gold.Chemscore.DEInternal.Weighted>
1.1939

> <Gold.Chemscore.Rot.Weighted>
4.4409

> <Gold.Chemscore.Internal.Correction.Weighted>
   9.000000E+99

> <Gold.Protein.RotatedTorsions>
[ 6907 6896 6895 6894 ] final   79.66 input  -60.11 | X-H torsion
[ 7974 7965 7964 7962 ] final  -65.18 input  175.53 | X-H torsion
[ 8008 7997 7996 7995 ] final   -8.60 input   59.86 | X-H torsion
[ 10167 10162 10161 10158 ] final -100.78 input  -65.29 | X-H torsion
[ 10718 10713 10712 10709 ] final -163.60 input   66.30 | X-H torsion
[ 10763 10752 10751 10750 ] final  144.87 input  -60.55 | X-H torsion
[ 11005 11000 10999 10996 ] final -139.38 input  -57.11 | X-H torsion

> <Gold.Protein.ActiveResidues>
 VAL166  LYS551  ARG553  GLY616  TRP617  ASP618  TYR619  PRO620  LYS621  CYS622 
 ASP623  PHE694  ASN695  SER759  ASP760  ASP761  ALA762  ILE779  LEU786  VAL792 
 PHE793  MET794  SER795  GLU796  ALA797  LYS798  CYS799  TRP800  GLU811  SER814 

> <Gold.Protein.RotatedAtoms>
  152.5206  134.3477  159.9239 H   0  0  0  0  0  0  0  0  0  0  0  0  # atno 6907 bound_to 6896
  151.3428  133.3949  159.2680 H   0  0  0  0  0  0  0  0  0  0  0  0  # atno 6908 bound_to 6896
  150.9790  134.9167  159.7891 H   0  0  0  0  0  0  0  0  0  0  0  0  # atno 6909 bound_to 6896
  145.7575  140.8878  143.0447 H   0  0  0  0  0  0  0  0  0  0  0  0  # atno 7974 bound_to 7965
  154.5726  140.2377  155.8170 H   0  0  0  0  0  0  0  0  0  0  0  0  # atno 8008 bound_to 7997
  156.2118  140.3024  155.9707 H   0  0  0  0  0  0  0  0  0  0  0  0  # atno 8009 bound_to 7997
  155.2685  140.0417  157.2995 H   0  0  0  0  0  0  0  0  0  0  0  0  # atno 8010 bound_to 7997
  140.2483  143.3490  152.0738 H   0  0  0  0  0  0  0  0  0  0  0  0  # atno 10167 bound_to 10162
  156.6270  130.8914  151.2969 H   0  0  0  0  0  0  0  0  0  0  0  0  # atno 10718 bound_to 10713
  153.9960  135.2927  155.3407 H   0  0  0  0  0  0  0  0  0  0  0  0  # atno 10763 bound_to 10752
  154.7187  135.5118  153.8781 H   0  0  0  0  0  0  0  0  0  0  0  0  # atno 10764 bound_to 10752
  153.0788  135.6672  154.0207 H   0  0  0  0  0  0  0  0  0  0  0  0  # atno 10765 bound_to 10752
  140.8526  134.2268  157.4752 H   0  0  0  0  0  0  0  0  0  0  0  0  # atno 11005 bound_to 11000
  144.6837  139.9677  143.7481 LP  0  0  0  0  0  0  0  0  0  0  0  0  # atno 17320 bound_to 7965
  146.0296  139.3323  143.0763 LP  0  0  0  0  0  0  0  0  0  0  0  0  # atno 17321 bound_to 7965
  139.5054  144.6795  151.6044 LP  0  0  0  0  0  0  0  0  0  0  0  0  # atno 17342 bound_to 10162
  140.6060  143.9523  150.6419 LP  0  0  0  0  0  0  0  0  0  0  0  0  # atno 17343 bound_to 10162
  157.7211  130.9560  150.1443 LP  0  0  0  0  0  0  0  0  0  0  0  0  # atno 17370 bound_to 10713
  156.2265  130.3678  149.8494 LP  0  0  0  0  0  0  0  0  0  0  0  0  # atno 17371 bound_to 10713
  139.8704  134.9690  156.4652 LP  0  0  0  0  0  0  0  0  0  0  0  0  # atno 17394 bound_to 11000
  140.8773  133.7943  155.9429 LP  0  0  0  0  0  0  0  0  0  0  0  0  # atno 17395 bound_to 11000

$$$$
