AV-unprocessed.smi:2110|AV-procd|sdf|8608|dock10
  -GOLD-   2272011353D 1   1.00000     0.00000
 Structure written by MMmdl.
 46 47  0  0  0  0  0  0  0  0  1 V2000
  145.0920  146.7554  159.5379 C   0  0  0  0  0  0  0  0  0  0  0  0
  144.7325  145.2873  159.2577 C   0  0  0  0  0  0  0  0  0  0  0  0
  145.1350  144.3757  160.3472 N   0  0  0  0  0  0  0  0  0  0  0  0
  144.1815  144.2069  161.4610 C   0  0  0  0  0  0  0  0  0  0  0  0
  142.8403  143.6049  161.0167 C   0  0  0  0  0  0  0  0  0  0  0  0
  146.4096  143.2188  160.1025 S   0  0  0  0  0  0  0  0  0  0  0  0
  147.5932  143.6340  160.8709 O   0  0  0  0  0  0  0  0  0  0  0  0
  145.8631  141.8594  160.2339 O   0  0  0  0  0  0  0  0  0  0  0  0
  146.7297  143.5006  158.4368 N   0  0  0  0  0  0  0  0  0  0  0  0
  145.8438  142.9832  157.3965 C   0  0  0  0  0  0  0  0  0  0  0  0
  146.5529  142.2197  156.2875 C   0  0  0  0  0  0  0  0  0  0  0  0
  145.9016  142.0312  155.0531 C   0  0  0  0  0  0  0  0  0  0  0  0
  146.5696  141.3171  154.0413 C   0  0  0  0  0  0  0  0  0  0  0  0
  147.8095  140.8064  154.1911 N   0  0  0  0  0  0  0  0  0  0  0  0
  148.4524  140.9864  155.3711 C   0  0  0  0  0  0  0  0  0  0  0  0
  149.7536  140.4593  155.5151 N   0  0  0  0  0  0  0  0  0  0  0  0
  150.6823  141.2858  156.2826 C   0  0  0  0  0  0  0  0  0  0  0  0
  151.9494  140.4858  156.6294 C   0  0  0  0  0  0  0  0  0  0  0  0
  152.5289  139.9608  155.4397 O   0  0  0  0  0  0  0  0  0  0  0  0
  151.6442  139.0711  154.7668 C   0  0  0  0  0  0  0  0  0  0  0  0
  150.3692  139.8245  154.3517 C   0  0  0  0  0  0  0  0  0  0  0  0
  147.8505  141.6810  156.4467 C   0  0  0  0  0  0  0  0  0  0  0  0
  144.8531  147.3770  158.6751 H   0  0  0  0  0  0  0  0  0  0  0  0
  146.1520  146.8855  159.7519 H   0  0  0  0  0  0  0  0  0  0  0  0
  144.5296  147.1508  160.3833 H   0  0  0  0  0  0  0  0  0  0  0  0
  143.6558  145.1997  159.1111 H   0  0  0  0  0  0  0  0  0  0  0  0
  145.1924  144.9672  158.3221 H   0  0  0  0  0  0  0  0  0  0  0  0
  144.6285  143.5765  162.2293 H   0  0  0  0  0  0  0  0  0  0  0  0
  144.0108  145.1759  161.9312 H   0  0  0  0  0  0  0  0  0  0  0  0
  142.1892  143.4525  161.8775 H   0  0  0  0  0  0  0  0  0  0  0  0
  142.9706  142.6375  160.5339 H   0  0  0  0  0  0  0  0  0  0  0  0
  142.3118  144.2631  160.3275 H   0  0  0  0  0  0  0  0  0  0  0  0
  147.2131  144.3720  158.2223 H   0  0  0  0  0  0  0  0  0  0  0  0
  145.0964  142.3383  157.8596 H   0  0  0  0  0  0  0  0  0  0  0  0
  145.3080  143.8193  156.9457 H   0  0  0  0  0  0  0  0  0  0  0  0
  144.9088  142.4217  154.8839 H   0  0  0  0  0  0  0  0  0  0  0  0
  146.0961  141.1526  153.0849 H   0  0  0  0  0  0  0  0  0  0  0  0
  150.9463  142.1612  155.6881 H   0  0  0  0  0  0  0  0  0  0  0  0
  150.2316  141.6536  157.2033 H   0  0  0  0  0  0  0  0  0  0  0  0
  152.6764  141.1309  157.1226 H   0  0  0  0  0  0  0  0  0  0  0  0
  151.7196  139.6758  157.3238 H   0  0  0  0  0  0  0  0  0  0  0  0
  152.1455  138.6694  153.8864 H   0  0  0  0  0  0  0  0  0  0  0  0
  151.4039  138.2239  155.4112 H   0  0  0  0  0  0  0  0  0  0  0  0
  149.6703  139.1266  153.8887 H   0  0  0  0  0  0  0  0  0  0  0  0
  150.6113  140.5863  153.6093 H   0  0  0  0  0  0  0  0  0  0  0  0
  148.3780  141.7820  157.3824 H   0  0  0  0  0  0  0  0  0  0  0  0
  1  2  1  0  0  0  0
  1 23  1  0  0  0  0
  1 24  1  0  0  0  0
  1 25  1  0  0  0  0
  2  3  1  0  0  0  0
  2 26  1  0  0  0  0
  2 27  1  0  0  0  0
  3  4  1  0  0  0  0
  3  6  1  0  0  0  0
  4  5  1  0  0  0  0
  4 28  1  0  0  0  0
  4 29  1  0  0  0  0
  5 30  1  0  0  0  0
  5 31  1  0  0  0  0
  5 32  1  0  0  0  0
  6  7  2  0  0  0  0
  6  8  2  0  0  0  0
  6  9  1  0  0  0  0
  9 10  1  0  0  0  0
  9 33  1  0  0  0  0
 10 11  1  0  0  0  0
 10 34  1  0  0  0  0
 10 35  1  0  0  0  0
 11 22  1  0  0  0  0
 11 12  2  0  0  0  0
 12 13  1  0  0  0  0
 12 36  1  0  0  0  0
 13 14  2  0  0  0  0
 13 37  1  0  0  0  0
 14 15  1  0  0  0  0
 15 16  1  0  0  0  0
 15 22  2  0  0  0  0
 16 21  1  0  0  0  0
 16 17  1  0  0  0  0
 17 18  1  0  0  0  0
 17 38  1  0  0  0  0
 17 39  1  0  0  0  0
 18 19  1  0  0  0  0
 18 40  1  0  0  0  0
 18 41  1  0  0  0  0
 19 20  1  0  0  0  0
 20 21  1  0  0  0  0
 20 42  1  0  0  0  0
 20 43  1  0  0  0  0
 21 44  1  0  0  0  0
 21 45  1  0  0  0  0
 22 46  1  0  0  0  0
M  END
> <s_m_source_file>
AV-unprocessed.smi

> <i_m_source_file_index>
2110

> <i_lp_mmshare_version>
43012

> <i_f3d_flags>
0

> <s_epik_input>
W0NIM11bQ0gyXU4oW0NIMl1bQ0gzXSlTKD1PKSg9TylbTkhdW0NIMl1jMVtjSF1bY0hdbmMoW2NIXTEpTjJbQ0gyXVtDSDJdT1tDSDJdW0NIMl0y

> <s_epik_cmdline>
J2VwaWtfcHl0aG9uJywgJy1waCcsICc3LjAnLCAnLXRuJywgJzgnLCAnLW1hJywgJzIwMCcsICctbWV0YWxfYmluZGluZycsICctaW1hZScsICc8aW5maWxlLm1hZT4nLCAnLW9tYWUnLCAnPG91dGZpbGUubWFlPic=

> <r_lp_tautomer_probability>
1

> <r_epik_Ionization_Penalty>
0.0503757

> <r_epik_Ionization_Penalty_Charging>
0

> <r_epik_Ionization_Penalty_Neutral>
0.0503757

> <r_epik_State_Penalty>
0.0467666

> <r_epik_Charging_Adjusted_Penalty>
0.0467666

> <i_epik_Tot_Q>
0

> <i_epik_Tot_abs_Q>
0

> <r_epik_Metal_State_Penalty>
0.311919

> <b_epik_Metal_Only>
0

> <s_lp_Force_Field>
OPLS_2005

> <r_lp_Energy>
13.6867

> <b_lp_Chiralities_Consistent>
1

> <s_lp_Variant>
AV-unprocessed.smi:2110-1

> <Gold.Version>
5.8.1

> <Gold.Id.Protein>
6NUR|6NUR_protein|mol2

> <Gold.PLP.Fitness>
43.5043

> <Gold.PLP.PLP>
-30.9388

> <Gold.PLP.part.hbond>
-4.6584

> <Gold.PLP.part.metal>
0.0000

> <Gold.PLP.part.buried>
-2.1033

> <Gold.PLP.part.nonpolar>
-24.2601

> <Gold.PLP.part.repulsive>
0.3343

> <Gold.PLP.ligand.clash>
0.0000

> <Gold.PLP.ligand.torsion>
2.7591

> <Gold.PLP.Chemscore.Hbond>
3.8500

> <Gold.PLP.Chemscore.CHOScore>
0.9653

> <Gold.PLP.Chemscore.Metal>
0.0000

> <Gold.Chemscore.Hbonds>
donor molecule, donor type, donor heavy atom, donor atom, acceptor molecule, acceptor atom, score
      L1  H     9    33       P1  8029  1.00
      P1  H  6933  6944       L1     7  1.00
      P1  H  6934  6946       L1     8  0.98
      P1  H  7997  8009       L1    19  0.80
      L1  C    13    37       P1 10175  0.91

> <Gold.PLP.Chemscore.Internal.Correction>
3.6378

> <Gold.Rescore>
     Score         DG    S(hbond)    S(metal)    S(lipo)     H(rot)  DE(clash)    DE(int)     intcor
     17.31     -19.95       3.42        0.00      63.64       1.72       0.08       2.56       ----

> <Gold.Chemscore.Fitness>
17.3111

> <Gold.Chemscore.DG>
-19.9532

> <Gold.Chemscore.ZeroCoef>
-5.4800

> <Gold.Chemscore.Hbond>
3.4207

> <Gold.Chemscore.Metal>
0.0000

> <Gold.Chemscore.Lipo>
63.6355

> <Gold.Chemscore.Internal_Hbond>
0.0000

> <Gold.Chemscore.DEClash>
0.0816

> <Gold.Chemscore.DEInternal>
2.5606

> <Gold.Chemscore.Rot>
1.7177

> <Gold.Chemscore.Internal.Correction>
   9.000000E+99

> <Gold.Chemscore.Hbonds>
donor molecule, donor type, donor heavy atom, donor atom, acceptor molecule, acceptor atom, score
      L1  H     9    33       P1  8029  0.65
      P1  H  6933  6944       L1     7  0.88
      P1  H  6934  6946       L1     8  0.78
      P1  H  7997  8009       L1    19  0.12

> <Gold.Chemscore.Hbond.Weighted>
-11.4252

> <Gold.Chemscore.Metal.Weighted>
-0.0000

> <Gold.Chemscore.Lipo.Weighted>
-7.4454

> <Gold.Chemscore.Internal_Hbond.Weighted>
0.0000

> <Gold.Chemscore.DEClash.Weighted>
0.0816

> <Gold.Chemscore.DEInternal.Weighted>
2.5606

> <Gold.Chemscore.Rot.Weighted>
4.3974

> <Gold.Chemscore.Internal.Correction.Weighted>
   9.000000E+99

> <Gold.Protein.RotatedTorsions>
[ 6907 6896 6895 6894 ] final   13.70 input  -60.11 | X-H torsion
[ 7974 7965 7964 7962 ] final   74.76 input  175.53 | X-H torsion
[ 8008 7997 7996 7995 ] final -142.58 input   59.86 | X-H torsion
[ 10167 10162 10161 10158 ] final   69.29 input  -65.29 | X-H torsion
[ 10718 10713 10712 10709 ] final  -50.44 input   66.30 | X-H torsion
[ 10763 10752 10751 10750 ] final  -25.48 input  -60.55 | X-H torsion
[ 11005 11000 10999 10996 ] final  176.63 input  -57.11 | X-H torsion

> <Gold.Protein.ActiveResidues>
 VAL166  LYS551  ARG553  GLY616  TRP617  ASP618  TYR619  PRO620  LYS621  CYS622 
 ASP623  PHE694  ASN695  SER759  ASP760  ASP761  ALA762  ILE779  LEU786  VAL792 
 PHE793  MET794  SER795  GLU796  ALA797  LYS798  CYS799  TRP800  GLU811  SER814 

> <Gold.Protein.RotatedAtoms>
  151.7904  135.0737  160.0386 H   0  0  0  0  0  0  0  0  0  0  0  0  # atno 6907 bound_to 6896
  152.3160  133.5799  159.5721 H   0  0  0  0  0  0  0  0  0  0  0  0  # atno 6908 bound_to 6896
  150.7344  133.9998  159.3676 H   0  0  0  0  0  0  0  0  0  0  0  0  # atno 6909 bound_to 6896
  145.7242  139.2659  143.1578 H   0  0  0  0  0  0  0  0  0  0  0  0  # atno 7974 bound_to 7965
  155.4965  140.0572  157.2946 H   0  0  0  0  0  0  0  0  0  0  0  0  # atno 8008 bound_to 7997
  154.4603  140.1993  156.0213 H   0  0  0  0  0  0  0  0  0  0  0  0  # atno 8009 bound_to 7997
  156.0878  140.3238  155.7780 H   0  0  0  0  0  0  0  0  0  0  0  0  # atno 8010 bound_to 7997
  140.0694  144.5165  150.7237 H   0  0  0  0  0  0  0  0  0  0  0  0  # atno 10167 bound_to 10162
  156.1800  130.4150  149.9520 H   0  0  0  0  0  0  0  0  0  0  0  0  # atno 10718 bound_to 10713
  153.7005  135.6956  153.5064 H   0  0  0  0  0  0  0  0  0  0  0  0  # atno 10763 bound_to 10752
  153.2346  135.4326  155.0631 H   0  0  0  0  0  0  0  0  0  0  0  0  # atno 10764 bound_to 10752
  154.8345  135.3492  154.6545 H   0  0  0  0  0  0  0  0  0  0  0  0  # atno 10765 bound_to 10752
  140.3752  134.6995  157.4417 H   0  0  0  0  0  0  0  0  0  0  0  0  # atno 11005 bound_to 11000
  146.0597  140.7983  142.9741 LP  0  0  0  0  0  0  0  0  0  0  0  0  # atno 17320 bound_to 7965
  144.6909  140.3178  143.7237 LP  0  0  0  0  0  0  0  0  0  0  0  0  # atno 17321 bound_to 7965
  140.7133  143.2523  151.4514 LP  0  0  0  0  0  0  0  0  0  0  0  0  # atno 17342 bound_to 10162
  139.5845  144.1636  152.2011 LP  0  0  0  0  0  0  0  0  0  0  0  0  # atno 17343 bound_to 10162
  156.7293  130.9037  151.3624 LP  0  0  0  0  0  0  0  0  0  0  0  0  # atno 17370 bound_to 10713
  157.6862  130.9188  150.0392 LP  0  0  0  0  0  0  0  0  0  0  0  0  # atno 17371 bound_to 10713
  140.0521  134.6116  155.8849 LP  0  0  0  0  0  0  0  0  0  0  0  0  # atno 17394 bound_to 11000
  141.1941  133.6582  156.5582 LP  0  0  0  0  0  0  0  0  0  0  0  0  # atno 17395 bound_to 11000

$$$$
