AV-unprocessed.smi:2929|AV-procd|sdf|11239|dock5
  -GOLD-   2272016133D 1   1.00000     0.00000
 Structure written by MMmdl.
 33 34  0  0  0  0  0  0  0  0  1 V2000
  152.7957  130.1387  156.8411 C   0  0  0  0  0  0  0  0  0  0  0  0
  151.8345  131.4917  157.6330 S   0  0  0  0  0  0  0  0  0  0  0  0
  151.0101  130.8970  158.6967 O   0  0  0  0  0  0  0  0  0  0  0  0
  152.7612  132.5870  157.9589 O   0  0  0  0  0  0  0  0  0  0  0  0
  150.7476  132.0586  156.3298 C   0  0  0  0  0  0  0  0  0  0  0  0
  150.1938  131.1418  155.4140 C   0  0  0  0  0  0  0  0  0  0  0  0
  149.3805  131.6446  154.3805 C   0  0  0  0  0  0  0  0  0  0  0  0
  149.1571  133.0419  154.3020 C   0  0  0  0  0  0  0  0  0  0  0  0
  148.3713  133.6803  153.3035 N   0  0  0  0  0  0  0  0  0  0  0  0
  147.3400  133.1900  152.5942 C   0  0  0  0  0  0  0  0  0  0  0  0
  146.8655  132.0605  152.7096 O   0  0  0  0  0  0  0  0  0  0  0  0
  146.8686  134.1040  151.7345 N   0  0  0  0  0  0  0  0  0  0  0  0
  145.7616  133.8884  150.8116 C   0  0  0  0  0  0  0  0  0  0  0  0
  144.5760  133.1493  151.4014 C   0  0  0  0  0  0  0  0  0  0  0  0
  144.4230  131.6611  151.1906 C   0  0  0  0  0  0  0  0  0  0  0  0
  143.4671  132.6187  150.5219 C   0  0  0  0  0  0  0  0  0  0  0  0
  149.7862  133.8639  155.2619 C   0  0  0  0  0  0  0  0  0  0  0  0
  150.5696  133.3943  156.2552 N   0  0  0  0  0  0  0  0  0  0  0  0
  153.4965  129.7207  157.5633 H   0  0  0  0  0  0  0  0  0  0  0  0
  153.3463  130.5355  155.9882 H   0  0  0  0  0  0  0  0  0  0  0  0
  152.1139  129.3591  156.5024 H   0  0  0  0  0  0  0  0  0  0  0  0
  150.3863  130.0823  155.4937 H   0  0  0  0  0  0  0  0  0  0  0  0
  148.9631  130.9503  153.6689 H   0  0  0  0  0  0  0  0  0  0  0  0
  148.5995  134.6490  153.1335 H   0  0  0  0  0  0  0  0  0  0  0  0
  147.3133  135.0098  151.7091 H   0  0  0  0  0  0  0  0  0  0  0  0
  145.4311  134.8404  150.3921 H   0  0  0  0  0  0  0  0  0  0  0  0
  146.1418  133.3034  149.9739 H   0  0  0  0  0  0  0  0  0  0  0  0
  144.2805  133.5115  152.3844 H   0  0  0  0  0  0  0  0  0  0  0  0
  145.1534  131.1595  150.5590 H   0  0  0  0  0  0  0  0  0  0  0  0
  144.0444  131.0725  152.0239 H   0  0  0  0  0  0  0  0  0  0  0  0
  142.4518  132.6715  150.9098 H   0  0  0  0  0  0  0  0  0  0  0  0
  143.5627  132.7548  149.4464 H   0  0  0  0  0  0  0  0  0  0  0  0
  149.6581  134.9361  155.2322 H   0  0  0  0  0  0  0  0  0  0  0  0
  1  2  1  0  0  0  0
  1 19  1  0  0  0  0
  1 20  1  0  0  0  0
  1 21  1  0  0  0  0
  2  3  2  0  0  0  0
  2  4  2  0  0  0  0
  2  5  1  0  0  0  0
  5 18  1  0  0  0  0
  5  6  2  0  0  0  0
  6  7  1  0  0  0  0
  6 22  1  0  0  0  0
  7  8  2  0  0  0  0
  7 23  1  0  0  0  0
  8  9  1  0  0  0  0
  8 17  1  0  0  0  0
  9 10  1  0  0  0  0
  9 24  1  0  0  0  0
 10 11  2  0  0  0  0
 10 12  1  0  0  0  0
 12 13  1  0  0  0  0
 12 25  1  0  0  0  0
 13 14  1  0  0  0  0
 13 26  1  0  0  0  0
 13 27  1  0  0  0  0
 14 16  1  0  0  0  0
 14 15  1  0  0  0  0
 14 28  1  0  0  0  0
 15 16  1  0  0  0  0
 15 29  1  0  0  0  0
 15 30  1  0  0  0  0
 16 31  1  0  0  0  0
 16 32  1  0  0  0  0
 17 18  2  0  0  0  0
 17 33  1  0  0  0  0
M  END
> <s_m_source_file>
AV-unprocessed.smi

> <i_m_source_file_index>
2929

> <i_lp_mmshare_version>
43012

> <i_f3d_flags>
0

> <s_epik_input>
W0NIM11TKD1PKSg9TyljMVtjSF1bY0hdYyhbY0hdbjEpW05IXUMoPU8pW05IXVtDSDJdW0NIXTJbQ0gyXVtDSDJdMg==

> <s_epik_cmdline>
J2VwaWtfcHl0aG9uJywgJy1waCcsICc3LjAnLCAnLXRuJywgJzgnLCAnLW1hJywgJzIwMCcsICctbWV0YWxfYmluZGluZycsICctaW1hZScsICc8aW5maWxlLm1hZT4nLCAnLW9tYWUnLCAnPG91dGZpbGUubWFlPic=

> <r_lp_tautomer_probability>
1

> <r_epik_Ionization_Penalty>
4.04513e-05

> <r_epik_Ionization_Penalty_Charging>
0

> <r_epik_Ionization_Penalty_Neutral>
4.04513e-05

> <r_epik_State_Penalty>
-0

> <r_epik_Charging_Adjusted_Penalty>
0

> <i_epik_Tot_Q>
0

> <i_epik_Tot_abs_Q>
0

> <r_epik_Metal_State_Penalty>
-0

> <b_epik_Metal_Only>
0

> <s_lp_Force_Field>
OPLS_2005

> <r_lp_Energy>
13.7936

> <b_lp_Chiralities_Consistent>
1

> <s_lp_Variant>
AV-unprocessed.smi:2929-1

> <Gold.Version>
5.8.1

> <Gold.Id.Protein>
6NUR|6NUR_protein|mol2

> <Gold.PLP.Fitness>
39.0868

> <Gold.PLP.PLP>
-31.0071

> <Gold.PLP.part.hbond>
-3.0000

> <Gold.PLP.part.metal>
0.0000

> <Gold.PLP.part.buried>
-5.0073

> <Gold.PLP.part.nonpolar>
-24.4130

> <Gold.PLP.part.repulsive>
0.1615

> <Gold.PLP.ligand.clash>
0.0000

> <Gold.PLP.ligand.torsion>
1.7042

> <Gold.PLP.Chemscore.Hbond>
2.9760

> <Gold.PLP.Chemscore.CHOScore>
0.0000

> <Gold.PLP.Chemscore.Metal>
0.0000

> <Gold.Chemscore.Hbonds>
donor molecule, donor type, donor heavy atom, donor atom, acceptor molecule, acceptor atom, score
      L1  H     9    24       P1  7948  1.00
      L1  H    12    25       P1  7948  1.00
      P1  H  6896  6907       L1     4  0.93

> <Gold.PLP.Chemscore.Internal.Correction>
2.5601

> <Gold.Rescore>
     Score         DG    S(hbond)    S(metal)    S(lipo)     H(rot)  DE(clash)    DE(int)     intcor
     12.48     -15.36       1.98        0.00      55.02       1.23       0.05       2.83       ----

> <Gold.Chemscore.Fitness>
12.4759

> <Gold.Chemscore.DG>
-15.3569

> <Gold.Chemscore.ZeroCoef>
-5.4800

> <Gold.Chemscore.Hbond>
1.9765

> <Gold.Chemscore.Metal>
0.0000

> <Gold.Chemscore.Lipo>
55.0161

> <Gold.Chemscore.Internal_Hbond>
0.0000

> <Gold.Chemscore.DEClash>
0.0545

> <Gold.Chemscore.DEInternal>
2.8265

> <Gold.Chemscore.Rot>
1.2350

> <Gold.Chemscore.Internal.Correction>
   9.000000E+99

> <Gold.Chemscore.Hbonds>
donor molecule, donor type, donor heavy atom, donor atom, acceptor molecule, acceptor atom, score
      L1  H     9    24       P1  7948  0.31
      L1  H    12    25       P1  7948  0.78
      P1  H  6896  6907       L1     4  0.74

> <Gold.Chemscore.Hbond.Weighted>
-6.6016

> <Gold.Chemscore.Metal.Weighted>
-0.0000

> <Gold.Chemscore.Lipo.Weighted>
-6.4369

> <Gold.Chemscore.Internal_Hbond.Weighted>
0.0000

> <Gold.Chemscore.DEClash.Weighted>
0.0545

> <Gold.Chemscore.DEInternal.Weighted>
2.8265

> <Gold.Chemscore.Rot.Weighted>
3.1616

> <Gold.Chemscore.Internal.Correction.Weighted>
   9.000000E+99

> <Gold.Protein.RotatedTorsions>
[ 6907 6896 6895 6894 ] final  140.61 input  -60.11 | X-H torsion
[ 7974 7965 7964 7962 ] final  -14.17 input  175.53 | X-H torsion
[ 8008 7997 7996 7995 ] final  -52.98 input   59.86 | X-H torsion
[ 10167 10162 10161 10158 ] final  126.14 input  -65.29 | X-H torsion
[ 10718 10713 10712 10709 ] final -132.44 input   66.30 | X-H torsion
[ 10763 10752 10751 10750 ] final   47.33 input  -60.55 | X-H torsion
[ 11005 11000 10999 10996 ] final  -63.57 input  -57.11 | X-H torsion

> <Gold.Protein.ActiveResidues>
 VAL166  LYS551  ARG553  GLY616  TRP617  ASP618  TYR619  PRO620  LYS621  CYS622 
 ASP623  PHE694  ASN695  SER759  ASP760  ASP761  ALA762  ILE779  LEU786  VAL792 
 PHE793  MET794  SER795  GLU796  ALA797  LYS798  CYS799  TRP800  GLU811  SER814 

> <Gold.Protein.RotatedAtoms>
  152.2409  133.5135  159.5269 H   0  0  0  0  0  0  0  0  0  0  0  0  # atno 6907 bound_to 6896
  150.7064  134.1090  159.4002 H   0  0  0  0  0  0  0  0  0  0  0  0  # atno 6908 bound_to 6896
  151.9010  135.0378  160.0557 H   0  0  0  0  0  0  0  0  0  0  0  0  # atno 6909 bound_to 6896
  146.2085  140.3310  142.8399 H   0  0  0  0  0  0  0  0  0  0  0  0  # atno 7974 bound_to 7965
  154.4121  140.1211  156.5079 H   0  0  0  0  0  0  0  0  0  0  0  0  # atno 8008 bound_to 7997
  155.6829  140.3496  155.4843 H   0  0  0  0  0  0  0  0  0  0  0  0  # atno 8009 bound_to 7997
  155.9536  140.1109  157.0946 H   0  0  0  0  0  0  0  0  0  0  0  0  # atno 8010 bound_to 7997
  139.5647  144.6904  151.3943 H   0  0  0  0  0  0  0  0  0  0  0  0  # atno 10167 bound_to 10162
  156.2346  130.7058  151.0894 H   0  0  0  0  0  0  0  0  0  0  0  0  # atno 10718 bound_to 10713
  152.9801  135.5980  154.3745 H   0  0  0  0  0  0  0  0  0  0  0  0  # atno 10763 bound_to 10752
  154.3415  135.2767  155.2422 H   0  0  0  0  0  0  0  0  0  0  0  0  # atno 10764 bound_to 10752
  154.4501  135.5992  153.6241 H   0  0  0  0  0  0  0  0  0  0  0  0  # atno 10765 bound_to 10752
  141.1397  133.6653  156.5700 H   0  0  0  0  0  0  0  0  0  0  0  0  # atno 11005 bound_to 11000
  144.8852  140.7453  143.5961 LP  0  0  0  0  0  0  0  0  0  0  0  0  # atno 17320 bound_to 7965
  145.3231  139.1782  143.4577 LP  0  0  0  0  0  0  0  0  0  0  0  0  # atno 17321 bound_to 7965
  140.6930  143.7817  150.7283 LP  0  0  0  0  0  0  0  0  0  0  0  0  # atno 17342 bound_to 10162
  140.1305  143.4531  152.2257 LP  0  0  0  0  0  0  0  0  0  0  0  0  # atno 17343 bound_to 10162
  157.7148  131.0715  150.6366 LP  0  0  0  0  0  0  0  0  0  0  0  0  # atno 17370 bound_to 10713
  156.6436  130.4465  149.5744 LP  0  0  0  0  0  0  0  0  0  0  0  0  # atno 17371 bound_to 10713
  140.3920  134.7431  157.4727 LP  0  0  0  0  0  0  0  0  0  0  0  0  # atno 17394 bound_to 11000
  140.0559  134.6065  155.8806 LP  0  0  0  0  0  0  0  0  0  0  0  0  # atno 17395 bound_to 11000

$$$$
