AV-unprocessed.smi:149|AV-procd|sdf|1240|dock9
  -GOLD-   2262018453D 1   1.00000     0.00000
 Structure written by MMmdl.
 59 63  0  0  0  0  0  0  0  0  1 V2000
  152.8213  128.0281  155.7744 C   0  0  0  0  0  0  0  0  0  0  0  0
  152.2192  129.3678  156.2325 C   0  0  2  0  0  0  0  0  0  0  0  0
  151.2104  130.0019  155.2801 C   0  0  0  0  0  0  0  0  0  0  0  0
  151.0943  131.3773  155.7429 N   0  0  0  0  0  0  0  0  0  0  0  0
  150.3428  132.2749  155.0515 C   0  0  0  0  0  0  0  0  0  0  0  0
  150.6969  133.5875  155.0844 N   0  0  0  0  0  0  0  0  0  0  0  0
  149.9878  134.5013  154.4168 C   0  0  0  0  0  0  0  0  0  0  0  0
  148.9038  134.3254  153.6609 N   0  0  0  0  0  0  0  0  0  0  0  0
  148.5426  133.0118  153.6139 C   0  0  0  0  0  0  0  0  0  0  0  0
  149.2025  131.9297  154.2656 C   0  0  0  0  0  0  0  0  0  0  0  0
  148.5567  130.7374  153.9545 N   0  0  0  0  0  0  0  0  0  0  0  0
  147.5756  131.0940  153.1723 C   0  0  0  0  0  0  0  0  0  0  0  0
  147.4748  132.4461  152.9395 N   0  0  0  0  0  0  0  0  0  0  0  0
  146.5231  133.1034  152.0930 C   0  0  0  0  0  0  0  0  0  0  0  0
  145.1121  133.4248  152.5908 C   0  0  0  0  0  0  0  0  0  0  0  0
  144.5686  133.2227  151.1595 C   0  0  0  0  0  0  0  0  0  0  0  0
  143.2299  132.4713  151.0680 C   0  0  0  0  0  0  0  0  0  0  0  0
  143.0020  131.9864  149.7604 O   0  0  0  0  0  0  0  0  0  0  0  0
  144.4922  134.5019  150.3017 C   0  0  0  0  0  0  0  0  0  0  0  0
  144.0567  134.2173  148.9877 O   0  0  0  0  0  0  0  0  0  0  0  0
  145.8336  132.3606  150.9461 C   0  0  0  0  0  0  0  0  0  0  0  0
  152.3523  131.7974  156.3489 C   0  0  0  0  0  0  0  0  0  0  0  0
  153.1916  130.5183  156.5680 C   0  0  2  0  0  0  0  0  0  0  0  0
  154.5104  130.5002  155.9127 N   0  0  0  0  0  0  0  0  0  0  0  0
  154.4838  130.2584  154.4680 C   0  0  0  0  0  0  0  0  0  0  0  0
  155.9046  130.1678  153.8877 C   0  0  0  0  0  0  0  0  0  0  0  0
  156.6174  131.3638  154.1883 O   0  0  0  0  0  0  0  0  0  0  0  0
  156.7013  131.6189  155.5871 C   0  0  0  0  0  0  0  0  0  0  0  0
  155.2864  131.7059  156.1859 C   0  0  0  0  0  0  0  0  0  0  0  0
  153.3189  128.0981  154.8088 H   0  0  0  0  0  0  0  0  0  0  0  0
  152.0435  127.2700  155.6810 H   0  0  0  0  0  0  0  0  0  0  0  0
  153.5496  127.6629  156.4989 H   0  0  0  0  0  0  0  0  0  0  0  0
  151.6730  129.1577  157.1539 H   0  0  0  0  0  0  0  0  0  0  0  0
  151.5732  129.9847  154.2519 H   0  0  0  0  0  0  0  0  0  0  0  0
  150.2506  129.4849  155.3156 H   0  0  0  0  0  0  0  0  0  0  0  0
  150.3387  135.5190  154.5013 H   0  0  0  0  0  0  0  0  0  0  0  0
  146.8918  130.3744  152.7459 H   0  0  0  0  0  0  0  0  0  0  0  0
  147.0186  134.0041  151.7271 H   0  0  0  0  0  0  0  0  0  0  0  0
  144.7404  132.6799  153.2974 H   0  0  0  0  0  0  0  0  0  0  0  0
  144.9918  134.4328  152.9890 H   0  0  0  0  0  0  0  0  0  0  0  0
  143.1878  131.6370  151.7685 H   0  0  0  0  0  0  0  0  0  0  0  0
  142.3992  133.1287  151.3268 H   0  0  0  0  0  0  0  0  0  0  0  0
  142.1937  131.4970  149.7585 H   0  0  0  0  0  0  0  0  0  0  0  0
  143.8210  135.2393  150.7424 H   0  0  0  0  0  0  0  0  0  0  0  0
  145.4658  134.9868  150.2301 H   0  0  0  0  0  0  0  0  0  0  0  0
  144.7870  134.3310  148.3988 H   0  0  0  0  0  0  0  0  0  0  0  0
  146.3196  132.4814  149.9774 H   0  0  0  0  0  0  0  0  0  0  0  0
  145.6714  131.3047  151.1704 H   0  0  0  0  0  0  0  0  0  0  0  0
  152.8582  132.5388  155.7314 H   0  0  0  0  0  0  0  0  0  0  0  0
  152.1404  132.2670  157.3098 H   0  0  0  0  0  0  0  0  0  0  0  0
  153.3805  130.4345  157.6396 H   0  0  0  0  0  0  0  0  0  0  0  0
  153.9461  129.3420  154.2353 H   0  0  0  0  0  0  0  0  0  0  0  0
  153.9542  131.0609  153.9557 H   0  0  0  0  0  0  0  0  0  0  0  0
  156.4346  129.3059  154.2962 H   0  0  0  0  0  0  0  0  0  0  0  0
  155.8649  130.0384  152.8061 H   0  0  0  0  0  0  0  0  0  0  0  0
  157.2772  130.8292  156.0720 H   0  0  0  0  0  0  0  0  0  0  0  0
  157.2400  132.5527  155.7483 H   0  0  0  0  0  0  0  0  0  0  0  0
  154.7768  132.5794  155.7773 H   0  0  0  0  0  0  0  0  0  0  0  0
  155.3628  131.8635  157.2621 H   0  0  0  0  0  0  0  0  0  0  0  0
  1  2  1  0  0  0  0
  1 30  1  0  0  0  0
  1 31  1  0  0  0  0
  1 32  1  0  0  0  0
  2 23  1  0  0  0  0
  2  3  1  0  0  0  0
  2 33  1  0  0  0  0
  3  4  1  0  0  0  0
  3 34  1  0  0  0  0
  3 35  1  0  0  0  0
  4  5  1  0  0  0  0
  4 22  1  0  0  0  0
  5 10  1  0  0  0  0
  5  6  2  0  0  0  0
  6  7  1  0  0  0  0
  7  8  2  0  0  0  0
  7 36  1  0  0  0  0
  8  9  1  0  0  0  0
  9 13  1  0  0  0  0
  9 10  2  0  0  0  0
 10 11  1  0  0  0  0
 11 12  2  0  0  0  0
 12 13  1  0  0  0  0
 12 37  1  0  0  0  0
 13 14  1  0  0  0  0
 14 21  1  0  0  0  0
 14 15  1  0  0  0  0
 14 38  1  0  0  0  0
 15 16  1  0  0  0  0
 15 39  1  0  0  0  0
 15 40  1  0  0  0  0
 16 17  1  0  0  0  0
 16 19  1  0  0  0  0
 16 21  1  0  0  0  0
 17 18  1  0  0  0  0
 17 41  1  0  0  0  0
 17 42  1  0  0  0  0
 18 43  1  0  0  0  0
 19 20  1  0  0  0  0
 19 44  1  0  0  0  0
 19 45  1  0  0  0  0
 20 46  1  0  0  0  0
 21 47  1  0  0  0  0
 21 48  1  0  0  0  0
 22 23  1  0  0  0  0
 22 49  1  0  0  0  0
 22 50  1  0  0  0  0
 23 24  1  0  0  0  0
 23 51  1  0  0  0  0
 24 29  1  0  0  0  0
 24 25  1  0  0  0  0
 25 26  1  0  0  0  0
 25 52  1  0  0  0  0
 25 53  1  0  0  0  0
 26 27  1  0  0  0  0
 26 54  1  0  0  0  0
 26 55  1  0  0  0  0
 27 28  1  0  0  0  0
 28 29  1  0  0  0  0
 28 56  1  0  0  0  0
 28 57  1  0  0  0  0
 29 58  1  0  0  0  0
 29 59  1  0  0  0  0
M  END
> <s_m_source_file>
AV-unprocessed.smi

> <i_m_source_file_index>
149

> <i_lp_mmshare_version>
43012

> <i_f3d_flags>
0

> <s_epik_input>
W0NIMl0xW0NIMl1PW0NIMl1bQ0gyXU4xW0NAQEhdMltDSDJdTihbQ0gyXVtDQEhdMltDSDNdKWMobltjSF1uMyljKGMzNCluW2NIXW40W0NIXShbQ0gyXTUpW0NIMl1DNShbQ0gyXVtPSF0pW0NIMl1bT0hd

> <s_epik_cmdline>
J2VwaWtfcHl0aG9uJywgJy1waCcsICc3LjAnLCAnLXRuJywgJzgnLCAnLW1hJywgJzIwMCcsICctbWV0YWxfYmluZGluZycsICctaW1hZScsICc8aW5maWxlLm1hZT4nLCAnLW9tYWUnLCAnPG91dGZpbGUubWFlPic=

> <r_lp_tautomer_probability>
1

> <r_epik_Ionization_Penalty>
0.41918

> <r_epik_Ionization_Penalty_Charging>
0

> <r_epik_Ionization_Penalty_Neutral>
0.41918

> <r_epik_State_Penalty>
0.654916

> <r_epik_Charging_Adjusted_Penalty>
0.654916

> <i_epik_Tot_Q>
0

> <i_epik_Tot_abs_Q>
0

> <r_epik_Metal_State_Penalty>
0.653217

> <b_epik_Metal_Only>
0

> <s_lp_Force_Field>
OPLS_2005

> <r_lp_Energy>
80.6686

> <b_lp_Chiralities_Consistent>
1

> <s_lp_Variant>
AV-unprocessed.smi:149-7

> <Gold.Version>
5.8.1

> <Gold.Id.Protein>
6NUR|6NUR_protein|mol2

> <Gold.PLP.Fitness>
51.4416

> <Gold.PLP.PLP>
-47.2457

> <Gold.PLP.part.hbond>
-4.2319

> <Gold.PLP.part.metal>
0.0000

> <Gold.PLP.part.buried>
-6.5381

> <Gold.PLP.part.nonpolar>
-38.0761

> <Gold.PLP.part.repulsive>
1.2520

> <Gold.PLP.ligand.clash>
0.0000

> <Gold.PLP.ligand.torsion>
1.4136

> <Gold.PLP.Chemscore.Hbond>
2.0000

> <Gold.PLP.Chemscore.CHOScore>
0.0089

> <Gold.PLP.Chemscore.Metal>
0.0000

> <Gold.Chemscore.Hbonds>
donor molecule, donor type, donor heavy atom, donor atom, acceptor molecule, acceptor atom, score
      L1  H    18    43       P1 10952  1.00
      L1  H    20    46       P1  7921  1.00

> <Gold.PLP.Chemscore.Internal.Correction>
0.9965

> <Gold.Rescore>
     Score         DG    S(hbond)    S(metal)    S(lipo)     H(rot)  DE(clash)    DE(int)     intcor
     11.52     -13.29       1.95        0.00      84.30       3.34       0.13       1.63       ----

> <Gold.Chemscore.Fitness>
11.5236

> <Gold.Chemscore.DG>
-13.2858

> <Gold.Chemscore.ZeroCoef>
-5.4800

> <Gold.Chemscore.Hbond>
1.9453

> <Gold.Chemscore.Metal>
0.0000

> <Gold.Chemscore.Lipo>
84.2985

> <Gold.Chemscore.Internal_Hbond>
0.0000

> <Gold.Chemscore.DEClash>
0.1304

> <Gold.Chemscore.DEInternal>
1.6318

> <Gold.Chemscore.Rot>
3.3416

> <Gold.Chemscore.Internal.Correction>
   9.000000E+99

> <Gold.Chemscore.Hbonds>
donor molecule, donor type, donor heavy atom, donor atom, acceptor molecule, acceptor atom, score
      L1  H    18    43       P1 10952  0.99
      L1  H    20    46       P1  7921  0.99

> <Gold.Chemscore.Hbond.Weighted>
-6.4973

> <Gold.Chemscore.Metal.Weighted>
-0.0000

> <Gold.Chemscore.Lipo.Weighted>
-9.8629

> <Gold.Chemscore.Internal_Hbond.Weighted>
0.0000

> <Gold.Chemscore.DEClash.Weighted>
0.1304

> <Gold.Chemscore.DEInternal.Weighted>
1.6318

> <Gold.Chemscore.Rot.Weighted>
8.5545

> <Gold.Chemscore.Internal.Correction.Weighted>
   9.000000E+99

> <Gold.Protein.RotatedTorsions>
[ 6907 6896 6895 6894 ] final   48.21 input  -60.11 | X-H torsion
[ 7974 7965 7964 7962 ] final -110.04 input  175.53 | X-H torsion
[ 8008 7997 7996 7995 ] final -147.99 input   59.86 | X-H torsion
[ 10167 10162 10161 10158 ] final  -95.76 input  -65.29 | X-H torsion
[ 10718 10713 10712 10709 ] final -148.93 input   66.30 | X-H torsion
[ 10763 10752 10751 10750 ] final    0.44 input  -60.55 | X-H torsion
[ 11005 11000 10999 10996 ] final  -55.73 input  -57.11 | X-H torsion

> <Gold.Protein.ActiveResidues>
 VAL166  LYS551  ARG553  GLY616  TRP617  ASP618  TYR619  PRO620  LYS621  CYS622 
 ASP623  PHE694  ASN695  SER759  ASP760  ASP761  ALA762  ILE779  LEU786  VAL792 
 PHE793  MET794  SER795  GLU796  ALA797  LYS798  CYS799  TRP800  GLU811  SER814 

> <Gold.Protein.RotatedAtoms>
  152.2769  134.7872  160.0403 H   0  0  0  0  0  0  0  0  0  0  0  0  # atno 6907 bound_to 6896
  151.8465  133.3427  159.3668 H   0  0  0  0  0  0  0  0  0  0  0  0  # atno 6908 bound_to 6896
  150.7174  134.5269  159.5725 H   0  0  0  0  0  0  0  0  0  0  0  0  # atno 6909 bound_to 6896
  145.1731  140.8935  143.3523 H   0  0  0  0  0  0  0  0  0  0  0  0  # atno 7974 bound_to 7965
  155.5844  140.0646  157.2775 H   0  0  0  0  0  0  0  0  0  0  0  0  # atno 8008 bound_to 7997
  154.4323  140.1846  156.1057 H   0  0  0  0  0  0  0  0  0  0  0  0  # atno 8009 bound_to 7997
  156.0280  140.3309  155.7113 H   0  0  0  0  0  0  0  0  0  0  0  0  # atno 8010 bound_to 7997
  140.3008  143.3163  152.0250 H   0  0  0  0  0  0  0  0  0  0  0  0  # atno 10167 bound_to 10162
  156.4266  130.8055  151.2280 H   0  0  0  0  0  0  0  0  0  0  0  0  # atno 10718 bound_to 10713
  153.3207  135.6969  153.7033 H   0  0  0  0  0  0  0  0  0  0  0  0  # atno 10763 bound_to 10752
  153.5874  135.3486  155.2898 H   0  0  0  0  0  0  0  0  0  0  0  0  # atno 10764 bound_to 10752
  154.8597  135.4309  154.2370 H   0  0  0  0  0  0  0  0  0  0  0  0  # atno 10765 bound_to 10752
  141.1087  133.6611  156.4513 H   0  0  0  0  0  0  0  0  0  0  0  0  # atno 11005 bound_to 11000
  145.0212  139.3422  143.6071 LP  0  0  0  0  0  0  0  0  0  0  0  0  # atno 17320 bound_to 7965
  146.3465  139.9513  142.8728 LP  0  0  0  0  0  0  0  0  0  0  0  0  # atno 17321 bound_to 7965
  139.4915  144.6457  151.6783 LP  0  0  0  0  0  0  0  0  0  0  0  0  # atno 17342 bound_to 10162
  140.5652  144.0201  150.6189 LP  0  0  0  0  0  0  0  0  0  0  0  0  # atno 17343 bound_to 10162
  157.7508  131.0211  150.3738 LP  0  0  0  0  0  0  0  0  0  0  0  0  # atno 17370 bound_to 10713
  156.4066  130.3926  149.6921 LP  0  0  0  0  0  0  0  0  0  0  0  0  # atno 17371 bound_to 10713
  140.4832  134.6645  157.5180 LP  0  0  0  0  0  0  0  0  0  0  0  0  # atno 17394 bound_to 11000
  139.9970  134.6895  155.9593 LP  0  0  0  0  0  0  0  0  0  0  0  0  # atno 17395 bound_to 11000

$$$$
