AV-unprocessed.smi:2115|AV-procd|sdf|8624|dock7
  -GOLD-   2272011373D 1   1.00000     0.00000
 Structure written by MMmdl.
 37 38  0  0  0  0  0  0  0  0  1 V2000
  153.2234  141.9091  160.3128 C   0  0  0  0  0  0  0  0  0  0  0  0
  152.1109  142.2050  159.4868 O   0  0  0  0  0  0  0  0  0  0  0  0
  152.0446  141.3674  158.3446 C   0  0  0  0  0  0  0  0  0  0  0  0
  150.8452  141.7803  157.4862 C   0  0  0  0  0  0  0  0  0  0  0  0
  151.0990  141.4131  156.1333 O   0  0  0  0  0  0  0  0  0  0  0  0
  150.7571  140.1417  155.7202 C   0  0  0  0  0  0  0  0  0  0  0  0
  150.7337  139.1068  156.6760 C   0  0  0  0  0  0  0  0  0  0  0  0
  150.3798  137.8090  156.2617 C   0  0  0  0  0  0  0  0  0  0  0  0
  150.0497  137.5845  154.9101 C   0  0  0  0  0  0  0  0  0  0  0  0
  149.7104  136.2624  154.5155 N   0  0  0  0  0  0  0  0  0  0  0  0
  149.7734  135.1303  155.2404 C   0  0  0  0  0  0  0  0  0  0  0  0
  150.1593  135.0686  156.4080 O   0  0  0  0  0  0  0  0  0  0  0  0
  149.3328  133.8527  154.5165 C   0  0  1  0  0  0  0  0  0  0  0  0
  149.4233  132.5812  155.3815 C   0  0  0  0  0  0  0  0  0  0  0  0
  147.9746  132.2003  155.6162 C   0  0  0  0  0  0  0  0  0  0  0  0
  147.3007  132.7477  154.3665 C   0  0  0  0  0  0  0  0  0  0  0  0
  147.9558  133.9907  154.1707 O   0  0  0  0  0  0  0  0  0  0  0  0
  150.1186  138.6864  154.0231 C   0  0  0  0  0  0  0  0  0  0  0  0
  150.4589  139.9330  154.4140 N   0  0  0  0  0  0  0  0  0  0  0  0
  153.2294  142.5781  161.1732 H   0  0  0  0  0  0  0  0  0  0  0  0
  154.1616  142.0454  159.7736 H   0  0  0  0  0  0  0  0  0  0  0  0
  153.1779  140.8843  160.6838 H   0  0  0  0  0  0  0  0  0  0  0  0
  152.9668  141.4219  157.7637 H   0  0  0  0  0  0  0  0  0  0  0  0
  151.9207  140.3325  158.6668 H   0  0  0  0  0  0  0  0  0  0  0  0
  149.9559  141.2581  157.8428 H   0  0  0  0  0  0  0  0  0  0  0  0
  150.6655  142.8526  157.5800 H   0  0  0  0  0  0  0  0  0  0  0  0
  150.9828  139.3053  157.7080 H   0  0  0  0  0  0  0  0  0  0  0  0
  150.3571  136.9996  156.9769 H   0  0  0  0  0  0  0  0  0  0  0  0
  149.4492  136.1513  153.5466 H   0  0  0  0  0  0  0  0  0  0  0  0
  149.9142  133.7149  153.6028 H   0  0  0  0  0  0  0  0  0  0  0  0
  149.9304  131.7933  154.8226 H   0  0  0  0  0  0  0  0  0  0  0  0
  149.9667  132.7151  156.3181 H   0  0  0  0  0  0  0  0  0  0  0  0
  147.8281  131.1279  155.7468 H   0  0  0  0  0  0  0  0  0  0  0  0
  147.5912  132.7110  156.5006 H   0  0  0  0  0  0  0  0  0  0  0  0
  147.4816  132.0985  153.5085 H   0  0  0  0  0  0  0  0  0  0  0  0
  146.2246  132.8739  154.4862 H   0  0  0  0  0  0  0  0  0  0  0  0
  149.9206  138.5834  152.9676 H   0  0  0  0  0  0  0  0  0  0  0  0
  1  2  1  0  0  0  0
  1 20  1  0  0  0  0
  1 21  1  0  0  0  0
  1 22  1  0  0  0  0
  2  3  1  0  0  0  0
  3  4  1  0  0  0  0
  3 23  1  0  0  0  0
  3 24  1  0  0  0  0
  4  5  1  0  0  0  0
  4 25  1  0  0  0  0
  4 26  1  0  0  0  0
  5  6  1  0  0  0  0
  6 19  1  0  0  0  0
  6  7  2  0  0  0  0
  7  8  1  0  0  0  0
  7 27  1  0  0  0  0
  8  9  2  0  0  0  0
  8 28  1  0  0  0  0
  9 10  1  0  0  0  0
  9 18  1  0  0  0  0
 10 11  1  0  0  0  0
 10 29  1  0  0  0  0
 11 12  2  0  0  0  0
 11 13  1  0  0  0  0
 13 17  1  0  0  0  0
 13 14  1  0  0  0  0
 13 30  1  0  0  0  0
 14 15  1  0  0  0  0
 14 31  1  0  0  0  0
 14 32  1  0  0  0  0
 15 16  1  0  0  0  0
 15 33  1  0  0  0  0
 15 34  1  0  0  0  0
 16 17  1  0  0  0  0
 16 35  1  0  0  0  0
 16 36  1  0  0  0  0
 18 19  2  0  0  0  0
 18 37  1  0  0  0  0
M  END
> <s_m_source_file>
AV-unprocessed.smi

> <i_m_source_file_index>
2115

> <i_lp_mmshare_version>
43012

> <i_f3d_flags>
0

> <s_epik_input>
W0NIM11PW0NIMl1bQ0gyXU9jMVtjSF1bY0hdYyhbY0hdbjEpW05IXUMoPU8pW0NAQEhdMltDSDJdW0NIMl1bQ0gyXU8y

> <s_epik_cmdline>
J2VwaWtfcHl0aG9uJywgJy1waCcsICc3LjAnLCAnLXRuJywgJzgnLCAnLW1hJywgJzIwMCcsICctbWV0YWxfYmluZGluZycsICctaW1hZScsICc8aW5maWxlLm1hZT4nLCAnLW9tYWUnLCAnPG91dGZpbGUubWFlPic=

> <r_lp_tautomer_probability>
1

> <r_epik_Ionization_Penalty>
1.60185e-05

> <r_epik_Ionization_Penalty_Charging>
0

> <r_epik_Ionization_Penalty_Neutral>
1.60185e-05

> <r_epik_State_Penalty>
-0

> <r_epik_Charging_Adjusted_Penalty>
0

> <i_epik_Tot_Q>
0

> <i_epik_Tot_abs_Q>
0

> <r_epik_Metal_State_Penalty>
-0

> <b_epik_Metal_Only>
0

> <s_lp_Force_Field>
OPLS_2005

> <r_lp_Energy>
23.9239

> <b_lp_Chiralities_Consistent>
1

> <s_lp_Variant>
AV-unprocessed.smi:2115-2

> <Gold.Version>
5.8.1

> <Gold.Id.Protein>
6NUR|6NUR_protein|mol2

> <Gold.PLP.Fitness>
37.2184

> <Gold.PLP.PLP>
-28.0848

> <Gold.PLP.part.hbond>
-2.6581

> <Gold.PLP.part.metal>
0.0000

> <Gold.PLP.part.buried>
-5.0975

> <Gold.PLP.part.nonpolar>
-21.6807

> <Gold.PLP.part.repulsive>
0.3622

> <Gold.PLP.ligand.clash>
0.0000

> <Gold.PLP.ligand.torsion>
0.6978

> <Gold.PLP.Chemscore.Hbond>
2.0000

> <Gold.PLP.Chemscore.CHOScore>
1.4729

> <Gold.PLP.Chemscore.Metal>
0.0000

> <Gold.Chemscore.Hbonds>
donor molecule, donor type, donor heavy atom, donor atom, acceptor molecule, acceptor atom, score
      L1  H    10    29       P1  7948  1.00
      P1  H  7989  7998       L1    19  1.00
      L1  C    18    37       P1  7948  0.45
      L1  C    18    37       P1  7957  1.00

> <Gold.PLP.Chemscore.Internal.Correction>
0.1104

> <Gold.Rescore>
     Score         DG    S(hbond)    S(metal)    S(lipo)     H(rot)  DE(clash)    DE(int)     intcor
     11.30     -13.58       1.70        0.00      60.99       1.84       0.06       2.22       ----

> <Gold.Chemscore.Fitness>
11.3011

> <Gold.Chemscore.DG>
-13.5816

> <Gold.Chemscore.ZeroCoef>
-5.4800

> <Gold.Chemscore.Hbond>
1.6992

> <Gold.Chemscore.Metal>
0.0000

> <Gold.Chemscore.Lipo>
60.9937

> <Gold.Chemscore.Internal_Hbond>
0.0000

> <Gold.Chemscore.DEClash>
0.0595

> <Gold.Chemscore.DEInternal>
2.2211

> <Gold.Chemscore.Rot>
1.8398

> <Gold.Chemscore.Internal.Correction>
   9.000000E+99

> <Gold.Chemscore.Hbonds>
donor molecule, donor type, donor heavy atom, donor atom, acceptor molecule, acceptor atom, score
      L1  H    10    29       P1  7948  0.60
      P1  H  7989  7998       L1    19  0.54

> <Gold.Chemscore.Hbond.Weighted>
-5.6752

> <Gold.Chemscore.Metal.Weighted>
-0.0000

> <Gold.Chemscore.Lipo.Weighted>
-7.1363

> <Gold.Chemscore.Internal_Hbond.Weighted>
0.0000

> <Gold.Chemscore.DEClash.Weighted>
0.0595

> <Gold.Chemscore.DEInternal.Weighted>
2.2211

> <Gold.Chemscore.Rot.Weighted>
4.7099

> <Gold.Chemscore.Internal.Correction.Weighted>
   9.000000E+99

> <Gold.Protein.RotatedTorsions>
[ 6907 6896 6895 6894 ] final -146.46 input  -60.11 | X-H torsion
[ 7974 7965 7964 7962 ] final   93.76 input  175.53 | X-H torsion
[ 8008 7997 7996 7995 ] final -144.71 input   59.86 | X-H torsion
[ 10167 10162 10161 10158 ] final   82.20 input  -65.29 | X-H torsion
[ 10718 10713 10712 10709 ] final  -85.94 input   66.30 | X-H torsion
[ 10763 10752 10751 10750 ] final   -8.38 input  -60.55 | X-H torsion
[ 11005 11000 10999 10996 ] final  -80.18 input  -57.11 | X-H torsion

> <Gold.Protein.ActiveResidues>
 VAL166  LYS551  ARG553  GLY616  TRP617  ASP618  TYR619  PRO620  LYS621  CYS622 
 ASP623  PHE694  ASN695  SER759  ASP760  ASP761  ALA762  ILE779  LEU786  VAL792 
 PHE793  MET794  SER795  GLU796  ALA797  LYS798  CYS799  TRP800  GLU811  SER814 

> <Gold.Protein.RotatedAtoms>
  151.1419  133.4965  159.2596 H   0  0  0  0  0  0  0  0  0  0  0  0  # atno 6907 bound_to 6896
  151.1646  135.0289  159.8735 H   0  0  0  0  0  0  0  0  0  0  0  0  # atno 6908 bound_to 6896
  152.5462  134.1289  159.8484 H   0  0  0  0  0  0  0  0  0  0  0  0  # atno 6909 bound_to 6896
  145.4746  139.2280  143.2916 H   0  0  0  0  0  0  0  0  0  0  0  0  # atno 7974 bound_to 7965
  155.5314  140.0600  157.2888 H   0  0  0  0  0  0  0  0  0  0  0  0  # atno 8008 bound_to 7997
  154.4483  140.1935  156.0543 H   0  0  0  0  0  0  0  0  0  0  0  0  # atno 8009 bound_to 7997
  156.0649  140.3267  155.7510 H   0  0  0  0  0  0  0  0  0  0  0  0  # atno 8010 bound_to 7997
  139.9313  144.6150  150.8342 H   0  0  0  0  0  0  0  0  0  0  0  0  # atno 10167 bound_to 10162
  155.9993  130.4748  150.4638 H   0  0  0  0  0  0  0  0  0  0  0  0  # atno 10718 bound_to 10713
  153.4397  135.7013  153.6177 H   0  0  0  0  0  0  0  0  0  0  0  0  # atno 10763 bound_to 10752
  153.4557  135.3748  155.2309 H   0  0  0  0  0  0  0  0  0  0  0  0  # atno 10764 bound_to 10752
  154.8727  135.4007  154.3794 H   0  0  0  0  0  0  0  0  0  0  0  0  # atno 10765 bound_to 10752
  141.1668  133.7138  156.8234 H   0  0  0  0  0  0  0  0  0  0  0  0  # atno 11005 bound_to 11000
  146.2377  140.5527  142.8948 LP  0  0  0  0  0  0  0  0  0  0  0  0  # atno 17320 bound_to 7965
  144.7925  140.6059  143.6532 LP  0  0  0  0  0  0  0  0  0  0  0  0  # atno 17321 bound_to 7965
  140.7636  143.3229  151.2582 LP  0  0  0  0  0  0  0  0  0  0  0  0  # atno 17342 bound_to 10162
  139.6780  143.9904  152.2792 LP  0  0  0  0  0  0  0  0  0  0  0  0  # atno 17343 bound_to 10162
  157.2660  131.0577  151.2290 LP  0  0  0  0  0  0  0  0  0  0  0  0  # atno 17370 bound_to 10713
  157.3388  130.7022  149.6368 LP  0  0  0  0  0  0  0  0  0  0  0  0  # atno 17371 bound_to 10713
  140.2103  134.8832  157.3267 LP  0  0  0  0  0  0  0  0  0  0  0  0  # atno 17394 bound_to 11000
  140.2094  134.4157  155.7621 LP  0  0  0  0  0  0  0  0  0  0  0  0  # atno 17395 bound_to 11000

$$$$
