AV-unprocessed.smi:67|AV-procd|sdf|632|dock2
  -GOLD-   2262016523D 1   1.00000     0.00000
 Structure written by MMmdl.
 49 51  0  0  0  0  0  0  0  0  3 V2000
  146.6446  134.5816  151.0247 O   0  0  0  0  0  0  0  0  0  0  0  0
  145.3066  134.6346  151.4868 C   0  0  2  0  0  0  0  0  0  0  0  0
  145.2757  135.2794  152.8914 C   0  0  0  0  0  0  0  0  0  0  0  0
  146.6216  135.3208  153.5247 N   0  3  2  0  0  0  0  0  0  0  0  0
  147.0776  133.9924  154.0080 C   0  0  0  0  0  0  0  0  0  0  0  0
  148.5281  134.0528  154.5183 C   0  0  0  0  0  0  0  0  0  0  0  0
  148.7050  135.1156  155.6142 C   0  0  2  0  0  0  0  0  0  0  0  0
  147.9746  134.6797  156.7593 O   0  0  0  0  0  0  0  0  0  0  0  0
  148.2406  135.2261  157.9985 C   0  0  0  0  0  0  0  0  0  0  0  0
  149.1668  136.2880  158.0337 C   0  0  0  0  0  0  0  0  0  0  0  0
  149.5014  136.9129  159.2493 C   0  0  0  0  0  0  0  0  0  0  0  0
  148.9108  136.4797  160.4503 C   0  0  0  0  0  0  0  0  0  0  0  0
  147.9816  135.4178  160.4386 C   0  0  0  0  0  0  0  0  0  0  0  0
  147.3267  134.9312  161.7228 C   0  0  0  0  0  0  0  0  0  0  0  0
  147.6281  133.6480  161.9218 F   0  0  0  0  0  0  0  0  0  0  0  0
  147.7318  135.6282  162.7850 F   0  0  0  0  0  0  0  0  0  0  0  0
  146.0037  135.0495  161.6153 F   0  0  0  0  0  0  0  0  0  0  0  0
  147.6483  134.7998  159.2142 C   0  0  0  0  0  0  0  0  0  0  0  0
  148.1813  136.4711  155.0968 C   0  0  0  0  0  0  0  0  0  0  0  0
  146.7361  136.3586  154.5824 C   0  0  0  0  0  0  0  0  0  0  0  0
  144.6807  133.2374  151.4216 C   0  0  0  0  0  0  0  0  0  0  0  0
  144.2882  133.0737  149.9516 C   0  0  0  0  0  0  0  0  0  0  0  0
  144.0205  134.4328  149.4433 N   0  3  0  0  0  0  0  0  0  0  0  0
  144.4826  135.4136  150.4470 C   0  0  0  0  0  0  0  0  0  0  0  0
  147.1645  135.1993  151.5173 H   0  0  0  0  0  0  0  0  0  0  0  0
  144.8425  136.2801  152.8468 H   0  0  0  0  0  0  0  0  0  0  0  0
  144.5957  134.7005  153.5183 H   0  0  0  0  0  0  0  0  0  0  0  0
  146.4111  133.6414  154.7976 H   0  0  0  0  0  0  0  0  0  0  0  0
  147.0175  133.2675  153.1951 H   0  0  0  0  0  0  0  0  0  0  0  0
  148.8328  133.0754  154.8943 H   0  0  0  0  0  0  0  0  0  0  0  0
  149.1934  134.2797  153.6841 H   0  0  0  0  0  0  0  0  0  0  0  0
  149.7698  135.1726  155.8418 H   0  0  0  0  0  0  0  0  0  0  0  0
  149.6261  136.6289  157.1173 H   0  0  0  0  0  0  0  0  0  0  0  0
  150.2117  137.7264  159.2605 H   0  0  0  0  0  0  0  0  0  0  0  0
  149.1764  136.9701  161.3749 H   0  0  0  0  0  0  0  0  0  0  0  0
  146.9317  133.9938  159.2396 H   0  0  0  0  0  0  0  0  0  0  0  0
  148.2352  137.2349  155.8719 H   0  0  0  0  0  0  0  0  0  0  0  0
  148.8239  136.8192  154.2871 H   0  0  0  0  0  0  0  0  0  0  0  0
  146.4192  137.3254  154.1919 H   0  0  0  0  0  0  0  0  0  0  0  0
  146.0632  136.1174  155.4071 H   0  0  0  0  0  0  0  0  0  0  0  0
  145.3462  132.4470  151.7718 H   0  0  0  0  0  0  0  0  0  0  0  0
  143.7808  133.2057  152.0378 H   0  0  0  0  0  0  0  0  0  0  0  0
  145.1201  132.6534  149.3850 H   0  0  0  0  0  0  0  0  0  0  0  0
  143.4263  132.4193  149.8192 H   0  0  0  0  0  0  0  0  0  0  0  0
  144.5212  134.5654  148.5758 H   0  0  0  0  0  0  0  0  0  0  0  0
  143.5933  135.8413  150.9113 H   0  0  0  0  0  0  0  0  0  0  0  0
  145.0336  136.2338  149.9847 H   0  0  0  0  0  0  0  0  0  0  0  0
  143.0306  134.5560  149.2836 H   0  0  0  0  0  0  0  0  0  0  0  0
  147.2657  135.5848  152.7927 H   0  0  0  0  0  0  0  0  0  0  0  0
  1  2  1  0  0  0  0
  1 25  1  0  0  0  0
  2 24  1  0  0  0  0
  2  3  1  0  0  0  0
  2 21  1  0  0  0  0
  3  4  1  0  0  0  0
  3 26  1  0  0  0  0
  3 27  1  0  0  0  0
  4 20  1  0  0  0  0
  4  5  1  0  0  0  0
  4 49  1  0  0  0  0
  5  6  1  0  0  0  0
  5 28  1  0  0  0  0
  5 29  1  0  0  0  0
  6  7  1  0  0  0  0
  6 30  1  0  0  0  0
  6 31  1  0  0  0  0
  7  8  1  0  0  0  0
  7 19  1  0  0  0  0
  7 32  1  0  0  0  0
  8  9  1  0  0  0  0
  9 18  1  0  0  0  0
  9 10  2  0  0  0  0
 10 11  1  0  0  0  0
 10 33  1  0  0  0  0
 11 12  2  0  0  0  0
 11 34  1  0  0  0  0
 12 13  1  0  0  0  0
 12 35  1  0  0  0  0
 13 14  1  0  0  0  0
 13 18  2  0  0  0  0
 14 15  1  0  0  0  0
 14 16  1  0  0  0  0
 14 17  1  0  0  0  0
 18 36  1  0  0  0  0
 19 20  1  0  0  0  0
 19 37  1  0  0  0  0
 19 38  1  0  0  0  0
 20 39  1  0  0  0  0
 20 40  1  0  0  0  0
 21 22  1  0  0  0  0
 21 41  1  0  0  0  0
 21 42  1  0  0  0  0
 22 23  1  0  0  0  0
 22 43  1  0  0  0  0
 22 44  1  0  0  0  0
 23 24  1  0  0  0  0
 23 45  1  0  0  0  0
 23 48  1  0  0  0  0
 24 46  1  0  0  0  0
 24 47  1  0  0  0  0
M  CHG  1   4   1
M  CHG  1  23   1
M  END
> <s_m_source_file>
AV-unprocessed.smi

> <i_m_source_file_index>
67

> <i_lp_mmshare_version>
43012

> <i_f3d_flags>
0

> <s_epik_input>
W0NIMl0xW05IXVtDSDJdW0NIMl1bQ0BAXTEoW09IXSlbQ0gyXU4yW0NIMl1bQ0gyXVtDSF0oW0NIMl1bQ0gyXTIpT2MzW2NIXVtjSF1bY0hdYyhDKEYpKEYpRilbY0hdMw==

> <s_epik_cmdline>
J2VwaWtfcHl0aG9uJywgJy1waCcsICc3LjAnLCAnLXRuJywgJzgnLCAnLW1hJywgJzIwMCcsICctbWV0YWxfYmluZGluZycsICctaW1hZScsICc8aW5maWxlLm1hZT4nLCAnLW9tYWUnLCAnPG91dGZpbGUubWFlPic=

> <r_lp_tautomer_probability>
1

> <r_epik_Ionization_Penalty>
0.0989853

> <r_epik_Ionization_Penalty_Charging>
0.0989662

> <r_epik_Ionization_Penalty_Neutral>
1.91014e-05

> <r_epik_State_Penalty>
0.0852826

> <r_epik_Charging_Adjusted_Penalty>
0.184249

> <i_epik_Tot_Q>
2

> <i_epik_Tot_abs_Q>
2

> <r_epik_Metal_State_Penalty>
0.0849414

> <b_epik_Metal_Only>
0

> <s_lp_Force_Field>
OPLS_2005

> <r_lp_Energy>
57.0803

> <b_lp_Chiralities_Consistent>
1

> <s_lp_Variant>
AV-unprocessed.smi:67-4

> <Gold.Version>
5.8.1

> <Gold.Id.Protein>
6NUR|6NUR_protein|mol2

> <Gold.PLP.Fitness>
51.2691

> <Gold.PLP.PLP>
-36.4639

> <Gold.PLP.part.hbond>
-4.0000

> <Gold.PLP.part.metal>
0.0000

> <Gold.PLP.part.buried>
-1.5700

> <Gold.PLP.part.nonpolar>
-30.0068

> <Gold.PLP.part.repulsive>
0.1038

> <Gold.PLP.ligand.clash>
0.8004

> <Gold.PLP.ligand.torsion>
1.3169

> <Gold.PLP.Chemscore.Hbond>
5.9350

> <Gold.PLP.Chemscore.CHOScore>
0.0000

> <Gold.PLP.Chemscore.Metal>
0.0000

> <Gold.Chemscore.Hbonds>
donor molecule, donor type, donor heavy atom, donor atom, acceptor molecule, acceptor atom, score
      L1  H     1    25       P1  7948  0.95
      L1  H     4    49       P1  7948  2.00
      L1  H    23    45       P1  7921  1.00
      L1  H    23    48       P1 10186  1.98

> <Gold.PLP.Chemscore.Internal.Correction>
0.4345

> <Gold.Rescore>
     Score         DG    S(hbond)    S(metal)    S(lipo)     H(rot)  DE(clash)    DE(int)     intcor
     18.14     -20.88       3.68        0.00      75.36       2.24       1.43       1.32       ----

> <Gold.Chemscore.Fitness>
18.1360

> <Gold.Chemscore.DG>
-20.8806

> <Gold.Chemscore.ZeroCoef>
-5.4800

> <Gold.Chemscore.Hbond>
3.6842

> <Gold.Chemscore.Metal>
0.0000

> <Gold.Chemscore.Lipo>
75.3621

> <Gold.Chemscore.Internal_Hbond>
0.0000

> <Gold.Chemscore.DEClash>
1.4295

> <Gold.Chemscore.DEInternal>
1.3151

> <Gold.Chemscore.Rot>
2.2352

> <Gold.Chemscore.Internal.Correction>
   9.000000E+99

> <Gold.Chemscore.Hbonds>
donor molecule, donor type, donor heavy atom, donor atom, acceptor molecule, acceptor atom, score
      L1  H     1    25       P1  7948  0.78
      L1  H     4    49       P1  7948  0.94
      L1  H    23    45       P1  7921  0.96
      L1  H    23    48       P1 10186  0.91

> <Gold.Chemscore.Hbond.Weighted>
-12.3054

> <Gold.Chemscore.Metal.Weighted>
-0.0000

> <Gold.Chemscore.Lipo.Weighted>
-8.8174

> <Gold.Chemscore.Internal_Hbond.Weighted>
0.0000

> <Gold.Chemscore.DEClash.Weighted>
1.4295

> <Gold.Chemscore.DEInternal.Weighted>
1.3151

> <Gold.Chemscore.Rot.Weighted>
5.7221

> <Gold.Chemscore.Internal.Correction.Weighted>
   9.000000E+99

> <Gold.Protein.RotatedTorsions>
[ 6907 6896 6895 6894 ] final  -29.27 input  -60.11 | X-H torsion
[ 7974 7965 7964 7962 ] final  136.35 input  175.53 | X-H torsion
[ 8008 7997 7996 7995 ] final -100.35 input   59.86 | X-H torsion
[ 10167 10162 10161 10158 ] final  -56.23 input  -65.29 | X-H torsion
[ 10718 10713 10712 10709 ] final  -95.87 input   66.30 | X-H torsion
[ 10763 10752 10751 10750 ] final  -95.04 input  -60.55 | X-H torsion
[ 11005 11000 10999 10996 ] final  134.41 input  -57.11 | X-H torsion

> <Gold.Protein.ActiveResidues>
 VAL166  LYS551  ARG553  GLY616  TRP617  ASP618  TYR619  PRO620  LYS621  CYS622 
 ASP623  PHE694  ASN695  SER759  ASP760  ASP761  ALA762  ILE779  LEU786  VAL792 
 PHE793  MET794  SER795  GLU796  ALA797  LYS798  CYS799  TRP800  GLU811  SER814 

> <Gold.Protein.RotatedAtoms>
  151.1216  135.0082  159.8540 H   0  0  0  0  0  0  0  0  0  0  0  0  # atno 6907 bound_to 6896
  152.5448  134.1716  159.8609 H   0  0  0  0  0  0  0  0  0  0  0  0  # atno 6908 bound_to 6896
  151.1775  133.4701  159.2627 H   0  0  0  0  0  0  0  0  0  0  0  0  # atno 6909 bound_to 6896
  144.9574  139.4749  143.5496 H   0  0  0  0  0  0  0  0  0  0  0  0  # atno 7974 bound_to 7965
  154.8274  140.0441  157.1453 H   0  0  0  0  0  0  0  0  0  0  0  0  # atno 8008 bound_to 7997
  154.9191  140.3024  155.5205 H   0  0  0  0  0  0  0  0  0  0  0  0  # atno 8009 bound_to 7997
  156.2984  140.2344  156.4239 H   0  0  0  0  0  0  0  0  0  0  0  0  # atno 8010 bound_to 7997
  140.6329  143.2468  151.5194 H   0  0  0  0  0  0  0  0  0  0  0  0  # atno 10167 bound_to 10162
  156.0051  130.5127  150.6141 H   0  0  0  0  0  0  0  0  0  0  0  0  # atno 10718 bound_to 10713
  154.7111  135.5135  153.8668 H   0  0  0  0  0  0  0  0  0  0  0  0  # atno 10763 bound_to 10752
  153.0781  135.6623  154.0111 H   0  0  0  0  0  0  0  0  0  0  0  0  # atno 10764 bound_to 10752
  153.9952  135.3016  155.3387 H   0  0  0  0  0  0  0  0  0  0  0  0  # atno 10765 bound_to 10752
  139.9913  134.9514  156.9862 H   0  0  0  0  0  0  0  0  0  0  0  0  # atno 11005 bound_to 11000
  146.3341  139.8700  142.8841 LP  0  0  0  0  0  0  0  0  0  0  0  0  # atno 17320 bound_to 7965
  145.2752  141.0121  143.3749 LP  0  0  0  0  0  0  0  0  0  0  0  0  # atno 17321 bound_to 7965
  139.5541  144.2319  152.1583 LP  0  0  0  0  0  0  0  0  0  0  0  0  # atno 17342 bound_to 10162
  140.1568  144.5063  150.6655 LP  0  0  0  0  0  0  0  0  0  0  0  0  # atno 17343 bound_to 10162
  157.3968  131.0804  151.1344 LP  0  0  0  0  0  0  0  0  0  0  0  0  # atno 17370 bound_to 10713
  157.2018  130.6398  149.5741 LP  0  0  0  0  0  0  0  0  0  0  0  0  # atno 17371 bound_to 10713
  140.4903  134.1200  155.7231 LP  0  0  0  0  0  0  0  0  0  0  0  0  # atno 17394 bound_to 11000
  141.1568  133.8867  157.1956 LP  0  0  0  0  0  0  0  0  0  0  0  0  # atno 17395 bound_to 11000

$$$$
