AV-unprocessed.smi:3283|AV-procd|sdf|12569|dock4
  -GOLD-   2272018493D 1   1.00000     0.00000
 Structure written by MMmdl.
 44 45  0  0  0  0  0  0  0  0  2 V2000
  152.1882  139.6938  155.6348 C   0  0  0  0  0  0  0  0  0  0  0  0
  150.7282  139.7384  155.2156 C   0  0  0  0  0  0  0  0  0  0  0  0
  150.1256  138.6170  154.7762 C   0  0  0  0  0  0  0  0  0  0  0  0
  148.7058  138.5578  154.2625 C   0  0  0  0  0  0  0  0  0  0  0  0
  148.2218  139.9433  153.8283 C   0  0  0  0  0  0  0  0  0  0  0  0
  148.4878  140.9975  154.9153 C   0  0  2  0  0  0  0  0  0  0  0  0
  147.9017  142.3515  154.4695 C   0  0  0  0  0  0  0  0  0  0  0  0
  149.9992  141.0961  155.2895 C   0  0  1  0  0  0  0  0  0  0  0  0
  150.1616  141.7905  156.6679 C   0  0  0  0  0  0  0  0  0  0  0  0
  150.7814  143.1269  156.5663 N   0  3  0  0  0  0  0  0  0  0  0  0
  151.2781  143.6656  157.8477 C   0  0  0  0  0  0  0  0  0  0  0  0
  152.3374  142.7481  158.4771 C   0  0  0  0  0  0  0  0  0  0  0  0
  152.5235  142.9659  159.9479 C   0  0  0  0  0  0  0  0  0  0  0  0
  151.9406  143.8902  160.7690 C   0  0  0  0  0  0  0  0  0  0  0  0
  152.5107  143.6315  162.0455 C   0  0  0  0  0  0  0  0  0  0  0  0
  153.3763  142.6335  162.0194 N   0  0  0  0  0  0  0  0  0  0  0  0
  153.3831  142.2169  160.7355 N   0  0  0  0  0  0  0  0  0  0  0  0
  154.2435  141.1084  160.3650 C   0  0  0  0  0  0  0  0  0  0  0  0
  152.7553  140.4709  155.1230 H   0  0  0  0  0  0  0  0  0  0  0  0
  152.6432  138.7354  155.3820 H   0  0  0  0  0  0  0  0  0  0  0  0
  152.2909  139.8270  156.7114 H   0  0  0  0  0  0  0  0  0  0  0  0
  150.6682  137.6827  154.7621 H   0  0  0  0  0  0  0  0  0  0  0  0
  148.6592  137.8701  153.4177 H   0  0  0  0  0  0  0  0  0  0  0  0
  148.0667  138.1490  155.0456 H   0  0  0  0  0  0  0  0  0  0  0  0
  148.7292  140.2335  152.9067 H   0  0  0  0  0  0  0  0  0  0  0  0
  147.1579  139.8965  153.5926 H   0  0  0  0  0  0  0  0  0  0  0  0
  147.9409  140.6765  155.8036 H   0  0  0  0  0  0  0  0  0  0  0  0
  148.4161  142.7325  153.5865 H   0  0  0  0  0  0  0  0  0  0  0  0
  147.9704  143.1127  155.2450 H   0  0  0  0  0  0  0  0  0  0  0  0
  146.8454  142.2543  154.2161 H   0  0  0  0  0  0  0  0  0  0  0  0
  150.4767  141.7218  154.5337 H   0  0  0  0  0  0  0  0  0  0  0  0
  149.1979  141.9253  157.1563 H   0  0  0  0  0  0  0  0  0  0  0  0
  150.7545  141.1592  157.3316 H   0  0  0  0  0  0  0  0  0  0  0  0
  151.5568  143.0691  155.9215 H   0  0  0  0  0  0  0  0  0  0  0  0
  151.6953  144.6606  157.6865 H   0  0  0  0  0  0  0  0  0  0  0  0
  150.4377  143.7780  158.5339 H   0  0  0  0  0  0  0  0  0  0  0  0
  152.0427  141.7112  158.3127 H   0  0  0  0  0  0  0  0  0  0  0  0
  153.2842  142.8656  157.9501 H   0  0  0  0  0  0  0  0  0  0  0  0
  151.2147  144.6425  160.4976 H   0  0  0  0  0  0  0  0  0  0  0  0
  152.3246  144.1367  162.9819 H   0  0  0  0  0  0  0  0  0  0  0  0
  153.6947  140.3977  159.7470 H   0  0  0  0  0  0  0  0  0  0  0  0
  154.6001  140.5868  161.2546 H   0  0  0  0  0  0  0  0  0  0  0  0
  155.1038  141.4811  159.8102 H   0  0  0  0  0  0  0  0  0  0  0  0
  150.0977  143.7691  156.1913 H   0  0  0  0  0  0  0  0  0  0  0  0
  1  2  1  0  0  0  0
  1 19  1  0  0  0  0
  1 20  1  0  0  0  0
  1 21  1  0  0  0  0
  2  8  1  0  0  0  0
  2  3  2  0  0  0  0
  3  4  1  0  0  0  0
  3 22  1  0  0  0  0
  4  5  1  0  0  0  0
  4 23  1  0  0  0  0
  4 24  1  0  0  0  0
  5  6  1  0  0  0  0
  5 25  1  0  0  0  0
  5 26  1  0  0  0  0
  6  7  1  0  0  0  0
  6  8  1  0  0  0  0
  6 27  1  0  0  0  0
  7 28  1  0  0  0  0
  7 29  1  0  0  0  0
  7 30  1  0  0  0  0
  8  9  1  0  0  0  0
  8 31  1  0  0  0  0
  9 10  1  0  0  0  0
  9 32  1  0  0  0  0
  9 33  1  0  0  0  0
 10 11  1  0  0  0  0
 10 34  1  0  0  0  0
 10 44  1  0  0  0  0
 11 12  1  0  0  0  0
 11 35  1  0  0  0  0
 11 36  1  0  0  0  0
 12 13  1  0  0  0  0
 12 37  1  0  0  0  0
 12 38  1  0  0  0  0
 13 17  1  0  0  0  0
 13 14  2  0  0  0  0
 14 15  1  0  0  0  0
 14 39  1  0  0  0  0
 15 16  2  0  0  0  0
 15 40  1  0  0  0  0
 16 17  1  0  0  0  0
 17 18  1  0  0  0  0
 18 41  1  0  0  0  0
 18 42  1  0  0  0  0
 18 43  1  0  0  0  0
M  CHG  1  10   1
M  END
> <s_m_source_file>
AV-unprocessed.smi

> <i_m_source_file_index>
3283

> <i_lp_mmshare_version>
43012

> <i_f3d_flags>
0

> <s_epik_input>
W0NIM11DMT1bQ0hdW0NIMl1bQ0gyXVtDQEBIXShbQ0gzXSlbQ0BIXTFbQ0gyXVtOSF1bQ0gyXVtDSDJdYzJbY0hdW2NIXW5uMltDSDNd

> <s_epik_cmdline>
J2VwaWtfcHl0aG9uJywgJy1waCcsICc3LjAnLCAnLXRuJywgJzgnLCAnLW1hJywgJzIwMCcsICctbWV0YWxfYmluZGluZycsICctaW1hZScsICc8aW5maWxlLm1hZT4nLCAnLW9tYWUnLCAnPG91dGZpbGUubWFlPic=

> <r_lp_tautomer_probability>
1

> <r_epik_Ionization_Penalty>
0.000866911

> <r_epik_Ionization_Penalty_Charging>
0.000836385

> <r_epik_Ionization_Penalty_Neutral>
3.05258e-05

> <r_epik_State_Penalty>
-0

> <r_epik_Charging_Adjusted_Penalty>
0.000836385

> <i_epik_Tot_Q>
1

> <i_epik_Tot_abs_Q>
1

> <r_epik_Metal_State_Penalty>
-0

> <b_epik_Metal_Only>
0

> <s_lp_Force_Field>
OPLS_2005

> <r_lp_Energy>
14.6109

> <b_lp_Chiralities_Consistent>
1

> <s_lp_Variant>
AV-unprocessed.smi:3283-2

> <Gold.Version>
5.8.1

> <Gold.Id.Protein>
6NUR|6NUR_protein|mol2

> <Gold.PLP.Fitness>
48.5512

> <Gold.PLP.PLP>
-44.2635

> <Gold.PLP.part.hbond>
-1.0000

> <Gold.PLP.part.metal>
0.0000

> <Gold.PLP.part.buried>
1.5226

> <Gold.PLP.part.nonpolar>
-44.2563

> <Gold.PLP.part.repulsive>
0.1090

> <Gold.PLP.ligand.clash>
0.0000

> <Gold.PLP.ligand.torsion>
0.8930

> <Gold.PLP.Chemscore.Hbond>
2.0000

> <Gold.PLP.Chemscore.CHOScore>
0.0000

> <Gold.PLP.Chemscore.Metal>
0.0000

> <Gold.Chemscore.Hbonds>
donor molecule, donor type, donor heavy atom, donor atom, acceptor molecule, acceptor atom, score
      L1  H    10    44       P1  8028  2.00

> <Gold.PLP.Chemscore.Internal.Correction>
0.0737

> <Gold.Rescore>
     Score         DG    S(hbond)    S(metal)    S(lipo)     H(rot)  DE(clash)    DE(int)     intcor
     18.33     -19.34       1.00        0.00     122.40       1.48       0.11       0.91       ----

> <Gold.Chemscore.Fitness>
18.3274

> <Gold.Chemscore.DG>
-19.3395

> <Gold.Chemscore.ZeroCoef>
-5.4800

> <Gold.Chemscore.Hbond>
0.9999

> <Gold.Chemscore.Metal>
0.0000

> <Gold.Chemscore.Lipo>
122.4001

> <Gold.Chemscore.Internal_Hbond>
0.0000

> <Gold.Chemscore.DEClash>
0.1057

> <Gold.Chemscore.DEInternal>
0.9064

> <Gold.Chemscore.Rot>
1.4847

> <Gold.Chemscore.Internal.Correction>
   9.000000E+99

> <Gold.Chemscore.Hbonds>
donor molecule, donor type, donor heavy atom, donor atom, acceptor molecule, acceptor atom, score
      L1  H    10    44       P1  8028  0.99

> <Gold.Chemscore.Hbond.Weighted>
-3.3395

> <Gold.Chemscore.Metal.Weighted>
-0.0000

> <Gold.Chemscore.Lipo.Weighted>
-14.3208

> <Gold.Chemscore.Internal_Hbond.Weighted>
0.0000

> <Gold.Chemscore.DEClash.Weighted>
0.1057

> <Gold.Chemscore.DEInternal.Weighted>
0.9064

> <Gold.Chemscore.Rot.Weighted>
3.8008

> <Gold.Chemscore.Internal.Correction.Weighted>
   9.000000E+99

> <Gold.Protein.RotatedTorsions>
[ 6907 6896 6895 6894 ] final    8.16 input  -60.11 | X-H torsion
[ 7974 7965 7964 7962 ] final   53.00 input  175.53 | X-H torsion
[ 8008 7997 7996 7995 ] final   30.21 input   59.86 | X-H torsion
[ 10167 10162 10161 10158 ] final -138.47 input  -65.29 | X-H torsion
[ 10718 10713 10712 10709 ] final  -76.46 input   66.30 | X-H torsion
[ 10763 10752 10751 10750 ] final   96.70 input  -60.55 | X-H torsion
[ 11005 11000 10999 10996 ] final  114.17 input  -57.11 | X-H torsion

> <Gold.Protein.ActiveResidues>
 VAL166  LYS551  ARG553  GLY616  TRP617  ASP618  TYR619  PRO620  LYS621  CYS622 
 ASP623  PHE694  ASN695  SER759  ASP760  ASP761  ALA762  ILE779  LEU786  VAL792 
 PHE793  MET794  SER795  GLU796  ALA797  LYS798  CYS799  TRP800  GLU811  SER814 

> <Gold.Protein.RotatedAtoms>
  151.7015  135.0929  160.0251 H   0  0  0  0  0  0  0  0  0  0  0  0  # atno 6907 bound_to 6896
  152.3717  133.6424  159.6101 H   0  0  0  0  0  0  0  0  0  0  0  0  # atno 6908 bound_to 6896
  150.7679  133.9175  159.3429 H   0  0  0  0  0  0  0  0  0  0  0  0  # atno 6909 bound_to 6896
  145.9756  139.4192  143.0163 H   0  0  0  0  0  0  0  0  0  0  0  0  # atno 7974 bound_to 7965
  155.0868  140.3216  155.4585 H   0  0  0  0  0  0  0  0  0  0  0  0  # atno 8008 bound_to 7997
  156.2753  140.2085  156.5941 H   0  0  0  0  0  0  0  0  0  0  0  0  # atno 8009 bound_to 7997
  154.6935  140.0514  157.0374 H   0  0  0  0  0  0  0  0  0  0  0  0  # atno 8010 bound_to 7997
  139.8475  143.7242  152.2660 H   0  0  0  0  0  0  0  0  0  0  0  0  # atno 10167 bound_to 10162
  156.0174  130.4466  150.3198 H   0  0  0  0  0  0  0  0  0  0  0  0  # atno 10718 bound_to 10713
  153.2681  135.4209  155.0960 H   0  0  0  0  0  0  0  0  0  0  0  0  # atno 10763 bound_to 10752
  154.8445  135.3465  154.6283 H   0  0  0  0  0  0  0  0  0  0  0  0  # atno 10764 bound_to 10752
  153.6703  135.7044  153.5206 H   0  0  0  0  0  0  0  0  0  0  0  0  # atno 10765 bound_to 10752
  139.8973  134.9563  156.6850 H   0  0  0  0  0  0  0  0  0  0  0  0  # atno 11005 bound_to 11000
  145.7843  140.9842  143.1082 LP  0  0  0  0  0  0  0  0  0  0  0  0  # atno 17320 bound_to 7965
  144.6848  139.9603  143.7480 LP  0  0  0  0  0  0  0  0  0  0  0  0  # atno 17321 bound_to 7965
  139.7498  144.7537  151.0524 LP  0  0  0  0  0  0  0  0  0  0  0  0  # atno 17342 bound_to 10162
  140.7791  143.4873  150.9939 LP  0  0  0  0  0  0  0  0  0  0  0  0  # atno 17343 bound_to 10162
  157.1298  131.0269  151.2974 LP  0  0  0  0  0  0  0  0  0  0  0  0  # atno 17370 bound_to 10713
  157.4560  130.7625  149.7193 LP  0  0  0  0  0  0  0  0  0  0  0  0  # atno 17371 bound_to 10713
  140.7269  133.9092  155.8185 LP  0  0  0  0  0  0  0  0  0  0  0  0  # atno 17394 bound_to 11000
  141.0184  134.0924  157.4147 LP  0  0  0  0  0  0  0  0  0  0  0  0  # atno 17395 bound_to 11000

$$$$
