AV-unprocessed.smi:1626|AV-procd|sdf|6508|dock5
  -GOLD-   22720 7173D 1   1.00000     0.00000
 Structure written by MMmdl.
 48 50  0  0  0  0  0  0  0  0  2 V2000
  150.9314  142.2711  158.6830 C   0  0  0  0  0  0  0  0  0  0  0  0
  150.1659  141.7068  157.4992 C   0  0  0  0  0  0  0  0  0  0  0  0
  150.8475  140.8959  156.5643 C   0  0  0  0  0  0  0  0  0  0  0  0
  150.1734  140.3537  155.4485 C   0  0  0  0  0  0  0  0  0  0  0  0
  150.6375  139.5489  154.4226 N   0  0  0  0  0  0  0  0  0  0  0  0
  149.5383  139.3824  153.6937 C   0  0  0  0  0  0  0  0  0  0  0  0
  148.4172  139.9967  154.1188 N   0  0  0  0  0  0  0  0  0  0  0  0
  147.1106  139.9685  153.4854 C   0  0  0  0  0  0  0  0  0  0  0  0
  146.8688  138.6778  152.6766 C   0  0  2  0  0  0  0  0  0  0  0  0
  145.9705  138.9910  151.6312 O   0  0  0  0  0  0  0  0  0  0  0  0
  146.2817  137.5220  153.5187 C   0  0  0  0  0  0  0  0  0  0  0  0
  146.4060  136.2057  152.8422 N   0  3  2  0  0  0  0  0  0  0  0  0
  145.4188  136.0402  151.7446 C   0  0  0  0  0  0  0  0  0  0  0  0
  145.6668  134.7367  150.9637 C   0  0  0  0  0  0  0  0  0  0  0  0
  145.6762  133.5062  151.8856 C   0  0  2  0  0  0  0  0  0  0  0  0
  144.3710  133.2484  152.3634 O   0  0  0  0  0  0  0  0  0  0  0  0
  146.6393  133.7279  153.0638 C   0  0  0  0  0  0  0  0  0  0  0  0
  146.3640  135.0582  153.7883 C   0  0  0  0  0  0  0  0  0  0  0  0
  148.7870  140.6470  155.2919 C   0  0  0  0  0  0  0  0  0  0  0  0
  148.0965  141.4477  156.2191 C   0  0  0  0  0  0  0  0  0  0  0  0
  148.7863  141.9849  157.3258 C   0  0  0  0  0  0  0  0  0  0  0  0
  148.0337  142.8558  158.3162 C   0  0  0  0  0  0  0  0  0  0  0  0
  151.9553  141.8971  158.7099 H   0  0  0  0  0  0  0  0  0  0  0  0
  150.4507  141.9922  159.6209 H   0  0  0  0  0  0  0  0  0  0  0  0
  150.9727  143.3591  158.6247 H   0  0  0  0  0  0  0  0  0  0  0  0
  151.8982  140.6834  156.6968 H   0  0  0  0  0  0  0  0  0  0  0  0
  149.5516  138.7875  152.7920 H   0  0  0  0  0  0  0  0  0  0  0  0
  146.3482  140.0787  154.2583 H   0  0  0  0  0  0  0  0  0  0  0  0
  147.0288  140.8430  152.8383 H   0  0  0  0  0  0  0  0  0  0  0  0
  147.8110  138.3788  152.2207 H   0  0  0  0  0  0  0  0  0  0  0  0
  145.2889  139.5522  151.9673 H   0  0  0  0  0  0  0  0  0  0  0  0
  146.7687  137.4506  154.4919 H   0  0  0  0  0  0  0  0  0  0  0  0
  145.2339  137.7447  153.7265 H   0  0  0  0  0  0  0  0  0  0  0  0
  144.4085  136.0510  152.1567 H   0  0  0  0  0  0  0  0  0  0  0  0
  145.4885  136.8832  151.0562 H   0  0  0  0  0  0  0  0  0  0  0  0
  144.9165  134.6184  150.1809 H   0  0  0  0  0  0  0  0  0  0  0  0
  146.6285  134.8070  150.4537 H   0  0  0  0  0  0  0  0  0  0  0  0
  145.9907  132.6304  151.3169 H   0  0  0  0  0  0  0  0  0  0  0  0
  143.7700  133.8427  151.9396 H   0  0  0  0  0  0  0  0  0  0  0  0
  146.5766  132.8964  153.7669 H   0  0  0  0  0  0  0  0  0  0  0  0
  147.6645  133.7330  152.6911 H   0  0  0  0  0  0  0  0  0  0  0  0
  147.1017  135.1875  154.5793 H   0  0  0  0  0  0  0  0  0  0  0  0
  145.3894  135.0247  154.2776 H   0  0  0  0  0  0  0  0  0  0  0  0
  147.0445  141.6479  156.0810 H   0  0  0  0  0  0  0  0  0  0  0  0
  147.0036  143.0206  157.9988 H   0  0  0  0  0  0  0  0  0  0  0  0
  148.5130  143.8303  158.4114 H   0  0  0  0  0  0  0  0  0  0  0  0
  148.0103  142.3834  159.2985 H   0  0  0  0  0  0  0  0  0  0  0  0
  147.3149  136.1969  152.4025 H   0  0  0  0  0  0  0  0  0  0  0  0
  1  2  1  0  0  0  0
  1 23  1  0  0  0  0
  1 24  1  0  0  0  0
  1 25  1  0  0  0  0
  2 21  1  0  0  0  0
  2  3  2  0  0  0  0
  3  4  1  0  0  0  0
  3 26  1  0  0  0  0
  4 19  2  0  0  0  0
  4  5  1  0  0  0  0
  5  6  2  0  0  0  0
  6  7  1  0  0  0  0
  6 27  1  0  0  0  0
  7  8  1  0  0  0  0
  7 19  1  0  0  0  0
  8  9  1  0  0  0  0
  8 28  1  0  0  0  0
  8 29  1  0  0  0  0
  9 10  1  0  0  0  0
  9 11  1  0  0  0  0
  9 30  1  0  0  0  0
 10 31  1  0  0  0  0
 11 12  1  0  0  0  0
 11 32  1  0  0  0  0
 11 33  1  0  0  0  0
 12 18  1  0  0  0  0
 12 13  1  0  0  0  0
 12 48  1  0  0  0  0
 13 14  1  0  0  0  0
 13 34  1  0  0  0  0
 13 35  1  0  0  0  0
 14 15  1  0  0  0  0
 14 36  1  0  0  0  0
 14 37  1  0  0  0  0
 15 16  1  0  0  0  0
 15 17  1  0  0  0  0
 15 38  1  0  0  0  0
 16 39  1  0  0  0  0
 17 18  1  0  0  0  0
 17 40  1  0  0  0  0
 17 41  1  0  0  0  0
 18 42  1  0  0  0  0
 18 43  1  0  0  0  0
 19 20  1  0  0  0  0
 20 21  2  0  0  0  0
 20 44  1  0  0  0  0
 21 22  1  0  0  0  0
 22 45  1  0  0  0  0
 22 46  1  0  0  0  0
 22 47  1  0  0  0  0
M  CHG  1  12   1
M  END
> <s_m_source_file>
AV-unprocessed.smi

> <i_m_source_file_index>
1626

> <i_lp_mmshare_version>
43012

> <i_f3d_flags>
0

> <s_epik_input>
W0NIM11jKFtjSF0xKWMoW0NIM10pW2NIXWMoYzEyKW4oW2NIXW4yKVtDSDJdW0NASF0oW09IXSlbQ0gyXU4zW0NIMl1bQ0gyXVtDSF0oW09IXSlbQ0gyXVtDSDJdMw==

> <s_epik_cmdline>
J2VwaWtfcHl0aG9uJywgJy1waCcsICc3LjAnLCAnLXRuJywgJzgnLCAnLW1hJywgJzIwMCcsICctbWV0YWxfYmluZGluZycsICctaW1hZScsICc8aW5maWxlLm1hZT4nLCAnLW9tYWUnLCAnPG91dGZpbGUubWFlPic=

> <r_epik_Ionization_Penalty>
0.106584

> <r_epik_Ionization_Penalty_Charging>
0.0185694

> <r_epik_Ionization_Penalty_Neutral>
0.0880147

> <r_epik_State_Penalty>
0.0908428

> <r_epik_Charging_Adjusted_Penalty>
0.109412

> <i_epik_Tot_Q>
1

> <i_epik_Tot_abs_Q>
1

> <r_epik_Metal_State_Penalty>
0.0153739

> <b_epik_Metal_Only>
0

> <s_lp_Force_Field>
OPLS_2005

> <r_lp_Energy>
24.9536

> <b_lp_Chiralities_Consistent>
1

> <s_lp_Variant>
AV-unprocessed.smi:1626-3

> <Gold.Version>
5.8.1

> <Gold.Id.Protein>
6NUR|6NUR_protein|mol2

> <Gold.PLP.Fitness>
47.3533

> <Gold.PLP.PLP>
-34.4128

> <Gold.PLP.part.hbond>
-4.1299

> <Gold.PLP.part.metal>
0.0000

> <Gold.PLP.part.buried>
-1.9566

> <Gold.PLP.part.nonpolar>
-29.2996

> <Gold.PLP.part.repulsive>
0.1447

> <Gold.PLP.ligand.clash>
0.0000

> <Gold.PLP.ligand.torsion>
1.0081

> <Gold.PLP.Chemscore.Hbond>
3.8500

> <Gold.PLP.Chemscore.CHOScore>
1.1267

> <Gold.PLP.Chemscore.Metal>
0.0000

> <Gold.Chemscore.Hbonds>
donor molecule, donor type, donor heavy atom, donor atom, acceptor molecule, acceptor atom, score
      L1  H    10    31       P1 10175  1.00
      L1  H    12    48       P1  7948  2.00
      P1  H  7989  7998       L1     5  0.90
      L1  C     6    27       P1  7948  0.48
      L1  C     6    27       P1  7957  0.60

> <Gold.PLP.Chemscore.Internal.Correction>
0.0264

> <Gold.Rescore>
     Score         DG    S(hbond)    S(metal)    S(lipo)     H(rot)  DE(clash)    DE(int)     intcor
     13.97     -16.99       2.82        0.00      76.48       2.67       1.87       1.15       ----

> <Gold.Chemscore.Fitness>
13.9706

> <Gold.Chemscore.DG>
-16.9930

> <Gold.Chemscore.ZeroCoef>
-5.4800

> <Gold.Chemscore.Hbond>
2.8153

> <Gold.Chemscore.Metal>
0.0000

> <Gold.Chemscore.Lipo>
76.4799

> <Gold.Chemscore.Internal_Hbond>
0.0000

> <Gold.Chemscore.DEClash>
1.8737

> <Gold.Chemscore.DEInternal>
1.1487

> <Gold.Chemscore.Rot>
2.6712

> <Gold.Chemscore.Internal.Correction>
   9.000000E+99

> <Gold.Chemscore.Hbonds>
donor molecule, donor type, donor heavy atom, donor atom, acceptor molecule, acceptor atom, score
      L1  H    10    31       P1 10175  0.92
      L1  H    12    48       P1  7948  1.00
      P1  H  7989  7998       L1     5  0.08

> <Gold.Chemscore.Hbond.Weighted>
-9.4032

> <Gold.Chemscore.Metal.Weighted>
-0.0000

> <Gold.Chemscore.Lipo.Weighted>
-8.9482

> <Gold.Chemscore.Internal_Hbond.Weighted>
0.0000

> <Gold.Chemscore.DEClash.Weighted>
1.8737

> <Gold.Chemscore.DEInternal.Weighted>
1.1487

> <Gold.Chemscore.Rot.Weighted>
6.8383

> <Gold.Chemscore.Internal.Correction.Weighted>
   9.000000E+99

> <Gold.Protein.RotatedTorsions>
[ 6907 6896 6895 6894 ] final   15.52 input  -60.11 | X-H torsion
[ 7974 7965 7964 7962 ] final  -80.02 input  175.53 | X-H torsion
[ 8008 7997 7996 7995 ] final -103.01 input   59.86 | X-H torsion
[ 10167 10162 10161 10158 ] final -155.33 input  -65.29 | X-H torsion
[ 10718 10713 10712 10709 ] final   81.92 input   66.30 | X-H torsion
[ 10763 10752 10751 10750 ] final  -84.09 input  -60.55 | X-H torsion
[ 11005 11000 10999 10996 ] final  133.13 input  -57.11 | X-H torsion

> <Gold.Protein.ActiveResidues>
 VAL166  LYS551  ARG553  GLY616  TRP617  ASP618  TYR619  PRO620  LYS621  CYS622 
 ASP623  PHE694  ASN695  SER759  ASP760  ASP761  ALA762  ILE779  LEU786  VAL792 
 PHE793  MET794  SER795  GLU796  ALA797  LYS798  CYS799  TRP800  GLU811  SER814 

> <Gold.Protein.RotatedAtoms>
  151.8194  135.0656  160.0422 H   0  0  0  0  0  0  0  0  0  0  0  0  # atno 6907 bound_to 6896
  152.2962  133.5606  159.5597 H   0  0  0  0  0  0  0  0  0  0  0  0  # atno 6908 bound_to 6896
  150.7252  134.0273  159.3763 H   0  0  0  0  0  0  0  0  0  0  0  0  # atno 6909 bound_to 6896
  145.5655  140.9475  143.1424 H   0  0  0  0  0  0  0  0  0  0  0  0  # atno 7974 bound_to 7965
  154.8648  140.0425  157.1688 H   0  0  0  0  0  0  0  0  0  0  0  0  # atno 8008 bound_to 7997
  154.8802  140.2971  155.5409 H   0  0  0  0  0  0  0  0  0  0  0  0  # atno 8009 bound_to 7997
  156.2999  140.2413  156.3803 H   0  0  0  0  0  0  0  0  0  0  0  0  # atno 8010 bound_to 7997
  139.6940  143.9373  152.2398 H   0  0  0  0  0  0  0  0  0  0  0  0  # atno 10167 bound_to 10162
  157.6845  131.0025  150.2297 H   0  0  0  0  0  0  0  0  0  0  0  0  # atno 10718 bound_to 10713
  154.5954  135.5533  153.7320 H   0  0  0  0  0  0  0  0  0  0  0  0  # atno 10763 bound_to 10752
  153.0133  135.6353  154.1790 H   0  0  0  0  0  0  0  0  0  0  0  0  # atno 10764 bound_to 10752
  154.1730  135.2891  155.3055 H   0  0  0  0  0  0  0  0  0  0  0  0  # atno 10765 bound_to 10752
  139.9833  134.9541  156.9681 H   0  0  0  0  0  0  0  0  0  0  0  0  # atno 11005 bound_to 11000
  144.7462  139.7313  143.7291 LP  0  0  0  0  0  0  0  0  0  0  0  0  # atno 17320 bound_to 7965
  146.1821  139.5019  142.9859 LP  0  0  0  0  0  0  0  0  0  0  0  0  # atno 17321 bound_to 7965
  139.9197  144.6807  150.8475 LP  0  0  0  0  0  0  0  0  0  0  0  0  # atno 17342 bound_to 10162
  140.7691  143.3384  151.2260 LP  0  0  0  0  0  0  0  0  0  0  0  0  # atno 17343 bound_to 10162
  156.2932  130.3748  149.7821 LP  0  0  0  0  0  0  0  0  0  0  0  0  # atno 17370 bound_to 10713
  156.5474  130.8326  151.3288 LP  0  0  0  0  0  0  0  0  0  0  0  0  # atno 17371 bound_to 10713
  140.5053  134.1056  155.7259 LP  0  0  0  0  0  0  0  0  0  0  0  0  # atno 17394 bound_to 11000
  141.1502  133.8983  157.2118 LP  0  0  0  0  0  0  0  0  0  0  0  0  # atno 17395 bound_to 11000

$$$$
