AV-unprocessed.smi:3164|AV-procd|sdf|12079|dock2
  -GOLD-   2272017503D 1   1.00000     0.00000
 Structure written by MMmdl.
 40 41  0  0  0  0  0  0  0  0  3 V2000
  146.2833  129.5171  151.7186 C   0  0  0  0  0  0  0  0  0  0  0  0
  146.4098  130.9668  151.4550 N   0  3  1  0  0  0  0  0  0  0  0  0
  145.2296  131.5248  150.7573 C   0  0  0  0  0  0  0  0  0  0  0  0
  145.4346  133.0229  150.4794 C   0  0  0  0  0  0  0  0  0  0  0  0
  145.6972  133.7025  151.7020 O   0  0  0  0  0  0  0  0  0  0  0  0
  146.8866  133.2423  152.3371 C   0  0  1  0  0  0  0  0  0  0  0  0
  147.1163  134.0937  153.5956 C   0  0  0  0  0  0  0  0  0  0  0  0
  148.5569  134.2653  153.8733 N   0  3  0  0  0  0  0  0  0  0  0  0
  148.8600  134.6416  155.2678 C   0  0  0  0  0  0  0  0  0  0  0  0
  150.3559  134.9344  155.4471 C   0  0  0  0  0  0  0  0  0  0  0  0
  150.6860  136.3956  155.2100 C   0  0  0  0  0  0  0  0  0  0  0  0
  149.6606  137.3411  154.9956 C   0  0  0  0  0  0  0  0  0  0  0  0
  150.0226  138.6843  154.7755 C   0  0  0  0  0  0  0  0  0  0  0  0
  151.3884  139.0271  154.7768 C   0  0  0  0  0  0  0  0  0  0  0  0
  152.3357  138.0080  154.9992 C   0  0  0  0  0  0  0  0  0  0  0  0
  151.9989  136.7169  155.2105 N   0  0  0  0  0  0  0  0  0  0  0  0
  146.7169  131.7469  152.6764 C   0  0  0  0  0  0  0  0  0  0  0  0
  145.4477  129.3107  152.3888 H   0  0  0  0  0  0  0  0  0  0  0  0
  147.1936  129.1282  152.1761 H   0  0  0  0  0  0  0  0  0  0  0  0
  146.1190  128.9710  150.7891 H   0  0  0  0  0  0  0  0  0  0  0  0
  145.0682  130.9911  149.8197 H   0  0  0  0  0  0  0  0  0  0  0  0
  144.3378  131.3775  151.3688 H   0  0  0  0  0  0  0  0  0  0  0  0
  146.2540  133.1817  149.7766 H   0  0  0  0  0  0  0  0  0  0  0  0
  144.5391  133.4468  150.0247 H   0  0  0  0  0  0  0  0  0  0  0  0
  147.7351  133.3669  151.6612 H   0  0  0  0  0  0  0  0  0  0  0  0
  146.6443  135.0709  153.4826 H   0  0  0  0  0  0  0  0  0  0  0  0
  146.6527  133.6110  154.4571 H   0  0  0  0  0  0  0  0  0  0  0  0
  149.0334  133.3992  153.6657 H   0  0  0  0  0  0  0  0  0  0  0  0
  148.2713  135.5197  155.5376 H   0  0  0  0  0  0  0  0  0  0  0  0
  148.5572  133.8322  155.9337 H   0  0  0  0  0  0  0  0  0  0  0  0
  150.6742  134.6539  156.4521 H   0  0  0  0  0  0  0  0  0  0  0  0
  150.9430  134.3249  154.7583 H   0  0  0  0  0  0  0  0  0  0  0  0
  148.6208  137.0483  154.9993 H   0  0  0  0  0  0  0  0  0  0  0  0
  149.2667  139.4373  154.6082 H   0  0  0  0  0  0  0  0  0  0  0  0
  151.7022  140.0472  154.6116 H   0  0  0  0  0  0  0  0  0  0  0  0
  153.3914  138.2353  155.0069 H   0  0  0  0  0  0  0  0  0  0  0  0
  145.9139  131.6144  153.4039 H   0  0  0  0  0  0  0  0  0  0  0  0
  147.6297  131.3620  153.1331 H   0  0  0  0  0  0  0  0  0  0  0  0
  148.9166  134.9867  153.2640 H   0  0  0  0  0  0  0  0  0  0  0  0
  147.1962  131.0782  150.8304 H   0  0  0  0  0  0  0  0  0  0  0  0
  1  2  1  0  0  0  0
  1 18  1  0  0  0  0
  1 19  1  0  0  0  0
  1 20  1  0  0  0  0
  2 17  1  0  0  0  0
  2  3  1  0  0  0  0
  2 40  1  0  0  0  0
  3  4  1  0  0  0  0
  3 21  1  0  0  0  0
  3 22  1  0  0  0  0
  4  5  1  0  0  0  0
  4 23  1  0  0  0  0
  4 24  1  0  0  0  0
  5  6  1  0  0  0  0
  6  7  1  0  0  0  0
  6 17  1  0  0  0  0
  6 25  1  0  0  0  0
  7  8  1  0  0  0  0
  7 26  1  0  0  0  0
  7 27  1  0  0  0  0
  8  9  1  0  0  0  0
  8 28  1  0  0  0  0
  8 39  1  0  0  0  0
  9 10  1  0  0  0  0
  9 29  1  0  0  0  0
  9 30  1  0  0  0  0
 10 11  1  0  0  0  0
 10 31  1  0  0  0  0
 10 32  1  0  0  0  0
 11 16  1  0  0  0  0
 11 12  2  0  0  0  0
 12 13  1  0  0  0  0
 12 33  1  0  0  0  0
 13 14  2  0  0  0  0
 13 34  1  0  0  0  0
 14 15  1  0  0  0  0
 14 35  1  0  0  0  0
 15 16  2  0  0  0  0
 15 36  1  0  0  0  0
 17 37  1  0  0  0  0
 17 38  1  0  0  0  0
M  CHG  1   2   1
M  CHG  1   8   1
M  END
> <s_m_source_file>
AV-unprocessed.smi

> <i_m_source_file_index>
3164

> <i_lp_mmshare_version>
43012

> <i_f3d_flags>
0

> <s_epik_input>
W0NIM11OMVtDSDJdW0NIMl1PW0NASF0oW0NIMl0xKVtDSDJdW05IXVtDSDJdW0NIMl1jMltjSF1bY0hdW2NIXVtjSF1uMg==

> <s_epik_cmdline>
J2VwaWtfcHl0aG9uJywgJy1waCcsICc3LjAnLCAnLXRuJywgJzgnLCAnLW1hJywgJzIwMCcsICctbWV0YWxfYmluZGluZycsICctaW1hZScsICc8aW5maWxlLm1hZT4nLCAnLW9tYWUnLCAnPG91dGZpbGUubWFlPic=

> <r_epik_Ionization_Penalty>
0.294944

> <r_epik_Ionization_Penalty_Charging>
0.29381

> <r_epik_Ionization_Penalty_Neutral>
0.00113372

> <r_epik_State_Penalty>
0.271365

> <r_epik_Charging_Adjusted_Penalty>
0.565175

> <i_epik_Tot_Q>
2

> <i_epik_Tot_abs_Q>
2

> <r_epik_Metal_State_Penalty>
0.271365

> <b_epik_Metal_Only>
0

> <s_lp_Force_Field>
OPLS_2005

> <r_lp_Energy>
20.3644

> <b_lp_Chiralities_Consistent>
1

> <s_lp_Variant>
AV-unprocessed.smi:3164-1

> <Gold.Version>
5.8.1

> <Gold.Id.Protein>
6NUR|6NUR_protein|mol2

> <Gold.PLP.Fitness>
41.7343

> <Gold.PLP.PLP>
-31.1972

> <Gold.PLP.part.hbond>
-3.0000

> <Gold.PLP.part.metal>
0.0000

> <Gold.PLP.part.buried>
-3.7723

> <Gold.PLP.part.nonpolar>
-24.4329

> <Gold.PLP.part.repulsive>
0.2320

> <Gold.PLP.ligand.clash>
0.0000

> <Gold.PLP.ligand.torsion>
0.7626

> <Gold.PLP.Chemscore.Hbond>
4.0000

> <Gold.PLP.Chemscore.CHOScore>
0.0000

> <Gold.PLP.Chemscore.Metal>
0.0000

> <Gold.Chemscore.Hbonds>
donor molecule, donor type, donor heavy atom, donor atom, acceptor molecule, acceptor atom, score
      L1  H     2    40       P1 10747  1.00
      L1  H     8    39       P1  7948  2.00
      P1  H 10752 10763       L1    16  1.00

> <Gold.PLP.Chemscore.Internal.Correction>
0.0624

> <Gold.Rescore>
     Score         DG    S(hbond)    S(metal)    S(lipo)     H(rot)  DE(clash)    DE(int)     intcor
     18.17     -19.02       2.33        0.00      85.06       1.65       0.02       0.83       ----

> <Gold.Chemscore.Fitness>
18.1663

> <Gold.Chemscore.DG>
-19.0166

> <Gold.Chemscore.ZeroCoef>
-5.4800

> <Gold.Chemscore.Hbond>
2.3345

> <Gold.Chemscore.Metal>
0.0000

> <Gold.Chemscore.Lipo>
85.0575

> <Gold.Chemscore.Internal_Hbond>
0.0000

> <Gold.Chemscore.DEClash>
0.0174

> <Gold.Chemscore.DEInternal>
0.8328

> <Gold.Chemscore.Rot>
1.6454

> <Gold.Chemscore.Internal.Correction>
   9.000000E+99

> <Gold.Chemscore.Hbonds>
donor molecule, donor type, donor heavy atom, donor atom, acceptor molecule, acceptor atom, score
      L1  H     2    40       P1 10747  0.98
      L1  H     8    39       P1  7948  0.30
      P1  H 10752 10763       L1    16  0.83

> <Gold.Chemscore.Hbond.Weighted>
-7.7971

> <Gold.Chemscore.Metal.Weighted>
-0.0000

> <Gold.Chemscore.Lipo.Weighted>
-9.9517

> <Gold.Chemscore.Internal_Hbond.Weighted>
0.0000

> <Gold.Chemscore.DEClash.Weighted>
0.0174

> <Gold.Chemscore.DEInternal.Weighted>
0.8328

> <Gold.Chemscore.Rot.Weighted>
4.2122

> <Gold.Chemscore.Internal.Correction.Weighted>
   9.000000E+99

> <Gold.Protein.RotatedTorsions>
[ 6907 6896 6895 6894 ] final  -52.19 input  -60.11 | X-H torsion
[ 7974 7965 7964 7962 ] final  165.93 input  175.53 | X-H torsion
[ 8008 7997 7996 7995 ] final  -82.25 input   59.86 | X-H torsion
[ 10167 10162 10161 10158 ] final -141.19 input  -65.29 | X-H torsion
[ 10718 10713 10712 10709 ] final   73.47 input   66.30 | X-H torsion
[ 10763 10752 10751 10750 ] final   61.13 input  -60.55 | X-H torsion
[ 11005 11000 10999 10996 ] final   87.50 input  -57.11 | X-H torsion

> <Gold.Protein.ActiveResidues>
 VAL166  LYS551  ARG553  GLY616  TRP617  ASP618  TYR619  PRO620  LYS621  CYS622 
 ASP623  PHE694  ASN695  SER759  ASP760  ASP761  ALA762  ILE779  LEU786  VAL792 
 PHE793  MET794  SER795  GLU796  ALA797  LYS798  CYS799  TRP800  GLU811  SER814 

> <Gold.Protein.RotatedAtoms>
  150.8541  134.7875  159.7031 H   0  0  0  0  0  0  0  0  0  0  0  0  # atno 6907 bound_to 6896
  152.4598  134.5207  159.9791 H   0  0  0  0  0  0  0  0  0  0  0  0  # atno 6908 bound_to 6896
  151.5323  133.3409  159.2956 H   0  0  0  0  0  0  0  0  0  0  0  0  # atno 6909 bound_to 6896
  144.7483  139.8541  143.6375 H   0  0  0  0  0  0  0  0  0  0  0  0  # atno 7974 bound_to 7965
  154.6067  140.0636  156.9440 H   0  0  0  0  0  0  0  0  0  0  0  0  # atno 8008 bound_to 7997
  155.2042  140.3317  155.4320 H   0  0  0  0  0  0  0  0  0  0  0  0  # atno 8009 bound_to 7997
  156.2351  140.1859  156.7123 H   0  0  0  0  0  0  0  0  0  0  0  0  # atno 8010 bound_to 7997
  139.8208  143.7576  152.2666 H   0  0  0  0  0  0  0  0  0  0  0  0  # atno 10167 bound_to 10162
  157.6549  130.9630  150.1074 H   0  0  0  0  0  0  0  0  0  0  0  0  # atno 10718 bound_to 10713
  152.9941  135.5512  154.5984 H   0  0  0  0  0  0  0  0  0  0  0  0  # atno 10763 bound_to 10752
  154.5330  135.2815  155.1165 H   0  0  0  0  0  0  0  0  0  0  0  0  # atno 10764 bound_to 10752
  154.2472  135.6405  153.5280 H   0  0  0  0  0  0  0  0  0  0  0  0  # atno 10765 bound_to 10752
  139.8918  134.8426  156.2869 H   0  0  0  0  0  0  0  0  0  0  0  0  # atno 11005 bound_to 11000
  146.1395  139.4448  143.0118 LP  0  0  0  0  0  0  0  0  0  0  0  0  # atno 17320 bound_to 7965
  145.7040  141.0127  143.1489 LP  0  0  0  0  0  0  0  0  0  0  0  0  # atno 17321 bound_to 7965
  139.7754  144.7463  151.0165 LP  0  0  0  0  0  0  0  0  0  0  0  0  # atno 17342 bound_to 10162
  140.7813  143.4600  151.0292 LP  0  0  0  0  0  0  0  0  0  0  0  0  # atno 17343 bound_to 10162
  156.1980  130.3658  149.8825 LP  0  0  0  0  0  0  0  0  0  0  0  0  # atno 17370 bound_to 10713
  156.6736  130.8830  151.3566 LP  0  0  0  0  0  0  0  0  0  0  0  0  # atno 17371 bound_to 10713
  141.0002  133.7156  156.0948 LP  0  0  0  0  0  0  0  0  0  0  0  0  # atno 17394 bound_to 11000
  140.7508  134.4047  157.5541 LP  0  0  0  0  0  0  0  0  0  0  0  0  # atno 17395 bound_to 11000

$$$$
