AV-unprocessed.smi:2973|AV-procd|sdf|11343|dock2
  -GOLD-   2272016253D 1   1.00000     0.00000
 Structure written by MMmdl.
 50 52  0  0  0  0  0  0  0  0  2 V2000
  152.2868  139.1494  158.5049 C   0  0  0  0  0  0  0  0  0  0  0  0
  152.2899  140.6336  158.0811 C   0  0  2  0  0  0  0  0  0  0  0  0
  152.2862  141.5428  159.3294 C   0  0  0  0  0  0  0  0  0  0  0  0
  152.3536  143.0329  158.9583 C   0  0  0  0  0  0  0  0  0  0  0  0
  151.2097  143.4242  158.0130 C   0  0  0  0  0  0  0  0  0  0  0  0
  151.2123  142.5405  156.7564 C   0  0  0  0  0  0  0  0  0  0  0  0
  151.1405  141.0343  157.1055 C   0  0  2  0  0  0  0  0  0  0  0  0
  149.8273  140.6852  157.6217 N   0  0  0  0  0  0  0  0  0  0  0  0
  149.1514  139.8580  156.8140 C   0  0  0  0  0  0  0  0  0  0  0  0
  148.0119  139.4433  157.0179 O   0  0  0  0  0  0  0  0  0  0  0  0
  149.9299  139.5728  155.7541 N   0  0  0  0  0  0  0  0  0  0  0  0
  149.5183  138.7397  154.6173 C   0  0  0  0  0  0  0  0  0  0  0  0
  148.2525  139.2771  153.9363 C   0  0  0  0  0  0  0  0  0  0  0  0
  147.6721  140.2658  154.3869 O   0  0  0  0  0  0  0  0  0  0  0  0
  147.8364  138.6167  152.8443 N   0  0  0  0  0  0  0  0  0  0  0  0
  146.6856  138.9840  152.0217 C   0  0  0  0  0  0  0  0  0  0  0  0
  146.2147  137.8306  151.1119 C   0  0  0  0  0  0  0  0  0  0  0  0
  145.1538  136.9419  151.7392 C   0  0  0  0  0  0  0  0  0  0  0  0
  145.1453  135.5411  151.5614 C   0  0  0  0  0  0  0  0  0  0  0  0
  144.1147  134.7780  152.1480 C   0  0  0  0  0  0  0  0  0  0  0  0
  143.1153  135.4294  152.8996 C   0  0  0  0  0  0  0  0  0  0  0  0
  143.1748  136.8297  153.0497 C   0  0  0  0  0  0  0  0  0  0  0  0
  144.1799  137.5260  152.4746 N   0  3  0  0  0  0  0  0  0  0  0  0
  151.1116  140.1999  155.8318 C   0  0  0  0  0  0  0  0  0  0  0  0
  152.0366  140.1444  155.0208 O   0  0  0  0  0  0  0  0  0  0  0  0
  151.3735  138.8842  159.0377 H   0  0  0  0  0  0  0  0  0  0  0  0
  153.1248  138.9343  159.1683 H   0  0  0  0  0  0  0  0  0  0  0  0
  152.3801  138.4820  157.6483 H   0  0  0  0  0  0  0  0  0  0  0  0
  153.2341  140.8095  157.5628 H   0  0  0  0  0  0  0  0  0  0  0  0
  151.3896  141.3562  159.9222 H   0  0  0  0  0  0  0  0  0  0  0  0
  153.1324  141.2953  159.9715 H   0  0  0  0  0  0  0  0  0  0  0  0
  152.3134  143.6428  159.8613 H   0  0  0  0  0  0  0  0  0  0  0  0
  153.3109  143.2482  158.4824 H   0  0  0  0  0  0  0  0  0  0  0  0
  150.2547  143.3317  158.5315 H   0  0  0  0  0  0  0  0  0  0  0  0
  151.3058  144.4725  157.7289 H   0  0  0  0  0  0  0  0  0  0  0  0
  150.3807  142.8249  156.1091 H   0  0  0  0  0  0  0  0  0  0  0  0
  152.1213  142.7436  156.1881 H   0  0  0  0  0  0  0  0  0  0  0  0
  149.4668  141.0520  158.4906 H   0  0  0  0  0  0  0  0  0  0  0  0
  150.3333  138.6788  153.8934 H   0  0  0  0  0  0  0  0  0  0  0  0
  149.3294  137.7150  154.9407 H   0  0  0  0  0  0  0  0  0  0  0  0
  148.3665  137.8084  152.5510 H   0  0  0  0  0  0  0  0  0  0  0  0
  145.8730  139.2737  152.6880 H   0  0  0  0  0  0  0  0  0  0  0  0
  146.9116  139.8674  151.4222 H   0  0  0  0  0  0  0  0  0  0  0  0
  145.8241  138.2405  150.1796 H   0  0  0  0  0  0  0  0  0  0  0  0
  147.0690  137.2125  150.8334 H   0  0  0  0  0  0  0  0  0  0  0  0
  145.9089  135.0562  150.9707 H   0  0  0  0  0  0  0  0  0  0  0  0
  144.0865  133.7066  152.0141 H   0  0  0  0  0  0  0  0  0  0  0  0
  142.3131  134.8635  153.3502 H   0  0  0  0  0  0  0  0  0  0  0  0
  142.4523  137.4099  153.6049 H   0  0  0  0  0  0  0  0  0  0  0  0
  144.1977  138.5396  152.5898 H   0  0  0  0  0  0  0  0  0  0  0  0
  1  2  1  0  0  0  0
  1 26  1  0  0  0  0
  1 27  1  0  0  0  0
  1 28  1  0  0  0  0
  2  7  1  0  0  0  0
  2  3  1  0  0  0  0
  2 29  1  0  0  0  0
  3  4  1  0  0  0  0
  3 30  1  0  0  0  0
  3 31  1  0  0  0  0
  4  5  1  0  0  0  0
  4 32  1  0  0  0  0
  4 33  1  0  0  0  0
  5  6  1  0  0  0  0
  5 34  1  0  0  0  0
  5 35  1  0  0  0  0
  6  7  1  0  0  0  0
  6 36  1  0  0  0  0
  6 37  1  0  0  0  0
  7 24  1  0  0  0  0
  7  8  1  0  0  0  0
  8  9  1  0  0  0  0
  8 38  1  0  0  0  0
  9 10  2  0  0  0  0
  9 11  1  0  0  0  0
 11 12  1  0  0  0  0
 11 24  1  0  0  0  0
 12 13  1  0  0  0  0
 12 39  1  0  0  0  0
 12 40  1  0  0  0  0
 13 14  2  0  0  0  0
 13 15  1  0  0  0  0
 15 16  1  0  0  0  0
 15 41  1  0  0  0  0
 16 17  1  0  0  0  0
 16 42  1  0  0  0  0
 16 43  1  0  0  0  0
 17 18  1  0  0  0  0
 17 44  1  0  0  0  0
 17 45  1  0  0  0  0
 18 23  1  0  0  0  0
 18 19  2  0  0  0  0
 19 20  1  0  0  0  0
 19 46  1  0  0  0  0
 20 21  2  0  0  0  0
 20 47  1  0  0  0  0
 21 22  1  0  0  0  0
 21 48  1  0  0  0  0
 22 23  2  0  0  0  0
 22 49  1  0  0  0  0
 23 50  1  0  0  0  0
 24 25  2  0  0  0  0
M  CHG  1  23   1
M  END
> <s_m_source_file>
AV-unprocessed.smi

> <i_m_source_file_index>
2973

> <i_lp_mmshare_version>
43012

> <i_f3d_flags>
0

> <s_epik_input>
W0NIMl0xW0NIMl1bQ0gyXVtDSDJdW0NAQEhdKFtDSDNdKVtDQF0xMltOSF1DKD1PKU4oQzI9TylbQ0gyXUMoPU8pW05IXVtDSDJdW0NIMl1jM1tjSF1bY0hdW2NIXVtjSF1uMw==

> <s_epik_cmdline>
J2VwaWtfcHl0aG9uJywgJy1waCcsICc3LjAnLCAnLXRuJywgJzgnLCAnLW1hJywgJzIwMCcsICctbWV0YWxfYmluZGluZycsICctaW1hZScsICc8aW5maWxlLm1hZT4nLCAnLW9tYWUnLCAnPG91dGZpbGUubWFlPic=

> <r_lp_tautomer_probability>
1

> <r_epik_Ionization_Penalty>
1.90043

> <r_epik_Ionization_Penalty_Charging>
1.90039

> <r_epik_Ionization_Penalty_Neutral>
4.65525e-05

> <r_epik_State_Penalty>
2.02162

> <r_epik_Charging_Adjusted_Penalty>
3.922

> <i_epik_Tot_Q>
1

> <i_epik_Tot_abs_Q>
1

> <r_epik_Metal_State_Penalty>
2.06631

> <b_epik_Metal_Only>
0

> <s_lp_Force_Field>
OPLS_2005

> <r_lp_Energy>
26.4657

> <b_lp_Chiralities_Consistent>
1

> <s_lp_Variant>
AV-unprocessed.smi:2973-7

> <Gold.Version>
5.8.1

> <Gold.Id.Protein>
6NUR|6NUR_protein|mol2

> <Gold.PLP.Fitness>
52.6349

> <Gold.PLP.PLP>
-42.3317

> <Gold.PLP.part.hbond>
-5.0000

> <Gold.PLP.part.metal>
0.0000

> <Gold.PLP.part.buried>
1.5407

> <Gold.PLP.part.nonpolar>
-40.0853

> <Gold.PLP.part.repulsive>
0.3380

> <Gold.PLP.ligand.clash>
0.0000

> <Gold.PLP.ligand.torsion>
0.6140

> <Gold.PLP.Chemscore.Hbond>
3.8160

> <Gold.PLP.Chemscore.CHOScore>
0.0000

> <Gold.PLP.Chemscore.Metal>
0.0000

> <Gold.Chemscore.Hbonds>
donor molecule, donor type, donor heavy atom, donor atom, acceptor molecule, acceptor atom, score
      L1  H    15    41       P1  7948  1.00
      L1  H    23    50       P1 10175  2.00
      P1  H  7989  7998       L1    25  0.77

> <Gold.PLP.Chemscore.Internal.Correction>
0.0831

> <Gold.Rescore>
     Score         DG    S(hbond)    S(metal)    S(lipo)     H(rot)  DE(clash)    DE(int)     intcor
     17.67     -21.26       2.69        0.00     100.90       1.96       0.52       3.06       ----

> <Gold.Chemscore.Fitness>
17.6692

> <Gold.Chemscore.DG>
-21.2562

> <Gold.Chemscore.ZeroCoef>
-5.4800

> <Gold.Chemscore.Hbond>
2.6943

> <Gold.Chemscore.Metal>
0.0000

> <Gold.Chemscore.Lipo>
100.8953

> <Gold.Chemscore.Internal_Hbond>
0.0000

> <Gold.Chemscore.DEClash>
0.5237

> <Gold.Chemscore.DEInternal>
3.0633

> <Gold.Chemscore.Rot>
1.9638

> <Gold.Chemscore.Internal.Correction>
   9.000000E+99

> <Gold.Chemscore.Hbonds>
donor molecule, donor type, donor heavy atom, donor atom, acceptor molecule, acceptor atom, score
      L1  H    15    41       P1  7948  1.00
      L1  H    23    50       P1 10175  0.97
      P1  H  7989  7998       L1    25  0.69

> <Gold.Chemscore.Hbond.Weighted>
-8.9989

> <Gold.Chemscore.Metal.Weighted>
-0.0000

> <Gold.Chemscore.Lipo.Weighted>
-11.8048

> <Gold.Chemscore.Internal_Hbond.Weighted>
0.0000

> <Gold.Chemscore.DEClash.Weighted>
0.5237

> <Gold.Chemscore.DEInternal.Weighted>
3.0633

> <Gold.Chemscore.Rot.Weighted>
5.0274

> <Gold.Chemscore.Internal.Correction.Weighted>
   9.000000E+99

> <Gold.Protein.RotatedTorsions>
[ 6907 6896 6895 6894 ] final   19.43 input  -60.11 | X-H torsion
[ 7974 7965 7964 7962 ] final   36.31 input  175.53 | X-H torsion
[ 8008 7997 7996 7995 ] final  -41.02 input   59.86 | X-H torsion
[ 10167 10162 10161 10158 ] final  122.56 input  -65.29 | X-H torsion
[ 10718 10713 10712 10709 ] final  -35.92 input   66.30 | X-H torsion
[ 10763 10752 10751 10750 ] final -160.01 input  -60.55 | X-H torsion
[ 11005 11000 10999 10996 ] final  101.12 input  -57.11 | X-H torsion

> <Gold.Protein.ActiveResidues>
 VAL166  LYS551  ARG553  GLY616  TRP617  ASP618  TYR619  PRO620  LYS621  CYS622 
 ASP623  PHE694  ASN695  SER759  ASP760  ASP761  ALA762  ILE779  LEU786  VAL792 
 PHE793  MET794  SER795  GLU796  ALA797  LYS798  CYS799  TRP800  GLU811  SER814 

> <Gold.Protein.RotatedAtoms>
  151.8807  135.0454  160.0488 H   0  0  0  0  0  0  0  0  0  0  0  0  # atno 6907 bound_to 6896
  152.2515  133.5214  159.5336 H   0  0  0  0  0  0  0  0  0  0  0  0  # atno 6908 bound_to 6896
  150.7085  134.0870  159.3960 H   0  0  0  0  0  0  0  0  0  0  0  0  # atno 6909 bound_to 6896
  146.1220  139.6033  142.9283 H   0  0  0  0  0  0  0  0  0  0  0  0  # atno 7974 bound_to 7965
  154.4007  140.1510  156.3123 H   0  0  0  0  0  0  0  0  0  0  0  0  # atno 8008 bound_to 7997
  155.8604  140.3453  155.5731 H   0  0  0  0  0  0  0  0  0  0  0  0  # atno 8009 bound_to 7997
  155.7886  140.0853  157.2011 H   0  0  0  0  0  0  0  0  0  0  0  0  # atno 8010 bound_to 7997
  139.5851  144.7003  151.3429 H   0  0  0  0  0  0  0  0  0  0  0  0  # atno 10167 bound_to 10162
  156.3329  130.4282  149.7856 H   0  0  0  0  0  0  0  0  0  0  0  0  # atno 10718 bound_to 10713
  154.7426  135.3072  154.8701 H   0  0  0  0  0  0  0  0  0  0  0  0  # atno 10763 bound_to 10752
  153.9511  135.6764  153.4748 H   0  0  0  0  0  0  0  0  0  0  0  0  # atno 10764 bound_to 10752
  153.1024  135.4905  154.8816 H   0  0  0  0  0  0  0  0  0  0  0  0  # atno 10765 bound_to 10752
  139.8772  134.9169  156.4859 H   0  0  0  0  0  0  0  0  0  0  0  0  # atno 11005 bound_to 11000
  145.5445  141.0418  143.2312 LP  0  0  0  0  0  0  0  0  0  0  0  0  # atno 17320 bound_to 7965
  144.7606  139.6965  143.7236 LP  0  0  0  0  0  0  0  0  0  0  0  0  # atno 17321 bound_to 7965
  140.7124  143.7355  150.7592 LP  0  0  0  0  0  0  0  0  0  0  0  0  # atno 17342 bound_to 10162
  140.0897  143.4889  152.2485 LP  0  0  0  0  0  0  0  0  0  0  0  0  # atno 17343 bound_to 10162
  156.5122  130.8177  151.3173 LP  0  0  0  0  0  0  0  0  0  0  0  0  # atno 17370 bound_to 10713
  157.7433  130.9910  150.2586 LP  0  0  0  0  0  0  0  0  0  0  0  0  # atno 17371 bound_to 10713
  140.8693  133.8000  155.9348 LP  0  0  0  0  0  0  0  0  0  0  0  0  # atno 17394 bound_to 11000
  140.8969  134.2427  157.5064 LP  0  0  0  0  0  0  0  0  0  0  0  0  # atno 17395 bound_to 11000

$$$$
