AV-unprocessed.smi:2074|AV-procd|sdf|8452|dock9
  -GOLD-   2272011143D 1   1.00000     0.00000
 Structure written by MMmdl.
 43 44  0  0  0  0  0  0  0  0  1 V2000
  152.9038  137.1202  156.9380 C   0  0  0  0  0  0  0  0  0  0  0  0
  152.0110  138.1958  156.3897 C   0  0  0  0  0  0  0  0  0  0  0  0
  152.5138  139.3926  156.1380 N   0  0  0  0  0  0  0  0  0  0  0  0
  151.4490  140.1621  155.6597 O   0  0  0  0  0  0  0  0  0  0  0  0
  150.3332  139.3894  155.6448 C   0  0  0  0  0  0  0  0  0  0  0  0
  149.0771  140.0373  155.1700 C   0  0  0  0  0  0  0  0  0  0  0  0
  150.6190  138.1286  156.0911 C   0  0  0  0  0  0  0  0  0  0  0  0
  149.6882  136.9508  156.2411 C   0  0  0  0  0  0  0  0  0  0  0  0
  150.1727  135.7791  155.3831 C   0  0  0  0  0  0  0  0  0  0  0  0
  151.3755  135.5300  155.2947 O   0  0  0  0  0  0  0  0  0  0  0  0
  149.2261  135.0756  154.7430 N   0  0  0  0  0  0  0  0  0  0  0  0
  149.4831  133.9774  153.8152 C   0  0  0  0  0  0  0  0  0  0  0  0
  148.2581  133.0323  153.6476 C   0  0  2  0  0  0  0  0  0  0  0  0
  148.7748  131.5933  153.3931 C   0  0  0  0  0  0  0  0  0  0  0  0
  147.2988  133.4830  152.6127 N   0  0  0  0  0  0  0  0  0  0  0  0
  146.4094  134.5493  153.0883 C   0  0  0  0  0  0  0  0  0  0  0  0
  145.3897  134.9943  152.0256 C   0  0  0  0  0  0  0  0  0  0  0  0
  144.6236  133.8769  151.5977 O   0  0  0  0  0  0  0  0  0  0  0  0
  145.4396  132.8473  151.0569 C   0  0  0  0  0  0  0  0  0  0  0  0
  146.4598  132.3872  152.1124 C   0  0  0  0  0  0  0  0  0  0  0  0
  152.6232  136.1413  156.5494 H   0  0  0  0  0  0  0  0  0  0  0  0
  152.8358  137.0786  158.0252 H   0  0  0  0  0  0  0  0  0  0  0  0
  153.9483  137.2916  156.6758 H   0  0  0  0  0  0  0  0  0  0  0  0
  148.2285  139.7274  155.7799 H   0  0  0  0  0  0  0  0  0  0  0  0
  148.8694  139.7632  154.1358 H   0  0  0  0  0  0  0  0  0  0  0  0
  149.1511  141.1237  155.2247 H   0  0  0  0  0  0  0  0  0  0  0  0
  149.6330  136.6150  157.2769 H   0  0  0  0  0  0  0  0  0  0  0  0
  148.6704  137.2233  155.9580 H   0  0  0  0  0  0  0  0  0  0  0  0
  148.2618  135.3428  154.8772 H   0  0  0  0  0  0  0  0  0  0  0  0
  149.7951  134.4250  152.8730 H   0  0  0  0  0  0  0  0  0  0  0  0
  150.3404  133.4126  154.1827 H   0  0  0  0  0  0  0  0  0  0  0  0
  147.7327  133.0175  154.6040 H   0  0  0  0  0  0  0  0  0  0  0  0
  149.5470  131.2936  154.0999 H   0  0  0  0  0  0  0  0  0  0  0  0
  149.1970  131.4977  152.3921 H   0  0  0  0  0  0  0  0  0  0  0  0
  147.9863  130.8494  153.5001 H   0  0  0  0  0  0  0  0  0  0  0  0
  145.8792  134.2180  153.9826 H   0  0  0  0  0  0  0  0  0  0  0  0
  146.9782  135.4341  153.3655 H   0  0  0  0  0  0  0  0  0  0  0  0
  144.7188  135.7483  152.4375 H   0  0  0  0  0  0  0  0  0  0  0  0
  145.8954  135.4480  151.1718 H   0  0  0  0  0  0  0  0  0  0  0  0
  144.8053  132.0136  150.7555 H   0  0  0  0  0  0  0  0  0  0  0  0
  145.9459  133.2053  150.1590 H   0  0  0  0  0  0  0  0  0  0  0  0
  147.0718  131.6158  151.6485 H   0  0  0  0  0  0  0  0  0  0  0  0
  145.9326  131.9164  152.9436 H   0  0  0  0  0  0  0  0  0  0  0  0
  1  2  1  0  0  0  0
  1 21  1  0  0  0  0
  1 22  1  0  0  0  0
  1 23  1  0  0  0  0
  2  7  1  0  0  0  0
  2  3  2  0  0  0  0
  3  4  1  0  0  0  0
  4  5  1  0  0  0  0
  5  6  1  0  0  0  0
  5  7  2  0  0  0  0
  6 24  1  0  0  0  0
  6 25  1  0  0  0  0
  6 26  1  0  0  0  0
  7  8  1  0  0  0  0
  8  9  1  0  0  0  0
  8 27  1  0  0  0  0
  8 28  1  0  0  0  0
  9 10  2  0  0  0  0
  9 11  1  0  0  0  0
 11 12  1  0  0  0  0
 11 29  1  0  0  0  0
 12 13  1  0  0  0  0
 12 30  1  0  0  0  0
 12 31  1  0  0  0  0
 13 14  1  0  0  0  0
 13 15  1  0  0  0  0
 13 32  1  0  0  0  0
 14 33  1  0  0  0  0
 14 34  1  0  0  0  0
 14 35  1  0  0  0  0
 15 20  1  0  0  0  0
 15 16  1  0  0  0  0
 16 17  1  0  0  0  0
 16 36  1  0  0  0  0
 16 37  1  0  0  0  0
 17 18  1  0  0  0  0
 17 38  1  0  0  0  0
 17 39  1  0  0  0  0
 18 19  1  0  0  0  0
 19 20  1  0  0  0  0
 19 40  1  0  0  0  0
 19 41  1  0  0  0  0
 20 42  1  0  0  0  0
 20 43  1  0  0  0  0
M  END
> <s_m_source_file>
AV-unprocessed.smi

> <i_m_source_file_index>
2074

> <i_lp_mmshare_version>
43012

> <i_f3d_flags>
0

> <s_epik_input>
W0NIM11jMW5vYyhbQ0gzXSljMVtDSDJdQyg9TylbTkhdW0NIMl1bQ0BIXShbQ0gzXSlOMltDSDJdW0NIMl1PW0NIMl1bQ0gyXTI=

> <s_epik_cmdline>
J2VwaWtfcHl0aG9uJywgJy1waCcsICc3LjAnLCAnLXRuJywgJzgnLCAnLW1hJywgJzIwMCcsICctbWV0YWxfYmluZGluZycsICctaW1hZScsICc8aW5maWxlLm1hZT4nLCAnLW9tYWUnLCAnPG91dGZpbGUubWFlPic=

> <r_epik_Ionization_Penalty>
0.234179

> <r_epik_Ionization_Penalty_Charging>
0

> <r_epik_Ionization_Penalty_Neutral>
0.234179

> <r_epik_State_Penalty>
0.224936

> <r_epik_Charging_Adjusted_Penalty>
0.224936

> <i_epik_Tot_Q>
0

> <i_epik_Tot_abs_Q>
0

> <r_epik_Metal_State_Penalty>
0.224936

> <b_epik_Metal_Only>
0

> <s_lp_Force_Field>
OPLS_2005

> <r_lp_Energy>
22.7236

> <b_lp_Chiralities_Consistent>
1

> <s_lp_Variant>
AV-unprocessed.smi:2074-1

> <Gold.Version>
5.8.1

> <Gold.Id.Protein>
6NUR|6NUR_protein|mol2

> <Gold.PLP.Fitness>
35.4893

> <Gold.PLP.PLP>
-28.9936

> <Gold.PLP.part.hbond>
-4.0000

> <Gold.PLP.part.metal>
0.0000

> <Gold.PLP.part.buried>
-2.7008

> <Gold.PLP.part.nonpolar>
-22.1114

> <Gold.PLP.part.repulsive>
0.4523

> <Gold.PLP.ligand.clash>
0.0000

> <Gold.PLP.ligand.torsion>
1.2714

> <Gold.PLP.Chemscore.Hbond>
3.0000

> <Gold.PLP.Chemscore.CHOScore>
0.0000

> <Gold.PLP.Chemscore.Metal>
0.0000

> <Gold.Chemscore.Hbonds>
donor molecule, donor type, donor heavy atom, donor atom, acceptor molecule, acceptor atom, score
      P1  H  7989  7998       L1     4  0.37
      P1  H  7997  8008       L1     3  1.00
      P1  H 10752 10764       L1    10  1.00

> <Gold.PLP.Chemscore.Internal.Correction>
0.0384

> <Gold.Rescore>
     Score         DG    S(hbond)    S(metal)    S(lipo)     H(rot)  DE(clash)    DE(int)     intcor
     13.78     -17.55       2.59        0.00      66.72       1.72       0.27       3.50       ----

> <Gold.Chemscore.Fitness>
13.7761

> <Gold.Chemscore.DG>
-17.5485

> <Gold.Chemscore.ZeroCoef>
-5.4800

> <Gold.Chemscore.Hbond>
2.5940

> <Gold.Chemscore.Metal>
0.0000

> <Gold.Chemscore.Lipo>
66.7197

> <Gold.Chemscore.Internal_Hbond>
0.0000

> <Gold.Chemscore.DEClash>
0.2698

> <Gold.Chemscore.DEInternal>
3.5026

> <Gold.Chemscore.Rot>
1.7195

> <Gold.Chemscore.Internal.Correction>
   9.000000E+99

> <Gold.Chemscore.Hbonds>
donor molecule, donor type, donor heavy atom, donor atom, acceptor molecule, acceptor atom, score
      P1  H  7989  7998       L1     4  0.15
      P1  H  7997  8008       L1     3  0.97
      P1  H 10752 10764       L1    10  0.99

> <Gold.Chemscore.Hbond.Weighted>
-8.6641

> <Gold.Chemscore.Metal.Weighted>
-0.0000

> <Gold.Chemscore.Lipo.Weighted>
-7.8062

> <Gold.Chemscore.Internal_Hbond.Weighted>
0.0000

> <Gold.Chemscore.DEClash.Weighted>
0.2698

> <Gold.Chemscore.DEInternal.Weighted>
3.5026

> <Gold.Chemscore.Rot.Weighted>
4.4018

> <Gold.Chemscore.Internal.Correction.Weighted>
   9.000000E+99

> <Gold.Protein.RotatedTorsions>
[ 6907 6896 6895 6894 ] final -156.32 input  -60.11 | X-H torsion
[ 7974 7965 7964 7962 ] final -153.20 input  175.53 | X-H torsion
[ 8008 7997 7996 7995 ] final  -45.75 input   59.86 | X-H torsion
[ 10167 10162 10161 10158 ] final    3.24 input  -65.29 | X-H torsion
[ 10718 10713 10712 10709 ] final -111.01 input   66.30 | X-H torsion
[ 10763 10752 10751 10750 ] final  -49.65 input  -60.55 | X-H torsion
[ 11005 11000 10999 10996 ] final -103.97 input  -57.11 | X-H torsion

> <Gold.Protein.ActiveResidues>
 VAL166  LYS551  ARG553  GLY616  TRP617  ASP618  TYR619  PRO620  LYS621  CYS622 
 ASP623  PHE694  ASN695  SER759  ASP760  ASP761  ALA762  ILE779  LEU786  VAL792 
 PHE793  MET794  SER795  GLU796  ALA797  LYS798  CYS799  TRP800  GLU811  SER814 

> <Gold.Protein.RotatedAtoms>
  151.2859  133.4188  159.2629 H   0  0  0  0  0  0  0  0  0  0  0  0  # atno 6907 bound_to 6896
  151.0320  134.9546  159.8126 H   0  0  0  0  0  0  0  0  0  0  0  0  # atno 6908 bound_to 6896
  152.5347  134.2819  159.9063 H   0  0  0  0  0  0  0  0  0  0  0  0  # atno 6909 bound_to 6896
  144.7753  140.4558  143.5878 H   0  0  0  0  0  0  0  0  0  0  0  0  # atno 7974 bound_to 7965
  154.4003  140.1389  156.3898 H   0  0  0  0  0  0  0  0  0  0  0  0  # atno 8008 bound_to 7997
  155.7925  140.3478  155.5336 H   0  0  0  0  0  0  0  0  0  0  0  0  # atno 8009 bound_to 7997
  155.8565  140.0950  157.1631 H   0  0  0  0  0  0  0  0  0  0  0  0  # atno 8010 bound_to 7997
  140.6596  143.7339  150.7714 H   0  0  0  0  0  0  0  0  0  0  0  0  # atno 10167 bound_to 10162
  156.0623  130.5845  150.8315 H   0  0  0  0  0  0  0  0  0  0  0  0  # atno 10718 bound_to 10713
  154.0976  135.6568  153.4863 H   0  0  0  0  0  0  0  0  0  0  0  0  # atno 10763 bound_to 10752
  153.0300  135.5217  154.7318 H   0  0  0  0  0  0  0  0  0  0  0  0  # atno 10764 bound_to 10752
  154.6461  135.2995  155.0014 H   0  0  0  0  0  0  0  0  0  0  0  0  # atno 10765 bound_to 10752
  141.1121  133.8685  157.1553 H   0  0  0  0  0  0  0  0  0  0  0  0  # atno 11005 bound_to 11000
  145.6204  139.1523  143.3026 LP  0  0  0  0  0  0  0  0  0  0  0  0  # atno 17320 bound_to 7965
  146.1928  140.6314  142.9138 LP  0  0  0  0  0  0  0  0  0  0  0  0  # atno 17321 bound_to 7965
  140.1005  143.4792  152.2428 LP  0  0  0  0  0  0  0  0  0  0  0  0  # atno 17342 bound_to 10162
  139.5826  144.7517  151.3601 LP  0  0  0  0  0  0  0  0  0  0  0  0  # atno 17343 bound_to 10162
  157.5640  131.0946  150.9517 LP  0  0  0  0  0  0  0  0  0  0  0  0  # atno 17370 bound_to 10713
  156.9748  130.5504  149.5292 LP  0  0  0  0  0  0  0  0  0  0  0  0  # atno 17371 bound_to 10713
  140.0022  135.0023  157.0214 LP  0  0  0  0  0  0  0  0  0  0  0  0  # atno 17394 bound_to 11000
  140.4745  134.1352  155.7208 LP  0  0  0  0  0  0  0  0  0  0  0  0  # atno 17395 bound_to 11000

$$$$
