AV-unprocessed.smi:137|AV-procd|sdf|1178|dock9
  -GOLD-   2262018333D 1   1.00000     0.00000
 Structure written by MMmdl.
 51 54  0  0  0  0  0  0  0  0  1 V2000
  147.5735  126.3254  155.5051 C   0  0  0  0  0  0  0  0  0  0  0  0
  148.9621  126.7262  156.0280 C   0  0  1  0  0  0  0  0  0  0  0  0
  149.8740  127.2374  154.8856 C   0  0  0  0  0  0  0  0  0  0  0  0
  149.9167  128.6958  154.7433 N   0  0  0  0  0  0  0  0  0  0  0  0
  148.9646  129.3584  154.0217 C   0  0  0  0  0  0  0  0  0  0  0  0
  148.0349  128.6183  153.3600 N   0  0  0  0  0  0  0  0  0  0  0  0
  147.0752  129.1991  152.6373 C   0  0  0  0  0  0  0  0  0  0  0  0
  146.8601  130.4972  152.4319 N   0  0  0  0  0  0  0  0  0  0  0  0
  147.7855  131.2578  153.0816 C   0  0  0  0  0  0  0  0  0  0  0  0
  148.8573  130.7799  153.8941 C   0  0  0  0  0  0  0  0  0  0  0  0
  149.5621  131.8679  154.4005 N   0  0  0  0  0  0  0  0  0  0  0  0
  148.9496  132.9140  153.9208 C   0  0  0  0  0  0  0  0  0  0  0  0
  147.8890  132.6382  153.0913 N   0  0  0  0  0  0  0  0  0  0  0  0
  147.0229  133.5920  152.4615 C   0  0  0  0  0  0  0  0  0  0  0  0
  145.5022  133.5048  152.6226 C   0  0  0  0  0  0  0  0  0  0  0  0
  145.3064  133.9629  151.1601 C   0  0  0  0  0  0  0  0  0  0  0  0
  144.2855  133.1318  150.3675 C   0  0  0  0  0  0  0  0  0  0  0  0
  142.9760  133.3061  150.8702 O   0  0  0  0  0  0  0  0  0  0  0  0
  144.9418  135.4498  150.9529 C   0  0  0  0  0  0  0  0  0  0  0  0
  144.9564  135.8441  149.5960 O   0  0  0  0  0  0  0  0  0  0  0  0
  146.7834  133.5633  150.9487 C   0  0  0  0  0  0  0  0  0  0  0  0
  150.9894  129.4056  155.4403 C   0  0  0  0  0  0  0  0  0  0  0  0
  150.6708  129.7368  156.9105 C   0  0  0  0  0  0  0  0  0  0  0  0
  150.4696  128.1877  157.9199 S   0  0  2  0  0  0  0  0  0  0  0  0
  151.5278  127.1799  157.4661 O   0  0  0  0  0  0  0  0  0  0  0  0
  148.8165  127.6625  157.2486 C   0  0  0  0  0  0  0  0  0  0  0  0
  147.0069  127.1939  155.1700 H   0  0  0  0  0  0  0  0  0  0  0  0
  146.9894  125.8347  156.2843 H   0  0  0  0  0  0  0  0  0  0  0  0
  147.6495  125.6308  154.6680 H   0  0  0  0  0  0  0  0  0  0  0  0
  149.4200  125.8029  156.3857 H   0  0  0  0  0  0  0  0  0  0  0  0
  150.8904  126.8981  155.0839 H   0  0  0  0  0  0  0  0  0  0  0  0
  149.6233  126.7510  153.9428 H   0  0  0  0  0  0  0  0  0  0  0  0
  146.3825  128.5273  152.1527 H   0  0  0  0  0  0  0  0  0  0  0  0
  149.2626  133.9207  154.1570 H   0  0  0  0  0  0  0  0  0  0  0  0
  147.3861  134.5717  152.7738 H   0  0  0  0  0  0  0  0  0  0  0  0
  145.1653  132.4819  152.7987 H   0  0  0  0  0  0  0  0  0  0  0  0
  145.0930  134.1803  153.3749 H   0  0  0  0  0  0  0  0  0  0  0  0
  144.2785  133.4233  149.3169 H   0  0  0  0  0  0  0  0  0  0  0  0
  144.5353  132.0708  150.3909 H   0  0  0  0  0  0  0  0  0  0  0  0
  142.3794  133.3688  150.1401 H   0  0  0  0  0  0  0  0  0  0  0  0
  143.9471  135.6666  151.3424 H   0  0  0  0  0  0  0  0  0  0  0  0
  145.6354  136.0955  151.4923 H   0  0  0  0  0  0  0  0  0  0  0  0
  145.5483  135.2773  149.1253 H   0  0  0  0  0  0  0  0  0  0  0  0
  147.3761  134.2858  150.3867 H   0  0  0  0  0  0  0  0  0  0  0  0
  146.8908  132.5619  150.5285 H   0  0  0  0  0  0  0  0  0  0  0  0
  151.8944  128.7987  155.4024 H   0  0  0  0  0  0  0  0  0  0  0  0
  151.2513  130.3123  154.8966 H   0  0  0  0  0  0  0  0  0  0  0  0
  151.4961  130.3086  157.3344 H   0  0  0  0  0  0  0  0  0  0  0  0
  149.7773  130.3523  157.0072 H   0  0  0  0  0  0  0  0  0  0  0  0
  148.2146  128.5414  157.0156 H   0  0  0  0  0  0  0  0  0  0  0  0
  148.2923  127.1301  158.0426 H   0  0  0  0  0  0  0  0  0  0  0  0
  1  2  1  0  0  0  0
  1 27  1  0  0  0  0
  1 28  1  0  0  0  0
  1 29  1  0  0  0  0
  2 26  1  0  0  0  0
  2  3  1  0  0  0  0
  2 30  1  0  0  0  0
  3  4  1  0  0  0  0
  3 31  1  0  0  0  0
  3 32  1  0  0  0  0
  4  5  1  0  0  0  0
  4 22  1  0  0  0  0
  5 10  1  0  0  0  0
  5  6  2  0  0  0  0
  6  7  1  0  0  0  0
  7  8  2  0  0  0  0
  7 33  1  0  0  0  0
  8  9  1  0  0  0  0
  9 13  1  0  0  0  0
  9 10  2  0  0  0  0
 10 11  1  0  0  0  0
 11 12  2  0  0  0  0
 12 13  1  0  0  0  0
 12 34  1  0  0  0  0
 13 14  1  0  0  0  0
 14 21  1  0  0  0  0
 14 15  1  0  0  0  0
 14 35  1  0  0  0  0
 15 16  1  0  0  0  0
 15 36  1  0  0  0  0
 15 37  1  0  0  0  0
 16 17  1  0  0  0  0
 16 19  1  0  0  0  0
 16 21  1  0  0  0  0
 17 18  1  0  0  0  0
 17 38  1  0  0  0  0
 17 39  1  0  0  0  0
 18 40  1  0  0  0  0
 19 20  1  0  0  0  0
 19 41  1  0  0  0  0
 19 42  1  0  0  0  0
 20 43  1  0  0  0  0
 21 44  1  0  0  0  0
 21 45  1  0  0  0  0
 22 23  1  0  0  0  0
 22 46  1  0  0  0  0
 22 47  1  0  0  0  0
 23 24  1  0  0  0  0
 23 48  1  0  0  0  0
 23 49  1  0  0  0  0
 24 25  2  0  0  0  0
 24 26  1  0  0  0  0
 26 50  1  0  0  0  0
 26 51  1  0  0  0  0
M  END
> <s_m_source_file>
AV-unprocessed.smi

> <i_m_source_file_index>
137

> <i_lp_mmshare_version>
43012

> <i_f3d_flags>
0

> <s_epik_input>
Tz1bU0BAXShbQ0gyXTEpW0NIMl1bQ0gyXU4oW0NIMl1bQ0BIXTFbQ0gzXSljKG5bY0hdbjIpYyhjMjMpbltjSF1uM1tDSF0oW0NIMl00KVtDSDJdQzQoW0NIMl1bT0hdKVtDSDJdW09IXQ==

> <s_epik_cmdline>
J2VwaWtfcHl0aG9uJywgJy1waCcsICc3LjAnLCAnLXRuJywgJzgnLCAnLW1hJywgJzIwMCcsICctbWV0YWxfYmluZGluZycsICctaW1hZScsICc8aW5maWxlLm1hZT4nLCAnLW9tYWUnLCAnPG91dGZpbGUubWFlPic=

> <r_lp_tautomer_probability>
1

> <r_epik_Ionization_Penalty>
0.000811024

> <r_epik_Ionization_Penalty_Charging>
0

> <r_epik_Ionization_Penalty_Neutral>
0.000811024

> <r_epik_State_Penalty>
0.000429598

> <r_epik_Charging_Adjusted_Penalty>
0.000429598

> <i_epik_Tot_Q>
0

> <i_epik_Tot_abs_Q>
0

> <r_epik_Metal_State_Penalty>
-0

> <b_epik_Metal_Only>
0

> <s_lp_Force_Field>
OPLS_2005

> <r_lp_Energy>
44.8713

> <b_lp_Chiralities_Consistent>
1

> <s_lp_Variant>
AV-unprocessed.smi:137-4

> <Gold.Version>
5.8.1

> <Gold.Id.Protein>
6NUR|6NUR_protein|mol2

> <Gold.PLP.Fitness>
41.0693

> <Gold.PLP.PLP>
-35.1659

> <Gold.PLP.part.hbond>
-3.0000

> <Gold.PLP.part.metal>
0.0000

> <Gold.PLP.part.buried>
-3.7388

> <Gold.PLP.part.nonpolar>
-28.5133

> <Gold.PLP.part.repulsive>
0.5214

> <Gold.PLP.ligand.clash>
0.0000

> <Gold.PLP.ligand.torsion>
0.2399

> <Gold.PLP.Chemscore.Hbond>
1.9840

> <Gold.PLP.Chemscore.CHOScore>
0.0000

> <Gold.PLP.Chemscore.Metal>
0.0000

> <Gold.Chemscore.Hbonds>
donor molecule, donor type, donor heavy atom, donor atom, acceptor molecule, acceptor atom, score
      L1  H    18    40       P1 10186  0.80
      L1  H    20    43       P1  7921  0.91

> <Gold.PLP.Chemscore.Internal.Correction>
0.4312

> <Gold.Rescore>
     Score         DG    S(hbond)    S(metal)    S(lipo)     H(rot)  DE(clash)    DE(int)     intcor
      8.95     -10.64       1.95        0.00      51.27       2.87       0.31       1.38       ----

> <Gold.Chemscore.Fitness>
8.9472

> <Gold.Chemscore.DG>
-10.6449

> <Gold.Chemscore.ZeroCoef>
-5.4800

> <Gold.Chemscore.Hbond>
1.9522

> <Gold.Chemscore.Metal>
0.0000

> <Gold.Chemscore.Lipo>
51.2667

> <Gold.Chemscore.Internal_Hbond>
0.0000

> <Gold.Chemscore.DEClash>
0.3145

> <Gold.Chemscore.DEInternal>
1.3832

> <Gold.Chemscore.Rot>
2.8725

> <Gold.Chemscore.Internal.Correction>
   9.000000E+99

> <Gold.Chemscore.Hbonds>
donor molecule, donor type, donor heavy atom, donor atom, acceptor molecule, acceptor atom, score
      L1  H    18    40       P1 10186  0.80
      L1  H    20    43       P1  7921  0.89

> <Gold.Chemscore.Hbond.Weighted>
-6.5202

> <Gold.Chemscore.Metal.Weighted>
-0.0000

> <Gold.Chemscore.Lipo.Weighted>
-5.9982

> <Gold.Chemscore.Internal_Hbond.Weighted>
0.0000

> <Gold.Chemscore.DEClash.Weighted>
0.3145

> <Gold.Chemscore.DEInternal.Weighted>
1.3832

> <Gold.Chemscore.Rot.Weighted>
7.3535

> <Gold.Chemscore.Internal.Correction.Weighted>
   9.000000E+99

> <Gold.Protein.RotatedTorsions>
[ 6907 6896 6895 6894 ] final  150.61 input  -60.11 | X-H torsion
[ 7974 7965 7964 7962 ] final   34.03 input  175.53 | X-H torsion
[ 8008 7997 7996 7995 ] final   40.07 input   59.86 | X-H torsion
[ 10167 10162 10161 10158 ] final  -21.77 input  -65.29 | X-H torsion
[ 10718 10713 10712 10709 ] final -139.39 input   66.30 | X-H torsion
[ 10763 10752 10751 10750 ] final   -0.62 input  -60.55 | X-H torsion
[ 11005 11000 10999 10996 ] final  124.07 input  -57.11 | X-H torsion

> <Gold.Protein.ActiveResidues>
 VAL166  LYS551  ARG553  GLY616  TRP617  ASP618  TYR619  PRO620  LYS621  CYS622 
 ASP623  PHE694  ASN695  SER759  ASP760  ASP761  ALA762  ILE779  LEU786  VAL792 
 PHE793  MET794  SER795  GLU796  ALA797  LYS798  CYS799  TRP800  GLU811  SER814 

> <Gold.Protein.RotatedAtoms>
  152.1121  133.4306  159.4635 H   0  0  0  0  0  0  0  0  0  0  0  0  # atno 6907 bound_to 6896
  150.6868  134.2636  159.4568 H   0  0  0  0  0  0  0  0  0  0  0  0  # atno 6908 bound_to 6896
  152.0505  134.9656  160.0625 H   0  0  0  0  0  0  0  0  0  0  0  0  # atno 6909 bound_to 6896
  146.1380  139.6321  142.9182 H   0  0  0  0  0  0  0  0  0  0  0  0  # atno 7974 bound_to 7965
  155.2470  140.3349  155.4286 H   0  0  0  0  0  0  0  0  0  0  0  0  # atno 8008 bound_to 7997
  156.2232  140.1818  156.7472 H   0  0  0  0  0  0  0  0  0  0  0  0  # atno 8009 bound_to 7997
  154.5857  140.0646  156.9152 H   0  0  0  0  0  0  0  0  0  0  0  0  # atno 8010 bound_to 7997
  140.7283  143.4596  151.0398 H   0  0  0  0  0  0  0  0  0  0  0  0  # atno 10167 bound_to 10162
  156.3103  130.7478  151.1552 H   0  0  0  0  0  0  0  0  0  0  0  0  # atno 10718 bound_to 10713
  153.3342  135.6977  153.6921 H   0  0  0  0  0  0  0  0  0  0  0  0  # atno 10763 bound_to 10752
  153.5712  135.3516  155.2839 H   0  0  0  0  0  0  0  0  0  0  0  0  # atno 10764 bound_to 10752
  154.8624  135.4272  154.2539 H   0  0  0  0  0  0  0  0  0  0  0  0  # atno 10765 bound_to 10752
  139.9341  134.9640  156.8354 H   0  0  0  0  0  0  0  0  0  0  0  0  # atno 11005 bound_to 11000
  145.5111  141.0435  143.2487 LP  0  0  0  0  0  0  0  0  0  0  0  0  # atno 17320 bound_to 7965
  144.7761  139.6626  143.7174 LP  0  0  0  0  0  0  0  0  0  0  0  0  # atno 17321 bound_to 7965
  139.8280  143.7730  152.3179 LP  0  0  0  0  0  0  0  0  0  0  0  0  # atno 17342 bound_to 10162
  139.7835  144.7436  151.0054 LP  0  0  0  0  0  0  0  0  0  0  0  0  # atno 17343 bound_to 10162
  157.7389  131.0535  150.5264 LP  0  0  0  0  0  0  0  0  0  0  0  0  # atno 17370 bound_to 10713
  156.5403  130.4206  149.6157 LP  0  0  0  0  0  0  0  0  0  0  0  0  # atno 17371 bound_to 10713
  140.6121  134.0072  155.7581 LP  0  0  0  0  0  0  0  0  0  0  0  0  # atno 17394 bound_to 11000
  141.0946  133.9863  157.3181 LP  0  0  0  0  0  0  0  0  0  0  0  0  # atno 17395 bound_to 11000

$$$$
