AV-unprocessed.smi:1379|AV-procd|sdf|5599|dock1
  -GOLD-   22720 5203D 1   1.00000     0.00000
 Structure written by MMmdl.
 35 36  0  0  0  0  0  0  0  0  2 V2000
  137.9013  140.2760  153.5754 C   0  0  0  0  0  0  0  0  0  0  0  0
  138.7288  139.1476  153.3536 O   0  0  0  0  0  0  0  0  0  0  0  0
  138.9857  138.4223  154.5470 C   0  0  0  0  0  0  0  0  0  0  0  0
  139.7761  137.1543  154.2189 C   0  0  0  0  0  0  0  0  0  0  0  0
  139.3123  136.0612  154.5392 O   0  0  0  0  0  0  0  0  0  0  0  0
  140.9686  137.3358  153.6198 N   0  0  0  0  0  0  0  0  0  0  0  0
  141.9151  136.3644  153.1933 C   0  0  0  0  0  0  0  0  0  0  0  0
  142.9700  136.8007  152.3631 C   0  0  0  0  0  0  0  0  0  0  0  0
  143.9295  135.8759  151.9028 C   0  0  0  0  0  0  0  0  0  0  0  0
  143.8149  134.5161  152.2738 C   0  0  0  0  0  0  0  0  0  0  0  0
  144.7142  133.5177  151.8740 N   0  0  0  0  0  0  0  0  0  0  0  0
  144.1104  132.3593  151.2367 C   0  0  0  0  0  0  0  0  0  0  0  0
  145.2589  131.6362  150.5284 C   0  0  0  0  0  0  0  0  0  0  0  0
  146.3469  132.7022  150.3513 C   0  0  0  0  0  0  0  0  0  0  0  0
  145.7592  133.9720  150.9723 C   0  0  0  0  0  0  0  0  0  0  0  0
  142.7861  134.1351  153.0613 N   0  3  0  0  0  0  0  0  0  0  0  0
  141.8470  134.9885  153.5245 C   0  0  0  0  0  0  0  0  0  0  0  0
  137.7437  140.8057  152.6361 H   0  0  0  0  0  0  0  0  0  0  0  0
  138.3607  140.9698  154.2808 H   0  0  0  0  0  0  0  0  0  0  0  0
  136.9256  139.9783  153.9619 H   0  0  0  0  0  0  0  0  0  0  0  0
  139.5631  139.0295  155.2459 H   0  0  0  0  0  0  0  0  0  0  0  0
  138.0472  138.1515  155.0339 H   0  0  0  0  0  0  0  0  0  0  0  0
  141.2407  138.2981  153.4788 H   0  0  0  0  0  0  0  0  0  0  0  0
  143.0498  137.8408  152.0817 H   0  0  0  0  0  0  0  0  0  0  0  0
  144.7410  136.2131  151.2745 H   0  0  0  0  0  0  0  0  0  0  0  0
  143.6262  131.7161  151.9720 H   0  0  0  0  0  0  0  0  0  0  0  0
  143.3568  132.6656  150.5102 H   0  0  0  0  0  0  0  0  0  0  0  0
  145.6353  130.8219  151.1490 H   0  0  0  0  0  0  0  0  0  0  0  0
  144.9383  131.2082  149.5781 H   0  0  0  0  0  0  0  0  0  0  0  0
  147.2505  132.4021  150.8834 H   0  0  0  0  0  0  0  0  0  0  0  0
  146.6131  132.8540  149.3048 H   0  0  0  0  0  0  0  0  0  0  0  0
  145.3420  134.6127  150.1941 H   0  0  0  0  0  0  0  0  0  0  0  0
  146.5179  134.5436  151.5078 H   0  0  0  0  0  0  0  0  0  0  0  0
  141.0805  134.5280  154.1288 H   0  0  0  0  0  0  0  0  0  0  0  0
  142.7121  133.1502  153.3175 H   0  0  0  0  0  0  0  0  0  0  0  0
  1  2  1  0  0  0  0
  1 18  1  0  0  0  0
  1 19  1  0  0  0  0
  1 20  1  0  0  0  0
  2  3  1  0  0  0  0
  3  4  1  0  0  0  0
  3 21  1  0  0  0  0
  3 22  1  0  0  0  0
  4  5  2  0  0  0  0
  4  6  1  0  0  0  0
  6  7  1  0  0  0  0
  6 23  1  0  0  0  0
  7 17  1  0  0  0  0
  7  8  2  0  0  0  0
  8  9  1  0  0  0  0
  8 24  1  0  0  0  0
  9 10  2  0  0  0  0
  9 25  1  0  0  0  0
 10 11  1  0  0  0  0
 10 16  1  0  0  0  0
 11 15  1  0  0  0  0
 11 12  1  0  0  0  0
 12 13  1  0  0  0  0
 12 26  1  0  0  0  0
 12 27  1  0  0  0  0
 13 14  1  0  0  0  0
 13 28  1  0  0  0  0
 13 29  1  0  0  0  0
 14 15  1  0  0  0  0
 14 30  1  0  0  0  0
 14 31  1  0  0  0  0
 15 32  1  0  0  0  0
 15 33  1  0  0  0  0
 16 17  2  0  0  0  0
 16 35  1  0  0  0  0
 17 34  1  0  0  0  0
M  CHG  1  16   1
M  END
> <s_m_source_file>
AV-unprocessed.smi

> <i_m_source_file_index>
1379

> <i_lp_mmshare_version>
43012

> <i_f3d_flags>
0

> <s_epik_input>
W0NIM11PW0NIMl1DKD1PKVtOSF1jMVtjSF1bY0hdYyhuW2NIXTEpTjJbQ0gyXVtDSDJdW0NIMl1bQ0gyXTI=

> <s_epik_cmdline>
J2VwaWtfcHl0aG9uJywgJy1waCcsICc3LjAnLCAnLXRuJywgJzgnLCAnLW1hJywgJzIwMCcsICctbWV0YWxfYmluZGluZycsICctaW1hZScsICc8aW5maWxlLm1hZT4nLCAnLW9tYWUnLCAnPG91dGZpbGUubWFlPic=

> <r_lp_tautomer_probability>
0.999994

> <r_epik_Ionization_Penalty>
1.86748

> <r_epik_Ionization_Penalty_Charging>
1.86748

> <r_epik_Ionization_Penalty_Neutral>
2.87909e-06

> <r_epik_State_Penalty>
1.98622

> <r_epik_Charging_Adjusted_Penalty>
3.8537

> <i_epik_Tot_Q>
1

> <i_epik_Tot_abs_Q>
1

> <r_epik_Metal_State_Penalty>
2.01386

> <b_epik_Metal_Only>
0

> <s_lp_Force_Field>
OPLS_2005

> <r_lp_Energy>
42.4744

> <b_lp_Chiralities_Consistent>
1

> <s_lp_Variant>
AV-unprocessed.smi:1379-2

> <Gold.Version>
5.8.1

> <Gold.Id.Protein>
6NUR|6NUR_protein|mol2

> <Gold.PLP.Fitness>
38.5608

> <Gold.PLP.PLP>
-29.7155

> <Gold.PLP.part.hbond>
-2.0000

> <Gold.PLP.part.metal>
0.0000

> <Gold.PLP.part.buried>
-6.6023

> <Gold.PLP.part.nonpolar>
-22.0922

> <Gold.PLP.part.repulsive>
0.3010

> <Gold.PLP.ligand.clash>
0.0000

> <Gold.PLP.ligand.torsion>
0.0910

> <Gold.PLP.Chemscore.Hbond>
3.0000

> <Gold.PLP.Chemscore.CHOScore>
0.0000

> <Gold.PLP.Chemscore.Metal>
0.0000

> <Gold.Chemscore.Hbonds>
donor molecule, donor type, donor heavy atom, donor atom, acceptor molecule, acceptor atom, score
      L1  H    16    35       P1 10957  1.95
      P1  H 11000 11005       L1     5  0.89

> <Gold.PLP.Chemscore.Internal.Correction>
0.0273

> <Gold.Rescore>
     Score         DG    S(hbond)    S(metal)    S(lipo)     H(rot)  DE(clash)    DE(int)     intcor
     14.01     -15.79       1.95        0.00      63.99       1.44       0.06       1.72       ----

> <Gold.Chemscore.Fitness>
14.0119

> <Gold.Chemscore.DG>
-15.7947

> <Gold.Chemscore.ZeroCoef>
-5.4800

> <Gold.Chemscore.Hbond>
1.9525

> <Gold.Chemscore.Metal>
0.0000

> <Gold.Chemscore.Lipo>
63.9926

> <Gold.Chemscore.Internal_Hbond>
0.0000

> <Gold.Chemscore.DEClash>
0.0580

> <Gold.Chemscore.DEInternal>
1.7248

> <Gold.Chemscore.Rot>
1.4428

> <Gold.Chemscore.Internal.Correction>
   9.000000E+99

> <Gold.Chemscore.Hbonds>
donor molecule, donor type, donor heavy atom, donor atom, acceptor molecule, acceptor atom, score
      L1  H    16    35       P1 10957  0.79
      P1  H 11000 11005       L1     5  0.87

> <Gold.Chemscore.Hbond.Weighted>
-6.5212

> <Gold.Chemscore.Metal.Weighted>
-0.0000

> <Gold.Chemscore.Lipo.Weighted>
-7.4871

> <Gold.Chemscore.Internal_Hbond.Weighted>
0.0000

> <Gold.Chemscore.DEClash.Weighted>
0.0580

> <Gold.Chemscore.DEInternal.Weighted>
1.7248

> <Gold.Chemscore.Rot.Weighted>
3.6937

> <Gold.Chemscore.Internal.Correction.Weighted>
   9.000000E+99

> <Gold.Protein.RotatedTorsions>
[ 6907 6896 6895 6894 ] final  110.87 input  -60.11 | X-H torsion
[ 7974 7965 7964 7962 ] final   24.65 input  175.53 | X-H torsion
[ 8008 7997 7996 7995 ] final  -78.03 input   59.86 | X-H torsion
[ 10167 10162 10161 10158 ] final  132.36 input  -65.29 | X-H torsion
[ 10718 10713 10712 10709 ] final  -93.93 input   66.30 | X-H torsion
[ 10763 10752 10751 10750 ] final -179.69 input  -60.55 | X-H torsion
[ 11005 11000 10999 10996 ] final   70.48 input  -57.11 | X-H torsion

> <Gold.Protein.ActiveResidues>
 VAL166  LYS551  ARG553  GLY616  TRP617  ASP618  TYR619  PRO620  LYS621  CYS622 
 ASP623  PHE694  ASN695  SER759  ASP760  ASP761  ALA762  ILE779  LEU786  VAL792 
 PHE793  MET794  SER795  GLU796  ALA797  LYS798  CYS799  TRP800  GLU811  SER814 

> <Gold.Protein.RotatedAtoms>
  152.4998  133.8738  159.7311 H   0  0  0  0  0  0  0  0  0  0  0  0  # atno 6907 bound_to 6896
  150.9218  133.6863  159.2837 H   0  0  0  0  0  0  0  0  0  0  0  0  # atno 6908 bound_to 6896
  151.4237  135.1005  159.9674 H   0  0  0  0  0  0  0  0  0  0  0  0  # atno 6909 bound_to 6896
  146.1927  139.7575  142.8820 H   0  0  0  0  0  0  0  0  0  0  0  0  # atno 7974 bound_to 7965
  154.5651  140.0701  156.8879 H   0  0  0  0  0  0  0  0  0  0  0  0  # atno 8008 bound_to 7997
  155.2738  140.3367  155.4245 H   0  0  0  0  0  0  0  0  0  0  0  0  # atno 8009 bound_to 7997
  156.2074  140.1745  156.7756 H   0  0  0  0  0  0  0  0  0  0  0  0  # atno 8010 bound_to 7997
  139.5343  144.6665  151.4841 H   0  0  0  0  0  0  0  0  0  0  0  0  # atno 10167 bound_to 10162
  156.0020  130.5047  150.5850 H   0  0  0  0  0  0  0  0  0  0  0  0  # atno 10718 bound_to 10713
  154.5319  135.2800  155.1172 H   0  0  0  0  0  0  0  0  0  0  0  0  # atno 10763 bound_to 10752
  154.2689  135.6307  153.5306 H   0  0  0  0  0  0  0  0  0  0  0  0  # atno 10764 bound_to 10752
  152.9959  135.5623  154.5835 H   0  0  0  0  0  0  0  0  0  0  0  0  # atno 10765 bound_to 10752
  139.9595  134.7085  156.0677 H   0  0  0  0  0  0  0  0  0  0  0  0  # atno 11005 bound_to 11000
  145.3741  141.0348  143.3214 LP  0  0  0  0  0  0  0  0  0  0  0  0  # atno 17320 bound_to 7965
  144.8518  139.5309  143.6852 LP  0  0  0  0  0  0  0  0  0  0  0  0  # atno 17321 bound_to 7965
  140.6540  143.8638  150.6815 LP  0  0  0  0  0  0  0  0  0  0  0  0  # atno 17342 bound_to 10162
  140.2011  143.3958  152.1790 LP  0  0  0  0  0  0  0  0  0  0  0  0  # atno 17343 bound_to 10162
  157.3724  131.0768  151.1546 LP  0  0  0  0  0  0  0  0  0  0  0  0  # atno 17370 bound_to 10713
  157.2295  130.6519  149.5844 LP  0  0  0  0  0  0  0  0  0  0  0  0  # atno 17371 bound_to 10713
  141.1271  133.6596  156.3365 LP  0  0  0  0  0  0  0  0  0  0  0  0  # atno 17394 bound_to 11000
  140.5532  134.6007  157.5413 LP  0  0  0  0  0  0  0  0  0  0  0  0  # atno 17395 bound_to 11000

$$$$
