AV-unprocessed.smi:3142|AV-procd|sdf|11972|dock3
  -GOLD-   2272017373D 1   1.00000     0.00000
 Structure written by MMmdl.
 37 39  0  0  0  0  0  0  0  0  2 V2000
  152.5035  139.0540  155.9157 C   0  0  0  0  0  0  0  0  0  0  0  0
  151.5043  140.2031  155.6795 C   0  0  2  0  0  0  0  0  0  0  0  0
  151.0252  140.8442  156.9904 C   0  0  0  0  0  0  0  0  0  0  0  0
  149.8316  140.8232  157.2925 O   0  0  0  0  0  0  0  0  0  0  0  0
  151.9691  141.4264  157.7470 N   0  0  0  0  0  0  0  0  0  0  0  0
  151.7398  142.1271  159.0059 C   0  0  0  0  0  0  0  0  0  0  0  0
  151.0277  143.4483  158.7819 C   0  0  0  0  0  0  0  0  0  0  0  0
  151.7009  144.5972  158.0697 C   0  0  0  0  0  0  0  0  0  0  0  0
  151.4213  144.6848  159.5533 C   0  0  0  0  0  0  0  0  0  0  0  0
  153.0202  142.3442  159.7953 C   0  0  0  0  0  0  0  0  0  0  0  0
  153.5547  141.2925  160.7383 C   0  0  0  0  0  0  0  0  0  0  0  0
  152.9903  142.5829  161.2869 C   0  0  0  0  0  0  0  0  0  0  0  0
  150.3528  139.7736  154.8682 N   0  0  0  0  0  0  0  0  0  0  0  0
  149.2215  140.5012  154.5957 C   0  0  0  0  0  0  0  0  0  0  0  0
  148.4144  139.7021  153.8278 C   0  0  0  0  0  0  0  0  0  0  0  0
  149.0806  138.5172  153.6680 N   0  3  0  0  0  0  0  0  0  0  0  0
  150.2558  138.5600  154.3032 C   0  0  0  0  0  0  0  0  0  0  0  0
  153.3730  139.4006  156.4754 H   0  0  0  0  0  0  0  0  0  0  0  0
  152.8656  138.6533  154.9684 H   0  0  0  0  0  0  0  0  0  0  0  0
  152.0600  138.2292  156.4748 H   0  0  0  0  0  0  0  0  0  0  0  0
  152.0232  140.9703  155.1022 H   0  0  0  0  0  0  0  0  0  0  0  0
  152.9238  141.3911  157.4203 H   0  0  0  0  0  0  0  0  0  0  0  0
  151.0768  141.5143  159.6205 H   0  0  0  0  0  0  0  0  0  0  0  0
  149.9627  143.3368  158.5858 H   0  0  0  0  0  0  0  0  0  0  0  0
  152.7376  144.4728  157.7644 H   0  0  0  0  0  0  0  0  0  0  0  0
  151.0888  145.2033  157.4052 H   0  0  0  0  0  0  0  0  0  0  0  0
  150.6233  145.3498  159.8772 H   0  0  0  0  0  0  0  0  0  0  0  0
  152.2710  144.6121  160.2291 H   0  0  0  0  0  0  0  0  0  0  0  0
  153.7728  142.9093  159.2480 H   0  0  0  0  0  0  0  0  0  0  0  0
  152.9660  140.3888  160.8820 H   0  0  0  0  0  0  0  0  0  0  0  0
  154.6336  141.1572  160.7777 H   0  0  0  0  0  0  0  0  0  0  0  0
  153.6929  143.3069  161.6943 H   0  0  0  0  0  0  0  0  0  0  0  0
  152.0295  142.5286  161.7949 H   0  0  0  0  0  0  0  0  0  0  0  0
  149.0771  141.5084  154.9591 H   0  0  0  0  0  0  0  0  0  0  0  0
  147.4398  139.8819  153.3975 H   0  0  0  0  0  0  0  0  0  0  0  0
  150.9819  137.7677  154.3539 H   0  0  0  0  0  0  0  0  0  0  0  0
  148.7346  137.7202  153.1486 H   0  0  0  0  0  0  0  0  0  0  0  0
  1  2  1  0  0  0  0
  1 18  1  0  0  0  0
  1 19  1  0  0  0  0
  1 20  1  0  0  0  0
  2  3  1  0  0  0  0
  2 13  1  0  0  0  0
  2 21  1  0  0  0  0
  3  4  2  0  0  0  0
  3  5  1  0  0  0  0
  5  6  1  0  0  0  0
  5 22  1  0  0  0  0
  6  7  1  0  0  0  0
  6 10  1  0  0  0  0
  6 23  1  0  0  0  0
  7  9  1  0  0  0  0
  7  8  1  0  0  0  0
  7 24  1  0  0  0  0
  8  9  1  0  0  0  0
  8 25  1  0  0  0  0
  8 26  1  0  0  0  0
  9 27  1  0  0  0  0
  9 28  1  0  0  0  0
 10 12  1  0  0  0  0
 10 11  1  0  0  0  0
 10 29  1  0  0  0  0
 11 12  1  0  0  0  0
 11 30  1  0  0  0  0
 11 31  1  0  0  0  0
 12 32  1  0  0  0  0
 12 33  1  0  0  0  0
 13 17  1  0  0  0  0
 13 14  1  0  0  0  0
 14 15  2  0  0  0  0
 14 34  1  0  0  0  0
 15 16  1  0  0  0  0
 15 35  1  0  0  0  0
 16 17  2  0  0  0  0
 16 37  1  0  0  0  0
 17 36  1  0  0  0  0
M  CHG  1  16   1
M  END
> <s_m_source_file>
AV-unprocessed.smi

> <i_m_source_file_index>
3142

> <i_lp_mmshare_version>
43012

> <i_f3d_flags>
0

> <s_epik_input>
W2NIXTFuW2NIXVtjSF1uMVtDQEhdKFtDSDNdKUMoPU8pW05IXVtDSF0oW0NIXTJbQ0gyXVtDSDJdMilbQ0hdM1tDSDJdW0NIMl0z

> <s_epik_cmdline>
J2VwaWtfcHl0aG9uJywgJy1waCcsICc3LjAnLCAnLXRuJywgJzgnLCAnLW1hJywgJzIwMCcsICctbWV0YWxfYmluZGluZycsICctaW1hZScsICc8aW5maWxlLm1hZT4nLCAnLW9tYWUnLCAnPG91dGZpbGUubWFlPic=

> <r_lp_tautomer_probability>
1

> <r_epik_Ionization_Penalty>
0.513834

> <r_epik_Ionization_Penalty_Charging>
0

> <r_epik_Ionization_Penalty_Neutral>
0.513834

> <r_epik_State_Penalty>
0.521297

> <r_epik_Charging_Adjusted_Penalty>
0.521297

> <i_epik_Tot_Q>
1

> <i_epik_Tot_abs_Q>
1

> <r_epik_Metal_State_Penalty>
0.730424

> <b_epik_Metal_Only>
0

> <s_lp_Force_Field>
OPLS_2005

> <r_lp_Energy>
30.7563

> <b_lp_Chiralities_Consistent>
1

> <s_lp_Variant>
AV-unprocessed.smi:3142-3

> <Gold.Version>
5.8.1

> <Gold.Id.Protein>
6NUR|6NUR_protein|mol2

> <Gold.PLP.Fitness>
47.5719

> <Gold.PLP.PLP>
-42.5214

> <Gold.PLP.part.hbond>
-2.0000

> <Gold.PLP.part.metal>
0.0000

> <Gold.PLP.part.buried>
1.4471

> <Gold.PLP.part.nonpolar>
-40.7293

> <Gold.PLP.part.repulsive>
0.1798

> <Gold.PLP.ligand.clash>
0.0000

> <Gold.PLP.ligand.torsion>
1.5618

> <Gold.PLP.Chemscore.Hbond>
1.9840

> <Gold.PLP.Chemscore.CHOScore>
0.0000

> <Gold.PLP.Chemscore.Metal>
0.0000

> <Gold.Chemscore.Hbonds>
donor molecule, donor type, donor heavy atom, donor atom, acceptor molecule, acceptor atom, score
      L1  H    16    37       P1  7948  2.00

> <Gold.PLP.Chemscore.Internal.Correction>
2.2221

> <Gold.Rescore>
     Score         DG    S(hbond)    S(metal)    S(lipo)     H(rot)  DE(clash)    DE(int)     intcor
     12.60     -15.49       0.90        0.00     101.94       1.92       0.06       2.84       ----

> <Gold.Chemscore.Fitness>
12.5950

> <Gold.Chemscore.DG>
-15.4882

> <Gold.Chemscore.ZeroCoef>
-5.4800

> <Gold.Chemscore.Hbond>
0.8996

> <Gold.Chemscore.Metal>
0.0000

> <Gold.Chemscore.Lipo>
101.9403

> <Gold.Chemscore.Internal_Hbond>
0.0000

> <Gold.Chemscore.DEClash>
0.0551

> <Gold.Chemscore.DEInternal>
2.8381

> <Gold.Chemscore.Rot>
1.9232

> <Gold.Chemscore.Internal.Correction>
   9.000000E+99

> <Gold.Chemscore.Hbonds>
donor molecule, donor type, donor heavy atom, donor atom, acceptor molecule, acceptor atom, score
      L1  H    16    37       P1  7948  0.94

> <Gold.Chemscore.Hbond.Weighted>
-3.0045

> <Gold.Chemscore.Metal.Weighted>
-0.0000

> <Gold.Chemscore.Lipo.Weighted>
-11.9270

> <Gold.Chemscore.Internal_Hbond.Weighted>
0.0000

> <Gold.Chemscore.DEClash.Weighted>
0.0551

> <Gold.Chemscore.DEInternal.Weighted>
2.8381

> <Gold.Chemscore.Rot.Weighted>
4.9233

> <Gold.Chemscore.Internal.Correction.Weighted>
   9.000000E+99

> <Gold.Protein.RotatedTorsions>
[ 6907 6896 6895 6894 ] final  -66.53 input  -60.11 | X-H torsion
[ 7974 7965 7964 7962 ] final -104.99 input  175.53 | X-H torsion
[ 8008 7997 7996 7995 ] final   26.40 input   59.86 | X-H torsion
[ 10167 10162 10161 10158 ] final  -66.87 input  -65.29 | X-H torsion
[ 10718 10713 10712 10709 ] final  161.41 input   66.30 | X-H torsion
[ 10763 10752 10751 10750 ] final -172.45 input  -60.55 | X-H torsion
[ 11005 11000 10999 10996 ] final  -90.93 input  -57.11 | X-H torsion

> <Gold.Protein.ActiveResidues>
 VAL166  LYS551  ARG553  GLY616  TRP617  ASP618  TYR619  PRO620  LYS621  CYS622 
 ASP623  PHE694  ASN695  SER759  ASP760  ASP761  ALA762  ILE779  LEU786  VAL792 
 PHE793  MET794  SER795  GLU796  ALA797  LYS798  CYS799  TRP800  GLU811  SER814 

> <Gold.Protein.RotatedAtoms>
  150.7460  134.6008  159.6035 H   0  0  0  0  0  0  0  0  0  0  0  0  # atno 6907 bound_to 6896
  152.3370  134.7182  160.0283 H   0  0  0  0  0  0  0  0  0  0  0  0  # atno 6908 bound_to 6896
  151.7647  133.3300  159.3464 H   0  0  0  0  0  0  0  0  0  0  0  0  # atno 6909 bound_to 6896
  145.2362  140.9188  143.3176 H   0  0  0  0  0  0  0  0  0  0  0  0  # atno 7974 bound_to 7965
  155.0267  140.3154  155.4773 H   0  0  0  0  0  0  0  0  0  0  0  0  # atno 8008 bound_to 7997
  156.2882  140.2187  156.5329 H   0  0  0  0  0  0  0  0  0  0  0  0  # atno 8009 bound_to 7997
  154.7405  140.0474  157.0795 H   0  0  0  0  0  0  0  0  0  0  0  0  # atno 8010 bound_to 7997
  140.5625  143.2313  151.6700 H   0  0  0  0  0  0  0  0  0  0  0  0  # atno 10167 bound_to 10162
  157.1368  131.0530  151.2345 H   0  0  0  0  0  0  0  0  0  0  0  0  # atno 10718 bound_to 10713
  154.6192  135.2873  155.0345 H   0  0  0  0  0  0  0  0  0  0  0  0  # atno 10763 bound_to 10752
  154.1547  135.6498  153.4975 H   0  0  0  0  0  0  0  0  0  0  0  0  # atno 10764 bound_to 10752
  153.0228  135.5364  154.6975 H   0  0  0  0  0  0  0  0  0  0  0  0  # atno 10765 bound_to 10752
  141.1555  133.7723  156.9807 H   0  0  0  0  0  0  0  0  0  0  0  0  # atno 11005 bound_to 11000
  144.9631  139.3959  143.6346 LP  0  0  0  0  0  0  0  0  0  0  0  0  # atno 17320 bound_to 7965
  146.3340  139.8694  142.8842 LP  0  0  0  0  0  0  0  0  0  0  0  0  # atno 17321 bound_to 7965
  139.5077  144.3638  152.0537 LP  0  0  0  0  0  0  0  0  0  0  0  0  # atno 17342 bound_to 10162
  140.2766  144.3906  150.6133 LP  0  0  0  0  0  0  0  0  0  0  0  0  # atno 17343 bound_to 10162
  157.4343  130.7508  149.7016 LP  0  0  0  0  0  0  0  0  0  0  0  0  # atno 17370 bound_to 10713
  155.9796  130.4038  150.3575 LP  0  0  0  0  0  0  0  0  0  0  0  0  # atno 17371 bound_to 10713
  140.1068  134.9502  157.2005 LP  0  0  0  0  0  0  0  0  0  0  0  0  # atno 17394 bound_to 11000
  140.3246  134.2878  155.7239 LP  0  0  0  0  0  0  0  0  0  0  0  0  # atno 17395 bound_to 11000

$$$$
