AV-unprocessed.smi:1513|AV-procd|sdf|6108|dock3
  -GOLD-   22720 6243D 1   1.00000     0.00000
 Structure written by MMmdl.
 34 35  0  0  0  0  0  0  0  0  1 V2000
  147.9876  141.8920  154.7909 N   0  0  0  0  0  0  0  0  0  0  0  0
  148.7423  140.9550  156.0177 S   0  0  0  0  0  0  0  0  0  0  0  0
  147.7050  140.2490  156.7845 O   0  0  0  0  0  0  0  0  0  0  0  0
  149.8873  140.2417  155.4322 O   0  0  0  0  0  0  0  0  0  0  0  0
  149.3463  142.2404  156.9896 N   0  0  0  0  0  0  0  0  0  0  0  0
  150.7882  142.4634  157.0790 C   0  0  0  0  0  0  0  0  0  0  0  0
  151.1713  143.3019  158.2885 C   0  0  0  0  0  0  0  0  0  0  0  0
  150.7005  144.6272  158.4003 C   0  0  0  0  0  0  0  0  0  0  0  0
  151.0715  145.3937  159.5203 C   0  0  0  0  0  0  0  0  0  0  0  0
  151.9038  144.8018  160.4886 C   0  0  0  0  0  0  0  0  0  0  0  0
  152.3625  143.5361  160.3955 N   0  0  0  0  0  0  0  0  0  0  0  0
  152.0065  142.7957  159.3177 C   0  0  0  0  0  0  0  0  0  0  0  0
  152.4848  141.4771  159.2498 N   0  0  0  0  0  0  0  0  0  0  0  0
  153.5621  141.1523  160.1756 C   0  0  0  0  0  0  0  0  0  0  0  0
  154.1072  139.7491  159.8617 C   0  0  0  0  0  0  0  0  0  0  0  0
  153.0431  138.8027  159.9179 O   0  0  0  0  0  0  0  0  0  0  0  0
  152.0207  139.0858  158.9659 C   0  0  0  0  0  0  0  0  0  0  0  0
  151.4254  140.4782  159.2392 C   0  0  0  0  0  0  0  0  0  0  0  0
  148.0938  142.8939  154.9489 H   0  0  0  0  0  0  0  0  0  0  0  0
  147.0235  141.6053  154.6225 H   0  0  0  0  0  0  0  0  0  0  0  0
  148.7884  143.0925  156.9439 H   0  0  0  0  0  0  0  0  0  0  0  0
  151.2931  141.4973  157.1053 H   0  0  0  0  0  0  0  0  0  0  0  0
  151.1345  142.9682  156.1765 H   0  0  0  0  0  0  0  0  0  0  0  0
  150.0656  145.0543  157.6380 H   0  0  0  0  0  0  0  0  0  0  0  0
  150.7271  146.4111  159.6336 H   0  0  0  0  0  0  0  0  0  0  0  0
  152.2092  145.3593  161.3616 H   0  0  0  0  0  0  0  0  0  0  0  0
  154.3581  141.8933  160.0912 H   0  0  0  0  0  0  0  0  0  0  0  0
  153.1931  141.1844  161.2016 H   0  0  0  0  0  0  0  0  0  0  0  0
  154.5787  139.7254  158.8777 H   0  0  0  0  0  0  0  0  0  0  0  0
  154.8706  139.4703  160.5880 H   0  0  0  0  0  0  0  0  0  0  0  0
  152.4265  139.0286  157.9551 H   0  0  0  0  0  0  0  0  0  0  0  0
  151.2447  138.3240  159.0399 H   0  0  0  0  0  0  0  0  0  0  0  0
  150.9122  140.4830  160.2020 H   0  0  0  0  0  0  0  0  0  0  0  0
  150.6857  140.7258  158.4770 H   0  0  0  0  0  0  0  0  0  0  0  0
  1  2  1  0  0  0  0
  1 19  1  0  0  0  0
  1 20  1  0  0  0  0
  2  3  2  0  0  0  0
  2  4  2  0  0  0  0
  2  5  1  0  0  0  0
  5  6  1  0  0  0  0
  5 21  1  0  0  0  0
  6  7  1  0  0  0  0
  6 22  1  0  0  0  0
  6 23  1  0  0  0  0
  7 12  1  0  0  0  0
  7  8  2  0  0  0  0
  8  9  1  0  0  0  0
  8 24  1  0  0  0  0
  9 10  2  0  0  0  0
  9 25  1  0  0  0  0
 10 11  1  0  0  0  0
 10 26  1  0  0  0  0
 11 12  2  0  0  0  0
 12 13  1  0  0  0  0
 13 18  1  0  0  0  0
 13 14  1  0  0  0  0
 14 15  1  0  0  0  0
 14 27  1  0  0  0  0
 14 28  1  0  0  0  0
 15 16  1  0  0  0  0
 15 29  1  0  0  0  0
 15 30  1  0  0  0  0
 16 17  1  0  0  0  0
 17 18  1  0  0  0  0
 17 31  1  0  0  0  0
 17 32  1  0  0  0  0
 18 33  1  0  0  0  0
 18 34  1  0  0  0  0
M  END
> <s_m_source_file>
AV-unprocessed.smi

> <i_m_source_file_index>
1513

> <i_lp_mmshare_version>
43012

> <i_f3d_flags>
0

> <s_epik_input>
W05IMl1TKD1PKSg9TylbTkhdW0NIMl1jMVtjSF1bY0hdW2NIXW5jMU4yW0NIMl1bQ0gyXU9bQ0gyXVtDSDJdMg==

> <s_epik_cmdline>
J2VwaWtfcHl0aG9uJywgJy1waCcsICc3LjAnLCAnLXRuJywgJzgnLCAnLW1hJywgJzIwMCcsICctbWV0YWxfYmluZGluZycsICctaW1hZScsICc8aW5maWxlLm1hZT4nLCAnLW9tYWUnLCAnPG91dGZpbGUubWFlPic=

> <r_lp_tautomer_probability>
1

> <r_epik_Ionization_Penalty>
0.193648

> <r_epik_Ionization_Penalty_Charging>
0

> <r_epik_Ionization_Penalty_Neutral>
0.193648

> <r_epik_State_Penalty>
0.187016

> <r_epik_Charging_Adjusted_Penalty>
0.187016

> <i_epik_Tot_Q>
0

> <i_epik_Tot_abs_Q>
0

> <r_epik_Metal_State_Penalty>
0.77957

> <b_epik_Metal_Only>
0

> <s_lp_Force_Field>
OPLS_2005

> <r_lp_Energy>
22.2983

> <b_lp_Chiralities_Consistent>
1

> <s_lp_Variant>
AV-unprocessed.smi:1513-1

> <Gold.Version>
5.8.1

> <Gold.Id.Protein>
6NUR|6NUR_protein|mol2

> <Gold.PLP.Fitness>
45.8266

> <Gold.PLP.PLP>
-36.9588

> <Gold.PLP.part.hbond>
-4.0000

> <Gold.PLP.part.metal>
0.0000

> <Gold.PLP.part.buried>
-7.2115

> <Gold.PLP.part.nonpolar>
-25.9349

> <Gold.PLP.part.repulsive>
0.1486

> <Gold.PLP.ligand.clash>
0.0000

> <Gold.PLP.ligand.torsion>
0.3816

> <Gold.PLP.Chemscore.Hbond>
3.1236

> <Gold.PLP.Chemscore.CHOScore>
0.0000

> <Gold.PLP.Chemscore.Metal>
0.0000

> <Gold.Chemscore.Hbonds>
donor molecule, donor type, donor heavy atom, donor atom, acceptor molecule, acceptor atom, score
      L1  H     1    19       P1  8028  0.86
      L1  H     5    21       P1  8028  0.58

> <Gold.PLP.Chemscore.Internal.Correction>
0.2601

> <Gold.Rescore>
     Score         DG    S(hbond)    S(metal)    S(lipo)     H(rot)  DE(clash)    DE(int)     intcor
     17.18     -18.12       2.82        0.00      81.37       2.47       0.24       0.70       ----

> <Gold.Chemscore.Fitness>
17.1808

> <Gold.Chemscore.DG>
-18.1181

> <Gold.Chemscore.ZeroCoef>
-5.4800

> <Gold.Chemscore.Hbond>
2.8245

> <Gold.Chemscore.Metal>
0.0000

> <Gold.Chemscore.Lipo>
81.3682

> <Gold.Chemscore.Internal_Hbond>
0.0000

> <Gold.Chemscore.DEClash>
0.2421

> <Gold.Chemscore.DEInternal>
0.6952

> <Gold.Chemscore.Rot>
2.4671

> <Gold.Chemscore.Internal.Correction>
   9.000000E+99

> <Gold.Chemscore.Hbonds>
donor molecule, donor type, donor heavy atom, donor atom, acceptor molecule, acceptor atom, score
      L1  H     1    19       P1  8028  0.81
      L1  H     5    21       P1  8028  0.41

> <Gold.Chemscore.Hbond.Weighted>
-9.4337

> <Gold.Chemscore.Metal.Weighted>
-0.0000

> <Gold.Chemscore.Lipo.Weighted>
-9.5201

> <Gold.Chemscore.Internal_Hbond.Weighted>
0.0000

> <Gold.Chemscore.DEClash.Weighted>
0.2421

> <Gold.Chemscore.DEInternal.Weighted>
0.6952

> <Gold.Chemscore.Rot.Weighted>
6.3157

> <Gold.Chemscore.Internal.Correction.Weighted>
   9.000000E+99

> <Gold.Protein.RotatedTorsions>
[ 6907 6896 6895 6894 ] final  159.34 input  -60.11 | X-H torsion
[ 7974 7965 7964 7962 ] final   46.29 input  175.53 | X-H torsion
[ 8008 7997 7996 7995 ] final   -6.50 input   59.86 | X-H torsion
[ 10167 10162 10161 10158 ] final  -93.99 input  -65.29 | X-H torsion
[ 10718 10713 10712 10709 ] final  -98.64 input   66.30 | X-H torsion
[ 10763 10752 10751 10750 ] final   -3.38 input  -60.55 | X-H torsion
[ 11005 11000 10999 10996 ] final  174.85 input  -57.11 | X-H torsion

> <Gold.Protein.ActiveResidues>
 VAL166  LYS551  ARG553  GLY616  TRP617  ASP618  TYR619  PRO620  LYS621  CYS622 
 ASP623  PHE694  ASN695  SER759  ASP760  ASP761  ALA762  ILE779  LEU786  VAL792 
 PHE793  MET794  SER795  GLU796  ALA797  LYS798  CYS799  TRP800  GLU811  SER814 

> <Gold.Protein.RotatedAtoms>
  151.9870  133.3777  159.4129 H   0  0  0  0  0  0  0  0  0  0  0  0  # atno 6907 bound_to 6896
  150.6927  134.3977  159.5114 H   0  0  0  0  0  0  0  0  0  0  0  0  # atno 6908 bound_to 6896
  152.1705  134.8838  160.0585 H   0  0  0  0  0  0  0  0  0  0  0  0  # atno 6909 bound_to 6896
  146.0403  139.4872  142.9782 H   0  0  0  0  0  0  0  0  0  0  0  0  # atno 7974 bound_to 7965
  154.5931  140.2431  155.7893 H   0  0  0  0  0  0  0  0  0  0  0  0  # atno 8008 bound_to 7997
  156.2261  140.2982  156.0024 H   0  0  0  0  0  0  0  0  0  0  0  0  # atno 8009 bound_to 7997
  155.2339  140.0404  157.2956 H   0  0  0  0  0  0  0  0  0  0  0  0  # atno 8010 bound_to 7997
  140.3190  143.3060  152.0066 H   0  0  0  0  0  0  0  0  0  0  0  0  # atno 10167 bound_to 10162
  156.0113  130.5247  150.6553 H   0  0  0  0  0  0  0  0  0  0  0  0  # atno 10718 bound_to 10713
  153.3706  135.6994  153.6641 H   0  0  0  0  0  0  0  0  0  0  0  0  # atno 10763 bound_to 10752
  153.5293  135.3595  155.2669 H   0  0  0  0  0  0  0  0  0  0  0  0  # atno 10764 bound_to 10752
  154.8680  135.4176  154.2983 H   0  0  0  0  0  0  0  0  0  0  0  0  # atno 10765 bound_to 10752
  140.3558  134.7155  157.4299 H   0  0  0  0  0  0  0  0  0  0  0  0  # atno 11005 bound_to 11000
  145.6895  141.0168  143.1563 LP  0  0  0  0  0  0  0  0  0  0  0  0  # atno 17320 bound_to 7965
  144.7071  139.8516  143.7426 LP  0  0  0  0  0  0  0  0  0  0  0  0  # atno 17321 bound_to 7965
  139.4878  144.6325  151.7041 LP  0  0  0  0  0  0  0  0  0  0  0  0  # atno 17342 bound_to 10162
  140.5500  144.0441  150.6123 LP  0  0  0  0  0  0  0  0  0  0  0  0  # atno 17343 bound_to 10162
  157.4306  131.0849  151.1042 LP  0  0  0  0  0  0  0  0  0  0  0  0  # atno 17370 bound_to 10713
  157.1616  130.6228  149.5612 LP  0  0  0  0  0  0  0  0  0  0  0  0  # atno 17371 bound_to 10713
  140.0666  134.5921  155.8689 LP  0  0  0  0  0  0  0  0  0  0  0  0  # atno 17394 bound_to 11000
  141.1999  133.6609  156.5866 LP  0  0  0  0  0  0  0  0  0  0  0  0  # atno 17395 bound_to 11000

$$$$
