AV-unprocessed.smi:1888|AV-procd|sdf|7657|dock7
  -GOLD-   22720 9393D 1   1.00000     0.00000
 Structure written by MMmdl.
 44 46  0  0  0  0  0  0  0  0  1 V2000
  157.7490  135.8878  155.0780 C   0  0  0  0  0  0  0  0  0  0  0  0
  157.2616  135.5471  156.4880 C   0  0  0  0  0  0  0  0  0  0  0  0
  155.8441  135.5549  156.4974 O   0  0  0  0  0  0  0  0  0  0  0  0
  155.3080  136.0621  157.7071 C   0  0  0  0  0  0  0  0  0  0  0  0
  153.7766  136.0316  157.6196 C   0  0  0  0  0  0  0  0  0  0  0  0
  153.1925  137.3401  157.8903 N   0  0  0  0  0  0  0  0  0  0  0  0
  153.2613  138.0709  159.0337 C   0  0  0  0  0  0  0  0  0  0  0  0
  153.9523  137.5998  160.1710 N   0  0  0  0  0  0  0  0  0  0  0  0
  154.0914  136.2724  160.3792 N   0  0  0  0  0  0  0  0  0  0  0  0
  154.7623  136.1729  161.5145 C   0  0  0  0  0  0  0  0  0  0  0  0
  155.1067  134.8148  162.0501 C   0  0  0  0  0  0  0  0  0  0  0  0
  155.0649  137.4460  162.0733 C   0  0  0  0  0  0  0  0  0  0  0  0
  154.5266  138.3388  161.1897 C   0  0  0  0  0  0  0  0  0  0  0  0
  154.5105  139.8323  161.2171 C   0  0  0  0  0  0  0  0  0  0  0  0
  152.6428  139.2546  158.9838 N   0  0  0  0  0  0  0  0  0  0  0  0
  152.1233  139.2721  157.6976 C   0  0  0  0  0  0  0  0  0  0  0  0
  152.4400  138.1354  157.0275 C   0  0  0  0  0  0  0  0  0  0  0  0
  152.0152  137.8907  155.6444 C   0  0  0  0  0  0  0  0  0  0  0  0
  152.2905  136.8669  155.0226 O   0  0  0  0  0  0  0  0  0  0  0  0
  151.2861  138.9094  155.1267 N   0  0  0  0  0  0  0  0  0  0  0  0
  150.9306  140.0778  155.7448 C   0  0  0  0  0  0  0  0  0  0  0  0
  150.2564  140.9083  155.1362 O   0  0  0  0  0  0  0  0  0  0  0  0
  151.3509  140.2681  157.0382 N   0  0  0  0  0  0  0  0  0  0  0  0
  151.0210  141.4807  157.7897 C   0  0  0  0  0  0  0  0  0  0  0  0
  150.9663  138.7922  154.1762 H   0  0  0  0  0  0  0  0  0  0  0  0
  158.8380  135.8865  155.0308 H   0  0  0  0  0  0  0  0  0  0  0  0
  157.4017  136.8750  154.7728 H   0  0  0  0  0  0  0  0  0  0  0  0
  157.3813  135.1630  154.3512 H   0  0  0  0  0  0  0  0  0  0  0  0
  157.6345  134.5653  156.7838 H   0  0  0  0  0  0  0  0  0  0  0  0
  157.6478  136.2767  157.2014 H   0  0  0  0  0  0  0  0  0  0  0  0
  155.6523  135.4601  158.5493 H   0  0  0  0  0  0  0  0  0  0  0  0
  155.6579  137.0823  157.8699 H   0  0  0  0  0  0  0  0  0  0  0  0
  153.4628  135.6928  156.6321 H   0  0  0  0  0  0  0  0  0  0  0  0
  153.3671  135.3079  158.3240 H   0  0  0  0  0  0  0  0  0  0  0  0
  155.6024  134.8864  163.0184 H   0  0  0  0  0  0  0  0  0  0  0  0
  155.7769  134.2853  161.3724 H   0  0  0  0  0  0  0  0  0  0  0  0
  154.2125  134.2046  162.1800 H   0  0  0  0  0  0  0  0  0  0  0  0
  155.5967  137.6698  162.9862 H   0  0  0  0  0  0  0  0  0  0  0  0
  155.1166  140.2139  162.0389 H   0  0  0  0  0  0  0  0  0  0  0  0
  153.4948  140.2065  161.3474 H   0  0  0  0  0  0  0  0  0  0  0  0
  154.9070  140.2430  160.2882 H   0  0  0  0  0  0  0  0  0  0  0  0
  150.4910  142.2350  157.2071 H   0  0  0  0  0  0  0  0  0  0  0  0
  151.9326  141.9456  158.1669 H   0  0  0  0  0  0  0  0  0  0  0  0
  150.3951  141.2269  158.6458 H   0  0  0  0  0  0  0  0  0  0  0  0
  1  2  1  0  0  0  0
  1 26  1  0  0  0  0
  1 27  1  0  0  0  0
  1 28  1  0  0  0  0
  2  3  1  0  0  0  0
  2 29  1  0  0  0  0
  2 30  1  0  0  0  0
  3  4  1  0  0  0  0
  4  5  1  0  0  0  0
  4 31  1  0  0  0  0
  4 32  1  0  0  0  0
  5  6  1  0  0  0  0
  5 33  1  0  0  0  0
  5 34  1  0  0  0  0
  6 17  1  0  0  0  0
  6  7  1  0  0  0  0
  7  8  1  0  0  0  0
  7 15  2  0  0  0  0
  8 13  1  0  0  0  0
  8  9  1  0  0  0  0
  9 10  2  0  0  0  0
 10 11  1  0  0  0  0
 10 12  1  0  0  0  0
 11 35  1  0  0  0  0
 11 36  1  0  0  0  0
 11 37  1  0  0  0  0
 12 13  2  0  0  0  0
 12 38  1  0  0  0  0
 13 14  1  0  0  0  0
 14 39  1  0  0  0  0
 14 40  1  0  0  0  0
 14 41  1  0  0  0  0
 15 16  1  0  0  0  0
 16 23  1  0  0  0  0
 16 17  2  0  0  0  0
 17 18  1  0  0  0  0
 18 19  2  0  0  0  0
 18 20  1  0  0  0  0
 20 25  1  0  0  0  0
 20 21  1  0  0  0  0
 21 22  2  0  0  0  0
 21 23  1  0  0  0  0
 23 24  1  0  0  0  0
 24 42  1  0  0  0  0
 24 43  1  0  0  0  0
 24 44  1  0  0  0  0
M  END
> <s_m_source_file>
AV-unprocessed.smi

> <i_m_source_file_index>
1888

> <i_lp_mmshare_version>
43012

> <i_f3d_flags>
0

> <s_epik_input>
W0NIM11uMWMoPU8pW25IXWMoPU8pYyhjMTIpbihbQ0gyXVtDSDJdT1tDSDJdW0NIM10pYyhuMiktbjNuYyhbQ0gzXSlbY0hdYzNbQ0gzXQ==

> <s_epik_cmdline>
J2VwaWtfcHl0aG9uJywgJy1waCcsICc3LjAnLCAnLXRuJywgJzgnLCAnLW1hJywgJzIwMCcsICctbWV0YWxfYmluZGluZycsICctaW1hZScsICc8aW5maWxlLm1hZT4nLCAnLW9tYWUnLCAnPG91dGZpbGUubWFlPic=

> <r_lp_tautomer_probability>
1

> <r_epik_Ionization_Penalty>
0.00155345

> <r_epik_Ionization_Penalty_Charging>
0.000715499

> <r_epik_Ionization_Penalty_Neutral>
0.000837951

> <r_epik_State_Penalty>
-0

> <r_epik_Charging_Adjusted_Penalty>
0.000715499

> <i_epik_Tot_Q>
0

> <i_epik_Tot_abs_Q>
0

> <r_epik_Metal_State_Penalty>
0.258535

> <b_epik_Metal_Only>
0

> <s_lp_Force_Field>
OPLS_2005

> <r_lp_Energy>
26.5558

> <b_lp_Chiralities_Consistent>
1

> <s_lp_Variant>
AV-unprocessed.smi:1888-1

> <Gold.Version>
5.8.1

> <Gold.Id.Protein>
6NUR|6NUR_protein|mol2

> <Gold.PLP.Fitness>
38.2571

> <Gold.PLP.PLP>
-30.1404

> <Gold.PLP.part.hbond>
-3.6436

> <Gold.PLP.part.metal>
0.0000

> <Gold.PLP.part.buried>
-5.3470

> <Gold.PLP.part.nonpolar>
-22.0183

> <Gold.PLP.part.repulsive>
0.3133

> <Gold.PLP.ligand.clash>
0.0000

> <Gold.PLP.ligand.torsion>
0.9114

> <Gold.PLP.Chemscore.Hbond>
3.1797

> <Gold.PLP.Chemscore.CHOScore>
0.0000

> <Gold.PLP.Chemscore.Metal>
0.0000

> <Gold.Chemscore.Hbonds>
donor molecule, donor type, donor heavy atom, donor atom, acceptor molecule, acceptor atom, score
      P1  H  6896  6909       L1     9  0.13
      P1  H  7989  7998       L1    22  0.34
      P1  H 10752 10763       L1     3  1.00
      P1  H 10752 10765       L1    19  0.76

> <Gold.PLP.Chemscore.Internal.Correction>
0.4004

> <Gold.Rescore>
     Score         DG    S(hbond)    S(metal)    S(lipo)     H(rot)  DE(clash)    DE(int)     intcor
     14.30     -16.65       2.79        0.00      53.03       1.70       0.16       2.19       ----

> <Gold.Chemscore.Fitness>
14.2982

> <Gold.Chemscore.DG>
-16.6508

> <Gold.Chemscore.ZeroCoef>
-5.4800

> <Gold.Chemscore.Hbond>
2.7863

> <Gold.Chemscore.Metal>
0.0000

> <Gold.Chemscore.Lipo>
53.0303

> <Gold.Chemscore.Internal_Hbond>
0.0000

> <Gold.Chemscore.DEClash>
0.1605

> <Gold.Chemscore.DEInternal>
2.1921

> <Gold.Chemscore.Rot>
1.6953

> <Gold.Chemscore.Internal.Correction>
   9.000000E+99

> <Gold.Chemscore.Hbonds>
donor molecule, donor type, donor heavy atom, donor atom, acceptor molecule, acceptor atom, score
      P1  H  6896  6909       L1     9  0.14
      P1  H  7989  7998       L1    22  0.02
      P1  H 10752 10763       L1     3  0.88
      P1  H 10752 10765       L1    19  0.73

> <Gold.Chemscore.Hbond.Weighted>
-9.3062

> <Gold.Chemscore.Metal.Weighted>
-0.0000

> <Gold.Chemscore.Lipo.Weighted>
-6.2045

> <Gold.Chemscore.Internal_Hbond.Weighted>
0.0000

> <Gold.Chemscore.DEClash.Weighted>
0.1605

> <Gold.Chemscore.DEInternal.Weighted>
2.1921

> <Gold.Chemscore.Rot.Weighted>
4.3399

> <Gold.Chemscore.Internal.Correction.Weighted>
   9.000000E+99

> <Gold.Protein.RotatedTorsions>
[ 6907 6896 6895 6894 ] final  150.44 input  -60.11 | X-H torsion
[ 7974 7965 7964 7962 ] final   13.25 input  175.53 | X-H torsion
[ 8008 7997 7996 7995 ] final  -93.85 input   59.86 | X-H torsion
[ 10167 10162 10161 10158 ] final  -31.79 input  -65.29 | X-H torsion
[ 10718 10713 10712 10709 ] final -136.90 input   66.30 | X-H torsion
[ 10763 10752 10751 10750 ] final -178.71 input  -60.55 | X-H torsion
[ 11005 11000 10999 10996 ] final -152.37 input  -57.11 | X-H torsion

> <Gold.Protein.ActiveResidues>
 VAL166  LYS551  ARG553  GLY616  TRP617  ASP618  TYR619  PRO620  LYS621  CYS622 
 ASP623  PHE694  ASN695  SER759  ASP760  ASP761  ALA762  ILE779  LEU786  VAL792 
 PHE793  MET794  SER795  GLU796  ALA797  LYS798  CYS799  TRP800  GLU811  SER814 

> <Gold.Protein.RotatedAtoms>
  152.1143  133.4318  159.4645 H   0  0  0  0  0  0  0  0  0  0  0  0  # atno 6907 bound_to 6896
  150.6868  134.2610  159.4558 H   0  0  0  0  0  0  0  0  0  0  0  0  # atno 6908 bound_to 6896
  152.0482  134.9669  160.0625 H   0  0  0  0  0  0  0  0  0  0  0  0  # atno 6909 bound_to 6896
  146.2333  139.9216  142.8509 H   0  0  0  0  0  0  0  0  0  0  0  0  # atno 7974 bound_to 7965
  154.7409  140.0495  157.0810 H   0  0  0  0  0  0  0  0  0  0  0  0  # atno 8008 bound_to 7997
  155.0180  140.3143  155.4785 H   0  0  0  0  0  0  0  0  0  0  0  0  # atno 8009 bound_to 7997
  156.2864  140.2172  156.5297 H   0  0  0  0  0  0  0  0  0  0  0  0  # atno 8010 bound_to 7997
  140.7231  143.3744  151.1717 H   0  0  0  0  0  0  0  0  0  0  0  0  # atno 10167 bound_to 10162
  156.2822  130.7327  151.1327 H   0  0  0  0  0  0  0  0  0  0  0  0  # atno 10718 bound_to 10713
  154.5443  135.2808  155.1067 H   0  0  0  0  0  0  0  0  0  0  0  0  # atno 10763 bound_to 10752
  154.2538  135.6334  153.5253 H   0  0  0  0  0  0  0  0  0  0  0  0  # atno 10764 bound_to 10752
  152.9986  135.5589  154.5990 H   0  0  0  0  0  0  0  0  0  0  0  0  # atno 10765 bound_to 10752
  140.7196  134.3742  157.5185 H   0  0  0  0  0  0  0  0  0  0  0  0  # atno 11005 bound_to 11000
  145.2131  140.9904  143.4089 LP  0  0  0  0  0  0  0  0  0  0  0  0  # atno 17320 bound_to 7965
  144.9674  139.3915  143.6326 LP  0  0  0  0  0  0  0  0  0  0  0  0  # atno 17321 bound_to 7965
  139.7321  143.9056  152.3023 LP  0  0  0  0  0  0  0  0  0  0  0  0  # atno 17342 bound_to 10162
  139.8848  144.6998  150.8836 LP  0  0  0  0  0  0  0  0  0  0  0  0  # atno 17343 bound_to 10162
  157.7318  131.0605  150.5662 LP  0  0  0  0  0  0  0  0  0  0  0  0  # atno 17370 bound_to 10713
  156.5769  130.4294  149.5994 LP  0  0  0  0  0  0  0  0  0  0  0  0  # atno 17371 bound_to 10713
  139.8851  134.8945  156.2661 LP  0  0  0  0  0  0  0  0  0  0  0  0  # atno 17394 bound_to 11000
  141.0015  133.7148  156.0968 LP  0  0  0  0  0  0  0  0  0  0  0  0  # atno 17395 bound_to 11000

$$$$
