AV-unprocessed.smi:1417|AV-procd|sdf|5767|dock7
  -GOLD-   22720 5413D 1   1.00000     0.00000
 Structure written by MMmdl.
 40 41  0  0  0  0  0  0  0  0  2 V2000
  150.7123  141.8433  156.1291 C   0  0  0  0  0  0  0  0  0  0  0  0
  150.4877  140.5283  155.4643 C   0  0  0  0  0  0  0  0  0  0  0  0
  149.3780  139.7499  155.2931 C   0  0  0  0  0  0  0  0  0  0  0  0
  149.8818  138.6317  154.5668 C   0  0  0  0  0  0  0  0  0  0  0  0
  149.1355  137.5084  154.1262 N   0  0  0  0  0  0  0  0  0  0  0  0
  148.1362  136.8696  154.7572 C   0  0  0  0  0  0  0  0  0  0  0  0
  147.6825  137.1676  155.8616 O   0  0  0  0  0  0  0  0  0  0  0  0
  147.6805  135.8421  154.0254 N   0  0  0  0  0  0  0  0  0  0  0  0
  146.5915  134.9446  154.4107 C   0  0  2  0  0  0  0  0  0  0  0  0
  146.9535  133.4653  154.1696 C   0  0  0  0  0  0  0  0  0  0  0  0
  147.0122  133.1238  152.6704 C   0  0  0  0  0  0  0  0  0  0  0  0
  145.7325  133.4657  151.9939 N   0  3  2  0  0  0  0  0  0  0  0  0
  145.6875  133.0257  150.5754 C   0  0  0  0  0  0  0  0  0  0  0  0
  144.2611  132.9103  150.0274 C   0  0  0  0  0  0  0  0  0  0  0  0
  143.5568  134.0409  149.9374 N   0  0  0  0  0  0  0  0  0  0  0  0
  143.7933  131.8199  149.7044 O   0  0  0  0  0  0  0  0  0  0  0  0
  145.3983  134.9042  152.1526 C   0  0  0  0  0  0  0  0  0  0  0  0
  145.3074  135.2955  153.6392 C   0  0  0  0  0  0  0  0  0  0  0  0
  151.1762  138.7233  154.3248 N   0  0  0  0  0  0  0  0  0  0  0  0
  151.5732  139.9380  154.8960 O   0  0  0  0  0  0  0  0  0  0  0  0
  149.8125  142.1770  156.6461 H   0  0  0  0  0  0  0  0  0  0  0  0
  150.9839  142.6041  155.3972 H   0  0  0  0  0  0  0  0  0  0  0  0
  151.5168  141.7744  156.8613 H   0  0  0  0  0  0  0  0  0  0  0  0
  148.3775  139.9631  155.6381 H   0  0  0  0  0  0  0  0  0  0  0  0
  149.3937  137.1524  153.2179 H   0  0  0  0  0  0  0  0  0  0  0  0
  148.1095  135.6775  153.1266 H   0  0  0  0  0  0  0  0  0  0  0  0
  146.3972  135.0911  155.4749 H   0  0  0  0  0  0  0  0  0  0  0  0
  147.9020  133.2170  154.6470 H   0  0  0  0  0  0  0  0  0  0  0  0
  146.2043  132.8325  154.6474 H   0  0  0  0  0  0  0  0  0  0  0  0
  147.8341  133.6592  152.1929 H   0  0  0  0  0  0  0  0  0  0  0  0
  147.2247  132.0606  152.5571 H   0  0  0  0  0  0  0  0  0  0  0  0
  146.2024  133.7550  149.9485 H   0  0  0  0  0  0  0  0  0  0  0  0
  146.2210  132.0808  150.4593 H   0  0  0  0  0  0  0  0  0  0  0  0
  142.6126  134.0260  149.5795 H   0  0  0  0  0  0  0  0  0  0  0  0
  143.9746  134.9145  150.2257 H   0  0  0  0  0  0  0  0  0  0  0  0
  146.1474  135.5117  151.6427 H   0  0  0  0  0  0  0  0  0  0  0  0
  144.4419  135.1143  151.6725 H   0  0  0  0  0  0  0  0  0  0  0  0
  144.4648  134.7707  154.0921 H   0  0  0  0  0  0  0  0  0  0  0  0
  145.0865  136.3594  153.7345 H   0  0  0  0  0  0  0  0  0  0  0  0
  145.0033  132.9513  152.4681 H   0  0  0  0  0  0  0  0  0  0  0  0
  1  2  1  0  0  0  0
  1 21  1  0  0  0  0
  1 22  1  0  0  0  0
  1 23  1  0  0  0  0
  2 20  1  0  0  0  0
  2  3  2  0  0  0  0
  3  4  1  0  0  0  0
  3 24  1  0  0  0  0
  4  5  1  0  0  0  0
  4 19  2  0  0  0  0
  5  6  1  0  0  0  0
  5 25  1  0  0  0  0
  6  7  2  0  0  0  0
  6  8  1  0  0  0  0
  8  9  1  0  0  0  0
  8 26  1  0  0  0  0
  9 18  1  0  0  0  0
  9 10  1  0  0  0  0
  9 27  1  0  0  0  0
 10 11  1  0  0  0  0
 10 28  1  0  0  0  0
 10 29  1  0  0  0  0
 11 12  1  0  0  0  0
 11 30  1  0  0  0  0
 11 31  1  0  0  0  0
 12 13  1  0  0  0  0
 12 17  1  0  0  0  0
 12 40  1  0  0  0  0
 13 14  1  0  0  0  0
 13 32  1  0  0  0  0
 13 33  1  0  0  0  0
 14 15  1  0  0  0  0
 14 16  2  0  0  0  0
 15 34  1  0  0  0  0
 15 35  1  0  0  0  0
 17 18  1  0  0  0  0
 17 36  1  0  0  0  0
 17 37  1  0  0  0  0
 18 38  1  0  0  0  0
 18 39  1  0  0  0  0
 19 20  1  0  0  0  0
M  CHG  1  12   1
M  END
> <s_m_source_file>
AV-unprocessed.smi

> <i_m_source_file_index>
1417

> <i_lp_mmshare_version>
43012

> <i_f3d_flags>
0

> <s_epik_input>
W0NIM11jMVtjSF1jKG5vMSlbTkhdQyg9TylbTkhdW0NIXTJbQ0gyXVtDSDJdTihbQ0gyXVtDSDJdMilbQ0gyXUMoPU8pW05IMl0=

> <s_epik_cmdline>
J2VwaWtfcHl0aG9uJywgJy1waCcsICc3LjAnLCAnLXRuJywgJzgnLCAnLW1hJywgJzIwMCcsICctbWV0YWxfYmluZGluZycsICctaW1hZScsICc8aW5maWxlLm1hZT4nLCAnLW9tYWUnLCAnPG91dGZpbGUubWFlPic=

> <r_epik_Ionization_Penalty>
0.867698

> <r_epik_Ionization_Penalty_Charging>
0.867623

> <r_epik_Ionization_Penalty_Neutral>
7.46743e-05

> <r_epik_State_Penalty>
0.904669

> <r_epik_Charging_Adjusted_Penalty>
1.77229

> <i_epik_Tot_Q>
1

> <i_epik_Tot_abs_Q>
1

> <r_epik_Metal_State_Penalty>
0.930696

> <b_epik_Metal_Only>
0

> <s_lp_Force_Field>
OPLS_2005

> <r_lp_Energy>
12.5471

> <b_lp_Chiralities_Consistent>
1

> <s_lp_Variant>
AV-unprocessed.smi:1417-3

> <Gold.Version>
5.8.1

> <Gold.Id.Protein>
6NUR|6NUR_protein|mol2

> <Gold.PLP.Fitness>
39.6864

> <Gold.PLP.PLP>
-26.5588

> <Gold.PLP.part.hbond>
-5.0510

> <Gold.PLP.part.metal>
0.0000

> <Gold.PLP.part.buried>
-5.6404

> <Gold.PLP.part.nonpolar>
-16.8607

> <Gold.PLP.part.repulsive>
0.4743

> <Gold.PLP.ligand.clash>
0.0000

> <Gold.PLP.ligand.torsion>
0.6409

> <Gold.PLP.Chemscore.Hbond>
4.7900

> <Gold.PLP.Chemscore.CHOScore>
0.0000

> <Gold.PLP.Chemscore.Metal>
0.0000

> <Gold.Chemscore.Hbonds>
donor molecule, donor type, donor heavy atom, donor atom, acceptor molecule, acceptor atom, score
      L1  H     5    25       P1  7948  0.99
      L1  H     8    26       P1  7948  1.00
      L1  H    15    34       P1 10186  1.00
      P1  H  7989  7998       L1    20  0.90
      P1  H 10785 10796       L1    16  0.86

> <Gold.PLP.Chemscore.Internal.Correction>
0.0394

> <Gold.Rescore>
     Score         DG    S(hbond)    S(metal)    S(lipo)     H(rot)  DE(clash)    DE(int)     intcor
     16.73     -17.53       3.74        0.00      41.01       2.05       0.06       0.74       ----

> <Gold.Chemscore.Fitness>
16.7347

> <Gold.Chemscore.DG>
-17.5308

> <Gold.Chemscore.ZeroCoef>
-5.4800

> <Gold.Chemscore.Hbond>
3.7396

> <Gold.Chemscore.Metal>
0.0000

> <Gold.Chemscore.Lipo>
41.0055

> <Gold.Chemscore.Internal_Hbond>
0.0000

> <Gold.Chemscore.DEClash>
0.0580

> <Gold.Chemscore.DEInternal>
0.7381

> <Gold.Chemscore.Rot>
2.0457

> <Gold.Chemscore.Internal.Correction>
   9.000000E+99

> <Gold.Chemscore.Hbonds>
donor molecule, donor type, donor heavy atom, donor atom, acceptor molecule, acceptor atom, score
      L1  H     5    25       P1  7948  0.86
      L1  H     8    26       P1  7948  0.94
      L1  H    15    34       P1 10186  0.98
      P1  H  7989  7998       L1    20  0.05
      P1  H 10785 10796       L1    16  0.80

> <Gold.Chemscore.Hbond.Weighted>
-12.4902

> <Gold.Chemscore.Metal.Weighted>
-0.0000

> <Gold.Chemscore.Lipo.Weighted>
-4.7976

> <Gold.Chemscore.Internal_Hbond.Weighted>
0.0000

> <Gold.Chemscore.DEClash.Weighted>
0.0580

> <Gold.Chemscore.DEInternal.Weighted>
0.7381

> <Gold.Chemscore.Rot.Weighted>
5.2371

> <Gold.Chemscore.Internal.Correction.Weighted>
   9.000000E+99

> <Gold.Protein.RotatedTorsions>
[ 6907 6896 6895 6894 ] final  117.53 input  -60.11 | X-H torsion
[ 7974 7965 7964 7962 ] final  158.46 input  175.53 | X-H torsion
[ 8008 7997 7996 7995 ] final  -16.17 input   59.86 | X-H torsion
[ 10167 10162 10161 10158 ] final   98.88 input  -65.29 | X-H torsion
[ 10718 10713 10712 10709 ] final  -86.34 input   66.30 | X-H torsion
[ 10763 10752 10751 10750 ] final  -35.50 input  -60.55 | X-H torsion
[ 11005 11000 10999 10996 ] final  132.76 input  -57.11 | X-H torsion

> <Gold.Protein.ActiveResidues>
 VAL166  LYS551  ARG553  GLY616  TRP617  ASP618  TYR619  PRO620  LYS621  CYS622 
 ASP623  PHE694  ASN695  SER759  ASP760  ASP761  ALA762  ILE779  LEU786  VAL792 
 PHE793  MET794  SER795  GLU796  ALA797  LYS798  CYS799  TRP800  GLU811  SER814 

> <Gold.Protein.RotatedAtoms>
  152.4605  133.7813  159.6851 H   0  0  0  0  0  0  0  0  0  0  0  0  # atno 6907 bound_to 6896
  150.8547  133.7723  159.3019 H   0  0  0  0  0  0  0  0  0  0  0  0  # atno 6908 bound_to 6896
  151.5307  135.1071  159.9954 H   0  0  0  0  0  0  0  0  0  0  0  0  # atno 6909 bound_to 6896
  144.7844  139.7482  143.6246 H   0  0  0  0  0  0  0  0  0  0  0  0  # atno 7974 bound_to 7965
  154.5074  140.2177  155.9224 H   0  0  0  0  0  0  0  0  0  0  0  0  # atno 8008 bound_to 7997
  156.1510  140.3161  155.8615 H   0  0  0  0  0  0  0  0  0  0  0  0  # atno 8009 bound_to 7997
  155.3938  140.0480  157.3030 H   0  0  0  0  0  0  0  0  0  0  0  0  # atno 8010 bound_to 7997
  139.7668  144.6936  151.0213 H   0  0  0  0  0  0  0  0  0  0  0  0  # atno 10167 bound_to 10162
  155.9990  130.4762  150.4700 H   0  0  0  0  0  0  0  0  0  0  0  0  # atno 10718 bound_to 10713
  153.8643  135.6837  153.4780 H   0  0  0  0  0  0  0  0  0  0  0  0  # atno 10763 bound_to 10752
  153.1324  135.4692  154.9367 H   0  0  0  0  0  0  0  0  0  0  0  0  # atno 10764 bound_to 10752
  154.7744  135.3248  154.8072 H   0  0  0  0  0  0  0  0  0  0  0  0  # atno 10765 bound_to 10752
  139.9810  134.9548  156.9629 H   0  0  0  0  0  0  0  0  0  0  0  0  # atno 11005 bound_to 11000
  146.2069  139.5399  142.9706 LP  0  0  0  0  0  0  0  0  0  0  0  0  # atno 17320 bound_to 7965
  145.5961  141.0362  143.2044 LP  0  0  0  0  0  0  0  0  0  0  0  0  # atno 17321 bound_to 7965
  140.7811  143.4634  151.0246 LP  0  0  0  0  0  0  0  0  0  0  0  0  # atno 17342 bound_to 10162
  139.8319  143.7680  152.3180 LP  0  0  0  0  0  0  0  0  0  0  0  0  # atno 17343 bound_to 10162
  157.2716  131.0588  151.2256 LP  0  0  0  0  0  0  0  0  0  0  0  0  # atno 17370 bound_to 10713
  157.3335  130.6997  149.6338 LP  0  0  0  0  0  0  0  0  0  0  0  0  # atno 17371 bound_to 10713
  140.5096  134.1015  155.7267 LP  0  0  0  0  0  0  0  0  0  0  0  0  # atno 17394 bound_to 11000
  141.1482  133.9017  157.2163 LP  0  0  0  0  0  0  0  0  0  0  0  0  # atno 17395 bound_to 11000

$$$$
