AV-unprocessed.smi:2453|AV-procd|sdf|9689|dock1
  -GOLD-   2272013323D 1   1.00000     0.00000
 Structure written by MMmdl.
 40 41  0  0  0  0  0  0  0  0  1 V2000
  140.7713  138.6309  153.8238 C   0  0  0  0  0  0  0  0  0  0  0  0
  141.1224  137.1676  153.6190 C   0  0  0  0  0  0  0  0  0  0  0  0
  140.1004  136.1937  153.6098 C   0  0  0  0  0  0  0  0  0  0  0  0
  140.3264  134.8761  153.4307 N   0  0  0  0  0  0  0  0  0  0  0  0
  141.6013  134.4775  153.2444 C   0  0  0  0  0  0  0  0  0  0  0  0
  142.6974  135.3620  153.2341 C   0  0  0  0  0  0  0  0  0  0  0  0
  142.4620  136.7435  153.4391 C   0  0  0  0  0  0  0  0  0  0  0  0
  143.4930  137.7263  153.4355 N   0  0  0  0  0  0  0  0  0  0  0  0
  144.7575  137.6309  153.8822 C   0  0  0  0  0  0  0  0  0  0  0  0
  145.2624  136.6326  154.3950 O   0  0  0  0  0  0  0  0  0  0  0  0
  145.4146  138.7877  153.7155 N   0  0  0  0  0  0  0  0  0  0  0  0
  146.8089  139.0362  154.0874 C   0  0  2  0  0  0  0  0  0  0  0  0
  146.9333  139.3363  155.5974 C   0  0  0  0  0  0  0  0  0  0  0  0
  146.3278  140.6996  155.9706 C   0  0  0  0  0  0  0  0  0  0  0  0
  146.9426  141.8279  155.1305 C   0  0  0  0  0  0  0  0  0  0  0  0
  146.8045  141.5442  153.6262 C   0  0  0  0  0  0  0  0  0  0  0  0
  147.4233  140.1833  153.2406 C   0  0  2  0  0  0  0  0  0  0  0  0
  147.3366  139.9462  151.7179 C   0  0  0  0  0  0  0  0  0  0  0  0
  147.4075  138.5678  151.4189 O   0  0  0  0  0  0  0  0  0  0  0  0
  139.6990  138.7653  153.9680 H   0  0  0  0  0  0  0  0  0  0  0  0
  141.0706  139.2190  152.9558 H   0  0  0  0  0  0  0  0  0  0  0  0
  141.2811  139.0262  154.7028 H   0  0  0  0  0  0  0  0  0  0  0  0
  139.0677  136.4783  153.7490 H   0  0  0  0  0  0  0  0  0  0  0  0
  141.7532  133.4193  153.0916 H   0  0  0  0  0  0  0  0  0  0  0  0
  143.6845  134.9639  153.0585 H   0  0  0  0  0  0  0  0  0  0  0  0
  143.2116  138.6384  153.1074 H   0  0  0  0  0  0  0  0  0  0  0  0
  144.9170  139.5583  153.2942 H   0  0  0  0  0  0  0  0  0  0  0  0
  147.3778  138.1278  153.8816 H   0  0  0  0  0  0  0  0  0  0  0  0
  146.4644  138.5466  156.1854 H   0  0  0  0  0  0  0  0  0  0  0  0
  147.9881  139.3291  155.8751 H   0  0  0  0  0  0  0  0  0  0  0  0
  145.2473  140.6779  155.8225 H   0  0  0  0  0  0  0  0  0  0  0  0
  146.4888  140.8983  157.0305 H   0  0  0  0  0  0  0  0  0  0  0  0
  146.4635  142.7761  155.3757 H   0  0  0  0  0  0  0  0  0  0  0  0
  147.9971  141.9401  155.3859 H   0  0  0  0  0  0  0  0  0  0  0  0
  145.7508  141.5679  153.3457 H   0  0  0  0  0  0  0  0  0  0  0  0
  147.2877  142.3450  153.0652 H   0  0  0  0  0  0  0  0  0  0  0  0
  148.4838  140.2383  153.4925 H   0  0  0  0  0  0  0  0  0  0  0  0
  146.4205  140.3623  151.2982 H   0  0  0  0  0  0  0  0  0  0  0  0
  148.1675  140.4403  151.2135 H   0  0  0  0  0  0  0  0  0  0  0  0
  147.7654  138.1147  152.1670 H   0  0  0  0  0  0  0  0  0  0  0  0
  1  2  1  0  0  0  0
  1 20  1  0  0  0  0
  1 21  1  0  0  0  0
  1 22  1  0  0  0  0
  2  7  1  0  0  0  0
  2  3  2  0  0  0  0
  3  4  1  0  0  0  0
  3 23  1  0  0  0  0
  4  5  2  0  0  0  0
  5  6  1  0  0  0  0
  5 24  1  0  0  0  0
  6  7  2  0  0  0  0
  6 25  1  0  0  0  0
  7  8  1  0  0  0  0
  8  9  1  0  0  0  0
  8 26  1  0  0  0  0
  9 10  2  0  0  0  0
  9 11  1  0  0  0  0
 11 12  1  0  0  0  0
 11 27  1  0  0  0  0
 12 17  1  0  0  0  0
 12 13  1  0  0  0  0
 12 28  1  0  0  0  0
 13 14  1  0  0  0  0
 13 29  1  0  0  0  0
 13 30  1  0  0  0  0
 14 15  1  0  0  0  0
 14 31  1  0  0  0  0
 14 32  1  0  0  0  0
 15 16  1  0  0  0  0
 15 33  1  0  0  0  0
 15 34  1  0  0  0  0
 16 17  1  0  0  0  0
 16 35  1  0  0  0  0
 16 36  1  0  0  0  0
 17 18  1  0  0  0  0
 17 37  1  0  0  0  0
 18 19  1  0  0  0  0
 18 38  1  0  0  0  0
 18 39  1  0  0  0  0
 19 40  1  0  0  0  0
M  END
> <s_m_source_file>
AV-unprocessed.smi

> <i_m_source_file_index>
2453

> <i_lp_mmshare_version>
43012

> <i_f3d_flags>
0

> <s_epik_input>
W0NIM11jMVtjSF1uW2NIXVtjSF1jMVtOSF1DKD1PKVtOSF1bQ0BASF0yW0NIMl1bQ0gyXVtDSDJdW0NIMl1bQ0BIXTJbQ0gyXVtPSF0=

> <s_epik_cmdline>
J2VwaWtfcHl0aG9uJywgJy1waCcsICc3LjAnLCAnLXRuJywgJzgnLCAnLW1hJywgJzIwMCcsICctbWV0YWxfYmluZGluZycsICctaW1hZScsICc8aW5maWxlLm1hZT4nLCAnLW9tYWUnLCAnPG91dGZpbGUubWFlPic=

> <r_epik_Ionization_Penalty>
0.210691

> <r_epik_Ionization_Penalty_Charging>
0

> <r_epik_Ionization_Penalty_Neutral>
0.210691

> <r_epik_State_Penalty>
0.200732

> <r_epik_Charging_Adjusted_Penalty>
0.200732

> <i_epik_Tot_Q>
0

> <i_epik_Tot_abs_Q>
0

> <r_epik_Metal_State_Penalty>
0.147519

> <b_epik_Metal_Only>
0

> <s_lp_Force_Field>
OPLS_2005

> <r_lp_Energy>
18.5766

> <b_lp_Chiralities_Consistent>
1

> <s_lp_Variant>
AV-unprocessed.smi:2453-3

> <Gold.Version>
5.8.1

> <Gold.Id.Protein>
6NUR|6NUR_protein|mol2

> <Gold.PLP.Fitness>
40.0708

> <Gold.PLP.PLP>
-27.5521

> <Gold.PLP.part.hbond>
-6.8000

> <Gold.PLP.part.metal>
0.0000

> <Gold.PLP.part.buried>
1.2221

> <Gold.PLP.part.nonpolar>
-22.2759

> <Gold.PLP.part.repulsive>
0.3542

> <Gold.PLP.ligand.clash>
0.0000

> <Gold.PLP.ligand.torsion>
0.8491

> <Gold.PLP.Chemscore.Hbond>
3.7288

> <Gold.PLP.Chemscore.CHOScore>
1.0000

> <Gold.PLP.Chemscore.Metal>
0.0000

> <Gold.Chemscore.Hbonds>
donor molecule, donor type, donor heavy atom, donor atom, acceptor molecule, acceptor atom, score
      L1  H     8    26       P1 10175  1.00
      L1  H    11    27       P1 10175  1.00
      L1  H    19    40       P1  7948  0.19
      P1  H  7954  7966       L1    19  1.00
      P1  H 10995 11001       L1     4  0.04
      P1  H 11000 11005       L1     4  0.10
      L1  C     5    24       P1 10957  0.95

> <Gold.PLP.Chemscore.Internal.Correction>
0.0304

> <Gold.Rescore>
     Score         DG    S(hbond)    S(metal)    S(lipo)     H(rot)  DE(clash)    DE(int)     intcor
     15.80     -19.71       3.07        0.00      72.27       1.75       2.56       1.35       ----

> <Gold.Chemscore.Fitness>
15.7969

> <Gold.Chemscore.DG>
-19.7077

> <Gold.Chemscore.ZeroCoef>
-5.4800

> <Gold.Chemscore.Hbond>
3.0689

> <Gold.Chemscore.Metal>
0.0000

> <Gold.Chemscore.Lipo>
72.2711

> <Gold.Chemscore.Internal_Hbond>
0.0000

> <Gold.Chemscore.DEClash>
2.5563

> <Gold.Chemscore.DEInternal>
1.3545

> <Gold.Chemscore.Rot>
1.7493

> <Gold.Chemscore.Internal.Correction>
   9.000000E+99

> <Gold.Chemscore.Hbonds>
donor molecule, donor type, donor heavy atom, donor atom, acceptor molecule, acceptor atom, score
      L1  H     8    26       P1 10175  0.95
      L1  H    11    27       P1 10175  1.00
      L1  H    19    40       P1  7948  0.19
      P1  H  7954  7966       L1    19  0.67
      P1  H 10995 11001       L1     4  0.02

> <Gold.Chemscore.Hbond.Weighted>
-10.2502

> <Gold.Chemscore.Metal.Weighted>
-0.0000

> <Gold.Chemscore.Lipo.Weighted>
-8.4557

> <Gold.Chemscore.Internal_Hbond.Weighted>
0.0000

> <Gold.Chemscore.DEClash.Weighted>
2.5563

> <Gold.Chemscore.DEInternal.Weighted>
1.3545

> <Gold.Chemscore.Rot.Weighted>
4.4782

> <Gold.Chemscore.Internal.Correction.Weighted>
   9.000000E+99

> <Gold.Protein.RotatedTorsions>
[ 6907 6896 6895 6894 ] final -156.07 input  -60.11 | X-H torsion
[ 7974 7965 7964 7962 ] final -127.64 input  175.53 | X-H torsion
[ 8008 7997 7996 7995 ] final  -18.61 input   59.86 | X-H torsion
[ 10167 10162 10161 10158 ] final  -19.55 input  -65.29 | X-H torsion
[ 10718 10713 10712 10709 ] final   88.50 input   66.30 | X-H torsion
[ 10763 10752 10751 10750 ] final   49.31 input  -60.55 | X-H torsion
[ 11005 11000 10999 10996 ] final   25.15 input  -57.11 | X-H torsion

> <Gold.Protein.ActiveResidues>
 VAL166  LYS551  ARG553  GLY616  TRP617  ASP618  TYR619  PRO620  LYS621  CYS622 
 ASP623  PHE694  ASN695  SER759  ASP760  ASP761  ALA762  ILE779  LEU786  VAL792 
 PHE793  MET794  SER795  GLU796  ALA797  LYS798  CYS799  TRP800  GLU811  SER814 

> <Gold.Protein.RotatedAtoms>
  151.2820  133.4205  159.2627 H   0  0  0  0  0  0  0  0  0  0  0  0  # atno 6907 bound_to 6896
  151.0352  134.9568  159.8142 H   0  0  0  0  0  0  0  0  0  0  0  0  # atno 6908 bound_to 6896
  152.5354  134.2780  159.9049 H   0  0  0  0  0  0  0  0  0  0  0  0  # atno 6909 bound_to 6896
  144.9750  140.7584  143.4647 H   0  0  0  0  0  0  0  0  0  0  0  0  # atno 7974 bound_to 7965
  154.4894  140.2111  155.9582 H   0  0  0  0  0  0  0  0  0  0  0  0  # atno 8008 bound_to 7997
  156.1283  140.3201  155.8280 H   0  0  0  0  0  0  0  0  0  0  0  0  # atno 8009 bound_to 7997
  155.4342  140.0505  157.3007 H   0  0  0  0  0  0  0  0  0  0  0  0  # atno 8010 bound_to 7997
  140.7269  143.4808  151.0121 H   0  0  0  0  0  0  0  0  0  0  0  0  # atno 10167 bound_to 10162
  157.6949  131.0297  150.3283 H   0  0  0  0  0  0  0  0  0  0  0  0  # atno 10718 bound_to 10713
  152.9787  135.5916  154.4068 H   0  0  0  0  0  0  0  0  0  0  0  0  # atno 10763 bound_to 10752
  154.3708  135.2767  155.2269 H   0  0  0  0  0  0  0  0  0  0  0  0  # atno 10764 bound_to 10752
  154.4226  135.6055  153.6074 H   0  0  0  0  0  0  0  0  0  0  0  0  # atno 10765 bound_to 10752
  140.3509  134.2229  155.7680 H   0  0  0  0  0  0  0  0  0  0  0  0  # atno 11005 bound_to 11000
  145.2503  139.2034  143.4946 LP  0  0  0  0  0  0  0  0  0  0  0  0  # atno 17320 bound_to 7965
  146.3393  140.2415  142.8596 LP  0  0  0  0  0  0  0  0  0  0  0  0  # atno 17321 bound_to 7965
  139.8506  143.7443  152.3178 LP  0  0  0  0  0  0  0  0  0  0  0  0  # atno 17342 bound_to 10162
  139.7624  144.7502  151.0344 LP  0  0  0  0  0  0  0  0  0  0  0  0  # atno 17343 bound_to 10162
  156.3761  130.3872  149.7138 LP  0  0  0  0  0  0  0  0  0  0  0  0  # atno 17370 bound_to 10713
  156.4536  130.7918  151.2939 LP  0  0  0  0  0  0  0  0  0  0  0  0  # atno 17371 bound_to 10713
  141.2012  133.7968  157.0451 LP  0  0  0  0  0  0  0  0  0  0  0  0  # atno 17394 bound_to 11000
  140.0703  134.9706  157.1457 LP  0  0  0  0  0  0  0  0  0  0  0  0  # atno 17395 bound_to 11000

$$$$
