AV-unprocessed.smi:49|AV-procd|sdf|487|dock1
  -GOLD-   2262016353D 1   1.00000     0.00000
 Structure written by MMmdl.
 26 27  0  0  0  0  0  0  0  0  2 V2000
  152.7421  142.9785  160.5466 C   0  0  0  0  0  0  0  0  0  0  0  0
  153.4039  141.7896  159.8429 C   0  0  0  0  0  0  0  0  0  0  0  0
  152.5114  141.1899  158.7786 C   0  0  0  0  0  0  0  0  0  0  0  0
  151.3145  141.6433  158.4209 N   0  0  0  0  0  0  0  0  0  0  0  0
  150.8986  140.8385  157.4307 C   0  0  0  0  0  0  0  0  0  0  0  0
  149.5914  140.9855  156.6730 C   0  0  2  0  0  0  0  0  0  0  0  0
  149.2877  139.7423  155.8171 C   0  0  0  0  0  0  0  0  0  0  0  0
  149.4748  140.2264  154.3829 C   0  0  1  0  0  0  0  0  0  0  0  0
  148.6953  139.5050  153.4526 O   0  0  0  0  0  0  0  0  0  0  0  0
  149.0604  141.6886  154.4802 C   0  0  0  0  0  0  0  0  0  0  0  0
  149.5967  142.1338  155.7585 N   0  0  0  0  0  0  0  0  0  0  0  0
  151.8299  139.9139  157.1511 N   0  0  0  0  0  0  0  0  0  0  0  0
  152.8175  140.1428  157.9924 N   0  5  0  0  0  0  0  0  0  0  0  0
  148.7947  141.1096  157.4075 H   0  0  0  0  0  0  0  0  0  0  0  0
  150.5277  140.1598  154.1040 H   0  0  0  0  0  0  0  0  0  0  0  0
  153.4004  143.3959  161.3084 H   0  0  0  0  0  0  0  0  0  0  0  0
  151.8140  142.6784  161.0336 H   0  0  0  0  0  0  0  0  0  0  0  0
  152.5069  143.7715  159.8364 H   0  0  0  0  0  0  0  0  0  0  0  0
  154.3407  142.1030  159.3816 H   0  0  0  0  0  0  0  0  0  0  0  0
  153.6538  141.0168  160.5706 H   0  0  0  0  0  0  0  0  0  0  0  0
  149.9115  138.8805  156.0586 H   0  0  0  0  0  0  0  0  0  0  0  0
  148.2486  139.4493  155.9759 H   0  0  0  0  0  0  0  0  0  0  0  0
  149.1682  139.4664  152.6355 H   0  0  0  0  0  0  0  0  0  0  0  0
  149.4321  142.2891  153.6498 H   0  0  0  0  0  0  0  0  0  0  0  0
  147.9726  141.7675  154.4920 H   0  0  0  0  0  0  0  0  0  0  0  0
  149.0089  142.8735  156.1276 H   0  0  0  0  0  0  0  0  0  0  0  0
  1  2  1  0  0  0  0
  1 16  1  0  0  0  0
  1 17  1  0  0  0  0
  1 18  1  0  0  0  0
  2  3  1  0  0  0  0
  2 19  1  0  0  0  0
  2 20  1  0  0  0  0
  3 13  1  0  0  0  0
  3  4  2  0  0  0  0
  4  5  1  0  0  0  0
  5  6  1  0  0  0  0
  5 12  2  0  0  0  0
  6 14  1  0  0  0  0
  6 11  1  0  0  0  0
  6  7  1  0  0  0  0
  7  8  1  0  0  0  0
  7 21  1  0  0  0  0
  7 22  1  0  0  0  0
  8 15  1  0  0  0  0
  8  9  1  0  0  0  0
  8 10  1  0  0  0  0
  9 23  1  0  0  0  0
 10 11  1  0  0  0  0
 10 24  1  0  0  0  0
 10 25  1  0  0  0  0
 11 26  1  0  0  0  0
 12 13  1  0  0  0  0
M  CHG  1  13  -1
M  END
> <s_m_source_file>
AV-unprocessed.smi

> <i_m_source_file_index>
49

> <i_lp_mmshare_version>
43012

> <i_f3d_flags>
0

> <s_epik_input>
W0NIM11bQ0gyXWMxbmMobltuSF0xKVtDQEBIXTJbQ0gyXVtDQEBIXShbT0hdKVtDSDJdW05IXTI=

> <s_epik_cmdline>
J2VwaWtfcHl0aG9uJywgJy1waCcsICc3LjAnLCAnLXRuJywgJzgnLCAnLW1hJywgJzIwMCcsICctbWV0YWxfYmluZGluZycsICctaW1hZScsICc8aW5maWxlLm1hZT4nLCAnLW9tYWUnLCAnPG91dGZpbGUubWFlPic=

> <r_lp_tautomer_probability>
0.948284

> <r_epik_Ionization_Penalty>
20.726

> <r_epik_Ionization_Penalty_Charging>
17.6814

> <r_epik_Ionization_Penalty_Neutral>
3.04463

> <r_epik_State_Penalty>
7.95092

> <r_epik_Charging_Adjusted_Penalty>
25.6323

> <i_epik_Tot_Q>
-1

> <i_epik_Tot_abs_Q>
1

> <r_epik_Metal_State_Penalty>
4.146

> <b_epik_Metal_Only>
1

> <s_lp_Force_Field>
OPLS_2005

> <r_lp_Energy>
17.7922

> <b_lp_Chiralities_Consistent>
1

> <s_lp_Variant>
AV-unprocessed.smi:49-25

> <Gold.Version>
5.8.1

> <Gold.Id.Protein>
6NUR|6NUR_protein|mol2

> <Gold.PLP.Fitness>
34.0262

> <Gold.PLP.PLP>
-23.6547

> <Gold.PLP.part.hbond>
-3.0000

> <Gold.PLP.part.metal>
0.0000

> <Gold.PLP.part.buried>
-2.0959

> <Gold.PLP.part.nonpolar>
-17.5420

> <Gold.PLP.part.repulsive>
0.0095

> <Gold.PLP.ligand.clash>
0.0000

> <Gold.PLP.ligand.torsion>
0.3307

> <Gold.PLP.Chemscore.Hbond>
3.6720

> <Gold.PLP.Chemscore.CHOScore>
0.0000

> <Gold.PLP.Chemscore.Metal>
0.0000

> <Gold.Chemscore.Hbonds>
donor molecule, donor type, donor heavy atom, donor atom, acceptor molecule, acceptor atom, score
      L1  H     9    23       P1  7957  1.00
      L1  H    11    26       P1  8028  0.62
      P1  H  7997  8009       L1    13  2.00

> <Gold.PLP.Chemscore.Internal.Correction>
0.0170

> <Gold.Rescore>
     Score         DG    S(hbond)    S(metal)    S(lipo)     H(rot)  DE(clash)    DE(int)     intcor
     14.10     -14.43       2.45        0.00      46.26       1.82       0.00       0.32       ----

> <Gold.Chemscore.Fitness>
14.1029

> <Gold.Chemscore.DG>
-14.4254

> <Gold.Chemscore.ZeroCoef>
-5.4800

> <Gold.Chemscore.Hbond>
2.4546

> <Gold.Chemscore.Metal>
0.0000

> <Gold.Chemscore.Lipo>
46.2633

> <Gold.Chemscore.Internal_Hbond>
0.0000

> <Gold.Chemscore.DEClash>
0.0004

> <Gold.Chemscore.DEInternal>
0.3221

> <Gold.Chemscore.Rot>
1.8226

> <Gold.Chemscore.Internal.Correction>
   9.000000E+99

> <Gold.Chemscore.Hbonds>
donor molecule, donor type, donor heavy atom, donor atom, acceptor molecule, acceptor atom, score
      L1  H     9    23       P1  7957  0.97
      L1  H    11    26       P1  8028  0.62
      P1  H  7997  8009       L1    13  0.59

> <Gold.Chemscore.Hbond.Weighted>
-8.1984

> <Gold.Chemscore.Metal.Weighted>
-0.0000

> <Gold.Chemscore.Lipo.Weighted>
-5.4128

> <Gold.Chemscore.Internal_Hbond.Weighted>
0.0000

> <Gold.Chemscore.DEClash.Weighted>
0.0004

> <Gold.Chemscore.DEInternal.Weighted>
0.3221

> <Gold.Chemscore.Rot.Weighted>
4.6658

> <Gold.Chemscore.Internal.Correction.Weighted>
   9.000000E+99

> <Gold.Protein.RotatedTorsions>
[ 6907 6896 6895 6894 ] final  135.22 input  -60.11 | X-H torsion
[ 7974 7965 7964 7962 ] final  -73.60 input  175.53 | X-H torsion
[ 8008 7997 7996 7995 ] final  158.54 input   59.86 | X-H torsion
[ 10167 10162 10161 10158 ] final   76.20 input  -65.29 | X-H torsion
[ 10718 10713 10712 10709 ] final  132.79 input   66.30 | X-H torsion
[ 10763 10752 10751 10750 ] final  141.78 input  -60.55 | X-H torsion
[ 11005 11000 10999 10996 ] final  101.85 input  -57.11 | X-H torsion

> <Gold.Protein.ActiveResidues>
 VAL166  LYS551  ARG553  GLY616  TRP617  ASP618  TYR619  PRO620  LYS621  CYS622 
 ASP623  PHE694  ASN695  SER759  ASP760  ASP761  ALA762  ILE779  LEU786  VAL792 
 PHE793  MET794  SER795  GLU796  ALA797  LYS798  CYS799  TRP800  GLU811  SER814 

> <Gold.Protein.RotatedAtoms>
  152.3028  133.5672  159.5629 H   0  0  0  0  0  0  0  0  0  0  0  0  # atno 6907 bound_to 6896
  150.7285  134.0267  159.3728 H   0  0  0  0  0  0  0  0  0  0  0  0  # atno 6908 bound_to 6896
  151.8165  135.0665  160.0470 H   0  0  0  0  0  0  0  0  0  0  0  0  # atno 6909 bound_to 6896
  145.6500  140.9285  143.0990 H   0  0  0  0  0  0  0  0  0  0  0  0  # atno 7974 bound_to 7965
  156.2296  140.1855  156.7276 H   0  0  0  0  0  0  0  0  0  0  0  0  # atno 8008 bound_to 7997
  154.5999  140.0637  156.9382 H   0  0  0  0  0  0  0  0  0  0  0  0  # atno 8009 bound_to 7997
  155.2191  140.3306  155.4320 H   0  0  0  0  0  0  0  0  0  0  0  0  # atno 8010 bound_to 7997
  139.9947  144.5731  150.7787 H   0  0  0  0  0  0  0  0  0  0  0  0  # atno 10167 bound_to 10162
  157.4837  131.1087  150.9648 H   0  0  0  0  0  0  0  0  0  0  0  0  # atno 10718 bound_to 10713
  153.9448  135.2976  155.3441 H   0  0  0  0  0  0  0  0  0  0  0  0  # atno 10763 bound_to 10752
  154.7458  135.5004  153.9204 H   0  0  0  0  0  0  0  0  0  0  0  0  # atno 10764 bound_to 10752
  153.1024  135.6738  153.9756 H   0  0  0  0  0  0  0  0  0  0  0  0  # atno 10765 bound_to 10752
  139.8775  134.9200  156.4969 H   0  0  0  0  0  0  0  0  0  0  0  0  # atno 11005 bound_to 11000
  144.7126  139.8314  143.7409 LP  0  0  0  0  0  0  0  0  0  0  0  0  # atno 17320 bound_to 7965
  146.1211  139.4230  143.0227 LP  0  0  0  0  0  0  0  0  0  0  0  0  # atno 17321 bound_to 7965
  140.7441  143.2856  151.3473 LP  0  0  0  0  0  0  0  0  0  0  0  0  # atno 17342 bound_to 10162
  139.6314  144.0713  152.2479 LP  0  0  0  0  0  0  0  0  0  0  0  0  # atno 17343 bound_to 10162
  157.0373  130.5735  149.5351 LP  0  0  0  0  0  0  0  0  0  0  0  0  # atno 17370 bound_to 10713
  156.0135  130.5228  150.8063 LP  0  0  0  0  0  0  0  0  0  0  0  0  # atno 17371 bound_to 10713
  140.8618  133.8054  155.9272 LP  0  0  0  0  0  0  0  0  0  0  0  0  # atno 17394 bound_to 11000
  140.9042  134.2341  157.5024 LP  0  0  0  0  0  0  0  0  0  0  0  0  # atno 17395 bound_to 11000

$$$$
