AV-unprocessed.smi:1965|AV-procd|sdf|7939|dock3
  -GOLD-   2272010103D 1   1.00000     0.00000
 Structure written by MMmdl.
 37 39  0  0  0  0  0  0  0  0  2 V2000
  146.2860  137.0862  154.1056 O   0  0  0  0  0  0  0  0  0  0  0  0
  145.4924  137.8575  153.5691 C   0  0  0  0  0  0  0  0  0  0  0  0
  145.7637  139.1761  153.4670 N   0  0  0  0  0  0  0  0  0  0  0  0
  146.8883  139.9452  153.8862 C   0  0  0  0  0  0  0  0  0  0  0  0
  148.0523  139.4420  154.3175 N   0  0  0  0  0  0  0  0  0  0  0  0
  148.9616  140.4420  154.6720 C   0  0  0  0  0  0  0  0  0  0  0  0
  148.4691  141.7123  154.5101 C   0  0  0  0  0  0  0  0  0  0  0  0
  146.8355  141.7026  153.9024 S   0  0  0  0  0  0  0  0  0  0  0  0
  144.3179  137.4505  153.0602 N   0  0  0  0  0  0  0  0  0  0  0  0
  143.8193  136.0792  153.0599 C   0  0  1  0  0  0  0  0  0  0  0  0
  142.2973  135.9982  153.0638 C   0  0  0  0  0  0  0  0  0  0  0  0
  142.0487  134.5744  152.5631 C   0  0  0  0  0  0  0  0  0  0  0  0
  143.1382  134.2841  151.6026 N   0  3  2  0  0  0  0  0  0  0  0  0
  143.6035  132.8755  151.6050 C   0  0  0  0  0  0  0  0  0  0  0  0
  144.7209  132.6688  150.5656 C   0  0  0  0  0  0  0  0  0  0  0  0
  145.8478  133.7177  150.6711 C   0  0  0  0  0  0  0  0  0  0  0  0
  145.6240  134.7049  151.8270 C   0  0  0  0  0  0  0  0  0  0  0  0
  144.2030  135.3116  151.7836 C   0  0  2  0  0  0  0  0  0  0  0  0
  145.0300  139.7190  153.0350 H   0  0  0  0  0  0  0  0  0  0  0  0
  149.9395  140.1596  155.0328 H   0  0  0  0  0  0  0  0  0  0  0  0
  148.9661  142.6497  154.7120 H   0  0  0  0  0  0  0  0  0  0  0  0
  143.7259  138.1522  152.6378 H   0  0  0  0  0  0  0  0  0  0  0  0
  144.1831  135.5423  153.9387 H   0  0  0  0  0  0  0  0  0  0  0  0
  141.8631  136.1833  154.0467 H   0  0  0  0  0  0  0  0  0  0  0  0
  141.8738  136.7201  152.3632 H   0  0  0  0  0  0  0  0  0  0  0  0
  142.1025  133.8838  153.4064 H   0  0  0  0  0  0  0  0  0  0  0  0
  141.0682  134.4590  152.1005 H   0  0  0  0  0  0  0  0  0  0  0  0
  143.9628  132.6080  152.6002 H   0  0  0  0  0  0  0  0  0  0  0  0
  142.7638  132.2148  151.3866 H   0  0  0  0  0  0  0  0  0  0  0  0
  145.1357  131.6660  150.6736 H   0  0  0  0  0  0  0  0  0  0  0  0
  144.2917  132.7078  149.5636 H   0  0  0  0  0  0  0  0  0  0  0  0
  146.8123  133.2226  150.7888 H   0  0  0  0  0  0  0  0  0  0  0  0
  145.9066  134.2736  149.7346 H   0  0  0  0  0  0  0  0  0  0  0  0
  145.7825  134.1895  152.7752 H   0  0  0  0  0  0  0  0  0  0  0  0
  146.3720  135.4970  151.7867 H   0  0  0  0  0  0  0  0  0  0  0  0
  144.1269  135.9783  150.9228 H   0  0  0  0  0  0  0  0  0  0  0  0
  142.7597  134.4528  150.6814 H   0  0  0  0  0  0  0  0  0  0  0  0
  1  2  2  0  0  0  0
  2  3  1  0  0  0  0
  2  9  1  0  0  0  0
  3  4  1  0  0  0  0
  3 19  1  0  0  0  0
  4  8  1  0  0  0  0
  4  5  2  0  0  0  0
  5  6  1  0  0  0  0
  6  7  2  0  0  0  0
  6 20  1  0  0  0  0
  7  8  1  0  0  0  0
  7 21  1  0  0  0  0
  9 10  1  0  0  0  0
  9 22  1  0  0  0  0
 10 18  1  0  0  0  0
 10 11  1  0  0  0  0
 10 23  1  0  0  0  0
 11 12  1  0  0  0  0
 11 24  1  0  0  0  0
 11 25  1  0  0  0  0
 12 13  1  0  0  0  0
 12 26  1  0  0  0  0
 12 27  1  0  0  0  0
 13 18  1  0  0  0  0
 13 14  1  0  0  0  0
 13 37  1  0  0  0  0
 14 15  1  0  0  0  0
 14 28  1  0  0  0  0
 14 29  1  0  0  0  0
 15 16  1  0  0  0  0
 15 30  1  0  0  0  0
 15 31  1  0  0  0  0
 16 17  1  0  0  0  0
 16 32  1  0  0  0  0
 16 33  1  0  0  0  0
 17 18  1  0  0  0  0
 17 34  1  0  0  0  0
 17 35  1  0  0  0  0
 18 36  1  0  0  0  0
M  CHG  1  13   1
M  END
> <s_m_source_file>
AV-unprocessed.smi

> <i_m_source_file_index>
1965

> <i_lp_mmshare_version>
43012

> <i_f3d_flags>
0

> <s_epik_input>
czFbY0hdW2NIXW5jMVtOSF1DKD1PKVtOSF1bQ0BIXShbQ0gyXVtDSDJdMilbQ0BASF0oTjIzKVtDSDJdW0NIMl1bQ0gyXVtDSDJdMw==

> <s_epik_cmdline>
J2VwaWtfcHl0aG9uJywgJy1waCcsICc3LjAnLCAnLXRuJywgJzgnLCAnLW1hJywgJzIwMCcsICctbWV0YWxfYmluZGluZycsICctaW1hZScsICc8aW5maWxlLm1hZT4nLCAnLW9tYWUnLCAnPG91dGZpbGUubWFlPic=

> <r_lp_tautomer_probability>
1

> <r_epik_Ionization_Penalty>
0.00125962

> <r_epik_Ionization_Penalty_Charging>
0.00107044

> <r_epik_Ionization_Penalty_Neutral>
0.000189176

> <r_epik_State_Penalty>
-0

> <r_epik_Charging_Adjusted_Penalty>
0.00107044

> <i_epik_Tot_Q>
1

> <i_epik_Tot_abs_Q>
1

> <r_epik_Metal_State_Penalty>
0.0179285

> <b_epik_Metal_Only>
0

> <s_lp_Force_Field>
OPLS_2005

> <r_lp_Energy>
40.5286

> <b_lp_Chiralities_Consistent>
1

> <s_lp_Variant>
AV-unprocessed.smi:1965-8

> <Gold.Version>
5.8.1

> <Gold.Id.Protein>
6NUR|6NUR_protein|mol2

> <Gold.PLP.Fitness>
42.0412

> <Gold.PLP.PLP>
-30.1194

> <Gold.PLP.part.hbond>
-2.6417

> <Gold.PLP.part.metal>
0.0000

> <Gold.PLP.part.buried>
-4.0781

> <Gold.PLP.part.nonpolar>
-23.8690

> <Gold.PLP.part.repulsive>
0.2489

> <Gold.PLP.ligand.clash>
0.0000

> <Gold.PLP.ligand.torsion>
0.4012

> <Gold.PLP.Chemscore.Hbond>
3.2388

> <Gold.PLP.Chemscore.CHOScore>
1.0000

> <Gold.PLP.Chemscore.Metal>
0.0000

> <Gold.Chemscore.Hbonds>
donor molecule, donor type, donor heavy atom, donor atom, acceptor molecule, acceptor atom, score
      L1  H     3    19       P1 10175  1.00
      L1  H     9    22       P1 10175  0.27
      L1  H    13    37       P1 10186  1.54
      L1  C     7    21       P1  8028  1.00

> <Gold.PLP.Chemscore.Internal.Correction>
0.0078

> <Gold.Rescore>
     Score         DG    S(hbond)    S(metal)    S(lipo)     H(rot)  DE(clash)    DE(int)     intcor
     15.32     -16.99       1.69        0.00      72.07       1.00       0.11       1.56       ----

> <Gold.Chemscore.Fitness>
15.3203

> <Gold.Chemscore.DG>
-16.9894

> <Gold.Chemscore.ZeroCoef>
-5.4800

> <Gold.Chemscore.Hbond>
1.6877

> <Gold.Chemscore.Metal>
0.0000

> <Gold.Chemscore.Lipo>
72.0711

> <Gold.Chemscore.Internal_Hbond>
0.0000

> <Gold.Chemscore.DEClash>
0.1097

> <Gold.Chemscore.DEInternal>
1.5594

> <Gold.Chemscore.Rot>
1.0000

> <Gold.Chemscore.Internal.Correction>
   9.000000E+99

> <Gold.Chemscore.Hbonds>
donor molecule, donor type, donor heavy atom, donor atom, acceptor molecule, acceptor atom, score
      L1  H     3    19       P1 10175  1.00
      L1  H     9    22       P1 10175  0.27
      L1  H    13    37       P1 10186  0.25

> <Gold.Chemscore.Hbond.Weighted>
-5.6370

> <Gold.Chemscore.Metal.Weighted>
-0.0000

> <Gold.Chemscore.Lipo.Weighted>
-8.4323

> <Gold.Chemscore.Internal_Hbond.Weighted>
0.0000

> <Gold.Chemscore.DEClash.Weighted>
0.1097

> <Gold.Chemscore.DEInternal.Weighted>
1.5594

> <Gold.Chemscore.Rot.Weighted>
2.5600

> <Gold.Chemscore.Internal.Correction.Weighted>
   9.000000E+99

> <Gold.Protein.RotatedTorsions>
[ 6907 6896 6895 6894 ] final  -95.65 input  -60.11 | X-H torsion
[ 7974 7965 7964 7962 ] final   64.12 input  175.53 | X-H torsion
[ 8008 7997 7996 7995 ] final -152.62 input   59.86 | X-H torsion
[ 10167 10162 10161 10158 ] final  134.32 input  -65.29 | X-H torsion
[ 10718 10713 10712 10709 ] final   56.45 input   66.30 | X-H torsion
[ 10763 10752 10751 10750 ] final   30.35 input  -60.55 | X-H torsion
[ 11005 11000 10999 10996 ] final   94.83 input  -57.11 | X-H torsion

> <Gold.Protein.ActiveResidues>
 VAL166  LYS551  ARG553  GLY616  TRP617  ASP618  TYR619  PRO620  LYS621  CYS622 
 ASP623  PHE694  ASN695  SER759  ASP760  ASP761  ALA762  ILE779  LEU786  VAL792 
 PHE793  MET794  SER795  GLU796  ALA797  LYS798  CYS799  TRP800  GLU811  SER814 

> <Gold.Protein.RotatedAtoms>
  150.6969  134.1624  159.4181 H   0  0  0  0  0  0  0  0  0  0  0  0  # atno 6907 bound_to 6896
  151.9604  135.0124  160.0556 H   0  0  0  0  0  0  0  0  0  0  0  0  # atno 6908 bound_to 6896
  152.1931  133.4752  159.5055 H   0  0  0  0  0  0  0  0  0  0  0  0  # atno 6909 bound_to 6896
  145.8539  139.3271  143.0859 H   0  0  0  0  0  0  0  0  0  0  0  0  # atno 7974 bound_to 7965
  155.6580  140.0719  157.2564 H   0  0  0  0  0  0  0  0  0  0  0  0  # atno 8008 bound_to 7997
  154.4148  140.1721  156.1796 H   0  0  0  0  0  0  0  0  0  0  0  0  # atno 8009 bound_to 7997
  155.9721  140.3361  155.6589 H   0  0  0  0  0  0  0  0  0  0  0  0  # atno 8010 bound_to 7997
  139.5261  144.6573  151.5123 H   0  0  0  0  0  0  0  0  0  0  0  0  # atno 10167 bound_to 10162
  157.5432  130.8712  149.8852 H   0  0  0  0  0  0  0  0  0  0  0  0  # atno 10718 bound_to 10713
  153.0377  135.6466  154.1031 H   0  0  0  0  0  0  0  0  0  0  0  0  # atno 10763 bound_to 10752
  154.0743  135.2878  155.3304 H   0  0  0  0  0  0  0  0  0  0  0  0  # atno 10764 bound_to 10752
  154.6573  135.5404  153.8039 H   0  0  0  0  0  0  0  0  0  0  0  0  # atno 10765 bound_to 10752
  139.8795  134.8866  156.3921 H   0  0  0  0  0  0  0  0  0  0  0  0  # atno 11005 bound_to 11000
  145.9326  140.9037  143.0348 LP  0  0  0  0  0  0  0  0  0  0  0  0  # atno 17320 bound_to 7965
  144.6728  140.1439  143.7435 LP  0  0  0  0  0  0  0  0  0  0  0  0  # atno 17321 bound_to 7965
  140.6405  143.8899  150.6687 LP  0  0  0  0  0  0  0  0  0  0  0  0  # atno 17342 bound_to 10162
  140.2232  143.3793  152.1626 LP  0  0  0  0  0  0  0  0  0  0  0  0  # atno 17343 bound_to 10162
  156.0513  130.3717  150.1194 LP  0  0  0  0  0  0  0  0  0  0  0  0  # atno 17370 bound_to 10713
  156.9372  130.9733  151.3522 LP  0  0  0  0  0  0  0  0  0  0  0  0  # atno 17371 bound_to 10713
  140.9325  133.7569  156.0043 LP  0  0  0  0  0  0  0  0  0  0  0  0  # atno 17394 bound_to 11000
  140.8313  134.3174  157.5347 LP  0  0  0  0  0  0  0  0  0  0  0  0  # atno 17395 bound_to 11000

$$$$
