AV-unprocessed.smi:3173|AV-procd|sdf|12119|dock3
  -GOLD-   2272017553D 1   1.00000     0.00000
 Structure written by MMmdl.
 36 37  0  0  0  0  0  0  0  0  2 V2000
  150.8359  139.9591  154.4287 O   0  0  0  0  0  0  0  0  0  0  0  0
  149.7342  139.7001  154.9136 C   0  0  0  0  0  0  0  0  0  0  0  0
  148.6555  139.0156  154.0672 C   0  0  0  0  0  0  0  0  0  0  0  0
  147.3961  139.8846  153.8678 C   0  0  2  0  0  0  0  0  0  0  0  0
  147.7331  141.2976  153.4669 C   0  0  0  0  0  0  0  0  0  0  0  0
  147.1228  142.2071  154.2236 C   0  0  0  0  0  0  0  0  0  0  0  0
  146.2564  141.5858  155.2835 C   0  0  0  0  0  0  0  0  0  0  0  0
  146.5352  140.0729  155.1462 C   0  0  0  0  0  0  0  0  0  0  0  0
  149.4059  139.9843  156.1833 N   0  0  0  0  0  0  0  0  0  0  0  0
  150.2971  140.6048  157.1566 C   0  0  0  0  0  0  0  0  0  0  0  0
  150.8240  141.9596  156.6541 C   0  0  0  0  0  0  0  0  0  0  0  0
  151.2794  142.8564  157.7886 C   0  0  0  0  0  0  0  0  0  0  0  0
  152.1254  142.3899  158.8181 C   0  0  0  0  0  0  0  0  0  0  0  0
  152.5173  143.2763  159.8428 C   0  0  0  0  0  0  0  0  0  0  0  0
  152.0563  144.6089  159.8164 C   0  0  0  0  0  0  0  0  0  0  0  0
  151.2148  145.0223  158.7633 C   0  0  0  0  0  0  0  0  0  0  0  0
  150.8622  144.1434  157.7993 N   0  3  0  0  0  0  0  0  0  0  0  0
  149.0702  138.7409  153.0958 H   0  0  0  0  0  0  0  0  0  0  0  0
  148.3842  138.0821  154.5615 H   0  0  0  0  0  0  0  0  0  0  0  0
  146.7819  139.4695  153.0672 H   0  0  0  0  0  0  0  0  0  0  0  0
  148.3892  141.5192  152.6380 H   0  0  0  0  0  0  0  0  0  0  0  0
  147.2084  143.2770  154.1035 H   0  0  0  0  0  0  0  0  0  0  0  0
  146.5228  141.9606  156.2723 H   0  0  0  0  0  0  0  0  0  0  0  0
  145.2098  141.8225  155.0895 H   0  0  0  0  0  0  0  0  0  0  0  0
  145.6107  139.4968  155.0931 H   0  0  0  0  0  0  0  0  0  0  0  0
  147.0753  139.7283  156.0292 H   0  0  0  0  0  0  0  0  0  0  0  0
  148.4769  139.7439  156.4986 H   0  0  0  0  0  0  0  0  0  0  0  0
  149.7801  140.7253  158.1103 H   0  0  0  0  0  0  0  0  0  0  0  0
  151.1288  139.9236  157.3383 H   0  0  0  0  0  0  0  0  0  0  0  0
  151.6567  141.8058  155.9664 H   0  0  0  0  0  0  0  0  0  0  0  0
  150.0506  142.4789  156.0865 H   0  0  0  0  0  0  0  0  0  0  0  0
  152.4716  141.3663  158.8228 H   0  0  0  0  0  0  0  0  0  0  0  0
  153.1642  142.9378  160.6392 H   0  0  0  0  0  0  0  0  0  0  0  0
  152.3443  145.3032  160.5923 H   0  0  0  0  0  0  0  0  0  0  0  0
  150.8166  146.0215  158.6633 H   0  0  0  0  0  0  0  0  0  0  0  0
  150.2527  144.4650  157.0469 H   0  0  0  0  0  0  0  0  0  0  0  0
  1  2  2  0  0  0  0
  2  3  1  0  0  0  0
  2  9  1  0  0  0  0
  3  4  1  0  0  0  0
  3 18  1  0  0  0  0
  3 19  1  0  0  0  0
  4  8  1  0  0  0  0
  4  5  1  0  0  0  0
  4 20  1  0  0  0  0
  5  6  2  0  0  0  0
  5 21  1  0  0  0  0
  6  7  1  0  0  0  0
  6 22  1  0  0  0  0
  7  8  1  0  0  0  0
  7 23  1  0  0  0  0
  7 24  1  0  0  0  0
  8 25  1  0  0  0  0
  8 26  1  0  0  0  0
  9 10  1  0  0  0  0
  9 27  1  0  0  0  0
 10 11  1  0  0  0  0
 10 28  1  0  0  0  0
 10 29  1  0  0  0  0
 11 12  1  0  0  0  0
 11 30  1  0  0  0  0
 11 31  1  0  0  0  0
 12 17  1  0  0  0  0
 12 13  2  0  0  0  0
 13 14  1  0  0  0  0
 13 32  1  0  0  0  0
 14 15  2  0  0  0  0
 14 33  1  0  0  0  0
 15 16  1  0  0  0  0
 15 34  1  0  0  0  0
 16 17  2  0  0  0  0
 16 35  1  0  0  0  0
 17 36  1  0  0  0  0
M  CHG  1  17   1
M  END
> <s_m_source_file>
AV-unprocessed.smi

> <i_m_source_file_index>
3173

> <i_lp_mmshare_version>
43012

> <i_f3d_flags>
0

> <s_epik_input>
W0NIMl0xW0NIMl1bQ0hdPVtDSF1bQ0BIXTFbQ0gyXUMoPU8pW05IXVtDSDJdW0NIMl1jMltjSF1bY0hdW2NIXVtjSF1uMg==

> <s_epik_cmdline>
J2VwaWtfcHl0aG9uJywgJy1waCcsICc3LjAnLCAnLXRuJywgJzgnLCAnLW1hJywgJzIwMCcsICctbWV0YWxfYmluZGluZycsICctaW1hZScsICc8aW5maWxlLm1hZT4nLCAnLW9tYWUnLCAnPG91dGZpbGUubWFlPic=

> <r_epik_Ionization_Penalty>
1.86798

> <r_epik_Ionization_Penalty_Charging>
1.86798

> <r_epik_Ionization_Penalty_Neutral>
1.53848e-08

> <r_epik_State_Penalty>
1.98677

> <r_epik_Charging_Adjusted_Penalty>
3.85475

> <i_epik_Tot_Q>
1

> <i_epik_Tot_abs_Q>
1

> <r_epik_Metal_State_Penalty>
2.01174

> <b_epik_Metal_Only>
0

> <s_lp_Force_Field>
OPLS_2005

> <r_lp_Energy>
19.7802

> <b_lp_Chiralities_Consistent>
1

> <s_lp_Variant>
AV-unprocessed.smi:3173-3

> <Gold.Version>
5.8.1

> <Gold.Id.Protein>
6NUR|6NUR_protein|mol2

> <Gold.PLP.Fitness>
46.2300

> <Gold.PLP.PLP>
-37.8671

> <Gold.PLP.part.hbond>
-2.0000

> <Gold.PLP.part.metal>
0.0000

> <Gold.PLP.part.buried>
-5.9831

> <Gold.PLP.part.nonpolar>
-30.6191

> <Gold.PLP.part.repulsive>
0.1627

> <Gold.PLP.ligand.clash>
0.0000

> <Gold.PLP.ligand.torsion>
0.3327

> <Gold.PLP.Chemscore.Hbond>
3.0000

> <Gold.PLP.Chemscore.CHOScore>
0.0000

> <Gold.PLP.Chemscore.Metal>
0.0000

> <Gold.Chemscore.Hbonds>
donor molecule, donor type, donor heavy atom, donor atom, acceptor molecule, acceptor atom, score
      L1  H    17    36       P1  8028  2.00
      P1  H  7989  7998       L1     1  0.99

> <Gold.PLP.Chemscore.Internal.Correction>
0.0282

> <Gold.Rescore>
     Score         DG    S(hbond)    S(metal)    S(lipo)     H(rot)  DE(clash)    DE(int)     intcor
     18.82     -19.30       1.88        0.00      99.73       1.61       0.02       0.46       ----

> <Gold.Chemscore.Fitness>
18.8215

> <Gold.Chemscore.DG>
-19.3005

> <Gold.Chemscore.ZeroCoef>
-5.4800

> <Gold.Chemscore.Hbond>
1.8801

> <Gold.Chemscore.Metal>
0.0000

> <Gold.Chemscore.Lipo>
99.7259

> <Gold.Chemscore.Internal_Hbond>
0.0000

> <Gold.Chemscore.DEClash>
0.0234

> <Gold.Chemscore.DEInternal>
0.4556

> <Gold.Chemscore.Rot>
1.6122

> <Gold.Chemscore.Internal.Correction>
   9.000000E+99

> <Gold.Chemscore.Hbonds>
donor molecule, donor type, donor heavy atom, donor atom, acceptor molecule, acceptor atom, score
      L1  H    17    36       P1  8028  0.74
      P1  H  7989  7998       L1     1  0.92

> <Gold.Chemscore.Hbond.Weighted>
-6.2797

> <Gold.Chemscore.Metal.Weighted>
-0.0000

> <Gold.Chemscore.Lipo.Weighted>
-11.6679

> <Gold.Chemscore.Internal_Hbond.Weighted>
0.0000

> <Gold.Chemscore.DEClash.Weighted>
0.0234

> <Gold.Chemscore.DEInternal.Weighted>
0.4556

> <Gold.Chemscore.Rot.Weighted>
4.1271

> <Gold.Chemscore.Internal.Correction.Weighted>
   9.000000E+99

> <Gold.Protein.RotatedTorsions>
[ 6907 6896 6895 6894 ] final -168.10 input  -60.11 | X-H torsion
[ 7974 7965 7964 7962 ] final  -69.85 input  175.53 | X-H torsion
[ 8008 7997 7996 7995 ] final -127.83 input   59.86 | X-H torsion
[ 10167 10162 10161 10158 ] final  131.46 input  -65.29 | X-H torsion
[ 10718 10713 10712 10709 ] final  149.43 input   66.30 | X-H torsion
[ 10763 10752 10751 10750 ] final   22.37 input  -60.55 | X-H torsion
[ 11005 11000 10999 10996 ] final  158.56 input  -57.11 | X-H torsion

> <Gold.Protein.ActiveResidues>
 VAL166  LYS551  ARG553  GLY616  TRP617  ASP618  TYR619  PRO620  LYS621  CYS622 
 ASP623  PHE694  ASN695  SER759  ASP760  ASP761  ALA762  ILE779  LEU786  VAL792 
 PHE793  MET794  SER795  GLU796  ALA797  LYS798  CYS799  TRP800  GLU811  SER814 

> <Gold.Protein.RotatedAtoms>
  151.4702  133.3571  159.2822 H   0  0  0  0  0  0  0  0  0  0  0  0  # atno 6907 bound_to 6896
  150.8966  134.8377  159.7342 H   0  0  0  0  0  0  0  0  0  0  0  0  # atno 6908 bound_to 6896
  152.4855  134.4617  159.9659 H   0  0  0  0  0  0  0  0  0  0  0  0  # atno 6909 bound_to 6896
  145.6985  140.9126  143.0744 H   0  0  0  0  0  0  0  0  0  0  0  0  # atno 7974 bound_to 7965
  155.2526  140.0433  157.2988 H   0  0  0  0  0  0  0  0  0  0  0  0  # atno 8008 bound_to 7997
  154.5760  140.2387  155.8092 H   0  0  0  0  0  0  0  0  0  0  0  0  # atno 8009 bound_to 7997
  156.2158  140.2985  155.9844 H   0  0  0  0  0  0  0  0  0  0  0  0  # atno 8010 bound_to 7997
  139.5383  144.6705  151.4711 H   0  0  0  0  0  0  0  0  0  0  0  0  # atno 10167 bound_to 10162
  157.2962  131.0862  151.1424 H   0  0  0  0  0  0  0  0  0  0  0  0  # atno 10718 bound_to 10713
  153.0921  135.6649  153.9834 H   0  0  0  0  0  0  0  0  0  0  0  0  # atno 10763 bound_to 10752
  153.9428  135.2992  155.3443 H   0  0  0  0  0  0  0  0  0  0  0  0  # atno 10764 bound_to 10752
  154.7336  135.5111  153.9078 H   0  0  0  0  0  0  0  0  0  0  0  0  # atno 10765 bound_to 10752
  140.1877  134.8430  157.2876 H   0  0  0  0  0  0  0  0  0  0  0  0  # atno 11005 bound_to 11000
  144.6975  139.8916  143.7453 LP  0  0  0  0  0  0  0  0  0  0  0  0  # atno 17320 bound_to 7965
  146.0819  139.3807  143.0459 LP  0  0  0  0  0  0  0  0  0  0  0  0  # atno 17321 bound_to 7965
  140.6601  143.8517  150.6878 LP  0  0  0  0  0  0  0  0  0  0  0  0  # atno 17342 bound_to 10162
  140.1909  143.4037  152.1864 LP  0  0  0  0  0  0  0  0  0  0  0  0  # atno 17343 bound_to 10162
  157.2801  130.6746  149.6062 LP  0  0  0  0  0  0  0  0  0  0  0  0  # atno 17370 bound_to 10713
  155.9669  130.4452  150.5493 LP  0  0  0  0  0  0  0  0  0  0  0  0  # atno 17371 bound_to 10713
  140.2195  134.4041  155.7573 LP  0  0  0  0  0  0  0  0  0  0  0  0  # atno 17394 bound_to 11000
  141.2225  133.7159  156.8467 LP  0  0  0  0  0  0  0  0  0  0  0  0  # atno 17395 bound_to 11000

$$$$
