AV-unprocessed.smi:394|AV-procd|sdf|2485|dock3
  -GOLD-   2262022423D 1   1.00000     0.00000
 Structure written by MMmdl.
 30 31  0  0  0  0  0  0  0  0  1 V2000
  157.8853  140.7987  159.5219 C   0  0  0  0  0  0  0  0  0  0  0  0
  156.5453  140.7991  160.0871 N   0  0  0  0  0  0  0  0  0  0  0  0
  155.5767  139.9347  159.7437 C   0  0  0  0  0  0  0  0  0  0  0  0
  155.7456  139.0491  158.9063 O   0  0  0  0  0  0  0  0  0  0  0  0
  154.2028  140.0617  160.4270 C   0  0  0  0  0  0  0  0  0  0  0  0
  153.2124  140.8908  159.7008 N   0  0  0  0  0  0  0  0  0  0  0  0
  152.7520  140.4484  158.4340 C   0  0  0  0  0  0  0  0  0  0  0  0
  153.1459  139.3856  157.9510 O   0  0  0  0  0  0  0  0  0  0  0  0
  151.7966  141.3310  157.7680 C   0  0  0  0  0  0  0  0  0  0  0  0
  151.3476  140.9454  156.4712 C   0  0  0  0  0  0  0  0  0  0  0  0
  150.9994  140.6128  155.4188 N   0  0  0  0  0  0  0  0  0  0  0  0
  151.3667  142.4634  158.3616 C   0  0  0  0  0  0  0  0  0  0  0  0
  151.7822  142.8453  159.6184 N   0  0  0  0  0  0  0  0  0  0  0  0
  151.4236  144.1216  160.1699 C   0  0  0  0  0  0  0  0  0  0  0  0
  150.4546  145.0290  159.4367 C   0  0  0  0  0  0  0  0  0  0  0  0
  151.9215  145.3795  159.4921 C   0  0  0  0  0  0  0  0  0  0  0  0
  152.7582  142.0893  160.3036 C   0  0  0  0  0  0  0  0  0  0  0  0
  153.2021  142.4584  161.3936 O   0  0  0  0  0  0  0  0  0  0  0  0
  158.4815  141.5878  159.9799 H   0  0  0  0  0  0  0  0  0  0  0  0
  157.8523  140.9770  158.4463 H   0  0  0  0  0  0  0  0  0  0  0  0
  158.3836  139.8455  159.7030 H   0  0  0  0  0  0  0  0  0  0  0  0
  156.3370  141.5018  160.7815 H   0  0  0  0  0  0  0  0  0  0  0  0
  153.8158  139.0554  160.5942 H   0  0  0  0  0  0  0  0  0  0  0  0
  154.3647  140.4438  161.4361 H   0  0  0  0  0  0  0  0  0  0  0  0
  150.6632  143.0942  157.8369 H   0  0  0  0  0  0  0  0  0  0  0  0
  151.3744  144.1583  161.2569 H   0  0  0  0  0  0  0  0  0  0  0  0
  150.0599  144.6967  158.4783 H   0  0  0  0  0  0  0  0  0  0  0  0
  149.7717  145.6228  160.0405 H   0  0  0  0  0  0  0  0  0  0  0  0
  152.2156  146.2100  160.1308 H   0  0  0  0  0  0  0  0  0  0  0  0
  152.4920  145.2760  158.5712 H   0  0  0  0  0  0  0  0  0  0  0  0
  1  2  1  0  0  0  0
  1 19  1  0  0  0  0
  1 20  1  0  0  0  0
  1 21  1  0  0  0  0
  2  3  1  0  0  0  0
  2 22  1  0  0  0  0
  3  4  2  0  0  0  0
  3  5  1  0  0  0  0
  5  6  1  0  0  0  0
  5 23  1  0  0  0  0
  5 24  1  0  0  0  0
  6 17  1  0  0  0  0
  6  7  1  0  0  0  0
  7  8  2  0  0  0  0
  7  9  1  0  0  0  0
  9 10  1  0  0  0  0
  9 12  2  0  0  0  0
 10 11  3  0  0  0  0
 12 13  1  0  0  0  0
 12 25  1  0  0  0  0
 13 14  1  0  0  0  0
 13 17  1  0  0  0  0
 14 16  1  0  0  0  0
 14 15  1  0  0  0  0
 14 26  1  0  0  0  0
 15 16  1  0  0  0  0
 15 27  1  0  0  0  0
 15 28  1  0  0  0  0
 16 29  1  0  0  0  0
 16 30  1  0  0  0  0
 17 18  2  0  0  0  0
M  END
> <s_m_source_file>
AV-unprocessed.smi

> <i_m_source_file_index>
394

> <i_lp_mmshare_version>
43012

> <i_f3d_flags>
0

> <s_epik_input>
W0NIM11bTkhdQyg9TylbQ0gyXW4xYyg9TyljKEMjTilbY0hdbihjMT1PKVtDSF0yW0NIMl1bQ0gyXTI=

> <s_epik_cmdline>
J2VwaWtfcHl0aG9uJywgJy1waCcsICc3LjAnLCAnLXRuJywgJzgnLCAnLW1hJywgJzIwMCcsICctbWV0YWxfYmluZGluZycsICctaW1hZScsICc8aW5maWxlLm1hZT4nLCAnLW9tYWUnLCAnPG91dGZpbGUubWFlPic=

> <r_lp_tautomer_probability>
1

> <r_epik_Ionization_Penalty>
1.93483e-08

> <r_epik_Ionization_Penalty_Charging>
8.13451e-11

> <r_epik_Ionization_Penalty_Neutral>
1.9267e-08

> <r_epik_State_Penalty>
-0

> <r_epik_Charging_Adjusted_Penalty>
8.13451e-11

> <i_epik_Tot_Q>
0

> <i_epik_Tot_abs_Q>
0

> <r_epik_Metal_State_Penalty>
-0

> <b_epik_Metal_Only>
0

> <s_lp_Force_Field>
OPLS_2005

> <r_lp_Energy>
29.0516

> <b_lp_Chiralities_Consistent>
1

> <s_lp_Variant>
AV-unprocessed.smi:394-1

> <Gold.Version>
5.8.1

> <Gold.Id.Protein>
6NUR|6NUR_protein|mol2

> <Gold.PLP.Fitness>
45.1890

> <Gold.PLP.PLP>
-38.7115

> <Gold.PLP.part.hbond>
-4.0000

> <Gold.PLP.part.metal>
0.0000

> <Gold.PLP.part.buried>
-5.8452

> <Gold.PLP.part.nonpolar>
-29.6803

> <Gold.PLP.part.repulsive>
0.1491

> <Gold.PLP.ligand.clash>
0.0000

> <Gold.PLP.ligand.torsion>
0.5102

> <Gold.PLP.Chemscore.Hbond>
2.4320

> <Gold.PLP.Chemscore.CHOScore>
0.0000

> <Gold.PLP.Chemscore.Metal>
0.0000

> <Gold.Chemscore.Hbonds>
donor molecule, donor type, donor heavy atom, donor atom, acceptor molecule, acceptor atom, score
      P1  H  7989  7998       L1    11  0.89
      P1  H  7997  8008       L1     8  0.72
      P1  H  7997  8010       L1     4  0.82

> <Gold.PLP.Chemscore.Internal.Correction>
0.2020

> <Gold.Rescore>
     Score         DG    S(hbond)    S(metal)    S(lipo)     H(rot)  DE(clash)    DE(int)     intcor
     12.53     -14.76       1.93        0.00      62.22       1.73       0.41       1.83       ----

> <Gold.Chemscore.Fitness>
12.5263

> <Gold.Chemscore.DG>
-14.7607

> <Gold.Chemscore.ZeroCoef>
-5.4800

> <Gold.Chemscore.Hbond>
1.9260

> <Gold.Chemscore.Metal>
0.0000

> <Gold.Chemscore.Lipo>
62.2217

> <Gold.Chemscore.Internal_Hbond>
0.0000

> <Gold.Chemscore.DEClash>
0.4075

> <Gold.Chemscore.DEInternal>
1.8269

> <Gold.Chemscore.Rot>
1.7313

> <Gold.Chemscore.Internal.Correction>
   9.000000E+99

> <Gold.Chemscore.Hbonds>
donor molecule, donor type, donor heavy atom, donor atom, acceptor molecule, acceptor atom, score
      P1  H  7989  7998       L1    11  0.80
      P1  H  7997  8008       L1     8  0.17
      P1  H  7997  8010       L1     4  0.30

> <Gold.Chemscore.Hbond.Weighted>
-6.4328

> <Gold.Chemscore.Metal.Weighted>
-0.0000

> <Gold.Chemscore.Lipo.Weighted>
-7.2799

> <Gold.Chemscore.Internal_Hbond.Weighted>
0.0000

> <Gold.Chemscore.DEClash.Weighted>
0.4075

> <Gold.Chemscore.DEInternal.Weighted>
1.8269

> <Gold.Chemscore.Rot.Weighted>
4.4320

> <Gold.Chemscore.Internal.Correction.Weighted>
   9.000000E+99

> <Gold.Protein.RotatedTorsions>
[ 6907 6896 6895 6894 ] final -125.82 input  -60.11 | X-H torsion
[ 7974 7965 7964 7962 ] final   72.49 input  175.53 | X-H torsion
[ 8008 7997 7996 7995 ] final  -49.68 input   59.86 | X-H torsion
[ 10167 10162 10161 10158 ] final -155.83 input  -65.29 | X-H torsion
[ 10718 10713 10712 10709 ] final  108.57 input   66.30 | X-H torsion
[ 10763 10752 10751 10750 ] final   28.90 input  -60.55 | X-H torsion
[ 11005 11000 10999 10996 ] final  131.97 input  -57.11 | X-H torsion

> <Gold.Protein.ActiveResidues>
 VAL166  LYS551  ARG553  GLY616  TRP617  ASP618  TYR619  PRO620  LYS621  CYS622 
 ASP623  PHE694  ASN695  SER759  ASP760  ASP761  ALA762  ILE779  LEU786  VAL792 
 PHE793  MET794  SER795  GLU796  ALA797  LYS798  CYS799  TRP800  GLU811  SER814 

> <Gold.Protein.RotatedAtoms>
  150.8906  133.7248  159.2905 H   0  0  0  0  0  0  0  0  0  0  0  0  # atno 6907 bound_to 6896
  151.4800  135.1050  159.9784 H   0  0  0  0  0  0  0  0  0  0  0  0  # atno 6908 bound_to 6896
  152.4817  133.8225  159.7116 H   0  0  0  0  0  0  0  0  0  0  0  0  # atno 6909 bound_to 6896
  145.7528  139.2767  143.1422 H   0  0  0  0  0  0  0  0  0  0  0  0  # atno 7974 bound_to 7965
  154.4048  140.1291  156.4542 H   0  0  0  0  0  0  0  0  0  0  0  0  # atno 8008 bound_to 7997
  155.7336  140.3491  155.5051 H   0  0  0  0  0  0  0  0  0  0  0  0  # atno 8009 bound_to 7997
  155.9104  140.1035  157.1274 H   0  0  0  0  0  0  0  0  0  0  0  0  # atno 8010 bound_to 7997
  139.6899  143.9438  152.2380 H   0  0  0  0  0  0  0  0  0  0  0  0  # atno 10167 bound_to 10162
  157.6580  131.0896  150.6325 H   0  0  0  0  0  0  0  0  0  0  0  0  # atno 10718 bound_to 10713
  153.0463  135.6502  154.0809 H   0  0  0  0  0  0  0  0  0  0  0  0  # atno 10763 bound_to 10752
  154.0506  135.2896  155.3342 H   0  0  0  0  0  0  0  0  0  0  0  0  # atno 10764 bound_to 10752
  154.6722  135.5352  153.8219 H   0  0  0  0  0  0  0  0  0  0  0  0  # atno 10765 bound_to 10752
  139.9762  134.9563  156.9514 H   0  0  0  0  0  0  0  0  0  0  0  0  # atno 11005 bound_to 11000
  146.0340  140.8230  142.9861 LP  0  0  0  0  0  0  0  0  0  0  0  0  # atno 17320 bound_to 7965
  144.6846  140.2812  143.7292 LP  0  0  0  0  0  0  0  0  0  0  0  0  # atno 17321 bound_to 7965
  139.9251  144.6776  150.8421 LP  0  0  0  0  0  0  0  0  0  0  0  0  # atno 17342 bound_to 10162
  140.7679  143.3347  151.2333 LP  0  0  0  0  0  0  0  0  0  0  0  0  # atno 17343 bound_to 10162
  156.6630  130.4517  149.5681 LP  0  0  0  0  0  0  0  0  0  0  0  0  # atno 17370 bound_to 10713
  156.2053  130.6645  151.1212 LP  0  0  0  0  0  0  0  0  0  0  0  0  # atno 17371 bound_to 10713
  140.5191  134.0926  155.7288 LP  0  0  0  0  0  0  0  0  0  0  0  0  # atno 17394 bound_to 11000
  141.1438  133.9091  157.2263 LP  0  0  0  0  0  0  0  0  0  0  0  0  # atno 17395 bound_to 11000

$$$$
