AV-unprocessed.smi:3150|AV-procd|sdf|12014|dock5
  -GOLD-   2272017423D 1   1.00000     0.00000
 Structure written by MMmdl.
 32 33  0  0  0  0  0  0  0  0  2 V2000
  150.5826  138.0303  155.4235 C   0  0  0  0  0  0  0  0  0  0  0  0
  151.1268  139.4605  155.2878 C   0  0  1  0  0  0  0  0  0  0  0  0
  150.3879  140.1063  154.2538 O   0  0  0  0  0  0  0  0  0  0  0  0
  148.9734  140.0582  154.3966 C   0  0  0  0  0  0  0  0  0  0  0  0
  148.4004  141.4123  154.0382 C   0  0  0  0  0  0  0  0  0  0  0  0
  147.2659  141.9976  154.8486 C   0  0  0  0  0  0  0  0  0  0  0  0
  147.0178  141.5303  153.4371 C   0  0  0  0  0  0  0  0  0  0  0  0
  150.9972  140.2417  156.6061 C   0  0  0  0  0  0  0  0  0  0  0  0
  149.8811  140.5473  157.0285 O   0  0  0  0  0  0  0  0  0  0  0  0
  152.1581  140.5554  157.2104 N   0  0  0  0  0  0  0  0  0  0  0  0
  152.3690  141.2781  158.4169 C   0  0  0  0  0  0  0  0  0  0  0  0
  151.6696  142.3957  158.7385 N   0  0  0  0  0  0  0  0  0  0  0  0
  151.9289  143.0254  159.9029 C   0  0  0  0  0  0  0  0  0  0  0  0
  152.8991  142.5832  160.8193 C   0  0  0  0  0  0  0  0  0  0  0  0
  153.6320  141.4272  160.5000 C   0  0  0  0  0  0  0  0  0  0  0  0
  153.3675  140.7630  159.2855 C   0  0  0  0  0  0  0  0  0  0  0  0
  154.0828  139.6381  158.9746 O   0  5  0  0  0  0  0  0  0  0  0  0
  151.0959  137.4848  156.2159 H   0  0  0  0  0  0  0  0  0  0  0  0
  150.7245  137.4744  154.4967 H   0  0  0  0  0  0  0  0  0  0  0  0
  149.5154  138.0259  155.6487 H   0  0  0  0  0  0  0  0  0  0  0  0
  152.1775  139.3979  154.9971 H   0  0  0  0  0  0  0  0  0  0  0  0
  148.5289  139.2961  153.7553 H   0  0  0  0  0  0  0  0  0  0  0  0
  148.7062  139.8250  155.4279 H   0  0  0  0  0  0  0  0  0  0  0  0
  149.1430  142.1246  153.6836 H   0  0  0  0  0  0  0  0  0  0  0  0
  146.8545  141.3942  155.6554 H   0  0  0  0  0  0  0  0  0  0  0  0
  147.2784  143.0706  155.0285 H   0  0  0  0  0  0  0  0  0  0  0  0
  146.8668  142.2908  152.6736 H   0  0  0  0  0  0  0  0  0  0  0  0
  146.4438  140.6155  153.3033 H   0  0  0  0  0  0  0  0  0  0  0  0
  153.0035  140.2509  156.7494 H   0  0  0  0  0  0  0  0  0  0  0  0
  151.3440  143.9095  160.1094 H   0  0  0  0  0  0  0  0  0  0  0  0
  153.0762  143.1163  161.7414 H   0  0  0  0  0  0  0  0  0  0  0  0
  154.3867  141.0568  161.1786 H   0  0  0  0  0  0  0  0  0  0  0  0
  1  2  1  0  0  0  0
  1 18  1  0  0  0  0
  1 19  1  0  0  0  0
  1 20  1  0  0  0  0
  2  3  1  0  0  0  0
  2  8  1  0  0  0  0
  2 21  1  0  0  0  0
  3  4  1  0  0  0  0
  4  5  1  0  0  0  0
  4 22  1  0  0  0  0
  4 23  1  0  0  0  0
  5  7  1  0  0  0  0
  5  6  1  0  0  0  0
  5 24  1  0  0  0  0
  6  7  1  0  0  0  0
  6 25  1  0  0  0  0
  6 26  1  0  0  0  0
  7 27  1  0  0  0  0
  7 28  1  0  0  0  0
  8  9  2  0  0  0  0
  8 10  1  0  0  0  0
 10 29  1  0  0  0  0
 10 11  1  0  0  0  0
 11 16  2  0  0  0  0
 11 12  1  0  0  0  0
 12 13  2  0  0  0  0
 13 30  1  0  0  0  0
 13 14  1  0  0  0  0
 14 31  1  0  0  0  0
 14 15  2  0  0  0  0
 15 16  1  0  0  0  0
 15 32  1  0  0  0  0
 16 17  1  0  0  0  0
M  CHG  1  17  -1
M  END
> <s_m_source_file>
AV-unprocessed.smi

> <i_m_source_file_index>
3150

> <i_lp_mmshare_version>
43012

> <i_f3d_flags>
0

> <s_epik_input>
W0NIMl0xW0NIMl1bQ0hdMVtDSDJdT1tDQEBIXShbQ0gzXSlDKD1PKVtOSF1jMm5bY0hdW2NIXVtjSF1jMltPSF0=

> <s_epik_cmdline>
J2VwaWtfcHl0aG9uJywgJy1waCcsICc3LjAnLCAnLXRuJywgJzgnLCAnLW1hJywgJzIwMCcsICctbWV0YWxfYmluZGluZycsICctaW1hZScsICc8aW5maWxlLm1hZT4nLCAnLW9tYWUnLCAnPG91dGZpbGUubWFlPic=

> <r_epik_Ionization_Penalty>
4.12024

> <r_epik_Ionization_Penalty_Charging>
2.08551

> <r_epik_Ionization_Penalty_Neutral>
2.03473

> <r_epik_State_Penalty>
2.65726

> <r_epik_Charging_Adjusted_Penalty>
4.74277

> <i_epik_Tot_Q>
-1

> <i_epik_Tot_abs_Q>
1

> <r_epik_Metal_State_Penalty>
0.600747

> <b_epik_Metal_Only>
0

> <s_lp_Force_Field>
OPLS_2005

> <r_lp_Energy>
13.8702

> <b_lp_Chiralities_Consistent>
1

> <s_lp_Variant>
AV-unprocessed.smi:3150-8

> <Gold.Version>
5.8.1

> <Gold.Id.Protein>
6NUR|6NUR_protein|mol2

> <Gold.PLP.Fitness>
41.2496

> <Gold.PLP.PLP>
-34.1851

> <Gold.PLP.part.hbond>
-2.0000

> <Gold.PLP.part.metal>
0.0000

> <Gold.PLP.part.buried>
-3.5170

> <Gold.PLP.part.nonpolar>
-28.1130

> <Gold.PLP.part.repulsive>
0.2768

> <Gold.PLP.ligand.clash>
0.0000

> <Gold.PLP.ligand.torsion>
1.2632

> <Gold.PLP.Chemscore.Hbond>
3.0000

> <Gold.PLP.Chemscore.CHOScore>
0.0000

> <Gold.PLP.Chemscore.Metal>
0.0000

> <Gold.Chemscore.Hbonds>
donor molecule, donor type, donor heavy atom, donor atom, acceptor molecule, acceptor atom, score
      P1  H  7989  7998       L1     3  1.00
      P1  H  7997  8009       L1    17  2.00

> <Gold.PLP.Chemscore.Internal.Correction>
0.5910

> <Gold.Rescore>
     Score         DG    S(hbond)    S(metal)    S(lipo)     H(rot)  DE(clash)    DE(int)     intcor
     13.50     -16.05       1.51        0.00      82.96       1.64       0.07       2.48       ----

> <Gold.Chemscore.Fitness>
13.5026

> <Gold.Chemscore.DG>
-16.0497

> <Gold.Chemscore.ZeroCoef>
-5.4800

> <Gold.Chemscore.Hbond>
1.5144

> <Gold.Chemscore.Metal>
0.0000

> <Gold.Chemscore.Lipo>
82.9629

> <Gold.Chemscore.Internal_Hbond>
0.0000

> <Gold.Chemscore.DEClash>
0.0689

> <Gold.Chemscore.DEInternal>
2.4783

> <Gold.Chemscore.Rot>
1.6387

> <Gold.Chemscore.Internal.Correction>
   9.000000E+99

> <Gold.Chemscore.Hbonds>
donor molecule, donor type, donor heavy atom, donor atom, acceptor molecule, acceptor atom, score
      P1  H  7989  7998       L1     3  0.25
      P1  H  7997  8009       L1    17  0.55

> <Gold.Chemscore.Hbond.Weighted>
-5.0581

> <Gold.Chemscore.Metal.Weighted>
-0.0000

> <Gold.Chemscore.Lipo.Weighted>
-9.7067

> <Gold.Chemscore.Internal_Hbond.Weighted>
0.0000

> <Gold.Chemscore.DEClash.Weighted>
0.0689

> <Gold.Chemscore.DEInternal.Weighted>
2.4783

> <Gold.Chemscore.Rot.Weighted>
4.1950

> <Gold.Chemscore.Internal.Correction.Weighted>
   9.000000E+99

> <Gold.Protein.RotatedTorsions>
[ 6907 6896 6895 6894 ] final  115.56 input  -60.11 | X-H torsion
[ 7974 7965 7964 7962 ] final  -60.97 input  175.53 | X-H torsion
[ 8008 7997 7996 7995 ] final  126.36 input   59.86 | X-H torsion
[ 10167 10162 10161 10158 ] final -113.48 input  -65.29 | X-H torsion
[ 10718 10713 10712 10709 ] final -135.81 input   66.30 | X-H torsion
[ 10763 10752 10751 10750 ] final  -55.72 input  -60.55 | X-H torsion
[ 11005 11000 10999 10996 ] final   71.52 input  -57.11 | X-H torsion

> <Gold.Protein.ActiveResidues>
 VAL166  LYS551  ARG553  GLY616  TRP617  ASP618  TYR619  PRO620  LYS621  CYS622 
 ASP623  PHE694  ASN695  SER759  ASP760  ASP761  ALA762  ILE779  LEU786  VAL792 
 PHE793  MET794  SER795  GLU796  ALA797  LYS798  CYS799  TRP800  GLU811  SER814 

> <Gold.Protein.RotatedAtoms>
  152.4734  133.8081  159.6988 H   0  0  0  0  0  0  0  0  0  0  0  0  # atno 6907 bound_to 6896
  150.8736  133.7461  159.2960 H   0  0  0  0  0  0  0  0  0  0  0  0  # atno 6908 bound_to 6896
  151.4988  135.1064  159.9875 H   0  0  0  0  0  0  0  0  0  0  0  0  # atno 6909 bound_to 6896
  145.8091  140.8609  143.0191 H   0  0  0  0  0  0  0  0  0  0  0  0  # atno 7974 bound_to 7965
  156.2861  140.2694  156.2098 H   0  0  0  0  0  0  0  0  0  0  0  0  # atno 8008 bound_to 7997
  155.0276  140.0386  157.2479 H   0  0  0  0  0  0  0  0  0  0  0  0  # atno 8009 bound_to 7997
  154.7382  140.2720  155.6401 H   0  0  0  0  0  0  0  0  0  0  0  0  # atno 8010 bound_to 7997
  140.1113  143.4525  152.1750 H   0  0  0  0  0  0  0  0  0  0  0  0  # atno 10167 bound_to 10162
  156.2702  130.7261  151.1225 H   0  0  0  0  0  0  0  0  0  0  0  0  # atno 10718 bound_to 10713
  154.1952  135.6420  153.5071 H   0  0  0  0  0  0  0  0  0  0  0  0  # atno 10763 bound_to 10752
  153.0025  135.5438  154.6373 H   0  0  0  0  0  0  0  0  0  0  0  0  # atno 10764 bound_to 10752
  154.5772  135.2922  155.0742 H   0  0  0  0  0  0  0  0  0  0  0  0  # atno 10765 bound_to 10752
  139.9539  134.7179  156.0799 H   0  0  0  0  0  0  0  0  0  0  0  0  # atno 11005 bound_to 11000
  144.6759  140.0369  143.7481 LP  0  0  0  0  0  0  0  0  0  0  0  0  # atno 17320 bound_to 7965
  145.9796  139.2931  143.1049 LP  0  0  0  0  0  0  0  0  0  0  0  0  # atno 17321 bound_to 7965
  139.5617  144.7410  151.4135 LP  0  0  0  0  0  0  0  0  0  0  0  0  # atno 17342 bound_to 10162
  140.6924  143.7830  150.7275 LP  0  0  0  0  0  0  0  0  0  0  0  0  # atno 17343 bound_to 10162
  157.7281  131.0634  150.5835 LP  0  0  0  0  0  0  0  0  0  0  0  0  # atno 17370 bound_to 10713
  156.5930  130.4334  149.5928 LP  0  0  0  0  0  0  0  0  0  0  0  0  # atno 17371 bound_to 10713
  141.1207  133.6614  156.3207 LP  0  0  0  0  0  0  0  0  0  0  0  0  # atno 17394 bound_to 11000
  140.5655  134.5892  157.5444 LP  0  0  0  0  0  0  0  0  0  0  0  0  # atno 17395 bound_to 11000

$$$$
