AV-unprocessed.smi:2709|AV-procd|sdf|10462|dock1
  -GOLD-   2272014503D 1   1.00000     0.00000
 Structure written by MMmdl.
 40 42  0  0  0  0  0  0  0  0  1 V2000
  146.5171  133.1194  150.5176 C   0  0  0  0  0  0  0  0  0  0  0  0
  146.5044  134.2102  151.4230 O   0  0  0  0  0  0  0  0  0  0  0  0
  145.4860  134.1171  152.4157 C   0  0  2  0  0  0  0  0  0  0  0  0
  144.1496  134.0190  151.6775 C   0  0  0  0  0  0  0  0  0  0  0  0
  143.7956  135.4663  151.3463 C   0  0  0  0  0  0  0  0  0  0  0  0
  144.2822  136.2712  152.5545 C   0  0  0  0  0  0  0  0  0  0  0  0
  145.3866  135.4307  153.2252 C   0  0  2  0  0  0  0  0  0  0  0  0
  146.6490  136.1655  153.2807 N   0  0  0  0  0  0  0  0  0  0  0  0
  146.9394  137.1224  154.1723 C   0  0  0  0  0  0  0  0  0  0  0  0
  146.1569  137.4931  155.0469 O   0  0  0  0  0  0  0  0  0  0  0  0
  148.1750  137.6114  153.9731 N   0  0  0  0  0  0  0  0  0  0  0  0
  148.8472  138.6404  154.6863 C   0  0  0  0  0  0  0  0  0  0  0  0
  149.9832  139.2408  154.1039 C   0  0  0  0  0  0  0  0  0  0  0  0
  150.6738  140.2212  154.7244 N   0  0  0  0  0  0  0  0  0  0  0  0
  150.2420  140.5902  155.9334 C   0  0  0  0  0  0  0  0  0  0  0  0
  150.9754  141.7158  156.5951 C   0  0  0  0  0  0  0  0  0  0  0  0
  151.6885  141.5106  157.9160 C   0  0  0  0  0  0  0  0  0  0  0  0
  150.4428  142.3508  157.8636 C   0  0  0  0  0  0  0  0  0  0  0  0
  149.1863  140.0967  156.5859 N   0  0  0  0  0  0  0  0  0  0  0  0
  148.4883  139.1166  155.9719 C   0  0  0  0  0  0  0  0  0  0  0  0
  147.3267  133.2479  149.7993 H   0  0  0  0  0  0  0  0  0  0  0  0
  145.5793  133.0595  149.9639 H   0  0  0  0  0  0  0  0  0  0  0  0
  146.6777  132.1754  151.0402 H   0  0  0  0  0  0  0  0  0  0  0  0
  145.6333  133.2578  153.0734 H   0  0  0  0  0  0  0  0  0  0  0  0
  144.1972  133.3819  150.7937 H   0  0  0  0  0  0  0  0  0  0  0  0
  143.3928  133.6035  152.3442 H   0  0  0  0  0  0  0  0  0  0  0  0
  144.3383  135.7795  150.4533 H   0  0  0  0  0  0  0  0  0  0  0  0
  142.7315  135.6036  151.1521 H   0  0  0  0  0  0  0  0  0  0  0  0
  144.6224  137.2631  152.2540 H   0  0  0  0  0  0  0  0  0  0  0  0
  143.4601  136.4162  153.2567 H   0  0  0  0  0  0  0  0  0  0  0  0
  145.0569  135.1987  154.2400 H   0  0  0  0  0  0  0  0  0  0  0  0
  147.3512  135.9163  152.5999 H   0  0  0  0  0  0  0  0  0  0  0  0
  148.6761  137.2369  153.1808 H   0  0  0  0  0  0  0  0  0  0  0  0
  150.3388  138.9385  153.1295 H   0  0  0  0  0  0  0  0  0  0  0  0
  151.4455  142.3664  155.8600 H   0  0  0  0  0  0  0  0  0  0  0  0
  151.6128  140.5335  158.3894 H   0  0  0  0  0  0  0  0  0  0  0  0
  152.6371  142.0246  158.0573 H   0  0  0  0  0  0  0  0  0  0  0  0
  150.5566  143.4277  157.9701 H   0  0  0  0  0  0  0  0  0  0  0  0
  149.5390  141.9322  158.3021 H   0  0  0  0  0  0  0  0  0  0  0  0
  147.6572  138.7211  156.5336 H   0  0  0  0  0  0  0  0  0  0  0  0
  1  2  1  0  0  0  0
  1 21  1  0  0  0  0
  1 22  1  0  0  0  0
  1 23  1  0  0  0  0
  2  3  1  0  0  0  0
  3  7  1  0  0  0  0
  3  4  1  0  0  0  0
  3 24  1  0  0  0  0
  4  5  1  0  0  0  0
  4 25  1  0  0  0  0
  4 26  1  0  0  0  0
  5  6  1  0  0  0  0
  5 27  1  0  0  0  0
  5 28  1  0  0  0  0
  6  7  1  0  0  0  0
  6 29  1  0  0  0  0
  6 30  1  0  0  0  0
  7  8  1  0  0  0  0
  7 31  1  0  0  0  0
  8  9  1  0  0  0  0
  8 32  1  0  0  0  0
  9 10  2  0  0  0  0
  9 11  1  0  0  0  0
 11 12  1  0  0  0  0
 11 33  1  0  0  0  0
 12 20  1  0  0  0  0
 12 13  2  0  0  0  0
 13 14  1  0  0  0  0
 13 34  1  0  0  0  0
 14 15  2  0  0  0  0
 15 16  1  0  0  0  0
 15 19  1  0  0  0  0
 16 18  1  0  0  0  0
 16 17  1  0  0  0  0
 16 35  1  0  0  0  0
 17 18  1  0  0  0  0
 17 36  1  0  0  0  0
 17 37  1  0  0  0  0
 18 38  1  0  0  0  0
 18 39  1  0  0  0  0
 19 20  2  0  0  0  0
 20 40  1  0  0  0  0
M  END
> <s_m_source_file>
AV-unprocessed.smi

> <i_m_source_file_index>
2709

> <i_lp_mmshare_version>
43012

> <i_f3d_flags>
0

> <s_epik_input>
W0NIM11PW0NAQEhdMVtDSDJdW0NIMl1bQ0gyXVtDQEhdMVtOSF1DKD1PKVtOSF1jMltjSF1uYyhuW2NIXTIpW0NIXTNbQ0gyXVtDSDJdMw==

> <s_epik_cmdline>
J2VwaWtfcHl0aG9uJywgJy1waCcsICc3LjAnLCAnLXRuJywgJzgnLCAnLW1hJywgJzIwMCcsICctbWV0YWxfYmluZGluZycsICctaW1hZScsICc8aW5maWxlLm1hZT4nLCAnLW9tYWUnLCAnPG91dGZpbGUubWFlPic=

> <r_lp_tautomer_probability>
1

> <r_epik_Ionization_Penalty>
2.49969e-05

> <r_epik_Ionization_Penalty_Charging>
0

> <r_epik_Ionization_Penalty_Neutral>
2.49969e-05

> <r_epik_State_Penalty>
-0

> <r_epik_Charging_Adjusted_Penalty>
0

> <i_epik_Tot_Q>
0

> <i_epik_Tot_abs_Q>
0

> <r_epik_Metal_State_Penalty>
-0

> <b_epik_Metal_Only>
0

> <s_lp_Force_Field>
OPLS_2005

> <r_lp_Energy>
20.8159

> <b_lp_Chiralities_Consistent>
1

> <s_lp_Variant>
AV-unprocessed.smi:2709-3

> <Gold.Version>
5.8.1

> <Gold.Id.Protein>
6NUR|6NUR_protein|mol2

> <Gold.PLP.Fitness>
37.1949

> <Gold.PLP.PLP>
-26.3155

> <Gold.PLP.part.hbond>
-3.0000

> <Gold.PLP.part.metal>
0.0000

> <Gold.PLP.part.buried>
-3.9766

> <Gold.PLP.part.nonpolar>
-19.8586

> <Gold.PLP.part.repulsive>
0.3190

> <Gold.PLP.ligand.clash>
0.0000

> <Gold.PLP.ligand.torsion>
0.4130

> <Gold.PLP.Chemscore.Hbond>
3.0000

> <Gold.PLP.Chemscore.CHOScore>
0.8510

> <Gold.PLP.Chemscore.Metal>
0.0000

> <Gold.Chemscore.Hbonds>
donor molecule, donor type, donor heavy atom, donor atom, acceptor molecule, acceptor atom, score
      L1  H     8    32       P1  7948  1.00
      L1  H    11    33       P1  7948  1.00
      P1  H  7989  7998       L1    14  1.00
      L1  C    13    34       P1  7957  0.84

> <Gold.PLP.Chemscore.Internal.Correction>
0.1522

> <Gold.Rescore>
     Score         DG    S(hbond)    S(metal)    S(lipo)     H(rot)  DE(clash)    DE(int)     intcor
     16.31     -17.68       2.65        0.00      59.54       1.41       0.04       1.34       ----

> <Gold.Chemscore.Fitness>
16.3061

> <Gold.Chemscore.DG>
-17.6808

> <Gold.Chemscore.ZeroCoef>
-5.4800

> <Gold.Chemscore.Hbond>
2.6490

> <Gold.Chemscore.Metal>
0.0000

> <Gold.Chemscore.Lipo>
59.5419

> <Gold.Chemscore.Internal_Hbond>
0.0000

> <Gold.Chemscore.DEClash>
0.0383

> <Gold.Chemscore.DEInternal>
1.3364

> <Gold.Chemscore.Rot>
1.4114

> <Gold.Chemscore.Internal.Correction>
   9.000000E+99

> <Gold.Chemscore.Hbonds>
donor molecule, donor type, donor heavy atom, donor atom, acceptor molecule, acceptor atom, score
      L1  H     8    32       P1  7948  0.94
      L1  H    11    33       P1  7948  0.99
      P1  H  7989  7998       L1    14  0.45

> <Gold.Chemscore.Hbond.Weighted>
-8.8477

> <Gold.Chemscore.Metal.Weighted>
-0.0000

> <Gold.Chemscore.Lipo.Weighted>
-6.9664

> <Gold.Chemscore.Internal_Hbond.Weighted>
0.0000

> <Gold.Chemscore.DEClash.Weighted>
0.0383

> <Gold.Chemscore.DEInternal.Weighted>
1.3364

> <Gold.Chemscore.Rot.Weighted>
3.6133

> <Gold.Chemscore.Internal.Correction.Weighted>
   9.000000E+99

> <Gold.Protein.RotatedTorsions>
[ 6907 6896 6895 6894 ] final  -77.42 input  -60.11 | X-H torsion
[ 7974 7965 7964 7962 ] final  105.88 input  175.53 | X-H torsion
[ 8008 7997 7996 7995 ] final  121.94 input   59.86 | X-H torsion
[ 10167 10162 10161 10158 ] final -176.03 input  -65.29 | X-H torsion
[ 10718 10713 10712 10709 ] final  -53.87 input   66.30 | X-H torsion
[ 10763 10752 10751 10750 ] final  140.53 input  -60.55 | X-H torsion
[ 11005 11000 10999 10996 ] final  156.53 input  -57.11 | X-H torsion

> <Gold.Protein.ActiveResidues>
 VAL166  LYS551  ARG553  GLY616  TRP617  ASP618  TYR619  PRO620  LYS621  CYS622 
 ASP623  PHE694  ASN695  SER759  ASP760  ASP761  ALA762  ILE779  LEU786  VAL792 
 PHE793  MET794  SER795  GLU796  ALA797  LYS798  CYS799  TRP800  GLU811  SER814 

> <Gold.Protein.RotatedAtoms>
  150.6999  134.4424  159.5298 H   0  0  0  0  0  0  0  0  0  0  0  0  # atno 6907 bound_to 6896
  152.2132  134.8479  160.0504 H   0  0  0  0  0  0  0  0  0  0  0  0  # atno 6908 bound_to 6896
  151.9357  133.3588  159.3984 H   0  0  0  0  0  0  0  0  0  0  0  0  # atno 6909 bound_to 6896
  145.3139  139.2532  143.3748 H   0  0  0  0  0  0  0  0  0  0  0  0  # atno 7974 bound_to 7965
  156.2707  140.2797  156.1388 H   0  0  0  0  0  0  0  0  0  0  0  0  # atno 8008 bound_to 7997
  155.0976  140.0389  157.2705 H   0  0  0  0  0  0  0  0  0  0  0  0  # atno 8009 bound_to 7997
  154.6840  140.2615  155.6885 H   0  0  0  0  0  0  0  0  0  0  0  0  # atno 8010 bound_to 7997
  139.5550  144.2011  152.1144 H   0  0  0  0  0  0  0  0  0  0  0  0  # atno 10167 bound_to 10162
  156.1498  130.4151  149.9963 H   0  0  0  0  0  0  0  0  0  0  0  0  # atno 10718 bound_to 10713
  153.9243  135.2997  155.3447 H   0  0  0  0  0  0  0  0  0  0  0  0  # atno 10763 bound_to 10752
  154.7559  135.4957  153.9378 H   0  0  0  0  0  0  0  0  0  0  0  0  # atno 10764 bound_to 10752
  153.1125  135.6762  153.9579 H   0  0  0  0  0  0  0  0  0  0  0  0  # atno 10765 bound_to 10752
  140.1684  134.8560  157.2660 H   0  0  0  0  0  0  0  0  0  0  0  0  # atno 11005 bound_to 11000
  146.3107  140.3681  142.8671 LP  0  0  0  0  0  0  0  0  0  0  0  0  # atno 17320 bound_to 7965
  144.8993  140.7623  143.5877 LP  0  0  0  0  0  0  0  0  0  0  0  0  # atno 17321 bound_to 7965
  140.1514  144.5111  150.6685 LP  0  0  0  0  0  0  0  0  0  0  0  0  # atno 17342 bound_to 10162
  140.6821  143.2332  151.5356 LP  0  0  0  0  0  0  0  0  0  0  0  0  # atno 17343 bound_to 10162
  156.7824  130.9226  151.3646 LP  0  0  0  0  0  0  0  0  0  0  0  0  # atno 17370 bound_to 10713
  157.6647  130.8997  149.9907 LP  0  0  0  0  0  0  0  0  0  0  0  0  # atno 17371 bound_to 10713
  140.2407  134.3799  155.7482 LP  0  0  0  0  0  0  0  0  0  0  0  0  # atno 17394 bound_to 11000
  141.2215  133.7263  156.8784 LP  0  0  0  0  0  0  0  0  0  0  0  0  # atno 17395 bound_to 11000

$$$$
