AV-unprocessed.smi:1596|AV-procd|sdf|6419|dock8
  -GOLD-   22720 7 53D 1   1.00000     0.00000
 Structure written by MMmdl.
 48 49  0  0  0  0  0  0  0  0  1 V2000
  154.5423  130.9641  156.0326 C   0  0  0  0  0  0  0  0  0  0  0  0
  153.7168  131.0982  157.3226 C   0  0  0  0  0  0  0  0  0  0  0  0
  152.5169  130.2614  157.3348 N   0  0  0  0  0  0  0  0  0  0  0  0
  151.8765  130.1328  158.6434 C   0  0  0  0  0  0  0  0  0  0  0  0
  150.7109  129.1303  158.6609 C   0  0  0  0  0  0  0  0  0  0  0  0
  151.6061  130.5787  156.3111 C   0  0  0  0  0  0  0  0  0  0  0  0
  150.8711  131.7797  156.3949 C   0  0  0  0  0  0  0  0  0  0  0  0
  149.9635  132.0950  155.3660 C   0  0  0  0  0  0  0  0  0  0  0  0
  149.8238  131.1998  154.2790 C   0  0  0  0  0  0  0  0  0  0  0  0
  148.9260  131.3936  153.1947 N   0  0  0  0  0  0  0  0  0  0  0  0
  147.7288  132.0040  153.2010 C   0  0  0  0  0  0  0  0  0  0  0  0
  147.2197  132.5614  154.1732 O   0  0  0  0  0  0  0  0  0  0  0  0
  147.1531  131.9532  151.9911 N   0  0  0  0  0  0  0  0  0  0  0  0
  145.8563  132.5298  151.6486 C   0  0  2  0  0  0  0  0  0  0  0  0
  145.0057  131.4847  150.9044 C   0  0  0  0  0  0  0  0  0  0  0  0
  143.6446  132.0639  150.4801 C   0  0  0  0  0  0  0  0  0  0  0  0
  143.7922  133.3518  149.6481 C   0  0  2  0  0  0  0  0  0  0  0  0
  144.3254  133.0465  148.3745 O   0  0  0  0  0  0  0  0  0  0  0  0
  144.6833  134.3874  150.3598 C   0  0  0  0  0  0  0  0  0  0  0  0
  146.0380  133.7969  150.7894 C   0  0  0  0  0  0  0  0  0  0  0  0
  150.5948  130.0192  154.2980 C   0  0  0  0  0  0  0  0  0  0  0  0
  151.4687  129.7120  155.2797 N   0  0  0  0  0  0  0  0  0  0  0  0
  155.4570  131.5529  156.1004 H   0  0  0  0  0  0  0  0  0  0  0  0
  153.9926  131.3161  155.1593 H   0  0  0  0  0  0  0  0  0  0  0  0
  154.8285  129.9271  155.8554 H   0  0  0  0  0  0  0  0  0  0  0  0
  154.3449  130.8150  158.1678 H   0  0  0  0  0  0  0  0  0  0  0  0
  153.4421  132.1416  157.4827 H   0  0  0  0  0  0  0  0  0  0  0  0
  152.6254  129.8077  159.3663 H   0  0  0  0  0  0  0  0  0  0  0  0
  151.5300  131.1107  158.9803 H   0  0  0  0  0  0  0  0  0  0  0  0
  150.3133  129.0244  159.6704 H   0  0  0  0  0  0  0  0  0  0  0  0
  151.0363  128.1443  158.3279 H   0  0  0  0  0  0  0  0  0  0  0  0
  149.8885  129.4491  158.0197 H   0  0  0  0  0  0  0  0  0  0  0  0
  150.9972  132.4465  157.2353 H   0  0  0  0  0  0  0  0  0  0  0  0
  149.3863  133.0034  155.4394 H   0  0  0  0  0  0  0  0  0  0  0  0
  149.2543  131.0678  152.2973 H   0  0  0  0  0  0  0  0  0  0  0  0
  147.6485  131.4814  151.2489 H   0  0  0  0  0  0  0  0  0  0  0  0
  145.3306  132.7987  152.5672 H   0  0  0  0  0  0  0  0  0  0  0  0
  145.5411  131.1304  150.0224 H   0  0  0  0  0  0  0  0  0  0  0  0
  144.8482  130.6117  151.5389 H   0  0  0  0  0  0  0  0  0  0  0  0
  143.0758  131.3174  149.9247 H   0  0  0  0  0  0  0  0  0  0  0  0
  143.0615  132.2849  151.3752 H   0  0  0  0  0  0  0  0  0  0  0  0
  142.8049  133.7844  149.4832 H   0  0  0  0  0  0  0  0  0  0  0  0
  145.0606  133.6177  148.2117 H   0  0  0  0  0  0  0  0  0  0  0  0
  144.8389  135.2568  149.7203 H   0  0  0  0  0  0  0  0  0  0  0  0
  144.1629  134.7530  151.2460 H   0  0  0  0  0  0  0  0  0  0  0  0
  146.6018  134.5486  151.3430 H   0  0  0  0  0  0  0  0  0  0  0  0
  146.6294  133.5610  149.9035 H   0  0  0  0  0  0  0  0  0  0  0  0
  150.5135  129.2981  153.4976 H   0  0  0  0  0  0  0  0  0  0  0  0
  1  2  1  0  0  0  0
  1 23  1  0  0  0  0
  1 24  1  0  0  0  0
  1 25  1  0  0  0  0
  2  3  1  0  0  0  0
  2 26  1  0  0  0  0
  2 27  1  0  0  0  0
  3  4  1  0  0  0  0
  3  6  1  0  0  0  0
  4  5  1  0  0  0  0
  4 28  1  0  0  0  0
  4 29  1  0  0  0  0
  5 30  1  0  0  0  0
  5 31  1  0  0  0  0
  5 32  1  0  0  0  0
  6 22  1  0  0  0  0
  6  7  2  0  0  0  0
  7  8  1  0  0  0  0
  7 33  1  0  0  0  0
  8  9  2  0  0  0  0
  8 34  1  0  0  0  0
  9 10  1  0  0  0  0
  9 21  1  0  0  0  0
 10 11  1  0  0  0  0
 10 35  1  0  0  0  0
 11 12  2  0  0  0  0
 11 13  1  0  0  0  0
 13 14  1  0  0  0  0
 13 36  1  0  0  0  0
 14 20  1  0  0  0  0
 14 15  1  0  0  0  0
 14 37  1  0  0  0  0
 15 16  1  0  0  0  0
 15 38  1  0  0  0  0
 15 39  1  0  0  0  0
 16 17  1  0  0  0  0
 16 40  1  0  0  0  0
 16 41  1  0  0  0  0
 17 18  1  0  0  0  0
 17 19  1  0  0  0  0
 17 42  1  0  0  0  0
 18 43  1  0  0  0  0
 19 20  1  0  0  0  0
 19 44  1  0  0  0  0
 19 45  1  0  0  0  0
 20 46  1  0  0  0  0
 20 47  1  0  0  0  0
 21 22  2  0  0  0  0
 21 48  1  0  0  0  0
M  END
> <s_m_source_file>
AV-unprocessed.smi

> <i_m_source_file_index>
1596

> <i_lp_mmshare_version>
43012

> <i_f3d_flags>
0

> <s_epik_input>
W0NIM11bQ0gyXU4oW0NIMl1bQ0gzXSljMVtjSF1bY0hdYyhbY0hdbjEpW05IXUMoPU8pW05IXVtDQEBIXTJbQ0gyXVtDSDJdW0NAQEhdKFtPSF0pW0NIMl1bQ0gyXTI=

> <s_epik_cmdline>
J2VwaWtfcHl0aG9uJywgJy1waCcsICc3LjAnLCAnLXRuJywgJzgnLCAnLW1hJywgJzIwMCcsICctbWV0YWxfYmluZGluZycsICctaW1hZScsICc8aW5maWxlLm1hZT4nLCAnLW9tYWUnLCAnPG91dGZpbGUubWFlPic=

> <r_lp_tautomer_probability>
1

> <r_epik_Ionization_Penalty>
0.709395

> <r_epik_Ionization_Penalty_Charging>
0

> <r_epik_Ionization_Penalty_Neutral>
0.709395

> <r_epik_State_Penalty>
2.20721

> <r_epik_Charging_Adjusted_Penalty>
2.20721

> <i_epik_Tot_Q>
0

> <i_epik_Tot_abs_Q>
0

> <r_epik_Metal_State_Penalty>
1.55411

> <b_epik_Metal_Only>
0

> <s_lp_Force_Field>
OPLS_2005

> <r_lp_Energy>
19.3677

> <b_lp_Chiralities_Consistent>
1

> <s_lp_Variant>
AV-unprocessed.smi:1596-4

> <Gold.Version>
5.8.1

> <Gold.Id.Protein>
6NUR|6NUR_protein|mol2

> <Gold.PLP.Fitness>
42.3757

> <Gold.PLP.PLP>
-33.2275

> <Gold.PLP.part.hbond>
-3.9873

> <Gold.PLP.part.metal>
0.0000

> <Gold.PLP.part.buried>
-1.9278

> <Gold.PLP.part.nonpolar>
-26.5110

> <Gold.PLP.part.repulsive>
0.1220

> <Gold.PLP.ligand.clash>
0.0000

> <Gold.PLP.ligand.torsion>
0.5363

> <Gold.PLP.Chemscore.Hbond>
2.9500

> <Gold.PLP.Chemscore.CHOScore>
0.3691

> <Gold.PLP.Chemscore.Metal>
0.0000

> <Gold.Chemscore.Hbonds>
donor molecule, donor type, donor heavy atom, donor atom, acceptor molecule, acceptor atom, score
      L1  H    10    35       P1 10747  0.95
      L1  H    13    36       P1 10747  1.00
      L1  H    18    43       P1  7921  1.00
      L1  C    21    48       P1 10737  0.29

> <Gold.PLP.Chemscore.Internal.Correction>
0.2634

> <Gold.Rescore>
     Score         DG    S(hbond)    S(metal)    S(lipo)     H(rot)  DE(clash)    DE(int)     intcor
     15.90     -18.57       2.53        0.00      83.41       2.01       1.55       1.11       ----

> <Gold.Chemscore.Fitness>
15.9050

> <Gold.Chemscore.DG>
-18.5673

> <Gold.Chemscore.ZeroCoef>
-5.4800

> <Gold.Chemscore.Hbond>
2.5334

> <Gold.Chemscore.Metal>
0.0000

> <Gold.Chemscore.Lipo>
83.4122

> <Gold.Chemscore.Internal_Hbond>
0.0000

> <Gold.Chemscore.DEClash>
1.5544

> <Gold.Chemscore.DEInternal>
1.1079

> <Gold.Chemscore.Rot>
2.0052

> <Gold.Chemscore.Internal.Correction>
   9.000000E+99

> <Gold.Chemscore.Hbonds>
donor molecule, donor type, donor heavy atom, donor atom, acceptor molecule, acceptor atom, score
      L1  H    10    35       P1 10747  0.20
      L1  H    13    36       P1 10747  1.00
      L1  H    18    43       P1  7921  0.78

> <Gold.Chemscore.Hbond.Weighted>
-8.4614

> <Gold.Chemscore.Metal.Weighted>
-0.0000

> <Gold.Chemscore.Lipo.Weighted>
-9.7592

> <Gold.Chemscore.Internal_Hbond.Weighted>
0.0000

> <Gold.Chemscore.DEClash.Weighted>
1.5544

> <Gold.Chemscore.DEInternal.Weighted>
1.1079

> <Gold.Chemscore.Rot.Weighted>
5.1334

> <Gold.Chemscore.Internal.Correction.Weighted>
   9.000000E+99

> <Gold.Protein.RotatedTorsions>
[ 6907 6896 6895 6894 ] final   -9.29 input  -60.11 | X-H torsion
[ 7974 7965 7964 7962 ] final -170.98 input  175.53 | X-H torsion
[ 8008 7997 7996 7995 ] final   47.88 input   59.86 | X-H torsion
[ 10167 10162 10161 10158 ] final   -2.71 input  -65.29 | X-H torsion
[ 10718 10713 10712 10709 ] final  -38.36 input   66.30 | X-H torsion
[ 10763 10752 10751 10750 ] final  -67.46 input  -60.55 | X-H torsion
[ 11005 11000 10999 10996 ] final  -45.62 input  -57.11 | X-H torsion

> <Gold.Protein.ActiveResidues>
 VAL166  LYS551  ARG553  GLY616  TRP617  ASP618  TYR619  PRO620  LYS621  CYS622 
 ASP623  PHE694  ASN695  SER759  ASP760  ASP761  ALA762  ILE779  LEU786  VAL792 
 PHE793  MET794  SER795  GLU796  ALA797  LYS798  CYS799  TRP800  GLU811  SER814 

> <Gold.Protein.RotatedAtoms>
  151.4202  135.0997  159.9611 H   0  0  0  0  0  0  0  0  0  0  0  0  # atno 6907 bound_to 6896
  152.4991  133.8715  159.7311 H   0  0  0  0  0  0  0  0  0  0  0  0  # atno 6908 bound_to 6896
  150.9229  133.6801  159.2856 H   0  0  0  0  0  0  0  0  0  0  0  0  # atno 6909 bound_to 6896
  144.7163  140.1991  143.6340 H   0  0  0  0  0  0  0  0  0  0  0  0  # atno 7974 bound_to 7965
  155.3765  140.3426  155.4245 H   0  0  0  0  0  0  0  0  0  0  0  0  # atno 8008 bound_to 7997
  156.1634  140.1608  156.8607 H   0  0  0  0  0  0  0  0  0  0  0  0  # atno 8009 bound_to 7997
  154.5161  140.0778  156.8066 H   0  0  0  0  0  0  0  0  0  0  0  0  # atno 8010 bound_to 7997
  140.6862  143.6625  150.8254 H   0  0  0  0  0  0  0  0  0  0  0  0  # atno 10167 bound_to 10162
  156.3047  130.4244  149.8109 H   0  0  0  0  0  0  0  0  0  0  0  0  # atno 10718 bound_to 10713
  154.3749  135.6087  153.5759 H   0  0  0  0  0  0  0  0  0  0  0  0  # atno 10763 bound_to 10752
  152.9789  135.5847  154.4479 H   0  0  0  0  0  0  0  0  0  0  0  0  # atno 10764 bound_to 10752
  154.4238  135.2846  155.1935 H   0  0  0  0  0  0  0  0  0  0  0  0  # atno 10765 bound_to 10752
  141.0527  133.6737  156.3039 H   0  0  0  0  0  0  0  0  0  0  0  0  # atno 11005 bound_to 11000
  145.8697  139.2265  143.1668 LP  0  0  0  0  0  0  0  0  0  0  0  0  # atno 17320 bound_to 7965
  146.0096  140.8447  142.9977 LP  0  0  0  0  0  0  0  0  0  0  0  0  # atno 17321 bound_to 7965
  140.0332  143.5422  152.2751 LP  0  0  0  0  0  0  0  0  0  0  0  0  # atno 17342 bound_to 10162
  139.6222  144.7631  151.2715 LP  0  0  0  0  0  0  0  0  0  0  0  0  # atno 17343 bound_to 10162
  156.5474  130.8327  151.3289 LP  0  0  0  0  0  0  0  0  0  0  0  0  # atno 17370 bound_to 10713
  157.7376  130.9799  150.2206 LP  0  0  0  0  0  0  0  0  0  0  0  0  # atno 17371 bound_to 10713
  140.6024  134.5541  157.5520 LP  0  0  0  0  0  0  0  0  0  0  0  0  # atno 17394 bound_to 11000
  139.9364  134.7868  156.0793 LP  0  0  0  0  0  0  0  0  0  0  0  0  # atno 17395 bound_to 11000

$$$$
