AV-unprocessed.smi:184|AV-procd|sdf|1462|dock2
  -GOLD-   2262019273D 1   1.00000     0.00000
 Structure written by MMmdl.
 54 58  0  0  0  0  0  0  0  0  1 V2000
  149.6951  141.5163  153.9244 O   0  0  0  0  0  0  0  0  0  0  0  0
  149.9468  141.5898  155.1249 C   0  0  0  0  0  0  0  0  0  0  0  0
  149.6575  140.3822  156.0350 C   0  0  0  0  0  0  0  0  0  0  0  0
  150.0290  140.5536  157.4499 N   0  0  0  0  0  0  0  0  0  0  0  0
  150.0538  139.3585  158.0877 C   0  0  0  0  0  0  0  0  0  0  0  0
  151.2357  138.8348  158.5087 N   0  0  0  0  0  0  0  0  0  0  0  0
  151.2611  137.6456  159.1176 C   0  0  0  0  0  0  0  0  0  0  0  0
  150.2434  136.8269  159.3931 N   0  0  0  0  0  0  0  0  0  0  0  0
  149.0580  137.3453  158.9615 C   0  0  0  0  0  0  0  0  0  0  0  0
  148.8771  138.5920  158.2998 C   0  0  0  0  0  0  0  0  0  0  0  0
  147.5340  138.7850  158.0043 N   0  0  0  0  0  0  0  0  0  0  0  0
  146.9523  137.7122  158.4675 C   0  0  0  0  0  0  0  0  0  0  0  0
  147.7907  136.7988  159.0676 N   0  0  0  0  0  0  0  0  0  0  0  0
  147.4096  135.5271  159.6659 C   0  0  0  0  0  0  0  0  0  0  0  0
  146.7478  135.6572  161.0652 C   0  0  0  0  0  0  0  0  0  0  0  0
  147.4937  136.6076  161.8033 O   0  0  0  0  0  0  0  0  0  0  0  0
  145.3034  136.1882  160.9683 C   0  0  0  0  0  0  0  0  0  0  0  0
  144.3300  135.1033  160.4732 C   0  0  0  0  0  0  0  0  0  0  0  0
  144.4045  133.9587  161.3165 O   0  0  0  0  0  0  0  0  0  0  0  0
  145.6932  133.3542  161.3244 C   0  0  0  0  0  0  0  0  0  0  0  0
  146.7320  134.3449  161.8785 C   0  0  0  0  0  0  0  0  0  0  0  0
  151.0839  141.5244  157.7672 C   0  0  2  0  0  0  0  0  0  0  0  0
  151.2766  141.7667  159.2852 C   0  0  0  0  0  0  0  0  0  0  0  0
  152.3841  142.8025  159.5454 C   0  0  0  0  0  0  0  0  0  0  0  0
  152.1060  144.1256  158.8144 C   0  0  0  0  0  0  0  0  0  0  0  0
  151.8744  143.8976  157.3120 C   0  0  0  0  0  0  0  0  0  0  0  0
  150.7521  142.8701  157.0847 C   0  0  1  0  0  0  0  0  0  0  0  0
  150.4874  142.6945  155.6623 N   0  0  0  0  0  0  0  0  0  0  0  0
  148.5904  140.1641  155.9751 H   0  0  0  0  0  0  0  0  0  0  0  0
  150.1793  139.5214  155.6119 H   0  0  0  0  0  0  0  0  0  0  0  0
  152.2363  137.2998  159.4269 H   0  0  0  0  0  0  0  0  0  0  0  0
  145.8856  137.5586  158.3894 H   0  0  0  0  0  0  0  0  0  0  0  0
  146.7308  135.0228  158.9765 H   0  0  0  0  0  0  0  0  0  0  0  0
  148.2993  134.8999  159.7161 H   0  0  0  0  0  0  0  0  0  0  0  0
  147.9970  136.1496  162.4592 H   0  0  0  0  0  0  0  0  0  0  0  0
  144.9676  136.5216  161.9516 H   0  0  0  0  0  0  0  0  0  0  0  0
  145.2567  137.0625  160.3181 H   0  0  0  0  0  0  0  0  0  0  0  0
  143.3091  135.4848  160.4942 H   0  0  0  0  0  0  0  0  0  0  0  0
  144.5370  134.8223  159.4399 H   0  0  0  0  0  0  0  0  0  0  0  0
  145.6577  132.4635  161.9516 H   0  0  0  0  0  0  0  0  0  0  0  0
  145.9551  133.0210  160.3201 H   0  0  0  0  0  0  0  0  0  0  0  0
  147.7186  133.8829  161.9117 H   0  0  0  0  0  0  0  0  0  0  0  0
  146.4704  134.5623  162.9153 H   0  0  0  0  0  0  0  0  0  0  0  0
  152.0210  141.1459  157.3530 H   0  0  0  0  0  0  0  0  0  0  0  0
  150.3399  142.1109  159.7260 H   0  0  0  0  0  0  0  0  0  0  0  0
  151.5387  140.8461  159.8056 H   0  0  0  0  0  0  0  0  0  0  0  0
  152.4787  142.9839  160.6166 H   0  0  0  0  0  0  0  0  0  0  0  0
  153.3424  142.3992  159.2154 H   0  0  0  0  0  0  0  0  0  0  0  0
  151.2268  144.6026  159.2492 H   0  0  0  0  0  0  0  0  0  0  0  0
  152.9370  144.8157  158.9638 H   0  0  0  0  0  0  0  0  0  0  0  0
  151.6222  144.8443  156.8326 H   0  0  0  0  0  0  0  0  0  0  0  0
  152.7975  143.5496  156.8462 H   0  0  0  0  0  0  0  0  0  0  0  0
  149.8322  143.2662  157.5193 H   0  0  0  0  0  0  0  0  0  0  0  0
  150.6889  143.4741  155.0530 H   0  0  0  0  0  0  0  0  0  0  0  0
  1  2  2  0  0  0  0
  2 28  1  0  0  0  0
  2  3  1  0  0  0  0
  3  4  1  0  0  0  0
  3 29  1  0  0  0  0
  3 30  1  0  0  0  0
  4  5  1  0  0  0  0
  4 22  1  0  0  0  0
  5 10  1  0  0  0  0
  5  6  2  0  0  0  0
  6  7  1  0  0  0  0
  7  8  2  0  0  0  0
  7 31  1  0  0  0  0
  8  9  1  0  0  0  0
  9 13  1  0  0  0  0
  9 10  2  0  0  0  0
 10 11  1  0  0  0  0
 11 12  2  0  0  0  0
 12 13  1  0  0  0  0
 12 32  1  0  0  0  0
 13 14  1  0  0  0  0
 14 15  1  0  0  0  0
 14 33  1  0  0  0  0
 14 34  1  0  0  0  0
 15 21  1  0  0  0  0
 15 16  1  0  0  0  0
 15 17  1  0  0  0  0
 16 35  1  0  0  0  0
 17 18  1  0  0  0  0
 17 36  1  0  0  0  0
 17 37  1  0  0  0  0
 18 19  1  0  0  0  0
 18 38  1  0  0  0  0
 18 39  1  0  0  0  0
 19 20  1  0  0  0  0
 20 21  1  0  0  0  0
 20 40  1  0  0  0  0
 20 41  1  0  0  0  0
 21 42  1  0  0  0  0
 21 43  1  0  0  0  0
 22 27  1  0  0  0  0
 22 23  1  0  0  0  0
 22 44  1  0  0  0  0
 23 24  1  0  0  0  0
 23 45  1  0  0  0  0
 23 46  1  0  0  0  0
 24 25  1  0  0  0  0
 24 47  1  0  0  0  0
 24 48  1  0  0  0  0
 25 26  1  0  0  0  0
 25 49  1  0  0  0  0
 25 50  1  0  0  0  0
 26 27  1  0  0  0  0
 26 51  1  0  0  0  0
 26 52  1  0  0  0  0
 27 28  1  0  0  0  0
 27 53  1  0  0  0  0
 28 54  1  0  0  0  0
M  END
> <s_m_source_file>
AV-unprocessed.smi

> <i_m_source_file_index>
184

> <i_lp_mmshare_version>
43012

> <i_f3d_flags>
0

> <s_epik_input>
W0NIMl0xW0NIMl1bQ0gyXVtDSDJdW0NASF0oW0NASF0xMilbTkhdQyg9TylbQ0gyXU4yYyhuW2NIXW4zKWMoYzM0KW5bY0hdbjRbQ0gyXUM1KFtPSF0pW0NIMl1bQ0gyXU9bQ0gyXVtDSDJdNQ==

> <s_epik_cmdline>
J2VwaWtfcHl0aG9uJywgJy1waCcsICc3LjAnLCAnLXRuJywgJzgnLCAnLW1hJywgJzIwMCcsICctbWV0YWxfYmluZGluZycsICctaW1hZScsICc8aW5maWxlLm1hZT4nLCAnLW9tYWUnLCAnPG91dGZpbGUubWFlPic=

> <r_lp_tautomer_probability>
1

> <r_epik_Ionization_Penalty>
0.000822761

> <r_epik_Ionization_Penalty_Charging>
0

> <r_epik_Ionization_Penalty_Neutral>
0.000822761

> <r_epik_State_Penalty>
0.000403048

> <r_epik_Charging_Adjusted_Penalty>
0.000403048

> <i_epik_Tot_Q>
0

> <i_epik_Tot_abs_Q>
0

> <r_epik_Metal_State_Penalty>
-0

> <b_epik_Metal_Only>
0

> <s_lp_Force_Field>
OPLS_2005

> <r_lp_Energy>
34.5881

> <b_lp_Chiralities_Consistent>
1

> <s_lp_Variant>
AV-unprocessed.smi:184-2

> <Gold.Version>
5.8.1

> <Gold.Id.Protein>
6NUR|6NUR_protein|mol2

> <Gold.PLP.Fitness>
52.0283

> <Gold.PLP.PLP>
-44.8605

> <Gold.PLP.part.hbond>
-6.0000

> <Gold.PLP.part.metal>
0.0000

> <Gold.PLP.part.buried>
-2.0292

> <Gold.PLP.part.nonpolar>
-36.1987

> <Gold.PLP.part.repulsive>
0.4252

> <Gold.PLP.ligand.clash>
0.0000

> <Gold.PLP.ligand.torsion>
0.8251

> <Gold.PLP.Chemscore.Hbond>
2.8094

> <Gold.PLP.Chemscore.CHOScore>
0.0000

> <Gold.PLP.Chemscore.Metal>
0.0000

> <Gold.Chemscore.Hbonds>
donor molecule, donor type, donor heavy atom, donor atom, acceptor molecule, acceptor atom, score
      P1  H  6896  6907       L1     8  1.00
      P1  H  6931  6943       L1    16  0.16
      P1  H  7989  7998       L1     1  0.12
      P1  H  8011  8017       L1     1  0.67

> <Gold.PLP.Chemscore.Internal.Correction>
0.3899

> <Gold.Rescore>
     Score         DG    S(hbond)    S(metal)    S(lipo)     H(rot)  DE(clash)    DE(int)     intcor
     19.04     -20.79       2.58        0.00     104.80       2.17       0.76       0.99       ----

> <Gold.Chemscore.Fitness>
19.0440

> <Gold.Chemscore.DG>
-20.7898

> <Gold.Chemscore.ZeroCoef>
-5.4800

> <Gold.Chemscore.Hbond>
2.5753

> <Gold.Chemscore.Metal>
0.0000

> <Gold.Chemscore.Lipo>
104.8001

> <Gold.Chemscore.Internal_Hbond>
0.0000

> <Gold.Chemscore.DEClash>
0.7558

> <Gold.Chemscore.DEInternal>
0.9900

> <Gold.Chemscore.Rot>
2.1693

> <Gold.Chemscore.Internal.Correction>
   9.000000E+99

> <Gold.Chemscore.Hbonds>
donor molecule, donor type, donor heavy atom, donor atom, acceptor molecule, acceptor atom, score
      L1  H    28    54       P1  8028  0.01
      P1  H  6896  6907       L1     8  0.58
      P1  H  7989  7998       L1     1  0.01
      P1  H  8011  8017       L1     1  0.66

> <Gold.Chemscore.Hbond.Weighted>
-8.6016

> <Gold.Chemscore.Metal.Weighted>
-0.0000

> <Gold.Chemscore.Lipo.Weighted>
-12.2616

> <Gold.Chemscore.Internal_Hbond.Weighted>
0.0000

> <Gold.Chemscore.DEClash.Weighted>
0.7558

> <Gold.Chemscore.DEInternal.Weighted>
0.9900

> <Gold.Chemscore.Rot.Weighted>
5.5533

> <Gold.Chemscore.Internal.Correction.Weighted>
   9.000000E+99

> <Gold.Protein.RotatedTorsions>
[ 6907 6896 6895 6894 ] final  -34.80 input  -60.11 | X-H torsion
[ 7974 7965 7964 7962 ] final  -17.94 input  175.53 | X-H torsion
[ 8008 7997 7996 7995 ] final  160.93 input   59.86 | X-H torsion
[ 10167 10162 10161 10158 ] final -123.38 input  -65.29 | X-H torsion
[ 10718 10713 10712 10709 ] final   -4.71 input   66.30 | X-H torsion
[ 10763 10752 10751 10750 ] final  -11.86 input  -60.55 | X-H torsion
[ 11005 11000 10999 10996 ] final -146.00 input  -57.11 | X-H torsion

> <Gold.Protein.ActiveResidues>
 VAL166  LYS551  ARG553  GLY616  TRP617  ASP618  TYR619  PRO620  LYS621  CYS622 
 ASP623  PHE694  ASN695  SER759  ASP760  ASP761  ALA762  ILE779  LEU786  VAL792 
 PHE793  MET794  SER795  GLU796  ALA797  LYS798  CYS799  TRP800  GLU811  SER814 

> <Gold.Protein.RotatedAtoms>
  151.0480  134.9653  159.8196 H   0  0  0  0  0  0  0  0  0  0  0  0  # atno 6907 bound_to 6896
  152.5376  134.2574  159.8932 H   0  0  0  0  0  0  0  0  0  0  0  0  # atno 6908 bound_to 6896
  151.2588  133.4269  159.2649 H   0  0  0  0  0  0  0  0  0  0  0  0  # atno 6909 bound_to 6896
  146.1916  140.3851  142.8456 H   0  0  0  0  0  0  0  0  0  0  0  0  # atno 7974 bound_to 7965
  156.2138  140.1791  156.7634 H   0  0  0  0  0  0  0  0  0  0  0  0  # atno 8008 bound_to 7997
  154.5762  140.0674  156.9066 H   0  0  0  0  0  0  0  0  0  0  0  0  # atno 8009 bound_to 7997
  155.2584  140.3334  155.4278 H   0  0  0  0  0  0  0  0  0  0  0  0  # atno 8010 bound_to 7997
  140.0041  143.5510  152.2291 H   0  0  0  0  0  0  0  0  0  0  0  0  # atno 10167 bound_to 10162
  156.7572  130.5258  149.5792 H   0  0  0  0  0  0  0  0  0  0  0  0  # atno 10718 bound_to 10713
  153.4899  135.7017  153.5890 H   0  0  0  0  0  0  0  0  0  0  0  0  # atno 10763 bound_to 10752
  153.4066  135.3859  155.2023 H   0  0  0  0  0  0  0  0  0  0  0  0  # atno 10764 bound_to 10752
  154.8717  135.3894  154.4359 H   0  0  0  0  0  0  0  0  0  0  0  0  # atno 10765 bound_to 10752
  140.7865  134.3018  157.5028 H   0  0  0  0  0  0  0  0  0  0  0  0  # atno 11005 bound_to 11000
  144.8499  140.6985  143.6175 LP  0  0  0  0  0  0  0  0  0  0  0  0  # atno 17320 bound_to 7965
  145.3773  139.1645  143.4299 LP  0  0  0  0  0  0  0  0  0  0  0  0  # atno 17321 bound_to 7965
  139.6251  144.7636  151.2656 LP  0  0  0  0  0  0  0  0  0  0  0  0  # atno 17342 bound_to 10162
  140.7407  143.6578  150.8191 LP  0  0  0  0  0  0  0  0  0  0  0  0  # atno 17343 bound_to 10162
  156.1362  130.6213  151.0404 LP  0  0  0  0  0  0  0  0  0  0  0  0  # atno 17370 bound_to 10713
  157.6751  131.0852  150.7516 LP  0  0  0  0  0  0  0  0  0  0  0  0  # atno 17371 bound_to 10713
  139.8736  134.9349  156.3620 LP  0  0  0  0  0  0  0  0  0  0  0  0  # atno 17394 bound_to 11000
  140.9431  133.7501  156.0173 LP  0  0  0  0  0  0  0  0  0  0  0  0  # atno 17395 bound_to 11000

$$$$
