AV-unprocessed.smi:1604|AV-procd|sdf|6447|dock4
  -GOLD-   22720 7103D 1   1.00000     0.00000
 Structure written by MMmdl.
 46 48  0  0  0  0  0  0  0  0  1 V2000
  147.1314  141.2886  158.4752 O   0  0  0  0  0  0  0  0  0  0  0  0
  147.3088  142.3225  157.8304 C   0  0  0  0  0  0  0  0  0  0  0  0
  146.7161  143.5017  158.0795 N   0  0  0  0  0  0  0  0  0  0  0  0
  145.8192  143.8224  159.1364 C   0  0  0  0  0  0  0  0  0  0  0  0
  145.8482  143.1201  160.3658 C   0  0  0  0  0  0  0  0  0  0  0  0
  144.8977  143.4230  161.3557 C   0  0  0  0  0  0  0  0  0  0  0  0
  143.9380  144.4095  161.0751 C   0  0  0  0  0  0  0  0  0  0  0  0
  143.8886  145.0771  159.9051 N   0  0  0  0  0  0  0  0  0  0  0  0
  144.8075  144.8068  158.9453 C   0  0  0  0  0  0  0  0  0  0  0  0
  144.7171  145.5518  157.7467 N   0  0  0  0  0  0  0  0  0  0  0  0
  145.0970  146.9615  157.7855 C   0  0  0  0  0  0  0  0  0  0  0  0
  144.1364  147.6965  156.8445 C   0  0  0  0  0  0  0  0  0  0  0  0
  143.6190  146.5948  155.9248 C   0  0  0  0  0  0  0  0  0  0  0  0
  143.5707  145.3890  156.8587 C   0  0  0  0  0  0  0  0  0  0  0  0
  148.1489  142.4160  156.7901 N   0  0  0  0  0  0  0  0  0  0  0  0
  148.9618  141.3284  156.2467 C   0  0  2  0  0  0  0  0  0  0  0  0
  150.3742  141.3324  156.8863 C   0  0  0  0  0  0  0  0  0  0  0  0
  151.4983  140.6823  156.0529 C   0  0  0  0  0  0  0  0  0  0  0  0
  151.2214  139.2432  155.5733 C   0  0  0  0  0  0  0  0  0  0  0  0
  149.9258  139.0182  154.7573 C   0  0  0  0  0  0  0  0  0  0  0  0
  149.4164  140.2146  154.0875 N   0  0  0  0  0  0  0  0  0  0  0  0
  148.9352  141.3066  154.7062 C   0  0  0  0  0  0  0  0  0  0  0  0
  148.5077  142.2686  154.0694 O   0  0  0  0  0  0  0  0  0  0  0  0
  147.0310  144.2851  157.5260 H   0  0  0  0  0  0  0  0  0  0  0  0
  146.5684  142.3386  160.5547 H   0  0  0  0  0  0  0  0  0  0  0  0
  144.8968  142.9017  162.3013 H   0  0  0  0  0  0  0  0  0  0  0  0
  143.1853  144.6653  161.8060 H   0  0  0  0  0  0  0  0  0  0  0  0
  145.0563  147.3718  158.7957 H   0  0  0  0  0  0  0  0  0  0  0  0
  146.1199  147.0598  157.4214 H   0  0  0  0  0  0  0  0  0  0  0  0
  143.3066  148.1120  157.4179 H   0  0  0  0  0  0  0  0  0  0  0  0
  144.6144  148.5143  156.3049 H   0  0  0  0  0  0  0  0  0  0  0  0
  142.6514  146.8272  155.4798 H   0  0  0  0  0  0  0  0  0  0  0  0
  144.3314  146.4161  155.1181 H   0  0  0  0  0  0  0  0  0  0  0  0
  143.6222  144.4479  156.3103 H   0  0  0  0  0  0  0  0  0  0  0  0
  142.6376  145.4073  157.4231 H   0  0  0  0  0  0  0  0  0  0  0  0
  148.2271  143.3074  156.3225 H   0  0  0  0  0  0  0  0  0  0  0  0
  148.4680  140.4045  156.5510 H   0  0  0  0  0  0  0  0  0  0  0  0
  150.6747  142.3609  157.0911 H   0  0  0  0  0  0  0  0  0  0  0  0
  150.3211  140.8440  157.8601 H   0  0  0  0  0  0  0  0  0  0  0  0
  151.7208  141.3127  155.1910 H   0  0  0  0  0  0  0  0  0  0  0  0
  152.4140  140.6825  156.6446 H   0  0  0  0  0  0  0  0  0  0  0  0
  152.0694  138.9338  154.9614 H   0  0  0  0  0  0  0  0  0  0  0  0
  151.2206  138.5680  156.4296 H   0  0  0  0  0  0  0  0  0  0  0  0
  150.1011  138.2512  154.0025 H   0  0  0  0  0  0  0  0  0  0  0  0
  149.1452  138.6116  155.4012 H   0  0  0  0  0  0  0  0  0  0  0  0
  149.4132  140.2060  153.0778 H   0  0  0  0  0  0  0  0  0  0  0  0
  1  2  2  0  0  0  0
  2  3  1  0  0  0  0
  2 15  1  0  0  0  0
  3  4  1  0  0  0  0
  3 24  1  0  0  0  0
  4  9  1  0  0  0  0
  4  5  2  0  0  0  0
  5  6  1  0  0  0  0
  5 25  1  0  0  0  0
  6  7  2  0  0  0  0
  6 26  1  0  0  0  0
  7  8  1  0  0  0  0
  7 27  1  0  0  0  0
  8  9  2  0  0  0  0
  9 10  1  0  0  0  0
 10 14  1  0  0  0  0
 10 11  1  0  0  0  0
 11 12  1  0  0  0  0
 11 28  1  0  0  0  0
 11 29  1  0  0  0  0
 12 13  1  0  0  0  0
 12 30  1  0  0  0  0
 12 31  1  0  0  0  0
 13 14  1  0  0  0  0
 13 32  1  0  0  0  0
 13 33  1  0  0  0  0
 14 34  1  0  0  0  0
 14 35  1  0  0  0  0
 15 16  1  0  0  0  0
 15 36  1  0  0  0  0
 16 22  1  0  0  0  0
 16 17  1  0  0  0  0
 16 37  1  0  0  0  0
 17 18  1  0  0  0  0
 17 38  1  0  0  0  0
 17 39  1  0  0  0  0
 18 19  1  0  0  0  0
 18 40  1  0  0  0  0
 18 41  1  0  0  0  0
 19 20  1  0  0  0  0
 19 42  1  0  0  0  0
 19 43  1  0  0  0  0
 20 21  1  0  0  0  0
 20 44  1  0  0  0  0
 20 45  1  0  0  0  0
 21 22  1  0  0  0  0
 21 46  1  0  0  0  0
 22 23  2  0  0  0  0
M  END
> <s_m_source_file>
AV-unprocessed.smi

> <i_m_source_file_index>
1604

> <i_lp_mmshare_version>
43012

> <i_f3d_flags>
0

> <s_epik_input>
Tz1DMVtOSF1bQ0gyXVtDSDJdW0NIMl1bQ0gyXVtDQEhdMVtOSF1DKD1PKVtOSF1jMltjSF1bY0hdW2NIXW5jMk4zW0NIMl1bQ0gyXVtDSDJdW0NIMl0z

> <s_epik_cmdline>
J2VwaWtfcHl0aG9uJywgJy1waCcsICc3LjAnLCAnLXRuJywgJzgnLCAnLW1hJywgJzIwMCcsICctbWV0YWxfYmluZGluZycsICctaW1hZScsICc8aW5maWxlLm1hZT4nLCAnLW9tYWUnLCAnPG91dGZpbGUubWFlPic=

> <r_lp_tautomer_probability>
1

> <r_epik_Ionization_Penalty>
0.0837267

> <r_epik_Ionization_Penalty_Charging>
0

> <r_epik_Ionization_Penalty_Neutral>
0.0837267

> <r_epik_State_Penalty>
0.0738331

> <r_epik_Charging_Adjusted_Penalty>
0.0738331

> <i_epik_Tot_Q>
0

> <i_epik_Tot_abs_Q>
0

> <r_epik_Metal_State_Penalty>
0.0646802

> <b_epik_Metal_Only>
0

> <s_lp_Force_Field>
OPLS_2005

> <r_lp_Energy>
41.479

> <b_lp_Chiralities_Consistent>
1

> <s_lp_Variant>
AV-unprocessed.smi:1604-1

> <Gold.Version>
5.8.1

> <Gold.Id.Protein>
6NUR|6NUR_protein|mol2

> <Gold.PLP.Fitness>
39.5259

> <Gold.PLP.PLP>
-32.2177

> <Gold.PLP.part.hbond>
-5.0000

> <Gold.PLP.part.metal>
0.0000

> <Gold.PLP.part.buried>
-3.3720

> <Gold.PLP.part.nonpolar>
-25.0055

> <Gold.PLP.part.repulsive>
1.5695

> <Gold.PLP.ligand.clash>
0.0000

> <Gold.PLP.ligand.torsion>
0.6270

> <Gold.PLP.Chemscore.Hbond>
2.7323

> <Gold.PLP.Chemscore.CHOScore>
0.0000

> <Gold.PLP.Chemscore.Metal>
0.0000

> <Gold.Chemscore.Hbonds>
donor molecule, donor type, donor heavy atom, donor atom, acceptor molecule, acceptor atom, score
      L1  H     3    24       P1  8029  0.45
      L1  H    15    36       P1  8028  1.00
      L1  H    21    46       P1  7957  1.00
      P1  H  6934  6946       L1     1  0.13
      P1  H  8011  8017       L1    23  0.19

> <Gold.PLP.Chemscore.Internal.Correction>
0.3654

> <Gold.Rescore>
     Score         DG    S(hbond)    S(metal)    S(lipo)     H(rot)  DE(clash)    DE(int)     intcor
     15.37     -17.25       2.11        0.00      67.48       1.25       0.05       1.82       ----

> <Gold.Chemscore.Fitness>
15.3744

> <Gold.Chemscore.DG>
-17.2461

> <Gold.Chemscore.ZeroCoef>
-5.4800

> <Gold.Chemscore.Hbond>
2.1140

> <Gold.Chemscore.Metal>
0.0000

> <Gold.Chemscore.Lipo>
67.4799

> <Gold.Chemscore.Internal_Hbond>
0.0000

> <Gold.Chemscore.DEClash>
0.0474

> <Gold.Chemscore.DEInternal>
1.8243

> <Gold.Chemscore.Rot>
1.2461

> <Gold.Chemscore.Internal.Correction>
   9.000000E+99

> <Gold.Chemscore.Hbonds>
donor molecule, donor type, donor heavy atom, donor atom, acceptor molecule, acceptor atom, score
      L1  H     3    24       P1  8029  0.02
      L1  H    15    36       P1  8028  0.45
      L1  H    21    46       P1  7957  0.99
      P1  H  6934  6946       L1     1  0.13
      P1  H  8011  8017       L1    23  0.10
      P1  H  8022  8030       L1    23  0.01

> <Gold.Chemscore.Hbond.Weighted>
-7.0608

> <Gold.Chemscore.Metal.Weighted>
-0.0000

> <Gold.Chemscore.Lipo.Weighted>
-7.8951

> <Gold.Chemscore.Internal_Hbond.Weighted>
0.0000

> <Gold.Chemscore.DEClash.Weighted>
0.0474

> <Gold.Chemscore.DEInternal.Weighted>
1.8243

> <Gold.Chemscore.Rot.Weighted>
3.1899

> <Gold.Chemscore.Internal.Correction.Weighted>
   9.000000E+99

> <Gold.Protein.RotatedTorsions>
[ 6907 6896 6895 6894 ] final   27.24 input  -60.11 | X-H torsion
[ 7974 7965 7964 7962 ] final  -71.46 input  175.53 | X-H torsion
[ 8008 7997 7996 7995 ] final   52.07 input   59.86 | X-H torsion
[ 10167 10162 10161 10158 ] final   25.14 input  -65.29 | X-H torsion
[ 10718 10713 10712 10709 ] final -149.54 input   66.30 | X-H torsion
[ 10763 10752 10751 10750 ] final   79.34 input  -60.55 | X-H torsion
[ 11005 11000 10999 10996 ] final  133.38 input  -57.11 | X-H torsion

> <Gold.Protein.ActiveResidues>
 VAL166  LYS551  ARG553  GLY616  TRP617  ASP618  TYR619  PRO620  LYS621  CYS622 
 ASP623  PHE694  ASN695  SER759  ASP760  ASP761  ALA762  ILE779  LEU786  VAL792 
 PHE793  MET794  SER795  GLU796  ALA797  LYS798  CYS799  TRP800  GLU811  SER814 

> <Gold.Protein.RotatedAtoms>
  151.9994  134.9937  160.0564 H   0  0  0  0  0  0  0  0  0  0  0  0  # atno 6907 bound_to 6896
  152.1534  133.4531  159.4833 H   0  0  0  0  0  0  0  0  0  0  0  0  # atno 6908 bound_to 6896
  150.6878  134.2079  159.4391 H   0  0  0  0  0  0  0  0  0  0  0  0  # atno 6909 bound_to 6896
  145.6777  140.9199  143.0849 H   0  0  0  0  0  0  0  0  0  0  0  0  # atno 7974 bound_to 7965
  155.4457  140.3456  155.4295 H   0  0  0  0  0  0  0  0  0  0  0  0  # atno 8008 bound_to 7997
  156.1251  140.1498  156.9177 H   0  0  0  0  0  0  0  0  0  0  0  0  # atno 8009 bound_to 7997
  154.4852  140.0857  156.7450 H   0  0  0  0  0  0  0  0  0  0  0  0  # atno 8010 bound_to 7997
  140.5131  144.0128  150.6381 H   0  0  0  0  0  0  0  0  0  0  0  0  # atno 10167 bound_to 10162
  156.4345  130.8092  151.2320 H   0  0  0  0  0  0  0  0  0  0  0  0  # atno 10718 bound_to 10713
  153.0945  135.4843  154.8752 H   0  0  0  0  0  0  0  0  0  0  0  0  # atno 10763 bound_to 10752
  154.7308  135.3060  154.8897 H   0  0  0  0  0  0  0  0  0  0  0  0  # atno 10764 bound_to 10752
  153.9533  135.6821  153.4797 H   0  0  0  0  0  0  0  0  0  0  0  0  # atno 10765 bound_to 10752
  139.9848  134.9536  156.9716 H   0  0  0  0  0  0  0  0  0  0  0  0  # atno 11005 bound_to 11000
  144.7036  139.8656  143.7437 LP  0  0  0  0  0  0  0  0  0  0  0  0  # atno 17320 bound_to 7965
  146.0991  139.3985  143.0358 LP  0  0  0  0  0  0  0  0  0  0  0  0  # atno 17321 bound_to 7965
  140.3456  143.2994  152.0542 LP  0  0  0  0  0  0  0  0  0  0  0  0  # atno 17342 bound_to 10162
  139.4901  144.6411  151.6874 LP  0  0  0  0  0  0  0  0  0  0  0  0  # atno 17343 bound_to 10162
  157.7507  131.0188  150.3639 LP  0  0  0  0  0  0  0  0  0  0  0  0  # atno 17370 bound_to 10713
  156.3984  130.3911  149.6978 LP  0  0  0  0  0  0  0  0  0  0  0  0  # atno 17371 bound_to 10713
  140.5025  134.1083  155.7253 LP  0  0  0  0  0  0  0  0  0  0  0  0  # atno 17394 bound_to 11000
  141.1514  133.8961  157.2087 LP  0  0  0  0  0  0  0  0  0  0  0  0  # atno 17395 bound_to 11000

$$$$
