AV-unprocessed.smi:114|AV-procd|sdf|1109|dock2
  -GOLD-   2262018223D 1   1.00000     0.00000
 Structure written by MMmdl.
 32 34  0  0  0  0  0  0  0  0  1 V2000
  153.7837  142.8959  162.0711 N   0  0  0  0  0  0  0  0  0  0  0  0
  153.8066  142.2184  160.9149 C   0  0  0  0  0  0  0  0  0  0  0  0
  154.8391  141.3752  160.6834 N   0  0  0  0  0  0  0  0  0  0  0  0
  154.8998  140.6796  159.5414 C   0  0  0  0  0  0  0  0  0  0  0  0
  155.9676  139.8610  159.3919 F   0  0  0  0  0  0  0  0  0  0  0  0
  154.0243  140.7035  158.5313 N   0  0  0  0  0  0  0  0  0  0  0  0
  152.9806  141.5523  158.7589 C   0  0  0  0  0  0  0  0  0  0  0  0
  152.8019  142.3447  159.9248 C   0  0  0  0  0  0  0  0  0  0  0  0
  151.6361  143.0903  159.8182 N   0  0  0  0  0  0  0  0  0  0  0  0
  151.1560  142.7546  158.6510 C   0  0  0  0  0  0  0  0  0  0  0  0
  151.9024  141.8381  157.9428 N   0  0  0  0  0  0  0  0  0  0  0  0
  151.5936  141.2781  156.5860 C   0  0  2  0  0  0  0  0  0  0  0  0
  150.3483  141.7462  156.1609 O   0  0  0  0  0  0  0  0  0  0  0  0
  149.4491  140.6604  155.9420 C   0  0  1  0  0  0  0  0  0  0  0  0
  148.4303  141.0023  154.8406 C   0  0  0  0  0  0  0  0  0  0  0  0
  147.4850  141.9318  155.3251 O   0  0  0  0  0  0  0  0  0  0  0  0
  150.3693  139.4668  155.6474 C   0  0  1  0  0  0  0  0  0  0  0  0
  150.7712  139.4471  154.2893 O   0  0  0  0  0  0  0  0  0  0  0  0
  151.5639  139.7365  156.5484 C   0  0  2  0  0  0  0  0  0  0  0  0
  151.3820  139.1301  157.8159 O   0  0  0  0  0  0  0  0  0  0  0  0
  152.3614  141.6974  155.9348 H   0  0  0  0  0  0  0  0  0  0  0  0
  148.9238  140.4476  156.8737 H   0  0  0  0  0  0  0  0  0  0  0  0
  149.8848  138.5147  155.8686 H   0  0  0  0  0  0  0  0  0  0  0  0
  152.4984  139.3620  156.1283 H   0  0  0  0  0  0  0  0  0  0  0  0
  153.0234  143.5316  162.2658 H   0  0  0  0  0  0  0  0  0  0  0  0
  154.5221  142.7645  162.7473 H   0  0  0  0  0  0  0  0  0  0  0  0
  150.2356  143.1727  158.2697 H   0  0  0  0  0  0  0  0  0  0  0  0
  148.9229  141.3942  153.9500 H   0  0  0  0  0  0  0  0  0  0  0  0
  147.8826  140.1072  154.5446 H   0  0  0  0  0  0  0  0  0  0  0  0
  147.9468  142.6890  155.6515 H   0  0  0  0  0  0  0  0  0  0  0  0
  150.0421  139.1533  153.7647 H   0  0  0  0  0  0  0  0  0  0  0  0
  151.9598  138.3849  157.8760 H   0  0  0  0  0  0  0  0  0  0  0  0
  1  2  1  0  0  0  0
  1 25  1  0  0  0  0
  1 26  1  0  0  0  0
  2  8  1  0  0  0  0
  2  3  2  0  0  0  0
  3  4  1  0  0  0  0
  4  5  1  0  0  0  0
  4  6  2  0  0  0  0
  6  7  1  0  0  0  0
  7 11  1  0  0  0  0
  7  8  2  0  0  0  0
  8  9  1  0  0  0  0
  9 10  2  0  0  0  0
 10 11  1  0  0  0  0
 10 27  1  0  0  0  0
 11 12  1  0  0  0  0
 12 21  1  0  0  0  0
 12 19  1  0  0  0  0
 12 13  1  0  0  0  0
 13 14  1  0  0  0  0
 14 22  1  0  0  0  0
 14 15  1  0  0  0  0
 14 17  1  0  0  0  0
 15 16  1  0  0  0  0
 15 28  1  0  0  0  0
 15 29  1  0  0  0  0
 16 30  1  0  0  0  0
 17 23  1  0  0  0  0
 17 18  1  0  0  0  0
 17 19  1  0  0  0  0
 18 31  1  0  0  0  0
 19 24  1  0  0  0  0
 19 20  1  0  0  0  0
 20 32  1  0  0  0  0
M  END
> <s_m_source_file>
AV-unprocessed.smi

> <i_m_source_file_index>
114

> <i_lp_mmshare_version>
43012

> <i_f3d_flags>
0

> <s_epik_input>
RmMobjEpbmMoW05IMl0pYyhjMTIpbltjSF1uMltDQEBIXTNPW0NASF0oW0NIMl1bT0hdKVtDQEBIXShbT0hdKVtDQEBIXTNbT0hd

> <s_epik_cmdline>
J2VwaWtfcHl0aG9uJywgJy1waCcsICc3LjAnLCAnLXRuJywgJzgnLCAnLW1hJywgJzIwMCcsICctbWV0YWxfYmluZGluZycsICctaW1hZScsICc8aW5maWxlLm1hZT4nLCAnLW9tYWUnLCAnPG91dGZpbGUubWFlPic=

> <r_lp_tautomer_probability>
1

> <r_epik_Ionization_Penalty>
1.13199e-05

> <r_epik_Ionization_Penalty_Charging>
0

> <r_epik_Ionization_Penalty_Neutral>
1.13199e-05

> <r_epik_State_Penalty>
-0

> <r_epik_Charging_Adjusted_Penalty>
0

> <i_epik_Tot_Q>
0

> <i_epik_Tot_abs_Q>
0

> <r_epik_Metal_State_Penalty>
-0

> <b_epik_Metal_Only>
0

> <s_epik_Chemistry_Notes>
This compound contains an acetal/aminal-like group ( X-CH(R)-Y where X, Y are N, S, or O) that may be acid/base labile, releasing an aldehyde.

> <s_lp_Force_Field>
OPLS_2005

> <r_lp_Energy>
40.543

> <b_lp_Chiralities_Consistent>
1

> <s_lp_Variant>
AV-unprocessed.smi:114-3

> <Gold.Version>
5.8.1

> <Gold.Id.Protein>
6NUR|6NUR_protein|mol2

> <Gold.PLP.Fitness>
40.2425

> <Gold.PLP.PLP>
-31.9851

> <Gold.PLP.part.hbond>
-3.0757

> <Gold.PLP.part.metal>
0.0000

> <Gold.PLP.part.buried>
-5.6206

> <Gold.PLP.part.nonpolar>
-22.1061

> <Gold.PLP.part.repulsive>
0.1703

> <Gold.PLP.ligand.clash>
0.0000

> <Gold.PLP.ligand.torsion>
0.1333

> <Gold.PLP.Chemscore.Hbond>
2.8406

> <Gold.PLP.Chemscore.CHOScore>
0.0000

> <Gold.PLP.Chemscore.Metal>
0.0000

> <Gold.Chemscore.Hbonds>
donor molecule, donor type, donor heavy atom, donor atom, acceptor molecule, acceptor atom, score
      L1  H    16    30       P1  8028  0.54
      P1  H  7989  7998       L1    18  1.00
      P1  H  7997  8008       L1     6  0.56

> <Gold.PLP.Chemscore.Internal.Correction>
0.0023

> <Gold.Rescore>
     Score         DG    S(hbond)    S(metal)    S(lipo)     H(rot)  DE(clash)    DE(int)     intcor
      5.45      -6.82       2.30        0.00      33.90       4.03       0.20       1.17       ----

> <Gold.Chemscore.Fitness>
5.4454

> <Gold.Chemscore.DG>
-6.8180

> <Gold.Chemscore.ZeroCoef>
-5.4800

> <Gold.Chemscore.Hbond>
2.3001

> <Gold.Chemscore.Metal>
0.0000

> <Gold.Chemscore.Lipo>
33.9015

> <Gold.Chemscore.Internal_Hbond>
0.0000

> <Gold.Chemscore.DEClash>
0.1978

> <Gold.Chemscore.DEInternal>
1.1747

> <Gold.Chemscore.Rot>
4.0277

> <Gold.Chemscore.Internal.Correction>
   9.000000E+99

> <Gold.Chemscore.Hbonds>
donor molecule, donor type, donor heavy atom, donor atom, acceptor molecule, acceptor atom, score
      L1  H    16    30       P1  8028  0.46
      P1  H  7989  7998       L1    18  0.78
      P1  H  7997  8008       L1     6  0.39

> <Gold.Chemscore.Hbond.Weighted>
-7.6825

> <Gold.Chemscore.Metal.Weighted>
-0.0000

> <Gold.Chemscore.Lipo.Weighted>
-3.9665

> <Gold.Chemscore.Internal_Hbond.Weighted>
0.0000

> <Gold.Chemscore.DEClash.Weighted>
0.1978

> <Gold.Chemscore.DEInternal.Weighted>
1.1747

> <Gold.Chemscore.Rot.Weighted>
10.3110

> <Gold.Chemscore.Internal.Correction.Weighted>
   9.000000E+99

> <Gold.Protein.RotatedTorsions>
[ 6907 6896 6895 6894 ] final -102.07 input  -60.11 | X-H torsion
[ 7974 7965 7964 7962 ] final  134.33 input  175.53 | X-H torsion
[ 8008 7997 7996 7995 ] final  -96.60 input   59.86 | X-H torsion
[ 10167 10162 10161 10158 ] final -177.60 input  -65.29 | X-H torsion
[ 10718 10713 10712 10709 ] final  163.69 input   66.30 | X-H torsion
[ 10763 10752 10751 10750 ] final -138.17 input  -60.55 | X-H torsion
[ 11005 11000 10999 10996 ] final -105.20 input  -57.11 | X-H torsion

> <Gold.Protein.ActiveResidues>
 VAL166  LYS551  ARG553  GLY616  TRP617  ASP618  TYR619  PRO620  LYS621  CYS622 
 ASP623  PHE694  ASN695  SER759  ASP760  ASP761  ALA762  ILE779  LEU786  VAL792 
 PHE793  MET794  SER795  GLU796  ALA797  LYS798  CYS799  TRP800  GLU811  SER814 

> <Gold.Protein.RotatedAtoms>
  150.7180  134.0638  159.3840 H   0  0  0  0  0  0  0  0  0  0  0  0  # atno 6907 bound_to 6896
  151.8618  135.0519  160.0479 H   0  0  0  0  0  0  0  0  0  0  0  0  # atno 6908 bound_to 6896
  152.2711  133.5347  159.5476 H   0  0  0  0  0  0  0  0  0  0  0  0  # atno 6909 bound_to 6896
  144.9775  139.4540  143.5403 H   0  0  0  0  0  0  0  0  0  0  0  0  # atno 7974 bound_to 7965
  154.7766  140.0470  157.1094 H   0  0  0  0  0  0  0  0  0  0  0  0  # atno 8008 bound_to 7997
  154.9756  140.3095  155.4949 H   0  0  0  0  0  0  0  0  0  0  0  0  # atno 8009 bound_to 7997
  156.2930  140.2245  156.4851 H   0  0  0  0  0  0  0  0  0  0  0  0  # atno 8010 bound_to 7997
  139.5472  144.2203  152.1011 H   0  0  0  0  0  0  0  0  0  0  0  0  # atno 10167 bound_to 10162
  157.1049  131.0453  151.2482 H   0  0  0  0  0  0  0  0  0  0  0  0  # atno 10718 bound_to 10713
  154.8644  135.3620  154.5341 H   0  0  0  0  0  0  0  0  0  0  0  0  # atno 10763 bound_to 10752
  153.5966  135.7014  153.5406 H   0  0  0  0  0  0  0  0  0  0  0  0  # atno 10764 bound_to 10752
  153.3327  135.4120  155.1470 H   0  0  0  0  0  0  0  0  0  0  0  0  # atno 10765 bound_to 10752
  141.1065  133.8787  157.1705 H   0  0  0  0  0  0  0  0  0  0  0  0  # atno 11005 bound_to 11000
  146.3399  139.9026  142.8792 LP  0  0  0  0  0  0  0  0  0  0  0  0  # atno 17320 bound_to 7965
  145.2470  141.0030  143.3903 LP  0  0  0  0  0  0  0  0  0  0  0  0  # atno 17321 bound_to 7965
  140.1692  144.4952  150.6589 LP  0  0  0  0  0  0  0  0  0  0  0  0  # atno 17342 bound_to 10162
  140.6724  143.2291  151.5591 LP  0  0  0  0  0  0  0  0  0  0  0  0  # atno 17343 bound_to 10162
  157.4609  130.7652  149.7235 LP  0  0  0  0  0  0  0  0  0  0  0  0  # atno 17370 bound_to 10713
  155.9864  130.3975  150.3213 LP  0  0  0  0  0  0  0  0  0  0  0  0  # atno 17371 bound_to 10713
  139.9937  135.0055  157.0034 LP  0  0  0  0  0  0  0  0  0  0  0  0  # atno 17394 bound_to 11000
  140.4889  134.1213  155.7229 LP  0  0  0  0  0  0  0  0  0  0  0  0  # atno 17395 bound_to 11000

$$$$
