AV-unprocessed.smi:899|AV-procd|sdf|4088|dock4
  -GOLD-   22720 1573D 1   1.00000     0.00000
 Structure written by MMmdl.
 32 33  0  0  0  0  0  0  0  0  2 V2000
  148.4485  144.3648  160.7444 N   0  0  0  0  0  0  0  0  0  0  0  0
  149.5304  144.5860  160.3987 C   0  0  0  0  0  0  0  0  0  0  0  0
  150.9059  144.8666  159.9595 C   0  0  0  0  0  0  0  0  0  0  0  0
  151.7011  143.5975  159.7325 C   0  0  0  0  0  0  0  0  0  0  0  0
  151.4452  142.7969  158.6023 C   0  0  0  0  0  0  0  0  0  0  0  0
  152.1857  141.6185  158.3896 C   0  0  0  0  0  0  0  0  0  0  0  0
  153.1902  141.2225  159.2965 C   0  0  0  0  0  0  0  0  0  0  0  0
  153.8691  140.0580  159.0081 O   0  0  0  0  0  0  0  0  0  0  0  0
  154.3900  139.2974  160.0895 C   0  0  0  0  0  0  0  0  0  0  0  0
  153.5105  138.0535  160.2825 C   0  0  0  0  0  0  0  0  0  0  0  0
  154.0282  137.1920  161.3534 N   0  0  0  0  0  0  0  0  0  0  0  0
  154.2079  137.7679  162.6225 C   0  0  0  0  0  0  0  0  0  0  0  0
  154.6825  137.0620  163.6673 C   0  0  0  0  0  0  0  0  0  0  0  0
  154.8937  137.7968  165.2167 Cl  0  0  0  0  0  0  0  0  0  0  0  0
  155.0165  135.6559  163.4498 C   0  0  0  0  0  0  0  0  0  0  0  0
  155.4489  134.9812  164.3833 O   0  0  0  0  0  0  0  0  0  0  0  0
  154.8314  135.1466  162.1966 N   0  5  0  0  0  0  0  0  0  0  0  0
  154.3503  135.8807  161.1462 C   0  0  0  0  0  0  0  0  0  0  0  0
  154.2003  135.4014  160.0220 O   0  0  0  0  0  0  0  0  0  0  0  0
  153.4410  142.0321  160.4334 C   0  0  0  0  0  0  0  0  0  0  0  0
  152.7000  143.2108  160.6475 C   0  0  0  0  0  0  0  0  0  0  0  0
  150.8627  145.4452  159.0363 H   0  0  0  0  0  0  0  0  0  0  0  0
  151.3883  145.4881  160.7146 H   0  0  0  0  0  0  0  0  0  0  0  0
  150.6801  143.0846  157.8961 H   0  0  0  0  0  0  0  0  0  0  0  0
  151.9819  141.0116  157.5196 H   0  0  0  0  0  0  0  0  0  0  0  0
  155.4176  138.9969  159.8783 H   0  0  0  0  0  0  0  0  0  0  0  0
  154.3898  139.8955  161.0023 H   0  0  0  0  0  0  0  0  0  0  0  0
  152.4894  138.3620  160.5103 H   0  0  0  0  0  0  0  0  0  0  0  0
  153.4377  137.4977  159.3461 H   0  0  0  0  0  0  0  0  0  0  0  0
  153.9417  138.8125  162.6926 H   0  0  0  0  0  0  0  0  0  0  0  0
  154.1983  141.7709  161.1570 H   0  0  0  0  0  0  0  0  0  0  0  0
  152.9026  143.8181  161.5175 H   0  0  0  0  0  0  0  0  0  0  0  0
  1  2  3  0  0  0  0
  2  3  1  0  0  0  0
  3  4  1  0  0  0  0
  3 22  1  0  0  0  0
  3 23  1  0  0  0  0
  4 21  1  0  0  0  0
  4  5  2  0  0  0  0
  5  6  1  0  0  0  0
  5 24  1  0  0  0  0
  6  7  2  0  0  0  0
  6 25  1  0  0  0  0
  7  8  1  0  0  0  0
  7 20  1  0  0  0  0
  8  9  1  0  0  0  0
  9 10  1  0  0  0  0
  9 26  1  0  0  0  0
  9 27  1  0  0  0  0
 10 11  1  0  0  0  0
 10 28  1  0  0  0  0
 10 29  1  0  0  0  0
 11 18  1  0  0  0  0
 11 12  1  0  0  0  0
 12 13  2  0  0  0  0
 12 30  1  0  0  0  0
 13 14  1  0  0  0  0
 13 15  1  0  0  0  0
 15 16  2  0  0  0  0
 15 17  1  0  0  0  0
 17 18  1  0  0  0  0
 18 19  2  0  0  0  0
 20 21  2  0  0  0  0
 20 31  1  0  0  0  0
 21 32  1  0  0  0  0
M  CHG  1  17  -1
M  END
> <s_m_source_file>
AV-unprocessed.smi

> <i_m_source_file_index>
899

> <i_lp_mmshare_version>
43012

> <i_f3d_flags>
0

> <s_epik_input>
TiNDW0NIMl1jMVtjSF1bY0hdYyhbY0hdW2NIXTEpT1tDSDJdW0NIMl1uMltjSF1jKENsKWMoPU8pW25IXWMyPU8=

> <s_epik_cmdline>
J2VwaWtfcHl0aG9uJywgJy1waCcsICc3LjAnLCAnLXRuJywgJzgnLCAnLW1hJywgJzIwMCcsICctbWV0YWxfYmluZGluZycsICctaW1hZScsICc8aW5maWxlLm1hZT4nLCAnLW9tYWUnLCAnPG91dGZpbGUubWFlPic=

> <r_lp_tautomer_probability>
1

> <r_epik_Ionization_Penalty>
1.54028

> <r_epik_Ionization_Penalty_Charging>
7.31917e-09

> <r_epik_Ionization_Penalty_Neutral>
1.54028

> <r_epik_State_Penalty>
1.63364

> <r_epik_Charging_Adjusted_Penalty>
1.63364

> <i_epik_Tot_Q>
-1

> <i_epik_Tot_abs_Q>
1

> <r_epik_Metal_State_Penalty>
0.00867927

> <b_epik_Metal_Only>
0

> <s_lp_Force_Field>
OPLS_2005

> <r_lp_Energy>
21.9466

> <b_lp_Chiralities_Consistent>
1

> <s_lp_Variant>
AV-unprocessed.smi:899-2

> <Gold.Version>
5.8.1

> <Gold.Id.Protein>
6NUR|6NUR_protein|mol2

> <Gold.PLP.Fitness>
47.9564

> <Gold.PLP.PLP>
-41.3474

> <Gold.PLP.part.hbond>
-3.0000

> <Gold.PLP.part.metal>
0.0000

> <Gold.PLP.part.buried>
-5.6957

> <Gold.PLP.part.nonpolar>
-34.0679

> <Gold.PLP.part.repulsive>
0.2415

> <Gold.PLP.ligand.clash>
0.0000

> <Gold.PLP.ligand.torsion>
0.8727

> <Gold.PLP.Chemscore.Hbond>
2.7800

> <Gold.PLP.Chemscore.CHOScore>
0.0000

> <Gold.PLP.Chemscore.Metal>
0.0000

> <Gold.Chemscore.Hbonds>
donor molecule, donor type, donor heavy atom, donor atom, acceptor molecule, acceptor atom, score
      P1  H  6896  6909       L1    19  1.00
      P1  H  6933  6944       L1     1  0.76
      P1  H  7997  8009       L1     8  1.00

> <Gold.PLP.Chemscore.Internal.Correction>
0.0144

> <Gold.Rescore>
     Score         DG    S(hbond)    S(metal)    S(lipo)     H(rot)  DE(clash)    DE(int)     intcor
     18.25     -19.28       2.30        0.00     101.55       2.25       0.01       1.02       ----

> <Gold.Chemscore.Fitness>
18.2469

> <Gold.Chemscore.DG>
-19.2806

> <Gold.Chemscore.ZeroCoef>
-5.4800

> <Gold.Chemscore.Hbond>
2.2984

> <Gold.Chemscore.Metal>
0.0000

> <Gold.Chemscore.Lipo>
101.5526

> <Gold.Chemscore.Internal_Hbond>
0.0000

> <Gold.Chemscore.DEClash>
0.0126

> <Gold.Chemscore.DEInternal>
1.0210

> <Gold.Chemscore.Rot>
2.2491

> <Gold.Chemscore.Internal.Correction>
   9.000000E+99

> <Gold.Chemscore.Hbonds>
donor molecule, donor type, donor heavy atom, donor atom, acceptor molecule, acceptor atom, score
      P1  H  6896  6909       L1    19  0.38
      P1  H  6933  6944       L1     1  0.32
      P1  H  7997  8009       L1     8  0.80

> <Gold.Chemscore.Hbond.Weighted>
-7.6765

> <Gold.Chemscore.Metal.Weighted>
-0.0000

> <Gold.Chemscore.Lipo.Weighted>
-11.8817

> <Gold.Chemscore.Internal_Hbond.Weighted>
0.0000

> <Gold.Chemscore.DEClash.Weighted>
0.0126

> <Gold.Chemscore.DEInternal.Weighted>
1.0210

> <Gold.Chemscore.Rot.Weighted>
5.7576

> <Gold.Chemscore.Internal.Correction.Weighted>
   9.000000E+99

> <Gold.Protein.RotatedTorsions>
[ 6907 6896 6895 6894 ] final  167.16 input  -60.11 | X-H torsion
[ 7974 7965 7964 7962 ] final    0.21 input  175.53 | X-H torsion
[ 8008 7997 7996 7995 ] final  138.47 input   59.86 | X-H torsion
[ 10167 10162 10161 10158 ] final -121.94 input  -65.29 | X-H torsion
[ 10718 10713 10712 10709 ] final  102.40 input   66.30 | X-H torsion
[ 10763 10752 10751 10750 ] final  160.47 input  -60.55 | X-H torsion
[ 11005 11000 10999 10996 ] final  -70.26 input  -57.11 | X-H torsion

> <Gold.Protein.ActiveResidues>
 VAL166  LYS551  ARG553  GLY616  TRP617  ASP618  TYR619  PRO620  LYS621  CYS622 
 ASP623  PHE694  ASN695  SER759  ASP760  ASP761  ALA762  ILE779  LEU786  VAL792 
 PHE793  MET794  SER795  GLU796  ALA797  LYS798  CYS799  TRP800  GLU811  SER814 

> <Gold.Protein.RotatedAtoms>
  151.8677  133.3469  159.3724 H   0  0  0  0  0  0  0  0  0  0  0  0  # atno 6907 bound_to 6896
  150.7161  134.5144  159.5632 H   0  0  0  0  0  0  0  0  0  0  0  0  # atno 6908 bound_to 6896
  152.2670  134.7974  160.0472 H   0  0  0  0  0  0  0  0  0  0  0  0  # atno 6909 bound_to 6896
  146.2432  140.1171  142.8342 H   0  0  0  0  0  0  0  0  0  0  0  0  # atno 7974 bound_to 7965
  156.2997  140.2392  156.4079 H   0  0  0  0  0  0  0  0  0  0  0  0  # atno 8008 bound_to 7997
  154.8468  140.0426  157.1598 H   0  0  0  0  0  0  0  0  0  0  0  0  # atno 8009 bound_to 7997
  154.9043  140.2981  155.5304 H   0  0  0  0  0  0  0  0  0  0  0  0  # atno 8010 bound_to 7997
  140.0197  143.5357  152.2226 H   0  0  0  0  0  0  0  0  0  0  0  0  # atno 10167 bound_to 10162
  157.6803  131.0752  150.5398 H   0  0  0  0  0  0  0  0  0  0  0  0  # atno 10718 bound_to 10713
  154.2479  135.2772  155.2828 H   0  0  0  0  0  0  0  0  0  0  0  0  # atno 10763 bound_to 10752
  154.5490  135.5680  153.6909 H   0  0  0  0  0  0  0  0  0  0  0  0  # atno 10764 bound_to 10752
  152.9986  135.6270  154.2625 H   0  0  0  0  0  0  0  0  0  0  0  0  # atno 10765 bound_to 10752
  141.1570  133.6785  156.6725 H   0  0  0  0  0  0  0  0  0  0  0  0  # atno 11005 bound_to 11000
  145.0437  140.8965  143.5037 LP  0  0  0  0  0  0  0  0  0  0  0  0  # atno 17320 bound_to 7965
  145.1257  139.2665  143.5565 LP  0  0  0  0  0  0  0  0  0  0  0  0  # atno 17321 bound_to 7965
  139.6148  144.7617  151.2870 LP  0  0  0  0  0  0  0  0  0  0  0  0  # atno 17342 bound_to 10162
  140.7348  143.6756  150.8044 LP  0  0  0  0  0  0  0  0  0  0  0  0  # atno 17343 bound_to 10162
  156.5706  130.4279  149.6021 LP  0  0  0  0  0  0  0  0  0  0  0  0  # atno 17370 bound_to 10713
  156.2744  130.7035  151.1842 LP  0  0  0  0  0  0  0  0  0  0  0  0  # atno 17371 bound_to 10713
  140.3164  134.8044  157.4217 LP  0  0  0  0  0  0  0  0  0  0  0  0  # atno 17394 bound_to 11000
  140.1134  134.5315  155.8246 LP  0  0  0  0  0  0  0  0  0  0  0  0  # atno 17395 bound_to 11000

$$$$
