AV-unprocessed.smi:1434|AV-procd|sdf|5853|dock2
  -GOLD-   22720 5523D 1   1.00000     0.00000
 Structure written by MMmdl.
 43 44  0  0  0  0  0  0  0  0  2 V2000
  156.6100  133.1150  158.1642 C   0  0  0  0  0  0  0  0  0  0  0  0
  156.0624  133.4057  159.8931 S   0  0  0  0  0  0  0  0  0  0  0  0
  154.6238  133.7059  159.8127 O   0  0  0  0  0  0  0  0  0  0  0  0
  156.4575  132.2032  160.6441 O   0  0  0  0  0  0  0  0  0  0  0  0
  156.9545  134.7060  160.2726 N   0  5  0  0  0  0  0  0  0  0  0  0
  156.3295  135.8528  160.9150 C   0  0  2  0  0  0  0  0  0  0  0  0
  155.7021  135.4554  162.2783 C   0  0  0  0  0  0  0  0  0  0  0  0
  154.8005  136.5608  162.8914 C   0  0  0  0  0  0  0  0  0  0  0  0
  153.7558  137.0984  161.8870 C   0  0  0  0  0  0  0  0  0  0  0  0
  154.4891  137.5320  160.6765 N   0  0  0  0  0  0  0  0  0  0  0  0
  154.5473  138.8033  160.1983 C   0  0  0  0  0  0  0  0  0  0  0  0
  154.9736  139.0860  159.0776 O   0  0  0  0  0  0  0  0  0  0  0  0
  154.1548  139.7505  161.0673 N   0  0  0  0  0  0  0  0  0  0  0  0
  154.1980  141.1872  160.8210 C   0  0  0  0  0  0  0  0  0  0  0  0
  153.2353  141.5935  159.6925 C   0  0  0  0  0  0  0  0  0  0  0  0
  152.6466  142.9745  159.9078 C   0  0  0  0  0  0  0  0  0  0  0  0
  152.5622  143.8966  158.8427 C   0  0  0  0  0  0  0  0  0  0  0  0
  152.0103  145.1670  159.0978 C   0  0  0  0  0  0  0  0  0  0  0  0
  151.5683  145.4655  160.4011 C   0  0  0  0  0  0  0  0  0  0  0  0
  151.6985  144.4759  161.3960 C   0  0  0  0  0  0  0  0  0  0  0  0
  152.2257  143.2548  161.1619 N   0  0  0  0  0  0  0  0  0  0  0  0
  155.1980  136.4148  160.0102 C   0  0  0  0  0  0  0  0  0  0  0  0
  156.0844  132.2503  157.7605 H   0  0  0  0  0  0  0  0  0  0  0  0
  157.6831  132.9270  158.1502 H   0  0  0  0  0  0  0  0  0  0  0  0
  156.3852  133.9928  157.5591 H   0  0  0  0  0  0  0  0  0  0  0  0
  157.0471  136.6565  161.0855 H   0  0  0  0  0  0  0  0  0  0  0  0
  155.0972  134.5567  162.1464 H   0  0  0  0  0  0  0  0  0  0  0  0
  156.4836  135.1922  162.9911 H   0  0  0  0  0  0  0  0  0  0  0  0
  154.2929  136.1680  163.7726 H   0  0  0  0  0  0  0  0  0  0  0  0
  155.4181  137.3882  163.2470 H   0  0  0  0  0  0  0  0  0  0  0  0
  153.0596  136.3043  161.6131 H   0  0  0  0  0  0  0  0  0  0  0  0
  153.1485  137.8726  162.3553 H   0  0  0  0  0  0  0  0  0  0  0  0
  153.8320  139.4512  161.9757 H   0  0  0  0  0  0  0  0  0  0  0  0
  153.9670  141.7307  161.7389 H   0  0  0  0  0  0  0  0  0  0  0  0
  155.2199  141.4538  160.5503 H   0  0  0  0  0  0  0  0  0  0  0  0
  153.7547  141.5702  158.7334 H   0  0  0  0  0  0  0  0  0  0  0  0
  152.4182  140.8748  159.6141 H   0  0  0  0  0  0  0  0  0  0  0  0
  152.9116  143.6389  157.8537 H   0  0  0  0  0  0  0  0  0  0  0  0
  151.9277  145.8991  158.3081 H   0  0  0  0  0  0  0  0  0  0  0  0
  151.1397  146.4291  160.6334 H   0  0  0  0  0  0  0  0  0  0  0  0
  151.3706  144.6701  162.4065 H   0  0  0  0  0  0  0  0  0  0  0  0
  155.6172  136.7061  159.0457 H   0  0  0  0  0  0  0  0  0  0  0  0
  154.4720  135.6313  159.7858 H   0  0  0  0  0  0  0  0  0  0  0  0
  1  2  1  0  0  0  0
  1 23  1  0  0  0  0
  1 24  1  0  0  0  0
  1 25  1  0  0  0  0
  2  3  2  0  0  0  0
  2  4  2  0  0  0  0
  2  5  1  0  0  0  0
  5  6  1  0  0  0  0
  6 22  1  0  0  0  0
  6  7  1  0  0  0  0
  6 26  1  0  0  0  0
  7  8  1  0  0  0  0
  7 27  1  0  0  0  0
  7 28  1  0  0  0  0
  8  9  1  0  0  0  0
  8 29  1  0  0  0  0
  8 30  1  0  0  0  0
  9 10  1  0  0  0  0
  9 31  1  0  0  0  0
  9 32  1  0  0  0  0
 10 11  1  0  0  0  0
 10 22  1  0  0  0  0
 11 12  2  0  0  0  0
 11 13  1  0  0  0  0
 13 14  1  0  0  0  0
 13 33  1  0  0  0  0
 14 15  1  0  0  0  0
 14 34  1  0  0  0  0
 14 35  1  0  0  0  0
 15 16  1  0  0  0  0
 15 36  1  0  0  0  0
 15 37  1  0  0  0  0
 16 21  1  0  0  0  0
 16 17  2  0  0  0  0
 17 18  1  0  0  0  0
 17 38  1  0  0  0  0
 18 19  2  0  0  0  0
 18 39  1  0  0  0  0
 19 20  1  0  0  0  0
 19 40  1  0  0  0  0
 20 21  2  0  0  0  0
 20 41  1  0  0  0  0
 22 42  1  0  0  0  0
 22 43  1  0  0  0  0
M  CHG  1   5  -1
M  END
> <s_m_source_file>
AV-unprocessed.smi

> <i_m_source_file_index>
1434

> <i_lp_mmshare_version>
43012

> <i_f3d_flags>
0

> <s_epik_input>
W0NIM11TKD1PKSg9TylbTkhdW0NAQEhdMVtDSDJdW0NIMl1bQ0gyXU4oW0NIMl0xKUMoPU8pW05IXVtDSDJdW0NIMl1jMltjSF1bY0hdW2NIXVtjSF1uMg==

> <s_epik_cmdline>
J2VwaWtfcHl0aG9uJywgJy1waCcsICc3LjAnLCAnLXRuJywgJzgnLCAnLW1hJywgJzIwMCcsICctbWV0YWxfYmluZGluZycsICctaW1hZScsICc8aW5maWxlLm1hZT4nLCAnLW9tYWUnLCAnPG91dGZpbGUubWFlPic=

> <r_epik_Ionization_Penalty>
6.57847

> <r_epik_Ionization_Penalty_Charging>
6.53351

> <r_epik_Ionization_Penalty_Neutral>
0.0449527

> <r_epik_State_Penalty>
6.57157

> <r_epik_Charging_Adjusted_Penalty>
13.1051

> <i_epik_Tot_Q>
-1

> <i_epik_Tot_abs_Q>
1

> <r_epik_Metal_State_Penalty>
2.53928

> <b_epik_Metal_Only>
1

> <s_lp_Force_Field>
OPLS_2005

> <r_lp_Energy>
19.5099

> <b_lp_Chiralities_Consistent>
1

> <s_lp_Variant>
AV-unprocessed.smi:1434-5

> <Gold.Version>
5.8.1

> <Gold.Id.Protein>
6NUR|6NUR_protein|mol2

> <Gold.PLP.Fitness>
44.9054

> <Gold.PLP.PLP>
-40.0368

> <Gold.PLP.part.hbond>
-2.0000

> <Gold.PLP.part.metal>
0.0000

> <Gold.PLP.part.buried>
-4.9519

> <Gold.PLP.part.nonpolar>
-33.1758

> <Gold.PLP.part.repulsive>
0.0964

> <Gold.PLP.ligand.clash>
0.0000

> <Gold.PLP.ligand.torsion>
1.0850

> <Gold.PLP.Chemscore.Hbond>
2.0000

> <Gold.PLP.Chemscore.CHOScore>
0.0000

> <Gold.PLP.Chemscore.Metal>
0.0000

> <Gold.Chemscore.Hbonds>
donor molecule, donor type, donor heavy atom, donor atom, acceptor molecule, acceptor atom, score
      P1  H  6896  6907       L1     3  0.96
      P1  H  7997  8010       L1    12  1.00

> <Gold.PLP.Chemscore.Internal.Correction>
1.0386

> <Gold.Rescore>
     Score         DG    S(hbond)    S(metal)    S(lipo)     H(rot)  DE(clash)    DE(int)     intcor
     18.29     -20.66       2.00        0.00     109.59       1.68       0.01       2.36       ----

> <Gold.Chemscore.Fitness>
18.2933

> <Gold.Chemscore.DG>
-20.6622

> <Gold.Chemscore.ZeroCoef>
-5.4800

> <Gold.Chemscore.Hbond>
1.9952

> <Gold.Chemscore.Metal>
0.0000

> <Gold.Chemscore.Lipo>
109.5950

> <Gold.Chemscore.Internal_Hbond>
0.0000

> <Gold.Chemscore.DEClash>
0.0127

> <Gold.Chemscore.DEInternal>
2.3562

> <Gold.Chemscore.Rot>
1.6813

> <Gold.Chemscore.Internal.Correction>
   9.000000E+99

> <Gold.Chemscore.Hbonds>
donor molecule, donor type, donor heavy atom, donor atom, acceptor molecule, acceptor atom, score
      P1  H  6896  6907       L1     3  0.91
      P1  H  7997  8010       L1    12  0.98

> <Gold.Chemscore.Hbond.Weighted>
-6.6638

> <Gold.Chemscore.Metal.Weighted>
-0.0000

> <Gold.Chemscore.Lipo.Weighted>
-12.8226

> <Gold.Chemscore.Internal_Hbond.Weighted>
0.0000

> <Gold.Chemscore.DEClash.Weighted>
0.0127

> <Gold.Chemscore.DEInternal.Weighted>
2.3562

> <Gold.Chemscore.Rot.Weighted>
4.3042

> <Gold.Chemscore.Internal.Correction.Weighted>
   9.000000E+99

> <Gold.Protein.RotatedTorsions>
[ 6907 6896 6895 6894 ] final  104.10 input  -60.11 | X-H torsion
[ 7974 7965 7964 7962 ] final  -22.69 input  175.53 | X-H torsion
[ 8008 7997 7996 7995 ] final   -9.32 input   59.86 | X-H torsion
[ 10167 10162 10161 10158 ] final  176.60 input  -65.29 | X-H torsion
[ 10718 10713 10712 10709 ] final  127.92 input   66.30 | X-H torsion
[ 10763 10752 10751 10750 ] final -178.88 input  -60.55 | X-H torsion
[ 11005 11000 10999 10996 ] final  -91.09 input  -57.11 | X-H torsion

> <Gold.Protein.ActiveResidues>
 VAL166  LYS551  ARG553  GLY616  TRP617  ASP618  TYR619  PRO620  LYS621  CYS622 
 ASP623  PHE694  ASN695  SER759  ASP760  ASP761  ALA762  ILE779  LEU786  VAL792 
 PHE793  MET794  SER795  GLU796  ALA797  LYS798  CYS799  TRP800  GLU811  SER814 

> <Gold.Protein.RotatedAtoms>
  152.5275  133.9727  159.7769 H   0  0  0  0  0  0  0  0  0  0  0  0  # atno 6907 bound_to 6896
  150.9996  133.6061  159.2704 H   0  0  0  0  0  0  0  0  0  0  0  0  # atno 6908 bound_to 6896
  151.3175  135.0816  159.9347 H   0  0  0  0  0  0  0  0  0  0  0  0  # atno 6909 bound_to 6896
  146.1660  140.4514  142.8551 H   0  0  0  0  0  0  0  0  0  0  0  0  # atno 7974 bound_to 7965
  154.5657  140.2358  155.8267 H   0  0  0  0  0  0  0  0  0  0  0  0  # atno 8008 bound_to 7997
  156.2066  140.3038  155.9600 H   0  0  0  0  0  0  0  0  0  0  0  0  # atno 8009 bound_to 7997
  155.2805  140.0422  157.3005 H   0  0  0  0  0  0  0  0  0  0  0  0  # atno 8010 bound_to 7997
  139.5221  144.2896  152.0475 H   0  0  0  0  0  0  0  0  0  0  0  0  # atno 10167 bound_to 10162
  157.5291  131.1098  150.9037 H   0  0  0  0  0  0  0  0  0  0  0  0  # atno 10718 bound_to 10713
  154.5422  135.2807  155.1085 H   0  0  0  0  0  0  0  0  0  0  0  0  # atno 10763 bound_to 10752
  154.2564  135.6330  153.5262 H   0  0  0  0  0  0  0  0  0  0  0  0  # atno 10764 bound_to 10752
  152.9981  135.5595  154.5964 H   0  0  0  0  0  0  0  0  0  0  0  0  # atno 10765 bound_to 10752
  141.1552  133.7733  156.9829 H   0  0  0  0  0  0  0  0  0  0  0  0  # atno 11005 bound_to 11000
  144.8094  140.6358  143.6425 LP  0  0  0  0  0  0  0  0  0  0  0  0  # atno 17320 bound_to 7965
  145.4465  139.1529  143.3942 LP  0  0  0  0  0  0  0  0  0  0  0  0  # atno 17321 bound_to 7965
  140.2348  144.4331  150.6285 LP  0  0  0  0  0  0  0  0  0  0  0  0  # atno 17342 bound_to 10162
  140.6331  143.2190  151.6453 LP  0  0  0  0  0  0  0  0  0  0  0  0  # atno 17343 bound_to 10162
  156.9624  130.5460  149.5286 LP  0  0  0  0  0  0  0  0  0  0  0  0  # atno 17370 bound_to 10713
  156.0409  130.5491  150.8767 LP  0  0  0  0  0  0  0  0  0  0  0  0  # atno 17371 bound_to 10713
  140.1054  134.9510  157.1985 LP  0  0  0  0  0  0  0  0  0  0  0  0  # atno 17394 bound_to 11000
  140.3264  134.2859  155.7236 LP  0  0  0  0  0  0  0  0  0  0  0  0  # atno 17395 bound_to 11000

$$$$
