AV-unprocessed.smi:1746|AV-procd|sdf|7034|dock7
  -GOLD-   22720 8253D 1   1.00000     0.00000
 Structure written by MMmdl.
 35 36  0  0  0  0  0  0  0  0  1 V2000
  147.1100  140.1815  153.1688 C   0  0  0  0  0  0  0  0  0  0  0  0
  147.8699  141.3498  153.8086 C   0  0  0  0  0  0  0  0  0  0  0  0
  149.0414  140.8964  154.5323 N   0  0  0  0  0  0  0  0  0  0  0  0
  149.7315  141.5510  155.5331 C   0  0  0  0  0  0  0  0  0  0  0  0
  150.7492  140.7120  155.8896 C   0  0  0  0  0  0  0  0  0  0  0  0
  151.7585  140.8885  156.8698 N   0  0  0  0  0  0  0  0  0  0  0  0
  151.6002  141.3140  158.1338 C   0  0  0  0  0  0  0  0  0  0  0  0
  150.5242  141.6189  158.6487 O   0  0  0  0  0  0  0  0  0  0  0  0
  152.7725  141.3696  158.7807 N   0  0  0  0  0  0  0  0  0  0  0  0
  152.9434  141.8030  160.1628 C   0  0  0  0  0  0  0  0  0  0  0  0
  152.6599  143.3058  160.3251 C   0  0  1  0  0  0  0  0  0  0  0  0
  152.8696  144.1125  159.0463 C   0  0  0  0  0  0  0  0  0  0  0  0
  152.0101  145.3267  159.3137 C   0  0  0  0  0  0  0  0  0  0  0  0
  150.8144  144.7154  160.0405 C   0  0  0  0  0  0  0  0  0  0  0  0
  151.2941  143.5272  160.6667 O   0  0  0  0  0  0  0  0  0  0  0  0
  150.6151  139.5671  155.0619 C   0  0  0  0  0  0  0  0  0  0  0  0
  149.5802  139.6858  154.2439 N   0  0  0  0  0  0  0  0  0  0  0  0
  146.2243  140.5369  152.6422 H   0  0  0  0  0  0  0  0  0  0  0  0
  146.7838  139.4645  153.9229 H   0  0  0  0  0  0  0  0  0  0  0  0
  147.7339  139.6508  152.4489 H   0  0  0  0  0  0  0  0  0  0  0  0
  148.1817  142.0652  153.0464 H   0  0  0  0  0  0  0  0  0  0  0  0
  147.2192  141.8866  154.4998 H   0  0  0  0  0  0  0  0  0  0  0  0
  149.4375  142.5278  155.8877 H   0  0  0  0  0  0  0  0  0  0  0  0
  152.6995  140.6697  156.5771 H   0  0  0  0  0  0  0  0  0  0  0  0
  153.6083  141.1050  158.2804 H   0  0  0  0  0  0  0  0  0  0  0  0
  152.2880  141.2224  160.8140 H   0  0  0  0  0  0  0  0  0  0  0  0
  153.9645  141.5781  160.4718 H   0  0  0  0  0  0  0  0  0  0  0  0
  153.2801  143.7326  161.1153 H   0  0  0  0  0  0  0  0  0  0  0  0
  153.9164  144.3602  158.8670 H   0  0  0  0  0  0  0  0  0  0  0  0
  152.4907  143.5696  158.1794 H   0  0  0  0  0  0  0  0  0  0  0  0
  152.5373  146.0181  159.9728 H   0  0  0  0  0  0  0  0  0  0  0  0
  151.7301  145.8647  158.4077 H   0  0  0  0  0  0  0  0  0  0  0  0
  150.3816  145.4011  160.7694 H   0  0  0  0  0  0  0  0  0  0  0  0
  150.0343  144.4401  159.3301 H   0  0  0  0  0  0  0  0  0  0  0  0
  151.2199  138.6729  155.0277 H   0  0  0  0  0  0  0  0  0  0  0  0
  1  2  1  0  0  0  0
  1 18  1  0  0  0  0
  1 19  1  0  0  0  0
  1 20  1  0  0  0  0
  2  3  1  0  0  0  0
  2 21  1  0  0  0  0
  2 22  1  0  0  0  0
  3 17  1  0  0  0  0
  3  4  1  0  0  0  0
  4  5  2  0  0  0  0
  4 23  1  0  0  0  0
  5  6  1  0  0  0  0
  5 16  1  0  0  0  0
  6  7  1  0  0  0  0
  6 24  1  0  0  0  0
  7  8  2  0  0  0  0
  7  9  1  0  0  0  0
  9 10  1  0  0  0  0
  9 25  1  0  0  0  0
 10 11  1  0  0  0  0
 10 26  1  0  0  0  0
 10 27  1  0  0  0  0
 11 15  1  0  0  0  0
 11 12  1  0  0  0  0
 11 28  1  0  0  0  0
 12 13  1  0  0  0  0
 12 29  1  0  0  0  0
 12 30  1  0  0  0  0
 13 14  1  0  0  0  0
 13 31  1  0  0  0  0
 13 32  1  0  0  0  0
 14 15  1  0  0  0  0
 14 33  1  0  0  0  0
 14 34  1  0  0  0  0
 16 17  2  0  0  0  0
 16 35  1  0  0  0  0
M  END
> <s_m_source_file>
AV-unprocessed.smi

> <i_m_source_file_index>
1746

> <i_lp_mmshare_version>
43012

> <i_f3d_flags>
0

> <s_epik_input>
W0NIM11bQ0gyXW4xW2NIXWMoW2NIXW4xKVtOSF1DKD1PKVtOSF1bQ0gyXVtDQEBIXTJbQ0gyXVtDSDJdW0NIMl1PMg==

> <s_epik_cmdline>
J2VwaWtfcHl0aG9uJywgJy1waCcsICc3LjAnLCAnLXRuJywgJzgnLCAnLW1hJywgJzIwMCcsICctbWV0YWxfYmluZGluZycsICctaW1hZScsICc8aW5maWxlLm1hZT4nLCAnLW9tYWUnLCAnPG91dGZpbGUubWFlPic=

> <r_lp_tautomer_probability>
1

> <r_epik_Ionization_Penalty>
0.000176839

> <r_epik_Ionization_Penalty_Charging>
0

> <r_epik_Ionization_Penalty_Neutral>
0.000176839

> <r_epik_State_Penalty>
-0

> <r_epik_Charging_Adjusted_Penalty>
0

> <i_epik_Tot_Q>
0

> <i_epik_Tot_abs_Q>
0

> <r_epik_Metal_State_Penalty>
-0

> <b_epik_Metal_Only>
0

> <s_lp_Force_Field>
OPLS_2005

> <r_lp_Energy>
20.4125

> <b_lp_Chiralities_Consistent>
1

> <s_lp_Variant>
AV-unprocessed.smi:1746-2

> <Gold.Version>
5.8.1

> <Gold.Id.Protein>
6NUR|6NUR_protein|mol2

> <Gold.PLP.Fitness>
40.9239

> <Gold.PLP.PLP>
-40.2507

> <Gold.PLP.part.hbond>
-1.0000

> <Gold.PLP.part.metal>
0.0000

> <Gold.PLP.part.buried>
-4.3384

> <Gold.PLP.part.nonpolar>
-35.8485

> <Gold.PLP.part.repulsive>
0.8572

> <Gold.PLP.ligand.clash>
0.0000

> <Gold.PLP.ligand.torsion>
1.1690

> <Gold.PLP.Chemscore.Hbond>
0.0000

> <Gold.PLP.Chemscore.CHOScore>
1.0000

> <Gold.PLP.Chemscore.Metal>
0.0000

> <Gold.Chemscore.Hbonds>
donor molecule, donor type, donor heavy atom, donor atom, acceptor molecule, acceptor atom, score
      L1  C     4    23       P1  8028  1.00

> <Gold.PLP.Chemscore.Internal.Correction>
0.0112

> <Gold.Rescore>
     Score         DG    S(hbond)    S(metal)    S(lipo)     H(rot)  DE(clash)    DE(int)     intcor
     11.92     -13.11       0.00        0.00      96.00       1.41       0.06       1.13       ----

> <Gold.Chemscore.Fitness>
11.9210

> <Gold.Chemscore.DG>
-13.1112

> <Gold.Chemscore.ZeroCoef>
-5.4800

> <Gold.Chemscore.Hbond>
0.0000

> <Gold.Chemscore.Metal>
0.0000

> <Gold.Chemscore.Lipo>
95.9966

> <Gold.Chemscore.Internal_Hbond>
0.0000

> <Gold.Chemscore.DEClash>
0.0575

> <Gold.Chemscore.DEInternal>
1.1326

> <Gold.Chemscore.Rot>
1.4064

> <Gold.Chemscore.Internal.Correction>
   9.000000E+99

> <Gold.Chemscore.Hbond.Weighted>
-0.0000

> <Gold.Chemscore.Metal.Weighted>
-0.0000

> <Gold.Chemscore.Lipo.Weighted>
-11.2316

> <Gold.Chemscore.Internal_Hbond.Weighted>
0.0000

> <Gold.Chemscore.DEClash.Weighted>
0.0575

> <Gold.Chemscore.DEInternal.Weighted>
1.1326

> <Gold.Chemscore.Rot.Weighted>
3.6004

> <Gold.Chemscore.Internal.Correction.Weighted>
   9.000000E+99

> <Gold.Protein.RotatedTorsions>
[ 6907 6896 6895 6894 ] final  163.98 input  -60.11 | X-H torsion
[ 7974 7965 7964 7962 ] final  114.08 input  175.53 | X-H torsion
[ 8008 7997 7996 7995 ] final -153.38 input   59.86 | X-H torsion
[ 10167 10162 10161 10158 ] final  160.47 input  -65.29 | X-H torsion
[ 10718 10713 10712 10709 ] final  163.22 input   66.30 | X-H torsion
[ 10763 10752 10751 10750 ] final  101.47 input  -60.55 | X-H torsion
[ 11005 11000 10999 10996 ] final -156.99 input  -57.11 | X-H torsion

> <Gold.Protein.ActiveResidues>
 VAL166  LYS551  ARG553  GLY616  TRP617  ASP618  TYR619  PRO620  LYS621  CYS622 
 ASP623  PHE694  ASN695  SER759  ASP760  ASP761  ALA762  ILE779  LEU786  VAL792 
 PHE793  MET794  SER795  GLU796  ALA797  LYS798  CYS799  TRP800  GLU811  SER814 

> <Gold.Protein.RotatedAtoms>
  151.9169  133.3575  159.3882 H   0  0  0  0  0  0  0  0  0  0  0  0  # atno 6907 bound_to 6896
  150.7045  134.4675  159.5419 H   0  0  0  0  0  0  0  0  0  0  0  0  # atno 6908 bound_to 6896
  152.2291  134.8339  160.0527 H   0  0  0  0  0  0  0  0  0  0  0  0  # atno 6909 bound_to 6896
  145.2089  139.2916  143.4279 H   0  0  0  0  0  0  0  0  0  0  0  0  # atno 7974 bound_to 7965
  155.6699  140.0732  157.2524 H   0  0  0  0  0  0  0  0  0  0  0  0  # atno 8008 bound_to 7997
  154.4125  140.1701  156.1919 H   0  0  0  0  0  0  0  0  0  0  0  0  # atno 8009 bound_to 7997
  155.9626  140.3368  155.6507 H   0  0  0  0  0  0  0  0  0  0  0  0  # atno 8010 bound_to 7997
  139.4840  144.4631  151.8678 H   0  0  0  0  0  0  0  0  0  0  0  0  # atno 10167 bound_to 10162
  157.1115  131.0469  151.2455 H   0  0  0  0  0  0  0  0  0  0  0  0  # atno 10718 bound_to 10713
  153.3271  135.4043  155.1465 H   0  0  0  0  0  0  0  0  0  0  0  0  # atno 10763 bound_to 10752
  154.8614  135.3601  154.5519 H   0  0  0  0  0  0  0  0  0  0  0  0  # atno 10764 bound_to 10752
  153.5956  135.7072  153.5464 H   0  0  0  0  0  0  0  0  0  0  0  0  # atno 10765 bound_to 10752
  140.6695  134.4262  157.5232 H   0  0  0  0  0  0  0  0  0  0  0  0  # atno 11005 bound_to 11000
  146.3402  140.2358  142.8594 LP  0  0  0  0  0  0  0  0  0  0  0  0  # atno 17320 bound_to 7965
  144.9875  140.8517  143.5359 LP  0  0  0  0  0  0  0  0  0  0  0  0  # atno 17321 bound_to 7965
  140.4095  144.2388  150.5889 LP  0  0  0  0  0  0  0  0  0  0  0  0  # atno 17342 bound_to 10162
  140.4980  143.2326  151.8721 LP  0  0  0  0  0  0  0  0  0  0  0  0  # atno 17343 bound_to 10162
  157.4555  130.7623  149.7189 LP  0  0  0  0  0  0  0  0  0  0  0  0  # atno 17370 bound_to 10713
  155.9849  130.3987  150.3287 LP  0  0  0  0  0  0  0  0  0  0  0  0  # atno 17371 bound_to 10713
  139.8986  134.8610  156.1994 LP  0  0  0  0  0  0  0  0  0  0  0  0  # atno 17394 bound_to 11000
  141.0403  133.6941  156.1586 LP  0  0  0  0  0  0  0  0  0  0  0  0  # atno 17395 bound_to 11000

$$$$
