AV-unprocessed.smi:1978|AV-procd|sdf|8013|dock7
  -GOLD-   2272010203D 1   1.00000     0.00000
 Structure written by MMmdl.
 44 45  0  0  0  0  0  0  0  0  3 V2000
  147.0471  136.8724  162.7802 C   0  0  0  0  0  0  0  0  0  0  0  0
  147.4901  136.3458  161.4584 C   0  0  0  0  0  0  0  0  0  0  0  0
  147.0705  135.3004  160.6852 C   0  0  0  0  0  0  0  0  0  0  0  0
  147.9236  135.3763  159.5520 C   0  0  0  0  0  0  0  0  0  0  0  0
  147.8004  134.4423  158.4897 N   0  0  0  0  0  0  0  0  0  0  0  0
  148.7076  134.1065  157.5548 C   0  0  0  0  0  0  0  0  0  0  0  0
  149.8222  134.6425  157.5442 O   0  0  0  0  0  0  0  0  0  0  0  0
  148.2386  133.1573  156.6982 N   0  5  0  0  0  0  0  0  0  0  0  0
  147.3442  133.4185  155.5692 C   0  0  0  0  0  0  0  0  0  0  0  0
  148.0826  134.2062  154.4342 C   0  0  1  0  0  0  0  0  0  0  0  0
  149.5277  133.7056  154.1905 C   0  0  0  0  0  0  0  0  0  0  0  0
  147.3340  134.3154  153.1274 N   0  3  1  0  0  0  0  0  0  0  0  0
  147.2171  133.0428  152.3464 C   0  0  0  0  0  0  0  0  0  0  0  0
  146.7861  133.3105  150.8982 C   0  0  0  0  0  0  0  0  0  0  0  0
  145.4549  134.0633  150.8671 C   0  0  0  0  0  0  0  0  0  0  0  0
  145.5768  135.3555  151.6804 C   0  0  0  0  0  0  0  0  0  0  0  0
  146.0434  135.0917  153.1292 C   0  0  2  0  0  0  0  0  0  0  0  0
  146.1271  136.4425  153.8703 C   0  0  0  0  0  0  0  0  0  0  0  0
  148.7905  136.3751  159.6312 N   0  0  0  0  0  0  0  0  0  0  0  0
  148.5170  137.0012  160.8528 O   0  0  0  0  0  0  0  0  0  0  0  0
  146.1476  136.3603  163.1224 H   0  0  0  0  0  0  0  0  0  0  0  0
  146.8259  137.9378  162.7167 H   0  0  0  0  0  0  0  0  0  0  0  0
  147.8240  136.7314  163.5315 H   0  0  0  0  0  0  0  0  0  0  0  0
  146.2781  134.5976  160.8952 H   0  0  0  0  0  0  0  0  0  0  0  0
  146.9111  133.9695  158.4265 H   0  0  0  0  0  0  0  0  0  0  0  0
  146.9486  132.4909  155.1551 H   0  0  0  0  0  0  0  0  0  0  0  0
  146.4664  133.9841  155.8832 H   0  0  0  0  0  0  0  0  0  0  0  0
  148.2264  135.2255  154.7866 H   0  0  0  0  0  0  0  0  0  0  0  0
  150.1637  133.8645  155.0634 H   0  0  0  0  0  0  0  0  0  0  0  0
  149.9905  134.2520  153.3681 H   0  0  0  0  0  0  0  0  0  0  0  0
  149.5808  132.6436  153.9472 H   0  0  0  0  0  0  0  0  0  0  0  0
  148.1659  132.5097  152.3234 H   0  0  0  0  0  0  0  0  0  0  0  0
  146.4943  132.3755  152.8181 H   0  0  0  0  0  0  0  0  0  0  0  0
  147.5541  133.8905  150.3843 H   0  0  0  0  0  0  0  0  0  0  0  0
  146.6929  132.3686  150.3564 H   0  0  0  0  0  0  0  0  0  0  0  0
  145.1733  134.2900  149.8383 H   0  0  0  0  0  0  0  0  0  0  0  0
  144.6626  133.4372  151.2799 H   0  0  0  0  0  0  0  0  0  0  0  0
  146.2793  136.0280  151.1857 H   0  0  0  0  0  0  0  0  0  0  0  0
  144.6137  135.8675  151.6847 H   0  0  0  0  0  0  0  0  0  0  0  0
  145.2779  134.4878  153.6188 H   0  0  0  0  0  0  0  0  0  0  0  0
  145.2167  137.0241  153.7234 H   0  0  0  0  0  0  0  0  0  0  0  0
  146.9625  137.0445  153.5116 H   0  0  0  0  0  0  0  0  0  0  0  0
  146.2337  136.3158  154.9470 H   0  0  0  0  0  0  0  0  0  0  0  0
  147.9500  134.8891  152.5701 H   0  0  0  0  0  0  0  0  0  0  0  0
  1  2  1  0  0  0  0
  1 21  1  0  0  0  0
  1 22  1  0  0  0  0
  1 23  1  0  0  0  0
  2 20  1  0  0  0  0
  2  3  2  0  0  0  0
  3  4  1  0  0  0  0
  3 24  1  0  0  0  0
  4  5  1  0  0  0  0
  4 19  2  0  0  0  0
  5  6  1  0  0  0  0
  5 25  1  0  0  0  0
  6  7  2  0  0  0  0
  6  8  1  0  0  0  0
  8  9  1  0  0  0  0
  9 10  1  0  0  0  0
  9 26  1  0  0  0  0
  9 27  1  0  0  0  0
 10 11  1  0  0  0  0
 10 12  1  0  0  0  0
 10 28  1  0  0  0  0
 11 29  1  0  0  0  0
 11 30  1  0  0  0  0
 11 31  1  0  0  0  0
 12 17  1  0  0  0  0
 12 13  1  0  0  0  0
 12 44  1  0  0  0  0
 13 14  1  0  0  0  0
 13 32  1  0  0  0  0
 13 33  1  0  0  0  0
 14 15  1  0  0  0  0
 14 34  1  0  0  0  0
 14 35  1  0  0  0  0
 15 16  1  0  0  0  0
 15 36  1  0  0  0  0
 15 37  1  0  0  0  0
 16 17  1  0  0  0  0
 16 38  1  0  0  0  0
 16 39  1  0  0  0  0
 17 18  1  0  0  0  0
 17 40  1  0  0  0  0
 18 41  1  0  0  0  0
 18 42  1  0  0  0  0
 18 43  1  0  0  0  0
 19 20  1  0  0  0  0
M  CHG  1   8  -1
M  CHG  1  12   1
M  END
> <s_m_source_file>
AV-unprocessed.smi

> <i_m_source_file_index>
1978

> <i_lp_mmshare_version>
43012

> <i_f3d_flags>
0

> <s_epik_input>
W0NIM11jMVtjSF1jKG5vMSlbTkhdQyg9TylbTkhdW0NIMl1bQ0BIXShbQ0gzXSlOMltDSDJdW0NIMl1bQ0gyXVtDSDJdW0NASF0yW0NIM10=

> <s_epik_cmdline>
J2VwaWtfcHl0aG9uJywgJy1waCcsICc3LjAnLCAnLXRuJywgJzgnLCAnLW1hJywgJzIwMCcsICctbWV0YWxfYmluZGluZycsICctaW1hZScsICc8aW5maWxlLm1hZT4nLCAnLW9tYWUnLCAnPG91dGZpbGUubWFlPic=

> <r_epik_Ionization_Penalty>
6.7666

> <r_epik_Ionization_Penalty_Charging>
6.7666

> <r_epik_Ionization_Penalty_Neutral>
5.77131e-06

> <r_epik_State_Penalty>
6.79217

> <r_epik_Charging_Adjusted_Penalty>
13.5588

> <i_epik_Tot_Q>
0

> <i_epik_Tot_abs_Q>
2

> <r_epik_Metal_State_Penalty>
2.72569

> <b_epik_Metal_Only>
1

> <s_lp_Force_Field>
OPLS_2005

> <r_lp_Energy>
22.3243

> <b_lp_Chiralities_Consistent>
1

> <s_lp_Variant>
AV-unprocessed.smi:1978-22

> <Gold.Version>
5.8.1

> <Gold.Id.Protein>
6NUR|6NUR_protein|mol2

> <Gold.PLP.Fitness>
39.7350

> <Gold.PLP.PLP>
-29.8389

> <Gold.PLP.part.hbond>
-3.4413

> <Gold.PLP.part.metal>
0.0000

> <Gold.PLP.part.buried>
-5.1485

> <Gold.PLP.part.nonpolar>
-22.4215

> <Gold.PLP.part.repulsive>
0.0594

> <Gold.PLP.ligand.clash>
0.0000

> <Gold.PLP.ligand.torsion>
1.0626

> <Gold.PLP.Chemscore.Hbond>
3.9200

> <Gold.PLP.Chemscore.CHOScore>
0.0000

> <Gold.PLP.Chemscore.Metal>
0.0000

> <Gold.Chemscore.Hbonds>
donor molecule, donor type, donor heavy atom, donor atom, acceptor molecule, acceptor atom, score
      L1  H    12    44       P1  7948  2.00
      P1  H  6896  6907       L1     7  0.82
      P1  H  6931  6943       L1    20  0.96
      P1  H  6934  6947       L1    20  0.01

> <Gold.PLP.Chemscore.Internal.Correction>
0.2614

> <Gold.Rescore>
     Score         DG    S(hbond)    S(metal)    S(lipo)     H(rot)  DE(clash)    DE(int)     intcor
     16.00     -18.27       2.86        0.00      60.82       1.52       0.00       2.27       ----

> <Gold.Chemscore.Fitness>
15.9980

> <Gold.Chemscore.DG>
-18.2714

> <Gold.Chemscore.ZeroCoef>
-5.4800

> <Gold.Chemscore.Hbond>
2.8635

> <Gold.Chemscore.Metal>
0.0000

> <Gold.Chemscore.Lipo>
60.8208

> <Gold.Chemscore.Internal_Hbond>
0.0000

> <Gold.Chemscore.DEClash>
0.0021

> <Gold.Chemscore.DEInternal>
2.2713

> <Gold.Chemscore.Rot>
1.5190

> <Gold.Chemscore.Internal.Correction>
   9.000000E+99

> <Gold.Chemscore.Hbonds>
donor molecule, donor type, donor heavy atom, donor atom, acceptor molecule, acceptor atom, score
      L1  H    12    44       P1  7948  0.85
      P1  H  6896  6907       L1     7  0.34
      P1  H  6931  6943       L1    20  0.65

> <Gold.Chemscore.Hbond.Weighted>
-9.5640

> <Gold.Chemscore.Metal.Weighted>
-0.0000

> <Gold.Chemscore.Lipo.Weighted>
-7.1160

> <Gold.Chemscore.Internal_Hbond.Weighted>
0.0000

> <Gold.Chemscore.DEClash.Weighted>
0.0021

> <Gold.Chemscore.DEInternal.Weighted>
2.2713

> <Gold.Chemscore.Rot.Weighted>
3.8886

> <Gold.Chemscore.Internal.Correction.Weighted>
   9.000000E+99

> <Gold.Protein.RotatedTorsions>
[ 6907 6896 6895 6894 ] final -106.52 input  -60.11 | X-H torsion
[ 7974 7965 7964 7962 ] final -157.04 input  175.53 | X-H torsion
[ 8008 7997 7996 7995 ] final -136.41 input   59.86 | X-H torsion
[ 10167 10162 10161 10158 ] final    3.47 input  -65.29 | X-H torsion
[ 10718 10713 10712 10709 ] final -169.34 input   66.30 | X-H torsion
[ 10763 10752 10751 10750 ] final  118.14 input  -60.55 | X-H torsion
[ 11005 11000 10999 10996 ] final   40.10 input  -57.11 | X-H torsion

> <Gold.Protein.ActiveResidues>
 VAL166  LYS551  ARG553  GLY616  TRP617  ASP618  TYR619  PRO620  LYS621  CYS622 
 ASP623  PHE694  ASN695  SER759  ASP760  ASP761  ALA762  ILE779  LEU786  VAL792 
 PHE793  MET794  SER795  GLU796  ALA797  LYS798  CYS799  TRP800  GLU811  SER814 

> <Gold.Protein.RotatedAtoms>
  150.7394  133.9963  159.3623 H   0  0  0  0  0  0  0  0  0  0  0  0  # atno 6907 bound_to 6896
  151.7914  135.0732  160.0397 H   0  0  0  0  0  0  0  0  0  0  0  0  # atno 6908 bound_to 6896
  152.3205  133.5812  159.5777 H   0  0  0  0  0  0  0  0  0  0  0  0  # atno 6909 bound_to 6896
  144.7566  140.4024  143.6008 H   0  0  0  0  0  0  0  0  0  0  0  0  # atno 7974 bound_to 7965
  155.3948  140.0502  157.3039 H   0  0  0  0  0  0  0  0  0  0  0  0  # atno 8008 bound_to 7997
  154.5019  140.2160  155.9291 H   0  0  0  0  0  0  0  0  0  0  0  0  # atno 8009 bound_to 7997
  156.1478  140.3142  155.8603 H   0  0  0  0  0  0  0  0  0  0  0  0  # atno 8010 bound_to 7997
  140.6584  143.7367  150.7695 H   0  0  0  0  0  0  0  0  0  0  0  0  # atno 10167 bound_to 10162
  156.7101  130.9230  151.3088 H   0  0  0  0  0  0  0  0  0  0  0  0  # atno 10718 bound_to 10713
  153.5631  135.3517  155.2807 H   0  0  0  0  0  0  0  0  0  0  0  0  # atno 10763 bound_to 10752
  154.8692  135.4141  154.2809 H   0  0  0  0  0  0  0  0  0  0  0  0  # atno 10764 bound_to 10752
  153.3559  135.7057  153.6820 H   0  0  0  0  0  0  0  0  0  0  0  0  # atno 10765 bound_to 10752
  140.1964  134.3924  155.8119 H   0  0  0  0  0  0  0  0  0  0  0  0  # atno 11005 bound_to 11000
  145.6760  139.1608  143.2728 LP  0  0  0  0  0  0  0  0  0  0  0  0  # atno 17320 bound_to 7965
  146.1582  140.6827  142.9290 LP  0  0  0  0  0  0  0  0  0  0  0  0  # atno 17321 bound_to 7965
  140.1031  143.4769  152.2413 LP  0  0  0  0  0  0  0  0  0  0  0  0  # atno 17342 bound_to 10162
  139.5812  144.7511  151.3635 LP  0  0  0  0  0  0  0  0  0  0  0  0  # atno 17343 bound_to 10162
  157.6939  130.9262  150.0590 LP  0  0  0  0  0  0  0  0  0  0  0  0  # atno 17370 bound_to 10713
  156.1667  130.3645  149.9222 LP  0  0  0  0  0  0  0  0  0  0  0  0  # atno 17371 bound_to 10713
  141.2227  133.7072  156.8183 LP  0  0  0  0  0  0  0  0  0  0  0  0  # atno 17394 bound_to 11000
  140.2103  134.8832  157.3267 LP  0  0  0  0  0  0  0  0  0  0  0  0  # atno 17395 bound_to 11000

$$$$
