AV-unprocessed.smi:1487|AV-procd|sdf|6017|dock3
  -GOLD-   22720 6123D 1   1.00000     0.00000
 Structure written by MMmdl.
 49 51  0  0  0  0  0  0  0  0  3 V2000
  153.2494  142.7382  160.8370 C   0  0  0  0  0  0  0  0  0  0  0  0
  152.3902  142.3685  159.6397 C   0  0  0  0  0  0  0  0  0  0  0  0
  152.6006  141.1160  159.0198 C   0  0  0  0  0  0  0  0  0  0  0  0
  151.7978  140.8056  157.9284 C   0  0  0  0  0  0  0  0  0  0  0  0
  151.7539  139.6695  157.1172 N   0  3  0  0  0  0  0  0  0  0  0  0
  150.7874  139.8238  156.1701 C   0  0  0  0  0  0  0  0  0  0  0  0
  150.2213  141.0474  156.3578 N   0  0  0  0  0  0  0  0  0  0  0  0
  149.1303  141.7070  155.6283 C   0  0  0  0  0  0  0  0  0  0  0  0
  148.5807  140.8694  154.4550 C   0  0  2  0  0  0  0  0  0  0  0  0
  149.4207  141.1077  153.3438 O   0  0  0  0  0  0  0  0  0  0  0  0
  147.1251  141.2254  154.0772 C   0  0  0  0  0  0  0  0  0  0  0  0
  146.2714  140.0264  153.8748 N   0  3  2  0  0  0  0  0  0  0  0  0
  145.8384  139.4184  155.1588 C   0  0  0  0  0  0  0  0  0  0  0  0
  144.8095  138.3029  154.9191 C   0  0  0  0  0  0  0  0  0  0  0  0
  145.3730  137.2270  153.9807 C   0  0  0  0  0  0  0  0  0  0  0  0
  145.9094  137.8509  152.6812 C   0  0  1  0  0  0  0  0  0  0  0  0
  144.8415  138.3041  151.8727 O   0  0  0  0  0  0  0  0  0  0  0  0
  146.8780  139.0159  152.9646 C   0  0  0  0  0  0  0  0  0  0  0  0
  150.8135  141.6917  157.4493 C   0  0  0  0  0  0  0  0  0  0  0  0
  150.5910  142.9282  158.0496 C   0  0  0  0  0  0  0  0  0  0  0  0
  151.3990  143.2636  159.1596 C   0  0  0  0  0  0  0  0  0  0  0  0
  151.1820  144.6082  159.8330 C   0  0  0  0  0  0  0  0  0  0  0  0
  153.9160  141.9223  161.1178 H   0  0  0  0  0  0  0  0  0  0  0  0
  152.6263  142.9686  161.7015 H   0  0  0  0  0  0  0  0  0  0  0  0
  153.8649  143.6093  160.6112 H   0  0  0  0  0  0  0  0  0  0  0  0
  153.3516  140.4285  159.3818 H   0  0  0  0  0  0  0  0  0  0  0  0
  150.5198  139.1050  155.4087 H   0  0  0  0  0  0  0  0  0  0  0  0
  148.3377  141.9125  156.3494 H   0  0  0  0  0  0  0  0  0  0  0  0
  149.4913  142.6767  155.2818 H   0  0  0  0  0  0  0  0  0  0  0  0
  148.6623  139.8151  154.7132 H   0  0  0  0  0  0  0  0  0  0  0  0
  149.1921  140.5102  152.6484 H   0  0  0  0  0  0  0  0  0  0  0  0
  146.6645  141.8541  154.8399 H   0  0  0  0  0  0  0  0  0  0  0  0
  147.1468  141.8243  153.1653 H   0  0  0  0  0  0  0  0  0  0  0  0
  146.7065  139.0269  155.6915 H   0  0  0  0  0  0  0  0  0  0  0  0
  145.3900  140.1803  155.7978 H   0  0  0  0  0  0  0  0  0  0  0  0
  144.5202  137.8521  155.8688 H   0  0  0  0  0  0  0  0  0  0  0  0
  143.9006  138.7278  154.4910 H   0  0  0  0  0  0  0  0  0  0  0  0
  146.1843  136.7029  154.4875 H   0  0  0  0  0  0  0  0  0  0  0  0
  144.6129  136.4758  153.7624 H   0  0  0  0  0  0  0  0  0  0  0  0
  146.4316  137.0818  152.1108 H   0  0  0  0  0  0  0  0  0  0  0  0
  144.6895  139.2195  152.0539 H   0  0  0  0  0  0  0  0  0  0  0  0
  147.1796  139.4717  152.0222 H   0  0  0  0  0  0  0  0  0  0  0  0
  147.7884  138.6287  153.4250 H   0  0  0  0  0  0  0  0  0  0  0  0
  149.8317  143.6062  157.6888 H   0  0  0  0  0  0  0  0  0  0  0  0
  150.4162  145.1920  159.3211 H   0  0  0  0  0  0  0  0  0  0  0  0
  152.1025  145.1924  159.8302 H   0  0  0  0  0  0  0  0  0  0  0  0
  150.8611  144.4707  160.8658 H   0  0  0  0  0  0  0  0  0  0  0  0
  145.4260  140.3514  153.4281 H   0  0  0  0  0  0  0  0  0  0  0  0
  152.3339  138.8446  157.2068 H   0  0  0  0  0  0  0  0  0  0  0  0
  1  2  1  0  0  0  0
  1 23  1  0  0  0  0
  1 24  1  0  0  0  0
  1 25  1  0  0  0  0
  2 21  1  0  0  0  0
  2  3  2  0  0  0  0
  3  4  1  0  0  0  0
  3 26  1  0  0  0  0
  4 19  2  0  0  0  0
  4  5  1  0  0  0  0
  5  6  2  0  0  0  0
  5 49  1  0  0  0  0
  6  7  1  0  0  0  0
  6 27  1  0  0  0  0
  7  8  1  0  0  0  0
  7 19  1  0  0  0  0
  8  9  1  0  0  0  0
  8 28  1  0  0  0  0
  8 29  1  0  0  0  0
  9 10  1  0  0  0  0
  9 11  1  0  0  0  0
  9 30  1  0  0  0  0
 10 31  1  0  0  0  0
 11 12  1  0  0  0  0
 11 32  1  0  0  0  0
 11 33  1  0  0  0  0
 12 18  1  0  0  0  0
 12 13  1  0  0  0  0
 12 48  1  0  0  0  0
 13 14  1  0  0  0  0
 13 34  1  0  0  0  0
 13 35  1  0  0  0  0
 14 15  1  0  0  0  0
 14 36  1  0  0  0  0
 14 37  1  0  0  0  0
 15 16  1  0  0  0  0
 15 38  1  0  0  0  0
 15 39  1  0  0  0  0
 16 17  1  0  0  0  0
 16 18  1  0  0  0  0
 16 40  1  0  0  0  0
 17 41  1  0  0  0  0
 18 42  1  0  0  0  0
 18 43  1  0  0  0  0
 19 20  1  0  0  0  0
 20 21  2  0  0  0  0
 20 44  1  0  0  0  0
 21 22  1  0  0  0  0
 22 45  1  0  0  0  0
 22 46  1  0  0  0  0
 22 47  1  0  0  0  0
M  CHG  1   5   1
M  CHG  1  12   1
M  END
> <s_m_source_file>
AV-unprocessed.smi

> <i_m_source_file_index>
1487

> <i_lp_mmshare_version>
43012

> <i_f3d_flags>
0

> <s_epik_input>
W0NIM11jKFtjSF0xKWMoW0NIM10pW2NIXWMoYzEyKW4oW2NIXW4yKVtDSDJdW0NASF0oW09IXSlbQ0gyXU4zW0NIMl1bQ0gyXVtDSDJdW0NAQEhdKFtPSF0pW0NIMl0z

> <s_epik_cmdline>
J2VwaWtfcHl0aG9uJywgJy1waCcsICc3LjAnLCAnLXRuJywgJzgnLCAnLW1hJywgJzIwMCcsICctbWV0YWxfYmluZGluZycsICctaW1hZScsICc8aW5maWxlLm1hZT4nLCAnLW9tYWUnLCAnPG91dGZpbGUubWFlPic=

> <r_epik_Ionization_Penalty>
1.1857

> <r_epik_Ionization_Penalty_Charging>
1.1857

> <r_epik_Ionization_Penalty_Neutral>
1.75578e-06

> <r_epik_State_Penalty>
1.26953

> <r_epik_Charging_Adjusted_Penalty>
2.45524

> <i_epik_Tot_Q>
2

> <i_epik_Tot_abs_Q>
2

> <r_epik_Metal_State_Penalty>
5.28243

> <b_epik_Metal_Only>
0

> <s_lp_Force_Field>
OPLS_2005

> <r_lp_Energy>
35.9042

> <b_lp_Chiralities_Consistent>
1

> <s_lp_Variant>
AV-unprocessed.smi:1487-11

> <Gold.Version>
5.8.1

> <Gold.Id.Protein>
6NUR|6NUR_protein|mol2

> <Gold.PLP.Fitness>
54.7445

> <Gold.PLP.PLP>
-42.1160

> <Gold.PLP.part.hbond>
-4.5424

> <Gold.PLP.part.metal>
0.0000

> <Gold.PLP.part.buried>
-5.1714

> <Gold.PLP.part.nonpolar>
-33.5767

> <Gold.PLP.part.repulsive>
0.0989

> <Gold.PLP.ligand.clash>
0.0000

> <Gold.PLP.ligand.torsion>
1.0160

> <Gold.PLP.Chemscore.Hbond>
4.8783

> <Gold.PLP.Chemscore.CHOScore>
0.0000

> <Gold.PLP.Chemscore.Metal>
0.0000

> <Gold.Chemscore.Hbonds>
donor molecule, donor type, donor heavy atom, donor atom, acceptor molecule, acceptor atom, score
      L1  H    10    31       P1  7957  0.85
      L1  H    12    48       P1 10175  2.00
      L1  H    17    41       P1 10175  1.00
      P1  H  7989  7998       L1    10  0.11
      P1  H  8011  8017       L1    10  0.80

> <Gold.PLP.Chemscore.Internal.Correction>
0.0255

> <Gold.Rescore>
     Score         DG    S(hbond)    S(metal)    S(lipo)     H(rot)  DE(clash)    DE(int)     intcor
     22.29     -23.59       3.36        0.00     118.78       2.74       0.29       1.01       ----

> <Gold.Chemscore.Fitness>
22.2903

> <Gold.Chemscore.DG>
-23.5863

> <Gold.Chemscore.ZeroCoef>
-5.4800

> <Gold.Chemscore.Hbond>
3.3591

> <Gold.Chemscore.Metal>
0.0000

> <Gold.Chemscore.Lipo>
118.7793

> <Gold.Chemscore.Internal_Hbond>
0.0000

> <Gold.Chemscore.DEClash>
0.2856

> <Gold.Chemscore.DEInternal>
1.0104

> <Gold.Chemscore.Rot>
2.7384

> <Gold.Chemscore.Internal.Correction>
   9.000000E+99

> <Gold.Chemscore.Hbonds>
donor molecule, donor type, donor heavy atom, donor atom, acceptor molecule, acceptor atom, score
      L1  H    10    31       P1  7957  0.84
      L1  H    12    48       P1 10175  0.96
      L1  H    17    41       P1 10175  0.94
      P1  H  7989  7998       L1    10  0.04
      P1  H  8011  8017       L1    10  0.12

> <Gold.Chemscore.Hbond.Weighted>
-11.2194

> <Gold.Chemscore.Metal.Weighted>
-0.0000

> <Gold.Chemscore.Lipo.Weighted>
-13.8972

> <Gold.Chemscore.Internal_Hbond.Weighted>
0.0000

> <Gold.Chemscore.DEClash.Weighted>
0.2856

> <Gold.Chemscore.DEInternal.Weighted>
1.0104

> <Gold.Chemscore.Rot.Weighted>
7.0103

> <Gold.Chemscore.Internal.Correction.Weighted>
   9.000000E+99

> <Gold.Protein.RotatedTorsions>
[ 6907 6896 6895 6894 ] final  -93.91 input  -60.11 | X-H torsion
[ 7974 7965 7964 7962 ] final   40.22 input  175.53 | X-H torsion
[ 8008 7997 7996 7995 ] final   67.64 input   59.86 | X-H torsion
[ 10167 10162 10161 10158 ] final  157.05 input  -65.29 | X-H torsion
[ 10718 10713 10712 10709 ] final -154.75 input   66.30 | X-H torsion
[ 10763 10752 10751 10750 ] final  156.97 input  -60.55 | X-H torsion
[ 11005 11000 10999 10996 ] final   75.02 input  -57.11 | X-H torsion

> <Gold.Protein.ActiveResidues>
 VAL166  LYS551  ARG553  GLY616  TRP617  ASP618  TYR619  PRO620  LYS621  CYS622 
 ASP623  PHE694  ASN695  SER759  ASP760  ASP761  ALA762  ILE779  LEU786  VAL792 
 PHE793  MET794  SER795  GLU796  ALA797  LYS798  CYS799  TRP800  GLU811  SER814 

> <Gold.Protein.RotatedAtoms>
  150.6931  134.1894  159.4278 H   0  0  0  0  0  0  0  0  0  0  0  0  # atno 6907 bound_to 6896
  151.9865  134.9999  160.0569 H   0  0  0  0  0  0  0  0  0  0  0  0  # atno 6908 bound_to 6896
  152.1707  133.4607  159.4944 H   0  0  0  0  0  0  0  0  0  0  0  0  # atno 6909 bound_to 6896
  146.0922  139.5559  142.9468 H   0  0  0  0  0  0  0  0  0  0  0  0  # atno 7974 bound_to 7965
  155.6960  140.3495  155.4913 H   0  0  0  0  0  0  0  0  0  0  0  0  # atno 8008 bound_to 7997
  155.9482  140.1114  157.1021 H   0  0  0  0  0  0  0  0  0  0  0  0  # atno 8009 bound_to 7997
  154.4116  140.1199  156.5004 H   0  0  0  0  0  0  0  0  0  0  0  0  # atno 8010 bound_to 7997
  139.4822  144.4953  151.8248 H   0  0  0  0  0  0  0  0  0  0  0  0  # atno 10167 bound_to 10162
  156.5035  130.8402  151.2619 H   0  0  0  0  0  0  0  0  0  0  0  0  # atno 10718 bound_to 10713
  154.1928  135.2794  155.3016 H   0  0  0  0  0  0  0  0  0  0  0  0  # atno 10763 bound_to 10752
  154.5915  135.5558  153.7287 H   0  0  0  0  0  0  0  0  0  0  0  0  # atno 10764 bound_to 10752
  153.0108  135.6369  154.2067 H   0  0  0  0  0  0  0  0  0  0  0  0  # atno 10765 bound_to 10752
  139.9363  134.7482  156.1220 H   0  0  0  0  0  0  0  0  0  0  0  0  # atno 11005 bound_to 11000
  145.6017  141.0354  143.2015 LP  0  0  0  0  0  0  0  0  0  0  0  0  # atno 17320 bound_to 7965
  144.7369  139.7561  143.7326 LP  0  0  0  0  0  0  0  0  0  0  0  0  # atno 17321 bound_to 7965
  140.4441  144.1946  150.5893 LP  0  0  0  0  0  0  0  0  0  0  0  0  # atno 17342 bound_to 10162
  140.4653  143.2433  151.9164 LP  0  0  0  0  0  0  0  0  0  0  0  0  # atno 17343 bound_to 10162
  157.7460  130.9973  150.2813 LP  0  0  0  0  0  0  0  0  0  0  0  0  # atno 17370 bound_to 10713
  156.3309  130.3800  149.7492 LP  0  0  0  0  0  0  0  0  0  0  0  0  # atno 17371 bound_to 10713
  141.0978  133.6689  156.2685 LP  0  0  0  0  0  0  0  0  0  0  0  0  # atno 17394 bound_to 11000
  140.6067  134.5500  157.5527 LP  0  0  0  0  0  0  0  0  0  0  0  0  # atno 17395 bound_to 11000

$$$$
