AV-unprocessed.smi:1174|AV-procd|sdf|4947|dock2
  -GOLD-   22720 3533D 1   1.00000     0.00000
 Structure written by MMmdl.
 41 42  0  0  0  0  0  0  0  0  1 V2000
  153.9916  140.9523  160.6783 C   0  0  0  0  0  0  0  0  0  0  0  0
  153.0496  141.7957  159.8055 C   0  0  1  0  0  0  0  0  0  0  0  0
  152.8636  143.2131  160.3809 C   0  0  0  0  0  0  0  0  0  0  0  0
  152.3313  144.1437  159.4009 N   0  0  0  0  0  0  0  0  0  0  0  0
  152.8247  145.3790  159.0360 C   0  0  0  0  0  0  0  0  0  0  0  0
  151.9959  145.8790  158.0733 C   0  0  0  0  0  0  0  0  0  0  0  0
  151.0107  144.8643  157.9156 C   0  0  0  0  0  0  0  0  0  0  0  0
  151.2134  143.8277  158.7126 N   0  0  0  0  0  0  0  0  0  0  0  0
  153.5720  141.8771  158.4433 N   0  0  0  0  0  0  0  0  0  0  0  0
  154.0057  140.8409  157.7098 C   0  0  0  0  0  0  0  0  0  0  0  0
  154.0450  139.6839  158.1288 O   0  0  0  0  0  0  0  0  0  0  0  0
  154.4632  141.1650  156.2823 C   0  0  2  0  0  0  0  0  0  0  0  0
  155.8652  140.5782  155.9941 C   0  0  0  0  0  0  0  0  0  0  0  0
  156.3923  141.0122  154.6128 C   0  0  0  0  0  0  0  0  0  0  0  0
  156.2885  142.5382  154.4371 C   0  0  0  0  0  0  0  0  0  0  0  0
  154.8894  142.9451  154.6522 N   0  0  0  0  0  0  0  0  0  0  0  0
  154.0001  143.2942  153.6888 C   0  0  0  0  0  0  0  0  0  0  0  0
  154.5368  143.6310  152.5121 N   0  0  0  0  0  0  0  0  0  0  0  0
  152.7839  143.3422  153.8652 O   0  0  0  0  0  0  0  0  0  0  0  0
  154.4687  142.6901  156.0357 C   0  0  0  0  0  0  0  0  0  0  0  0
  153.6116  140.8690  161.6969 H   0  0  0  0  0  0  0  0  0  0  0  0
  154.9874  141.3936  160.7296 H   0  0  0  0  0  0  0  0  0  0  0  0
  154.0950  139.9406  160.2848 H   0  0  0  0  0  0  0  0  0  0  0  0
  152.0736  141.3067  159.7889 H   0  0  0  0  0  0  0  0  0  0  0  0
  152.1816  143.1882  161.2322 H   0  0  0  0  0  0  0  0  0  0  0  0
  153.8120  143.6031  160.7535 H   0  0  0  0  0  0  0  0  0  0  0  0
  153.7160  145.7928  159.4845 H   0  0  0  0  0  0  0  0  0  0  0  0
  152.0803  146.8253  157.5599 H   0  0  0  0  0  0  0  0  0  0  0  0
  150.1599  144.8508  157.2505 H   0  0  0  0  0  0  0  0  0  0  0  0
  153.5843  142.7919  158.0163 H   0  0  0  0  0  0  0  0  0  0  0  0
  153.7567  140.7114  155.5842 H   0  0  0  0  0  0  0  0  0  0  0  0
  156.5717  140.9110  156.7562 H   0  0  0  0  0  0  0  0  0  0  0  0
  155.8394  139.4893  156.0539 H   0  0  0  0  0  0  0  0  0  0  0  0
  157.4266  140.6895  154.4906 H   0  0  0  0  0  0  0  0  0  0  0  0
  155.8178  140.5156  153.8297 H   0  0  0  0  0  0  0  0  0  0  0  0
  156.9233  143.0398  155.1691 H   0  0  0  0  0  0  0  0  0  0  0  0
  156.6879  142.8259  153.4648 H   0  0  0  0  0  0  0  0  0  0  0  0
  153.9398  143.9013  151.7444 H   0  0  0  0  0  0  0  0  0  0  0  0
  155.5397  143.6117  152.3968 H   0  0  0  0  0  0  0  0  0  0  0  0
  153.4879  143.1159  156.2555 H   0  0  0  0  0  0  0  0  0  0  0  0
  155.1618  143.1870  156.7166 H   0  0  0  0  0  0  0  0  0  0  0  0
  1  2  1  0  0  0  0
  1 21  1  0  0  0  0
  1 22  1  0  0  0  0
  1 23  1  0  0  0  0
  2  3  1  0  0  0  0
  2  9  1  0  0  0  0
  2 24  1  0  0  0  0
  3  4  1  0  0  0  0
  3 25  1  0  0  0  0
  3 26  1  0  0  0  0
  4  8  1  0  0  0  0
  4  5  1  0  0  0  0
  5  6  2  0  0  0  0
  5 27  1  0  0  0  0
  6  7  1  0  0  0  0
  6 28  1  0  0  0  0
  7  8  2  0  0  0  0
  7 29  1  0  0  0  0
  9 10  1  0  0  0  0
  9 30  1  0  0  0  0
 10 11  2  0  0  0  0
 10 12  1  0  0  0  0
 12 20  1  0  0  0  0
 12 13  1  0  0  0  0
 12 31  1  0  0  0  0
 13 14  1  0  0  0  0
 13 32  1  0  0  0  0
 13 33  1  0  0  0  0
 14 15  1  0  0  0  0
 14 34  1  0  0  0  0
 14 35  1  0  0  0  0
 15 16  1  0  0  0  0
 15 36  1  0  0  0  0
 15 37  1  0  0  0  0
 16 17  1  0  0  0  0
 16 20  1  0  0  0  0
 17 18  1  0  0  0  0
 17 19  2  0  0  0  0
 18 38  1  0  0  0  0
 18 39  1  0  0  0  0
 20 40  1  0  0  0  0
 20 41  1  0  0  0  0
M  END
> <s_m_source_file>
AV-unprocessed.smi

> <i_m_source_file_index>
1174

> <i_lp_mmshare_version>
43012

> <i_f3d_flags>
0

> <s_epik_input>
bjFbY0hdW2NIXVtjSF1uMVtDSDJdW0NAQEhdKFtDSDNdKVtOSF1DKD1PKVtDQEBIXTJbQ0gyXVtDSDJdW0NIMl1OKFtDSDJdMilDKD1PKVtOSDJd

> <s_epik_cmdline>
J2VwaWtfcHl0aG9uJywgJy1waCcsICc3LjAnLCAnLXRuJywgJzgnLCAnLW1hJywgJzIwMCcsICctbWV0YWxfYmluZGluZycsICctaW1hZScsICc8aW5maWxlLm1hZT4nLCAnLW9tYWUnLCAnPG91dGZpbGUubWFlPic=

> <r_lp_tautomer_probability>
1

> <r_epik_Ionization_Penalty>
0.000372452

> <r_epik_Ionization_Penalty_Charging>
0

> <r_epik_Ionization_Penalty_Neutral>
0.000372452

> <r_epik_State_Penalty>
-0

> <r_epik_Charging_Adjusted_Penalty>
0

> <i_epik_Tot_Q>
0

> <i_epik_Tot_abs_Q>
0

> <r_epik_Metal_State_Penalty>
-0

> <b_epik_Metal_Only>
0

> <s_lp_Force_Field>
OPLS_2005

> <r_lp_Energy>
26.6636

> <b_lp_Chiralities_Consistent>
1

> <s_lp_Variant>
AV-unprocessed.smi:1174-2

> <Gold.Version>
5.8.1

> <Gold.Id.Protein>
6NUR|6NUR_protein|mol2

> <Gold.PLP.Fitness>
40.5555

> <Gold.PLP.PLP>
-37.8266

> <Gold.PLP.part.hbond>
-1.0000

> <Gold.PLP.part.metal>
0.0000

> <Gold.PLP.part.buried>
-2.6951

> <Gold.PLP.part.nonpolar>
-34.7520

> <Gold.PLP.part.repulsive>
0.8631

> <Gold.PLP.ligand.clash>
1.9900

> <Gold.PLP.ligand.torsion>
0.5214

> <Gold.PLP.Chemscore.Hbond>
0.8960

> <Gold.PLP.Chemscore.CHOScore>
0.9968

> <Gold.PLP.Chemscore.Metal>
0.0000

> <Gold.Chemscore.Hbonds>
donor molecule, donor type, donor heavy atom, donor atom, acceptor molecule, acceptor atom, score
      L1  C     7    29       P1  8028  0.83

> <Gold.PLP.Chemscore.Internal.Correction>
0.0833

> <Gold.Rescore>
     Score         DG    S(hbond)    S(metal)    S(lipo)     H(rot)  DE(clash)    DE(int)     intcor
     12.36     -14.20       0.75        0.00      92.87       1.82       0.31       1.52       ----

> <Gold.Chemscore.Fitness>
12.3641

> <Gold.Chemscore.DG>
-14.1957

> <Gold.Chemscore.ZeroCoef>
-5.4800

> <Gold.Chemscore.Hbond>
0.7518

> <Gold.Chemscore.Metal>
0.0000

> <Gold.Chemscore.Lipo>
92.8658

> <Gold.Chemscore.Internal_Hbond>
0.0000

> <Gold.Chemscore.DEClash>
0.3122

> <Gold.Chemscore.DEInternal>
1.5195

> <Gold.Chemscore.Rot>
1.8206

> <Gold.Chemscore.Internal.Correction>
   9.000000E+99

> <Gold.Chemscore.Hbonds>
donor molecule, donor type, donor heavy atom, donor atom, acceptor molecule, acceptor atom, score
      L1  H    18    38       P1  7978  0.01

> <Gold.Chemscore.Hbond.Weighted>
-2.5111

> <Gold.Chemscore.Metal.Weighted>
-0.0000

> <Gold.Chemscore.Lipo.Weighted>
-10.8653

> <Gold.Chemscore.Internal_Hbond.Weighted>
0.0000

> <Gold.Chemscore.DEClash.Weighted>
0.3122

> <Gold.Chemscore.DEInternal.Weighted>
1.5195

> <Gold.Chemscore.Rot.Weighted>
4.6607

> <Gold.Chemscore.Internal.Correction.Weighted>
   9.000000E+99

> <Gold.Protein.RotatedTorsions>
[ 6907 6896 6895 6894 ] final -141.38 input  -60.11 | X-H torsion
[ 7974 7965 7964 7962 ] final  -31.99 input  175.53 | X-H torsion
[ 8008 7997 7996 7995 ] final  -54.88 input   59.86 | X-H torsion
[ 10167 10162 10161 10158 ] final  -23.38 input  -65.29 | X-H torsion
[ 10718 10713 10712 10709 ] final  -85.94 input   66.30 | X-H torsion
[ 10763 10752 10751 10750 ] final -168.16 input  -60.55 | X-H torsion
[ 11005 11000 10999 10996 ] final   19.20 input  -57.11 | X-H torsion

> <Gold.Protein.ActiveResidues>
 VAL166  LYS551  ARG553  GLY616  TRP617  ASP618  TYR619  PRO620  LYS621  CYS622 
 ASP623  PHE694  ASN695  SER759  ASP760  ASP761  ALA762  ILE779  LEU786  VAL792 
 PHE793  MET794  SER795  GLU796  ALA797  LYS798  CYS799  TRP800  GLU811  SER814 

> <Gold.Protein.RotatedAtoms>
  151.0730  133.5451  159.2625 H   0  0  0  0  0  0  0  0  0  0  0  0  # atno 6907 bound_to 6896
  151.2383  135.0579  159.9025 H   0  0  0  0  0  0  0  0  0  0  0  0  # atno 6908 bound_to 6896
  152.5414  134.0509  159.8163 H   0  0  0  0  0  0  0  0  0  0  0  0  # atno 6909 bound_to 6896
  146.1024  140.5737  142.8815 H   0  0  0  0  0  0  0  0  0  0  0  0  # atno 7974 bound_to 7965
  154.4176  140.1166  156.5386 H   0  0  0  0  0  0  0  0  0  0  0  0  # atno 8008 bound_to 7997
  155.6531  140.3496  155.4736 H   0  0  0  0  0  0  0  0  0  0  0  0  # atno 8009 bound_to 7997
  155.9776  140.1154  157.0746 H   0  0  0  0  0  0  0  0  0  0  0  0  # atno 8010 bound_to 7997
  140.7288  143.4448  151.0603 H   0  0  0  0  0  0  0  0  0  0  0  0  # atno 10167 bound_to 10162
  155.9993  130.4748  150.4639 H   0  0  0  0  0  0  0  0  0  0  0  0  # atno 10718 bound_to 10713
  154.6658  135.2931  154.9807 H   0  0  0  0  0  0  0  0  0  0  0  0  # atno 10763 bound_to 10752
  154.0851  135.6599  153.4848 H   0  0  0  0  0  0  0  0  0  0  0  0  # atno 10764 bound_to 10752
  153.0456  135.5206  154.7630 H   0  0  0  0  0  0  0  0  0  0  0  0  # atno 10765 bound_to 10752
  140.4163  134.1565  155.7670 H   0  0  0  0  0  0  0  0  0  0  0  0  # atno 11005 bound_to 11000
  144.7443  140.5027  143.6846 LP  0  0  0  0  0  0  0  0  0  0  0  0  # atno 17320 bound_to 7965
  145.5827  139.1490  143.3226 LP  0  0  0  0  0  0  0  0  0  0  0  0  # atno 17321 bound_to 7965
  139.8119  143.7939  152.3172 LP  0  0  0  0  0  0  0  0  0  0  0  0  # atno 17342 bound_to 10162
  139.7992  144.7381  150.9848 LP  0  0  0  0  0  0  0  0  0  0  0  0  # atno 17343 bound_to 10162
  157.2661  131.0577  151.2290 LP  0  0  0  0  0  0  0  0  0  0  0  0  # atno 17370 bound_to 10713
  157.3387  130.7022  149.6368 LP  0  0  0  0  0  0  0  0  0  0  0  0  # atno 17371 bound_to 10713
  141.1801  133.8431  157.1286 LP  0  0  0  0  0  0  0  0  0  0  0  0  # atno 17394 bound_to 11000
  140.0232  134.9936  157.0633 LP  0  0  0  0  0  0  0  0  0  0  0  0  # atno 17395 bound_to 11000

$$$$
