AV-unprocessed.smi:477|AV-procd|sdf|2670|dock1
  -GOLD-   2262023 83D 1   1.00000     0.00000
 Structure written by MMmdl.
 45 46  0  0  0  0  0  0  0  0  1 V2000
  148.5406  132.8516  157.4351 C   0  0  0  0  0  0  0  0  0  0  0  0
  148.3557  133.8626  158.5346 C   0  0  0  0  0  0  0  0  0  0  0  0
  148.1853  135.0910  158.1706 N   0  0  0  0  0  0  0  0  0  0  0  0
  148.0053  136.0985  159.0987 N   0  0  0  0  0  0  0  0  0  0  0  0
  147.7988  137.4262  158.5022 C   0  0  0  0  0  0  0  0  0  0  0  0
  149.1094  138.1337  158.1278 C   0  0  0  0  0  0  0  0  0  0  0  0
  150.1990  137.5785  158.2767 O   0  0  0  0  0  0  0  0  0  0  0  0
  148.9811  139.3779  157.6435 N   0  0  0  0  0  0  0  0  0  0  0  0
  150.0882  140.2505  157.2693 C   0  0  0  0  0  0  0  0  0  0  0  0
  151.1804  140.3451  158.3547 C   0  0  0  0  0  0  0  0  0  0  0  0
  151.6423  141.7658  158.6444 C   0  0  0  0  0  0  0  0  0  0  0  0
  152.5594  142.0295  159.5953 C   0  0  0  0  0  0  0  0  0  0  0  0
  153.0342  143.4249  159.9609 C   0  0  0  0  0  0  0  0  0  0  0  0
  152.1132  144.5222  159.4019 C   0  0  0  0  0  0  0  0  0  0  0  0
  151.7124  144.2238  157.9520 C   0  0  0  0  0  0  0  0  0  0  0  0
  150.9753  142.8776  157.8396 C   0  0  0  0  0  0  0  0  0  0  0  0
  147.9955  135.9161  160.4507 C   0  0  0  0  0  0  0  0  0  0  0  0
  147.8326  136.8443  161.2442 O   0  0  0  0  0  0  0  0  0  0  0  0
  148.1903  134.5222  160.8559 C   0  0  0  0  0  0  0  0  0  0  0  0
  148.1872  134.2872  162.2639 C   0  0  0  0  0  0  0  0  0  0  0  0
  148.2004  134.1094  163.4077 N   0  0  0  0  0  0  0  0  0  0  0  0
  148.3605  133.5232  159.9541 C   0  0  0  0  0  0  0  0  0  0  0  0
  148.5639  132.0604  160.3245 C   0  0  0  0  0  0  0  0  0  0  0  0
  149.4604  132.2843  157.5790 H   0  0  0  0  0  0  0  0  0  0  0  0
  148.5979  133.3243  156.4532 H   0  0  0  0  0  0  0  0  0  0  0  0
  147.7083  132.1478  157.4144 H   0  0  0  0  0  0  0  0  0  0  0  0
  147.1677  137.3639  157.6143 H   0  0  0  0  0  0  0  0  0  0  0  0
  147.2487  138.0563  159.2041 H   0  0  0  0  0  0  0  0  0  0  0  0
  148.0501  139.7577  157.5507 H   0  0  0  0  0  0  0  0  0  0  0  0
  150.5250  139.9115  156.3285 H   0  0  0  0  0  0  0  0  0  0  0  0
  149.6801  141.2425  157.0737 H   0  0  0  0  0  0  0  0  0  0  0  0
  150.8431  139.8812  159.2824 H   0  0  0  0  0  0  0  0  0  0  0  0
  152.0430  139.7625  158.0291 H   0  0  0  0  0  0  0  0  0  0  0  0
  153.0122  141.2149  160.1421 H   0  0  0  0  0  0  0  0  0  0  0  0
  153.0967  143.5112  161.0458 H   0  0  0  0  0  0  0  0  0  0  0  0
  154.0459  143.5489  159.5738 H   0  0  0  0  0  0  0  0  0  0  0  0
  151.2132  144.5893  160.0147 H   0  0  0  0  0  0  0  0  0  0  0  0
  152.6055  145.4927  159.4693 H   0  0  0  0  0  0  0  0  0  0  0  0
  151.0855  145.0245  157.5589 H   0  0  0  0  0  0  0  0  0  0  0  0
  152.6084  144.2002  157.3303 H   0  0  0  0  0  0  0  0  0  0  0  0
  150.9010  142.5983  156.7899 H   0  0  0  0  0  0  0  0  0  0  0  0
  149.9531  142.9838  158.2039 H   0  0  0  0  0  0  0  0  0  0  0  0
  148.4584  131.8881  161.3953 H   0  0  0  0  0  0  0  0  0  0  0  0
  149.5615  131.7300  160.0334 H   0  0  0  0  0  0  0  0  0  0  0  0
  147.8312  131.4289  159.8210 H   0  0  0  0  0  0  0  0  0  0  0  0
  1  2  1  0  0  0  0
  1 24  1  0  0  0  0
  1 25  1  0  0  0  0
  1 26  1  0  0  0  0
  2 22  1  0  0  0  0
  2  3  2  0  0  0  0
  3  4  1  0  0  0  0
  4  5  1  0  0  0  0
  4 17  1  0  0  0  0
  5  6  1  0  0  0  0
  5 27  1  0  0  0  0
  5 28  1  0  0  0  0
  6  7  2  0  0  0  0
  6  8  1  0  0  0  0
  8  9  1  0  0  0  0
  8 29  1  0  0  0  0
  9 10  1  0  0  0  0
  9 30  1  0  0  0  0
  9 31  1  0  0  0  0
 10 11  1  0  0  0  0
 10 32  1  0  0  0  0
 10 33  1  0  0  0  0
 11 16  1  0  0  0  0
 11 12  2  0  0  0  0
 12 13  1  0  0  0  0
 12 34  1  0  0  0  0
 13 14  1  0  0  0  0
 13 35  1  0  0  0  0
 13 36  1  0  0  0  0
 14 15  1  0  0  0  0
 14 37  1  0  0  0  0
 14 38  1  0  0  0  0
 15 16  1  0  0  0  0
 15 39  1  0  0  0  0
 15 40  1  0  0  0  0
 16 41  1  0  0  0  0
 16 42  1  0  0  0  0
 17 18  2  0  0  0  0
 17 19  1  0  0  0  0
 19 20  1  0  0  0  0
 19 22  2  0  0  0  0
 20 21  3  0  0  0  0
 22 23  1  0  0  0  0
 23 43  1  0  0  0  0
 23 44  1  0  0  0  0
 23 45  1  0  0  0  0
M  END
> <s_m_source_file>
AV-unprocessed.smi

> <i_m_source_file_index>
477

> <i_lp_mmshare_version>
43012

> <i_f3d_flags>
0

> <s_epik_input>
TiNDYyhjMVtDSDNdKWMoPU8pbihuYzFbQ0gzXSlbQ0gyXUMoPU8pW05IXVtDSDJdW0NIMl1DMj1bQ0hdW0NIMl1bQ0gyXVtDSDJdW0NIMl0y

> <s_epik_cmdline>
J2VwaWtfcHl0aG9uJywgJy1waCcsICc3LjAnLCAnLXRuJywgJzgnLCAnLW1hJywgJzIwMCcsICctbWV0YWxfYmluZGluZycsICctaW1hZScsICc8aW5maWxlLm1hZT4nLCAnLW9tYWUnLCAnPG91dGZpbGUubWFlPic=

> <r_lp_tautomer_probability>
1

> <r_epik_Ionization_Penalty>
1.81256e-08

> <r_epik_Ionization_Penalty_Charging>
2.1856e-11

> <r_epik_Ionization_Penalty_Neutral>
1.81037e-08

> <r_epik_State_Penalty>
-0

> <r_epik_Charging_Adjusted_Penalty>
2.1856e-11

> <i_epik_Tot_Q>
0

> <i_epik_Tot_abs_Q>
0

> <r_epik_Metal_State_Penalty>
-0

> <b_epik_Metal_Only>
0

> <s_lp_Force_Field>
OPLS_2005

> <r_lp_Energy>
23.5318

> <b_lp_Chiralities_Consistent>
1

> <s_lp_Variant>
AV-unprocessed.smi:477-1

> <Gold.Version>
5.8.1

> <Gold.Id.Protein>
6NUR|6NUR_protein|mol2

> <Gold.PLP.Fitness>
46.6862

> <Gold.PLP.PLP>
-42.5811

> <Gold.PLP.part.hbond>
-4.0000

> <Gold.PLP.part.metal>
0.0000

> <Gold.PLP.part.buried>
-4.4421

> <Gold.PLP.part.nonpolar>
-34.3766

> <Gold.PLP.part.repulsive>
0.1667

> <Gold.PLP.ligand.clash>
0.0000

> <Gold.PLP.ligand.torsion>
0.7187

> <Gold.PLP.Chemscore.Hbond>
1.8102

> <Gold.PLP.Chemscore.CHOScore>
0.0000

> <Gold.PLP.Chemscore.Metal>
0.0000

> <Gold.Chemscore.Hbonds>
donor molecule, donor type, donor heavy atom, donor atom, acceptor molecule, acceptor atom, score
      P1  H  6931  6943       L1    18  1.00
      P1  H  6934  6947       L1    18  0.30

> <Gold.PLP.Chemscore.Internal.Correction>
0.1118

> <Gold.Rescore>
     Score         DG    S(hbond)    S(metal)    S(lipo)     H(rot)  DE(clash)    DE(int)     intcor
     14.75     -17.14       1.68        0.00      91.89       1.83       0.33       2.07       ----

> <Gold.Chemscore.Fitness>
14.7478

> <Gold.Chemscore.DG>
-17.1433

> <Gold.Chemscore.ZeroCoef>
-5.4800

> <Gold.Chemscore.Hbond>
1.6762

> <Gold.Chemscore.Metal>
0.0000

> <Gold.Chemscore.Lipo>
91.8857

> <Gold.Chemscore.Internal_Hbond>
0.0000

> <Gold.Chemscore.DEClash>
0.3305

> <Gold.Chemscore.DEInternal>
2.0650

> <Gold.Chemscore.Rot>
1.8305

> <Gold.Chemscore.Internal.Correction>
   9.000000E+99

> <Gold.Chemscore.Hbonds>
donor molecule, donor type, donor heavy atom, donor atom, acceptor molecule, acceptor atom, score
      P1  H  6931  6943       L1    18  0.98
      P1  H  6934  6947       L1    18  0.29

> <Gold.Chemscore.Hbond.Weighted>
-5.5987

> <Gold.Chemscore.Metal.Weighted>
-0.0000

> <Gold.Chemscore.Lipo.Weighted>
-10.7506

> <Gold.Chemscore.Internal_Hbond.Weighted>
0.0000

> <Gold.Chemscore.DEClash.Weighted>
0.3305

> <Gold.Chemscore.DEInternal.Weighted>
2.0650

> <Gold.Chemscore.Rot.Weighted>
4.6860

> <Gold.Chemscore.Internal.Correction.Weighted>
   9.000000E+99

> <Gold.Protein.RotatedTorsions>
[ 6907 6896 6895 6894 ] final   -0.50 input  -60.11 | X-H torsion
[ 7974 7965 7964 7962 ] final  119.46 input  175.53 | X-H torsion
[ 8008 7997 7996 7995 ] final   48.70 input   59.86 | X-H torsion
[ 10167 10162 10161 10158 ] final  -41.82 input  -65.29 | X-H torsion
[ 10718 10713 10712 10709 ] final  -36.20 input   66.30 | X-H torsion
[ 10763 10752 10751 10750 ] final  -82.73 input  -60.55 | X-H torsion
[ 11005 11000 10999 10996 ] final   49.15 input  -57.11 | X-H torsion

> <Gold.Protein.ActiveResidues>
 VAL166  LYS551  ARG553  GLY616  TRP617  ASP618  TYR619  PRO620  LYS621  CYS622 
 ASP623  PHE694  ASN695  SER759  ASP760  ASP761  ALA762  ILE779  LEU786  VAL792 
 PHE793  MET794  SER795  GLU796  ALA797  LYS798  CYS799  TRP800  GLU811  SER814 

> <Gold.Protein.RotatedAtoms>
  151.5612  135.1065  159.9972 H   0  0  0  0  0  0  0  0  0  0  0  0  # atno 6907 bound_to 6896
  152.4446  133.7507  159.6703 H   0  0  0  0  0  0  0  0  0  0  0  0  # atno 6908 bound_to 6896
  150.8358  133.7948  159.3104 H   0  0  0  0  0  0  0  0  0  0  0  0  # atno 6909 bound_to 6896
  145.1429  139.3257  143.4607 H   0  0  0  0  0  0  0  0  0  0  0  0  # atno 7974 bound_to 7965
  155.3899  140.3433  155.4251 H   0  0  0  0  0  0  0  0  0  0  0  0  # atno 8008 bound_to 7997
  156.1563  140.1586  156.8720 H   0  0  0  0  0  0  0  0  0  0  0  0  # atno 8009 bound_to 7997
  154.5098  140.0793  156.7948 H   0  0  0  0  0  0  0  0  0  0  0  0  # atno 8010 bound_to 7997
  140.6990  143.3073  151.3121 H   0  0  0  0  0  0  0  0  0  0  0  0  # atno 10167 bound_to 10162
  156.3297  130.4277  149.7884 H   0  0  0  0  0  0  0  0  0  0  0  0  # atno 10718 bound_to 10713
  154.5792  135.5581  153.7169 H   0  0  0  0  0  0  0  0  0  0  0  0  # atno 10763 bound_to 10752
  153.0075  135.6316  154.2006 H   0  0  0  0  0  0  0  0  0  0  0  0  # atno 10764 bound_to 10752
  154.1946  135.2881  155.2990 H   0  0  0  0  0  0  0  0  0  0  0  0  # atno 10765 bound_to 10752
  140.1128  134.4932  155.8663 H   0  0  0  0  0  0  0  0  0  0  0  0  # atno 11005 bound_to 11000
  146.3503  140.1473  142.8593 LP  0  0  0  0  0  0  0  0  0  0  0  0  # atno 17320 bound_to 7965
  145.0513  140.9020  143.4994 LP  0  0  0  0  0  0  0  0  0  0  0  0  # atno 17321 bound_to 7965
  139.6483  144.0410  152.2607 LP  0  0  0  0  0  0  0  0  0  0  0  0  # atno 17342 bound_to 10162
  139.9938  144.6342  150.7790 LP  0  0  0  0  0  0  0  0  0  0  0  0  # atno 17343 bound_to 10162
  156.5161  130.8194  151.3187 LP  0  0  0  0  0  0  0  0  0  0  0  0  # atno 17370 bound_to 10713
  157.7428  130.9898  150.2543 LP  0  0  0  0  0  0  0  0  0  0  0  0  # atno 17371 bound_to 10713
  141.2134  133.6733  156.6739 LP  0  0  0  0  0  0  0  0  0  0  0  0  # atno 17394 bound_to 11000
  140.3068  134.8119  157.4143 LP  0  0  0  0  0  0  0  0  0  0  0  0  # atno 17395 bound_to 11000

$$$$
