AV-unprocessed.smi:859|AV-procd|sdf|3964|dock2
  -GOLD-   22720 1433D 1   1.00000     0.00000
 Structure written by MMmdl.
 35 36  0  0  0  0  0  0  0  0  1 V2000
  154.6292  140.7974  159.4373 O   0  0  0  0  0  0  0  0  0  0  0  0
  153.5079  141.2131  159.1432 C   0  0  0  0  0  0  0  0  0  0  0  0
  152.5666  140.4479  158.5686 N   0  0  0  0  0  0  0  0  0  0  0  0
  152.7482  139.0607  158.1505 C   0  0  0  0  0  0  0  0  0  0  0  0
  153.3278  138.9640  156.7267 C   0  0  0  0  0  0  0  0  0  0  0  0
  152.3218  139.1600  155.6987 N   0  0  0  0  0  0  0  0  0  0  0  0
  152.0115  138.2986  154.6544 C   0  0  0  0  0  0  0  0  0  0  0  0
  150.9909  138.8912  153.9458 C   0  0  0  0  0  0  0  0  0  0  0  0
  150.6651  140.1141  154.5274 N   0  0  0  0  0  0  0  0  0  0  0  0
  151.4947  140.2052  155.5590 C   0  0  0  0  0  0  0  0  0  0  0  0
  153.1351  142.6784  159.4026 C   0  0  0  0  0  0  0  0  0  0  0  0
  152.5794  142.8503  160.8329 C   0  0  0  0  0  0  0  0  0  0  0  0
  152.1787  144.3085  161.1090 C   0  0  0  0  0  0  0  0  0  0  0  0
  151.1683  144.8142  160.0672 C   0  0  0  0  0  0  0  0  0  0  0  0
  151.7105  144.6451  158.6392 C   0  0  0  0  0  0  0  0  0  0  0  0
  152.1110  143.1860  158.3645 C   0  0  0  0  0  0  0  0  0  0  0  0
  151.6720  140.8708  158.3674 H   0  0  0  0  0  0  0  0  0  0  0  0
  153.3715  138.5106  158.8577 H   0  0  0  0  0  0  0  0  0  0  0  0
  151.7705  138.5793  158.1732 H   0  0  0  0  0  0  0  0  0  0  0  0
  154.1030  139.7188  156.5903 H   0  0  0  0  0  0  0  0  0  0  0  0
  153.8050  137.9952  156.5737 H   0  0  0  0  0  0  0  0  0  0  0  0
  152.5223  137.3579  154.5110 H   0  0  0  0  0  0  0  0  0  0  0  0
  150.4708  138.5347  153.0691 H   0  0  0  0  0  0  0  0  0  0  0  0
  151.4970  141.0497  156.2324 H   0  0  0  0  0  0  0  0  0  0  0  0
  154.0382  143.2850  159.3131 H   0  0  0  0  0  0  0  0  0  0  0  0
  151.7104  142.2066  160.9795 H   0  0  0  0  0  0  0  0  0  0  0  0
  153.3227  142.5324  161.5655 H   0  0  0  0  0  0  0  0  0  0  0  0
  151.7543  144.3937  162.1098 H   0  0  0  0  0  0  0  0  0  0  0  0
  153.0666  144.9419  161.0947 H   0  0  0  0  0  0  0  0  0  0  0  0
  150.2323  144.2637  160.1698 H   0  0  0  0  0  0  0  0  0  0  0  0
  150.9333  145.8623  160.2547 H   0  0  0  0  0  0  0  0  0  0  0  0
  150.9594  144.9657  157.9168 H   0  0  0  0  0  0  0  0  0  0  0  0
  152.5745  145.2954  158.4966 H   0  0  0  0  0  0  0  0  0  0  0  0
  152.5242  143.1051  157.3583 H   0  0  0  0  0  0  0  0  0  0  0  0
  151.2160  142.5619  158.3816 H   0  0  0  0  0  0  0  0  0  0  0  0
  1  2  2  0  0  0  0
  2  3  1  0  0  0  0
  2 11  1  0  0  0  0
  3  4  1  0  0  0  0
  3 17  1  0  0  0  0
  4  5  1  0  0  0  0
  4 18  1  0  0  0  0
  4 19  1  0  0  0  0
  5  6  1  0  0  0  0
  5 20  1  0  0  0  0
  5 21  1  0  0  0  0
  6 10  1  0  0  0  0
  6  7  1  0  0  0  0
  7  8  2  0  0  0  0
  7 22  1  0  0  0  0
  8  9  1  0  0  0  0
  8 23  1  0  0  0  0
  9 10  2  0  0  0  0
 10 24  1  0  0  0  0
 11 16  1  0  0  0  0
 11 12  1  0  0  0  0
 11 25  1  0  0  0  0
 12 13  1  0  0  0  0
 12 26  1  0  0  0  0
 12 27  1  0  0  0  0
 13 14  1  0  0  0  0
 13 28  1  0  0  0  0
 13 29  1  0  0  0  0
 14 15  1  0  0  0  0
 14 30  1  0  0  0  0
 14 31  1  0  0  0  0
 15 16  1  0  0  0  0
 15 32  1  0  0  0  0
 15 33  1  0  0  0  0
 16 34  1  0  0  0  0
 16 35  1  0  0  0  0
M  END
> <s_m_source_file>
AV-unprocessed.smi

> <i_m_source_file_index>
859

> <i_lp_mmshare_version>
43012

> <i_f3d_flags>
0

> <s_epik_input>
W0NIMl0xW0NIMl1bQ0gyXVtDSDJdW0NIMl1bQ0hdMUMoPU8pW05IXVtDSDJdW0NIMl1uMltjSF1bY0hdbltjSF0y

> <s_epik_cmdline>
J2VwaWtfcHl0aG9uJywgJy1waCcsICc3LjAnLCAnLXRuJywgJzgnLCAnLW1hJywgJzIwMCcsICctbWV0YWxfYmluZGluZycsICctaW1hZScsICc8aW5maWxlLm1hZT4nLCAnLW9tYWUnLCAnPG91dGZpbGUubWFlPic=

> <r_lp_tautomer_probability>
1

> <r_epik_Ionization_Penalty>
0.600603

> <r_epik_Ionization_Penalty_Charging>
0.600603

> <r_epik_Ionization_Penalty_Neutral>
2.01201e-08

> <r_epik_State_Penalty>
0.614954

> <r_epik_Charging_Adjusted_Penalty>
1.21556

> <i_epik_Tot_Q>
0

> <i_epik_Tot_abs_Q>
0

> <r_epik_Metal_State_Penalty>
0.301281

> <b_epik_Metal_Only>
0

> <s_lp_Force_Field>
OPLS_2005

> <r_lp_Energy>
12.3333

> <b_lp_Chiralities_Consistent>
1

> <s_lp_Variant>
AV-unprocessed.smi:859-2

> <Gold.Version>
5.8.1

> <Gold.Id.Protein>
6NUR|6NUR_protein|mol2

> <Gold.PLP.Fitness>
44.6895

> <Gold.PLP.PLP>
-40.0878

> <Gold.PLP.part.hbond>
-1.0000

> <Gold.PLP.part.metal>
0.0000

> <Gold.PLP.part.buried>
-5.3732

> <Gold.PLP.part.nonpolar>
-33.2951

> <Gold.PLP.part.repulsive>
0.2195

> <Gold.PLP.ligand.clash>
0.0000

> <Gold.PLP.ligand.torsion>
1.0359

> <Gold.PLP.Chemscore.Hbond>
1.0000

> <Gold.PLP.Chemscore.CHOScore>
1.2163

> <Gold.PLP.Chemscore.Metal>
0.0000

> <Gold.Chemscore.Hbonds>
donor molecule, donor type, donor heavy atom, donor atom, acceptor molecule, acceptor atom, score
      P1  H  7989  7998       L1     9  0.40
      P1  H  7997  8010       L1     1  0.20
      L1  C     8    23       P1  7957  0.85

> <Gold.PLP.Chemscore.Internal.Correction>
0.0246

> <Gold.Rescore>
     Score         DG    S(hbond)    S(metal)    S(lipo)     H(rot)  DE(clash)    DE(int)     intcor
     14.73     -15.67       0.96        0.00      98.68       1.79       0.00       0.94       ----

> <Gold.Chemscore.Fitness>
14.7287

> <Gold.Chemscore.DG>
-15.6712

> <Gold.Chemscore.ZeroCoef>
-5.4800

> <Gold.Chemscore.Hbond>
0.9645

> <Gold.Chemscore.Metal>
0.0000

> <Gold.Chemscore.Lipo>
98.6759

> <Gold.Chemscore.Internal_Hbond>
0.0000

> <Gold.Chemscore.DEClash>
0.0048

> <Gold.Chemscore.DEInternal>
0.9378

> <Gold.Chemscore.Rot>
1.7872

> <Gold.Chemscore.Internal.Correction>
   9.000000E+99

> <Gold.Chemscore.Hbonds>
donor molecule, donor type, donor heavy atom, donor atom, acceptor molecule, acceptor atom, score
      P1  H  7997  8010       L1     1  0.03

> <Gold.Chemscore.Hbond.Weighted>
-3.2213

> <Gold.Chemscore.Metal.Weighted>
-0.0000

> <Gold.Chemscore.Lipo.Weighted>
-11.5451

> <Gold.Chemscore.Internal_Hbond.Weighted>
0.0000

> <Gold.Chemscore.DEClash.Weighted>
0.0048

> <Gold.Chemscore.DEInternal.Weighted>
0.9378

> <Gold.Chemscore.Rot.Weighted>
4.5751

> <Gold.Chemscore.Internal.Correction.Weighted>
   9.000000E+99

> <Gold.Protein.RotatedTorsions>
[ 6907 6896 6895 6894 ] final   54.51 input  -60.11 | X-H torsion
[ 7974 7965 7964 7962 ] final  101.43 input  175.53 | X-H torsion
[ 8008 7997 7996 7995 ] final   -7.09 input   59.86 | X-H torsion
[ 10167 10162 10161 10158 ] final -170.77 input  -65.29 | X-H torsion
[ 10718 10713 10712 10709 ] final  -67.87 input   66.30 | X-H torsion
[ 10763 10752 10751 10750 ] final -121.64 input  -60.55 | X-H torsion
[ 11005 11000 10999 10996 ] final  145.79 input  -57.11 | X-H torsion

> <Gold.Protein.ActiveResidues>
 VAL166  LYS551  ARG553  GLY616  TRP617  ASP618  TYR619  PRO620  LYS621  CYS622 
 ASP623  PHE694  ASN695  SER759  ASP760  ASP761  ALA762  ILE779  LEU786  VAL792 
 PHE793  MET794  SER795  GLU796  ALA797  LYS798  CYS799  TRP800  GLU811  SER814 

> <Gold.Protein.RotatedAtoms>
  152.3446  134.7088  160.0253 H   0  0  0  0  0  0  0  0  0  0  0  0  # atno 6907 bound_to 6896
  151.7462  133.3319  159.3387 H   0  0  0  0  0  0  0  0  0  0  0  0  # atno 6908 bound_to 6896
  150.7501  134.6166  159.6158 H   0  0  0  0  0  0  0  0  0  0  0  0  # atno 6909 bound_to 6896
  145.3725  139.2395  143.3447 H   0  0  0  0  0  0  0  0  0  0  0  0  # atno 7974 bound_to 7965
  154.5873  140.2416  155.7970 H   0  0  0  0  0  0  0  0  0  0  0  0  # atno 8008 bound_to 7997
  156.2222  140.2994  155.9935 H   0  0  0  0  0  0  0  0  0  0  0  0  # atno 8009 bound_to 7997
  155.2436  140.0408  157.2968 H   0  0  0  0  0  0  0  0  0  0  0  0  # atno 8010 bound_to 7997
  139.5842  144.1355  152.1554 H   0  0  0  0  0  0  0  0  0  0  0  0  # atno 10167 bound_to 10162
  156.0535  130.4285  150.1918 H   0  0  0  0  0  0  0  0  0  0  0  0  # atno 10718 bound_to 10713
  154.8673  135.4160  154.2654 H   0  0  0  0  0  0  0  0  0  0  0  0  # atno 10763 bound_to 10752
  153.3574  135.7001  153.6745 H   0  0  0  0  0  0  0  0  0  0  0  0  # atno 10764 bound_to 10752
  153.5660  135.3600  155.2791 H   0  0  0  0  0  0  0  0  0  0  0  0  # atno 10765 bound_to 10752
  140.0741  134.9135  157.1393 H   0  0  0  0  0  0  0  0  0  0  0  0  # atno 11005 bound_to 11000
  146.2879  140.4378  142.8751 LP  0  0  0  0  0  0  0  0  0  0  0  0  # atno 17320 bound_to 7965
  144.8566  140.7079  143.6134 LP  0  0  0  0  0  0  0  0  0  0  0  0  # atno 17321 bound_to 7965
  140.0915  144.5616  150.7051 LP  0  0  0  0  0  0  0  0  0  0  0  0  # atno 17342 bound_to 10162
  140.7116  143.2510  151.4563 LP  0  0  0  0  0  0  0  0  0  0  0  0  # atno 17343 bound_to 10162
  156.9998  130.9919  151.3394 LP  0  0  0  0  0  0  0  0  0  0  0  0  # atno 17370 bound_to 10713
  157.5483  130.8165  149.8113 LP  0  0  0  0  0  0  0  0  0  0  0  0  # atno 17371 bound_to 10713
  140.3584  134.2521  155.7190 LP  0  0  0  0  0  0  0  0  0  0  0  0  # atno 17394 bound_to 11000
  141.2023  133.7941  157.0398 LP  0  0  0  0  0  0  0  0  0  0  0  0  # atno 17395 bound_to 11000

$$$$
