AV-unprocessed.smi:3163|AV-procd|sdf|12071|dock1
  -GOLD-   2272017503D 1   1.00000     0.00000
 Structure written by MMmdl.
 36 37  0  0  0  0  0  0  0  0  2 V2000
  146.0806  132.3182  150.2160 C   0  0  0  0  0  0  0  0  0  0  0  0
  145.5646  133.7030  150.2010 N   0  3  1  0  0  0  0  0  0  0  0  0
  144.0925  133.8124  150.3286 C   0  0  0  0  0  0  0  0  0  0  0  0
  143.8222  134.8735  151.4015 C   0  0  0  0  0  0  0  0  0  0  0  0
  145.1257  135.6699  151.4832 C   0  0  1  0  0  0  0  0  0  0  0  0
  145.3496  136.4350  152.8014 C   0  0  0  0  0  0  0  0  0  0  0  0
  146.7339  136.8741  152.9492 N   0  0  0  0  0  0  0  0  0  0  0  0
  147.1434  137.9235  153.6770 C   0  0  0  0  0  0  0  0  0  0  0  0
  146.3758  138.6532  154.3041 O   0  0  0  0  0  0  0  0  0  0  0  0
  148.4774  138.0733  153.6035 N   0  0  0  0  0  0  0  0  0  0  0  0
  149.3009  139.0486  154.2293 C   0  0  0  0  0  0  0  0  0  0  0  0
  150.5639  138.6342  154.7002 C   0  0  0  0  0  0  0  0  0  0  0  0
  151.3941  139.5767  155.3393 C   0  0  0  0  0  0  0  0  0  0  0  0
  151.0400  140.8640  155.5358 N   0  0  0  0  0  0  0  0  0  0  0  0
  149.8252  141.2560  155.0972 C   0  0  0  0  0  0  0  0  0  0  0  0
  148.9195  140.3951  154.4451 C   0  0  0  0  0  0  0  0  0  0  0  0
  146.1723  134.5884  151.2160 C   0  0  0  0  0  0  0  0  0  0  0  0
  145.8486  131.8216  151.1590 H   0  0  0  0  0  0  0  0  0  0  0  0
  147.1628  132.3139  150.0825 H   0  0  0  0  0  0  0  0  0  0  0  0
  145.6385  131.7389  149.4049 H   0  0  0  0  0  0  0  0  0  0  0  0
  143.6859  134.1235  149.3660 H   0  0  0  0  0  0  0  0  0  0  0  0
  143.6240  132.8632  150.5932 H   0  0  0  0  0  0  0  0  0  0  0  0
  142.9588  135.4965  151.1666 H   0  0  0  0  0  0  0  0  0  0  0  0
  143.6269  134.3813  152.3554 H   0  0  0  0  0  0  0  0  0  0  0  0
  145.1484  136.3778  150.6527 H   0  0  0  0  0  0  0  0  0  0  0  0
  144.6633  137.2801  152.8784 H   0  0  0  0  0  0  0  0  0  0  0  0
  145.1202  135.7814  153.6435 H   0  0  0  0  0  0  0  0  0  0  0  0
  147.4349  136.3336  152.4633 H   0  0  0  0  0  0  0  0  0  0  0  0
  148.9596  137.4393  152.9836 H   0  0  0  0  0  0  0  0  0  0  0  0
  150.8981  137.6148  154.5730 H   0  0  0  0  0  0  0  0  0  0  0  0
  152.3683  139.2870  155.7047 H   0  0  0  0  0  0  0  0  0  0  0  0
  149.5631  142.2882  155.2771 H   0  0  0  0  0  0  0  0  0  0  0  0
  147.9589  140.7799  154.1404 H   0  0  0  0  0  0  0  0  0  0  0  0
  146.3636  134.0235  152.1306 H   0  0  0  0  0  0  0  0  0  0  0  0
  147.1212  134.9995  150.8703 H   0  0  0  0  0  0  0  0  0  0  0  0
  145.7969  134.0998  149.3016 H   0  0  0  0  0  0  0  0  0  0  0  0
  1  2  1  0  0  0  0
  1 18  1  0  0  0  0
  1 19  1  0  0  0  0
  1 20  1  0  0  0  0
  2 17  1  0  0  0  0
  2  3  1  0  0  0  0
  2 36  1  0  0  0  0
  3  4  1  0  0  0  0
  3 21  1  0  0  0  0
  3 22  1  0  0  0  0
  4  5  1  0  0  0  0
  4 23  1  0  0  0  0
  4 24  1  0  0  0  0
  5  6  1  0  0  0  0
  5 17  1  0  0  0  0
  5 25  1  0  0  0  0
  6  7  1  0  0  0  0
  6 26  1  0  0  0  0
  6 27  1  0  0  0  0
  7  8  1  0  0  0  0
  7 28  1  0  0  0  0
  8  9  2  0  0  0  0
  8 10  1  0  0  0  0
 10 11  1  0  0  0  0
 10 29  1  0  0  0  0
 11 16  1  0  0  0  0
 11 12  2  0  0  0  0
 12 13  1  0  0  0  0
 12 30  1  0  0  0  0
 13 14  2  0  0  0  0
 13 31  1  0  0  0  0
 14 15  1  0  0  0  0
 15 16  2  0  0  0  0
 15 32  1  0  0  0  0
 16 33  1  0  0  0  0
 17 34  1  0  0  0  0
 17 35  1  0  0  0  0
M  CHG  1   2   1
M  END
> <s_m_source_file>
AV-unprocessed.smi

> <i_m_source_file_index>
3163

> <i_lp_mmshare_version>
43012

> <i_f3d_flags>
0

> <s_epik_input>
W0NIM11OMVtDSDJdW0NIMl1bQ0BIXShbQ0gyXTEpW0NIMl1bTkhdQyg9TylbTkhdYzJbY0hdW2NIXW5bY0hdW2NIXTI=

> <s_epik_cmdline>
J2VwaWtfcHl0aG9uJywgJy1waCcsICc3LjAnLCAnLXRuJywgJzgnLCAnLW1hJywgJzIwMCcsICctbWV0YWxfYmluZGluZycsICctaW1hZScsICc8aW5maWxlLm1hZT4nLCAnLW9tYWUnLCAnPG91dGZpbGUubWFlPic=

> <r_epik_Ionization_Penalty>
0.103936

> <r_epik_Ionization_Penalty_Charging>
0.0012301

> <r_epik_Ionization_Penalty_Neutral>
0.102706

> <r_epik_State_Penalty>
0.0926275

> <r_epik_Charging_Adjusted_Penalty>
0.0938576

> <i_epik_Tot_Q>
1

> <i_epik_Tot_abs_Q>
1

> <r_epik_Metal_State_Penalty>
0.0788376

> <b_epik_Metal_Only>
0

> <s_lp_Force_Field>
OPLS_2005

> <r_lp_Energy>
32.4174

> <b_lp_Chiralities_Consistent>
1

> <s_lp_Variant>
AV-unprocessed.smi:3163-1

> <Gold.Version>
5.8.1

> <Gold.Id.Protein>
6NUR|6NUR_protein|mol2

> <Gold.PLP.Fitness>
40.8541

> <Gold.PLP.PLP>
-29.9188

> <Gold.PLP.part.hbond>
-4.0940

> <Gold.PLP.part.metal>
0.0000

> <Gold.PLP.part.buried>
-0.3487

> <Gold.PLP.part.nonpolar>
-25.0848

> <Gold.PLP.part.repulsive>
0.3044

> <Gold.PLP.ligand.clash>
0.0000

> <Gold.PLP.ligand.torsion>
0.5352

> <Gold.PLP.Chemscore.Hbond>
3.0000

> <Gold.PLP.Chemscore.CHOScore>
1.0000

> <Gold.PLP.Chemscore.Metal>
0.0000

> <Gold.Chemscore.Hbonds>
donor molecule, donor type, donor heavy atom, donor atom, acceptor molecule, acceptor atom, score
      L1  H     2    36       P1  7921  1.00
      L1  H     7    28       P1  7948  0.99
      L1  H    10    29       P1  7948  1.00
      L1  C    15    32       P1  8028  0.96

> <Gold.PLP.Chemscore.Internal.Correction>
0.0057

> <Gold.Rescore>
     Score         DG    S(hbond)    S(metal)    S(lipo)     H(rot)  DE(clash)    DE(int)     intcor
     19.07     -20.42       2.88        0.00      73.03       1.26       0.18       1.18       ----

> <Gold.Chemscore.Fitness>
19.0676

> <Gold.Chemscore.DG>
-20.4234

> <Gold.Chemscore.ZeroCoef>
-5.4800

> <Gold.Chemscore.Hbond>
2.8786

> <Gold.Chemscore.Metal>
0.0000

> <Gold.Chemscore.Lipo>
73.0264

> <Gold.Chemscore.Internal_Hbond>
0.0000

> <Gold.Chemscore.DEClash>
0.1799

> <Gold.Chemscore.DEInternal>
1.1759

> <Gold.Chemscore.Rot>
1.2559

> <Gold.Chemscore.Internal.Correction>
   9.000000E+99

> <Gold.Chemscore.Hbonds>
donor molecule, donor type, donor heavy atom, donor atom, acceptor molecule, acceptor atom, score
      L1  H     2    36       P1  7921  0.45
      L1  H     7    28       P1  7948  0.93
      L1  H    10    29       P1  7948  0.96

> <Gold.Chemscore.Hbond.Weighted>
-9.6144

> <Gold.Chemscore.Metal.Weighted>
-0.0000

> <Gold.Chemscore.Lipo.Weighted>
-8.5441

> <Gold.Chemscore.Internal_Hbond.Weighted>
0.0000

> <Gold.Chemscore.DEClash.Weighted>
0.1799

> <Gold.Chemscore.DEInternal.Weighted>
1.1759

> <Gold.Chemscore.Rot.Weighted>
3.2151

> <Gold.Chemscore.Internal.Correction.Weighted>
   9.000000E+99

> <Gold.Protein.RotatedTorsions>
[ 6907 6896 6895 6894 ] final  125.84 input  -60.11 | X-H torsion
[ 7974 7965 7964 7962 ] final -123.42 input  175.53 | X-H torsion
[ 8008 7997 7996 7995 ] final -170.87 input   59.86 | X-H torsion
[ 10167 10162 10161 10158 ] final  103.71 input  -65.29 | X-H torsion
[ 10718 10713 10712 10709 ] final  -95.47 input   66.30 | X-H torsion
[ 10763 10752 10751 10750 ] final   44.59 input  -60.55 | X-H torsion
[ 11005 11000 10999 10996 ] final  102.88 input  -57.11 | X-H torsion

> <Gold.Protein.ActiveResidues>
 VAL166  LYS551  ARG553  GLY616  TRP617  ASP618  TYR619  PRO620  LYS621  CYS622 
 ASP623  PHE694  ASN695  SER759  ASP760  ASP761  ALA762  ILE779  LEU786  VAL792 
 PHE793  MET794  SER795  GLU796  ALA797  LYS798  CYS799  TRP800  GLU811  SER814 

> <Gold.Protein.RotatedAtoms>
  152.3957  133.6743  159.6273 H   0  0  0  0  0  0  0  0  0  0  0  0  # atno 6907 bound_to 6896
  150.7856  133.8878  159.3313 H   0  0  0  0  0  0  0  0  0  0  0  0  # atno 6908 bound_to 6896
  151.6655  135.0985  160.0239 H   0  0  0  0  0  0  0  0  0  0  0  0  # atno 6909 bound_to 6896
  145.0189  140.7971  143.4393 H   0  0  0  0  0  0  0  0  0  0  0  0  # atno 7974 bound_to 7965
  155.9241  140.1079  157.1184 H   0  0  0  0  0  0  0  0  0  0  0  0  # atno 8008 bound_to 7997
  154.4059  140.1250  156.4782 H   0  0  0  0  0  0  0  0  0  0  0  0  # atno 8009 bound_to 7997
  155.7160  140.3470  155.4997 H   0  0  0  0  0  0  0  0  0  0  0  0  # atno 8010 bound_to 7997
  139.7239  144.7052  151.0829 H   0  0  0  0  0  0  0  0  0  0  0  0  # atno 10167 bound_to 10162
  156.0044  130.5110  150.6081 H   0  0  0  0  0  0  0  0  0  0  0  0  # atno 10718 bound_to 10713
  152.9838  135.6066  154.3298 H   0  0  0  0  0  0  0  0  0  0  0  0  # atno 10763 bound_to 10752
  154.3002  135.2773  155.2616 H   0  0  0  0  0  0  0  0  0  0  0  0  # atno 10764 bound_to 10752
  154.4872  135.5902  153.6488 H   0  0  0  0  0  0  0  0  0  0  0  0  # atno 10765 bound_to 10752
  139.8780  134.9241  156.5125 H   0  0  0  0  0  0  0  0  0  0  0  0  # atno 11005 bound_to 11000
  145.1922  139.2295  143.5236 LP  0  0  0  0  0  0  0  0  0  0  0  0  # atno 17320 bound_to 7965
  146.3482  140.1721  142.8589 LP  0  0  0  0  0  0  0  0  0  0  0  0  # atno 17321 bound_to 7965
  140.7759  143.5130  150.9629 LP  0  0  0  0  0  0  0  0  0  0  0  0  # atno 17342 bound_to 10162
  139.8817  143.7063  152.3156 LP  0  0  0  0  0  0  0  0  0  0  0  0  # atno 17343 bound_to 10162
  157.3918  131.0797  151.1387 LP  0  0  0  0  0  0  0  0  0  0  0  0  # atno 17370 bound_to 10713
  157.2076  130.6423  149.5762 LP  0  0  0  0  0  0  0  0  0  0  0  0  # atno 17371 bound_to 10713
  140.8509  133.8132  155.9168 LP  0  0  0  0  0  0  0  0  0  0  0  0  # atno 17394 bound_to 11000
  140.9145  134.2219  157.4965 LP  0  0  0  0  0  0  0  0  0  0  0  0  # atno 17395 bound_to 11000

$$$$
