AV-unprocessed.smi:113|AV-procd|sdf|1104|dock4
  -GOLD-   2262018213D 1   1.00000     0.00000
 Structure written by MMmdl.
 53 56  0  0  0  0  0  0  0  0  2 V2000
  144.4717  128.8866  158.0751 C   0  0  0  0  0  0  0  0  0  0  0  0
  145.5514  129.8892  157.7277 C   0  0  0  0  0  0  0  0  0  0  0  0
  146.3177  129.7890  156.5507 C   0  0  0  0  0  0  0  0  0  0  0  0
  147.3160  130.7550  156.2713 C   0  0  0  0  0  0  0  0  0  0  0  0
  148.1619  130.6707  154.9960 C   0  0  0  0  0  0  0  0  0  0  0  0
  147.4567  130.3662  153.7586 N   0  0  0  0  0  0  0  0  0  0  0  0
  147.7935  129.1647  153.0883 C   0  0  0  0  0  0  0  0  0  0  0  0
  148.6418  128.3922  153.5392 O   0  0  0  0  0  0  0  0  0  0  0  0
  147.0527  128.9139  151.8496 C   0  0  0  0  0  0  0  0  0  0  0  0
  147.3938  127.6664  151.0497 C   0  0  0  0  0  0  0  0  0  0  0  0
  146.1005  129.7892  151.4474 C   0  0  0  0  0  0  0  0  0  0  0  0
  145.7609  130.9348  152.1468 N   0  0  0  0  0  0  0  0  0  0  0  0
  144.6741  131.8597  151.6464 C   0  0  1  0  0  0  0  0  0  0  0  0
  145.1796  133.3015  151.5714 C   0  0  0  0  0  0  0  0  0  0  0  0
  144.5090  133.7903  150.3044 C   0  0  1  0  0  0  0  0  0  0  0  0
  145.2310  134.8635  149.7354 O   0  0  0  0  0  0  0  0  0  0  0  0
  144.5327  132.5316  149.4323 C   0  0  2  0  0  0  0  0  0  0  0  0
  143.4678  132.4913  148.3255 C   0  0  0  0  0  0  0  0  0  0  0  0
  143.4394  133.7149  147.6221 O   0  0  0  0  0  0  0  0  0  0  0  0
  144.2975  131.4711  150.3569 O   0  0  0  0  0  0  0  0  0  0  0  0
  146.4529  131.2640  153.3302 C   0  0  0  0  0  0  0  0  0  0  0  0
  146.1816  132.2867  153.9637 O   0  0  0  0  0  0  0  0  0  0  0  0
  147.5106  131.8117  157.2031 C   0  0  0  0  0  0  0  0  0  0  0  0
  148.4775  132.8265  157.0034 C   0  0  0  0  0  0  0  0  0  0  0  0
  148.6434  133.8539  157.9530 C   0  0  0  0  0  0  0  0  0  0  0  0
  147.8474  133.8837  159.1130 C   0  0  0  0  0  0  0  0  0  0  0  0
  146.8792  132.8850  159.3259 C   0  0  0  0  0  0  0  0  0  0  0  0
  146.7107  131.8571  158.3769 C   0  0  0  0  0  0  0  0  0  0  0  0
  145.7771  130.9048  158.5856 N   0  3  0  0  0  0  0  0  0  0  0  0
  144.1708  128.3168  157.1953 H   0  0  0  0  0  0  0  0  0  0  0  0
  143.5888  129.3915  158.4687 H   0  0  0  0  0  0  0  0  0  0  0  0
  144.8342  128.1875  158.8288 H   0  0  0  0  0  0  0  0  0  0  0  0
  146.1274  128.9691  155.8744 H   0  0  0  0  0  0  0  0  0  0  0  0
  148.7055  131.6047  154.8462 H   0  0  0  0  0  0  0  0  0  0  0  0
  148.9452  129.9195  155.1087 H   0  0  0  0  0  0  0  0  0  0  0  0
  146.7668  127.5681  150.1630 H   0  0  0  0  0  0  0  0  0  0  0  0
  147.2532  126.7713  151.6568 H   0  0  0  0  0  0  0  0  0  0  0  0
  148.4333  127.6976  150.7210 H   0  0  0  0  0  0  0  0  0  0  0  0
  145.5820  129.5774  150.5247 H   0  0  0  0  0  0  0  0  0  0  0  0
  143.8055  131.7351  152.2941 H   0  0  0  0  0  0  0  0  0  0  0  0
  144.9070  133.8648  152.4643 H   0  0  0  0  0  0  0  0  0  0  0  0
  146.2660  133.3048  151.4637 H   0  0  0  0  0  0  0  0  0  0  0  0
  143.4833  134.0949  150.5176 H   0  0  0  0  0  0  0  0  0  0  0  0
  145.3197  134.7091  148.8071 H   0  0  0  0  0  0  0  0  0  0  0  0
  145.5273  132.3856  149.0074 H   0  0  0  0  0  0  0  0  0  0  0  0
  143.6997  131.6986  147.6138 H   0  0  0  0  0  0  0  0  0  0  0  0
  142.4804  132.2777  148.7359 H   0  0  0  0  0  0  0  0  0  0  0  0
  144.3117  134.0794  147.6173 H   0  0  0  0  0  0  0  0  0  0  0  0
  149.1056  132.8384  156.1258 H   0  0  0  0  0  0  0  0  0  0  0  0
  149.3853  134.6222  157.7901 H   0  0  0  0  0  0  0  0  0  0  0  0
  147.9786  134.6734  159.8386 H   0  0  0  0  0  0  0  0  0  0  0  0
  146.2699  132.9137  160.2179 H   0  0  0  0  0  0  0  0  0  0  0  0
  145.2125  130.9569  159.4332 H   0  0  0  0  0  0  0  0  0  0  0  0
  1  2  1  0  0  0  0
  1 30  1  0  0  0  0
  1 31  1  0  0  0  0
  1 32  1  0  0  0  0
  2 29  1  0  0  0  0
  2  3  2  0  0  0  0
  3  4  1  0  0  0  0
  3 33  1  0  0  0  0
  4  5  1  0  0  0  0
  4 23  2  0  0  0  0
  5  6  1  0  0  0  0
  5 34  1  0  0  0  0
  5 35  1  0  0  0  0
  6 21  1  0  0  0  0
  6  7  1  0  0  0  0
  7  8  2  0  0  0  0
  7  9  1  0  0  0  0
  9 10  1  0  0  0  0
  9 11  2  0  0  0  0
 10 36  1  0  0  0  0
 10 37  1  0  0  0  0
 10 38  1  0  0  0  0
 11 12  1  0  0  0  0
 11 39  1  0  0  0  0
 12 13  1  0  0  0  0
 12 21  1  0  0  0  0
 13 20  1  0  0  0  0
 13 14  1  0  0  0  0
 13 40  1  0  0  0  0
 14 15  1  0  0  0  0
 14 41  1  0  0  0  0
 14 42  1  0  0  0  0
 15 16  1  0  0  0  0
 15 17  1  0  0  0  0
 15 43  1  0  0  0  0
 16 44  1  0  0  0  0
 17 18  1  0  0  0  0
 17 20  1  0  0  0  0
 17 45  1  0  0  0  0
 18 19  1  0  0  0  0
 18 46  1  0  0  0  0
 18 47  1  0  0  0  0
 19 48  1  0  0  0  0
 21 22  2  0  0  0  0
 23 28  1  0  0  0  0
 23 24  1  0  0  0  0
 24 25  2  0  0  0  0
 24 49  1  0  0  0  0
 25 26  1  0  0  0  0
 25 50  1  0  0  0  0
 26 27  2  0  0  0  0
 26 51  1  0  0  0  0
 27 28  1  0  0  0  0
 27 52  1  0  0  0  0
 28 29  2  0  0  0  0
 29 53  1  0  0  0  0
M  CHG  1  29   1
M  END
> <s_m_source_file>
AV-unprocessed.smi

> <i_m_source_file_index>
113

> <i_lp_mmshare_version>
43012

> <i_f3d_flags>
0

> <s_epik_input>
W2NIXTFbY0hdW2NIXVtjSF1jKGMxMiluYyhbQ0gzXSlbY0hdYzJbQ0gyXW4zYyg9TyljKFtDSDNdKVtjSF1uKGMzPU8pW0NAQEhdNFtDSDJdW0NAQEhdKFtPSF0pW0NASF0oTzQpW0NIMl1bT0hd

> <s_epik_cmdline>
J2VwaWtfcHl0aG9uJywgJy1waCcsICc3LjAnLCAnLXRuJywgJzgnLCAnLW1hJywgJzIwMCcsICctbWV0YWxfYmluZGluZycsICctaW1hZScsICc8aW5maWxlLm1hZT4nLCAnLW9tYWUnLCAnPG91dGZpbGUubWFlPic=

> <r_lp_tautomer_probability>
1

> <r_epik_Ionization_Penalty>
0.705471

> <r_epik_Ionization_Penalty_Charging>
0.70547

> <r_epik_Ionization_Penalty_Neutral>
1.19947e-07

> <r_epik_State_Penalty>
0.728574

> <r_epik_Charging_Adjusted_Penalty>
1.43404

> <i_epik_Tot_Q>
1

> <i_epik_Tot_abs_Q>
1

> <r_epik_Metal_State_Penalty>
4.61665

> <b_epik_Metal_Only>
0

> <s_epik_Chemistry_Notes>
This compound contains an acetal/aminal-like group ( X-CH(R)-Y where X, Y are N, S, or O) that may be acid/base labile, releasing an aldehyde.

> <s_lp_Force_Field>
OPLS_2005

> <r_lp_Energy>
41.2196

> <b_lp_Chiralities_Consistent>
1

> <s_lp_Variant>
AV-unprocessed.smi:113-14

> <Gold.Version>
5.8.1

> <Gold.Id.Protein>
6NUR|6NUR_protein|mol2

> <Gold.PLP.Fitness>
49.7249

> <Gold.PLP.PLP>
-41.5578

> <Gold.PLP.part.hbond>
-5.0818

> <Gold.PLP.part.metal>
0.0000

> <Gold.PLP.part.buried>
-6.9320

> <Gold.PLP.part.nonpolar>
-30.2039

> <Gold.PLP.part.repulsive>
0.3738

> <Gold.PLP.ligand.clash>
0.0000

> <Gold.PLP.ligand.torsion>
0.4707

> <Gold.PLP.Chemscore.Hbond>
3.0310

> <Gold.PLP.Chemscore.CHOScore>
0.0000

> <Gold.PLP.Chemscore.Metal>
0.0000

> <Gold.Chemscore.Hbonds>
donor molecule, donor type, donor heavy atom, donor atom, acceptor molecule, acceptor atom, score
      L1  H    16    44       P1  7921  0.72
      L1  H    19    48       P1  7921  1.00
      P1  H 10192 10197       L1    19  0.88
      P1  H 10785 10796       L1    20  0.08

> <Gold.PLP.Chemscore.Internal.Correction>
0.0155

> <Gold.Rescore>
     Score         DG    S(hbond)    S(metal)    S(lipo)     H(rot)  DE(clash)    DE(int)     intcor
     14.34     -17.56       2.95        0.00      84.81       3.01       0.47       2.75       ----

> <Gold.Chemscore.Fitness>
14.3394

> <Gold.Chemscore.DG>
-17.5571

> <Gold.Chemscore.ZeroCoef>
-5.4800

> <Gold.Chemscore.Hbond>
2.9537

> <Gold.Chemscore.Metal>
0.0000

> <Gold.Chemscore.Lipo>
84.8085

> <Gold.Chemscore.Internal_Hbond>
0.0000

> <Gold.Chemscore.DEClash>
0.4698

> <Gold.Chemscore.DEInternal>
2.7478

> <Gold.Chemscore.Rot>
3.0120

> <Gold.Chemscore.Internal.Correction>
   9.000000E+99

> <Gold.Chemscore.Hbonds>
donor molecule, donor type, donor heavy atom, donor atom, acceptor molecule, acceptor atom, score
      L1  H    16    44       P1  7921  0.69
      L1  H    19    48       P1  7921  0.99
      P1  H 10192 10197       L1    19  0.67
      P1  H 10785 10796       L1    20  0.01

> <Gold.Chemscore.Hbond.Weighted>
-9.8653

> <Gold.Chemscore.Metal.Weighted>
-0.0000

> <Gold.Chemscore.Lipo.Weighted>
-9.9226

> <Gold.Chemscore.Internal_Hbond.Weighted>
0.0000

> <Gold.Chemscore.DEClash.Weighted>
0.4698

> <Gold.Chemscore.DEInternal.Weighted>
2.7478

> <Gold.Chemscore.Rot.Weighted>
7.7108

> <Gold.Chemscore.Internal.Correction.Weighted>
   9.000000E+99

> <Gold.Protein.RotatedTorsions>
[ 6907 6896 6895 6894 ] final -163.88 input  -60.11 | X-H torsion
[ 7974 7965 7964 7962 ] final  127.64 input  175.53 | X-H torsion
[ 8008 7997 7996 7995 ] final -146.00 input   59.86 | X-H torsion
[ 10167 10162 10161 10158 ] final -120.00 input  -65.29 | X-H torsion
[ 10718 10713 10712 10709 ] final  127.30 input   66.30 | X-H torsion
[ 10763 10752 10751 10750 ] final -179.62 input  -60.55 | X-H torsion
[ 11005 11000 10999 10996 ] final -108.68 input  -57.11 | X-H torsion

> <Gold.Protein.ActiveResidues>
 VAL166  LYS551  ARG553  GLY616  TRP617  ASP618  TYR619  PRO620  LYS621  CYS622 
 ASP623  PHE694  ASN695  SER759  ASP760  ASP761  ALA762  ILE779  LEU786  VAL792 
 PHE793  MET794  SER795  GLU796  ALA797  LYS798  CYS799  TRP800  GLU811  SER814 

> <Gold.Protein.RotatedAtoms>
  151.4030  133.3751  159.2734 H   0  0  0  0  0  0  0  0  0  0  0  0  # atno 6907 bound_to 6896
  150.9419  134.8829  159.7628 H   0  0  0  0  0  0  0  0  0  0  0  0  # atno 6908 bound_to 6896
  152.5075  134.3981  159.9459 H   0  0  0  0  0  0  0  0  0  0  0  0  # atno 6909 bound_to 6896
  145.0483  139.3904  143.5067 H   0  0  0  0  0  0  0  0  0  0  0  0  # atno 7974 bound_to 7965
  155.5523  140.0618  157.2847 H   0  0  0  0  0  0  0  0  0  0  0  0  # atno 8008 bound_to 7997
  154.4416  140.1900  156.0744 H   0  0  0  0  0  0  0  0  0  0  0  0  # atno 8009 bound_to 7997
  156.0507  140.3284  155.7351 H   0  0  0  0  0  0  0  0  0  0  0  0  # atno 8010 bound_to 7997
  140.0406  143.5157  152.2132 H   0  0  0  0  0  0  0  0  0  0  0  0  # atno 10167 bound_to 10162
  157.5344  131.1098  150.8958 H   0  0  0  0  0  0  0  0  0  0  0  0  # atno 10718 bound_to 10713
  154.5327  135.2801  155.1166 H   0  0  0  0  0  0  0  0  0  0  0  0  # atno 10763 bound_to 10752
  154.2679  135.6309  153.5303 H   0  0  0  0  0  0  0  0  0  0  0  0  # atno 10764 bound_to 10752
  152.9960  135.5621  154.5845 H   0  0  0  0  0  0  0  0  0  0  0  0  # atno 10765 bound_to 10752
  141.0889  133.9090  157.2122 H   0  0  0  0  0  0  0  0  0  0  0  0  # atno 11005 bound_to 11000
  146.3516  140.0121  142.8666 LP  0  0  0  0  0  0  0  0  0  0  0  0  # atno 17320 bound_to 7965
  145.1559  140.9647  143.4405 LP  0  0  0  0  0  0  0  0  0  0  0  0  # atno 17321 bound_to 7965
  139.6016  144.7584  151.3158 LP  0  0  0  0  0  0  0  0  0  0  0  0  # atno 17342 bound_to 10162
  140.7262  143.6997  150.7855 LP  0  0  0  0  0  0  0  0  0  0  0  0  # atno 17343 bound_to 10162
  156.9529  130.5426  149.5283 LP  0  0  0  0  0  0  0  0  0  0  0  0  # atno 17370 bound_to 10713
  156.0447  130.5525  150.8854 LP  0  0  0  0  0  0  0  0  0  0  0  0  # atno 17371 bound_to 10713
  139.9711  135.0128  156.9514 LP  0  0  0  0  0  0  0  0  0  0  0  0  # atno 17394 bound_to 11000
  140.5299  134.0824  155.7313 LP  0  0  0  0  0  0  0  0  0  0  0  0  # atno 17395 bound_to 11000

$$$$
