AV-unprocessed.smi:1527|AV-procd|sdf|6147|dock5
  -GOLD-   22720 6293D 1   1.00000     0.00000
 Structure written by MMmdl.
 30 30  0  0  0  0  0  0  0  0  2 V2000
  152.3736  144.5192  158.3885 C   0  0  0  0  0  0  0  0  0  0  0  0
  153.3169  143.4946  159.0352 C   0  0  0  0  0  0  0  0  0  0  0  0
  152.6255  142.5752  160.0597 C   0  0  2  0  0  0  0  0  0  0  0  0
  153.6425  141.6969  160.8064 C   0  0  0  0  0  0  0  0  0  0  0  0
  151.6311  141.7361  159.3949 N   0  0  0  0  0  0  0  0  0  0  0  0
  151.9001  140.7208  158.5596 C   0  0  0  0  0  0  0  0  0  0  0  0
  153.0459  140.3801  158.2607 O   0  0  0  0  0  0  0  0  0  0  0  0
  150.6769  139.9803  157.9964 C   0  0  0  0  0  0  0  0  0  0  0  0
  150.9670  139.1580  156.8125 N   0  0  0  0  0  0  0  0  0  0  0  0
  151.2298  137.7544  157.1181 N   0  5  0  0  0  0  0  0  0  0  0  0
  151.5336  136.9014  156.1041 C   0  0  0  0  0  0  0  0  0  0  0  0
  151.7842  135.7121  156.2861 O   0  0  0  0  0  0  0  0  0  0  0  0
  151.5552  137.4285  154.7497 C   0  0  0  0  0  0  0  0  0  0  0  0
  151.2823  138.7233  154.4943 C   0  0  0  0  0  0  0  0  0  0  0  0
  150.9569  139.6743  155.5503 C   0  0  0  0  0  0  0  0  0  0  0  0
  150.6956  140.8560  155.3230 O   0  0  0  0  0  0  0  0  0  0  0  0
  152.9205  145.1724  157.7085 H   0  0  0  0  0  0  0  0  0  0  0  0
  151.8999  145.1478  159.1430 H   0  0  0  0  0  0  0  0  0  0  0  0
  151.5850  144.0329  157.8136 H   0  0  0  0  0  0  0  0  0  0  0  0
  153.7853  142.8933  158.2549 H   0  0  0  0  0  0  0  0  0  0  0  0
  154.1269  144.0331  159.5285 H   0  0  0  0  0  0  0  0  0  0  0  0
  152.1226  143.2108  160.7909 H   0  0  0  0  0  0  0  0  0  0  0  0
  154.3834  142.3080  161.3220 H   0  0  0  0  0  0  0  0  0  0  0  0
  154.1745  141.0356  160.1216 H   0  0  0  0  0  0  0  0  0  0  0  0
  153.1530  141.0749  161.5565 H   0  0  0  0  0  0  0  0  0  0  0  0
  150.6616  141.9404  159.5882 H   0  0  0  0  0  0  0  0  0  0  0  0
  150.2596  139.3656  158.7959 H   0  0  0  0  0  0  0  0  0  0  0  0
  149.8998  140.7058  157.7499 H   0  0  0  0  0  0  0  0  0  0  0  0
  151.7927  136.7667  153.9300 H   0  0  0  0  0  0  0  0  0  0  0  0
  151.3080  139.0714  153.4725 H   0  0  0  0  0  0  0  0  0  0  0  0
  1  2  1  0  0  0  0
  1 17  1  0  0  0  0
  1 18  1  0  0  0  0
  1 19  1  0  0  0  0
  2  3  1  0  0  0  0
  2 20  1  0  0  0  0
  2 21  1  0  0  0  0
  3  4  1  0  0  0  0
  3  5  1  0  0  0  0
  3 22  1  0  0  0  0
  4 23  1  0  0  0  0
  4 24  1  0  0  0  0
  4 25  1  0  0  0  0
  5  6  1  0  0  0  0
  5 26  1  0  0  0  0
  6  7  2  0  0  0  0
  6  8  1  0  0  0  0
  8 27  1  0  0  0  0
  8 28  1  0  0  0  0
  8  9  1  0  0  0  0
  9 10  1  0  0  0  0
  9 15  1  0  0  0  0
 10 11  1  0  0  0  0
 11 12  2  0  0  0  0
 11 13  1  0  0  0  0
 13 29  1  0  0  0  0
 13 14  2  0  0  0  0
 14 30  1  0  0  0  0
 14 15  1  0  0  0  0
 15 16  2  0  0  0  0
M  CHG  1  10  -1
M  END
> <s_m_source_file>
AV-unprocessed.smi

> <i_m_source_file_index>
1527

> <i_lp_mmshare_version>
43012

> <i_f3d_flags>
0

> <s_epik_input>
W0NIM11bQ0gyXVtDQEhdKFtDSDNdKVtOSF1DKD1PKVtDSDJdbjFbbkhdYyg9TylbY0hdW2NIXWMxPU8=

> <s_epik_cmdline>
J2VwaWtfcHl0aG9uJywgJy1waCcsICc3LjAnLCAnLXRuJywgJzgnLCAnLW1hJywgJzIwMCcsICctbWV0YWxfYmluZGluZycsICctaW1hZScsICc8aW5maWxlLm1hZT4nLCAnLW9tYWUnLCAnPG91dGZpbGUubWFlPic=

> <r_lp_tautomer_probability>
1

> <r_epik_Ionization_Penalty>
0.0984334

> <r_epik_Ionization_Penalty_Charging>
0.0984334

> <r_epik_Ionization_Penalty_Neutral>
1.93017e-08

> <r_epik_State_Penalty>
0.0346952

> <r_epik_Charging_Adjusted_Penalty>
0.133129

> <i_epik_Tot_Q>
-1

> <i_epik_Tot_abs_Q>
1

> <r_epik_Metal_State_Penalty>
0.0346952

> <b_epik_Metal_Only>
0

> <s_lp_Force_Field>
OPLS_2005

> <r_lp_Energy>
18.7632

> <b_lp_Chiralities_Consistent>
1

> <s_lp_Variant>
AV-unprocessed.smi:1527-1

> <Gold.Version>
5.8.1

> <Gold.Id.Protein>
6NUR|6NUR_protein|mol2

> <Gold.PLP.Fitness>
37.5751

> <Gold.PLP.PLP>
-31.9231

> <Gold.PLP.part.hbond>
-3.0000

> <Gold.PLP.part.metal>
0.0000

> <Gold.PLP.part.buried>
-0.7512

> <Gold.PLP.part.nonpolar>
-27.2721

> <Gold.PLP.part.repulsive>
0.2064

> <Gold.PLP.ligand.clash>
0.0000

> <Gold.PLP.ligand.torsion>
0.6843

> <Gold.PLP.Chemscore.Hbond>
2.3350

> <Gold.PLP.Chemscore.CHOScore>
0.0000

> <Gold.PLP.Chemscore.Metal>
0.0000

> <Gold.Chemscore.Hbonds>
donor molecule, donor type, donor heavy atom, donor atom, acceptor molecule, acceptor atom, score
      P1  H  7989  7998       L1    16  0.59
      P1  H  7997  8010       L1     7  0.53
      P1  H 10752 10764       L1    12  1.00

> <Gold.PLP.Chemscore.Internal.Correction>
0.0156

> <Gold.Rescore>
     Score         DG    S(hbond)    S(metal)    S(lipo)     H(rot)  DE(clash)    DE(int)     intcor
     12.67     -14.55       1.80        0.00      68.70       1.94       0.03       1.86       ----

> <Gold.Chemscore.Fitness>
12.6653

> <Gold.Chemscore.DG>
-14.5515

> <Gold.Chemscore.ZeroCoef>
-5.4800

> <Gold.Chemscore.Hbond>
1.8002

> <Gold.Chemscore.Metal>
0.0000

> <Gold.Chemscore.Lipo>
68.7005

> <Gold.Chemscore.Internal_Hbond>
0.0000

> <Gold.Chemscore.DEClash>
0.0263

> <Gold.Chemscore.DEInternal>
1.8599

> <Gold.Chemscore.Rot>
1.9449

> <Gold.Chemscore.Internal.Correction>
   9.000000E+99

> <Gold.Chemscore.Hbonds>
donor molecule, donor type, donor heavy atom, donor atom, acceptor molecule, acceptor atom, score
      P1  H  7989  7998       L1    16  0.07
      P1  H  7997  8010       L1     7  0.53
      P1  H 10752 10764       L1    12  0.44

> <Gold.Chemscore.Hbond.Weighted>
-6.0126

> <Gold.Chemscore.Metal.Weighted>
-0.0000

> <Gold.Chemscore.Lipo.Weighted>
-8.0380

> <Gold.Chemscore.Internal_Hbond.Weighted>
0.0000

> <Gold.Chemscore.DEClash.Weighted>
0.0263

> <Gold.Chemscore.DEInternal.Weighted>
1.8599

> <Gold.Chemscore.Rot.Weighted>
4.9791

> <Gold.Chemscore.Internal.Correction.Weighted>
   9.000000E+99

> <Gold.Protein.RotatedTorsions>
[ 6907 6896 6895 6894 ] final   46.59 input  -60.11 | X-H torsion
[ 7974 7965 7964 7962 ] final   34.88 input  175.53 | X-H torsion
[ 8008 7997 7996 7995 ] final   14.95 input   59.86 | X-H torsion
[ 10167 10162 10161 10158 ] final  -74.02 input  -65.29 | X-H torsion
[ 10718 10713 10712 10709 ] final  -80.21 input   66.30 | X-H torsion
[ 10763 10752 10751 10750 ] final  -14.29 input  -60.55 | X-H torsion
[ 11005 11000 10999 10996 ] final -107.86 input  -57.11 | X-H torsion

> <Gold.Protein.ActiveResidues>
 VAL166  LYS551  ARG553  GLY616  TRP617  ASP618  TYR619  PRO620  LYS621  CYS622 
 ASP623  PHE694  ASN695  SER759  ASP760  ASP761  ALA762  ILE779  LEU786  VAL792 
 PHE793  MET794  SER795  GLU796  ALA797  LYS798  CYS799  TRP800  GLU811  SER814 

> <Gold.Protein.RotatedAtoms>
  152.2582  134.8062  160.0434 H   0  0  0  0  0  0  0  0  0  0  0  0  # atno 6907 bound_to 6896
  151.8718  133.3472  159.3745 H   0  0  0  0  0  0  0  0  0  0  0  0  # atno 6908 bound_to 6896
  150.7107  134.5033  159.5616 H   0  0  0  0  0  0  0  0  0  0  0  0  # atno 6909 bound_to 6896
  146.1322  139.6213  142.9219 H   0  0  0  0  0  0  0  0  0  0  0  0  # atno 7974 bound_to 7965
  154.8558  140.2936  155.5570 H   0  0  0  0  0  0  0  0  0  0  0  0  # atno 8008 bound_to 7997
  156.3018  140.2487  156.3456 H   0  0  0  0  0  0  0  0  0  0  0  0  # atno 8009 bound_to 7997
  154.8972  140.0392  157.1861 H   0  0  0  0  0  0  0  0  0  0  0  0  # atno 8010 bound_to 7997
  140.5062  143.2352  151.7670 H   0  0  0  0  0  0  0  0  0  0  0  0  # atno 10167 bound_to 10162
  156.0075  130.4567  150.3765 H   0  0  0  0  0  0  0  0  0  0  0  0  # atno 10718 bound_to 10713
  153.5261  135.7015  153.5707 H   0  0  0  0  0  0  0  0  0  0  0  0  # atno 10763 bound_to 10752
  153.3734  135.3939  155.1805 H   0  0  0  0  0  0  0  0  0  0  0  0  # atno 10764 bound_to 10752
  154.8689  135.3817  154.4754 H   0  0  0  0  0  0  0  0  0  0  0  0  # atno 10765 bound_to 10752
  141.0932  133.9018  157.2026 H   0  0  0  0  0  0  0  0  0  0  0  0  # atno 11005 bound_to 11000
  145.5235  141.0431  143.2422 LP  0  0  0  0  0  0  0  0  0  0  0  0  # atno 17320 bound_to 7965
  144.7702  139.6752  143.7198 LP  0  0  0  0  0  0  0  0  0  0  0  0  # atno 17321 bound_to 7965
  139.4884  144.4454  151.9716 LP  0  0  0  0  0  0  0  0  0  0  0  0  # atno 17342 bound_to 10162
  140.3544  144.3049  150.5943 LP  0  0  0  0  0  0  0  0  0  0  0  0  # atno 17343 bound_to 10162
  157.1847  131.0401  151.2731 LP  0  0  0  0  0  0  0  0  0  0  0  0  # atno 17370 bound_to 10713
  157.4114  130.7387  149.6842 LP  0  0  0  0  0  0  0  0  0  0  0  0  # atno 17371 bound_to 10713
  139.9762  135.0113  156.9637 LP  0  0  0  0  0  0  0  0  0  0  0  0  # atno 17394 bound_to 11000
  140.5203  134.0914  155.7290 LP  0  0  0  0  0  0  0  0  0  0  0  0  # atno 17395 bound_to 11000

$$$$
