AV-unprocessed.smi:937|AV-procd|sdf|4215|dock5
  -GOLD-   22720 2123D 1   1.00000     0.00000
 Structure written by MMmdl.
 46 47  0  0  0  0  0  0  0  0  2 V2000
  143.0881  143.7146  156.1649 C   0  0  0  0  0  0  0  0  0  0  0  0
  144.2865  143.1432  155.4372 C   0  0  0  0  0  0  0  0  0  0  0  0
  144.9327  143.8331  154.3887 C   0  0  0  0  0  0  0  0  0  0  0  0
  146.0447  143.2391  153.7562 C   0  0  0  0  0  0  0  0  0  0  0  0
  146.4883  141.9687  154.1849 C   0  0  0  0  0  0  0  0  0  0  0  0
  147.6799  141.3045  153.5237 C   0  0  0  0  0  0  0  0  0  0  0  0
  148.7059  140.7989  154.5509 C   0  0  0  0  0  0  0  0  0  0  0  0
  149.1369  141.8685  155.4419 N   0  0  0  0  0  0  0  0  0  0  0  0
  149.5864  141.6920  156.6958 C   0  0  0  0  0  0  0  0  0  0  0  0
  149.6627  140.5906  157.2372 O   0  0  0  0  0  0  0  0  0  0  0  0
  149.9617  142.8201  157.3251 N   0  0  0  0  0  0  0  0  0  0  0  0
  150.4904  142.9725  158.6821 C   0  0  2  0  0  0  0  0  0  0  0  0
  150.8206  144.4494  158.9796 C   0  0  0  0  0  0  0  0  0  0  0  0
  151.4458  144.6089  160.3731 C   0  0  0  0  0  0  0  0  0  0  0  0
  152.6944  143.7269  160.5281 C   0  0  0  0  0  0  0  0  0  0  0  0
  152.3837  142.2429  160.2397 C   0  0  2  0  0  0  0  0  0  0  0  0
  153.6302  141.3490  160.4041 C   0  0  0  0  0  0  0  0  0  0  0  0
  154.0580  141.3582  161.6670 F   0  0  0  0  0  0  0  0  0  0  0  0
  153.3417  140.0950  160.0560 F   0  0  0  0  0  0  0  0  0  0  0  0
  154.6114  141.7840  159.6134 F   0  0  0  0  0  0  0  0  0  0  0  0
  151.7478  142.0965  158.8402 C   0  0  0  0  0  0  0  0  0  0  0  0
  145.8023  141.3255  155.2369 C   0  0  0  0  0  0  0  0  0  0  0  0
  144.7411  141.9278  155.8169 N   0  3  0  0  0  0  0  0  0  0  0  0
  142.8502  144.7159  155.8044 H   0  0  0  0  0  0  0  0  0  0  0  0
  143.2868  143.7769  157.2354 H   0  0  0  0  0  0  0  0  0  0  0  0
  142.2140  143.0810  156.0122 H   0  0  0  0  0  0  0  0  0  0  0  0
  144.5838  144.8050  154.0706 H   0  0  0  0  0  0  0  0  0  0  0  0
  146.5490  143.7542  152.9514 H   0  0  0  0  0  0  0  0  0  0  0  0
  147.3241  140.4798  152.9045 H   0  0  0  0  0  0  0  0  0  0  0  0
  148.1507  142.0162  152.8442 H   0  0  0  0  0  0  0  0  0  0  0  0
  148.2669  140.0077  155.1591 H   0  0  0  0  0  0  0  0  0  0  0  0
  149.5705  140.3621  154.0480 H   0  0  0  0  0  0  0  0  0  0  0  0
  149.1052  142.8096  155.0775 H   0  0  0  0  0  0  0  0  0  0  0  0
  149.8667  143.6760  156.7975 H   0  0  0  0  0  0  0  0  0  0  0  0
  149.7487  142.6191  159.4008 H   0  0  0  0  0  0  0  0  0  0  0  0
  151.5118  144.8320  158.2272 H   0  0  0  0  0  0  0  0  0  0  0  0
  149.9226  145.0644  158.9128 H   0  0  0  0  0  0  0  0  0  0  0  0
  151.7062  145.6537  160.5448 H   0  0  0  0  0  0  0  0  0  0  0  0
  150.7128  144.3440  161.1360 H   0  0  0  0  0  0  0  0  0  0  0  0
  153.4727  144.0798  159.8503 H   0  0  0  0  0  0  0  0  0  0  0  0
  153.0916  143.8385  161.5374 H   0  0  0  0  0  0  0  0  0  0  0  0
  151.6472  141.9104  160.9731 H   0  0  0  0  0  0  0  0  0  0  0  0
  151.4875  141.0528  158.6600 H   0  0  0  0  0  0  0  0  0  0  0  0
  152.4799  142.3656  158.0771 H   0  0  0  0  0  0  0  0  0  0  0  0
  146.0670  140.3543  155.6291 H   0  0  0  0  0  0  0  0  0  0  0  0
  144.2618  141.4436  156.5762 H   0  0  0  0  0  0  0  0  0  0  0  0
  1  2  1  0  0  0  0
  1 24  1  0  0  0  0
  1 25  1  0  0  0  0
  1 26  1  0  0  0  0
  2 23  1  0  0  0  0
  2  3  2  0  0  0  0
  3  4  1  0  0  0  0
  3 27  1  0  0  0  0
  4  5  2  0  0  0  0
  4 28  1  0  0  0  0
  5  6  1  0  0  0  0
  5 22  1  0  0  0  0
  6  7  1  0  0  0  0
  6 29  1  0  0  0  0
  6 30  1  0  0  0  0
  7  8  1  0  0  0  0
  7 31  1  0  0  0  0
  7 32  1  0  0  0  0
  8  9  1  0  0  0  0
  8 33  1  0  0  0  0
  9 10  2  0  0  0  0
  9 11  1  0  0  0  0
 11 12  1  0  0  0  0
 11 34  1  0  0  0  0
 12 21  1  0  0  0  0
 12 13  1  0  0  0  0
 12 35  1  0  0  0  0
 13 14  1  0  0  0  0
 13 36  1  0  0  0  0
 13 37  1  0  0  0  0
 14 15  1  0  0  0  0
 14 38  1  0  0  0  0
 14 39  1  0  0  0  0
 15 16  1  0  0  0  0
 15 40  1  0  0  0  0
 15 41  1  0  0  0  0
 16 17  1  0  0  0  0
 16 21  1  0  0  0  0
 16 42  1  0  0  0  0
 17 18  1  0  0  0  0
 17 19  1  0  0  0  0
 17 20  1  0  0  0  0
 21 43  1  0  0  0  0
 21 44  1  0  0  0  0
 22 23  2  0  0  0  0
 22 45  1  0  0  0  0
 23 46  1  0  0  0  0
M  CHG  1  23   1
M  END
> <s_m_source_file>
AV-unprocessed.smi

> <i_m_source_file_index>
937

> <i_lp_mmshare_version>
43012

> <i_f3d_flags>
0

> <s_epik_input>
W0NIM11jMVtjSF1bY0hdYyhbY0hdbjEpW0NIMl1bQ0gyXVtOSF1DKD1PKVtOSF1bQ0BASF0yW0NIMl1bQ0gyXVtDSDJdW0NAQEhdKEMoRikoRilGKVtDSDJdMg==

> <s_epik_cmdline>
J2VwaWtfcHl0aG9uJywgJy1waCcsICc3LjAnLCAnLXRuJywgJzgnLCAnLW1hJywgJzIwMCcsICctbWV0YWxfYmluZGluZycsICctaW1hZScsICc8aW5maWxlLm1hZT4nLCAnLW9tYWUnLCAnPG91dGZpbGUubWFlPic=

> <r_epik_Ionization_Penalty>
1.4226

> <r_epik_Ionization_Penalty_Charging>
1.42255

> <r_epik_Ionization_Penalty_Neutral>
5.16456e-05

> <r_epik_State_Penalty>
1.50646

> <r_epik_Charging_Adjusted_Penalty>
2.92901

> <i_epik_Tot_Q>
1

> <i_epik_Tot_abs_Q>
1

> <r_epik_Metal_State_Penalty>
1.55846

> <b_epik_Metal_Only>
0

> <s_lp_Force_Field>
OPLS_2005

> <r_lp_Energy>
23.9189

> <b_lp_Chiralities_Consistent>
1

> <s_lp_Variant>
AV-unprocessed.smi:937-7

> <Gold.Version>
5.8.1

> <Gold.Id.Protein>
6NUR|6NUR_protein|mol2

> <Gold.PLP.Fitness>
53.3173

> <Gold.PLP.PLP>
-48.5977

> <Gold.PLP.part.hbond>
-2.0000

> <Gold.PLP.part.metal>
0.0000

> <Gold.PLP.part.buried>
-7.9435

> <Gold.PLP.part.nonpolar>
-38.9862

> <Gold.PLP.part.repulsive>
0.1894

> <Gold.PLP.ligand.clash>
0.0000

> <Gold.PLP.ligand.torsion>
0.3536

> <Gold.PLP.Chemscore.Hbond>
1.7920

> <Gold.PLP.Chemscore.CHOScore>
0.0000

> <Gold.PLP.Chemscore.Metal>
0.0000

> <Gold.Chemscore.Hbonds>
donor molecule, donor type, donor heavy atom, donor atom, acceptor molecule, acceptor atom, score
      L1  H     8    33       P1  8028  0.85
      L1  H    11    34       P1  8028  1.00

> <Gold.PLP.Chemscore.Internal.Correction>
0.0509

> <Gold.Rescore>
     Score         DG    S(hbond)    S(metal)    S(lipo)     H(rot)  DE(clash)    DE(int)     intcor
     19.45     -20.43       1.79        0.00     112.88       1.66       0.11       0.87       ----

> <Gold.Chemscore.Fitness>
19.4504

> <Gold.Chemscore.DG>
-20.4310

> <Gold.Chemscore.ZeroCoef>
-5.4800

> <Gold.Chemscore.Hbond>
1.7933

> <Gold.Chemscore.Metal>
0.0000

> <Gold.Chemscore.Lipo>
112.8820

> <Gold.Chemscore.Internal_Hbond>
0.0000

> <Gold.Chemscore.DEClash>
0.1145

> <Gold.Chemscore.DEInternal>
0.8661

> <Gold.Chemscore.Rot>
1.6585

> <Gold.Chemscore.Internal.Correction>
   9.000000E+99

> <Gold.Chemscore.Hbonds>
donor molecule, donor type, donor heavy atom, donor atom, acceptor molecule, acceptor atom, score
      L1  H     8    33       P1  8028  0.82
      L1  H    11    34       P1  8028  0.94

> <Gold.Chemscore.Hbond.Weighted>
-5.9895

> <Gold.Chemscore.Metal.Weighted>
-0.0000

> <Gold.Chemscore.Lipo.Weighted>
-13.2072

> <Gold.Chemscore.Internal_Hbond.Weighted>
0.0000

> <Gold.Chemscore.DEClash.Weighted>
0.1145

> <Gold.Chemscore.DEInternal.Weighted>
0.8661

> <Gold.Chemscore.Rot.Weighted>
4.2457

> <Gold.Chemscore.Internal.Correction.Weighted>
   9.000000E+99

> <Gold.Protein.RotatedTorsions>
[ 6907 6896 6895 6894 ] final    8.32 input  -60.11 | X-H torsion
[ 7974 7965 7964 7962 ] final   65.37 input  175.53 | X-H torsion
[ 8008 7997 7996 7995 ] final  168.09 input   59.86 | X-H torsion
[ 10167 10162 10161 10158 ] final  106.32 input  -65.29 | X-H torsion
[ 10718 10713 10712 10709 ] final   35.66 input   66.30 | X-H torsion
[ 10763 10752 10751 10750 ] final  -76.01 input  -60.55 | X-H torsion
[ 11005 11000 10999 10996 ] final    4.17 input  -57.11 | X-H torsion

> <Gold.Protein.ActiveResidues>
 VAL166  LYS551  ARG553  GLY616  TRP617  ASP618  TYR619  PRO620  LYS621  CYS622 
 ASP623  PHE694  ASN695  SER759  ASP760  ASP761  ALA762  ILE779  LEU786  VAL792 
 PHE793  MET794  SER795  GLU796  ALA797  LYS798  CYS799  TRP800  GLU811  SER814 

> <Gold.Protein.RotatedAtoms>
  151.7041  135.0925  160.0255 H   0  0  0  0  0  0  0  0  0  0  0  0  # atno 6907 bound_to 6896
  152.3702  133.6405  159.6090 H   0  0  0  0  0  0  0  0  0  0  0  0  # atno 6908 bound_to 6896
  150.7668  133.9198  159.3436 H   0  0  0  0  0  0  0  0  0  0  0  0  # atno 6909 bound_to 6896
  145.8392  139.3185  143.0941 H   0  0  0  0  0  0  0  0  0  0  0  0  # atno 7974 bound_to 7965
  156.1578  140.1600  156.8664 H   0  0  0  0  0  0  0  0  0  0  0  0  # atno 8008 bound_to 7997
  154.5131  140.0796  156.8064 H   0  0  0  0  0  0  0  0  0  0  0  0  # atno 8009 bound_to 7997
  155.3769  140.3403  155.4247 H   0  0  0  0  0  0  0  0  0  0  0  0  # atno 8010 bound_to 7997
  139.7019  144.7093  151.1171 H   0  0  0  0  0  0  0  0  0  0  0  0  # atno 10167 bound_to 10162
  157.3254  130.7470  149.6812 H   0  0  0  0  0  0  0  0  0  0  0  0  # atno 10718 bound_to 10713
  154.4942  135.5812  153.6482 H   0  0  0  0  0  0  0  0  0  0  0  0  # atno 10763 bound_to 10752
  152.9867  135.6120  154.3086 H   0  0  0  0  0  0  0  0  0  0  0  0  # atno 10764 bound_to 10752
  154.2988  135.2847  155.2600 H   0  0  0  0  0  0  0  0  0  0  0  0  # atno 10765 bound_to 10752
  140.5849  133.9978  155.8063 H   0  0  0  0  0  0  0  0  0  0  0  0  # atno 11005 bound_to 11000
  145.9484  140.8927  143.0272 LP  0  0  0  0  0  0  0  0  0  0  0  0  # atno 17320 bound_to 7965
  144.6734  140.1645  143.7419 LP  0  0  0  0  0  0  0  0  0  0  0  0  # atno 17321 bound_to 7965
  140.7712  143.5412  150.9310 LP  0  0  0  0  0  0  0  0  0  0  0  0  # atno 17342 bound_to 10162
  139.9094  143.6739  152.3118 LP  0  0  0  0  0  0  0  0  0  0  0  0  # atno 17343 bound_to 10162
  155.9690  130.4211  150.4452 LP  0  0  0  0  0  0  0  0  0  0  0  0  # atno 17370 bound_to 10713
  157.2475  131.0539  151.2399 LP  0  0  0  0  0  0  0  0  0  0  0  0  # atno 17371 bound_to 10713
  141.0973  133.9824  157.3139 LP  0  0  0  0  0  0  0  0  0  0  0  0  # atno 17394 bound_to 11000
  139.9300  135.0200  156.8368 LP  0  0  0  0  0  0  0  0  0  0  0  0  # atno 17395 bound_to 11000

$$$$
