AV-unprocessed.smi:155|AV-procd|sdf|1268|dock1
  -GOLD-   2262018523D 1   1.00000     0.00000
 Structure written by MMmdl.
 63 66  0  0  0  0  0  0  0  0  2 V2000
  145.7214  132.5845  149.0887 C   0  0  0  0  0  0  0  0  0  0  0  0
  145.1989  133.5025  150.0920 N   0  0  0  0  0  0  0  0  0  0  0  0
  144.2443  132.7765  150.9227 C   0  0  0  0  0  0  0  0  0  0  0  0
  146.3106  134.0296  150.8831 C   0  0  0  0  0  0  0  0  0  0  0  0
  145.8627  134.8341  152.1292 C   0  0  0  0  0  0  0  0  0  0  0  0
  146.4614  136.1923  152.2557 N   0  3  1  0  0  0  0  0  0  0  0  0
  145.7938  137.2190  151.4170 C   0  0  0  0  0  0  0  0  0  0  0  0
  146.6360  138.4935  151.2457 C   0  0  0  0  0  0  0  0  0  0  0  0
  146.6449  139.3856  152.4974 C   0  0  0  0  0  0  0  0  0  0  0  0
  147.6013  138.9590  153.5206 N   0  0  0  0  0  0  0  0  0  0  0  0
  148.0524  139.8864  154.4058 C   0  0  0  0  0  0  0  0  0  0  0  0
  147.2044  140.8664  154.8172 N   0  0  0  0  0  0  0  0  0  0  0  0
  147.6108  141.7921  155.6907 C   0  0  0  0  0  0  0  0  0  0  0  0
  148.8062  141.9270  156.2668 N   0  0  0  0  0  0  0  0  0  0  0  0
  149.6672  140.9553  155.8517 C   0  0  0  0  0  0  0  0  0  0  0  0
  149.3770  139.9053  154.9338 C   0  0  0  0  0  0  0  0  0  0  0  0
  150.5096  139.1195  154.7474 N   0  0  0  0  0  0  0  0  0  0  0  0
  151.4115  139.6669  155.5154 C   0  0  0  0  0  0  0  0  0  0  0  0
  150.9893  140.7726  156.2166 N   0  0  0  0  0  0  0  0  0  0  0  0
  151.7849  141.5726  157.1324 C   0  0  0  0  0  0  0  0  0  0  0  0
  151.0560  142.8568  157.5825 C   0  0  2  0  0  0  0  0  0  0  0  0
  150.9120  143.6998  156.4553 O   0  0  0  0  0  0  0  0  0  0  0  0
  151.8247  143.6442  158.6631 C   0  0  2  0  0  0  0  0  0  0  0  0
  151.8894  142.9648  160.0321 C   0  0  0  0  0  0  0  0  0  0  0  0
  152.1348  144.1203  160.9863 C   0  0  0  0  0  0  0  0  0  0  0  0
  151.6475  145.3447  160.2078 C   0  0  0  0  0  0  0  0  0  0  0  0
  151.1196  144.8328  158.9909 O   0  0  0  0  0  0  0  0  0  0  0  0
  147.9093  137.5504  153.7720 C   0  0  0  0  0  0  0  0  0  0  0  0
  146.6918  136.6196  153.6585 C   0  0  0  0  0  0  0  0  0  0  0  0
  146.4164  133.0971  148.4228 H   0  0  0  0  0  0  0  0  0  0  0  0
  144.9136  132.1851  148.4744 H   0  0  0  0  0  0  0  0  0  0  0  0
  146.2460  131.7463  149.5501 H   0  0  0  0  0  0  0  0  0  0  0  0
  143.7732  133.4288  151.6567 H   0  0  0  0  0  0  0  0  0  0  0  0
  144.7242  131.9532  151.4540 H   0  0  0  0  0  0  0  0  0  0  0  0
  143.4456  132.3608  150.3072 H   0  0  0  0  0  0  0  0  0  0  0  0
  146.9381  133.1952  151.2001 H   0  0  0  0  0  0  0  0  0  0  0  0
  146.9500  134.6504  150.2559 H   0  0  0  0  0  0  0  0  0  0  0  0
  144.7777  134.9002  152.2015 H   0  0  0  0  0  0  0  0  0  0  0  0
  146.1636  134.2722  153.0142 H   0  0  0  0  0  0  0  0  0  0  0  0
  145.6154  136.7942  150.4283 H   0  0  0  0  0  0  0  0  0  0  0  0
  144.8160  137.4735  151.8273 H   0  0  0  0  0  0  0  0  0  0  0  0
  147.6501  138.2600  150.9182 H   0  0  0  0  0  0  0  0  0  0  0  0
  146.1898  139.0712  150.4356 H   0  0  0  0  0  0  0  0  0  0  0  0
  146.9114  140.3957  152.1826 H   0  0  0  0  0  0  0  0  0  0  0  0
  145.6458  139.4510  152.9304 H   0  0  0  0  0  0  0  0  0  0  0  0
  146.8726  142.5304  155.9676 H   0  0  0  0  0  0  0  0  0  0  0  0
  152.4165  139.2778  155.5924 H   0  0  0  0  0  0  0  0  0  0  0  0
  152.0257  140.9458  157.9911 H   0  0  0  0  0  0  0  0  0  0  0  0
  152.7334  141.8206  156.6540 H   0  0  0  0  0  0  0  0  0  0  0  0
  150.0645  142.5956  157.9554 H   0  0  0  0  0  0  0  0  0  0  0  0
  150.0756  144.1359  156.5110 H   0  0  0  0  0  0  0  0  0  0  0  0
  152.8344  143.8912  158.3277 H   0  0  0  0  0  0  0  0  0  0  0  0
  150.9317  142.4966  160.2650 H   0  0  0  0  0  0  0  0  0  0  0  0
  152.6640  142.1995  160.0908 H   0  0  0  0  0  0  0  0  0  0  0  0
  151.5973  143.9851  161.9255 H   0  0  0  0  0  0  0  0  0  0  0  0
  153.1964  144.2171  161.2161 H   0  0  0  0  0  0  0  0  0  0  0  0
  150.8863  145.9068  160.7492 H   0  0  0  0  0  0  0  0  0  0  0  0
  152.4779  146.0174  159.9896 H   0  0  0  0  0  0  0  0  0  0  0  0
  148.7134  137.2247  153.1111 H   0  0  0  0  0  0  0  0  0  0  0  0
  148.2899  137.4465  154.7886 H   0  0  0  0  0  0  0  0  0  0  0  0
  145.7974  137.0641  154.0980 H   0  0  0  0  0  0  0  0  0  0  0  0
  146.9141  135.7326  154.2529 H   0  0  0  0  0  0  0  0  0  0  0  0
  147.3861  136.0864  151.8634 H   0  0  0  0  0  0  0  0  0  0  0  0
  1  2  1  0  0  0  0
  1 30  1  0  0  0  0
  1 31  1  0  0  0  0
  1 32  1  0  0  0  0
  2  3  1  0  0  0  0
  2  4  1  0  0  0  0
  3 33  1  0  0  0  0
  3 34  1  0  0  0  0
  3 35  1  0  0  0  0
  4  5  1  0  0  0  0
  4 36  1  0  0  0  0
  4 37  1  0  0  0  0
  5  6  1  0  0  0  0
  5 38  1  0  0  0  0
  5 39  1  0  0  0  0
  6 29  1  0  0  0  0
  6  7  1  0  0  0  0
  6 63  1  0  0  0  0
  7  8  1  0  0  0  0
  7 40  1  0  0  0  0
  7 41  1  0  0  0  0
  8  9  1  0  0  0  0
  8 42  1  0  0  0  0
  8 43  1  0  0  0  0
  9 10  1  0  0  0  0
  9 44  1  0  0  0  0
  9 45  1  0  0  0  0
 10 11  1  0  0  0  0
 10 28  1  0  0  0  0
 11 16  1  0  0  0  0
 11 12  2  0  0  0  0
 12 13  1  0  0  0  0
 13 14  2  0  0  0  0
 13 46  1  0  0  0  0
 14 15  1  0  0  0  0
 15 19  1  0  0  0  0
 15 16  2  0  0  0  0
 16 17  1  0  0  0  0
 17 18  2  0  0  0  0
 18 19  1  0  0  0  0
 18 47  1  0  0  0  0
 19 20  1  0  0  0  0
 20 21  1  0  0  0  0
 20 48  1  0  0  0  0
 20 49  1  0  0  0  0
 21 22  1  0  0  0  0
 21 23  1  0  0  0  0
 21 50  1  0  0  0  0
 22 51  1  0  0  0  0
 23 27  1  0  0  0  0
 23 24  1  0  0  0  0
 23 52  1  0  0  0  0
 24 25  1  0  0  0  0
 24 53  1  0  0  0  0
 24 54  1  0  0  0  0
 25 26  1  0  0  0  0
 25 55  1  0  0  0  0
 25 56  1  0  0  0  0
 26 27  1  0  0  0  0
 26 57  1  0  0  0  0
 26 58  1  0  0  0  0
 28 29  1  0  0  0  0
 28 59  1  0  0  0  0
 28 60  1  0  0  0  0
 29 61  1  0  0  0  0
 29 62  1  0  0  0  0
M  CHG  1   6   1
M  END
> <s_m_source_file>
AV-unprocessed.smi

> <i_m_source_file_index>
155

> <i_lp_mmshare_version>
43012

> <i_f3d_flags>
0

> <s_epik_input>
W0NIM11OKFtDSDNdKVtDSDJdW0NIMl1OMVtDSDJdW0NIMl1bQ0gyXU4oW0NIMl1bQ0gyXTEpYyhuW2NIXW4yKWMoYzIzKW5bY0hdbjNbQ0gyXVtDQEhdKFtPSF0pW0NAQEhdNFtDSDJdW0NIMl1bQ0gyXU80

> <s_epik_cmdline>
J2VwaWtfcHl0aG9uJywgJy1waCcsICc3LjAnLCAnLXRuJywgJzgnLCAnLW1hJywgJzIwMCcsICctbWV0YWxfYmluZGluZycsICctaW1hZScsICc8aW5maWxlLm1hZT4nLCAnLW9tYWUnLCAnPG91dGZpbGUubWFlPic=

> <r_epik_Ionization_Penalty>
0.0619615

> <r_epik_Ionization_Penalty_Charging>
0.0161638

> <r_epik_Ionization_Penalty_Neutral>
0.0457976

> <r_epik_State_Penalty>
0.403408

> <r_epik_Charging_Adjusted_Penalty>
0.419572

> <i_epik_Tot_Q>
1

> <i_epik_Tot_abs_Q>
1

> <r_epik_Metal_State_Penalty>
0.404222

> <b_epik_Metal_Only>
0

> <s_lp_Force_Field>
OPLS_2005

> <r_lp_Energy>
54.9727

> <b_lp_Chiralities_Consistent>
1

> <s_lp_Variant>
AV-unprocessed.smi:155-2

> <Gold.Version>
5.8.1

> <Gold.Id.Protein>
6NUR|6NUR_protein|mol2

> <Gold.PLP.Fitness>
52.1417

> <Gold.PLP.PLP>
-45.0475

> <Gold.PLP.part.hbond>
-2.0000

> <Gold.PLP.part.metal>
0.0000

> <Gold.PLP.part.buried>
2.4763

> <Gold.PLP.part.nonpolar>
-46.4623

> <Gold.PLP.part.repulsive>
3.0864

> <Gold.PLP.ligand.clash>
0.0000

> <Gold.PLP.ligand.torsion>
1.4782

> <Gold.PLP.Chemscore.Hbond>
3.0000

> <Gold.PLP.Chemscore.CHOScore>
0.1738

> <Gold.PLP.Chemscore.Metal>
0.0000

> <Gold.Chemscore.Hbonds>
donor molecule, donor type, donor heavy atom, donor atom, acceptor molecule, acceptor atom, score
      L1  H     6    63       P1  7948  2.00
      L1  H    22    51       P1  8028  0.88

> <Gold.PLP.Chemscore.Internal.Correction>
0.5291

> <Gold.Rescore>
     Score         DG    S(hbond)    S(metal)    S(lipo)     H(rot)  DE(clash)    DE(int)     intcor
     15.15     -19.16       1.88        0.00     120.74       2.63       1.14       2.87       ----

> <Gold.Chemscore.Fitness>
15.1543

> <Gold.Chemscore.DG>
-19.1623

> <Gold.Chemscore.ZeroCoef>
-5.4800

> <Gold.Chemscore.Hbond>
1.8845

> <Gold.Chemscore.Metal>
0.0000

> <Gold.Chemscore.Lipo>
120.7442

> <Gold.Chemscore.Internal_Hbond>
0.0000

> <Gold.Chemscore.DEClash>
1.1351

> <Gold.Chemscore.DEInternal>
2.8730

> <Gold.Chemscore.Rot>
2.6324

> <Gold.Chemscore.Internal.Correction>
   9.000000E+99

> <Gold.Chemscore.Hbonds>
donor molecule, donor type, donor heavy atom, donor atom, acceptor molecule, acceptor atom, score
      L1  H     6    63       P1  7948  0.93
      L1  H    22    51       P1  8028  0.83

> <Gold.Chemscore.Hbond.Weighted>
-6.2941

> <Gold.Chemscore.Metal.Weighted>
-0.0000

> <Gold.Chemscore.Lipo.Weighted>
-14.1271

> <Gold.Chemscore.Internal_Hbond.Weighted>
0.0000

> <Gold.Chemscore.DEClash.Weighted>
1.1351

> <Gold.Chemscore.DEInternal.Weighted>
2.8730

> <Gold.Chemscore.Rot.Weighted>
6.7389

> <Gold.Chemscore.Internal.Correction.Weighted>
   9.000000E+99

> <Gold.Protein.RotatedTorsions>
[ 6907 6896 6895 6894 ] final  126.62 input  -60.11 | X-H torsion
[ 7974 7965 7964 7962 ] final   83.17 input  175.53 | X-H torsion
[ 8008 7997 7996 7995 ] final -109.76 input   59.86 | X-H torsion
[ 10167 10162 10161 10158 ] final -159.25 input  -65.29 | X-H torsion
[ 10718 10713 10712 10709 ] final   82.39 input   66.30 | X-H torsion
[ 10763 10752 10751 10750 ] final    5.09 input  -60.55 | X-H torsion
[ 11005 11000 10999 10996 ] final  159.85 input  -57.11 | X-H torsion

> <Gold.Protein.ActiveResidues>
 VAL166  LYS551  ARG553  GLY616  TRP617  ASP618  TYR619  PRO620  LYS621  CYS622 
 ASP623  PHE694  ASN695  SER759  ASP760  ASP761  ALA762  ILE779  LEU786  VAL792 
 PHE793  MET794  SER795  GLU796  ALA797  LYS798  CYS799  TRP800  GLU811  SER814 

> <Gold.Protein.RotatedAtoms>
  152.3887  133.6648  159.6219 H   0  0  0  0  0  0  0  0  0  0  0  0  # atno 6907 bound_to 6896
  150.7800  133.8991  159.3344 H   0  0  0  0  0  0  0  0  0  0  0  0  # atno 6908 bound_to 6896
  151.6782  135.0967  160.0262 H   0  0  0  0  0  0  0  0  0  0  0  0  # atno 6909 bound_to 6896
  145.6154  139.2376  143.2168 H   0  0  0  0  0  0  0  0  0  0  0  0  # atno 7974 bound_to 7965
  154.9643  140.0398  157.2204 H   0  0  0  0  0  0  0  0  0  0  0  0  # atno 8008 bound_to 7997
  154.7860  140.2827  155.6005 H   0  0  0  0  0  0  0  0  0  0  0  0  # atno 8009 bound_to 7997
  156.2943  140.2582  156.2697 H   0  0  0  0  0  0  0  0  0  0  0  0  # atno 8010 bound_to 7997
  139.6630  143.9880  152.2237 H   0  0  0  0  0  0  0  0  0  0  0  0  # atno 10167 bound_to 10162
  157.6856  131.0046  150.2368 H   0  0  0  0  0  0  0  0  0  0  0  0  # atno 10718 bound_to 10713
  153.2634  135.6925  153.7554 H   0  0  0  0  0  0  0  0  0  0  0  0  # atno 10763 bound_to 10752
  153.6605  135.3361  155.3126 H   0  0  0  0  0  0  0  0  0  0  0  0  # atno 10764 bound_to 10752
  154.8438  135.4476  154.1633 H   0  0  0  0  0  0  0  0  0  0  0  0  # atno 10765 bound_to 10752
  140.2002  134.8344  157.3009 H   0  0  0  0  0  0  0  0  0  0  0  0  # atno 11005 bound_to 11000
  146.1472  140.6976  142.9339 LP  0  0  0  0  0  0  0  0  0  0  0  0  # atno 17320 bound_to 7965
  144.7252  140.4503  143.6978 LP  0  0  0  0  0  0  0  0  0  0  0  0  # atno 17321 bound_to 7965
  139.9624  144.6549  150.8067 LP  0  0  0  0  0  0  0  0  0  0  0  0  # atno 17342 bound_to 10162
  140.7588  143.3114  151.2836 LP  0  0  0  0  0  0  0  0  0  0  0  0  # atno 17343 bound_to 10162
  156.2990  130.3756  149.7769 LP  0  0  0  0  0  0  0  0  0  0  0  0  # atno 17370 bound_to 10713
  156.5405  130.8297  151.3267 LP  0  0  0  0  0  0  0  0  0  0  0  0  # atno 17371 bound_to 10713
  140.2063  134.4193  155.7636 LP  0  0  0  0  0  0  0  0  0  0  0  0  # atno 17394 bound_to 11000
  141.2227  133.7096  156.8266 LP  0  0  0  0  0  0  0  0  0  0  0  0  # atno 17395 bound_to 11000

$$$$
