AV-unprocessed.smi:3303|AV-procd|sdf|12664|dock3
  -GOLD-   2272019 03D 1   1.00000     0.00000
 Structure written by MMmdl.
 45 46  0  0  0  0  0  0  0  0  3 V2000
  152.0976  138.3841  155.0074 C   0  0  0  0  0  0  0  0  0  0  0  0
  151.0247  139.4073  154.5986 C   0  0  1  0  0  0  0  0  0  0  0  0
  149.6853  138.7352  154.2385 C   0  0  0  0  0  0  0  0  0  0  0  0
  148.6831  139.7212  153.7545 N   0  3  1  0  0  0  0  0  0  0  0  0
  147.4546  139.0370  153.2823 C   0  0  0  0  0  0  0  0  0  0  0  0
  148.4286  140.8048  154.7518 C   0  0  2  0  0  0  0  0  0  0  0  0
  147.4290  141.8591  154.2375 C   0  0  0  0  0  0  0  0  0  0  0  0
  149.7500  141.5015  155.1508 C   0  0  0  0  0  0  0  0  0  0  0  0
  150.8252  140.5209  155.6478 C   0  0  1  0  0  0  0  0  0  0  0  0
  150.4642  139.9781  156.9802 N   0  3  0  0  0  0  0  0  0  0  0  0
  150.5376  140.9536  158.0863 C   0  0  0  0  0  0  0  0  0  0  0  0
  151.9932  141.3241  158.3997 C   0  0  0  0  0  0  0  0  0  0  0  0
  152.1189  142.0962  159.6990 C   0  0  0  0  0  0  0  0  0  0  0  0
  151.6497  143.4234  159.7992 C   0  0  0  0  0  0  0  0  0  0  0  0
  151.7858  144.0905  161.0323 C   0  0  0  0  0  0  0  0  0  0  0  0
  152.3819  143.4083  162.1106 C   0  0  0  0  0  0  0  0  0  0  0  0
  152.8162  142.0832  161.9082 C   0  0  0  0  0  0  0  0  0  0  0  0
  152.6886  141.4337  160.7305 N   0  0  0  0  0  0  0  0  0  0  0  0
  151.8004  137.8143  155.8883 H   0  0  0  0  0  0  0  0  0  0  0  0
  153.0446  138.8760  155.2317 H   0  0  0  0  0  0  0  0  0  0  0  0
  152.2827  137.6707  154.2036 H   0  0  0  0  0  0  0  0  0  0  0  0
  151.3923  139.8881  153.6902 H   0  0  0  0  0  0  0  0  0  0  0  0
  149.8597  137.9924  153.4586 H   0  0  0  0  0  0  0  0  0  0  0  0
  149.2830  138.1965  155.0982 H   0  0  0  0  0  0  0  0  0  0  0  0
  146.8874  138.6279  154.1194 H   0  0  0  0  0  0  0  0  0  0  0  0
  147.7022  138.2157  152.6091 H   0  0  0  0  0  0  0  0  0  0  0  0
  146.8092  139.7130  152.7224 H   0  0  0  0  0  0  0  0  0  0  0  0
  147.9981  140.3444  155.6430 H   0  0  0  0  0  0  0  0  0  0  0  0
  147.3379  142.6859  154.9428 H   0  0  0  0  0  0  0  0  0  0  0  0
  146.4269  141.4491  154.1125 H   0  0  0  0  0  0  0  0  0  0  0  0
  147.7466  142.2767  153.2812 H   0  0  0  0  0  0  0  0  0  0  0  0
  150.1407  142.0426  154.2874 H   0  0  0  0  0  0  0  0  0  0  0  0
  149.5617  142.2574  155.9151 H   0  0  0  0  0  0  0  0  0  0  0  0
  151.7612  141.0756  155.7381 H   0  0  0  0  0  0  0  0  0  0  0  0
  149.5190  139.6243  156.9386 H   0  0  0  0  0  0  0  0  0  0  0  0
  149.9772  141.8494  157.8150 H   0  0  0  0  0  0  0  0  0  0  0  0
  150.0606  140.5260  158.9697 H   0  0  0  0  0  0  0  0  0  0  0  0
  152.6052  140.4231  158.4647 H   0  0  0  0  0  0  0  0  0  0  0  0
  152.4099  141.9203  157.5867 H   0  0  0  0  0  0  0  0  0  0  0  0
  151.1962  143.9222  158.9550 H   0  0  0  0  0  0  0  0  0  0  0  0
  151.4394  145.1069  161.1488 H   0  0  0  0  0  0  0  0  0  0  0  0
  152.5031  143.8890  163.0702 H   0  0  0  0  0  0  0  0  0  0  0  0
  153.2765  141.5299  162.7134 H   0  0  0  0  0  0  0  0  0  0  0  0
  151.0855  139.2108  157.1936 H   0  0  0  0  0  0  0  0  0  0  0  0
  149.0885  140.1642  152.9418 H   0  0  0  0  0  0  0  0  0  0  0  0
  1  2  1  0  0  0  0
  1 19  1  0  0  0  0
  1 20  1  0  0  0  0
  1 21  1  0  0  0  0
  2  9  1  0  0  0  0
  2  3  1  0  0  0  0
  2 22  1  0  0  0  0
  3  4  1  0  0  0  0
  3 23  1  0  0  0  0
  3 24  1  0  0  0  0
  4  5  1  0  0  0  0
  4  6  1  0  0  0  0
  4 45  1  0  0  0  0
  5 25  1  0  0  0  0
  5 26  1  0  0  0  0
  5 27  1  0  0  0  0
  6  7  1  0  0  0  0
  6  8  1  0  0  0  0
  6 28  1  0  0  0  0
  7 29  1  0  0  0  0
  7 30  1  0  0  0  0
  7 31  1  0  0  0  0
  8  9  1  0  0  0  0
  8 32  1  0  0  0  0
  8 33  1  0  0  0  0
  9 10  1  0  0  0  0
  9 34  1  0  0  0  0
 10 11  1  0  0  0  0
 10 35  1  0  0  0  0
 10 44  1  0  0  0  0
 11 12  1  0  0  0  0
 11 36  1  0  0  0  0
 11 37  1  0  0  0  0
 12 13  1  0  0  0  0
 12 38  1  0  0  0  0
 12 39  1  0  0  0  0
 13 18  1  0  0  0  0
 13 14  2  0  0  0  0
 14 15  1  0  0  0  0
 14 40  1  0  0  0  0
 15 16  2  0  0  0  0
 15 41  1  0  0  0  0
 16 17  1  0  0  0  0
 16 42  1  0  0  0  0
 17 18  2  0  0  0  0
 17 43  1  0  0  0  0
M  CHG  1   4   1
M  CHG  1  10   1
M  END
> <s_m_source_file>
AV-unprocessed.smi

> <i_m_source_file_index>
3303

> <i_lp_mmshare_version>
43012

> <i_f3d_flags>
0

> <s_epik_input>
W0NIM11bQ0BASF0xW0NIMl1OKFtDSDNdKVtDQEBIXShbQ0gzXSlbQ0gyXVtDQEhdMVtOSF1bQ0gyXVtDSDJdYzJbY0hdW2NIXVtjSF1bY0hdbjI=

> <s_epik_cmdline>
J2VwaWtfcHl0aG9uJywgJy1waCcsICc3LjAnLCAnLXRuJywgJzgnLCAnLW1hJywgJzIwMCcsICctbWV0YWxfYmluZGluZycsICctaW1hZScsICc8aW5maWxlLm1hZT4nLCAnLW9tYWUnLCAnPG91dGZpbGUubWFlPic=

> <r_epik_Ionization_Penalty>
0.0769462

> <r_epik_Ionization_Penalty_Charging>
0.0759813

> <r_epik_Ionization_Penalty_Neutral>
0.000964829

> <r_epik_State_Penalty>
0.0654373

> <r_epik_Charging_Adjusted_Penalty>
0.141419

> <i_epik_Tot_Q>
2

> <i_epik_Tot_abs_Q>
2

> <r_epik_Metal_State_Penalty>
0.0656439

> <b_epik_Metal_Only>
0

> <s_lp_Force_Field>
OPLS_2005

> <r_lp_Energy>
34.3244

> <b_lp_Chiralities_Consistent>
1

> <s_lp_Variant>
AV-unprocessed.smi:3303-8

> <Gold.Version>
5.8.1

> <Gold.Id.Protein>
6NUR|6NUR_protein|mol2

> <Gold.PLP.Fitness>
47.4237

> <Gold.PLP.PLP>
-44.8470

> <Gold.PLP.part.hbond>
-1.0000

> <Gold.PLP.part.metal>
0.0000

> <Gold.PLP.part.buried>
-3.1794

> <Gold.PLP.part.nonpolar>
-39.7755

> <Gold.PLP.part.repulsive>
0.1187

> <Gold.PLP.ligand.clash>
0.0000

> <Gold.PLP.ligand.torsion>
0.2295

> <Gold.PLP.Chemscore.Hbond>
1.0000

> <Gold.PLP.Chemscore.CHOScore>
0.0000

> <Gold.PLP.Chemscore.Metal>
0.0000

> <Gold.Chemscore.Hbonds>
donor molecule, donor type, donor heavy atom, donor atom, acceptor molecule, acceptor atom, score
      L1  H     4    45       P1  7957  0.98

> <Gold.PLP.Chemscore.Internal.Correction>
0.0358

> <Gold.Rescore>
     Score         DG    S(hbond)    S(metal)    S(lipo)     H(rot)  DE(clash)    DE(int)     intcor
     19.73     -20.16       1.00        0.00     127.04       1.37       0.24       0.19       ----

> <Gold.Chemscore.Fitness>
19.7296

> <Gold.Chemscore.DG>
-20.1640

> <Gold.Chemscore.ZeroCoef>
-5.4800

> <Gold.Chemscore.Hbond>
0.9997

> <Gold.Chemscore.Metal>
0.0000

> <Gold.Chemscore.Lipo>
127.0377

> <Gold.Chemscore.Internal_Hbond>
0.0000

> <Gold.Chemscore.DEClash>
0.2430

> <Gold.Chemscore.DEInternal>
0.1913

> <Gold.Chemscore.Rot>
1.3744

> <Gold.Chemscore.Internal.Correction>
   9.000000E+99

> <Gold.Chemscore.Hbonds>
donor molecule, donor type, donor heavy atom, donor atom, acceptor molecule, acceptor atom, score
      L1  H     4    45       P1  7957  0.93

> <Gold.Chemscore.Hbond.Weighted>
-3.3390

> <Gold.Chemscore.Metal.Weighted>
-0.0000

> <Gold.Chemscore.Lipo.Weighted>
-14.8634

> <Gold.Chemscore.Internal_Hbond.Weighted>
0.0000

> <Gold.Chemscore.DEClash.Weighted>
0.2430

> <Gold.Chemscore.DEInternal.Weighted>
0.1913

> <Gold.Chemscore.Rot.Weighted>
3.5185

> <Gold.Chemscore.Internal.Correction.Weighted>
   9.000000E+99

> <Gold.Protein.RotatedTorsions>
[ 6907 6896 6895 6894 ] final  -27.21 input  -60.11 | X-H torsion
[ 7974 7965 7964 7962 ] final -118.10 input  175.53 | X-H torsion
[ 8008 7997 7996 7995 ] final   25.87 input   59.86 | X-H torsion
[ 10167 10162 10161 10158 ] final -169.66 input  -65.29 | X-H torsion
[ 10718 10713 10712 10709 ] final   66.30 input   66.30 | X-H torsion
[ 10763 10752 10751 10750 ] final  105.09 input  -60.55 | X-H torsion
[ 11005 11000 10999 10996 ] final   61.30 input  -57.11 | X-H torsion

> <Gold.Protein.ActiveResidues>
 VAL166  LYS551  ARG553  GLY616  TRP617  ASP618  TYR619  PRO620  LYS621  CYS622 
 ASP623  PHE694  ASN695  SER759  ASP760  ASP761  ALA762  ILE779  LEU786  VAL792 
 PHE793  MET794  SER795  GLU796  ALA797  LYS798  CYS799  TRP800  GLU811  SER814 

> <Gold.Protein.RotatedAtoms>
  151.1501  135.0223  159.8664 H   0  0  0  0  0  0  0  0  0  0  0  0  # atno 6907 bound_to 6896
  152.5453  134.1398  159.8484 H   0  0  0  0  0  0  0  0  0  0  0  0  # atno 6908 bound_to 6896
  151.1483  133.4879  159.2628 H   0  0  0  0  0  0  0  0  0  0  0  0  # atno 6909 bound_to 6896
  145.0776  140.8403  143.4058 H   0  0  0  0  0  0  0  0  0  0  0  0  # atno 7974 bound_to 7965
  155.0184  140.3145  155.4802 H   0  0  0  0  0  0  0  0  0  0  0  0  # atno 8008 bound_to 7997
  156.2896  140.2202  156.5243 H   0  0  0  0  0  0  0  0  0  0  0  0  # atno 8009 bound_to 7997
  154.7473  140.0469  157.0851 H   0  0  0  0  0  0  0  0  0  0  0  0  # atno 8010 bound_to 7997
  139.5909  144.1215  152.1633 H   0  0  0  0  0  0  0  0  0  0  0  0  # atno 10167 bound_to 10162
  157.6160  130.9260  150.0091 H   0  0  0  0  0  0  0  0  0  0  0  0  # atno 10718 bound_to 10713
  153.3747  135.3921  155.1814 H   0  0  0  0  0  0  0  0  0  0  0  0  # atno 10763 bound_to 10752
  154.8699  135.3711  154.4933 H   0  0  0  0  0  0  0  0  0  0  0  0  # atno 10764 bound_to 10752
  153.5404  135.7084  153.5700 H   0  0  0  0  0  0  0  0  0  0  0  0  # atno 10765 bound_to 10752
  140.0170  134.6209  155.9694 H   0  0  0  0  0  0  0  0  0  0  0  0  # atno 11005 bound_to 11000
  145.1216  139.2689  143.5585 LP  0  0  0  0  0  0  0  0  0  0  0  0  # atno 17320 bound_to 7965
  146.3530  140.0842  142.8616 LP  0  0  0  0  0  0  0  0  0  0  0  0  # atno 17321 bound_to 7965
  140.0789  144.5717  150.7136 LP  0  0  0  0  0  0  0  0  0  0  0  0  # atno 17342 bound_to 10162
  140.7172  143.2555  151.4396 LP  0  0  0  0  0  0  0  0  0  0  0  0  # atno 17343 bound_to 10162
  156.1283  130.3644  149.9773 LP  0  0  0  0  0  0  0  0  0  0  0  0  # atno 17370 bound_to 10713
  156.7839  130.9231  151.3646 LP  0  0  0  0  0  0  0  0  0  0  0  0  # atno 17371 bound_to 10713
  141.1749  133.6539  156.4792 LP  0  0  0  0  0  0  0  0  0  0  0  0  # atno 17394 bound_to 11000
  140.4453  134.6978  157.5012 LP  0  0  0  0  0  0  0  0  0  0  0  0  # atno 17395 bound_to 11000

$$$$
