AV-unprocessed.smi:129|AV-procd|sdf|1158|dock7
  -GOLD-   2262018293D 1   1.00000     0.00000
 Structure written by MMmdl.
 58 61  0  0  0  0  0  0  0  0  1 V2000
  153.2690  143.5301  163.6941 C   0  0  0  0  0  0  0  0  0  0  0  0
  153.1548  142.5921  162.6340 O   0  0  0  0  0  0  0  0  0  0  0  0
  152.6945  143.0369  161.4100 C   0  0  0  0  0  0  0  0  0  0  0  0
  152.2326  144.3589  161.1829 C   0  0  0  0  0  0  0  0  0  0  0  0
  151.7804  144.7514  159.9099 C   0  0  0  0  0  0  0  0  0  0  0  0
  151.7898  143.8336  158.8463 C   0  0  0  0  0  0  0  0  0  0  0  0
  152.2450  142.5198  159.0565 C   0  0  0  0  0  0  0  0  0  0  0  0
  152.6860  142.1104  160.3390 C   0  0  0  0  0  0  0  0  0  0  0  0
  153.1745  140.8005  160.6078 N   0  0  0  0  0  0  0  0  0  0  0  0
  153.6081  139.8588  159.7479 C   0  0  0  0  0  0  0  0  0  0  0  0
  153.7059  140.0033  158.5294 O   0  0  0  0  0  0  0  0  0  0  0  0
  154.0394  138.5714  160.3909 C   0  0  0  0  0  0  0  0  0  0  0  0
  154.3474  137.4521  159.5877 C   0  0  0  0  0  0  0  0  0  0  0  0
  154.7294  136.2328  160.1783 C   0  0  0  0  0  0  0  0  0  0  0  0
  154.8110  136.1089  161.5798 C   0  0  0  0  0  0  0  0  0  0  0  0
  155.1840  134.8382  162.0958 N   0  0  0  0  0  0  0  0  0  0  0  0
  155.1772  133.6401  161.4839 C   0  0  0  0  0  0  0  0  0  0  0  0
  154.7814  133.4441  160.3341 O   0  0  0  0  0  0  0  0  0  0  0  0
  155.6671  132.4680  162.3484 C   0  0  0  0  0  0  0  0  0  0  0  0
  154.6336  131.4362  162.5838 N   0  0  0  0  0  0  0  0  0  0  0  0
  154.1824  130.6681  161.4818 C   0  0  0  0  0  0  0  0  0  0  0  0
  154.6397  130.8434  160.3513 O   0  0  0  0  0  0  0  0  0  0  0  0
  153.1530  129.6798  161.7823 C   0  0  0  0  0  0  0  0  0  0  0  0
  152.6728  128.8992  160.7993 F   0  0  0  0  0  0  0  0  0  0  0  0
  152.6732  129.5345  163.0346 C   0  0  0  0  0  0  0  0  0  0  0  0
  153.1142  130.3003  164.0991 N   0  0  0  0  0  0  0  0  0  0  0  0
  152.5552  130.1330  165.4958 C   0  0  1  0  0  0  0  0  0  0  0  0
  151.3495  129.1759  165.4842 C   0  0  0  0  0  0  0  0  0  0  0  0
  151.6872  128.2035  166.5965 C   0  0  0  0  0  0  0  0  0  0  0  0
  153.2080  128.1982  166.5575 C   0  0  0  0  0  0  0  0  0  0  0  0
  153.5247  129.5660  166.3311 O   0  0  0  0  0  0  0  0  0  0  0  0
  154.1133  131.2757  163.8900 C   0  0  0  0  0  0  0  0  0  0  0  0
  154.5134  131.9739  164.8243 O   0  0  0  0  0  0  0  0  0  0  0  0
  154.4777  137.2212  162.3894 C   0  0  0  0  0  0  0  0  0  0  0  0
  154.0972  138.4417  161.7978 C   0  0  0  0  0  0  0  0  0  0  0  0
  153.6477  143.0235  164.5816 H   0  0  0  0  0  0  0  0  0  0  0  0
  152.3012  143.9633  163.9503 H   0  0  0  0  0  0  0  0  0  0  0  0
  153.9699  144.3285  163.4465 H   0  0  0  0  0  0  0  0  0  0  0  0
  152.2157  145.0959  161.9712 H   0  0  0  0  0  0  0  0  0  0  0  0
  151.4320  145.7608  159.7483 H   0  0  0  0  0  0  0  0  0  0  0  0
  151.4534  144.1385  157.8664 H   0  0  0  0  0  0  0  0  0  0  0  0
  152.2592  141.8497  158.2115 H   0  0  0  0  0  0  0  0  0  0  0  0
  153.1086  140.5106  161.5729 H   0  0  0  0  0  0  0  0  0  0  0  0
  154.2955  137.5210  158.5107 H   0  0  0  0  0  0  0  0  0  0  0  0
  154.9633  135.3891  159.5454 H   0  0  0  0  0  0  0  0  0  0  0  0
  155.4448  134.8303  163.0712 H   0  0  0  0  0  0  0  0  0  0  0  0
  156.5486  132.0262  161.8799 H   0  0  0  0  0  0  0  0  0  0  0  0
  156.0447  132.8728  163.2884 H   0  0  0  0  0  0  0  0  0  0  0  0
  151.9136  128.7841  163.1900 H   0  0  0  0  0  0  0  0  0  0  0  0
  152.3240  131.1399  165.8484 H   0  0  0  0  0  0  0  0  0  0  0  0
  150.4175  129.7168  165.6513 H   0  0  0  0  0  0  0  0  0  0  0  0
  151.2910  128.6547  164.5269 H   0  0  0  0  0  0  0  0  0  0  0  0
  151.3395  128.5926  167.5544 H   0  0  0  0  0  0  0  0  0  0  0  0
  151.2522  127.2149  166.4484 H   0  0  0  0  0  0  0  0  0  0  0  0
  153.6534  127.8316  167.4824 H   0  0  0  0  0  0  0  0  0  0  0  0
  153.5722  127.5845  165.7325 H   0  0  0  0  0  0  0  0  0  0  0  0
  154.4881  137.1586  163.4664 H   0  0  0  0  0  0  0  0  0  0  0  0
  153.8389  139.2725  162.4387 H   0  0  0  0  0  0  0  0  0  0  0  0
  1  2  1  0  0  0  0
  1 36  1  0  0  0  0
  1 37  1  0  0  0  0
  1 38  1  0  0  0  0
  2  3  1  0  0  0  0
  3  8  1  0  0  0  0
  3  4  2  0  0  0  0
  4  5  1  0  0  0  0
  4 39  1  0  0  0  0
  5  6  2  0  0  0  0
  5 40  1  0  0  0  0
  6  7  1  0  0  0  0
  6 41  1  0  0  0  0
  7  8  2  0  0  0  0
  7 42  1  0  0  0  0
  8  9  1  0  0  0  0
  9 10  1  0  0  0  0
  9 43  1  0  0  0  0
 10 11  2  0  0  0  0
 10 12  1  0  0  0  0
 12 35  1  0  0  0  0
 12 13  2  0  0  0  0
 13 14  1  0  0  0  0
 13 44  1  0  0  0  0
 14 15  2  0  0  0  0
 14 45  1  0  0  0  0
 15 16  1  0  0  0  0
 15 34  1  0  0  0  0
 16 17  1  0  0  0  0
 16 46  1  0  0  0  0
 17 18  2  0  0  0  0
 17 19  1  0  0  0  0
 19 20  1  0  0  0  0
 19 47  1  0  0  0  0
 19 48  1  0  0  0  0
 20 32  1  0  0  0  0
 20 21  1  0  0  0  0
 21 22  2  0  0  0  0
 21 23  1  0  0  0  0
 23 24  1  0  0  0  0
 23 25  2  0  0  0  0
 25 26  1  0  0  0  0
 25 49  1  0  0  0  0
 26 27  1  0  0  0  0
 26 32  1  0  0  0  0
 27 31  1  0  0  0  0
 27 28  1  0  0  0  0
 27 50  1  0  0  0  0
 28 29  1  0  0  0  0
 28 51  1  0  0  0  0
 28 52  1  0  0  0  0
 29 30  1  0  0  0  0
 29 53  1  0  0  0  0
 29 54  1  0  0  0  0
 30 31  1  0  0  0  0
 30 55  1  0  0  0  0
 30 56  1  0  0  0  0
 32 33  2  0  0  0  0
 34 35  2  0  0  0  0
 34 57  1  0  0  0  0
 35 58  1  0  0  0  0
M  END
> <s_m_source_file>
AV-unprocessed.smi

> <i_m_source_file_index>
129

> <i_lp_mmshare_version>
43012

> <i_f3d_flags>
0

> <s_epik_input>
W0NIM11PYzFbY0hdW2NIXVtjSF1bY0hdYzFbTkhdQyg9TyljMltjSF1bY0hdYyhbY0hdW2NIXTIpW05IXUMoPU8pW0NIMl1uM2MoPU8pYyhGKVtjSF1uKGMzPU8pW0NAQEhdNFtDSDJdW0NIMl1bQ0gyXU80

> <s_epik_cmdline>
J2VwaWtfcHl0aG9uJywgJy1waCcsICc3LjAnLCAnLXRuJywgJzgnLCAnLW1hJywgJzIwMCcsICctbWV0YWxfYmluZGluZycsICctaW1hZScsICc8aW5maWxlLm1hZT4nLCAnLW9tYWUnLCAnPG91dGZpbGUubWFlPic=

> <r_lp_tautomer_probability>
1

> <r_epik_Ionization_Penalty>
2.57954e-06

> <r_epik_Ionization_Penalty_Charging>
3.88729e-08

> <r_epik_Ionization_Penalty_Neutral>
2.54066e-06

> <r_epik_State_Penalty>
-0

> <r_epik_Charging_Adjusted_Penalty>
3.88729e-08

> <i_epik_Tot_Q>
0

> <i_epik_Tot_abs_Q>
0

> <r_epik_Metal_State_Penalty>
-0

> <b_epik_Metal_Only>
0

> <s_epik_Chemistry_Notes>
This compound contains an acetal/aminal-like group ( X-CH(R)-Y where X, Y are N, S, or O) that may be acid/base labile, releasing an aldehyde.

> <s_lp_Force_Field>
OPLS_2005

> <r_lp_Energy>
51.387

> <b_lp_Chiralities_Consistent>
1

> <s_lp_Variant>
AV-unprocessed.smi:129-2

> <Gold.Version>
5.8.1

> <Gold.Id.Protein>
6NUR|6NUR_protein|mol2

> <Gold.PLP.Fitness>
56.3348

> <Gold.PLP.PLP>
-51.3842

> <Gold.PLP.part.hbond>
-2.0000

> <Gold.PLP.part.metal>
0.0000

> <Gold.PLP.part.buried>
-6.6897

> <Gold.PLP.part.nonpolar>
-43.9797

> <Gold.PLP.part.repulsive>
0.2876

> <Gold.PLP.ligand.clash>
0.0000

> <Gold.PLP.ligand.torsion>
0.4195

> <Gold.PLP.Chemscore.Hbond>
1.8873

> <Gold.PLP.Chemscore.CHOScore>
0.0000

> <Gold.PLP.Chemscore.Metal>
0.0000

> <Gold.Chemscore.Hbonds>
donor molecule, donor type, donor heavy atom, donor atom, acceptor molecule, acceptor atom, score
      P1  H  6896  6909       L1    18  0.31
      P1  H  7997  8008       L1    11  0.93

> <Gold.PLP.Chemscore.Internal.Correction>
0.1278

> <Gold.Rescore>
     Score         DG    S(hbond)    S(metal)    S(lipo)     H(rot)  DE(clash)    DE(int)     intcor
     17.74     -23.25       1.85        0.00     141.73       1.94       0.03       5.48       ----

> <Gold.Chemscore.Fitness>
17.7430

> <Gold.Chemscore.DG>
-23.2545

> <Gold.Chemscore.ZeroCoef>
-5.4800

> <Gold.Chemscore.Hbond>
1.8461

> <Gold.Chemscore.Metal>
0.0000

> <Gold.Chemscore.Lipo>
141.7319

> <Gold.Chemscore.Internal_Hbond>
0.0000

> <Gold.Chemscore.DEClash>
0.0350

> <Gold.Chemscore.DEInternal>
5.4765

> <Gold.Chemscore.Rot>
1.9430

> <Gold.Chemscore.Internal.Correction>
   9.000000E+99

> <Gold.Chemscore.Hbonds>
donor molecule, donor type, donor heavy atom, donor atom, acceptor molecule, acceptor atom, score
      P1  H  6896  6909       L1    18  0.30
      P1  H  7997  8008       L1    11  0.91

> <Gold.Chemscore.Hbond.Weighted>
-6.1660

> <Gold.Chemscore.Metal.Weighted>
-0.0000

> <Gold.Chemscore.Lipo.Weighted>
-16.5826

> <Gold.Chemscore.Internal_Hbond.Weighted>
0.0000

> <Gold.Chemscore.DEClash.Weighted>
0.0350

> <Gold.Chemscore.DEInternal.Weighted>
5.4765

> <Gold.Chemscore.Rot.Weighted>
4.9741

> <Gold.Chemscore.Internal.Correction.Weighted>
   9.000000E+99

> <Gold.Protein.RotatedTorsions>
[ 6907 6896 6895 6894 ] final -138.27 input  -60.11 | X-H torsion
[ 7974 7965 7964 7962 ] final -136.84 input  175.53 | X-H torsion
[ 8008 7997 7996 7995 ] final -109.82 input   59.86 | X-H torsion
[ 10167 10162 10161 10158 ] final  -60.70 input  -65.29 | X-H torsion
[ 10718 10713 10712 10709 ] final  113.72 input   66.30 | X-H torsion
[ 10763 10752 10751 10750 ] final  174.65 input  -60.55 | X-H torsion
[ 11005 11000 10999 10996 ] final  -70.40 input  -57.11 | X-H torsion

> <Gold.Protein.ActiveResidues>
 VAL166  LYS551  ARG553  GLY616  TRP617  ASP618  TYR619  PRO620  LYS621  CYS622 
 ASP623  PHE694  ASN695  SER759  ASP760  ASP761  ALA762  ILE779  LEU786  VAL792 
 PHE793  MET794  SER795  GLU796  ALA797  LYS798  CYS799  TRP800  GLU811  SER814 

> <Gold.Protein.RotatedAtoms>
  151.0329  133.5774  159.2658 H   0  0  0  0  0  0  0  0  0  0  0  0  # atno 6907 bound_to 6896
  151.2849  135.0724  159.9193 H   0  0  0  0  0  0  0  0  0  0  0  0  # atno 6908 bound_to 6896
  152.5348  134.0037  159.7960 H   0  0  0  0  0  0  0  0  0  0  0  0  # atno 6909 bound_to 6896
  144.8893  140.6619  143.5156 H   0  0  0  0  0  0  0  0  0  0  0  0  # atno 7974 bound_to 7965
  154.9651  140.0398  157.2208 H   0  0  0  0  0  0  0  0  0  0  0  0  # atno 8008 bound_to 7997
  154.7853  140.2826  155.6010 H   0  0  0  0  0  0  0  0  0  0  0  0  # atno 8009 bound_to 7997
  156.2942  140.2584  156.2687 H   0  0  0  0  0  0  0  0  0  0  0  0  # atno 8010 bound_to 7997
  140.6054  143.2372  151.5833 H   0  0  0  0  0  0  0  0  0  0  0  0  # atno 10167 bound_to 10162
  157.6322  131.0988  150.7081 H   0  0  0  0  0  0  0  0  0  0  0  0  # atno 10718 bound_to 10713
  154.4568  135.2766  155.1741 H   0  0  0  0  0  0  0  0  0  0  0  0  # atno 10763 bound_to 10752
  154.3546  135.6142  153.5663 H   0  0  0  0  0  0  0  0  0  0  0  0  # atno 10764 bound_to 10752
  152.9851  135.5819  154.4923 H   0  0  0  0  0  0  0  0  0  0  0  0  # atno 10765 bound_to 10752
  141.1573  133.6789  156.6747 H   0  0  0  0  0  0  0  0  0  0  0  0  # atno 11005 bound_to 11000
  145.3813  139.1636  143.4279 LP  0  0  0  0  0  0  0  0  0  0  0  0  # atno 17320 bound_to 7965
  146.3043  140.3894  142.8692 LP  0  0  0  0  0  0  0  0  0  0  0  0  # atno 17321 bound_to 7965
  139.5321  144.2886  152.1171 LP  0  0  0  0  0  0  0  0  0  0  0  0  # atno 17342 bound_to 10162
  140.2074  144.4597  150.6402 LP  0  0  0  0  0  0  0  0  0  0  0  0  # atno 17343 bound_to 10162
  156.7418  130.4741  149.5476 LP  0  0  0  0  0  0  0  0  0  0  0  0  # atno 17370 bound_to 10713
  156.1534  130.6325  151.0626 LP  0  0  0  0  0  0  0  0  0  0  0  0  # atno 17371 bound_to 10713
  140.3148  134.8057  157.4205 LP  0  0  0  0  0  0  0  0  0  0  0  0  # atno 17394 bound_to 11000
  140.1148  134.5298  155.8235 LP  0  0  0  0  0  0  0  0  0  0  0  0  # atno 17395 bound_to 11000

$$$$
