AV-unprocessed.smi:2696|AV-procd|sdf|10413|dock8
  -GOLD-   2272014453D 1   1.00000     0.00000
 Structure written by MMmdl.
 43 44  0  0  0  0  0  0  0  0  1 V2000
  151.6630  144.1014  158.0487 C   0  0  0  0  0  0  0  0  0  0  0  0
  151.8013  142.7116  158.6886 C   0  0  0  0  0  0  0  0  0  0  0  0
  153.1703  142.5303  159.3635 C   0  0  0  0  0  0  0  0  0  0  0  0
  151.5207  141.6030  157.6828 C   0  0  0  0  0  0  0  0  0  0  0  0
  150.9923  141.8491  156.4600 C   0  0  0  0  0  0  0  0  0  0  0  0
  150.7582  140.7605  155.5116 C   0  0  0  0  0  0  0  0  0  0  0  0
  150.2547  140.9471  154.4042 O   0  0  0  0  0  0  0  0  0  0  0  0
  151.1503  139.5261  155.9430 N   0  0  0  0  0  0  0  0  0  0  0  0
  151.0438  138.3431  155.0625 C   0  0  0  0  0  0  0  0  0  0  0  0
  149.7531  137.4903  155.2667 C   0  0  1  0  0  0  0  0  0  0  0  0
  149.0495  137.9024  156.5773 C   0  0  0  0  0  0  0  0  0  0  0  0
  148.8254  137.9029  154.2786 O   0  0  0  0  0  0  0  0  0  0  0  0
  150.0194  135.9769  155.2303 C   0  0  0  0  0  0  0  0  0  0  0  0
  151.0086  135.3885  156.0537 C   0  0  0  0  0  0  0  0  0  0  0  0
  151.2147  133.9965  156.0411 C   0  0  0  0  0  0  0  0  0  0  0  0
  150.4327  133.1750  155.2097 C   0  0  0  0  0  0  0  0  0  0  0  0
  149.4369  133.7399  154.3873 C   0  0  0  0  0  0  0  0  0  0  0  0
  148.5926  132.8357  153.5013 C   0  0  0  0  0  0  0  0  0  0  0  0
  149.0617  131.5876  153.4741 F   0  0  0  0  0  0  0  0  0  0  0  0
  147.3425  132.8108  153.9620 F   0  0  0  0  0  0  0  0  0  0  0  0
  148.5817  133.3057  152.2539 F   0  0  0  0  0  0  0  0  0  0  0  0
  149.2406  135.1382  154.3989 C   0  0  0  0  0  0  0  0  0  0  0  0
  151.6589  139.3188  157.2424 C   0  0  0  0  0  0  0  0  0  0  0  0
  151.8419  140.2979  158.0694 N   0  0  0  0  0  0  0  0  0  0  0  0
  150.6759  144.2302  157.6037 H   0  0  0  0  0  0  0  0  0  0  0  0
  152.4054  144.2594  157.2659 H   0  0  0  0  0  0  0  0  0  0  0  0
  151.7936  144.8886  158.7918 H   0  0  0  0  0  0  0  0  0  0  0  0
  151.0460  142.6412  159.4732 H   0  0  0  0  0  0  0  0  0  0  0  0
  153.2497  141.5475  159.8293 H   0  0  0  0  0  0  0  0  0  0  0  0
  153.3231  143.2768  160.1432 H   0  0  0  0  0  0  0  0  0  0  0  0
  153.9884  142.6281  158.6494 H   0  0  0  0  0  0  0  0  0  0  0  0
  150.7469  142.8599  156.1688 H   0  0  0  0  0  0  0  0  0  0  0  0
  151.0639  138.6801  154.0241 H   0  0  0  0  0  0  0  0  0  0  0  0
  151.9380  137.7217  155.1442 H   0  0  0  0  0  0  0  0  0  0  0  0
  149.6693  137.7197  157.4548 H   0  0  0  0  0  0  0  0  0  0  0  0
  148.1167  137.3537  156.7162 H   0  0  0  0  0  0  0  0  0  0  0  0
  148.8083  138.9664  156.5818 H   0  0  0  0  0  0  0  0  0  0  0  0
  148.9828  137.4065  153.4902 H   0  0  0  0  0  0  0  0  0  0  0  0
  151.6121  135.9925  156.7147 H   0  0  0  0  0  0  0  0  0  0  0  0
  151.9707  133.5581  156.6755 H   0  0  0  0  0  0  0  0  0  0  0  0
  150.5945  132.1070  155.2076 H   0  0  0  0  0  0  0  0  0  0  0  0
  148.4688  135.5697  153.7805 H   0  0  0  0  0  0  0  0  0  0  0  0
  151.8984  138.2849  157.4958 H   0  0  0  0  0  0  0  0  0  0  0  0
  1  2  1  0  0  0  0
  1 25  1  0  0  0  0
  1 26  1  0  0  0  0
  1 27  1  0  0  0  0
  2  3  1  0  0  0  0
  2  4  1  0  0  0  0
  2 28  1  0  0  0  0
  3 29  1  0  0  0  0
  3 30  1  0  0  0  0
  3 31  1  0  0  0  0
  4 24  1  0  0  0  0
  4  5  2  0  0  0  0
  5  6  1  0  0  0  0
  5 32  1  0  0  0  0
  6  7  2  0  0  0  0
  6  8  1  0  0  0  0
  8  9  1  0  0  0  0
  8 23  1  0  0  0  0
  9 10  1  0  0  0  0
  9 33  1  0  0  0  0
  9 34  1  0  0  0  0
 10 11  1  0  0  0  0
 10 12  1  0  0  0  0
 10 13  1  0  0  0  0
 11 35  1  0  0  0  0
 11 36  1  0  0  0  0
 11 37  1  0  0  0  0
 12 38  1  0  0  0  0
 13 22  1  0  0  0  0
 13 14  2  0  0  0  0
 14 15  1  0  0  0  0
 14 39  1  0  0  0  0
 15 16  2  0  0  0  0
 15 40  1  0  0  0  0
 16 17  1  0  0  0  0
 16 41  1  0  0  0  0
 17 18  1  0  0  0  0
 17 22  2  0  0  0  0
 18 19  1  0  0  0  0
 18 20  1  0  0  0  0
 18 21  1  0  0  0  0
 22 42  1  0  0  0  0
 23 24  2  0  0  0  0
 23 43  1  0  0  0  0
M  END
> <s_m_source_file>
AV-unprocessed.smi

> <i_m_source_file_index>
2696

> <i_lp_mmshare_version>
43012

> <i_f3d_flags>
0

> <s_epik_input>
W0NIM11bQ0hdKFtDSDNdKWMxW2NIXWMoPU8pbihbY0hdbjEpW0NIMl1bQ0BAXShbQ0gzXSkoW09IXSljMltjSF1bY0hdW2NIXWMoQyhGKShGKUYpW2NIXTI=

> <s_epik_cmdline>
J2VwaWtfcHl0aG9uJywgJy1waCcsICc3LjAnLCAnLXRuJywgJzgnLCAnLW1hJywgJzIwMCcsICctbWV0YWxfYmluZGluZycsICctaW1hZScsICc8aW5maWxlLm1hZT4nLCAnLW9tYWUnLCAnPG91dGZpbGUubWFlPic=

> <r_lp_tautomer_probability>
1

> <r_epik_Ionization_Penalty>
2.71388e-05

> <r_epik_Ionization_Penalty_Charging>
4.19927e-06

> <r_epik_Ionization_Penalty_Neutral>
2.29395e-05

> <r_epik_State_Penalty>
-0

> <r_epik_Charging_Adjusted_Penalty>
4.19927e-06

> <i_epik_Tot_Q>
0

> <i_epik_Tot_abs_Q>
0

> <r_epik_Metal_State_Penalty>
-0

> <b_epik_Metal_Only>
0

> <s_lp_Force_Field>
OPLS_2005

> <r_lp_Energy>
19.4026

> <b_lp_Chiralities_Consistent>
1

> <s_lp_Variant>
AV-unprocessed.smi:2696-1

> <Gold.Version>
5.8.1

> <Gold.Id.Protein>
6NUR|6NUR_protein|mol2

> <Gold.PLP.Fitness>
43.5509

> <Gold.PLP.PLP>
-42.9174

> <Gold.PLP.part.hbond>
-2.0000

> <Gold.PLP.part.metal>
0.0000

> <Gold.PLP.part.buried>
-2.2557

> <Gold.PLP.part.nonpolar>
-37.6001

> <Gold.PLP.part.repulsive>
0.1284

> <Gold.PLP.ligand.clash>
1.0002

> <Gold.PLP.ligand.torsion>
2.0651

> <Gold.PLP.Chemscore.Hbond>
1.8000

> <Gold.PLP.Chemscore.CHOScore>
0.0000

> <Gold.PLP.Chemscore.Metal>
0.0000

> <Gold.Chemscore.Hbonds>
donor molecule, donor type, donor heavy atom, donor atom, acceptor molecule, acceptor atom, score
      L1  H    12    38       P1  7948  1.00
      P1  H  7989  7998       L1     7  0.62

> <Gold.PLP.Chemscore.Internal.Correction>
0.3639

> <Gold.Rescore>
     Score         DG    S(hbond)    S(metal)    S(lipo)     H(rot)  DE(clash)    DE(int)     intcor
     13.96     -16.54       1.91        0.00      88.89       2.23       0.03       2.54       ----

> <Gold.Chemscore.Fitness>
13.9649

> <Gold.Chemscore.DG>
-16.5401

> <Gold.Chemscore.ZeroCoef>
-5.4800

> <Gold.Chemscore.Hbond>
1.9076

> <Gold.Chemscore.Metal>
0.0000

> <Gold.Chemscore.Lipo>
88.8929

> <Gold.Chemscore.Internal_Hbond>
0.0000

> <Gold.Chemscore.DEClash>
0.0329

> <Gold.Chemscore.DEInternal>
2.5422

> <Gold.Chemscore.Rot>
2.2312

> <Gold.Chemscore.Internal.Correction>
   9.000000E+99

> <Gold.Chemscore.Hbonds>
donor molecule, donor type, donor heavy atom, donor atom, acceptor molecule, acceptor atom, score
      L1  H    12    38       P1  7948  0.97
      P1  H  7989  7998       L1     7  0.14

> <Gold.Chemscore.Hbond.Weighted>
-6.3714

> <Gold.Chemscore.Metal.Weighted>
-0.0000

> <Gold.Chemscore.Lipo.Weighted>
-10.4005

> <Gold.Chemscore.Internal_Hbond.Weighted>
0.0000

> <Gold.Chemscore.DEClash.Weighted>
0.0329

> <Gold.Chemscore.DEInternal.Weighted>
2.5422

> <Gold.Chemscore.Rot.Weighted>
5.7118

> <Gold.Chemscore.Internal.Correction.Weighted>
   9.000000E+99

> <Gold.Protein.RotatedTorsions>
[ 6907 6896 6895 6894 ] final -108.93 input  -60.11 | X-H torsion
[ 7974 7965 7964 7962 ] final    4.58 input  175.53 | X-H torsion
[ 8008 7997 7996 7995 ] final  156.81 input   59.86 | X-H torsion
[ 10167 10162 10161 10158 ] final  -65.93 input  -65.29 | X-H torsion
[ 10718 10713 10712 10709 ] final   -8.58 input   66.30 | X-H torsion
[ 10763 10752 10751 10750 ] final  -47.77 input  -60.55 | X-H torsion
[ 11005 11000 10999 10996 ] final  141.64 input  -57.11 | X-H torsion

> <Gold.Protein.ActiveResidues>
 VAL166  LYS551  ARG553  GLY616  TRP617  ASP618  TYR619  PRO620  LYS621  CYS622 
 ASP623  PHE694  ASN695  SER759  ASP760  ASP761  ALA762  ILE779  LEU786  VAL792 
 PHE793  MET794  SER795  GLU796  ALA797  LYS798  CYS799  TRP800  GLU811  SER814 

> <Gold.Protein.RotatedAtoms>
  150.7531  133.9605  159.3513 H   0  0  0  0  0  0  0  0  0  0  0  0  # atno 6907 bound_to 6896
  151.7530  135.0826  160.0343 H   0  0  0  0  0  0  0  0  0  0  0  0  # atno 6908 bound_to 6896
  152.3453  133.6078  159.5942 H   0  0  0  0  0  0  0  0  0  0  0  0  # atno 6909 bound_to 6896
  146.2443  140.0514  142.8375 H   0  0  0  0  0  0  0  0  0  0  0  0  # atno 7974 bound_to 7965
  156.2401  140.1902  156.7013 H   0  0  0  0  0  0  0  0  0  0  0  0  # atno 8008 bound_to 7997
  154.6180  140.0612  156.9605 H   0  0  0  0  0  0  0  0  0  0  0  0  # atno 8009 bound_to 7997
  155.1908  140.3284  155.4361 H   0  0  0  0  0  0  0  0  0  0  0  0  # atno 8010 bound_to 7997
  140.5694  143.2317  151.6569 H   0  0  0  0  0  0  0  0  0  0  0  0  # atno 10167 bound_to 10162
  156.7005  130.5092  149.5918 H   0  0  0  0  0  0  0  0  0  0  0  0  # atno 10718 bound_to 10713
  154.0669  135.6610  153.4819 H   0  0  0  0  0  0  0  0  0  0  0  0  # atno 10763 bound_to 10752
  153.0405  135.5148  154.7605 H   0  0  0  0  0  0  0  0  0  0  0  0  # atno 10764 bound_to 10752
  154.6658  135.3022  154.9774 H   0  0  0  0  0  0  0  0  0  0  0  0  # atno 10765 bound_to 10752
  140.0417  134.9301  157.0855 H   0  0  0  0  0  0  0  0  0  0  0  0  # atno 11005 bound_to 11000
  145.0981  140.9328  143.4729 LP  0  0  0  0  0  0  0  0  0  0  0  0  # atno 17320 bound_to 7965
  145.0701  139.3038  143.5836 LP  0  0  0  0  0  0  0  0  0  0  0  0  # atno 17321 bound_to 7965
  139.5109  144.3526  152.0638 LP  0  0  0  0  0  0  0  0  0  0  0  0  # atno 17342 bound_to 10162
  140.2661  144.4014  150.6168 LP  0  0  0  0  0  0  0  0  0  0  0  0  # atno 17343 bound_to 10162
  156.1732  130.6451  151.0863 LP  0  0  0  0  0  0  0  0  0  0  0  0  # atno 17370 bound_to 10713
  157.6975  131.0788  150.6925 LP  0  0  0  0  0  0  0  0  0  0  0  0  # atno 17371 bound_to 10713
  140.4059  134.2033  155.7163 LP  0  0  0  0  0  0  0  0  0  0  0  0  # atno 17394 bound_to 11000
  141.1886  133.8256  157.0988 LP  0  0  0  0  0  0  0  0  0  0  0  0  # atno 17395 bound_to 11000

$$$$
