AV-unprocessed.smi:36|AV-procd|sdf|283|dock5
  -GOLD-   2262016 63D 1   1.00000     0.00000
 Structure written by MMmdl.
 64 67  0  0  0  0  0  0  0  0  1 V2000
  152.8380  128.9911  169.4148 C   0  0  0  0  0  0  0  0  0  0  0  0
  153.8742  130.0105  168.9131 C   0  0  0  0  0  0  0  0  0  0  0  0
  153.8769  131.2466  169.8278 C   0  0  0  0  0  0  0  0  0  0  0  0
  155.2732  129.3720  168.9008 C   0  0  0  0  0  0  0  0  0  0  0  0
  153.4251  130.5503  167.1366 Si  0  0  0  0  0  0  0  0  0  0  0  0
  153.6184  129.1046  165.9183 C   0  0  0  0  0  0  0  0  0  0  0  0
  151.6548  131.2333  167.0476 C   0  0  0  0  0  0  0  0  0  0  0  0
  154.4926  131.7827  166.6832 O   0  0  0  0  0  0  0  0  0  0  0  0
  154.5988  132.2875  165.3678 C   0  0  0  0  0  0  0  0  0  0  0  0
  155.1416  133.7237  165.4210 C   0  0  2  0  0  0  0  0  0  0  0  0
  155.6176  134.1510  164.1504 O   0  0  0  0  0  0  0  0  0  0  0  0
  156.5553  135.1751  164.3127 C   0  0  1  0  0  0  0  0  0  0  0  0
  155.9475  136.4540  163.8381 N   0  0  0  0  0  0  0  0  0  0  0  0
  154.8957  137.1699  164.3695 C   0  0  0  0  0  0  0  0  0  0  0  0
  154.5860  138.2648  163.7279 N   0  0  0  0  0  0  0  0  0  0  0  0
  155.4942  138.3085  162.6776 C   0  0  0  0  0  0  0  0  0  0  0  0
  155.7190  139.2127  161.6071 C   0  0  0  0  0  0  0  0  0  0  0  0
  154.9376  140.3094  161.4689 N   0  0  0  0  0  0  0  0  0  0  0  0
  153.9611  140.5910  160.4313 C   0  0  0  0  0  0  0  0  0  0  0  0
  153.8011  139.8478  159.4626 O   0  0  0  0  0  0  0  0  0  0  0  0
  153.2137  141.8864  160.5638 C   0  0  0  0  0  0  0  0  0  0  0  0
  152.3074  142.2861  159.5558 C   0  0  0  0  0  0  0  0  0  0  0  0
  151.5865  143.4899  159.6813 C   0  0  0  0  0  0  0  0  0  0  0  0
  151.7602  144.3005  160.8187 C   0  0  0  0  0  0  0  0  0  0  0  0
  152.6528  143.9049  161.8327 C   0  0  0  0  0  0  0  0  0  0  0  0
  153.3739  142.7013  161.7088 C   0  0  0  0  0  0  0  0  0  0  0  0
  156.7318  138.9242  160.7475 N   0  0  0  0  0  0  0  0  0  0  0  0
  157.4721  137.8255  160.9233 C   0  0  0  0  0  0  0  0  0  0  0  0
  157.3709  136.8945  161.8746 N   0  0  0  0  0  0  0  0  0  0  0  0
  156.3553  137.1784  162.7400 C   0  0  0  0  0  0  0  0  0  0  0  0
  156.8839  135.2763  165.8090 C   0  0  0  0  0  0  0  0  0  0  0  0
  156.3235  133.9804  166.3625 C   0  0  2  0  0  0  0  0  0  0  0  0
  157.2919  132.9507  166.3005 O   0  0  0  0  0  0  0  0  0  0  0  0
  153.0642  128.6634  170.4300 H   0  0  0  0  0  0  0  0  0  0  0  0
  152.8146  128.1038  168.7819 H   0  0  0  0  0  0  0  0  0  0  0  0
  151.8341  129.4162  169.4230 H   0  0  0  0  0  0  0  0  0  0  0  0
  152.8937  131.7160  169.8655 H   0  0  0  0  0  0  0  0  0  0  0  0
  154.5864  131.9969  169.4775 H   0  0  0  0  0  0  0  0  0  0  0  0
  154.1533  130.9835  170.8495 H   0  0  0  0  0  0  0  0  0  0  0  0
  155.5783  129.0660  169.9020 H   0  0  0  0  0  0  0  0  0  0  0  0
  156.0235  130.0697  168.5269 H   0  0  0  0  0  0  0  0  0  0  0  0
  155.3018  128.4872  168.2643 H   0  0  0  0  0  0  0  0  0  0  0  0
  152.9687  128.2705  166.1819 H   0  0  0  0  0  0  0  0  0  0  0  0
  154.6405  128.7271  165.9024 H   0  0  0  0  0  0  0  0  0  0  0  0
  153.3647  129.4000  164.9008 H   0  0  0  0  0  0  0  0  0  0  0  0
  150.9208  130.4843  167.3435 H   0  0  0  0  0  0  0  0  0  0  0  0
  151.4019  131.5536  166.0373 H   0  0  0  0  0  0  0  0  0  0  0  0
  151.5231  132.0946  167.7020 H   0  0  0  0  0  0  0  0  0  0  0  0
  155.2251  131.6454  164.7478 H   0  0  0  0  0  0  0  0  0  0  0  0
  153.6046  132.2831  164.9207 H   0  0  0  0  0  0  0  0  0  0  0  0
  154.3274  134.3950  165.6991 H   0  0  0  0  0  0  0  0  0  0  0  0
  157.4227  135.0082  163.6731 H   0  0  0  0  0  0  0  0  0  0  0  0
  154.3572  136.8549  165.2513 H   0  0  0  0  0  0  0  0  0  0  0  0
  155.0224  141.0057  162.1949 H   0  0  0  0  0  0  0  0  0  0  0  0
  152.1610  141.6741  158.6773 H   0  0  0  0  0  0  0  0  0  0  0  0
  150.8986  143.7898  158.9045 H   0  0  0  0  0  0  0  0  0  0  0  0
  151.2064  145.2227  160.9152 H   0  0  0  0  0  0  0  0  0  0  0  0
  152.7821  144.5232  162.7088 H   0  0  0  0  0  0  0  0  0  0  0  0
  154.0453  142.4124  162.5045 H   0  0  0  0  0  0  0  0  0  0  0  0
  158.2566  137.6698  160.1975 H   0  0  0  0  0  0  0  0  0  0  0  0
  157.9543  135.4073  165.9715 H   0  0  0  0  0  0  0  0  0  0  0  0
  156.3587  136.1266  166.2475 H   0  0  0  0  0  0  0  0  0  0  0  0
  155.9991  134.0865  167.3981 H   0  0  0  0  0  0  0  0  0  0  0  0
  156.8546  132.1406  166.0863 H   0  0  0  0  0  0  0  0  0  0  0  0
  1  2  1  0  0  0  0
  1 34  1  0  0  0  0
  1 35  1  0  0  0  0
  1 36  1  0  0  0  0
  2  3  1  0  0  0  0
  2  4  1  0  0  0  0
  2  5  1  0  0  0  0
  3 37  1  0  0  0  0
  3 38  1  0  0  0  0
  3 39  1  0  0  0  0
  4 40  1  0  0  0  0
  4 41  1  0  0  0  0
  4 42  1  0  0  0  0
  5  6  1  0  0  0  0
  5  7  1  0  0  0  0
  5  8  1  0  0  0  0
  6 43  1  0  0  0  0
  6 44  1  0  0  0  0
  6 45  1  0  0  0  0
  7 46  1  0  0  0  0
  7 47  1  0  0  0  0
  7 48  1  0  0  0  0
  8  9  1  0  0  0  0
  9 10  1  0  0  0  0
  9 49  1  0  0  0  0
  9 50  1  0  0  0  0
 10 32  1  0  0  0  0
 10 11  1  0  0  0  0
 10 51  1  0  0  0  0
 11 12  1  0  0  0  0
 12 13  1  0  0  0  0
 12 31  1  0  0  0  0
 12 52  1  0  0  0  0
 13 30  1  0  0  0  0
 13 14  1  0  0  0  0
 14 15  2  0  0  0  0
 14 53  1  0  0  0  0
 15 16  1  0  0  0  0
 16 30  2  0  0  0  0
 16 17  1  0  0  0  0
 17 18  1  0  0  0  0
 17 27  2  0  0  0  0
 18 19  1  0  0  0  0
 18 54  1  0  0  0  0
 19 20  2  0  0  0  0
 19 21  1  0  0  0  0
 21 26  1  0  0  0  0
 21 22  2  0  0  0  0
 22 23  1  0  0  0  0
 22 55  1  0  0  0  0
 23 24  2  0  0  0  0
 23 56  1  0  0  0  0
 24 25  1  0  0  0  0
 24 57  1  0  0  0  0
 25 26  2  0  0  0  0
 25 58  1  0  0  0  0
 26 59  1  0  0  0  0
 27 28  1  0  0  0  0
 28 29  2  0  0  0  0
 28 60  1  0  0  0  0
 29 30  1  0  0  0  0
 31 32  1  0  0  0  0
 31 61  1  0  0  0  0
 31 62  1  0  0  0  0
 32 33  1  0  0  0  0
 32 63  1  0  0  0  0
 33 64  1  0  0  0  0
M  END
> <s_m_source_file>
AV-unprocessed.smi

> <i_m_source_file_index>
36

> <i_lp_mmshare_version>
43012

> <i_f3d_flags>
0

> <s_epik_input>
W0NIM11DKFtDSDNdKShbQ0gzXSlbU2ldKFtDSDNdKShbQ0gzXSlPW0NIMl1bQ0BASF0xT1tDQEhdKFtDSDJdW0NASF0xW09IXSluKFtjSF1uMiljKGMyMyluW2NIXW5jM1tOSF1DKD1PKWM0W2NIXVtjSF1bY0hdW2NIXVtjSF00

> <s_epik_cmdline>
J2VwaWtfcHl0aG9uJywgJy1waCcsICc3LjAnLCAnLXRuJywgJzgnLCAnLW1hJywgJzIwMCcsICctbWV0YWxfYmluZGluZycsICctaW1hZScsICc8aW5maWxlLm1hZT4nLCAnLW9tYWUnLCAnPG91dGZpbGUubWFlPic=

> <r_lp_tautomer_probability>
1

> <r_epik_Ionization_Penalty>
0.00150433

> <r_epik_Ionization_Penalty_Charging>
0

> <r_epik_Ionization_Penalty_Neutral>
0.00150433

> <r_epik_State_Penalty>
0.00724046

> <r_epik_Charging_Adjusted_Penalty>
0.00724046

> <i_epik_Tot_Q>
0

> <i_epik_Tot_abs_Q>
0

> <r_epik_Metal_State_Penalty>
0.323355

> <b_epik_Metal_Only>
0

> <s_epik_Chemistry_Notes>
This compound contains an acetal/aminal-like group ( X-CH(R)-Y where X, Y are N, S, or O) that may be acid/base labile, releasing an aldehyde.

> <s_lp_Force_Field>
OPLS_2005

> <r_lp_Energy>
37.4738

> <b_lp_Chiralities_Consistent>
1

> <s_lp_Variant>
AV-unprocessed.smi:36-5

> <Gold.Version>
5.8.1

> <Gold.Id.Protein>
6NUR|6NUR_protein|mol2

> <Gold.PLP.Fitness>
52.5152

> <Gold.PLP.PLP>
-51.8091

> <Gold.PLP.part.hbond>
-1.0000

> <Gold.PLP.part.metal>
0.0000

> <Gold.PLP.part.buried>
-4.7893

> <Gold.PLP.part.nonpolar>
-45.2380

> <Gold.PLP.part.repulsive>
0.0356

> <Gold.PLP.ligand.clash>
0.0000

> <Gold.PLP.ligand.torsion>
1.1893

> <Gold.PLP.Chemscore.Hbond>
1.0000

> <Gold.PLP.Chemscore.CHOScore>
0.0000

> <Gold.PLP.Chemscore.Metal>
0.0000

> <Gold.PLP.Chemscore.Internal.Correction>
0.0847

> <Gold.Rescore>
     Score         DG    S(hbond)    S(metal)    S(lipo)     H(rot)  DE(clash)    DE(int)     intcor
     15.80     -17.16       0.99        0.00     130.66       2.70       0.11       1.26       ----

> <Gold.Chemscore.Fitness>
15.7967

> <Gold.Chemscore.DG>
-17.1608

> <Gold.Chemscore.ZeroCoef>
-5.4800

> <Gold.Chemscore.Hbond>
0.9928

> <Gold.Chemscore.Metal>
0.0000

> <Gold.Chemscore.Lipo>
130.6610

> <Gold.Chemscore.Internal_Hbond>
0.0000

> <Gold.Chemscore.DEClash>
0.1088

> <Gold.Chemscore.DEInternal>
1.2552

> <Gold.Chemscore.Rot>
2.7041

> <Gold.Chemscore.Internal.Correction>
   9.000000E+99

> <Gold.Chemscore.Hbonds>
donor molecule, donor type, donor heavy atom, donor atom, acceptor molecule, acceptor atom, score
      P1  H  7997  8010       L1    20  0.02

> <Gold.Chemscore.Hbond.Weighted>
-3.3159

> <Gold.Chemscore.Metal.Weighted>
-0.0000

> <Gold.Chemscore.Lipo.Weighted>
-15.2873

> <Gold.Chemscore.Internal_Hbond.Weighted>
0.0000

> <Gold.Chemscore.DEClash.Weighted>
0.1088

> <Gold.Chemscore.DEInternal.Weighted>
1.2552

> <Gold.Chemscore.Rot.Weighted>
6.9225

> <Gold.Chemscore.Internal.Correction.Weighted>
   9.000000E+99

> <Gold.Protein.RotatedTorsions>
[ 6907 6896 6895 6894 ] final  -42.13 input  -60.11 | X-H torsion
[ 7974 7965 7964 7962 ] final -143.27 input  175.53 | X-H torsion
[ 8008 7997 7996 7995 ] final    1.12 input   59.86 | X-H torsion
[ 10167 10162 10161 10158 ] final   26.92 input  -65.29 | X-H torsion
[ 10718 10713 10712 10709 ] final   40.26 input   66.30 | X-H torsion
[ 10763 10752 10751 10750 ] final  -49.92 input  -60.55 | X-H torsion
[ 11005 11000 10999 10996 ] final   25.61 input  -57.11 | X-H torsion

> <Gold.Protein.ActiveResidues>
 VAL166  LYS551  ARG553  GLY616  TRP617  ASP618  TYR619  PRO620  LYS621  CYS622 
 ASP623  PHE694  ASN695  SER759  ASP760  ASP761  ALA762  ILE779  LEU786  VAL792 
 PHE793  MET794  SER795  GLU796  ALA797  LYS798  CYS799  TRP800  GLU811  SER814 

> <Gold.Protein.RotatedAtoms>
  150.9587  134.8978  159.7716 H   0  0  0  0  0  0  0  0  0  0  0  0  # atno 6907 bound_to 6896
  152.5148  134.3703  159.9326 H   0  0  0  0  0  0  0  0  0  0  0  0  # atno 6908 bound_to 6896
  151.3716  133.3812  159.2735 H   0  0  0  0  0  0  0  0  0  0  0  0  # atno 6909 bound_to 6896
  144.8381  140.5855  143.5470 H   0  0  0  0  0  0  0  0  0  0  0  0  # atno 7974 bound_to 7965
  154.6760  140.2622  155.6957 H   0  0  0  0  0  0  0  0  0  0  0  0  # atno 8008 bound_to 7997
  156.2678  140.2819  156.1210 H   0  0  0  0  0  0  0  0  0  0  0  0  # atno 8009 bound_to 7997
  155.1099  140.0375  157.2711 H   0  0  0  0  0  0  0  0  0  0  0  0  # atno 8010 bound_to 7997
  140.4982  144.0357  150.6322 H   0  0  0  0  0  0  0  0  0  0  0  0  # atno 10167 bound_to 10162
  157.3801  130.7749  149.7186 H   0  0  0  0  0  0  0  0  0  0  0  0  # atno 10718 bound_to 10713
  154.1019  135.6562  153.4870 H   0  0  0  0  0  0  0  0  0  0  0  0  # atno 10763 bound_to 10752
  153.0286  135.5227  154.7278 H   0  0  0  0  0  0  0  0  0  0  0  0  # atno 10764 bound_to 10752
  154.6432  135.2991  155.0047 H   0  0  0  0  0  0  0  0  0  0  0  0  # atno 10765 bound_to 10752
  140.3460  134.2281  155.7685 H   0  0  0  0  0  0  0  0  0  0  0  0  # atno 11005 bound_to 11000
  145.4751  139.1500  143.3793 LP  0  0  0  0  0  0  0  0  0  0  0  0  # atno 17320 bound_to 7965
  146.2678  140.4885  142.8827 LP  0  0  0  0  0  0  0  0  0  0  0  0  # atno 17321 bound_to 7965
  140.3646  143.2889  152.0346 LP  0  0  0  0  0  0  0  0  0  0  0  0  # atno 17342 bound_to 10162
  139.4866  144.6277  151.7132 LP  0  0  0  0  0  0  0  0  0  0  0  0  # atno 17343 bound_to 10162
  155.9774  130.4064  150.3716 LP  0  0  0  0  0  0  0  0  0  0  0  0  # atno 17370 bound_to 10713
  157.1819  131.0394  151.2744 LP  0  0  0  0  0  0  0  0  0  0  0  0  # atno 17371 bound_to 10713
  141.2025  133.7935  157.0386 LP  0  0  0  0  0  0  0  0  0  0  0  0  # atno 17394 bound_to 11000
  140.0742  134.9685  157.1517 LP  0  0  0  0  0  0  0  0  0  0  0  0  # atno 17395 bound_to 11000

$$$$
