AV-unprocessed.smi:887|AV-procd|sdf|4053|dock5
  -GOLD-   22720 1543D 1   1.00000     0.00000
 Structure written by MMmdl.
 31 32  0  0  0  0  0  0  0  0  1 V2000
  146.9270  139.0356  152.9423 C   0  0  0  0  0  0  0  0  0  0  0  0
  148.3781  139.0452  153.0456 N   0  0  0  0  0  0  0  0  0  0  0  0
  149.0537  138.9499  154.2007 C   0  0  0  0  0  0  0  0  0  0  0  0
  148.5052  138.8381  155.2970 O   0  0  0  0  0  0  0  0  0  0  0  0
  150.5808  138.9752  154.1081 C   0  0  0  0  0  0  0  0  0  0  0  0
  151.1799  139.5360  155.3582 C   0  0  0  0  0  0  0  0  0  0  0  0
  152.2711  139.0074  155.8994 N   0  0  0  0  0  0  0  0  0  0  0  0
  152.5041  139.8202  157.0177 O   0  0  0  0  0  0  0  0  0  0  0  0
  151.4980  140.7278  157.0349 C   0  0  0  0  0  0  0  0  0  0  0  0
  151.5197  141.8050  158.0736 C   0  0  1  0  0  0  0  0  0  0  0  0
  152.6963  141.6264  159.0583 C   0  0  0  0  0  0  0  0  0  0  0  0
  152.9327  142.8542  159.9210 C   0  0  0  0  0  0  0  0  0  0  0  0
  152.3619  144.0484  159.6888 C   0  0  0  0  0  0  0  0  0  0  0  0
  151.4201  144.3127  158.5292 C   0  0  0  0  0  0  0  0  0  0  0  0
  151.5036  143.2152  157.4529 C   0  0  0  0  0  0  0  0  0  0  0  0
  150.6665  140.6223  155.9996 N   0  0  0  0  0  0  0  0  0  0  0  0
  146.6281  139.0585  151.8943 H   0  0  0  0  0  0  0  0  0  0  0  0
  146.4983  139.9071  153.4384 H   0  0  0  0  0  0  0  0  0  0  0  0
  146.5092  138.1356  153.3956 H   0  0  0  0  0  0  0  0  0  0  0  0
  148.9029  139.1370  152.1875 H   0  0  0  0  0  0  0  0  0  0  0  0
  150.9578  137.9652  153.9404 H   0  0  0  0  0  0  0  0  0  0  0  0
  150.8896  139.5741  153.2503 H   0  0  0  0  0  0  0  0  0  0  0  0
  150.5971  141.7057  158.6481 H   0  0  0  0  0  0  0  0  0  0  0  0
  152.5234  140.7588  159.6959 H   0  0  0  0  0  0  0  0  0  0  0  0
  153.6210  141.4373  158.5118 H   0  0  0  0  0  0  0  0  0  0  0  0
  153.6053  142.7361  160.7579 H   0  0  0  0  0  0  0  0  0  0  0  0
  152.5589  144.8762  160.3545 H   0  0  0  0  0  0  0  0  0  0  0  0
  150.4065  144.3778  158.9254 H   0  0  0  0  0  0  0  0  0  0  0  0
  151.6528  145.2827  158.0890 H   0  0  0  0  0  0  0  0  0  0  0  0
  152.4084  143.3604  156.8609 H   0  0  0  0  0  0  0  0  0  0  0  0
  150.6643  143.3175  156.7638 H   0  0  0  0  0  0  0  0  0  0  0  0
  1  2  1  0  0  0  0
  1 17  1  0  0  0  0
  1 18  1  0  0  0  0
  1 19  1  0  0  0  0
  2  3  1  0  0  0  0
  2 20  1  0  0  0  0
  3  4  2  0  0  0  0
  3  5  1  0  0  0  0
  5  6  1  0  0  0  0
  5 21  1  0  0  0  0
  5 22  1  0  0  0  0
  6 16  1  0  0  0  0
  6  7  2  0  0  0  0
  7  8  1  0  0  0  0
  8  9  1  0  0  0  0
  9 10  1  0  0  0  0
  9 16  2  0  0  0  0
 10 15  1  0  0  0  0
 10 11  1  0  0  0  0
 10 23  1  0  0  0  0
 11 12  1  0  0  0  0
 11 24  1  0  0  0  0
 11 25  1  0  0  0  0
 12 13  2  0  0  0  0
 12 26  1  0  0  0  0
 13 14  1  0  0  0  0
 13 27  1  0  0  0  0
 14 15  1  0  0  0  0
 14 28  1  0  0  0  0
 14 29  1  0  0  0  0
 15 30  1  0  0  0  0
 15 31  1  0  0  0  0
M  END
> <s_m_source_file>
AV-unprocessed.smi

> <i_m_source_file_index>
887

> <i_lp_mmshare_version>
43012

> <i_f3d_flags>
0

> <s_epik_input>
W0NIM11bTkhdQyg9TylbQ0gyXWMxbm9jKG4xKVtDQEBIXTJbQ0gyXVtDSF09W0NIXVtDSDJdW0NIMl0y

> <s_epik_cmdline>
J2VwaWtfcHl0aG9uJywgJy1waCcsICc3LjAnLCAnLXRuJywgJzgnLCAnLW1hJywgJzIwMCcsICctbWV0YWxfYmluZGluZycsICctaW1hZScsICc8aW5maWxlLm1hZT4nLCAnLW9tYWUnLCAnPG91dGZpbGUubWFlPic=

> <r_lp_tautomer_probability>
1

> <r_epik_Ionization_Penalty>
1.02915e-07

> <r_epik_Ionization_Penalty_Charging>
0

> <r_epik_Ionization_Penalty_Neutral>
1.02915e-07

> <r_epik_State_Penalty>
-0

> <r_epik_Charging_Adjusted_Penalty>
0

> <i_epik_Tot_Q>
0

> <i_epik_Tot_abs_Q>
0

> <r_epik_Metal_State_Penalty>
-0

> <b_epik_Metal_Only>
0

> <s_lp_Force_Field>
OPLS_2005

> <r_lp_Energy>
6.05076

> <b_lp_Chiralities_Consistent>
1

> <s_lp_Variant>
AV-unprocessed.smi:887-2

> <Gold.Version>
5.8.1

> <Gold.Id.Protein>
6NUR|6NUR_protein|mol2

> <Gold.PLP.Fitness>
39.8414

> <Gold.PLP.PLP>
-35.1552

> <Gold.PLP.part.hbond>
-2.7948

> <Gold.PLP.part.metal>
0.0000

> <Gold.PLP.part.buried>
-4.3814

> <Gold.PLP.part.nonpolar>
-27.6739

> <Gold.PLP.part.repulsive>
0.1673

> <Gold.PLP.ligand.clash>
0.0000

> <Gold.PLP.ligand.torsion>
0.6984

> <Gold.PLP.Chemscore.Hbond>
1.9920

> <Gold.PLP.Chemscore.CHOScore>
0.0000

> <Gold.PLP.Chemscore.Metal>
0.0000

> <Gold.Chemscore.Hbonds>
donor molecule, donor type, donor heavy atom, donor atom, acceptor molecule, acceptor atom, score
      L1  H     2    20       P1  7957  0.98
      P1  H  7997  8009       L1     8  1.00

> <Gold.PLP.Chemscore.Internal.Correction>
0.1070

> <Gold.Rescore>
     Score         DG    S(hbond)    S(metal)    S(lipo)     H(rot)  DE(clash)    DE(int)     intcor
     14.39     -16.30       1.67        0.00      80.44       1.63       0.15       1.76       ----

> <Gold.Chemscore.Fitness>
14.3877

> <Gold.Chemscore.DG>
-16.2984

> <Gold.Chemscore.ZeroCoef>
-5.4800

> <Gold.Chemscore.Hbond>
1.6716

> <Gold.Chemscore.Metal>
0.0000

> <Gold.Chemscore.Lipo>
80.4358

> <Gold.Chemscore.Internal_Hbond>
0.0000

> <Gold.Chemscore.DEClash>
0.1468

> <Gold.Chemscore.DEInternal>
1.7639

> <Gold.Chemscore.Rot>
1.6312

> <Gold.Chemscore.Internal.Correction>
   9.000000E+99

> <Gold.Chemscore.Hbonds>
donor molecule, donor type, donor heavy atom, donor atom, acceptor molecule, acceptor atom, score
      L1  H     2    20       P1  7957  0.87
      P1  H  7997  8009       L1     8  0.24

> <Gold.Chemscore.Hbond.Weighted>
-5.5832

> <Gold.Chemscore.Metal.Weighted>
-0.0000

> <Gold.Chemscore.Lipo.Weighted>
-9.4110

> <Gold.Chemscore.Internal_Hbond.Weighted>
0.0000

> <Gold.Chemscore.DEClash.Weighted>
0.1468

> <Gold.Chemscore.DEInternal.Weighted>
1.7639

> <Gold.Chemscore.Rot.Weighted>
4.1758

> <Gold.Chemscore.Internal.Correction.Weighted>
   9.000000E+99

> <Gold.Protein.RotatedTorsions>
[ 6907 6896 6895 6894 ] final  -28.21 input  -60.11 | X-H torsion
[ 7974 7965 7964 7962 ] final   87.23 input  175.53 | X-H torsion
[ 8008 7997 7996 7995 ] final  165.27 input   59.86 | X-H torsion
[ 10167 10162 10161 10158 ] final -144.50 input  -65.29 | X-H torsion
[ 10718 10713 10712 10709 ] final  -90.64 input   66.30 | X-H torsion
[ 10763 10752 10751 10750 ] final   35.73 input  -60.55 | X-H torsion
[ 11005 11000 10999 10996 ] final -149.47 input  -57.11 | X-H torsion

> <Gold.Protein.ActiveResidues>
 VAL166  LYS551  ARG553  GLY616  TRP617  ASP618  TYR619  PRO620  LYS621  CYS622 
 ASP623  PHE694  ASN695  SER759  ASP760  ASP761  ALA762  ILE779  LEU786  VAL792 
 PHE793  MET794  SER795  GLU796  ALA797  LYS798  CYS799  TRP800  GLU811  SER814 

> <Gold.Protein.RotatedAtoms>
  151.1362  135.0156  159.8604 H   0  0  0  0  0  0  0  0  0  0  0  0  # atno 6907 bound_to 6896
  152.5452  134.1552  159.8545 H   0  0  0  0  0  0  0  0  0  0  0  0  # atno 6908 bound_to 6896
  151.1624  133.4791  159.2627 H   0  0  0  0  0  0  0  0  0  0  0  0  # atno 6909 bound_to 6896
  145.5617  139.2304  143.2455 H   0  0  0  0  0  0  0  0  0  0  0  0  # atno 7974 bound_to 7965
  156.1814  140.1674  156.8268 H   0  0  0  0  0  0  0  0  0  0  0  0  # atno 8008 bound_to 7997
  154.5364  140.0746  156.8467 H   0  0  0  0  0  0  0  0  0  0  0  0  # atno 8009 bound_to 7997
  155.3303  140.3378  155.4242 H   0  0  0  0  0  0  0  0  0  0  0  0  # atno 8010 bound_to 7997
  139.7893  143.7989  152.2648 H   0  0  0  0  0  0  0  0  0  0  0  0  # atno 10167 bound_to 10162
  155.9989  130.4917  150.5354 H   0  0  0  0  0  0  0  0  0  0  0  0  # atno 10718 bound_to 10713
  153.0106  135.6325  154.1873 H   0  0  0  0  0  0  0  0  0  0  0  0  # atno 10763 bound_to 10752
  154.1616  135.2823  155.3109 H   0  0  0  0  0  0  0  0  0  0  0  0  # atno 10764 bound_to 10752
  154.5977  135.5597  153.7403 H   0  0  0  0  0  0  0  0  0  0  0  0  # atno 10765 bound_to 10752
  140.7504  134.3413  157.5127 H   0  0  0  0  0  0  0  0  0  0  0  0  # atno 11005 bound_to 11000
  146.1846  140.6442  142.9173 LP  0  0  0  0  0  0  0  0  0  0  0  0  # atno 17320 bound_to 7965
  144.7479  140.5117  143.6822 LP  0  0  0  0  0  0  0  0  0  0  0  0  # atno 17321 bound_to 7965
  139.8075  144.7349  150.9741 LP  0  0  0  0  0  0  0  0  0  0  0  0  # atno 17342 bound_to 10162
  140.7820  143.4283  151.0733 LP  0  0  0  0  0  0  0  0  0  0  0  0  # atno 17343 bound_to 10162
  157.3297  131.0697  151.1870 LP  0  0  0  0  0  0  0  0  0  0  0  0  # atno 17370 bound_to 10713
  157.2755  130.6724  149.6040 LP  0  0  0  0  0  0  0  0  0  0  0  0  # atno 17371 bound_to 10713
  139.8789  134.9138  156.3093 LP  0  0  0  0  0  0  0  0  0  0  0  0  # atno 17394 bound_to 11000
  140.9756  133.7300  156.0597 LP  0  0  0  0  0  0  0  0  0  0  0  0  # atno 17395 bound_to 11000

$$$$
