AV-unprocessed.smi:2356|AV-procd|sdf|9399|dock1
  -GOLD-   2272013 33D 1   1.00000     0.00000
 Structure written by MMmdl.
 54 57  0  0  0  0  0  0  0  0  2 V2000
  146.5286  142.2525  153.9437 C   0  0  0  0  0  0  0  0  0  0  0  0
  147.5104  141.2262  154.4798 C   0  0  0  0  0  0  0  0  0  0  0  0
  148.5496  141.6825  155.2139 N   0  3  0  0  0  0  0  0  0  0  0  0
  149.5004  140.8853  155.7564 C   0  0  0  0  0  0  0  0  0  0  0  0
  150.5372  141.4788  156.5012 N   0  0  0  0  0  0  0  0  0  0  0  0
  150.3368  142.7279  157.2189 C   0  0  0  0  0  0  0  0  0  0  0  0
  151.6185  142.9169  158.0285 C   0  0  0  0  0  0  0  0  0  0  0  0
  152.0367  141.4827  158.3538 C   0  0  0  0  0  0  0  0  0  0  0  0
  151.5617  140.6682  157.1446 C   0  0  0  0  0  0  0  0  0  0  0  0
  149.4179  139.4915  155.5349 C   0  0  0  0  0  0  0  0  0  0  0  0
  148.3531  138.9656  154.7763 C   0  0  0  0  0  0  0  0  0  0  0  0
  147.3701  139.8378  154.2474 C   0  0  0  0  0  0  0  0  0  0  0  0
  146.2770  139.3887  153.4568 N   0  0  0  0  0  0  0  0  0  0  0  0
  145.8133  138.1339  153.2978 C   0  0  0  0  0  0  0  0  0  0  0  0
  146.2843  137.1411  153.8482 O   0  0  0  0  0  0  0  0  0  0  0  0
  144.7423  138.0406  152.4889 N   0  0  0  0  0  0  0  0  0  0  0  0
  143.9953  136.8412  152.1033 C   0  0  2  0  0  0  0  0  0  0  0  0
  143.3540  136.1707  153.3305 C   0  0  0  0  0  0  0  0  0  0  0  0
  142.7126  134.8305  152.9401 C   0  0  0  0  0  0  0  0  0  0  0  0
  143.6834  133.9861  152.3321 O   0  0  0  0  0  0  0  0  0  0  0  0
  144.2164  134.5158  151.1191 C   0  0  2  0  0  0  0  0  0  0  0  0
  145.1468  133.5088  150.4620 C   0  0  0  0  0  0  0  0  0  0  0  0
  144.6540  132.1409  150.0397 C   0  0  0  0  0  0  0  0  0  0  0  0
  145.6095  132.2693  151.1981 C   0  0  0  0  0  0  0  0  0  0  0  0
  144.9403  135.8421  151.4194 C   0  0  0  0  0  0  0  0  0  0  0  0
  146.4808  142.2018  152.8556 H   0  0  0  0  0  0  0  0  0  0  0  0
  146.8195  143.2657  154.2230 H   0  0  0  0  0  0  0  0  0  0  0  0
  145.5310  142.0657  154.3415 H   0  0  0  0  0  0  0  0  0  0  0  0
  150.1638  143.5617  156.5376 H   0  0  0  0  0  0  0  0  0  0  0  0
  149.4742  142.6350  157.8804 H   0  0  0  0  0  0  0  0  0  0  0  0
  152.3812  143.3915  157.4095 H   0  0  0  0  0  0  0  0  0  0  0  0
  151.4736  143.5320  158.9172 H   0  0  0  0  0  0  0  0  0  0  0  0
  153.1069  141.3828  158.5370 H   0  0  0  0  0  0  0  0  0  0  0  0
  151.5121  141.1471  159.2494 H   0  0  0  0  0  0  0  0  0  0  0  0
  151.1832  139.6944  157.4579 H   0  0  0  0  0  0  0  0  0  0  0  0
  152.3784  140.5083  156.4402 H   0  0  0  0  0  0  0  0  0  0  0  0
  150.1650  138.8181  155.9281 H   0  0  0  0  0  0  0  0  0  0  0  0
  148.3207  137.9014  154.6011 H   0  0  0  0  0  0  0  0  0  0  0  0
  145.7336  140.1161  153.0156 H   0  0  0  0  0  0  0  0  0  0  0  0
  144.3930  138.9097  152.1105 H   0  0  0  0  0  0  0  0  0  0  0  0
  143.2152  137.1045  151.3867 H   0  0  0  0  0  0  0  0  0  0  0  0
  144.1115  135.9953  154.0957 H   0  0  0  0  0  0  0  0  0  0  0  0
  142.6039  136.8222  153.7787 H   0  0  0  0  0  0  0  0  0  0  0  0
  142.3186  134.3320  153.8258 H   0  0  0  0  0  0  0  0  0  0  0  0
  141.8720  134.9844  152.2618 H   0  0  0  0  0  0  0  0  0  0  0  0
  143.3941  134.6978  150.4249 H   0  0  0  0  0  0  0  0  0  0  0  0
  145.8807  133.9663  149.8012 H   0  0  0  0  0  0  0  0  0  0  0  0
  143.6239  131.8733  150.2659 H   0  0  0  0  0  0  0  0  0  0  0  0
  145.0449  131.7334  149.1096 H   0  0  0  0  0  0  0  0  0  0  0  0
  146.6368  131.9480  151.0401 H   0  0  0  0  0  0  0  0  0  0  0  0
  145.2157  132.0901  152.1965 H   0  0  0  0  0  0  0  0  0  0  0  0
  145.3328  136.2714  150.4967 H   0  0  0  0  0  0  0  0  0  0  0  0
  145.7999  135.6457  152.0624 H   0  0  0  0  0  0  0  0  0  0  0  0
  148.6205  142.6880  155.3694 H   0  0  0  0  0  0  0  0  0  0  0  0
  1  2  1  0  0  0  0
  1 26  1  0  0  0  0
  1 27  1  0  0  0  0
  1 28  1  0  0  0  0
  2 12  1  0  0  0  0
  2  3  2  0  0  0  0
  3  4  1  0  0  0  0
  3 54  1  0  0  0  0
  4  5  1  0  0  0  0
  4 10  2  0  0  0  0
  5  9  1  0  0  0  0
  5  6  1  0  0  0  0
  6  7  1  0  0  0  0
  6 29  1  0  0  0  0
  6 30  1  0  0  0  0
  7  8  1  0  0  0  0
  7 31  1  0  0  0  0
  7 32  1  0  0  0  0
  8  9  1  0  0  0  0
  8 33  1  0  0  0  0
  8 34  1  0  0  0  0
  9 35  1  0  0  0  0
  9 36  1  0  0  0  0
 10 11  1  0  0  0  0
 10 37  1  0  0  0  0
 11 12  2  0  0  0  0
 11 38  1  0  0  0  0
 12 13  1  0  0  0  0
 13 14  1  0  0  0  0
 13 39  1  0  0  0  0
 14 15  2  0  0  0  0
 14 16  1  0  0  0  0
 16 17  1  0  0  0  0
 16 40  1  0  0  0  0
 17 25  1  0  0  0  0
 17 18  1  0  0  0  0
 17 41  1  0  0  0  0
 18 19  1  0  0  0  0
 18 42  1  0  0  0  0
 18 43  1  0  0  0  0
 19 20  1  0  0  0  0
 19 44  1  0  0  0  0
 19 45  1  0  0  0  0
 20 21  1  0  0  0  0
 21 22  1  0  0  0  0
 21 25  1  0  0  0  0
 21 46  1  0  0  0  0
 22 24  1  0  0  0  0
 22 23  1  0  0  0  0
 22 47  1  0  0  0  0
 23 24  1  0  0  0  0
 23 48  1  0  0  0  0
 23 49  1  0  0  0  0
 24 50  1  0  0  0  0
 24 51  1  0  0  0  0
 25 52  1  0  0  0  0
 25 53  1  0  0  0  0
M  CHG  1   3   1
M  END
> <s_m_source_file>
AV-unprocessed.smi

> <i_m_source_file_index>
2356

> <i_lp_mmshare_version>
43012

> <i_f3d_flags>
0

> <s_epik_input>
W0NIMl0xW0NIMl1bQ0gyXVtDSDJdTjFjKG5jMltDSDNdKVtjSF1bY0hdYzJbTkhdQyg9TylbTkhdW0NAQEhdM1tDSDJdW0NIMl1PW0NASF0oW0NIMl0zKVtDSF00W0NIMl1bQ0gyXTQ=

> <s_epik_cmdline>
J2VwaWtfcHl0aG9uJywgJy1waCcsICc3LjAnLCAnLXRuJywgJzgnLCAnLW1hJywgJzIwMCcsICctbWV0YWxfYmluZGluZycsICctaW1hZScsICc8aW5maWxlLm1hZT4nLCAnLW9tYWUnLCAnPG91dGZpbGUubWFlPic=

> <r_lp_tautomer_probability>
0.999994

> <r_epik_Ionization_Penalty>
0.534681

> <r_epik_Ionization_Penalty_Charging>
0.534661

> <r_epik_Ionization_Penalty_Neutral>
1.99132e-05

> <r_epik_State_Penalty>
0.543738

> <r_epik_Charging_Adjusted_Penalty>
1.0784

> <i_epik_Tot_Q>
1

> <i_epik_Tot_abs_Q>
1

> <r_epik_Metal_State_Penalty>
0.74699

> <b_epik_Metal_Only>
0

> <s_lp_Force_Field>
OPLS_2005

> <r_lp_Energy>
57.2966

> <b_lp_Chiralities_Consistent>
1

> <s_lp_Variant>
AV-unprocessed.smi:2356-7

> <Gold.Version>
5.8.1

> <Gold.Id.Protein>
6NUR|6NUR_protein|mol2

> <Gold.PLP.Fitness>
51.3293

> <Gold.PLP.PLP>
-41.0392

> <Gold.PLP.part.hbond>
-3.9567

> <Gold.PLP.part.metal>
0.0000

> <Gold.PLP.part.buried>
-4.1118

> <Gold.PLP.part.nonpolar>
-34.5718

> <Gold.PLP.part.repulsive>
0.3949

> <Gold.PLP.ligand.clash>
0.0000

> <Gold.PLP.ligand.torsion>
0.9121

> <Gold.PLP.Chemscore.Hbond>
3.6030

> <Gold.PLP.Chemscore.CHOScore>
0.0000

> <Gold.PLP.Chemscore.Metal>
0.0000

> <Gold.Chemscore.Hbonds>
donor molecule, donor type, donor heavy atom, donor atom, acceptor molecule, acceptor atom, score
      L1  H     3    54       P1  8028  1.85
      L1  H    13    39       P1 10175  0.54
      L1  H    16    40       P1 10175  0.94

> <Gold.PLP.Chemscore.Internal.Correction>
1.3052

> <Gold.Rescore>
     Score         DG    S(hbond)    S(metal)    S(lipo)     H(rot)  DE(clash)    DE(int)     intcor
     19.91     -24.38       2.82        0.00     106.15       1.15       1.61       2.86       ----

> <Gold.Chemscore.Fitness>
19.9113

> <Gold.Chemscore.DG>
-24.3778

> <Gold.Chemscore.ZeroCoef>
-5.4800

> <Gold.Chemscore.Hbond>
2.8205

> <Gold.Chemscore.Metal>
0.0000

> <Gold.Chemscore.Lipo>
106.1489

> <Gold.Chemscore.Internal_Hbond>
0.0000

> <Gold.Chemscore.DEClash>
1.6058

> <Gold.Chemscore.DEInternal>
2.8607

> <Gold.Chemscore.Rot>
1.1493

> <Gold.Chemscore.Internal.Correction>
   9.000000E+99

> <Gold.Chemscore.Hbonds>
donor molecule, donor type, donor heavy atom, donor atom, acceptor molecule, acceptor atom, score
      L1  H     3    54       P1  8028  0.89
      L1  H    13    39       P1 10175  0.54
      L1  H    16    40       P1 10175  0.91

> <Gold.Chemscore.Hbond.Weighted>
-9.4205

> <Gold.Chemscore.Metal.Weighted>
-0.0000

> <Gold.Chemscore.Lipo.Weighted>
-12.4194

> <Gold.Chemscore.Internal_Hbond.Weighted>
0.0000

> <Gold.Chemscore.DEClash.Weighted>
1.6058

> <Gold.Chemscore.DEInternal.Weighted>
2.8607

> <Gold.Chemscore.Rot.Weighted>
2.9421

> <Gold.Chemscore.Internal.Correction.Weighted>
   9.000000E+99

> <Gold.Protein.RotatedTorsions>
[ 6907 6896 6895 6894 ] final  149.04 input  -60.11 | X-H torsion
[ 7974 7965 7964 7962 ] final  -36.81 input  175.53 | X-H torsion
[ 8008 7997 7996 7995 ] final   52.52 input   59.86 | X-H torsion
[ 10167 10162 10161 10158 ] final  177.42 input  -65.29 | X-H torsion
[ 10718 10713 10712 10709 ] final   97.05 input   66.30 | X-H torsion
[ 10763 10752 10751 10750 ] final   65.17 input  -60.55 | X-H torsion
[ 11005 11000 10999 10996 ] final -102.70 input  -57.11 | X-H torsion

> <Gold.Protein.ActiveResidues>
 VAL166  LYS551  ARG553  GLY616  TRP617  ASP618  TYR619  PRO620  LYS621  CYS622 
 ASP623  PHE694  ASN695  SER759  ASP760  ASP761  ALA762  ILE779  LEU786  VAL792 
 PHE793  MET794  SER795  GLU796  ALA797  LYS798  CYS799  TRP800  GLU811  SER814 

> <Gold.Protein.RotatedAtoms>
  152.1334  133.4421  159.4731 H   0  0  0  0  0  0  0  0  0  0  0  0  # atno 6907 bound_to 6896
  150.6880  134.2393  159.4475 H   0  0  0  0  0  0  0  0  0  0  0  0  # atno 6908 bound_to 6896
  152.0279  134.9784  160.0622 H   0  0  0  0  0  0  0  0  0  0  0  0  # atno 6909 bound_to 6896
  146.0629  140.6323  142.8988 H   0  0  0  0  0  0  0  0  0  0  0  0  # atno 7974 bound_to 7965
  155.4531  140.3459  155.4303 H   0  0  0  0  0  0  0  0  0  0  0  0  # atno 8008 bound_to 7997
  156.1208  140.1486  156.9237 H   0  0  0  0  0  0  0  0  0  0  0  0  # atno 8009 bound_to 7997
  154.4822  140.0866  156.7382 H   0  0  0  0  0  0  0  0  0  0  0  0  # atno 8010 bound_to 7997
  139.5252  144.2801  152.0554 H   0  0  0  0  0  0  0  0  0  0  0  0  # atno 10167 bound_to 10162
  157.6918  131.0597  150.4584 H   0  0  0  0  0  0  0  0  0  0  0  0  # atno 10718 bound_to 10713
  153.0085  135.5366  154.6626 H   0  0  0  0  0  0  0  0  0  0  0  0  # atno 10763 bound_to 10752
  154.5831  135.2852  155.0715 H   0  0  0  0  0  0  0  0  0  0  0  0  # atno 10764 bound_to 10752
  154.1837  135.6512  153.5093 H   0  0  0  0  0  0  0  0  0  0  0  0  # atno 10765 bound_to 10752
  141.1178  133.8580  157.1393 H   0  0  0  0  0  0  0  0  0  0  0  0  # atno 11005 bound_to 11000
  144.7185  140.4294  143.7026 LP  0  0  0  0  0  0  0  0  0  0  0  0  # atno 17320 bound_to 7965
  145.6528  139.1568  143.2852 LP  0  0  0  0  0  0  0  0  0  0  0  0  # atno 17321 bound_to 7965
  140.2256  144.4421  150.6322 LP  0  0  0  0  0  0  0  0  0  0  0  0  # atno 17342 bound_to 10162
  140.6389  143.2200  151.6333 LP  0  0  0  0  0  0  0  0  0  0  0  0  # atno 17343 bound_to 10162
  156.4930  130.4099  149.6396 LP  0  0  0  0  0  0  0  0  0  0  0  0  # atno 17370 bound_to 10713
  156.3399  130.7376  151.2320 LP  0  0  0  0  0  0  0  0  0  0  0  0  # atno 17371 bound_to 10713
  140.0112  134.9987  157.0399 LP  0  0  0  0  0  0  0  0  0  0  0  0  # atno 17394 bound_to 11000
  140.4596  134.1497  155.7190 LP  0  0  0  0  0  0  0  0  0  0  0  0  # atno 17395 bound_to 11000

$$$$
