AV-unprocessed.smi:1695|AV-procd|sdf|6793|dock6
  -GOLD-   22720 7553D 1   1.00000     0.00000
 Structure written by MMmdl.
 52 54  0  0  0  0  0  0  0  0  3 V2000
  152.7039  142.2715  160.0648 C   0  0  0  0  0  0  0  0  0  0  0  0
  152.1131  141.6435  158.8137 C   0  0  0  0  0  0  0  0  0  0  0  0
  151.2515  142.4234  158.0102 C   0  0  0  0  0  0  0  0  0  0  0  0
  150.7265  141.8214  156.8729 C   0  0  0  0  0  0  0  0  0  0  0  0
  149.8630  142.3167  155.8940 N   0  3  0  0  0  0  0  0  0  0  0  0
  149.6278  141.3506  154.9641 C   0  0  0  0  0  0  0  0  0  0  0  0
  150.3319  140.2454  155.3319 N   0  0  0  0  0  0  0  0  0  0  0  0
  150.4179  138.9334  154.6749 C   0  0  0  0  0  0  0  0  0  0  0  0
  149.1338  138.0956  154.8367 C   0  0  2  0  0  0  0  0  0  0  0  0
  149.4056  136.7971  154.3501 O   0  0  0  0  0  0  0  0  0  0  0  0
  147.9168  138.6674  154.0774 C   0  0  0  0  0  0  0  0  0  0  0  0
  147.1721  137.6281  153.3207 N   0  3  1  0  0  0  0  0  0  0  0  0
  146.3089  136.7797  154.1849 C   0  0  0  0  0  0  0  0  0  0  0  0
  145.6474  135.6457  153.3781 C   0  0  0  0  0  0  0  0  0  0  0  0
  144.8623  136.1478  152.1480 C   0  0  1  0  0  0  0  0  0  0  0  0
  143.5043  136.7726  152.5194 C   0  0  0  0  0  0  0  0  0  0  0  0
  143.2700  138.0142  152.0868 N   0  0  0  0  0  0  0  0  0  0  0  0
  142.6764  136.1529  153.1838 O   0  0  0  0  0  0  0  0  0  0  0  0
  145.7552  137.1026  151.3282 C   0  0  0  0  0  0  0  0  0  0  0  0
  146.4130  138.2043  152.1812 C   0  0  0  0  0  0  0  0  0  0  0  0
  151.0296  140.4909  156.5218 C   0  0  0  0  0  0  0  0  0  0  0  0
  151.8768  139.7087  157.3042 C   0  0  0  0  0  0  0  0  0  0  0  0
  152.4208  140.3029  158.4653 C   0  0  0  0  0  0  0  0  0  0  0  0
  153.3479  139.4729  159.3372 C   0  0  0  0  0  0  0  0  0  0  0  0
  152.4168  143.3190  160.1594 H   0  0  0  0  0  0  0  0  0  0  0  0
  153.7930  142.2274  160.0409 H   0  0  0  0  0  0  0  0  0  0  0  0
  152.3552  141.7483  160.9556 H   0  0  0  0  0  0  0  0  0  0  0  0
  151.0117  143.4444  158.2698 H   0  0  0  0  0  0  0  0  0  0  0  0
  148.9951  141.4446  154.0927 H   0  0  0  0  0  0  0  0  0  0  0  0
  150.6756  139.0677  153.6243 H   0  0  0  0  0  0  0  0  0  0  0  0
  151.2606  138.4097  155.1284 H   0  0  0  0  0  0  0  0  0  0  0  0
  148.9136  138.0122  155.9004 H   0  0  0  0  0  0  0  0  0  0  0  0
  148.9936  136.6947  153.5054 H   0  0  0  0  0  0  0  0  0  0  0  0
  147.2244  139.1612  154.7597 H   0  0  0  0  0  0  0  0  0  0  0  0
  148.2717  139.4412  153.3947 H   0  0  0  0  0  0  0  0  0  0  0  0
  146.8998  136.3334  154.9833 H   0  0  0  0  0  0  0  0  0  0  0  0
  145.5563  137.3980  154.6743 H   0  0  0  0  0  0  0  0  0  0  0  0
  146.4218  134.9548  153.0422 H   0  0  0  0  0  0  0  0  0  0  0  0
  144.9952  135.0636  154.0306 H   0  0  0  0  0  0  0  0  0  0  0  0
  144.6491  135.2807  151.5202 H   0  0  0  0  0  0  0  0  0  0  0  0
  142.3953  138.4702  152.3024 H   0  0  0  0  0  0  0  0  0  0  0  0
  143.9717  138.4955  151.5426 H   0  0  0  0  0  0  0  0  0  0  0  0
  146.5383  136.5201  150.8410 H   0  0  0  0  0  0  0  0  0  0  0  0
  145.1799  137.5582  150.5212 H   0  0  0  0  0  0  0  0  0  0  0  0
  145.6691  138.9091  152.5529 H   0  0  0  0  0  0  0  0  0  0  0  0
  147.0902  138.7775  151.5470 H   0  0  0  0  0  0  0  0  0  0  0  0
  152.1166  138.6892  157.0427 H   0  0  0  0  0  0  0  0  0  0  0  0
  153.4452  138.4541  158.9606 H   0  0  0  0  0  0  0  0  0  0  0  0
  152.9665  139.4143  160.3568 H   0  0  0  0  0  0  0  0  0  0  0  0
  154.3442  139.9147  159.3643 H   0  0  0  0  0  0  0  0  0  0  0  0
  147.8700  137.0213  152.9137 H   0  0  0  0  0  0  0  0  0  0  0  0
  149.4591  143.2444  155.8628 H   0  0  0  0  0  0  0  0  0  0  0  0
  1  2  1  0  0  0  0
  1 25  1  0  0  0  0
  1 26  1  0  0  0  0
  1 27  1  0  0  0  0
  2 23  1  0  0  0  0
  2  3  2  0  0  0  0
  3  4  1  0  0  0  0
  3 28  1  0  0  0  0
  4 21  2  0  0  0  0
  4  5  1  0  0  0  0
  5  6  2  0  0  0  0
  5 52  1  0  0  0  0
  6  7  1  0  0  0  0
  6 29  1  0  0  0  0
  7  8  1  0  0  0  0
  7 21  1  0  0  0  0
  8  9  1  0  0  0  0
  8 30  1  0  0  0  0
  8 31  1  0  0  0  0
  9 10  1  0  0  0  0
  9 11  1  0  0  0  0
  9 32  1  0  0  0  0
 10 33  1  0  0  0  0
 11 12  1  0  0  0  0
 11 34  1  0  0  0  0
 11 35  1  0  0  0  0
 12 20  1  0  0  0  0
 12 13  1  0  0  0  0
 12 51  1  0  0  0  0
 13 14  1  0  0  0  0
 13 36  1  0  0  0  0
 13 37  1  0  0  0  0
 14 15  1  0  0  0  0
 14 38  1  0  0  0  0
 14 39  1  0  0  0  0
 15 16  1  0  0  0  0
 15 19  1  0  0  0  0
 15 40  1  0  0  0  0
 16 17  1  0  0  0  0
 16 18  2  0  0  0  0
 17 41  1  0  0  0  0
 17 42  1  0  0  0  0
 19 20  1  0  0  0  0
 19 43  1  0  0  0  0
 19 44  1  0  0  0  0
 20 45  1  0  0  0  0
 20 46  1  0  0  0  0
 21 22  1  0  0  0  0
 22 23  2  0  0  0  0
 22 47  1  0  0  0  0
 23 24  1  0  0  0  0
 24 48  1  0  0  0  0
 24 49  1  0  0  0  0
 24 50  1  0  0  0  0
M  CHG  1   5   1
M  CHG  1  12   1
M  END
> <s_m_source_file>
AV-unprocessed.smi

> <i_m_source_file_index>
1695

> <i_lp_mmshare_version>
43012

> <i_f3d_flags>
0

> <s_epik_input>
W0NIM11jKFtjSF0xKWMoW0NIM10pW2NIXWMoYzEyKW4oW2NIXW4yKVtDSDJdW0NASF0oW09IXSlbQ0gyXU4zW0NIMl1bQ0gyXVtDSF0oQyg9TylbTkgyXSlbQ0gyXVtDSDJdMw==

> <s_epik_cmdline>
J2VwaWtfcHl0aG9uJywgJy1waCcsICc3LjAnLCAnLXRuJywgJzgnLCAnLW1hJywgJzIwMCcsICctbWV0YWxfYmluZGluZycsICctaW1hZScsICc8aW5maWxlLm1hZT4nLCAnLW9tYWUnLCAnPG91dGZpbGUubWFlPic=

> <r_epik_Ionization_Penalty>
1.20173

> <r_epik_Ionization_Penalty_Charging>
1.20172

> <r_epik_Ionization_Penalty_Neutral>
1.7852e-06

> <r_epik_State_Penalty>
1.28089

> <r_epik_Charging_Adjusted_Penalty>
2.48261

> <i_epik_Tot_Q>
2

> <i_epik_Tot_abs_Q>
2

> <r_epik_Metal_State_Penalty>
1.35652

> <b_epik_Metal_Only>
0

> <s_lp_Force_Field>
OPLS_2005

> <r_lp_Energy>
28.6872

> <b_lp_Chiralities_Consistent>
1

> <s_lp_Variant>
AV-unprocessed.smi:1695-5

> <Gold.Version>
5.8.1

> <Gold.Id.Protein>
6NUR|6NUR_protein|mol2

> <Gold.PLP.Fitness>
56.3168

> <Gold.PLP.PLP>
-41.6135

> <Gold.PLP.part.hbond>
-5.0000

> <Gold.PLP.part.metal>
0.0000

> <Gold.PLP.part.buried>
-3.7453

> <Gold.PLP.part.nonpolar>
-35.1837

> <Gold.PLP.part.repulsive>
0.3364

> <Gold.PLP.ligand.clash>
0.0000

> <Gold.PLP.ligand.torsion>
1.0719

> <Gold.PLP.Chemscore.Hbond>
5.5920

> <Gold.PLP.Chemscore.CHOScore>
0.0000

> <Gold.PLP.Chemscore.Metal>
0.0000

> <Gold.Chemscore.Hbonds>
donor molecule, donor type, donor heavy atom, donor atom, acceptor molecule, acceptor atom, score
      L1  H     5    52       P1  8028  2.00
      L1  H    10    33       P1  7948  1.00
      L1  H    12    51       P1  7948  2.00
      L1  H    17    42       P1 10171  0.42

> <Gold.PLP.Chemscore.Internal.Correction>
0.0711

> <Gold.Rescore>
     Score         DG    S(hbond)    S(metal)    S(lipo)     H(rot)  DE(clash)    DE(int)     intcor
     20.60     -21.94       3.86        0.00      94.24       2.91       0.12       1.23       ----

> <Gold.Chemscore.Fitness>
20.5971

> <Gold.Chemscore.DG>
-21.9438

> <Gold.Chemscore.ZeroCoef>
-5.4800

> <Gold.Chemscore.Hbond>
3.8606

> <Gold.Chemscore.Metal>
0.0000

> <Gold.Chemscore.Lipo>
94.2401

> <Gold.Chemscore.Internal_Hbond>
0.0000

> <Gold.Chemscore.DEClash>
0.1159

> <Gold.Chemscore.DEInternal>
1.2308

> <Gold.Chemscore.Rot>
2.9127

> <Gold.Chemscore.Internal.Correction>
   9.000000E+99

> <Gold.Chemscore.Hbonds>
donor molecule, donor type, donor heavy atom, donor atom, acceptor molecule, acceptor atom, score
      L1  H     5    52       P1  8028  0.98
      L1  H    10    33       P1  7948  0.97
      L1  H    12    51       P1  7948  1.00
      L1  H    17    42       P1 10171  0.41

> <Gold.Chemscore.Hbond.Weighted>
-12.8943

> <Gold.Chemscore.Metal.Weighted>
-0.0000

> <Gold.Chemscore.Lipo.Weighted>
-11.0261

> <Gold.Chemscore.Internal_Hbond.Weighted>
0.0000

> <Gold.Chemscore.DEClash.Weighted>
0.1159

> <Gold.Chemscore.DEInternal.Weighted>
1.2308

> <Gold.Chemscore.Rot.Weighted>
7.4565

> <Gold.Chemscore.Internal.Correction.Weighted>
   9.000000E+99

> <Gold.Protein.RotatedTorsions>
[ 6907 6896 6895 6894 ] final -118.61 input  -60.11 | X-H torsion
[ 7974 7965 7964 7962 ] final   85.35 input  175.53 | X-H torsion
[ 8008 7997 7996 7995 ] final  -26.19 input   59.86 | X-H torsion
[ 10167 10162 10161 10158 ] final -105.99 input  -65.29 | X-H torsion
[ 10718 10713 10712 10709 ] final -109.22 input   66.30 | X-H torsion
[ 10763 10752 10751 10750 ] final   58.21 input  -60.55 | X-H torsion
[ 11005 11000 10999 10996 ] final  -21.37 input  -57.11 | X-H torsion

> <Gold.Protein.ActiveResidues>
 VAL166  LYS551  ARG553  GLY616  TRP617  ASP618  TYR619  PRO620  LYS621  CYS622 
 ASP623  PHE694  ASN695  SER759  ASP760  ASP761  ALA762  ILE779  LEU786  VAL792 
 PHE793  MET794  SER795  GLU796  ALA797  LYS798  CYS799  TRP800  GLU811  SER814 

> <Gold.Protein.RotatedAtoms>
  150.8234  133.8213  159.3128 H   0  0  0  0  0  0  0  0  0  0  0  0  # atno 6907 bound_to 6896
  151.5965  135.1048  160.0060 H   0  0  0  0  0  0  0  0  0  0  0  0  # atno 6908 bound_to 6896
  152.4321  133.7255  159.6614 H   0  0  0  0  0  0  0  0  0  0  0  0  # atno 6909 bound_to 6896
  145.5866  139.2332  143.2323 H   0  0  0  0  0  0  0  0  0  0  0  0  # atno 7974 bound_to 7965
  154.4437  140.1906  156.0737 H   0  0  0  0  0  0  0  0  0  0  0  0  # atno 8008 bound_to 7997
  156.0491  140.3310  155.7304 H   0  0  0  0  0  0  0  0  0  0  0  0  # atno 8009 bound_to 7997
  155.5584  140.0601  157.2825 H   0  0  0  0  0  0  0  0  0  0  0  0  # atno 8010 bound_to 7997
  140.1926  143.3880  152.1194 H   0  0  0  0  0  0  0  0  0  0  0  0  # atno 10167 bound_to 10162
  156.0526  130.5753  150.8070 H   0  0  0  0  0  0  0  0  0  0  0  0  # atno 10718 bound_to 10713
  152.9866  135.5614  154.5516 H   0  0  0  0  0  0  0  0  0  0  0  0  # atno 10763 bound_to 10752
  154.4952  135.2794  155.1467 H   0  0  0  0  0  0  0  0  0  0  0  0  # atno 10764 bound_to 10752
  154.2920  135.6324  153.5442 H   0  0  0  0  0  0  0  0  0  0  0  0  # atno 10765 bound_to 10752
  140.8554  133.7826  156.0014 H   0  0  0  0  0  0  0  0  0  0  0  0  # atno 11005 bound_to 11000
  146.1677  140.6692  142.9247 LP  0  0  0  0  0  0  0  0  0  0  0  0  # atno 17320 bound_to 7965
  144.7370  140.4836  143.6897 LP  0  0  0  0  0  0  0  0  0  0  0  0  # atno 17321 bound_to 7965
  139.5250  144.7090  151.5265 LP  0  0  0  0  0  0  0  0  0  0  0  0  # atno 17342 bound_to 10162
  140.6445  143.8821  150.6724 LP  0  0  0  0  0  0  0  0  0  0  0  0  # atno 17343 bound_to 10162
  157.5466  131.0942  150.9754 LP  0  0  0  0  0  0  0  0  0  0  0  0  # atno 17370 bound_to 10713
  157.0024  130.5605  149.5312 LP  0  0  0  0  0  0  0  0  0  0  0  0  # atno 17371 bound_to 10713
  140.8743  134.2689  157.5176 LP  0  0  0  0  0  0  0  0  0  0  0  0  # atno 17394 bound_to 11000
  139.8705  134.9583  156.4295 LP  0  0  0  0  0  0  0  0  0  0  0  0  # atno 17395 bound_to 11000

$$$$
