AV-unprocessed.smi:1626|AV-procd|sdf|6508|dock4
  -GOLD-   22720 7173D 1   1.00000     0.00000
 Structure written by MMmdl.
 48 50  0  0  0  0  0  0  0  0  2 V2000
  153.7380  142.7367  163.3297 C   0  0  0  0  0  0  0  0  0  0  0  0
  153.1212  142.8632  161.9478 C   0  0  0  0  0  0  0  0  0  0  0  0
  152.2082  143.9120  161.6969 C   0  0  0  0  0  0  0  0  0  0  0  0
  151.6103  144.0635  160.4269 C   0  0  0  0  0  0  0  0  0  0  0  0
  150.7014  145.0010  159.9680 N   0  0  0  0  0  0  0  0  0  0  0  0
  150.5290  144.6135  158.7081 C   0  0  0  0  0  0  0  0  0  0  0  0
  151.2091  143.5249  158.2987 N   0  0  0  0  0  0  0  0  0  0  0  0
  151.1717  142.9144  156.9816 C   0  0  0  0  0  0  0  0  0  0  0  0
  150.6548  141.4618  157.0132 C   0  0  2  0  0  0  0  0  0  0  0  0
  151.7765  140.6123  157.1475 O   0  0  0  0  0  0  0  0  0  0  0  0
  149.8644  141.0595  155.7471 C   0  0  0  0  0  0  0  0  0  0  0  0
  148.5431  141.7325  155.6639 N   0  3  2  0  0  0  0  0  0  0  0  0
  147.6109  141.2783  156.7275 C   0  0  0  0  0  0  0  0  0  0  0  0
  146.3073  142.0973  156.7132 C   0  0  0  0  0  0  0  0  0  0  0  0
  145.6254  142.0703  155.3354 C   0  0  2  0  0  0  0  0  0  0  0  0
  145.0968  140.7841  155.0812 O   0  0  0  0  0  0  0  0  0  0  0  0
  146.6267  142.4602  154.2353 C   0  0  0  0  0  0  0  0  0  0  0  0
  147.9210  141.6305  154.3163 C   0  0  0  0  0  0  0  0  0  0  0  0
  151.9536  143.1296  159.4057 C   0  0  0  0  0  0  0  0  0  0  0  0
  152.8656  142.0856  159.6418 C   0  0  0  0  0  0  0  0  0  0  0  0
  153.4503  141.9462  160.9177 C   0  0  0  0  0  0  0  0  0  0  0  0
  154.4269  140.8099  161.1649 C   0  0  0  0  0  0  0  0  0  0  0  0
  153.4422  143.5644  163.9750 H   0  0  0  0  0  0  0  0  0  0  0  0
  154.8264  142.7365  163.2671 H   0  0  0  0  0  0  0  0  0  0  0  0
  153.4177  141.8092  163.8049 H   0  0  0  0  0  0  0  0  0  0  0  0
  151.9581  144.6111  162.4814 H   0  0  0  0  0  0  0  0  0  0  0  0
  149.8607  145.1460  158.0471 H   0  0  0  0  0  0  0  0  0  0  0  0
  150.5413  143.5260  156.3338 H   0  0  0  0  0  0  0  0  0  0  0  0
  152.1784  142.9502  156.5628 H   0  0  0  0  0  0  0  0  0  0  0  0
  150.0406  141.3370  157.9033 H   0  0  0  0  0  0  0  0  0  0  0  0
  152.1501  140.7275  158.0075 H   0  0  0  0  0  0  0  0  0  0  0  0
  150.4214  141.2923  154.8389 H   0  0  0  0  0  0  0  0  0  0  0  0
  149.7390  139.9756  155.7489 H   0  0  0  0  0  0  0  0  0  0  0  0
  147.3952  140.2167  156.5959 H   0  0  0  0  0  0  0  0  0  0  0  0
  148.0851  141.3859  157.7037 H   0  0  0  0  0  0  0  0  0  0  0  0
  145.6246  141.7317  157.4815 H   0  0  0  0  0  0  0  0  0  0  0  0
  146.5355  143.1308  156.9774 H   0  0  0  0  0  0  0  0  0  0  0  0
  144.7886  142.7697  155.3319 H   0  0  0  0  0  0  0  0  0  0  0  0
  144.8532  140.7311  154.1691 H   0  0  0  0  0  0  0  0  0  0  0  0
  146.1704  142.3509  153.2507 H   0  0  0  0  0  0  0  0  0  0  0  0
  146.8764  143.5172  154.3379 H   0  0  0  0  0  0  0  0  0  0  0  0
  148.6112  141.9791  153.5491 H   0  0  0  0  0  0  0  0  0  0  0  0
  147.7110  140.5840  154.0901 H   0  0  0  0  0  0  0  0  0  0  0  0
  153.1141  141.3966  158.8484 H   0  0  0  0  0  0  0  0  0  0  0  0
  154.5156  140.1641  160.2909 H   0  0  0  0  0  0  0  0  0  0  0  0
  154.0954  140.1946  162.0016 H   0  0  0  0  0  0  0  0  0  0  0  0
  155.4180  141.2021  161.3940 H   0  0  0  0  0  0  0  0  0  0  0  0
  148.7115  142.7121  155.8415 H   0  0  0  0  0  0  0  0  0  0  0  0
  1  2  1  0  0  0  0
  1 23  1  0  0  0  0
  1 24  1  0  0  0  0
  1 25  1  0  0  0  0
  2 21  1  0  0  0  0
  2  3  2  0  0  0  0
  3  4  1  0  0  0  0
  3 26  1  0  0  0  0
  4 19  2  0  0  0  0
  4  5  1  0  0  0  0
  5  6  2  0  0  0  0
  6  7  1  0  0  0  0
  6 27  1  0  0  0  0
  7  8  1  0  0  0  0
  7 19  1  0  0  0  0
  8  9  1  0  0  0  0
  8 28  1  0  0  0  0
  8 29  1  0  0  0  0
  9 10  1  0  0  0  0
  9 11  1  0  0  0  0
  9 30  1  0  0  0  0
 10 31  1  0  0  0  0
 11 12  1  0  0  0  0
 11 32  1  0  0  0  0
 11 33  1  0  0  0  0
 12 18  1  0  0  0  0
 12 13  1  0  0  0  0
 12 48  1  0  0  0  0
 13 14  1  0  0  0  0
 13 34  1  0  0  0  0
 13 35  1  0  0  0  0
 14 15  1  0  0  0  0
 14 36  1  0  0  0  0
 14 37  1  0  0  0  0
 15 16  1  0  0  0  0
 15 17  1  0  0  0  0
 15 38  1  0  0  0  0
 16 39  1  0  0  0  0
 17 18  1  0  0  0  0
 17 40  1  0  0  0  0
 17 41  1  0  0  0  0
 18 42  1  0  0  0  0
 18 43  1  0  0  0  0
 19 20  1  0  0  0  0
 20 21  2  0  0  0  0
 20 44  1  0  0  0  0
 21 22  1  0  0  0  0
 22 45  1  0  0  0  0
 22 46  1  0  0  0  0
 22 47  1  0  0  0  0
M  CHG  1  12   1
M  END
> <s_m_source_file>
AV-unprocessed.smi

> <i_m_source_file_index>
1626

> <i_lp_mmshare_version>
43012

> <i_f3d_flags>
0

> <s_epik_input>
W0NIM11jKFtjSF0xKWMoW0NIM10pW2NIXWMoYzEyKW4oW2NIXW4yKVtDSDJdW0NASF0oW09IXSlbQ0gyXU4zW0NIMl1bQ0gyXVtDSF0oW09IXSlbQ0gyXVtDSDJdMw==

> <s_epik_cmdline>
J2VwaWtfcHl0aG9uJywgJy1waCcsICc3LjAnLCAnLXRuJywgJzgnLCAnLW1hJywgJzIwMCcsICctbWV0YWxfYmluZGluZycsICctaW1hZScsICc8aW5maWxlLm1hZT4nLCAnLW9tYWUnLCAnPG91dGZpbGUubWFlPic=

> <r_epik_Ionization_Penalty>
0.106584

> <r_epik_Ionization_Penalty_Charging>
0.0185694

> <r_epik_Ionization_Penalty_Neutral>
0.0880147

> <r_epik_State_Penalty>
0.0908428

> <r_epik_Charging_Adjusted_Penalty>
0.109412

> <i_epik_Tot_Q>
1

> <i_epik_Tot_abs_Q>
1

> <r_epik_Metal_State_Penalty>
0.0153739

> <b_epik_Metal_Only>
0

> <s_lp_Force_Field>
OPLS_2005

> <r_lp_Energy>
24.9536

> <b_lp_Chiralities_Consistent>
1

> <s_lp_Variant>
AV-unprocessed.smi:1626-3

> <Gold.Version>
5.8.1

> <Gold.Id.Protein>
6NUR|6NUR_protein|mol2

> <Gold.PLP.Fitness>
65.7608

> <Gold.PLP.PLP>
-55.1768

> <Gold.PLP.part.hbond>
-2.0000

> <Gold.PLP.part.metal>
0.0000

> <Gold.PLP.part.buried>
-7.8942

> <Gold.PLP.part.nonpolar>
-46.2374

> <Gold.PLP.part.repulsive>
0.2689

> <Gold.PLP.ligand.clash>
0.0000

> <Gold.PLP.ligand.torsion>
0.5427

> <Gold.PLP.Chemscore.Hbond>
3.0000

> <Gold.PLP.Chemscore.CHOScore>
0.8774

> <Gold.PLP.Chemscore.Metal>
0.0000

> <Gold.Chemscore.Hbonds>
donor molecule, donor type, donor heavy atom, donor atom, acceptor molecule, acceptor atom, score
      L1  H    12    48       P1  8028  2.00
      L1  H    16    39       P1 10175  0.93
      L1  C     6    27       P1  8028  0.10
      L1  C     6    27       P1  8029  0.84

> <Gold.PLP.Chemscore.Internal.Correction>
0.0373

> <Gold.Rescore>
     Score         DG    S(hbond)    S(metal)    S(lipo)     H(rot)  DE(clash)    DE(int)     intcor
     19.75     -20.57       1.90        0.00     133.18       2.67       0.17       0.66       ----

> <Gold.Chemscore.Fitness>
19.7462

> <Gold.Chemscore.DG>
-20.5747

> <Gold.Chemscore.ZeroCoef>
-5.4800

> <Gold.Chemscore.Hbond>
1.9015

> <Gold.Chemscore.Metal>
0.0000

> <Gold.Chemscore.Lipo>
133.1782

> <Gold.Chemscore.Internal_Hbond>
0.0000

> <Gold.Chemscore.DEClash>
0.1717

> <Gold.Chemscore.DEInternal>
0.6567

> <Gold.Chemscore.Rot>
2.6712

> <Gold.Chemscore.Internal.Correction>
   9.000000E+99

> <Gold.Chemscore.Hbonds>
donor molecule, donor type, donor heavy atom, donor atom, acceptor molecule, acceptor atom, score
      L1  H    12    48       P1  8028  0.94
      L1  H    16    39       P1 10175  0.87

> <Gold.Chemscore.Hbond.Weighted>
-6.3512

> <Gold.Chemscore.Metal.Weighted>
-0.0000

> <Gold.Chemscore.Lipo.Weighted>
-15.5819

> <Gold.Chemscore.Internal_Hbond.Weighted>
0.0000

> <Gold.Chemscore.DEClash.Weighted>
0.1717

> <Gold.Chemscore.DEInternal.Weighted>
0.6567

> <Gold.Chemscore.Rot.Weighted>
6.8383

> <Gold.Chemscore.Internal.Correction.Weighted>
   9.000000E+99

> <Gold.Protein.RotatedTorsions>
[ 6907 6896 6895 6894 ] final  156.93 input  -60.11 | X-H torsion
[ 7974 7965 7964 7962 ] final  -98.05 input  175.53 | X-H torsion
[ 8008 7997 7996 7995 ] final  155.97 input   59.86 | X-H torsion
[ 10167 10162 10161 10158 ] final  -73.07 input  -65.29 | X-H torsion
[ 10718 10713 10712 10709 ] final  -66.66 input   66.30 | X-H torsion
[ 10763 10752 10751 10750 ] final   22.87 input  -60.55 | X-H torsion
[ 11005 11000 10999 10996 ] final -169.18 input  -57.11 | X-H torsion

> <Gold.Protein.ActiveResidues>
 VAL166  LYS551  ARG553  GLY616  TRP617  ASP618  TYR619  PRO620  LYS621  CYS622 
 ASP623  PHE694  ASN695  SER759  ASP760  ASP761  ALA762  ILE779  LEU786  VAL792 
 PHE793  MET794  SER795  GLU796  ALA797  LYS798  CYS799  TRP800  GLU811  SER814 

> <Gold.Protein.RotatedAtoms>
  152.0225  133.3904  159.4263 H   0  0  0  0  0  0  0  0  0  0  0  0  # atno 6907 bound_to 6896
  150.6889  134.3610  159.4960 H   0  0  0  0  0  0  0  0  0  0  0  0  # atno 6908 bound_to 6896
  152.1386  134.9080  160.0605 H   0  0  0  0  0  0  0  0  0  0  0  0  # atno 6909 bound_to 6896
  145.3257  140.9431  143.2690 H   0  0  0  0  0  0  0  0  0  0  0  0  # atno 7974 bound_to 7965
  156.2448  140.1925  156.6884 H   0  0  0  0  0  0  0  0  0  0  0  0  # atno 8008 bound_to 7997
  154.6270  140.0601  156.9711 H   0  0  0  0  0  0  0  0  0  0  0  0  # atno 8009 bound_to 7997
  155.1771  140.3273  155.4384 H   0  0  0  0  0  0  0  0  0  0  0  0  # atno 8010 bound_to 7997
  140.5140  143.2340  151.7544 H   0  0  0  0  0  0  0  0  0  0  0  0  # atno 10167 bound_to 10162
  156.0600  130.4265  150.1741 H   0  0  0  0  0  0  0  0  0  0  0  0  # atno 10718 bound_to 10713
  153.0882  135.6639  153.9907 H   0  0  0  0  0  0  0  0  0  0  0  0  # atno 10763 bound_to 10752
  153.9511  135.2984  155.3440 H   0  0  0  0  0  0  0  0  0  0  0  0  # atno 10764 bound_to 10752
  154.7292  135.5130  153.9009 H   0  0  0  0  0  0  0  0  0  0  0  0  # atno 10765 bound_to 10752
  140.5336  134.5591  157.5081 H   0  0  0  0  0  0  0  0  0  0  0  0  # atno 11005 bound_to 11000
  144.8904  139.4783  143.6681 LP  0  0  0  0  0  0  0  0  0  0  0  0  # atno 17320 bound_to 7965
  146.3065  139.7598  142.9052 LP  0  0  0  0  0  0  0  0  0  0  0  0  # atno 17321 bound_to 7965
  139.4904  144.4350  151.9830 LP  0  0  0  0  0  0  0  0  0  0  0  0  # atno 17342 bound_to 10162
  140.3443  144.3165  150.5961 LP  0  0  0  0  0  0  0  0  0  0  0  0  # atno 17343 bound_to 10162
  156.9811  130.9864  151.3437 LP  0  0  0  0  0  0  0  0  0  0  0  0  # atno 17370 bound_to 10713
  157.5601  130.8240  149.8255 LP  0  0  0  0  0  0  0  0  0  0  0  0  # atno 17371 bound_to 10713
  139.9541  134.7566  156.0382 LP  0  0  0  0  0  0  0  0  0  0  0  0  # atno 17394 bound_to 11000
  141.1267  133.6597  156.3356 LP  0  0  0  0  0  0  0  0  0  0  0  0  # atno 17395 bound_to 11000

$$$$
