AV-unprocessed.smi:2741|AV-procd|sdf|10561|dock7
  -GOLD-   2272015 13D 1   1.00000     0.00000
 Structure written by MMmdl.
 39 40  0  0  0  0  0  0  0  0  1 V2000
  149.9333  139.3614  156.4094 O   0  0  0  0  0  0  0  0  0  0  0  0
  149.9728  140.5766  156.6080 C   0  0  0  0  0  0  0  0  0  0  0  0
  151.2995  141.3466  156.5432 C   0  0  0  0  0  0  0  0  0  0  0  0
  151.8822  141.6279  157.8662 N   0  0  0  0  0  0  0  0  0  0  0  0
  151.5890  142.8797  158.4422 C   0  0  0  0  0  0  0  0  0  0  0  0
  152.0638  143.2631  159.6431 C   0  0  0  0  0  0  0  0  0  0  0  0
  151.6921  144.5999  160.2658 C   0  0  0  0  0  0  0  0  0  0  0  0
  152.1204  145.6120  159.5111 F   0  0  0  0  0  0  0  0  0  0  0  0
  150.3677  144.6961  160.3742 F   0  0  0  0  0  0  0  0  0  0  0  0
  152.2197  144.7326  161.4834 F   0  0  0  0  0  0  0  0  0  0  0  0
  152.8811  142.2980  160.3516 C   0  0  0  0  0  0  0  0  0  0  0  0
  153.1708  141.0965  159.8152 C   0  0  0  0  0  0  0  0  0  0  0  0
  152.6693  140.7048  158.4958 C   0  0  0  0  0  0  0  0  0  0  0  0
  152.9365  139.6145  157.9900 O   0  0  0  0  0  0  0  0  0  0  0  0
  148.8829  141.3137  156.8685 N   0  0  0  0  0  0  0  0  0  0  0  0
  147.5183  140.8027  156.9435 C   0  0  0  0  0  0  0  0  0  0  0  0
  146.7700  140.9519  155.6044 C   0  0  1  0  0  0  0  0  0  0  0  0
  146.7520  142.3881  155.0694 C   0  0  0  0  0  0  0  0  0  0  0  0
  146.4913  142.2200  153.5747 C   0  0  0  0  0  0  0  0  0  0  0  0
  147.3266  140.9934  153.2026 C   0  0  2  0  0  0  0  0  0  0  0  0
  146.8096  140.3267  152.0702 O   0  0  0  0  0  0  0  0  0  0  0  0
  147.3375  140.0981  154.4526 C   0  0  0  0  0  0  0  0  0  0  0  0
  151.9973  140.7677  155.9365 H   0  0  0  0  0  0  0  0  0  0  0  0
  151.1488  142.2763  155.9915 H   0  0  0  0  0  0  0  0  0  0  0  0
  150.9545  143.5130  157.8393 H   0  0  0  0  0  0  0  0  0  0  0  0
  153.2725  142.5452  161.3274 H   0  0  0  0  0  0  0  0  0  0  0  0
  153.7863  140.4036  160.3703 H   0  0  0  0  0  0  0  0  0  0  0  0
  149.0062  142.3048  157.0173 H   0  0  0  0  0  0  0  0  0  0  0  0
  147.5281  139.7580  157.2588 H   0  0  0  0  0  0  0  0  0  0  0  0
  146.9962  141.3546  157.7258 H   0  0  0  0  0  0  0  0  0  0  0  0
  145.7302  140.6540  155.7509 H   0  0  0  0  0  0  0  0  0  0  0  0
  145.9995  143.0075  155.5584 H   0  0  0  0  0  0  0  0  0  0  0  0
  147.7234  142.8615  155.2199 H   0  0  0  0  0  0  0  0  0  0  0  0
  145.4301  142.0245  153.4116 H   0  0  0  0  0  0  0  0  0  0  0  0
  146.7613  143.1037  152.9960 H   0  0  0  0  0  0  0  0  0  0  0  0
  148.3470  141.3114  152.9837 H   0  0  0  0  0  0  0  0  0  0  0  0
  147.5305  140.0798  151.5111 H   0  0  0  0  0  0  0  0  0  0  0  0
  148.3558  139.7656  154.6587 H   0  0  0  0  0  0  0  0  0  0  0  0
  146.7294  139.2019  154.3206 H   0  0  0  0  0  0  0  0  0  0  0  0
  1  2  2  0  0  0  0
  2  3  1  0  0  0  0
  2 15  1  0  0  0  0
  3  4  1  0  0  0  0
  3 23  1  0  0  0  0
  3 24  1  0  0  0  0
  4 13  1  0  0  0  0
  4  5  1  0  0  0  0
  5  6  2  0  0  0  0
  5 25  1  0  0  0  0
  6  7  1  0  0  0  0
  6 11  1  0  0  0  0
  7  8  1  0  0  0  0
  7  9  1  0  0  0  0
  7 10  1  0  0  0  0
 11 12  2  0  0  0  0
 11 26  1  0  0  0  0
 12 13  1  0  0  0  0
 12 27  1  0  0  0  0
 13 14  2  0  0  0  0
 15 16  1  0  0  0  0
 15 28  1  0  0  0  0
 16 17  1  0  0  0  0
 16 29  1  0  0  0  0
 16 30  1  0  0  0  0
 17 22  1  0  0  0  0
 17 18  1  0  0  0  0
 17 31  1  0  0  0  0
 18 19  1  0  0  0  0
 18 32  1  0  0  0  0
 18 33  1  0  0  0  0
 19 20  1  0  0  0  0
 19 34  1  0  0  0  0
 19 35  1  0  0  0  0
 20 21  1  0  0  0  0
 20 22  1  0  0  0  0
 20 36  1  0  0  0  0
 21 37  1  0  0  0  0
 22 38  1  0  0  0  0
 22 39  1  0  0  0  0
M  END
> <s_m_source_file>
AV-unprocessed.smi

> <i_m_source_file_index>
2741

> <i_lp_mmshare_version>
43012

> <i_f3d_flags>
0

> <s_epik_input>
W09IXVtDQEBIXShbQ0gyXTEpW0NIMl1bQ0gyXVtDQEhdMVtDSDJdW05IXUMoPU8pW0NIMl1uMltjSF1jKEMoRikoRilGKVtjSF1bY0hdYzI9Tw==

> <s_epik_cmdline>
J2VwaWtfcHl0aG9uJywgJy1waCcsICc3LjAnLCAnLXRuJywgJzgnLCAnLW1hJywgJzIwMCcsICctbWV0YWxfYmluZGluZycsICctaW1hZScsICc8aW5maWxlLm1hZT4nLCAnLW9tYWUnLCAnPG91dGZpbGUubWFlPic=

> <r_lp_tautomer_probability>
1

> <r_epik_Ionization_Penalty>
1.17551e-06

> <r_epik_Ionization_Penalty_Charging>
1.78841e-08

> <r_epik_Ionization_Penalty_Neutral>
1.15762e-06

> <r_epik_State_Penalty>
-0

> <r_epik_Charging_Adjusted_Penalty>
1.78841e-08

> <i_epik_Tot_Q>
0

> <i_epik_Tot_abs_Q>
0

> <r_epik_Metal_State_Penalty>
-0

> <b_epik_Metal_Only>
0

> <s_lp_Force_Field>
OPLS_2005

> <r_lp_Energy>
34.082

> <b_lp_Chiralities_Consistent>
1

> <s_lp_Variant>
AV-unprocessed.smi:2741-4

> <Gold.Version>
5.8.1

> <Gold.Id.Protein>
6NUR|6NUR_protein|mol2

> <Gold.PLP.Fitness>
47.9465

> <Gold.PLP.PLP>
-43.6204

> <Gold.PLP.part.hbond>
-2.5142

> <Gold.PLP.part.metal>
0.0000

> <Gold.PLP.part.buried>
-4.0047

> <Gold.PLP.part.nonpolar>
-33.9627

> <Gold.PLP.part.repulsive>
0.0285

> <Gold.PLP.ligand.clash>
0.0000

> <Gold.PLP.ligand.torsion>
0.8444

> <Gold.PLP.Chemscore.Hbond>
1.9913

> <Gold.PLP.Chemscore.CHOScore>
0.0000

> <Gold.PLP.Chemscore.Metal>
0.0000

> <Gold.Chemscore.Hbonds>
donor molecule, donor type, donor heavy atom, donor atom, acceptor molecule, acceptor atom, score
      L1  H    21    37       P1  7957  0.91
      P1  H  7997  8008       L1    14  1.00

> <Gold.PLP.Chemscore.Internal.Correction>
0.0411

> <Gold.Rescore>
     Score         DG    S(hbond)    S(metal)    S(lipo)     H(rot)  DE(clash)    DE(int)     intcor
     14.01     -15.64       1.91        0.00      86.60       2.48       0.78       0.85       ----

> <Gold.Chemscore.Fitness>
14.0142

> <Gold.Chemscore.DG>
-15.6355

> <Gold.Chemscore.ZeroCoef>
-5.4800

> <Gold.Chemscore.Hbond>
1.9084

> <Gold.Chemscore.Metal>
0.0000

> <Gold.Chemscore.Lipo>
86.5983

> <Gold.Chemscore.Internal_Hbond>
0.0000

> <Gold.Chemscore.DEClash>
0.7762

> <Gold.Chemscore.DEInternal>
0.8450

> <Gold.Chemscore.Rot>
2.4807

> <Gold.Chemscore.Internal.Correction>
   9.000000E+99

> <Gold.Chemscore.Hbonds>
donor molecule, donor type, donor heavy atom, donor atom, acceptor molecule, acceptor atom, score
      L1  H    21    37       P1  7957  0.84
      P1  H  7997  8008       L1    14  0.34

> <Gold.Chemscore.Hbond.Weighted>
-6.3741

> <Gold.Chemscore.Metal.Weighted>
-0.0000

> <Gold.Chemscore.Lipo.Weighted>
-10.1320

> <Gold.Chemscore.Internal_Hbond.Weighted>
0.0000

> <Gold.Chemscore.DEClash.Weighted>
0.7762

> <Gold.Chemscore.DEInternal.Weighted>
0.8450

> <Gold.Chemscore.Rot.Weighted>
6.3507

> <Gold.Chemscore.Internal.Correction.Weighted>
   9.000000E+99

> <Gold.Protein.RotatedTorsions>
[ 6907 6896 6895 6894 ] final   87.08 input  -60.11 | X-H torsion
[ 7974 7965 7964 7962 ] final   99.47 input  175.53 | X-H torsion
[ 8008 7997 7996 7995 ] final  -69.19 input   59.86 | X-H torsion
[ 10167 10162 10161 10158 ] final -142.26 input  -65.29 | X-H torsion
[ 10718 10713 10712 10709 ] final  123.54 input   66.30 | X-H torsion
[ 10763 10752 10751 10750 ] final  -24.67 input  -60.55 | X-H torsion
[ 11005 11000 10999 10996 ] final   95.88 input  -57.11 | X-H torsion

> <Gold.Protein.ActiveResidues>
 VAL166  LYS551  ARG553  GLY616  TRP617  ASP618  TYR619  PRO620  LYS621  CYS622 
 ASP623  PHE694  ASN695  SER759  ASP760  ASP761  ALA762  ILE779  LEU786  VAL792 
 PHE793  MET794  SER795  GLU796  ALA797  LYS798  CYS799  TRP800  GLU811  SER814 

> <Gold.Protein.RotatedAtoms>
  152.5405  134.2332  159.8832 H   0  0  0  0  0  0  0  0  0  0  0  0  # atno 6907 bound_to 6896
  151.2303  133.4447  159.2611 H   0  0  0  0  0  0  0  0  0  0  0  0  # atno 6908 bound_to 6896
  151.0722  134.9819  159.8370 H   0  0  0  0  0  0  0  0  0  0  0  0  # atno 6909 bound_to 6896
  145.3984  139.2351  143.3313 H   0  0  0  0  0  0  0  0  0  0  0  0  # atno 7974 bound_to 7965
  154.4921  140.0858  156.7617 H   0  0  0  0  0  0  0  0  0  0  0  0  # atno 8008 bound_to 7997
  155.4205  140.3445  155.4253 H   0  0  0  0  0  0  0  0  0  0  0  0  # atno 8009 bound_to 7997
  156.1344  140.1511  156.9005 H   0  0  0  0  0  0  0  0  0  0  0  0  # atno 8010 bound_to 7997
  139.8106  143.7708  152.2663 H   0  0  0  0  0  0  0  0  0  0  0  0  # atno 10167 bound_to 10162
  157.5656  131.1087  150.8460 H   0  0  0  0  0  0  0  0  0  0  0  0  # atno 10718 bound_to 10713
  153.6875  135.6963  153.5099 H   0  0  0  0  0  0  0  0  0  0  0  0  # atno 10763 bound_to 10752
  153.2438  135.4297  155.0725 H   0  0  0  0  0  0  0  0  0  0  0  0  # atno 10764 bound_to 10752
  154.8382  135.3514  154.6418 H   0  0  0  0  0  0  0  0  0  0  0  0  # atno 10765 bound_to 10752
  139.8785  134.8922  156.4076 H   0  0  0  0  0  0  0  0  0  0  0  0  # atno 11005 bound_to 11000
  146.2763  140.4678  142.8794 LP  0  0  0  0  0  0  0  0  0  0  0  0  # atno 17320 bound_to 7965
  144.8391  140.6828  143.6241 LP  0  0  0  0  0  0  0  0  0  0  0  0  # atno 17321 bound_to 7965
  139.7856  144.7429  151.0027 LP  0  0  0  0  0  0  0  0  0  0  0  0  # atno 17342 bound_to 10162
  140.7818  143.4496  151.0432 LP  0  0  0  0  0  0  0  0  0  0  0  0  # atno 17343 bound_to 10162
  156.8946  130.5225  149.5285 LP  0  0  0  0  0  0  0  0  0  0  0  0  # atno 17370 bound_to 10713
  156.0705  130.5739  150.9373 LP  0  0  0  0  0  0  0  0  0  0  0  0  # atno 17371 bound_to 10713
  140.9223  133.7636  155.9922 LP  0  0  0  0  0  0  0  0  0  0  0  0  # atno 17394 bound_to 11000
  140.8425  134.3049  157.5308 LP  0  0  0  0  0  0  0  0  0  0  0  0  # atno 17395 bound_to 11000

$$$$
