AV-unprocessed.smi:2124|AV-procd|sdf|8655|dock4
  -GOLD-   2272011403D 1   1.00000     0.00000
 Structure written by MMmdl.
 47 49  0  0  0  0  0  0  0  0  1 V2000
  150.0287  134.8427  154.5770 C   0  0  0  0  0  0  0  0  0  0  0  0
  150.6630  136.1180  155.0905 C   0  0  0  0  0  0  0  0  0  0  0  0
  151.4897  136.1641  156.0829 N   0  0  0  0  0  0  0  0  0  0  0  0
  152.0104  137.4073  156.4688 C   0  0  0  0  0  0  0  0  0  0  0  0
  152.9686  137.3812  157.6475 C   0  0  0  0  0  0  0  0  0  0  0  0
  151.6688  138.5588  155.8195 C   0  0  0  0  0  0  0  0  0  0  0  0
  152.2145  139.9295  156.2179 C   0  0  0  0  0  0  0  0  0  0  0  0
  151.8394  140.4241  157.6172 C   0  0  0  0  0  0  0  0  0  0  0  0
  150.6625  140.4421  157.9784 O   0  0  0  0  0  0  0  0  0  0  0  0
  152.8644  140.8155  158.3931 N   0  0  0  0  0  0  0  0  0  0  0  0
  152.8021  141.2985  159.7754 C   0  0  1  0  0  0  0  0  0  0  0  0
  153.7757  140.5112  160.6749 C   0  0  0  0  0  0  0  0  0  0  0  0
  152.9944  142.8362  159.8759 C   0  0  2  0  0  0  0  0  0  0  0  0
  152.4770  143.4378  161.2051 C   0  0  0  0  0  0  0  0  0  0  0  0
  151.5340  144.5620  160.7421 C   0  0  1  0  0  0  0  0  0  0  0  0
  152.3573  145.6968  160.1055 C   0  0  0  0  0  0  0  0  0  0  0  0
  152.7946  145.0840  158.7619 C   0  0  0  0  0  0  0  0  0  0  0  0
  152.2033  143.6630  158.8287 C   0  0  2  0  0  0  0  0  0  0  0  0
  150.8732  143.9235  159.5278 C   0  0  0  0  0  0  0  0  0  0  0  0
  150.7226  138.4946  154.6892 C   0  0  0  0  0  0  0  0  0  0  0  0
  150.3408  139.4692  154.0429 O   0  0  0  0  0  0  0  0  0  0  0  0
  150.2709  137.2566  154.3885 N   0  0  0  0  0  0  0  0  0  0  0  0
  149.6196  137.1601  153.6232 H   0  0  0  0  0  0  0  0  0  0  0  0
  149.4513  134.3656  155.3693 H   0  0  0  0  0  0  0  0  0  0  0  0
  150.7998  134.1464  154.2464 H   0  0  0  0  0  0  0  0  0  0  0  0
  149.3599  135.0353  153.7367 H   0  0  0  0  0  0  0  0  0  0  0  0
  153.9682  137.6817  157.3334 H   0  0  0  0  0  0  0  0  0  0  0  0
  153.0400  136.3814  158.0771 H   0  0  0  0  0  0  0  0  0  0  0  0
  152.6334  138.0575  158.4341 H   0  0  0  0  0  0  0  0  0  0  0  0
  153.3024  139.9024  156.1505 H   0  0  0  0  0  0  0  0  0  0  0  0
  151.9096  140.6849  155.4927 H   0  0  0  0  0  0  0  0  0  0  0  0
  153.7882  140.7599  157.9895 H   0  0  0  0  0  0  0  0  0  0  0  0
  151.7919  141.0617  160.1107 H   0  0  0  0  0  0  0  0  0  0  0  0
  153.6238  140.7459  161.7280 H   0  0  0  0  0  0  0  0  0  0  0  0
  154.8163  140.7351  160.4397 H   0  0  0  0  0  0  0  0  0  0  0  0
  153.6331  139.4361  160.5606 H   0  0  0  0  0  0  0  0  0  0  0  0
  154.0581  143.0564  159.7771 H   0  0  0  0  0  0  0  0  0  0  0  0
  151.9157  142.7049  161.7859 H   0  0  0  0  0  0  0  0  0  0  0  0
  153.2865  143.8072  161.8357 H   0  0  0  0  0  0  0  0  0  0  0  0
  150.8458  144.9008  161.5168 H   0  0  0  0  0  0  0  0  0  0  0  0
  151.7415  146.5819  159.9414 H   0  0  0  0  0  0  0  0  0  0  0  0
  153.2059  145.9876  160.7257 H   0  0  0  0  0  0  0  0  0  0  0  0
  152.3633  145.6420  157.9298 H   0  0  0  0  0  0  0  0  0  0  0  0
  153.8776  145.0822  158.6337 H   0  0  0  0  0  0  0  0  0  0  0  0
  152.1191  143.1974  157.8466 H   0  0  0  0  0  0  0  0  0  0  0  0
  150.3177  143.0145  159.7631 H   0  0  0  0  0  0  0  0  0  0  0  0
  150.2225  144.6075  158.9801 H   0  0  0  0  0  0  0  0  0  0  0  0
  1  2  1  0  0  0  0
  1 24  1  0  0  0  0
  1 25  1  0  0  0  0
  1 26  1  0  0  0  0
  2 22  1  0  0  0  0
  2  3  2  0  0  0  0
  3  4  1  0  0  0  0
  4  5  1  0  0  0  0
  4  6  2  0  0  0  0
  5 27  1  0  0  0  0
  5 28  1  0  0  0  0
  5 29  1  0  0  0  0
  6  7  1  0  0  0  0
  6 20  1  0  0  0  0
  7  8  1  0  0  0  0
  7 30  1  0  0  0  0
  7 31  1  0  0  0  0
  8  9  2  0  0  0  0
  8 10  1  0  0  0  0
 10 11  1  0  0  0  0
 10 32  1  0  0  0  0
 11 12  1  0  0  0  0
 11 13  1  0  0  0  0
 11 33  1  0  0  0  0
 12 34  1  0  0  0  0
 12 35  1  0  0  0  0
 12 36  1  0  0  0  0
 13 18  1  0  0  0  0
 13 14  1  0  0  0  0
 13 37  1  0  0  0  0
 14 15  1  0  0  0  0
 14 38  1  0  0  0  0
 14 39  1  0  0  0  0
 15 19  1  0  0  0  0
 15 16  1  0  0  0  0
 15 40  1  0  0  0  0
 16 17  1  0  0  0  0
 16 41  1  0  0  0  0
 16 42  1  0  0  0  0
 17 18  1  0  0  0  0
 17 43  1  0  0  0  0
 17 44  1  0  0  0  0
 18 19  1  0  0  0  0
 18 45  1  0  0  0  0
 19 46  1  0  0  0  0
 19 47  1  0  0  0  0
 20 21  2  0  0  0  0
 20 22  1  0  0  0  0
 22 23  1  0  0  0  0
M  END
> <s_m_source_file>
AV-unprocessed.smi

> <i_m_source_file_index>
2124

> <i_lp_mmshare_version>
43012

> <i_f3d_flags>
0

> <s_epik_input>
W0NIM11jMW5jKFtDSDNdKWMoYyg9TylbbkhdMSlbQ0gyXUMoPU8pW05IXVtDQEhdKFtDSDNdKVtDQEhdKFtDSDJdW0NASF0yMylbQ0BIXShbQ0gyXTMpW0NIMl1bQ0gyXTI=

> <s_epik_cmdline>
J2VwaWtfcHl0aG9uJywgJy1waCcsICc3LjAnLCAnLXRuJywgJzgnLCAnLW1hJywgJzIwMCcsICctbWV0YWxfYmluZGluZycsICctaW1hZScsICc8aW5maWxlLm1hZT4nLCAnLW9tYWUnLCAnPG91dGZpbGUubWFlPic=

> <r_lp_tautomer_probability>
0.839158

> <r_epik_Ionization_Penalty>
0.000383628

> <r_epik_Ionization_Penalty_Charging>
0.00035045

> <r_epik_Ionization_Penalty_Neutral>
3.31781e-05

> <r_epik_State_Penalty>
0.09125

> <r_epik_Charging_Adjusted_Penalty>
0.0916005

> <i_epik_Tot_Q>
0

> <i_epik_Tot_abs_Q>
0

> <r_epik_Metal_State_Penalty>
0.255229

> <b_epik_Metal_Only>
0

> <s_lp_Force_Field>
OPLS_2005

> <r_lp_Energy>
52.5198

> <b_lp_Chiralities_Consistent>
1

> <s_lp_Variant>
AV-unprocessed.smi:2124-6

> <Gold.Version>
5.8.1

> <Gold.Id.Protein>
6NUR|6NUR_protein|mol2

> <Gold.PLP.Fitness>
53.2844

> <Gold.PLP.PLP>
-45.1564

> <Gold.PLP.part.hbond>
-3.3718

> <Gold.PLP.part.metal>
0.0000

> <Gold.PLP.part.buried>
-4.1721

> <Gold.PLP.part.nonpolar>
-38.7622

> <Gold.PLP.part.repulsive>
1.7463

> <Gold.PLP.ligand.clash>
0.0000

> <Gold.PLP.ligand.torsion>
0.4071

> <Gold.PLP.Chemscore.Hbond>
2.9588

> <Gold.PLP.Chemscore.CHOScore>
0.0000

> <Gold.PLP.Chemscore.Metal>
0.0000

> <Gold.Chemscore.Hbonds>
donor molecule, donor type, donor heavy atom, donor atom, acceptor molecule, acceptor atom, score
      L1  H    22    23       P1  7948  0.91
      P1  H  7989  7998       L1    21  1.00
      P1  H 10752 10765       L1     3  0.70

> <Gold.PLP.Chemscore.Internal.Correction>
0.0660

> <Gold.Rescore>
     Score         DG    S(hbond)    S(metal)    S(lipo)     H(rot)  DE(clash)    DE(int)     intcor
     19.72     -21.41       1.58        0.00     127.32       1.65       1.52       0.17       ----

> <Gold.Chemscore.Fitness>
19.7216

> <Gold.Chemscore.DG>
-21.4077

> <Gold.Chemscore.ZeroCoef>
-5.4800

> <Gold.Chemscore.Hbond>
1.5760

> <Gold.Chemscore.Metal>
0.0000

> <Gold.Chemscore.Lipo>
127.3200

> <Gold.Chemscore.Internal_Hbond>
0.0000

> <Gold.Chemscore.DEClash>
1.5156

> <Gold.Chemscore.DEInternal>
0.1706

> <Gold.Chemscore.Rot>
1.6534

> <Gold.Chemscore.Internal.Correction>
   9.000000E+99

> <Gold.Chemscore.Hbonds>
donor molecule, donor type, donor heavy atom, donor atom, acceptor molecule, acceptor atom, score
      L1  H    22    23       P1  7948  0.68
      P1  H  7989  7998       L1    21  0.95
      P1  H 10752 10765       L1     3  0.03

> <Gold.Chemscore.Hbond.Weighted>
-5.2639

> <Gold.Chemscore.Metal.Weighted>
-0.0000

> <Gold.Chemscore.Lipo.Weighted>
-14.8964

> <Gold.Chemscore.Internal_Hbond.Weighted>
0.0000

> <Gold.Chemscore.DEClash.Weighted>
1.5156

> <Gold.Chemscore.DEInternal.Weighted>
0.1706

> <Gold.Chemscore.Rot.Weighted>
4.2326

> <Gold.Chemscore.Internal.Correction.Weighted>
   9.000000E+99

> <Gold.Protein.RotatedTorsions>
[ 6907 6896 6895 6894 ] final   39.81 input  -60.11 | X-H torsion
[ 7974 7965 7964 7962 ] final  -73.92 input  175.53 | X-H torsion
[ 8008 7997 7996 7995 ] final  103.12 input   59.86 | X-H torsion
[ 10167 10162 10161 10158 ] final  -90.13 input  -65.29 | X-H torsion
[ 10718 10713 10712 10709 ] final  -93.70 input   66.30 | X-H torsion
[ 10763 10752 10751 10750 ] final -142.18 input  -60.55 | X-H torsion
[ 11005 11000 10999 10996 ] final   93.69 input  -57.11 | X-H torsion

> <Gold.Protein.ActiveResidues>
 VAL166  LYS551  ARG553  GLY616  TRP617  ASP618  TYR619  PRO620  LYS621  CYS622 
 ASP623  PHE694  ASN695  SER759  ASP760  ASP761  ALA762  ILE779  LEU786  VAL792 
 PHE793  MET794  SER795  GLU796  ALA797  LYS798  CYS799  TRP800  GLU811  SER814 

> <Gold.Protein.RotatedAtoms>
  152.1744  134.8807  160.0531 H   0  0  0  0  0  0  0  0  0  0  0  0  # atno 6907 bound_to 6896
  151.9755  133.3735  159.4095 H   0  0  0  0  0  0  0  0  0  0  0  0  # atno 6908 bound_to 6896
  150.6907  134.4018  159.5166 H   0  0  0  0  0  0  0  0  0  0  0  0  # atno 6909 bound_to 6896
  145.6459  140.9297  143.1011 H   0  0  0  0  0  0  0  0  0  0  0  0  # atno 7974 bound_to 7965
  156.1455  140.3170  155.8563 H   0  0  0  0  0  0  0  0  0  0  0  0  # atno 8008 bound_to 7997
  155.4073  140.0503  157.3051 H   0  0  0  0  0  0  0  0  0  0  0  0  # atno 8009 bound_to 7997
  154.5012  140.2130  155.9354 H   0  0  0  0  0  0  0  0  0  0  0  0  # atno 8010 bound_to 7997
  140.3579  143.2857  151.9649 H   0  0  0  0  0  0  0  0  0  0  0  0  # atno 10167 bound_to 10162
  156.0017  130.5038  150.5816 H   0  0  0  0  0  0  0  0  0  0  0  0  # atno 10718 bound_to 10713
  154.8518  135.3503  154.5987 H   0  0  0  0  0  0  0  0  0  0  0  0  # atno 10763 bound_to 10752
  153.6596  135.6990  153.5186 H   0  0  0  0  0  0  0  0  0  0  0  0  # atno 10764 bound_to 10752
  153.2828  135.4258  155.1052 H   0  0  0  0  0  0  0  0  0  0  0  0  # atno 10765 bound_to 10752
  139.8807  134.8804  156.3754 H   0  0  0  0  0  0  0  0  0  0  0  0  # atno 11005 bound_to 11000
  144.7140  139.8264  143.7405 LP  0  0  0  0  0  0  0  0  0  0  0  0  # atno 17320 bound_to 7965
  146.1243  139.4266  143.0208 LP  0  0  0  0  0  0  0  0  0  0  0  0  # atno 17321 bound_to 7965
  139.4818  144.6018  151.7591 LP  0  0  0  0  0  0  0  0  0  0  0  0  # atno 17342 bound_to 10162
  140.5155  144.0959  150.6007 LP  0  0  0  0  0  0  0  0  0  0  0  0  # atno 17343 bound_to 10162
  157.3695  131.0763  151.1569 LP  0  0  0  0  0  0  0  0  0  0  0  0  # atno 17370 bound_to 10713
  157.2327  130.6533  149.5856 LP  0  0  0  0  0  0  0  0  0  0  0  0  # atno 17371 bound_to 10713
  140.9435  133.7498  156.0178 LP  0  0  0  0  0  0  0  0  0  0  0  0  # atno 17394 bound_to 11000
  140.8191  134.3310  157.5387 LP  0  0  0  0  0  0  0  0  0  0  0  0  # atno 17395 bound_to 11000

$$$$
