AV-unprocessed.smi:334|AV-procd|sdf|2368|dock7
  -GOLD-   2262022283D 1   1.00000     0.00000
 Structure written by MMmdl.
 44 46  0  0  0  0  0  0  0  0  3 V2000
  145.7190  137.3400  152.0225 C   0  0  0  0  0  0  0  0  0  0  0  0
  145.8560  135.9446  152.6593 C   0  0  2  0  0  0  0  0  0  0  0  0
  147.0813  135.9062  153.4563 N   0  0  0  0  0  0  0  0  0  0  0  0
  147.1468  135.6838  154.7780 C   0  0  0  0  0  0  0  0  0  0  0  0
  146.1549  135.4778  155.4787 O   0  0  0  0  0  0  0  0  0  0  0  0
  148.5559  135.6796  155.3875 C   0  0  0  0  0  0  0  0  0  0  0  0
  149.3108  136.9148  155.1165 N   0  0  0  0  0  0  0  0  0  0  0  0
  148.5645  138.0981  154.9493 C   0  0  0  0  0  0  0  0  0  0  0  0
  149.1506  139.2835  154.6903 C   0  0  0  0  0  0  0  0  0  0  0  0
  148.3682  140.4876  154.5167 N   0  3  0  0  0  0  0  0  0  0  0  0
  147.1592  140.4382  154.7198 O   0  0  0  0  0  0  0  0  0  0  0  0
  148.9337  141.5209  154.1716 O   0  5  0  0  0  0  0  0  0  0  0  0
  150.5969  139.3123  154.5867 C   0  0  0  0  0  0  0  0  0  0  0  0
  151.3159  138.1834  154.7427 C   0  0  0  0  0  0  0  0  0  0  0  0
  150.6756  136.8938  155.0212 C   0  0  0  0  0  0  0  0  0  0  0  0
  151.3266  135.8582  155.1608 O   0  0  0  0  0  0  0  0  0  0  0  0
  145.8866  134.8059  151.6095 C   0  0  1  0  0  0  0  0  0  0  0  0
  146.1269  133.4015  152.2203 C   0  0  0  0  0  0  0  0  0  0  0  0
  144.9586  132.5672  151.6672 C   0  0  2  0  0  0  0  0  0  0  0  0
  145.1442  132.3570  150.1536 C   0  0  0  0  0  0  0  0  0  0  0  0
  144.8379  133.7526  149.5794 C   0  0  0  0  0  0  0  0  0  0  0  0
  144.5564  134.5871  150.8442 C   0  0  1  0  0  0  0  0  0  0  0  0
  143.8182  133.5744  151.7138 C   0  0  0  0  0  0  0  0  0  0  0  0
  144.7789  137.4508  151.4842 H   0  0  0  0  0  0  0  0  0  0  0  0
  146.5301  137.5368  151.3207 H   0  0  0  0  0  0  0  0  0  0  0  0
  145.7423  138.1228  152.7815 H   0  0  0  0  0  0  0  0  0  0  0  0
  145.0013  135.7821  153.3181 H   0  0  0  0  0  0  0  0  0  0  0  0
  147.9474  136.0608  152.9608 H   0  0  0  0  0  0  0  0  0  0  0  0
  148.4602  135.5164  156.4618 H   0  0  0  0  0  0  0  0  0  0  0  0
  149.1079  134.8135  155.0172 H   0  0  0  0  0  0  0  0  0  0  0  0
  147.4954  137.9695  155.0377 H   0  0  0  0  0  0  0  0  0  0  0  0
  151.1135  140.2386  154.3823 H   0  0  0  0  0  0  0  0  0  0  0  0
  152.3921  138.2281  154.6598 H   0  0  0  0  0  0  0  0  0  0  0  0
  146.6822  135.0308  150.8970 H   0  0  0  0  0  0  0  0  0  0  0  0
  147.0986  132.9896  151.9452 H   0  0  0  0  0  0  0  0  0  0  0  0
  146.0759  133.4236  153.3100 H   0  0  0  0  0  0  0  0  0  0  0  0
  144.7814  131.6439  152.2194 H   0  0  0  0  0  0  0  0  0  0  0  0
  146.1496  132.0152  149.9052 H   0  0  0  0  0  0  0  0  0  0  0  0
  144.4352  131.6212  149.7718 H   0  0  0  0  0  0  0  0  0  0  0  0
  145.6626  134.1519  148.9881 H   0  0  0  0  0  0  0  0  0  0  0  0
  143.9567  133.7158  148.9373 H   0  0  0  0  0  0  0  0  0  0  0  0
  143.9952  135.4956  150.6304 H   0  0  0  0  0  0  0  0  0  0  0  0
  142.8964  133.2049  151.2609 H   0  0  0  0  0  0  0  0  0  0  0  0
  143.6002  133.9369  152.7195 H   0  0  0  0  0  0  0  0  0  0  0  0
  1  2  1  0  0  0  0
  1 24  1  0  0  0  0
  1 25  1  0  0  0  0
  1 26  1  0  0  0  0
  2  3  1  0  0  0  0
  2 17  1  0  0  0  0
  2 27  1  0  0  0  0
  3  4  1  0  0  0  0
  3 28  1  0  0  0  0
  4  5  2  0  0  0  0
  4  6  1  0  0  0  0
  6  7  1  0  0  0  0
  6 29  1  0  0  0  0
  6 30  1  0  0  0  0
  7 15  1  0  0  0  0
  7  8  1  0  0  0  0
  8  9  2  0  0  0  0
  8 31  1  0  0  0  0
  9 10  1  0  0  0  0
  9 13  1  0  0  0  0
 10 11  2  0  0  0  0
 10 12  1  0  0  0  0
 13 14  2  0  0  0  0
 13 32  1  0  0  0  0
 14 15  1  0  0  0  0
 14 33  1  0  0  0  0
 15 16  2  0  0  0  0
 17 22  1  0  0  0  0
 17 18  1  0  0  0  0
 17 34  1  0  0  0  0
 18 19  1  0  0  0  0
 18 35  1  0  0  0  0
 18 36  1  0  0  0  0
 19 23  1  0  0  0  0
 19 20  1  0  0  0  0
 19 37  1  0  0  0  0
 20 21  1  0  0  0  0
 20 38  1  0  0  0  0
 20 39  1  0  0  0  0
 21 22  1  0  0  0  0
 21 40  1  0  0  0  0
 21 41  1  0  0  0  0
 22 23  1  0  0  0  0
 22 42  1  0  0  0  0
 23 43  1  0  0  0  0
 23 44  1  0  0  0  0
M  CHG  1  10   1
M  CHG  1  12  -1
M  END
> <s_m_source_file>
AV-unprocessed.smi

> <i_m_source_file_index>
334

> <i_lp_mmshare_version>
43012

> <i_f3d_flags>
0

> <s_epik_input>
W0NIMl0xW0NIMl1bQ0BIXShbQ0gyXTIpW0NAQEhdKFtDSDJdW0NAQEhdMTIpW0NASF0oW0NIM10pW05IXUMoPU8pW0NIMl1uM1tjSF1jKFtOK10oPU8pW08tXSlbY0hdW2NIXWMzPU8=

> <s_epik_cmdline>
J2VwaWtfcHl0aG9uJywgJy1waCcsICc3LjAnLCAnLXRuJywgJzgnLCAnLW1hJywgJzIwMCcsICctbWV0YWxfYmluZGluZycsICctaW1hZScsICc8aW5maWxlLm1hZT4nLCAnLW9tYWUnLCAnPG91dGZpbGUubWFlPic=

> <r_lp_tautomer_probability>
1

> <r_epik_Ionization_Penalty>
2.17081e-08

> <r_epik_Ionization_Penalty_Charging>
8.1195e-11

> <r_epik_Ionization_Penalty_Neutral>
2.16269e-08

> <r_epik_State_Penalty>
-0

> <r_epik_Charging_Adjusted_Penalty>
8.1195e-11

> <i_epik_Tot_Q>
0

> <i_epik_Tot_abs_Q>
2

> <r_epik_Metal_State_Penalty>
-0

> <b_epik_Metal_Only>
0

> <s_lp_Force_Field>
OPLS_2005

> <r_lp_Energy>
62.5387

> <b_lp_Chiralities_Consistent>
1

> <s_lp_Variant>
AV-unprocessed.smi:334-7

> <Gold.Version>
5.8.1

> <Gold.Id.Protein>
6NUR|6NUR_protein|mol2

> <Gold.PLP.Fitness>
41.8044

> <Gold.PLP.PLP>
-34.5316

> <Gold.PLP.part.hbond>
-3.9471

> <Gold.PLP.part.metal>
0.0000

> <Gold.PLP.part.buried>
-0.5056

> <Gold.PLP.part.nonpolar>
-30.2529

> <Gold.PLP.part.repulsive>
0.8139

> <Gold.PLP.ligand.clash>
0.0000

> <Gold.PLP.ligand.torsion>
0.4695

> <Gold.PLP.Chemscore.Hbond>
2.7200

> <Gold.PLP.Chemscore.CHOScore>
0.0000

> <Gold.PLP.Chemscore.Metal>
0.0000

> <Gold.Chemscore.Hbonds>
donor molecule, donor type, donor heavy atom, donor atom, acceptor molecule, acceptor atom, score
      L1  H     3    28       P1  7948  0.91
      P1  H  8011  8017       L1    12  0.34
      P1  H 10752 10763       L1    16  1.00

> <Gold.PLP.Chemscore.Internal.Correction>
0.0519

> <Gold.Rescore>
     Score         DG    S(hbond)    S(metal)    S(lipo)     H(rot)  DE(clash)    DE(int)     intcor
     16.66     -19.71       2.70        0.00      82.71       1.75       1.57       1.47       ----

> <Gold.Chemscore.Fitness>
16.6643

> <Gold.Chemscore.DG>
-19.7094

> <Gold.Chemscore.ZeroCoef>
-5.4800

> <Gold.Chemscore.Hbond>
2.7024

> <Gold.Chemscore.Metal>
0.0000

> <Gold.Chemscore.Lipo>
82.7062

> <Gold.Chemscore.Internal_Hbond>
0.0000

> <Gold.Chemscore.DEClash>
1.5750

> <Gold.Chemscore.DEInternal>
1.4702

> <Gold.Chemscore.Rot>
1.7474

> <Gold.Chemscore.Internal.Correction>
   9.000000E+99

> <Gold.Chemscore.Hbonds>
donor molecule, donor type, donor heavy atom, donor atom, acceptor molecule, acceptor atom, score
      L1  H     3    28       P1  7948  0.88
      P1  H  8011  8017       L1    12  0.35
      P1  H 10752 10763       L1    16  1.00

> <Gold.Chemscore.Hbond.Weighted>
-9.0261

> <Gold.Chemscore.Metal.Weighted>
-0.0000

> <Gold.Chemscore.Lipo.Weighted>
-9.6766

> <Gold.Chemscore.Internal_Hbond.Weighted>
0.0000

> <Gold.Chemscore.DEClash.Weighted>
1.5750

> <Gold.Chemscore.DEInternal.Weighted>
1.4702

> <Gold.Chemscore.Rot.Weighted>
4.4733

> <Gold.Chemscore.Internal.Correction.Weighted>
   9.000000E+99

> <Gold.Protein.RotatedTorsions>
[ 6907 6896 6895 6894 ] final  -57.19 input  -60.11 | X-H torsion
[ 7974 7965 7964 7962 ] final   93.97 input  175.53 | X-H torsion
[ 8008 7997 7996 7995 ] final  151.02 input   59.86 | X-H torsion
[ 10167 10162 10161 10158 ] final  139.11 input  -65.29 | X-H torsion
[ 10718 10713 10712 10709 ] final  146.73 input   66.30 | X-H torsion
[ 10763 10752 10751 10750 ] final   70.57 input  -60.55 | X-H torsion
[ 11005 11000 10999 10996 ] final -176.07 input  -57.11 | X-H torsion

> <Gold.Protein.ActiveResidues>
 VAL166  LYS551  ARG553  GLY616  TRP617  ASP618  TYR619  PRO620  LYS621  CYS622 
 ASP623  PHE694  ASN695  SER759  ASP760  ASP761  ALA762  ILE779  LEU786  VAL792 
 PHE793  MET794  SER795  GLU796  ALA797  LYS798  CYS799  TRP800  GLU811  SER814 

> <Gold.Protein.RotatedAtoms>
  150.8106  134.7258  159.6684 H   0  0  0  0  0  0  0  0  0  0  0  0  # atno 6907 bound_to 6896
  152.4226  134.5924  159.9987 H   0  0  0  0  0  0  0  0  0  0  0  0  # atno 6908 bound_to 6896
  151.6135  133.3308  159.3108 H   0  0  0  0  0  0  0  0  0  0  0  0  # atno 6909 bound_to 6896
  145.4718  139.2281  143.2931 H   0  0  0  0  0  0  0  0  0  0  0  0  # atno 7974 bound_to 7965
  156.2691  140.2059  156.6110 H   0  0  0  0  0  0  0  0  0  0  0  0  # atno 8008 bound_to 7997
  154.6831  140.0538  157.0310 H   0  0  0  0  0  0  0  0  0  0  0  0  # atno 8009 bound_to 7997
  155.0972  140.3202  155.4560 H   0  0  0  0  0  0  0  0  0  0  0  0  # atno 8010 bound_to 7997
  139.5089  144.6314  151.5808 H   0  0  0  0  0  0  0  0  0  0  0  0  # atno 10167 bound_to 10162
  157.3296  131.0918  151.1173 H   0  0  0  0  0  0  0  0  0  0  0  0  # atno 10718 bound_to 10713
  153.0349  135.5169  154.7461 H   0  0  0  0  0  0  0  0  0  0  0  0  # atno 10763 bound_to 10752
  154.6445  135.2917  155.0065 H   0  0  0  0  0  0  0  0  0  0  0  0  # atno 10764 bound_to 10752
  154.0971  135.6642  153.4914 H   0  0  0  0  0  0  0  0  0  0  0  0  # atno 10765 bound_to 10752
  140.4562  134.6297  157.4823 H   0  0  0  0  0  0  0  0  0  0  0  0  # atno 11005 bound_to 11000
  146.2392  140.5497  142.8941 LP  0  0  0  0  0  0  0  0  0  0  0  0  # atno 17320 bound_to 7965
  144.7940  140.6088  143.6522 LP  0  0  0  0  0  0  0  0  0  0  0  0  # atno 17321 bound_to 7965
  140.6048  143.9544  150.6411 LP  0  0  0  0  0  0  0  0  0  0  0  0  # atno 17342 bound_to 10162
  140.2768  143.3417  152.1188 LP  0  0  0  0  0  0  0  0  0  0  0  0  # atno 17343 bound_to 10162
  157.2426  130.6576  149.5896 LP  0  0  0  0  0  0  0  0  0  0  0  0  # atno 17370 bound_to 10713
  155.9694  130.4563  150.5921 LP  0  0  0  0  0  0  0  0  0  0  0  0  # atno 17371 bound_to 10713
  139.9974  134.6889  155.9586 LP  0  0  0  0  0  0  0  0  0  0  0  0  # atno 17394 bound_to 11000
  141.1642  133.6537  156.4421 LP  0  0  0  0  0  0  0  0  0  0  0  0  # atno 17395 bound_to 11000

$$$$
