AV-unprocessed.smi:2376|AV-procd|sdf|9444|dock5
  -GOLD-   2272013 73D 1   1.00000     0.00000
 Structure written by MMmdl.
 28 29  0  0  0  0  0  0  0  0  1 V2000
  151.3836  137.7374  153.4465 N   0  0  0  0  0  0  0  0  0  0  0  0
  151.5872  138.1147  154.7161 C   0  0  0  0  0  0  0  0  0  0  0  0
  152.2514  137.2699  155.5402 N   0  0  0  0  0  0  0  0  0  0  0  0
  152.4643  137.6207  156.8133 C   0  0  0  0  0  0  0  0  0  0  0  0
  152.1048  138.7430  157.4434 N   0  0  0  0  0  0  0  0  0  0  0  0
  151.4382  139.5903  156.6065 C   0  0  0  0  0  0  0  0  0  0  0  0
  151.1380  139.3548  155.2362 C   0  0  0  0  0  0  0  0  0  0  0  0
  150.4460  140.4347  154.7036 N   0  0  0  0  0  0  0  0  0  0  0  0
  150.3417  141.2655  155.7057 C   0  0  0  0  0  0  0  0  0  0  0  0
  150.9094  140.8377  156.8859 N   0  0  0  0  0  0  0  0  0  0  0  0
  150.9335  141.5500  158.1493 C   0  0  0  0  0  0  0  0  0  0  0  0
  152.2259  141.2688  158.9249 C   0  0  0  0  0  0  0  0  0  0  0  0
  152.8936  142.4947  159.1703 O   0  0  0  0  0  0  0  0  0  0  0  0
  152.1871  143.3304  160.0737 C   0  0  0  0  0  0  0  0  0  0  0  0
  151.6970  144.5847  159.3403 C   0  0  0  0  0  0  0  0  0  0  0  0
  151.7236  145.6211  160.1773 F   0  0  0  0  0  0  0  0  0  0  0  0
  152.4900  144.8521  158.3029 F   0  0  0  0  0  0  0  0  0  0  0  0
  150.4460  144.4107  158.9148 F   0  0  0  0  0  0  0  0  0  0  0  0
  150.8894  138.3498  152.8135 H   0  0  0  0  0  0  0  0  0  0  0  0
  151.7212  136.8414  153.1264 H   0  0  0  0  0  0  0  0  0  0  0  0
  152.9996  136.8992  157.4130 H   0  0  0  0  0  0  0  0  0  0  0  0
  149.8415  142.2185  155.6113 H   0  0  0  0  0  0  0  0  0  0  0  0
  150.8318  142.6179  157.9515 H   0  0  0  0  0  0  0  0  0  0  0  0
  150.0645  141.2535  158.7382 H   0  0  0  0  0  0  0  0  0  0  0  0
  151.9954  140.7744  159.8701 H   0  0  0  0  0  0  0  0  0  0  0  0
  152.8701  140.6005  158.3510 H   0  0  0  0  0  0  0  0  0  0  0  0
  151.3361  142.7915  160.4934 H   0  0  0  0  0  0  0  0  0  0  0  0
  152.8359  143.6148  160.9037 H   0  0  0  0  0  0  0  0  0  0  0  0
  1  2  1  0  0  0  0
  1 19  1  0  0  0  0
  1 20  1  0  0  0  0
  2  7  1  0  0  0  0
  2  3  2  0  0  0  0
  3  4  1  0  0  0  0
  4  5  2  0  0  0  0
  4 21  1  0  0  0  0
  5  6  1  0  0  0  0
  6 10  1  0  0  0  0
  6  7  2  0  0  0  0
  7  8  1  0  0  0  0
  8  9  2  0  0  0  0
  9 10  1  0  0  0  0
  9 22  1  0  0  0  0
 10 11  1  0  0  0  0
 11 12  1  0  0  0  0
 11 23  1  0  0  0  0
 11 24  1  0  0  0  0
 12 13  1  0  0  0  0
 12 25  1  0  0  0  0
 12 26  1  0  0  0  0
 13 14  1  0  0  0  0
 14 15  1  0  0  0  0
 14 27  1  0  0  0  0
 14 28  1  0  0  0  0
 15 16  1  0  0  0  0
 15 17  1  0  0  0  0
 15 18  1  0  0  0  0
M  END
> <s_m_source_file>
AV-unprocessed.smi

> <i_m_source_file_index>
2376

> <i_lp_mmshare_version>
43012

> <i_f3d_flags>
0

> <s_epik_input>
bjFbY0hdbmMoW05IMl0pYyhjMTIpbltjSF1uMltDSDJdW0NIMl1PW0NIMl1DKEYpKEYpRg==

> <s_epik_cmdline>
J2VwaWtfcHl0aG9uJywgJy1waCcsICc3LjAnLCAnLXRuJywgJzgnLCAnLW1hJywgJzIwMCcsICctbWV0YWxfYmluZGluZycsICctaW1hZScsICc8aW5maWxlLm1hZT4nLCAnLW9tYWUnLCAnPG91dGZpbGUubWFlPic=

> <r_lp_tautomer_probability>
1

> <r_epik_Ionization_Penalty>
0.000856314

> <r_epik_Ionization_Penalty_Charging>
0

> <r_epik_Ionization_Penalty_Neutral>
0.000856314

> <r_epik_State_Penalty>
-0

> <r_epik_Charging_Adjusted_Penalty>
0

> <i_epik_Tot_Q>
0

> <i_epik_Tot_abs_Q>
0

> <r_epik_Metal_State_Penalty>
-0

> <b_epik_Metal_Only>
0

> <s_lp_Force_Field>
OPLS_2005

> <r_lp_Energy>
6.06006

> <b_lp_Chiralities_Consistent>
1

> <s_lp_Variant>
AV-unprocessed.smi:2376-1

> <Gold.Version>
5.8.1

> <Gold.Id.Protein>
6NUR|6NUR_protein|mol2

> <Gold.PLP.Fitness>
46.4521

> <Gold.PLP.PLP>
-40.7899

> <Gold.PLP.part.hbond>
-3.7515

> <Gold.PLP.part.metal>
0.0000

> <Gold.PLP.part.buried>
-4.7442

> <Gold.PLP.part.nonpolar>
-32.9363

> <Gold.PLP.part.repulsive>
0.2478

> <Gold.PLP.ligand.clash>
0.0000

> <Gold.PLP.ligand.torsion>
1.7896

> <Gold.PLP.Chemscore.Hbond>
2.4168

> <Gold.PLP.Chemscore.CHOScore>
0.6576

> <Gold.PLP.Chemscore.Metal>
0.0000

> <Gold.Chemscore.Hbonds>
donor molecule, donor type, donor heavy atom, donor atom, acceptor molecule, acceptor atom, score
      L1  H     1    20       P1  7949  0.50
      P1  H  7989  7998       L1     8  0.90
      P1  H 10752 10765       L1     3  0.82
      L1  C     9    22       P1  8028  0.64

> <Gold.PLP.Chemscore.Internal.Correction>
0.0180

> <Gold.Rescore>
     Score         DG    S(hbond)    S(metal)    S(lipo)     H(rot)  DE(clash)    DE(int)     intcor
      6.42      -8.95       1.63        0.00      42.64       2.72       0.03       2.51       ----

> <Gold.Chemscore.Fitness>
6.4159

> <Gold.Chemscore.DG>
-8.9529

> <Gold.Chemscore.ZeroCoef>
-5.4800

> <Gold.Chemscore.Hbond>
1.6312

> <Gold.Chemscore.Metal>
0.0000

> <Gold.Chemscore.Lipo>
42.6432

> <Gold.Chemscore.Internal_Hbond>
0.0000

> <Gold.Chemscore.DEClash>
0.0318

> <Gold.Chemscore.DEInternal>
2.5052

> <Gold.Chemscore.Rot>
2.7204

> <Gold.Chemscore.Internal.Correction>
   9.000000E+99

> <Gold.Chemscore.Hbonds>
donor molecule, donor type, donor heavy atom, donor atom, acceptor molecule, acceptor atom, score
      L1  H     1    20       P1  7949  0.49
      P1  H  7989  7998       L1     8  0.16
      P1  H 10752 10765       L1     3  0.74

> <Gold.Chemscore.Hbond.Weighted>
-5.4480

> <Gold.Chemscore.Metal.Weighted>
-0.0000

> <Gold.Chemscore.Lipo.Weighted>
-4.9893

> <Gold.Chemscore.Internal_Hbond.Weighted>
0.0000

> <Gold.Chemscore.DEClash.Weighted>
0.0318

> <Gold.Chemscore.DEInternal.Weighted>
2.5052

> <Gold.Chemscore.Rot.Weighted>
6.9644

> <Gold.Chemscore.Internal.Correction.Weighted>
   9.000000E+99

> <Gold.Protein.RotatedTorsions>
[ 6907 6896 6895 6894 ] final   33.23 input  -60.11 | X-H torsion
[ 7974 7965 7964 7962 ] final -112.55 input  175.53 | X-H torsion
[ 8008 7997 7996 7995 ] final  160.65 input   59.86 | X-H torsion
[ 10167 10162 10161 10158 ] final   -2.74 input  -65.29 | X-H torsion
[ 10718 10713 10712 10709 ] final   15.30 input   66.30 | X-H torsion
[ 10763 10752 10751 10750 ] final -170.43 input  -60.55 | X-H torsion
[ 11005 11000 10999 10996 ] final  101.44 input  -57.11 | X-H torsion

> <Gold.Protein.ActiveResidues>
 VAL166  LYS551  ARG553  GLY616  TRP617  ASP618  TYR619  PRO620  LYS621  CYS622 
 ASP623  PHE694  ASN695  SER759  ASP760  ASP761  ALA762  ILE779  LEU786  VAL792 
 PHE793  MET794  SER795  GLU796  ALA797  LYS798  CYS799  TRP800  GLU811  SER814 

> <Gold.Protein.RotatedAtoms>
  152.0856  134.9442  160.0572 H   0  0  0  0  0  0  0  0  0  0  0  0  # atno 6907 bound_to 6896
  152.0713  133.4103  159.4469 H   0  0  0  0  0  0  0  0  0  0  0  0  # atno 6908 bound_to 6896
  150.6836  134.3008  159.4749 H   0  0  0  0  0  0  0  0  0  0  0  0  # atno 6909 bound_to 6896
  145.1427  140.8786  143.3693 H   0  0  0  0  0  0  0  0  0  0  0  0  # atno 7974 bound_to 7965
  156.2158  140.1798  156.7593 H   0  0  0  0  0  0  0  0  0  0  0  0  # atno 8008 bound_to 7997
  154.5789  140.0669  156.9104 H   0  0  0  0  0  0  0  0  0  0  0  0  # atno 8009 bound_to 7997
  155.2538  140.3331  155.4282 H   0  0  0  0  0  0  0  0  0  0  0  0  # atno 8010 bound_to 7997
  140.6863  143.6622  150.8257 H   0  0  0  0  0  0  0  0  0  0  0  0  # atno 10167 bound_to 10162
  157.0515  130.6272  149.5769 H   0  0  0  0  0  0  0  0  0  0  0  0  # atno 10718 bound_to 10713
  154.6416  135.2899  155.0097 H   0  0  0  0  0  0  0  0  0  0  0  0  # atno 10763 bound_to 10752
  154.1221  135.6546  153.4909 H   0  0  0  0  0  0  0  0  0  0  0  0  # atno 10764 bound_to 10752
  153.0329  135.5290  154.7285 H   0  0  0  0  0  0  0  0  0  0  0  0  # atno 10765 bound_to 10752
  139.8773  134.9183  156.4907 H   0  0  0  0  0  0  0  0  0  0  0  0  # atno 11005 bound_to 11000
  145.0515  139.3178  143.5926 LP  0  0  0  0  0  0  0  0  0  0  0  0  # atno 17320 bound_to 7965
  146.3503  139.9925  142.8684 LP  0  0  0  0  0  0  0  0  0  0  0  0  # atno 17321 bound_to 7965
  140.0329  143.5425  152.2752 LP  0  0  0  0  0  0  0  0  0  0  0  0  # atno 17342 bound_to 10162
  139.6224  144.7631  151.2711 LP  0  0  0  0  0  0  0  0  0  0  0  0  # atno 17343 bound_to 10162
  156.0006  130.5084  150.7649 LP  0  0  0  0  0  0  0  0  0  0  0  0  # atno 17370 bound_to 10713
  157.5026  131.0920  151.0295 LP  0  0  0  0  0  0  0  0  0  0  0  0  # atno 17371 bound_to 10713
  140.8661  133.8023  155.9315 LP  0  0  0  0  0  0  0  0  0  0  0  0  # atno 17394 bound_to 11000
  140.9000  134.2389  157.5047 LP  0  0  0  0  0  0  0  0  0  0  0  0  # atno 17395 bound_to 11000

$$$$
