AV-unprocessed.smi:1965|AV-procd|sdf|7946|dock8
  -GOLD-   2272010113D 1   1.00000     0.00000
 Structure written by MMmdl.
 36 38  0  0  0  0  0  0  0  0  3 V2000
  152.6914  140.1965  157.3713 O   0  0  0  0  0  0  0  0  0  0  0  0
  152.2694  139.4280  158.2344 C   0  0  0  0  0  0  0  0  0  0  0  0
  151.6008  138.2803  157.9509 N   0  5  0  0  0  0  0  0  0  0  0  0
  151.1484  137.9903  156.7171 C   0  0  0  0  0  0  0  0  0  0  0  0
  150.6482  136.7948  156.3837 N   0  0  0  0  0  0  0  0  0  0  0  0
  150.2383  136.7168  155.0515 C   0  0  0  0  0  0  0  0  0  0  0  0
  150.4301  137.8803  154.3551 C   0  0  0  0  0  0  0  0  0  0  0  0
  151.1295  139.1179  155.3591 S   0  0  0  0  0  0  0  0  0  0  0  0
  152.4666  139.7368  159.5306 N   0  0  0  0  0  0  0  0  0  0  0  0
  153.1340  140.9346  160.0294 C   0  0  2  0  0  0  0  0  0  0  0  0
  152.7759  141.2673  161.4717 C   0  0  0  0  0  0  0  0  0  0  0  0
  153.1717  142.7423  161.5936 C   0  0  0  0  0  0  0  0  0  0  0  0
  153.0906  143.3242  160.2309 N   0  3  2  0  0  0  0  0  0  0  0  0
  152.2200  144.5266  160.1356 C   0  0  0  0  0  0  0  0  0  0  0  0
  151.8518  144.8257  158.6750 C   0  0  0  0  0  0  0  0  0  0  0  0
  151.0516  143.6681  158.0485 C   0  0  0  0  0  0  0  0  0  0  0  0
  151.3218  142.3200  158.7444 C   0  0  0  0  0  0  0  0  0  0  0  0
  152.7748  142.2273  159.2731 C   0  0  2  0  0  0  0  0  0  0  0  0
  149.8202  135.7922  154.6823 H   0  0  0  0  0  0  0  0  0  0  0  0
  150.2002  138.0854  153.3204 H   0  0  0  0  0  0  0  0  0  0  0  0
  152.1090  139.0914  160.2198 H   0  0  0  0  0  0  0  0  0  0  0  0
  154.2148  140.7846  159.9815 H   0  0  0  0  0  0  0  0  0  0  0  0
  151.7017  141.1581  161.6292 H   0  0  0  0  0  0  0  0  0  0  0  0
  153.2880  140.6308  162.1943 H   0  0  0  0  0  0  0  0  0  0  0  0
  152.5493  143.2637  162.3221 H   0  0  0  0  0  0  0  0  0  0  0  0
  154.2050  142.8258  161.9312 H   0  0  0  0  0  0  0  0  0  0  0  0
  151.3041  144.3754  160.7097 H   0  0  0  0  0  0  0  0  0  0  0  0
  152.7374  145.3752  160.5842 H   0  0  0  0  0  0  0  0  0  0  0  0
  151.2826  145.7531  158.6048 H   0  0  0  0  0  0  0  0  0  0  0  0
  152.7676  144.9867  158.1043 H   0  0  0  0  0  0  0  0  0  0  0  0
  149.9834  143.8819  158.0957 H   0  0  0  0  0  0  0  0  0  0  0  0
  151.2995  143.5979  156.9888 H   0  0  0  0  0  0  0  0  0  0  0  0
  150.6272  142.1969  159.5766 H   0  0  0  0  0  0  0  0  0  0  0  0
  151.1018  141.5117  158.0466 H   0  0  0  0  0  0  0  0  0  0  0  0
  153.4419  142.3276  158.4155 H   0  0  0  0  0  0  0  0  0  0  0  0
  154.0261  143.6244  159.9972 H   0  0  0  0  0  0  0  0  0  0  0  0
  1  2  2  0  0  0  0
  2  3  1  0  0  0  0
  2  9  1  0  0  0  0
  3  4  1  0  0  0  0
  4  8  1  0  0  0  0
  4  5  2  0  0  0  0
  5  6  1  0  0  0  0
  6  7  2  0  0  0  0
  6 19  1  0  0  0  0
  7  8  1  0  0  0  0
  7 20  1  0  0  0  0
  9 10  1  0  0  0  0
  9 21  1  0  0  0  0
 10 18  1  0  0  0  0
 10 11  1  0  0  0  0
 10 22  1  0  0  0  0
 11 12  1  0  0  0  0
 11 23  1  0  0  0  0
 11 24  1  0  0  0  0
 12 13  1  0  0  0  0
 12 25  1  0  0  0  0
 12 26  1  0  0  0  0
 13 18  1  0  0  0  0
 13 14  1  0  0  0  0
 13 36  1  0  0  0  0
 14 15  1  0  0  0  0
 14 27  1  0  0  0  0
 14 28  1  0  0  0  0
 15 16  1  0  0  0  0
 15 29  1  0  0  0  0
 15 30  1  0  0  0  0
 16 17  1  0  0  0  0
 16 31  1  0  0  0  0
 16 32  1  0  0  0  0
 17 18  1  0  0  0  0
 17 33  1  0  0  0  0
 17 34  1  0  0  0  0
 18 35  1  0  0  0  0
M  CHG  1   3  -1
M  CHG  1  13   1
M  END
> <s_m_source_file>
AV-unprocessed.smi

> <i_m_source_file_index>
1965

> <i_lp_mmshare_version>
43012

> <i_f3d_flags>
0

> <s_epik_input>
czFbY0hdW2NIXW5jMVtOSF1DKD1PKVtOSF1bQ0BIXShbQ0gyXVtDSDJdMilbQ0BASF0oTjIzKVtDSDJdW0NIMl1bQ0gyXVtDSDJdMw==

> <s_epik_cmdline>
J2VwaWtfcHl0aG9uJywgJy1waCcsICc3LjAnLCAnLXRuJywgJzgnLCAnLW1hJywgJzIwMCcsICctbWV0YWxfYmluZGluZycsICctaW1hZScsICc8aW5maWxlLm1hZT4nLCAnLW9tYWUnLCAnPG91dGZpbGUubWFlPic=

> <r_lp_tautomer_probability>
1

> <r_epik_Ionization_Penalty>
7.4116

> <r_epik_Ionization_Penalty_Charging>
6.13869

> <r_epik_Ionization_Penalty_Neutral>
1.27291

> <r_epik_State_Penalty>
6.13761

> <r_epik_Charging_Adjusted_Penalty>
12.2763

> <i_epik_Tot_Q>
0

> <i_epik_Tot_abs_Q>
2

> <r_epik_Metal_State_Penalty>
2.08142

> <b_epik_Metal_Only>
1

> <s_lp_Force_Field>
OPLS_2005

> <r_lp_Energy>
32.0333

> <b_lp_Chiralities_Consistent>
1

> <s_lp_Variant>
AV-unprocessed.smi:1965-15

> <Gold.Version>
5.8.1

> <Gold.Id.Protein>
6NUR|6NUR_protein|mol2

> <Gold.PLP.Fitness>
38.1833

> <Gold.PLP.PLP>
-29.7247

> <Gold.PLP.part.hbond>
-1.0000

> <Gold.PLP.part.metal>
0.0000

> <Gold.PLP.part.buried>
-0.3672

> <Gold.PLP.part.nonpolar>
-28.7844

> <Gold.PLP.part.repulsive>
0.1809

> <Gold.PLP.ligand.clash>
0.0000

> <Gold.PLP.ligand.torsion>
0.3285

> <Gold.PLP.Chemscore.Hbond>
0.9760

> <Gold.PLP.Chemscore.CHOScore>
2.0614

> <Gold.PLP.Chemscore.Metal>
0.0000

> <Gold.Chemscore.Hbonds>
donor molecule, donor type, donor heavy atom, donor atom, acceptor molecule, acceptor atom, score
      P1  H  7997  8009       L1     1  0.98
      L1  C     7    20       P1  7948  0.62

> <Gold.PLP.Chemscore.Internal.Correction>
0.0034

> <Gold.Rescore>
     Score         DG    S(hbond)    S(metal)    S(lipo)     H(rot)  DE(clash)    DE(int)     intcor
     15.60     -18.99       0.98        0.00     109.31       1.00       0.55       2.85       ----

> <Gold.Chemscore.Fitness>
15.5986

> <Gold.Chemscore.DG>
-18.9938

> <Gold.Chemscore.ZeroCoef>
-5.4800

> <Gold.Chemscore.Hbond>
0.9833

> <Gold.Chemscore.Metal>
0.0000

> <Gold.Chemscore.Lipo>
109.3122

> <Gold.Chemscore.Internal_Hbond>
0.0000

> <Gold.Chemscore.DEClash>
0.5454

> <Gold.Chemscore.DEInternal>
2.8498

> <Gold.Chemscore.Rot>
1.0000

> <Gold.Chemscore.Internal.Correction>
   9.000000E+99

> <Gold.Chemscore.Hbonds>
donor molecule, donor type, donor heavy atom, donor atom, acceptor molecule, acceptor atom, score
      P1  H  7997  8009       L1     1  0.93

> <Gold.Chemscore.Hbond.Weighted>
-3.2842

> <Gold.Chemscore.Metal.Weighted>
-0.0000

> <Gold.Chemscore.Lipo.Weighted>
-12.7895

> <Gold.Chemscore.Internal_Hbond.Weighted>
0.0000

> <Gold.Chemscore.DEClash.Weighted>
0.5454

> <Gold.Chemscore.DEInternal.Weighted>
2.8498

> <Gold.Chemscore.Rot.Weighted>
2.5600

> <Gold.Chemscore.Internal.Correction.Weighted>
   9.000000E+99

> <Gold.Protein.RotatedTorsions>
[ 6907 6896 6895 6894 ] final   20.19 input  -60.11 | X-H torsion
[ 7974 7965 7964 7962 ] final  -60.87 input  175.53 | X-H torsion
[ 8008 7997 7996 7995 ] final -175.94 input   59.86 | X-H torsion
[ 10167 10162 10161 10158 ] final  120.41 input  -65.29 | X-H torsion
[ 10718 10713 10712 10709 ] final   22.10 input   66.30 | X-H torsion
[ 10763 10752 10751 10750 ] final  -43.43 input  -60.55 | X-H torsion
[ 11005 11000 10999 10996 ] final   17.46 input  -57.11 | X-H torsion

> <Gold.Protein.ActiveResidues>
 VAL166  LYS551  ARG553  GLY616  TRP617  ASP618  TYR619  PRO620  LYS621  CYS622 
 ASP623  PHE694  ASN695  SER759  ASP760  ASP761  ALA762  ILE779  LEU786  VAL792 
 PHE793  MET794  SER795  GLU796  ALA797  LYS798  CYS799  TRP800  GLU811  SER814 

> <Gold.Protein.RotatedAtoms>
  151.8925  135.0411  160.0498 H   0  0  0  0  0  0  0  0  0  0  0  0  # atno 6907 bound_to 6896
  152.2424  133.5142  159.5286 H   0  0  0  0  0  0  0  0  0  0  0  0  # atno 6908 bound_to 6896
  150.7058  134.0987  159.4000 H   0  0  0  0  0  0  0  0  0  0  0  0  # atno 6909 bound_to 6896
  145.8103  140.8602  143.0185 H   0  0  0  0  0  0  0  0  0  0  0  0  # atno 7974 bound_to 7965
  155.9888  140.1196  157.0658 H   0  0  0  0  0  0  0  0  0  0  0  0  # atno 8008 bound_to 7997
  154.4205  140.1130  156.5605 H   0  0  0  0  0  0  0  0  0  0  0  0  # atno 8009 bound_to 7997
  155.6371  140.3473  155.4704 H   0  0  0  0  0  0  0  0  0  0  0  0  # atno 8010 bound_to 7997
  139.5984  144.7049  151.3121 H   0  0  0  0  0  0  0  0  0  0  0  0  # atno 10167 bound_to 10162
  157.1476  130.6660  149.6001 H   0  0  0  0  0  0  0  0  0  0  0  0  # atno 10718 bound_to 10713
  153.9955  135.6700  153.4756 H   0  0  0  0  0  0  0  0  0  0  0  0  # atno 10763 bound_to 10752
  153.0686  135.4987  154.8251 H   0  0  0  0  0  0  0  0  0  0  0  0  # atno 10764 bound_to 10752
  154.7084  135.3092  154.9198 H   0  0  0  0  0  0  0  0  0  0  0  0  # atno 10765 bound_to 10752
  140.4357  134.1374  155.7685 H   0  0  0  0  0  0  0  0  0  0  0  0  # atno 11005 bound_to 11000
  144.6758  140.0387  143.7481 LP  0  0  0  0  0  0  0  0  0  0  0  0  # atno 17320 bound_to 7965
  145.9784  139.2922  143.1057 LP  0  0  0  0  0  0  0  0  0  0  0  0  # atno 17321 bound_to 7965
  140.7230  143.7082  150.7790 LP  0  0  0  0  0  0  0  0  0  0  0  0  # atno 17342 bound_to 10162
  140.0654  143.5114  152.2607 LP  0  0  0  0  0  0  0  0  0  0  0  0  # atno 17343 bound_to 10162
  155.9776  130.4755  150.6606 LP  0  0  0  0  0  0  0  0  0  0  0  0  # atno 17370 bound_to 10713
  157.4250  131.0842  151.1095 LP  0  0  0  0  0  0  0  0  0  0  0  0  # atno 17371 bound_to 10713
  141.1727  133.8577  157.1520 LP  0  0  0  0  0  0  0  0  0  0  0  0  # atno 17394 bound_to 11000
  140.0104  134.9990  157.0383 LP  0  0  0  0  0  0  0  0  0  0  0  0  # atno 17395 bound_to 11000

$$$$
