AV-unprocessed.smi:2973|AV-procd|sdf|11348|dock8
  -GOLD-   2272016263D 1   1.00000     0.00000
 Structure written by MMmdl.
 48 50  0  0  0  0  0  0  0  0  2 V2000
  157.4292  137.2638  162.0409 C   0  0  0  0  0  0  0  0  0  0  0  0
  156.4564  136.8974  163.1836 C   0  0  1  0  0  0  0  0  0  0  0  0
  156.3302  138.0825  164.1669 C   0  0  0  0  0  0  0  0  0  0  0  0
  155.4334  137.7413  165.3656 C   0  0  0  0  0  0  0  0  0  0  0  0
  154.0422  137.2879  164.9066 C   0  0  0  0  0  0  0  0  0  0  0  0
  154.1427  136.0988  163.9354 C   0  0  0  0  0  0  0  0  0  0  0  0
  155.0579  136.3744  162.7116 C   0  0  2  0  0  0  0  0  0  0  0  0
  155.2074  135.1385  161.9629 N   0  5  0  0  0  0  0  0  0  0  0  0
  154.6848  135.3019  160.7259 C   0  0  0  0  0  0  0  0  0  0  0  0
  154.6328  134.4574  159.8322 O   0  0  0  0  0  0  0  0  0  0  0  0
  154.2052  136.5493  160.5651 N   0  0  0  0  0  0  0  0  0  0  0  0
  153.5575  137.0476  159.3448 C   0  0  0  0  0  0  0  0  0  0  0  0
  153.9426  138.4939  159.0052 C   0  0  0  0  0  0  0  0  0  0  0  0
  155.0411  138.7600  158.5156 O   0  0  0  0  0  0  0  0  0  0  0  0
  153.0074  139.4222  159.2554 N   0  0  0  0  0  0  0  0  0  0  0  0
  153.1593  140.8512  159.0106 C   0  0  0  0  0  0  0  0  0  0  0  0
  152.7742  141.6831  160.2453 C   0  0  0  0  0  0  0  0  0  0  0  0
  152.0680  142.9714  159.8690 C   0  0  0  0  0  0  0  0  0  0  0  0
  152.3642  144.1774  160.5398 C   0  0  0  0  0  0  0  0  0  0  0  0
  151.6870  145.3478  160.1461 C   0  0  0  0  0  0  0  0  0  0  0  0
  150.7461  145.2682  159.1011 C   0  0  0  0  0  0  0  0  0  0  0  0
  150.5233  144.0161  158.4939 C   0  0  0  0  0  0  0  0  0  0  0  0
  151.1673  142.8880  158.8637 N   0  0  0  0  0  0  0  0  0  0  0  0
  154.3690  137.2677  161.6814 C   0  0  0  0  0  0  0  0  0  0  0  0
  154.0360  138.4392  161.8670 O   0  0  0  0  0  0  0  0  0  0  0  0
  157.0659  138.1065  161.4523 H   0  0  0  0  0  0  0  0  0  0  0  0
  157.5871  136.4258  161.3619 H   0  0  0  0  0  0  0  0  0  0  0  0
  158.4056  137.5419  162.4377 H   0  0  0  0  0  0  0  0  0  0  0  0
  156.9292  136.0840  163.7370 H   0  0  0  0  0  0  0  0  0  0  0  0
  157.3184  138.3649  164.5314 H   0  0  0  0  0  0  0  0  0  0  0  0
  155.9372  138.9604  163.6538 H   0  0  0  0  0  0  0  0  0  0  0  0
  155.8986  136.9512  165.9563 H   0  0  0  0  0  0  0  0  0  0  0  0
  155.3444  138.6072  166.0222 H   0  0  0  0  0  0  0  0  0  0  0  0
  153.4432  137.0046  165.7723 H   0  0  0  0  0  0  0  0  0  0  0  0
  153.5184  138.1197  164.4360 H   0  0  0  0  0  0  0  0  0  0  0  0
  154.5227  135.2358  164.4849 H   0  0  0  0  0  0  0  0  0  0  0  0
  153.1396  135.8206  163.6066 H   0  0  0  0  0  0  0  0  0  0  0  0
  153.8139  136.4153  158.4934 H   0  0  0  0  0  0  0  0  0  0  0  0
  152.4736  136.9739  159.4506 H   0  0  0  0  0  0  0  0  0  0  0  0
  152.1324  139.1163  159.6555 H   0  0  0  0  0  0  0  0  0  0  0  0
  154.2012  141.0380  158.7490 H   0  0  0  0  0  0  0  0  0  0  0  0
  152.5635  141.1475  158.1454 H   0  0  0  0  0  0  0  0  0  0  0  0
  152.1231  141.1057  160.9033 H   0  0  0  0  0  0  0  0  0  0  0  0
  153.6651  141.9196  160.8286 H   0  0  0  0  0  0  0  0  0  0  0  0
  153.0939  144.2069  161.3359 H   0  0  0  0  0  0  0  0  0  0  0  0
  151.8863  146.2895  160.6360 H   0  0  0  0  0  0  0  0  0  0  0  0
  150.2083  146.1450  158.7721 H   0  0  0  0  0  0  0  0  0  0  0  0
  149.8090  143.9182  157.6896 H   0  0  0  0  0  0  0  0  0  0  0  0
  1  2  1  0  0  0  0
  1 26  1  0  0  0  0
  1 27  1  0  0  0  0
  1 28  1  0  0  0  0
  2  7  1  0  0  0  0
  2  3  1  0  0  0  0
  2 29  1  0  0  0  0
  3  4  1  0  0  0  0
  3 30  1  0  0  0  0
  3 31  1  0  0  0  0
  4  5  1  0  0  0  0
  4 32  1  0  0  0  0
  4 33  1  0  0  0  0
  5  6  1  0  0  0  0
  5 34  1  0  0  0  0
  5 35  1  0  0  0  0
  6  7  1  0  0  0  0
  6 36  1  0  0  0  0
  6 37  1  0  0  0  0
  7 24  1  0  0  0  0
  7  8  1  0  0  0  0
  8  9  1  0  0  0  0
  9 10  2  0  0  0  0
  9 11  1  0  0  0  0
 11 12  1  0  0  0  0
 11 24  1  0  0  0  0
 12 13  1  0  0  0  0
 12 38  1  0  0  0  0
 12 39  1  0  0  0  0
 13 14  2  0  0  0  0
 13 15  1  0  0  0  0
 15 16  1  0  0  0  0
 15 40  1  0  0  0  0
 16 17  1  0  0  0  0
 16 41  1  0  0  0  0
 16 42  1  0  0  0  0
 17 18  1  0  0  0  0
 17 43  1  0  0  0  0
 17 44  1  0  0  0  0
 18 23  1  0  0  0  0
 18 19  2  0  0  0  0
 19 20  1  0  0  0  0
 19 45  1  0  0  0  0
 20 21  2  0  0  0  0
 20 46  1  0  0  0  0
 21 22  1  0  0  0  0
 21 47  1  0  0  0  0
 22 23  2  0  0  0  0
 22 48  1  0  0  0  0
 24 25  2  0  0  0  0
M  CHG  1   8  -1
M  END
> <s_m_source_file>
AV-unprocessed.smi

> <i_m_source_file_index>
2973

> <i_lp_mmshare_version>
43012

> <i_f3d_flags>
0

> <s_epik_input>
W0NIMl0xW0NIMl1bQ0gyXVtDSDJdW0NAQEhdKFtDSDNdKVtDQF0xMltOSF1DKD1PKU4oQzI9TylbQ0gyXUMoPU8pW05IXVtDSDJdW0NIMl1jM1tjSF1bY0hdW2NIXVtjSF1uMw==

> <s_epik_cmdline>
J2VwaWtfcHl0aG9uJywgJy1waCcsICc3LjAnLCAnLXRuJywgJzgnLCAnLW1hJywgJzIwMCcsICctbWV0YWxfYmluZGluZycsICctaW1hZScsICc8aW5maWxlLm1hZT4nLCAnLW9tYWUnLCAnPG91dGZpbGUubWFlPic=

> <r_lp_tautomer_probability>
1

> <r_epik_Ionization_Penalty>
6.04175

> <r_epik_Ionization_Penalty_Charging>
6.01728

> <r_epik_Ionization_Penalty_Neutral>
0.0244696

> <r_epik_State_Penalty>
6.03712

> <r_epik_Charging_Adjusted_Penalty>
12.0544

> <i_epik_Tot_Q>
-1

> <i_epik_Tot_abs_Q>
1

> <r_epik_Metal_State_Penalty>
2.01153

> <b_epik_Metal_Only>
1

> <s_lp_Force_Field>
OPLS_2005

> <r_lp_Energy>
9.40787

> <b_lp_Chiralities_Consistent>
1

> <s_lp_Variant>
AV-unprocessed.smi:2973-12

> <Gold.Version>
5.8.1

> <Gold.Id.Protein>
6NUR|6NUR_protein|mol2

> <Gold.PLP.Fitness>
47.4218

> <Gold.PLP.PLP>
-40.1716

> <Gold.PLP.part.hbond>
-2.0000

> <Gold.PLP.part.metal>
0.0000

> <Gold.PLP.part.buried>
-6.0426

> <Gold.PLP.part.nonpolar>
-31.9163

> <Gold.PLP.part.repulsive>
0.1349

> <Gold.PLP.ligand.clash>
0.0000

> <Gold.PLP.ligand.torsion>
1.0435

> <Gold.PLP.Chemscore.Hbond>
2.0000

> <Gold.PLP.Chemscore.CHOScore>
1.1079

> <Gold.PLP.Chemscore.Metal>
0.0000

> <Gold.Chemscore.Hbonds>
donor molecule, donor type, donor heavy atom, donor atom, acceptor molecule, acceptor atom, score
      P1  H  6896  6907       L1    10  0.63
      P1  H  7997  8008       L1    14  1.00
      L1  C    22    48       P1  8028  1.00
      L1  C    22    48       P1  8029  0.03

> <Gold.PLP.Chemscore.Internal.Correction>
0.0134

> <Gold.Rescore>
     Score         DG    S(hbond)    S(metal)    S(lipo)     H(rot)  DE(clash)    DE(int)     intcor
     16.90     -20.04       1.87        0.00     110.65       1.81       0.11       3.02       ----

> <Gold.Chemscore.Fitness>
16.9017

> <Gold.Chemscore.DG>
-20.0378

> <Gold.Chemscore.ZeroCoef>
-5.4800

> <Gold.Chemscore.Hbond>
1.8692

> <Gold.Chemscore.Metal>
0.0000

> <Gold.Chemscore.Lipo>
110.6486

> <Gold.Chemscore.Internal_Hbond>
0.0000

> <Gold.Chemscore.DEClash>
0.1147

> <Gold.Chemscore.DEInternal>
3.0215

> <Gold.Chemscore.Rot>
1.8090

> <Gold.Chemscore.Internal.Correction>
   9.000000E+99

> <Gold.Chemscore.Hbonds>
donor molecule, donor type, donor heavy atom, donor atom, acceptor molecule, acceptor atom, score
      P1  H  6896  6907       L1    10  0.05
      P1  H  7997  8008       L1    14  0.95

> <Gold.Chemscore.Hbond.Weighted>
-6.2430

> <Gold.Chemscore.Metal.Weighted>
-0.0000

> <Gold.Chemscore.Lipo.Weighted>
-12.9459

> <Gold.Chemscore.Internal_Hbond.Weighted>
0.0000

> <Gold.Chemscore.DEClash.Weighted>
0.1147

> <Gold.Chemscore.DEInternal.Weighted>
3.0215

> <Gold.Chemscore.Rot.Weighted>
4.6310

> <Gold.Chemscore.Internal.Correction.Weighted>
   9.000000E+99

> <Gold.Protein.RotatedTorsions>
[ 6907 6896 6895 6894 ] final   81.38 input  -60.11 | X-H torsion
[ 7974 7965 7964 7962 ] final  106.19 input  175.53 | X-H torsion
[ 8008 7997 7996 7995 ] final -120.12 input   59.86 | X-H torsion
[ 10167 10162 10161 10158 ] final   92.50 input  -65.29 | X-H torsion
[ 10718 10713 10712 10709 ] final  -24.63 input   66.30 | X-H torsion
[ 10763 10752 10751 10750 ] final   59.27 input  -60.55 | X-H torsion
[ 11005 11000 10999 10996 ] final  -84.03 input  -57.11 | X-H torsion

> <Gold.Protein.ActiveResidues>
 VAL166  LYS551  ARG553  GLY616  TRP617  ASP618  TYR619  PRO620  LYS621  CYS622 
 ASP623  PHE694  ASN695  SER759  ASP760  ASP761  ALA762  ILE779  LEU786  VAL792 
 PHE793  MET794  SER795  GLU796  ALA797  LYS798  CYS799  TRP800  GLU811  SER814 

> <Gold.Protein.RotatedAtoms>
  152.5266  134.3212  159.9148 H   0  0  0  0  0  0  0  0  0  0  0  0  # atno 6907 bound_to 6896
  151.3161  133.4053  159.2658 H   0  0  0  0  0  0  0  0  0  0  0  0  # atno 6908 bound_to 6896
  150.9998  134.9329  159.8004 H   0  0  0  0  0  0  0  0  0  0  0  0  # atno 6909 bound_to 6896
  145.3099  139.2543  143.3768 H   0  0  0  0  0  0  0  0  0  0  0  0  # atno 7974 bound_to 7965
  155.1268  140.0399  157.2764 H   0  0  0  0  0  0  0  0  0  0  0  0  # atno 8008 bound_to 7997
  154.6572  140.2583  155.7122 H   0  0  0  0  0  0  0  0  0  0  0  0  # atno 8009 bound_to 7997
  156.2603  140.2824  156.1030 H   0  0  0  0  0  0  0  0  0  0  0  0  # atno 8010 bound_to 7997
  139.8270  144.6705  150.9447 H   0  0  0  0  0  0  0  0  0  0  0  0  # atno 10167 bound_to 10162
  156.4751  130.4533  149.6845 H   0  0  0  0  0  0  0  0  0  0  0  0  # atno 10718 bound_to 10713
  152.9890  135.5577  154.5686 H   0  0  0  0  0  0  0  0  0  0  0  0  # atno 10763 bound_to 10752
  154.5090  135.2801  155.1360 H   0  0  0  0  0  0  0  0  0  0  0  0  # atno 10764 bound_to 10752
  154.2759  135.6354  153.5381 H   0  0  0  0  0  0  0  0  0  0  0  0  # atno 10765 bound_to 10752
  141.1653  133.7325  156.8808 H   0  0  0  0  0  0  0  0  0  0  0  0  # atno 11005 bound_to 11000
  146.3121  140.3633  142.8667 LP  0  0  0  0  0  0  0  0  0  0  0  0  # atno 17320 bound_to 7965
  144.9024  140.7659  143.5858 LP  0  0  0  0  0  0  0  0  0  0  0  0  # atno 17321 bound_to 7965
  140.7809  143.4037  151.1107 LP  0  0  0  0  0  0  0  0  0  0  0  0  # atno 17342 bound_to 10162
  139.7693  143.8518  152.3117 LP  0  0  0  0  0  0  0  0  0  0  0  0  # atno 17343 bound_to 10162
  156.3579  130.7466  151.2434 LP  0  0  0  0  0  0  0  0  0  0  0  0  # atno 17370 bound_to 10713
  157.7488  131.0358  150.4383 LP  0  0  0  0  0  0  0  0  0  0  0  0  # atno 17371 bound_to 10713
  140.1716  134.9096  157.2840 LP  0  0  0  0  0  0  0  0  0  0  0  0  # atno 17394 bound_to 11000
  140.2495  134.3699  155.7448 LP  0  0  0  0  0  0  0  0  0  0  0  0  # atno 17395 bound_to 11000

$$$$
