AV-unprocessed.smi:283|AV-procd|sdf|2134|dock10
  -GOLD-   2262021453D 1   1.00000     0.00000
 Structure written by MMmdl.
 48 51  0  0  0  0  0  0  0  0  1 V2000
  153.3025  139.7845  159.4258 C   0  0  0  0  0  0  0  0  0  0  0  0
  152.3738  140.9897  159.2240 C   0  0  1  0  0  0  0  0  0  0  0  0
  150.9988  140.5258  159.0548 N   0  0  0  0  0  0  0  0  0  0  0  0
  150.3538  140.6186  157.8704 C   0  0  0  0  0  0  0  0  0  0  0  0
  151.0545  141.2137  156.8762 N   0  0  0  0  0  0  0  0  0  0  0  0
  150.5154  141.3462  155.6617 C   0  0  0  0  0  0  0  0  0  0  0  0
  149.3114  140.9608  155.2392 N   0  0  0  0  0  0  0  0  0  0  0  0
  148.5904  140.3704  156.2353 C   0  0  0  0  0  0  0  0  0  0  0  0
  149.0335  140.1646  157.5743 C   0  0  0  0  0  0  0  0  0  0  0  0
  148.0205  139.5482  158.3003 N   0  0  0  0  0  0  0  0  0  0  0  0
  147.0539  139.3865  157.4398 C   0  0  0  0  0  0  0  0  0  0  0  0
  147.3108  139.8538  156.1719 N   0  0  0  0  0  0  0  0  0  0  0  0
  146.3916  139.8191  154.9929 C   0  0  2  0  0  0  0  0  0  0  0  0
  145.9426  138.5102  154.8145 O   0  0  0  0  0  0  0  0  0  0  0  0
  145.9415  138.2173  153.4269 C   0  0  2  0  0  0  0  0  0  0  0  0
  145.7939  136.7116  153.1200 C   0  0  0  0  0  0  0  0  0  0  0  0
  146.9304  135.9475  153.4655 O   0  0  0  0  0  0  0  0  0  0  0  0
  147.1075  139.0206  152.8298 C   0  0  2  0  0  0  0  0  0  0  0  0
  148.3505  138.3528  152.9152 O   0  0  0  0  0  0  0  0  0  0  0  0
  147.1309  140.2658  153.7133 C   0  0  1  0  0  0  0  0  0  0  0  0
  146.4399  141.3194  153.0714 O   0  0  0  0  0  0  0  0  0  0  0  0
  152.5765  142.0105  160.3477 C   0  0  0  0  0  0  0  0  0  0  0  0
  153.2877  141.6479  161.5156 C   0  0  0  0  0  0  0  0  0  0  0  0
  153.4782  142.5747  162.5575 C   0  0  0  0  0  0  0  0  0  0  0  0
  152.9678  143.8798  162.4395 C   0  0  0  0  0  0  0  0  0  0  0  0
  152.2721  144.2570  161.2763 C   0  0  0  0  0  0  0  0  0  0  0  0
  152.0776  143.3328  160.2303 C   0  0  0  0  0  0  0  0  0  0  0  0
  151.2262  143.8563  158.8191 Cl  0  0  0  0  0  0  0  0  0  0  0  0
  145.5623  140.4714  155.2710 H   0  0  0  0  0  0  0  0  0  0  0  0
  145.0288  138.6851  153.0524 H   0  0  0  0  0  0  0  0  0  0  0  0
  146.9306  139.2516  151.7782 H   0  0  0  0  0  0  0  0  0  0  0  0
  148.1449  140.6018  153.9386 H   0  0  0  0  0  0  0  0  0  0  0  0
  154.3466  140.0954  159.4695 H   0  0  0  0  0  0  0  0  0  0  0  0
  153.2077  139.0729  158.6048 H   0  0  0  0  0  0  0  0  0  0  0  0
  153.0734  139.2573  160.3527 H   0  0  0  0  0  0  0  0  0  0  0  0
  152.6538  141.4474  158.2769 H   0  0  0  0  0  0  0  0  0  0  0  0
  150.5047  140.3470  159.9168 H   0  0  0  0  0  0  0  0  0  0  0  0
  151.1374  141.8271  154.9211 H   0  0  0  0  0  0  0  0  0  0  0  0
  146.1163  138.9235  157.7113 H   0  0  0  0  0  0  0  0  0  0  0  0
  144.9271  136.3076  153.6434 H   0  0  0  0  0  0  0  0  0  0  0  0
  145.6109  136.5728  152.0544 H   0  0  0  0  0  0  0  0  0  0  0  0
  147.6714  136.2726  152.9774 H   0  0  0  0  0  0  0  0  0  0  0  0
  148.9319  138.7179  152.2655 H   0  0  0  0  0  0  0  0  0  0  0  0
  145.6237  140.9809  152.7363 H   0  0  0  0  0  0  0  0  0  0  0  0
  153.6912  140.6517  161.6231 H   0  0  0  0  0  0  0  0  0  0  0  0
  154.0178  142.2839  163.4469 H   0  0  0  0  0  0  0  0  0  0  0  0
  153.1136  144.5924  163.2378 H   0  0  0  0  0  0  0  0  0  0  0  0
  151.8873  145.2622  161.1859 H   0  0  0  0  0  0  0  0  0  0  0  0
  1  2  1  0  0  0  0
  1 33  1  0  0  0  0
  1 34  1  0  0  0  0
  1 35  1  0  0  0  0
  2  3  1  0  0  0  0
  2 22  1  0  0  0  0
  2 36  1  0  0  0  0
  3  4  1  0  0  0  0
  3 37  1  0  0  0  0
  4  9  1  0  0  0  0
  4  5  2  0  0  0  0
  5  6  1  0  0  0  0
  6  7  2  0  0  0  0
  6 38  1  0  0  0  0
  7  8  1  0  0  0  0
  8 12  1  0  0  0  0
  8  9  2  0  0  0  0
  9 10  1  0  0  0  0
 10 11  2  0  0  0  0
 11 12  1  0  0  0  0
 11 39  1  0  0  0  0
 12 13  1  0  0  0  0
 13 29  1  0  0  0  0
 13 20  1  0  0  0  0
 13 14  1  0  0  0  0
 14 15  1  0  0  0  0
 15 30  1  0  0  0  0
 15 16  1  0  0  0  0
 15 18  1  0  0  0  0
 16 17  1  0  0  0  0
 16 40  1  0  0  0  0
 16 41  1  0  0  0  0
 17 42  1  0  0  0  0
 18 31  1  0  0  0  0
 18 19  1  0  0  0  0
 18 20  1  0  0  0  0
 19 43  1  0  0  0  0
 20 32  1  0  0  0  0
 20 21  1  0  0  0  0
 21 44  1  0  0  0  0
 22 27  1  0  0  0  0
 22 23  2  0  0  0  0
 23 24  1  0  0  0  0
 23 45  1  0  0  0  0
 24 25  2  0  0  0  0
 24 46  1  0  0  0  0
 25 26  1  0  0  0  0
 25 47  1  0  0  0  0
 26 27  2  0  0  0  0
 26 48  1  0  0  0  0
 27 28  1  0  0  0  0
M  END
> <s_m_source_file>
AV-unprocessed.smi

> <i_m_source_file_index>
283

> <i_lp_mmshare_version>
43012

> <i_f3d_flags>
0

> <s_epik_input>
Q2xjMVtjSF1bY0hdW2NIXVtjSF1jMVtDQEhdKFtDSDNdKVtOSF1jKG5bY0hdbjIpYyhjMjMpbltjSF1uM1tDQEBIXTRPW0NASF0oW0NIMl1bT0hdKVtDQEBIXShbT0hdKVtDQEhdNFtPSF0=

> <s_epik_cmdline>
J2VwaWtfcHl0aG9uJywgJy1waCcsICc3LjAnLCAnLXRuJywgJzgnLCAnLW1hJywgJzIwMCcsICctbWV0YWxfYmluZGluZycsICctaW1hZScsICc8aW5maWxlLm1hZT4nLCAnLW9tYWUnLCAnPG91dGZpbGUubWFlPic=

> <r_lp_tautomer_probability>
1

> <r_epik_Ionization_Penalty>
0.000266407

> <r_epik_Ionization_Penalty_Charging>
0

> <r_epik_Ionization_Penalty_Neutral>
0.000266407

> <r_epik_State_Penalty>
-0

> <r_epik_Charging_Adjusted_Penalty>
0

> <i_epik_Tot_Q>
0

> <i_epik_Tot_abs_Q>
0

> <r_epik_Metal_State_Penalty>
-0

> <b_epik_Metal_Only>
0

> <s_epik_Chemistry_Notes>
This compound contains an acetal/aminal-like group ( X-CH(R)-Y where X, Y are N, S, or O) that may be acid/base labile, releasing an aldehyde.

> <s_lp_Force_Field>
OPLS_2005

> <r_lp_Energy>
45.8165

> <b_lp_Chiralities_Consistent>
1

> <s_lp_Variant>
AV-unprocessed.smi:283-10

> <Gold.Version>
5.8.1

> <Gold.Id.Protein>
6NUR|6NUR_protein|mol2

> <Gold.PLP.Fitness>
52.3632

> <Gold.PLP.PLP>
-44.3789

> <Gold.PLP.part.hbond>
-4.5670

> <Gold.PLP.part.metal>
0.0000

> <Gold.PLP.part.buried>
-6.6868

> <Gold.PLP.part.nonpolar>
-33.3509

> <Gold.PLP.part.repulsive>
0.4279

> <Gold.PLP.ligand.clash>
0.0000

> <Gold.PLP.ligand.torsion>
0.4668

> <Gold.PLP.Chemscore.Hbond>
2.9500

> <Gold.PLP.Chemscore.CHOScore>
0.0000

> <Gold.PLP.Chemscore.Metal>
0.0000

> <Gold.Chemscore.Hbonds>
donor molecule, donor type, donor heavy atom, donor atom, acceptor molecule, acceptor atom, score
      L1  H    17    42       P1  7948  1.00
      L1  H    19    43       P1  7957  1.00
      L1  H    21    44       P1 10175  0.90

> <Gold.PLP.Chemscore.Internal.Correction>
0.0679

> <Gold.Rescore>
     Score         DG    S(hbond)    S(metal)    S(lipo)     H(rot)  DE(clash)    DE(int)     intcor
     14.88     -17.17       2.72        0.00     111.93       4.10       0.38       1.91       ----

> <Gold.Chemscore.Fitness>
14.8796

> <Gold.Chemscore.DG>
-17.1702

> <Gold.Chemscore.ZeroCoef>
-5.4800

> <Gold.Chemscore.Hbond>
2.7193

> <Gold.Chemscore.Metal>
0.0000

> <Gold.Chemscore.Lipo>
111.9280

> <Gold.Chemscore.Internal_Hbond>
0.0000

> <Gold.Chemscore.DEClash>
0.3846

> <Gold.Chemscore.DEInternal>
1.9061

> <Gold.Chemscore.Rot>
4.0968

> <Gold.Chemscore.Internal.Correction>
   9.000000E+99

> <Gold.Chemscore.Hbonds>
donor molecule, donor type, donor heavy atom, donor atom, acceptor molecule, acceptor atom, score
      L1  H    17    42       P1  7948  0.99
      L1  H    19    43       P1  7957  0.84
      L1  H    21    44       P1 10175  0.17

> <Gold.Chemscore.Hbond.Weighted>
-9.0826

> <Gold.Chemscore.Metal.Weighted>
-0.0000

> <Gold.Chemscore.Lipo.Weighted>
-13.0956

> <Gold.Chemscore.Internal_Hbond.Weighted>
0.0000

> <Gold.Chemscore.DEClash.Weighted>
0.3846

> <Gold.Chemscore.DEInternal.Weighted>
1.9061

> <Gold.Chemscore.Rot.Weighted>
10.4879

> <Gold.Chemscore.Internal.Correction.Weighted>
   9.000000E+99

> <Gold.Protein.RotatedTorsions>
[ 6907 6896 6895 6894 ] final   65.40 input  -60.11 | X-H torsion
[ 7974 7965 7964 7962 ] final -121.62 input  175.53 | X-H torsion
[ 8008 7997 7996 7995 ] final -130.38 input   59.86 | X-H torsion
[ 10167 10162 10161 10158 ] final -115.25 input  -65.29 | X-H torsion
[ 10718 10713 10712 10709 ] final  113.06 input   66.30 | X-H torsion
[ 10763 10752 10751 10750 ] final   98.90 input  -60.55 | X-H torsion
[ 11005 11000 10999 10996 ] final  -94.55 input  -57.11 | X-H torsion

> <Gold.Protein.ActiveResidues>
 VAL166  LYS551  ARG553  GLY616  TRP617  ASP618  TYR619  PRO620  LYS621  CYS622 
 ASP623  PHE694  ASN695  SER759  ASP760  ASP761  ALA762  ILE779  LEU786  VAL792 
 PHE793  MET794  SER795  GLU796  ALA797  LYS798  CYS799  TRP800  GLU811  SER814 

> <Gold.Protein.RotatedAtoms>
  152.4404  134.5602  159.9891 H   0  0  0  0  0  0  0  0  0  0  0  0  # atno 6907 bound_to 6896
  151.5701  133.3385  159.2996 H   0  0  0  0  0  0  0  0  0  0  0  0  # atno 6908 bound_to 6896
  150.8309  134.7596  159.6917 H   0  0  0  0  0  0  0  0  0  0  0  0  # atno 6909 bound_to 6896
  145.0384  140.8124  143.4281 H   0  0  0  0  0  0  0  0  0  0  0  0  # atno 7974 bound_to 7965
  155.2948  140.0450  157.3025 H   0  0  0  0  0  0  0  0  0  0  0  0  # atno 8008 bound_to 7997
  154.5520  140.2320  155.8437 H   0  0  0  0  0  0  0  0  0  0  0  0  # atno 8009 bound_to 7997
  156.1975  140.3034  155.9464 H   0  0  0  0  0  0  0  0  0  0  0  0  # atno 8010 bound_to 7997
  140.0921  143.4690  152.1863 H   0  0  0  0  0  0  0  0  0  0  0  0  # atno 10167 bound_to 10162
  157.6359  131.0977  150.6985 H   0  0  0  0  0  0  0  0  0  0  0  0  # atno 10718 bound_to 10713
  153.2947  135.4132  155.1199 H   0  0  0  0  0  0  0  0  0  0  0  0  # atno 10763 bound_to 10752
  154.8531  135.3527  154.5933 H   0  0  0  0  0  0  0  0  0  0  0  0  # atno 10764 bound_to 10752
  153.6356  135.7059  153.5318 H   0  0  0  0  0  0  0  0  0  0  0  0  # atno 10765 bound_to 10752
  141.1467  133.7964  157.0313 H   0  0  0  0  0  0  0  0  0  0  0  0  # atno 11005 bound_to 11000
  145.1680  139.2420  143.5357 LP  0  0  0  0  0  0  0  0  0  0  0  0  # atno 17320 bound_to 7965
  146.3506  140.1424  142.8594 LP  0  0  0  0  0  0  0  0  0  0  0  0  # atno 17321 bound_to 7965
  139.5718  144.7467  151.3869 LP  0  0  0  0  0  0  0  0  0  0  0  0  # atno 17342 bound_to 10162
  140.7023  143.7601  150.7423 LP  0  0  0  0  0  0  0  0  0  0  0  0  # atno 17343 bound_to 10162
  156.7317  130.4711  149.5498 LP  0  0  0  0  0  0  0  0  0  0  0  0  # atno 17370 bound_to 10713
  156.1598  130.6366  151.0704 LP  0  0  0  0  0  0  0  0  0  0  0  0  # atno 17371 bound_to 10713
  140.0752  134.9680  157.1533 LP  0  0  0  0  0  0  0  0  0  0  0  0  # atno 17394 bound_to 11000
  140.3654  134.2448  155.7183 LP  0  0  0  0  0  0  0  0  0  0  0  0  # atno 17395 bound_to 11000

$$$$
