AV-unprocessed.smi:35|AV-procd|sdf|274|dock1
  -GOLD-   2262016 43D 1   1.00000     0.00000
 Structure written by MMmdl.
 28 29  0  0  0  0  0  0  0  0  2 V2000
  147.5118  130.4283  152.7544 O   0  0  0  0  0  0  0  0  0  0  0  0
  146.8636  131.4289  152.4528 C   0  0  0  0  0  0  0  0  0  0  0  0
  145.6254  131.3665  151.8848 N   0  5  0  0  0  0  0  0  0  0  0  0
  144.9145  132.4808  151.5413 C   0  0  0  0  0  0  0  0  0  0  0  0
  143.7835  132.4306  151.0583 O   0  0  0  0  0  0  0  0  0  0  0  0
  145.4936  133.7645  151.7509 N   0  0  0  0  0  0  0  0  0  0  0  0
  144.6862  134.9995  151.3806 C   0  0  1  0  0  0  0  0  0  0  0  0
  144.3413  135.7113  152.5315 O   0  0  0  0  0  0  0  0  0  0  0  0
  145.3095  136.7224  152.7765 C   0  0  2  0  0  0  0  0  0  0  0  0
  144.7029  137.7914  153.6989 C   0  0  0  0  0  0  0  0  0  0  0  0
  145.3604  139.0291  153.5266 O   0  0  0  0  0  0  0  0  0  0  0  0
  145.6647  137.2126  151.3702 C   0  0  1  0  0  0  0  0  0  0  0  0
  147.0019  137.6712  151.3405 O   0  0  0  0  0  0  0  0  0  0  0  0
  145.5023  135.9692  150.4947 C   0  0  2  0  0  0  0  0  0  0  0  0
  144.8022  136.2989  149.3116 O   0  0  0  0  0  0  0  0  0  0  0  0
  146.7336  133.8558  152.3653 C   0  0  0  0  0  0  0  0  0  0  0  0
  147.4249  132.7512  152.7117 C   0  0  0  0  0  0  0  0  0  0  0  0
  149.1839  133.0380  153.5783 Br  0  0  0  0  0  0  0  0  0  0  0  0
  143.7853  134.6043  150.9074 H   0  0  0  0  0  0  0  0  0  0  0  0
  146.1790  136.2637  153.2502 H   0  0  0  0  0  0  0  0  0  0  0  0
  143.6363  137.9136  153.5086 H   0  0  0  0  0  0  0  0  0  0  0  0
  144.8112  137.4890  154.7408 H   0  0  0  0  0  0  0  0  0  0  0  0
  144.7414  139.6514  153.1760 H   0  0  0  0  0  0  0  0  0  0  0  0
  144.9839  138.0071  151.0602 H   0  0  0  0  0  0  0  0  0  0  0  0
  147.0663  138.4356  151.8927 H   0  0  0  0  0  0  0  0  0  0  0  0
  146.4671  135.5281  150.2384 H   0  0  0  0  0  0  0  0  0  0  0  0
  145.2067  135.8450  148.5888 H   0  0  0  0  0  0  0  0  0  0  0  0
  147.1700  134.8168  152.5875 H   0  0  0  0  0  0  0  0  0  0  0  0
  1  2  2  0  0  0  0
  2 17  1  0  0  0  0
  2  3  1  0  0  0  0
  3  4  1  0  0  0  0
  4  5  2  0  0  0  0
  4  6  1  0  0  0  0
  6  7  1  0  0  0  0
  6 16  1  0  0  0  0
  7 14  1  0  0  0  0
  7  8  1  0  0  0  0
  7 19  1  0  0  0  0
  8  9  1  0  0  0  0
  9 10  1  0  0  0  0
  9 12  1  0  0  0  0
  9 20  1  0  0  0  0
 10 11  1  0  0  0  0
 10 21  1  0  0  0  0
 10 22  1  0  0  0  0
 11 23  1  0  0  0  0
 12 13  1  0  0  0  0
 12 14  1  0  0  0  0
 12 24  1  0  0  0  0
 13 25  1  0  0  0  0
 14 15  1  0  0  0  0
 14 26  1  0  0  0  0
 15 27  1  0  0  0  0
 16 17  2  0  0  0  0
 16 28  1  0  0  0  0
 17 18  1  0  0  0  0
M  CHG  1   3  -1
M  END
> <s_m_source_file>
AV-unprocessed.smi

> <i_m_source_file_index>
35

> <i_lp_mmshare_version>
43012

> <i_f3d_flags>
0

> <s_epik_input>
Tz1jMVtuSF1jKD1PKW4oW2NIXWMxQnIpW0NAQEhdMk9bQ0BASF0oW0NIMl1bT0hdKVtDQEBIXShbT0hdKVtDQEhdMltPSF0=

> <s_epik_cmdline>
J2VwaWtfcHl0aG9uJywgJy1waCcsICc3LjAnLCAnLXRuJywgJzgnLCAnLW1hJywgJzIwMCcsICctbWV0YWxfYmluZGluZycsICctaW1hZScsICc8aW5maWxlLm1hZT4nLCAnLW9tYWUnLCAnPG91dGZpbGUubWFlPic=

> <r_epik_Ionization_Penalty>
1.06112

> <r_epik_Ionization_Penalty_Charging>
2.1796e-09

> <r_epik_Ionization_Penalty_Neutral>
1.06112

> <r_epik_State_Penalty>
1.11484

> <r_epik_Charging_Adjusted_Penalty>
1.11484

> <i_epik_Tot_Q>
-1

> <i_epik_Tot_abs_Q>
1

> <r_epik_Metal_State_Penalty>
0.0032876

> <b_epik_Metal_Only>
0

> <s_epik_Chemistry_Notes>
This compound contains an acetal/aminal-like group ( X-CH(R)-Y where X, Y are N, S, or O) that may be acid/base labile, releasing an aldehyde.

> <s_lp_Force_Field>
OPLS_2005

> <r_lp_Energy>
36.7062

> <b_lp_Chiralities_Consistent>
1

> <s_lp_Variant>
AV-unprocessed.smi:35-28

> <Gold.Version>
5.8.1

> <Gold.Id.Protein>
6NUR|6NUR_protein|mol2

> <Gold.PLP.Fitness>
37.1377

> <Gold.PLP.PLP>
-25.7387

> <Gold.PLP.part.hbond>
-3.6175

> <Gold.PLP.part.metal>
0.0000

> <Gold.PLP.part.buried>
-1.1817

> <Gold.PLP.part.nonpolar>
-21.4024

> <Gold.PLP.part.repulsive>
1.1264

> <Gold.PLP.ligand.clash>
0.0000

> <Gold.PLP.ligand.torsion>
0.3132

> <Gold.PLP.Chemscore.Hbond>
3.0000

> <Gold.PLP.Chemscore.CHOScore>
0.9987

> <Gold.PLP.Chemscore.Metal>
0.0000

> <Gold.Chemscore.Hbonds>
donor molecule, donor type, donor heavy atom, donor atom, acceptor molecule, acceptor atom, score
      L1  H    11    23       P1 10175  0.96
      L1  H    15    27       P1  7921  1.00
      P1  H  7954  7966       L1    13  1.00
      L1  C    16    28       P1  7948  1.00

> <Gold.PLP.Chemscore.Internal.Correction>
0.0294

> <Gold.Rescore>
     Score         DG    S(hbond)    S(metal)    S(lipo)     H(rot)  DE(clash)    DE(int)     intcor
      9.33     -10.34       2.86        0.00      39.31       3.63       0.52       0.50       ----

> <Gold.Chemscore.Fitness>
9.3283

> <Gold.Chemscore.DG>
-10.3417

> <Gold.Chemscore.ZeroCoef>
-5.4800

> <Gold.Chemscore.Hbond>
2.8579

> <Gold.Chemscore.Metal>
0.0000

> <Gold.Chemscore.Lipo>
39.3083

> <Gold.Chemscore.Internal_Hbond>
0.0000

> <Gold.Chemscore.DEClash>
0.5177

> <Gold.Chemscore.DEInternal>
0.4958

> <Gold.Chemscore.Rot>
3.6261

> <Gold.Chemscore.Internal.Correction>
   9.000000E+99

> <Gold.Chemscore.Hbonds>
donor molecule, donor type, donor heavy atom, donor atom, acceptor molecule, acceptor atom, score
      L1  H    11    23       P1 10175  0.91
      L1  H    15    27       P1  7921  1.00
      P1  H  7954  7966       L1    13  0.70

> <Gold.Chemscore.Hbond.Weighted>
-9.5454

> <Gold.Chemscore.Metal.Weighted>
-0.0000

> <Gold.Chemscore.Lipo.Weighted>
-4.5991

> <Gold.Chemscore.Internal_Hbond.Weighted>
0.0000

> <Gold.Chemscore.DEClash.Weighted>
0.5177

> <Gold.Chemscore.DEInternal.Weighted>
0.4958

> <Gold.Chemscore.Rot.Weighted>
9.2828

> <Gold.Chemscore.Internal.Correction.Weighted>
   9.000000E+99

> <Gold.Protein.RotatedTorsions>
[ 6907 6896 6895 6894 ] final -134.23 input  -60.11 | X-H torsion
[ 7974 7965 7964 7962 ] final  -86.57 input  175.53 | X-H torsion
[ 8008 7997 7996 7995 ] final  173.74 input   59.86 | X-H torsion
[ 10167 10162 10161 10158 ] final  -30.88 input  -65.29 | X-H torsion
[ 10718 10713 10712 10709 ] final -163.65 input   66.30 | X-H torsion
[ 10763 10752 10751 10750 ] final  -42.56 input  -60.55 | X-H torsion
[ 11005 11000 10999 10996 ] final -142.47 input  -57.11 | X-H torsion

> <Gold.Protein.ActiveResidues>
 VAL166  LYS551  ARG553  GLY616  TRP617  ASP618  TYR619  PRO620  LYS621  CYS622 
 ASP623  PHE694  ASN695  SER759  ASP760  ASP761  ALA762  ILE779  LEU786  VAL792 
 PHE793  MET794  SER795  GLU796  ALA797  LYS798  CYS799  TRP800  GLU811  SER814 

> <Gold.Protein.RotatedAtoms>
  150.9834  133.6222  159.2718 H   0  0  0  0  0  0  0  0  0  0  0  0  # atno 6907 bound_to 6896
  151.3469  135.0875  159.9399 H   0  0  0  0  0  0  0  0  0  0  0  0  # atno 6908 bound_to 6896
  152.5223  133.9434  159.7692 H   0  0  0  0  0  0  0  0  0  0  0  0  # atno 6909 bound_to 6896
  145.4781  140.9558  143.1879 H   0  0  0  0  0  0  0  0  0  0  0  0  # atno 7974 bound_to 7965
  156.1045  140.1452  156.9423 H   0  0  0  0  0  0  0  0  0  0  0  0  # atno 8008 bound_to 7997
  154.4724  140.0905  156.7223 H   0  0  0  0  0  0  0  0  0  0  0  0  # atno 8009 bound_to 7997
  155.4703  140.3441  155.4327 H   0  0  0  0  0  0  0  0  0  0  0  0  # atno 8010 bound_to 7997
  140.7244  143.3814  151.1594 H   0  0  0  0  0  0  0  0  0  0  0  0  # atno 10167 bound_to 10162
  156.6278  130.8917  151.2971 H   0  0  0  0  0  0  0  0  0  0  0  0  # atno 10718 bound_to 10713
  153.9810  135.6717  153.4750 H   0  0  0  0  0  0  0  0  0  0  0  0  # atno 10763 bound_to 10752
  153.0748  135.4954  154.8378 H   0  0  0  0  0  0  0  0  0  0  0  0  # atno 10764 bound_to 10752
  154.7164  135.3108  154.9078 H   0  0  0  0  0  0  0  0  0  0  0  0  # atno 10765 bound_to 10752
  140.8222  134.2617  157.4895 H   0  0  0  0  0  0  0  0  0  0  0  0  # atno 11005 bound_to 11000
  144.7905  139.6338  143.7115 LP  0  0  0  0  0  0  0  0  0  0  0  0  # atno 17320 bound_to 7965
  146.2357  139.5901  142.9525 LP  0  0  0  0  0  0  0  0  0  0  0  0  # atno 17321 bound_to 7965
  139.7404  143.8934  152.3048 LP  0  0  0  0  0  0  0  0  0  0  0  0  # atno 17342 bound_to 10162
  139.8753  144.7047  150.8940 LP  0  0  0  0  0  0  0  0  0  0  0  0  # atno 17343 bound_to 10162
  157.7209  130.9557  150.1435 LP  0  0  0  0  0  0  0  0  0  0  0  0  # atno 17370 bound_to 10713
  156.2259  130.3678  149.8501 LP  0  0  0  0  0  0  0  0  0  0  0  0  # atno 17371 bound_to 10713
  139.8708  134.9541  156.4167 LP  0  0  0  0  0  0  0  0  0  0  0  0  # atno 17394 bound_to 11000
  140.9087  133.7727  155.9765 LP  0  0  0  0  0  0  0  0  0  0  0  0  # atno 17395 bound_to 11000

$$$$
