AV-unprocessed.smi:53|AV-procd|sdf|517|dock6
  -GOLD-   2262016393D 1   1.00000     0.00000
 Structure written by MMmdl.
 30 31  0  0  0  0  0  0  0  0  1 V2000
  146.9911  132.8730  155.6631 N   0  0  0  0  0  0  0  0  0  0  0  0
  147.7287  133.9898  155.7324 C   0  0  0  0  0  0  0  0  0  0  0  0
  147.7188  134.9397  154.6430 C   0  0  0  0  0  0  0  0  0  0  0  0
  148.4870  136.0415  154.7882 C   0  0  0  0  0  0  0  0  0  0  0  0
  149.2488  136.2676  155.9259 N   0  0  0  0  0  0  0  0  0  0  0  0
  150.1054  137.5102  156.0532 C   0  0  2  0  0  0  0  0  0  0  0  0
  149.2809  138.6320  155.9446 O   0  0  0  0  0  0  0  0  0  0  0  0
  149.9343  139.6209  155.1591 C   0  0  2  0  0  0  0  0  0  0  0  0
  148.9307  140.6544  154.6178 C   0  0  0  0  0  0  0  0  0  0  0  0
  149.4159  141.2272  153.4221 O   0  0  0  0  0  0  0  0  0  0  0  0
  150.7268  138.8062  154.1268 C   0  0  2  0  0  0  0  0  0  0  0  0
  149.9062  138.4257  153.0346 O   0  0  0  0  0  0  0  0  0  0  0  0
  151.1895  137.6105  154.9557 C   0  0  2  0  0  0  0  0  0  0  0  0
  151.3989  136.4389  154.1841 O   0  0  0  0  0  0  0  0  0  0  0  0
  149.2492  135.3116  156.9705 C   0  0  0  0  0  0  0  0  0  0  0  0
  149.9356  135.4532  157.9819 O   0  0  0  0  0  0  0  0  0  0  0  0
  148.4629  134.2028  156.8075 N   0  0  0  0  0  0  0  0  0  0  0  0
  150.5245  137.5065  157.0608 H   0  0  0  0  0  0  0  0  0  0  0  0
  150.6410  140.1268  155.8201 H   0  0  0  0  0  0  0  0  0  0  0  0
  151.5707  139.3729  153.7320 H   0  0  0  0  0  0  0  0  0  0  0  0
  152.1258  137.8648  155.4543 H   0  0  0  0  0  0  0  0  0  0  0  0
  147.0014  132.2098  156.4242 H   0  0  0  0  0  0  0  0  0  0  0  0
  146.4226  132.6976  154.8470 H   0  0  0  0  0  0  0  0  0  0  0  0
  147.1372  134.8062  153.7421 H   0  0  0  0  0  0  0  0  0  0  0  0
  148.4958  136.7595  153.9816 H   0  0  0  0  0  0  0  0  0  0  0  0
  147.9485  140.2140  154.4462 H   0  0  0  0  0  0  0  0  0  0  0  0
  148.7943  141.4541  155.3460 H   0  0  0  0  0  0  0  0  0  0  0  0
  149.4129  140.5642  152.7485 H   0  0  0  0  0  0  0  0  0  0  0  0
  150.2706  137.6458  152.6453 H   0  0  0  0  0  0  0  0  0  0  0  0
  151.2642  136.6534  153.2734 H   0  0  0  0  0  0  0  0  0  0  0  0
  1  2  1  0  0  0  0
  1 22  1  0  0  0  0
  1 23  1  0  0  0  0
  2 17  2  0  0  0  0
  2  3  1  0  0  0  0
  3  4  2  0  0  0  0
  3 24  1  0  0  0  0
  4  5  1  0  0  0  0
  4 25  1  0  0  0  0
  5  6  1  0  0  0  0
  5 15  1  0  0  0  0
  6 18  1  0  0  0  0
  6 13  1  0  0  0  0
  6  7  1  0  0  0  0
  7  8  1  0  0  0  0
  8 19  1  0  0  0  0
  8  9  1  0  0  0  0
  8 11  1  0  0  0  0
  9 10  1  0  0  0  0
  9 26  1  0  0  0  0
  9 27  1  0  0  0  0
 10 28  1  0  0  0  0
 11 20  1  0  0  0  0
 11 12  1  0  0  0  0
 11 13  1  0  0  0  0
 12 29  1  0  0  0  0
 13 21  1  0  0  0  0
 13 14  1  0  0  0  0
 14 30  1  0  0  0  0
 15 16  2  0  0  0  0
 15 17  1  0  0  0  0
M  END
> <s_m_source_file>
AV-unprocessed.smi

> <i_m_source_file_index>
53

> <i_lp_mmshare_version>
43012

> <i_f3d_flags>
0

> <s_epik_input>
W05IMl1jMVtjSF1bY0hdbihjKD1PKW4xKVtDQEBIXTJPW0NASF0oW0NIMl1bT0hdKVtDQEBIXShbT0hdKVtDQEBIXTJbT0hd

> <s_epik_cmdline>
J2VwaWtfcHl0aG9uJywgJy1waCcsICc3LjAnLCAnLXRuJywgJzgnLCAnLW1hJywgJzIwMCcsICctbWV0YWxfYmluZGluZycsICctaW1hZScsICc8aW5maWxlLm1hZT4nLCAnLW9tYWUnLCAnPG91dGZpbGUubWFlPic=

> <r_lp_tautomer_probability>
0.99996

> <r_epik_Ionization_Penalty>
0.00069087

> <r_epik_Ionization_Penalty_Charging>
2.61959e-08

> <r_epik_Ionization_Penalty_Neutral>
0.000690844

> <r_epik_State_Penalty>
1.15523e-05

> <r_epik_Charging_Adjusted_Penalty>
1.15785e-05

> <i_epik_Tot_Q>
0

> <i_epik_Tot_abs_Q>
0

> <r_epik_Metal_State_Penalty>
-0

> <b_epik_Metal_Only>
0

> <s_epik_Chemistry_Notes>
This compound contains an acetal/aminal-like group ( X-CH(R)-Y where X, Y are N, S, or O) that may be acid/base labile, releasing an aldehyde.

> <s_lp_Force_Field>
OPLS_2005

> <r_lp_Energy>
39.6979

> <b_lp_Chiralities_Consistent>
1

> <s_lp_Variant>
AV-unprocessed.smi:53-5

> <Gold.Version>
5.8.1

> <Gold.Id.Protein>
6NUR|6NUR_protein|mol2

> <Gold.PLP.Fitness>
37.7395

> <Gold.PLP.PLP>
-20.2016

> <Gold.PLP.part.hbond>
-8.3915

> <Gold.PLP.part.metal>
0.0000

> <Gold.PLP.part.buried>
-2.3198

> <Gold.PLP.part.nonpolar>
-9.5710

> <Gold.PLP.part.repulsive>
0.0010

> <Gold.PLP.ligand.clash>
0.0000

> <Gold.PLP.ligand.torsion>
0.3041

> <Gold.PLP.Chemscore.Hbond>
5.1088

> <Gold.PLP.Chemscore.CHOScore>
0.9343

> <Gold.PLP.Chemscore.Metal>
0.0000

> <Gold.Chemscore.Hbonds>
donor molecule, donor type, donor heavy atom, donor atom, acceptor molecule, acceptor atom, score
      L1  H    10    28       P1  7957  1.00
      L1  H    12    29       P1  7948  0.18
      L1  H    14    30       P1  7949  0.91
      P1  H  6896  6907       L1    16  0.78
      P1  H  7989  7998       L1    10  0.02
      P1  H  8011  8017       L1    10  0.60
      P1  H 10752 10763       L1    14  1.00
      L1  C     4    25       P1  7948  0.87

> <Gold.PLP.Chemscore.Internal.Correction>
0.0167

> <Gold.Rescore>
     Score         DG    S(hbond)    S(metal)    S(lipo)     H(rot)  DE(clash)    DE(int)     intcor
     10.92     -13.06       3.84        0.00      36.39       3.71       0.54       1.59       ----

> <Gold.Chemscore.Fitness>
10.9232

> <Gold.Chemscore.DG>
-13.0562

> <Gold.Chemscore.ZeroCoef>
-5.4800

> <Gold.Chemscore.Hbond>
3.8367

> <Gold.Chemscore.Metal>
0.0000

> <Gold.Chemscore.Lipo>
36.3921

> <Gold.Chemscore.Internal_Hbond>
0.0000

> <Gold.Chemscore.DEClash>
0.5429

> <Gold.Chemscore.DEInternal>
1.5902

> <Gold.Chemscore.Rot>
3.7095

> <Gold.Chemscore.Internal.Correction>
   9.000000E+99

> <Gold.Chemscore.Hbonds>
donor molecule, donor type, donor heavy atom, donor atom, acceptor molecule, acceptor atom, score
      L1  H    10    28       P1  7957  0.96
      L1  H    12    29       P1  7948  0.01
      L1  H    14    30       P1  7949  0.58
      P1  H  6896  6907       L1    16  0.76
      P1  H  8011  8017       L1    10  0.04
      P1  H 10752 10763       L1    14  0.58

> <Gold.Chemscore.Hbond.Weighted>
-12.8147

> <Gold.Chemscore.Metal.Weighted>
-0.0000

> <Gold.Chemscore.Lipo.Weighted>
-4.2579

> <Gold.Chemscore.Internal_Hbond.Weighted>
0.0000

> <Gold.Chemscore.DEClash.Weighted>
0.5429

> <Gold.Chemscore.DEInternal.Weighted>
1.5902

> <Gold.Chemscore.Rot.Weighted>
9.4964

> <Gold.Chemscore.Internal.Correction.Weighted>
   9.000000E+99

> <Gold.Protein.RotatedTorsions>
[ 6907 6896 6895 6894 ] final  -54.21 input  -60.11 | X-H torsion
[ 7974 7965 7964 7962 ] final -170.19 input  175.53 | X-H torsion
[ 8008 7997 7996 7995 ] final -152.66 input   59.86 | X-H torsion
[ 10167 10162 10161 10158 ] final  148.20 input  -65.29 | X-H torsion
[ 10718 10713 10712 10709 ] final  -89.67 input   66.30 | X-H torsion
[ 10763 10752 10751 10750 ] final   43.41 input  -60.55 | X-H torsion
[ 11005 11000 10999 10996 ] final -104.69 input  -57.11 | X-H torsion

> <Gold.Protein.ActiveResidues>
 VAL166  LYS551  ARG553  GLY616  TRP617  ASP618  TYR619  PRO620  LYS621  CYS622 
 ASP623  PHE694  ASN695  SER759  ASP760  ASP761  ALA762  ILE779  LEU786  VAL792 
 PHE793  MET794  SER795  GLU796  ALA797  LYS798  CYS799  TRP800  GLU811  SER814 

> <Gold.Protein.RotatedAtoms>
  150.8358  134.7631  159.6891 H   0  0  0  0  0  0  0  0  0  0  0  0  # atno 6907 bound_to 6896
  152.4455  134.5500  159.9874 H   0  0  0  0  0  0  0  0  0  0  0  0  # atno 6908 bound_to 6896
  151.5650  133.3360  159.3014 H   0  0  0  0  0  0  0  0  0  0  0  0  # atno 6909 bound_to 6896
  144.7174  140.2108  143.6327 H   0  0  0  0  0  0  0  0  0  0  0  0  # atno 7974 bound_to 7965
  155.6586  140.0720  157.2562 H   0  0  0  0  0  0  0  0  0  0  0  0  # atno 8008 bound_to 7997
  154.4147  140.1720  156.1802 H   0  0  0  0  0  0  0  0  0  0  0  0  # atno 8009 bound_to 7997
  155.9717  140.3361  155.6584 H   0  0  0  0  0  0  0  0  0  0  0  0  # atno 8010 bound_to 7997
  139.4878  144.5697  151.7077 H   0  0  0  0  0  0  0  0  0  0  0  0  # atno 10167 bound_to 10162
  155.9985  130.4881  150.5206 H   0  0  0  0  0  0  0  0  0  0  0  0  # atno 10718 bound_to 10713
  152.9861  135.6102  154.3108 H   0  0  0  0  0  0  0  0  0  0  0  0  # atno 10763 bound_to 10752
  154.2823  135.2777  155.2693 H   0  0  0  0  0  0  0  0  0  0  0  0  # atno 10764 bound_to 10752
  154.5027  135.5862  153.6600 H   0  0  0  0  0  0  0  0  0  0  0  0  # atno 10765 bound_to 10752
  141.1089  133.8744  157.1642 H   0  0  0  0  0  0  0  0  0  0  0  0  # atno 11005 bound_to 11000
  145.8592  139.2214  143.1726 LP  0  0  0  0  0  0  0  0  0  0  0  0  # atno 17320 bound_to 7965
  146.0189  140.8367  142.9933 LP  0  0  0  0  0  0  0  0  0  0  0  0  # atno 17321 bound_to 7965
  140.5282  144.0772  150.6045 LP  0  0  0  0  0  0  0  0  0  0  0  0  # atno 17342 bound_to 10162
  140.3753  143.2832  152.0232 LP  0  0  0  0  0  0  0  0  0  0  0  0  # atno 17343 bound_to 10162
  157.3168  131.0674  151.1961 LP  0  0  0  0  0  0  0  0  0  0  0  0  # atno 17370 bound_to 10713
  157.2888  130.6786  149.6103 LP  0  0  0  0  0  0  0  0  0  0  0  0  # atno 17371 bound_to 10713
  139.9972  135.0042  157.0109 LP  0  0  0  0  0  0  0  0  0  0  0  0  # atno 17394 bound_to 11000
  140.4829  134.1271  155.7220 LP  0  0  0  0  0  0  0  0  0  0  0  0  # atno 17395 bound_to 11000

$$$$
