AV-unprocessed.smi:2336|AV-procd|sdf|9329|dock2
  -GOLD-   2272012553D 1   1.00000     0.00000
 Structure written by MMmdl.
 50 51  0  0  0  0  0  0  0  0  2 V2000
  146.4729  142.0229  153.8520 C   0  0  0  0  0  0  0  0  0  0  0  0
  147.1957  140.8341  154.5139 C   0  0  0  0  0  0  0  0  0  0  0  0
  148.7057  140.9483  154.2236 C   0  0  0  0  0  0  0  0  0  0  0  0
  146.6239  139.4520  154.0801 C   0  0  2  0  0  0  0  0  0  0  0  0
  146.7459  139.2048  152.5481 C   0  0  0  0  0  0  0  0  0  0  0  0
  146.9651  137.8018  152.2056 N   0  0  0  0  0  0  0  0  0  0  0  0
  146.0165  136.9254  151.8451 C   0  0  0  0  0  0  0  0  0  0  0  0
  144.8236  137.2137  151.7550 O   0  0  0  0  0  0  0  0  0  0  0  0
  146.5407  135.7059  151.6364 N   0  0  0  0  0  0  0  0  0  0  0  0
  145.8788  134.5065  151.2564 C   0  0  0  0  0  0  0  0  0  0  0  0
  144.6570  134.4651  150.5419 C   0  0  0  0  0  0  0  0  0  0  0  0
  144.1147  133.2082  150.2059 C   0  0  0  0  0  0  0  0  0  0  0  0
  144.7025  132.0353  150.5230 N   0  0  0  0  0  0  0  0  0  0  0  0
  145.8734  132.0789  151.1934 C   0  0  0  0  0  0  0  0  0  0  0  0
  146.5008  133.2814  151.5770 C   0  0  0  0  0  0  0  0  0  0  0  0
  147.6790  133.2557  152.2461 F   0  0  0  0  0  0  0  0  0  0  0  0
  145.2349  139.2881  154.6160 N   0  3  0  0  0  0  0  0  0  0  0  0
  145.0270  139.7622  156.0078 C   0  0  0  0  0  0  0  0  0  0  0  0
  143.5213  139.7869  156.3426 C   0  0  0  0  0  0  0  0  0  0  0  0
  142.8900  138.4807  156.1444 N   0  0  0  0  0  0  0  0  0  0  0  0
  143.2899  137.4924  157.1410 C   0  0  0  0  0  0  0  0  0  0  0  0
  143.1009  138.0274  154.7679 C   0  0  0  0  0  0  0  0  0  0  0  0
  144.5973  137.9638  154.4004 C   0  0  0  0  0  0  0  0  0  0  0  0
  146.4701  141.9324  152.7652 H   0  0  0  0  0  0  0  0  0  0  0  0
  146.9592  142.9662  154.1023 H   0  0  0  0  0  0  0  0  0  0  0  0
  145.4401  142.1121  154.1879 H   0  0  0  0  0  0  0  0  0  0  0  0
  147.0619  140.9441  155.5905 H   0  0  0  0  0  0  0  0  0  0  0  0
  148.9161  140.8152  153.1618 H   0  0  0  0  0  0  0  0  0  0  0  0
  149.2874  140.2097  154.7753 H   0  0  0  0  0  0  0  0  0  0  0  0
  149.0881  141.9274  154.5139 H   0  0  0  0  0  0  0  0  0  0  0  0
  147.2463  138.7030  154.5725 H   0  0  0  0  0  0  0  0  0  0  0  0
  145.8793  139.6181  152.0300 H   0  0  0  0  0  0  0  0  0  0  0  0
  147.6096  139.7343  152.1491 H   0  0  0  0  0  0  0  0  0  0  0  0
  147.9187  137.4719  152.2444 H   0  0  0  0  0  0  0  0  0  0  0  0
  147.5263  135.6054  151.8301 H   0  0  0  0  0  0  0  0  0  0  0  0
  144.1366  135.3590  150.2348 H   0  0  0  0  0  0  0  0  0  0  0  0
  143.1848  133.1444  149.6602 H   0  0  0  0  0  0  0  0  0  0  0  0
  146.3248  131.1265  151.4293 H   0  0  0  0  0  0  0  0  0  0  0  0
  145.5610  139.1417  156.7245 H   0  0  0  0  0  0  0  0  0  0  0  0
  145.4267  140.7712  156.1120 H   0  0  0  0  0  0  0  0  0  0  0  0
  143.3653  140.1172  157.3702 H   0  0  0  0  0  0  0  0  0  0  0  0
  143.0181  140.5153  155.7050 H   0  0  0  0  0  0  0  0  0  0  0  0
  142.7431  136.5612  156.9886 H   0  0  0  0  0  0  0  0  0  0  0  0
  143.0559  137.8517  158.1437 H   0  0  0  0  0  0  0  0  0  0  0  0
  144.3549  137.2652  157.1060 H   0  0  0  0  0  0  0  0  0  0  0  0
  142.6331  137.0523  154.6277 H   0  0  0  0  0  0  0  0  0  0  0  0
  142.5889  138.7156  154.0937 H   0  0  0  0  0  0  0  0  0  0  0  0
  144.6937  137.6732  153.3546 H   0  0  0  0  0  0  0  0  0  0  0  0
  145.0930  137.1900  154.9822 H   0  0  0  0  0  0  0  0  0  0  0  0
  144.6877  139.9305  154.0612 H   0  0  0  0  0  0  0  0  0  0  0  0
  1  2  1  0  0  0  0
  1 24  1  0  0  0  0
  1 25  1  0  0  0  0
  1 26  1  0  0  0  0
  2  3  1  0  0  0  0
  2  4  1  0  0  0  0
  2 27  1  0  0  0  0
  3 28  1  0  0  0  0
  3 29  1  0  0  0  0
  3 30  1  0  0  0  0
  4  5  1  0  0  0  0
  4 17  1  0  0  0  0
  4 31  1  0  0  0  0
  5  6  1  0  0  0  0
  5 32  1  0  0  0  0
  5 33  1  0  0  0  0
  6  7  1  0  0  0  0
  6 34  1  0  0  0  0
  7  8  2  0  0  0  0
  7  9  1  0  0  0  0
  9 10  1  0  0  0  0
  9 35  1  0  0  0  0
 10 15  1  0  0  0  0
 10 11  2  0  0  0  0
 11 12  1  0  0  0  0
 11 36  1  0  0  0  0
 12 13  2  0  0  0  0
 12 37  1  0  0  0  0
 13 14  1  0  0  0  0
 14 15  2  0  0  0  0
 14 38  1  0  0  0  0
 15 16  1  0  0  0  0
 17 23  1  0  0  0  0
 17 18  1  0  0  0  0
 17 50  1  0  0  0  0
 18 19  1  0  0  0  0
 18 39  1  0  0  0  0
 18 40  1  0  0  0  0
 19 20  1  0  0  0  0
 19 41  1  0  0  0  0
 19 42  1  0  0  0  0
 20 21  1  0  0  0  0
 20 22  1  0  0  0  0
 21 43  1  0  0  0  0
 21 44  1  0  0  0  0
 21 45  1  0  0  0  0
 22 23  1  0  0  0  0
 22 46  1  0  0  0  0
 22 47  1  0  0  0  0
 23 48  1  0  0  0  0
 23 49  1  0  0  0  0
M  CHG  1  17   1
M  END
> <s_m_source_file>
AV-unprocessed.smi

> <i_m_source_file_index>
2336

> <i_lp_mmshare_version>
43012

> <i_f3d_flags>
0

> <s_epik_input>
W0NIMl0xW0NIMl1OKFtDSDNdKVtDSDJdW0NIMl1OMVtDQEhdKFtDSF0oW0NIM10pW0NIM10pW0NIMl1bTkhdQyg9TylbTkhdYzJbY0hdW2NIXW5bY0hdYzJG

> <s_epik_cmdline>
J2VwaWtfcHl0aG9uJywgJy1waCcsICc3LjAnLCAnLXRuJywgJzgnLCAnLW1hJywgJzIwMCcsICctbWV0YWxfYmluZGluZycsICctaW1hZScsICc8aW5maWxlLm1hZT4nLCAnLW9tYWUnLCAnPG91dGZpbGUubWFlPic=

> <r_epik_Ionization_Penalty>
0.204575

> <r_epik_Ionization_Penalty_Charging>
0.20006

> <r_epik_Ionization_Penalty_Neutral>
0.00451444

> <r_epik_State_Penalty>
1.43207

> <r_epik_Charging_Adjusted_Penalty>
1.63213

> <i_epik_Tot_Q>
1

> <i_epik_Tot_abs_Q>
1

> <r_epik_Metal_State_Penalty>
1.43277

> <b_epik_Metal_Only>
0

> <s_lp_Force_Field>
OPLS_2005

> <r_lp_Energy>
38.6222

> <b_lp_Chiralities_Consistent>
1

> <s_lp_Variant>
AV-unprocessed.smi:2336-3

> <Gold.Version>
5.8.1

> <Gold.Id.Protein>
6NUR|6NUR_protein|mol2

> <Gold.PLP.Fitness>
44.4358

> <Gold.PLP.PLP>
-31.0358

> <Gold.PLP.part.hbond>
-2.7465

> <Gold.PLP.part.metal>
0.0000

> <Gold.PLP.part.buried>
-4.1521

> <Gold.PLP.part.nonpolar>
-27.2755

> <Gold.PLP.part.repulsive>
3.6689

> <Gold.PLP.ligand.clash>
0.0000

> <Gold.PLP.ligand.torsion>
0.8415

> <Gold.PLP.Chemscore.Hbond>
3.9193

> <Gold.PLP.Chemscore.CHOScore>
1.0000

> <Gold.PLP.Chemscore.Metal>
0.0000

> <Gold.Chemscore.Hbonds>
donor molecule, donor type, donor heavy atom, donor atom, acceptor molecule, acceptor atom, score
      L1  H     6    34       P1  7948  0.91
      L1  H     9    35       P1  7948  0.97
      L1  H    17    50       P1 10175  2.00
      L1  C    12    37       P1 10186  1.00
      L1  C    14    38       P1 10747  0.05

> <Gold.PLP.Chemscore.Internal.Correction>
0.3252

> <Gold.Rescore>
     Score         DG    S(hbond)    S(metal)    S(lipo)     H(rot)  DE(clash)    DE(int)     intcor
     15.71     -19.67       2.87        0.00      76.05       1.67       2.01       1.95       ----

> <Gold.Chemscore.Fitness>
15.7056

> <Gold.Chemscore.DG>
-19.6696

> <Gold.Chemscore.ZeroCoef>
-5.4800

> <Gold.Chemscore.Hbond>
2.8674

> <Gold.Chemscore.Metal>
0.0000

> <Gold.Chemscore.Lipo>
76.0469

> <Gold.Chemscore.Internal_Hbond>
0.0000

> <Gold.Chemscore.DEClash>
2.0146

> <Gold.Chemscore.DEInternal>
1.9494

> <Gold.Chemscore.Rot>
1.6739

> <Gold.Chemscore.Internal.Correction>
   9.000000E+99

> <Gold.Chemscore.Hbonds>
donor molecule, donor type, donor heavy atom, donor atom, acceptor molecule, acceptor atom, score
      L1  H     6    34       P1  7948  0.89
      L1  H     9    35       P1  7948  0.86
      L1  H    17    50       P1 10175  0.97

> <Gold.Chemscore.Hbond.Weighted>
-9.5773

> <Gold.Chemscore.Metal.Weighted>
-0.0000

> <Gold.Chemscore.Lipo.Weighted>
-8.8975

> <Gold.Chemscore.Internal_Hbond.Weighted>
0.0000

> <Gold.Chemscore.DEClash.Weighted>
2.0146

> <Gold.Chemscore.DEInternal.Weighted>
1.9494

> <Gold.Chemscore.Rot.Weighted>
4.2851

> <Gold.Chemscore.Internal.Correction.Weighted>
   9.000000E+99

> <Gold.Protein.RotatedTorsions>
[ 6907 6896 6895 6894 ] final  -15.75 input  -60.11 | X-H torsion
[ 7974 7965 7964 7962 ] final  -27.44 input  175.53 | X-H torsion
[ 8008 7997 7996 7995 ] final  -11.75 input   59.86 | X-H torsion
[ 10167 10162 10161 10158 ] final  143.08 input  -65.29 | X-H torsion
[ 10718 10713 10712 10709 ] final -128.40 input   66.30 | X-H torsion
[ 10763 10752 10751 10750 ] final   26.67 input  -60.55 | X-H torsion
[ 11005 11000 10999 10996 ] final -174.72 input  -57.11 | X-H torsion

> <Gold.Protein.ActiveResidues>
 VAL166  LYS551  ARG553  GLY616  TRP617  ASP618  TYR619  PRO620  LYS621  CYS622 
 ASP623  PHE694  ASN695  SER759  ASP760  ASP761  ALA762  ILE779  LEU786  VAL792 
 PHE793  MET794  SER795  GLU796  ALA797  LYS798  CYS799  TRP800  GLU811  SER814 

> <Gold.Protein.RotatedAtoms>
  151.3191  135.0814  159.9299 H   0  0  0  0  0  0  0  0  0  0  0  0  # atno 6907 bound_to 6896
  152.5260  133.9657  159.7748 H   0  0  0  0  0  0  0  0  0  0  0  0  # atno 6908 bound_to 6896
  150.9974  133.6037  159.2730 H   0  0  0  0  0  0  0  0  0  0  0  0  # atno 6909 bound_to 6896
  146.1357  140.5152  142.8674 H   0  0  0  0  0  0  0  0  0  0  0  0  # atno 7974 bound_to 7965
  154.5438  140.2294  155.8597 H   0  0  0  0  0  0  0  0  0  0  0  0  # atno 8008 bound_to 7997
  156.1883  140.3083  155.9244 H   0  0  0  0  0  0  0  0  0  0  0  0  # atno 8009 bound_to 7997
  155.3206  140.0440  157.3029 H   0  0  0  0  0  0  0  0  0  0  0  0  # atno 8010 bound_to 7997
  139.4978  144.6064  151.6368 H   0  0  0  0  0  0  0  0  0  0  0  0  # atno 10167 bound_to 10162
  156.1947  130.6818  151.0467 H   0  0  0  0  0  0  0  0  0  0  0  0  # atno 10718 bound_to 10713
  153.0606  135.6555  154.0471 H   0  0  0  0  0  0  0  0  0  0  0  0  # atno 10763 bound_to 10752
  154.0139  135.2926  155.3390 H   0  0  0  0  0  0  0  0  0  0  0  0  # atno 10764 bound_to 10752
  154.6943  135.5270  153.8504 H   0  0  0  0  0  0  0  0  0  0  0  0  # atno 10765 bound_to 10752
  140.4713  134.6162  157.4883 H   0  0  0  0  0  0  0  0  0  0  0  0  # atno 11005 bound_to 11000
  144.7738  140.5694  143.6652 LP  0  0  0  0  0  0  0  0  0  0  0  0  # atno 17320 bound_to 7965
  145.5160  139.1478  143.3578 LP  0  0  0  0  0  0  0  0  0  0  0  0  # atno 17321 bound_to 7965
  140.5727  144.0081  150.6225 LP  0  0  0  0  0  0  0  0  0  0  0  0  # atno 17342 bound_to 10162
  140.3204  143.3141  152.0790 LP  0  0  0  0  0  0  0  0  0  0  0  0  # atno 17343 bound_to 10162
  157.6950  131.0797  150.6995 LP  0  0  0  0  0  0  0  0  0  0  0  0  # atno 17370 bound_to 10713
  156.7051  130.4635  149.5562 LP  0  0  0  0  0  0  0  0  0  0  0  0  # atno 17371 bound_to 10713
  139.9883  134.7026  155.9734 LP  0  0  0  0  0  0  0  0  0  0  0  0  # atno 17394 bound_to 11000
  141.1575  133.6541  156.4210 LP  0  0  0  0  0  0  0  0  0  0  0  0  # atno 17395 bound_to 11000

$$$$
