AV-unprocessed.smi:2986|AV-procd|sdf|11382|dock8
  -GOLD-   2272016303D 1   1.00000     0.00000
 Structure written by MMmdl.
 43 45  0  0  0  0  0  0  0  0  2 V2000
  153.4555  138.0567  160.1842 C   0  0  0  0  0  0  0  0  0  0  0  0
  152.4011  138.0784  159.2382 O   0  0  0  0  0  0  0  0  0  0  0  0
  151.7426  139.3315  159.1879 C   0  0  0  0  0  0  0  0  0  0  0  0
  152.7097  140.3693  158.6069 C   0  0  0  0  0  0  0  0  0  0  0  0
  152.0269  141.6192  158.2492 N   0  0  0  0  0  0  0  0  0  0  0  0
  151.3021  141.9475  157.1445 C   0  0  0  0  0  0  0  0  0  0  0  0
  150.9618  140.9016  155.7673 S   0  0  0  0  0  0  0  0  0  0  0  0
  149.1488  140.8515  155.6781 C   0  0  0  0  0  0  0  0  0  0  0  0
  148.5435  139.7760  156.5799 C   0  0  0  0  0  0  0  0  0  0  0  0
  147.3231  139.7310  156.7275 O   0  0  0  0  0  0  0  0  0  0  0  0
  149.4222  138.9460  157.1701 N   0  0  0  0  0  0  0  0  0  0  0  0
  149.1681  137.9075  158.1010 C   0  0  0  0  0  0  0  0  0  0  0  0
  147.8960  137.5366  158.6256 C   0  0  0  0  0  0  0  0  0  0  0  0
  148.2007  136.4982  159.4597 C   0  0  0  0  0  0  0  0  0  0  0  0
  147.3711  135.6235  160.3355 C   0  0  0  0  0  0  0  0  0  0  0  0
  149.5393  136.2573  159.4474 O   0  0  0  0  0  0  0  0  0  0  0  0
  150.1507  137.1632  158.5730 N   0  0  0  0  0  0  0  0  0  0  0  0
  150.8519  143.2217  157.3051 N   0  3  0  0  0  0  0  0  0  0  0  0
  151.3068  143.7235  158.5258 C   0  0  0  0  0  0  0  0  0  0  0  0
  151.1167  144.9630  159.1291 C   0  0  0  0  0  0  0  0  0  0  0  0
  151.7245  145.1539  160.3875 C   0  0  0  0  0  0  0  0  0  0  0  0
  152.4848  144.1354  160.9986 C   0  0  0  0  0  0  0  0  0  0  0  0
  152.6689  142.8817  160.3790 C   0  0  0  0  0  0  0  0  0  0  0  0
  152.0647  142.7009  159.1354 C   0  0  0  0  0  0  0  0  0  0  0  0
  153.9216  137.0716  160.1909 H   0  0  0  0  0  0  0  0  0  0  0  0
  153.0877  138.2614  161.1905 H   0  0  0  0  0  0  0  0  0  0  0  0
  154.2231  138.7909  159.9357 H   0  0  0  0  0  0  0  0  0  0  0  0
  150.8477  139.2570  158.5680 H   0  0  0  0  0  0  0  0  0  0  0  0
  151.4284  139.6309  160.1891 H   0  0  0  0  0  0  0  0  0  0  0  0
  153.4874  140.6063  159.3331 H   0  0  0  0  0  0  0  0  0  0  0  0
  153.2205  139.9822  157.7247 H   0  0  0  0  0  0  0  0  0  0  0  0
  148.7580  141.8296  155.9617 H   0  0  0  0  0  0  0  0  0  0  0  0
  148.8464  140.6742  154.6458 H   0  0  0  0  0  0  0  0  0  0  0  0
  150.3968  139.1082  156.9613 H   0  0  0  0  0  0  0  0  0  0  0  0
  146.9164  137.9468  158.4324 H   0  0  0  0  0  0  0  0  0  0  0  0
  146.3140  135.8750  160.2487 H   0  0  0  0  0  0  0  0  0  0  0  0
  147.6616  135.7362  161.3801 H   0  0  0  0  0  0  0  0  0  0  0  0
  147.4925  134.5756  160.0609 H   0  0  0  0  0  0  0  0  0  0  0  0
  150.5348  145.7449  158.6634 H   0  0  0  0  0  0  0  0  0  0  0  0
  151.6055  146.1007  160.8942 H   0  0  0  0  0  0  0  0  0  0  0  0
  152.9363  144.3191  161.9629 H   0  0  0  0  0  0  0  0  0  0  0  0
  153.2536  142.1081  160.8547 H   0  0  0  0  0  0  0  0  0  0  0  0
  150.2766  143.7083  156.6298 H   0  0  0  0  0  0  0  0  0  0  0  0
  1  2  1  0  0  0  0
  1 25  1  0  0  0  0
  1 26  1  0  0  0  0
  1 27  1  0  0  0  0
  2  3  1  0  0  0  0
  3  4  1  0  0  0  0
  3 28  1  0  0  0  0
  3 29  1  0  0  0  0
  4  5  1  0  0  0  0
  4 30  1  0  0  0  0
  4 31  1  0  0  0  0
  5 24  1  0  0  0  0
  5  6  1  0  0  0  0
  6  7  1  0  0  0  0
  6 18  2  0  0  0  0
  7  8  1  0  0  0  0
  8  9  1  0  0  0  0
  8 32  1  0  0  0  0
  8 33  1  0  0  0  0
  9 10  2  0  0  0  0
  9 11  1  0  0  0  0
 11 12  1  0  0  0  0
 11 34  1  0  0  0  0
 12 17  2  0  0  0  0
 12 13  1  0  0  0  0
 13 14  2  0  0  0  0
 13 35  1  0  0  0  0
 14 15  1  0  0  0  0
 14 16  1  0  0  0  0
 15 36  1  0  0  0  0
 15 37  1  0  0  0  0
 15 38  1  0  0  0  0
 16 17  1  0  0  0  0
 18 19  1  0  0  0  0
 18 43  1  0  0  0  0
 19 24  2  0  0  0  0
 19 20  1  0  0  0  0
 20 21  2  0  0  0  0
 20 39  1  0  0  0  0
 21 22  1  0  0  0  0
 21 40  1  0  0  0  0
 22 23  2  0  0  0  0
 22 41  1  0  0  0  0
 23 24  1  0  0  0  0
 23 42  1  0  0  0  0
M  CHG  1  18   1
M  END
> <s_m_source_file>
AV-unprocessed.smi

> <i_m_source_file_index>
2986

> <i_lp_mmshare_version>
43012

> <i_f3d_flags>
0

> <s_epik_input>
W2NIXTFbY0hdW2NIXVtjSF1jKGMxMiluKFtDSDJdW0NIMl1PW0NIM10pYyhuMilTW0NIMl1DKD1PKVtOSF1jM1tjSF1jKFtDSDNdKW9uMw==

> <s_epik_cmdline>
J2VwaWtfcHl0aG9uJywgJy1waCcsICc3LjAnLCAnLXRuJywgJzgnLCAnLW1hJywgJzIwMCcsICctbWV0YWxfYmluZGluZycsICctaW1hZScsICc8aW5maWxlLm1hZT4nLCAnLW9tYWUnLCAnPG91dGZpbGUubWFlPic=

> <r_epik_Ionization_Penalty>
1.88527

> <r_epik_Ionization_Penalty_Charging>
1.88465

> <r_epik_Ionization_Penalty_Neutral>
0.000624705

> <r_epik_State_Penalty>
2.00469

> <r_epik_Charging_Adjusted_Penalty>
3.88934

> <i_epik_Tot_Q>
1

> <i_epik_Tot_abs_Q>
1

> <r_epik_Metal_State_Penalty>
2.24687

> <b_epik_Metal_Only>
0

> <s_lp_Force_Field>
OPLS_2005

> <r_lp_Energy>
12.3116

> <b_lp_Chiralities_Consistent>
1

> <s_lp_Variant>
AV-unprocessed.smi:2986-2

> <Gold.Version>
5.8.1

> <Gold.Id.Protein>
6NUR|6NUR_protein|mol2

> <Gold.PLP.Fitness>
49.3010

> <Gold.PLP.PLP>
-41.3469

> <Gold.PLP.part.hbond>
-2.0000

> <Gold.PLP.part.metal>
0.0000

> <Gold.PLP.part.buried>
-7.1711

> <Gold.PLP.part.nonpolar>
-31.4149

> <Gold.PLP.part.repulsive>
0.0407

> <Gold.PLP.ligand.clash>
0.0000

> <Gold.PLP.ligand.torsion>
0.5750

> <Gold.PLP.Chemscore.Hbond>
3.0000

> <Gold.PLP.Chemscore.CHOScore>
0.0000

> <Gold.PLP.Chemscore.Metal>
0.0000

> <Gold.Chemscore.Hbonds>
donor molecule, donor type, donor heavy atom, donor atom, acceptor molecule, acceptor atom, score
      L1  H    18    43       P1  8028  2.00
      P1  H  6896  6907       L1    16  1.00

> <Gold.PLP.Chemscore.Internal.Correction>
0.1042

> <Gold.Rescore>
     Score         DG    S(hbond)    S(metal)    S(lipo)     H(rot)  DE(clash)    DE(int)     intcor
     16.72     -18.68       1.95        0.00     108.33       2.35       0.12       1.83       ----

> <Gold.Chemscore.Fitness>
16.7250

> <Gold.Chemscore.DG>
-18.6762

> <Gold.Chemscore.ZeroCoef>
-5.4800

> <Gold.Chemscore.Hbond>
1.9537

> <Gold.Chemscore.Metal>
0.0000

> <Gold.Chemscore.Lipo>
108.3325

> <Gold.Chemscore.Internal_Hbond>
0.0000

> <Gold.Chemscore.DEClash>
0.1198

> <Gold.Chemscore.DEInternal>
1.8314

> <Gold.Chemscore.Rot>
2.3453

> <Gold.Chemscore.Internal.Correction>
   9.000000E+99

> <Gold.Chemscore.Hbonds>
donor molecule, donor type, donor heavy atom, donor atom, acceptor molecule, acceptor atom, score
      L1  H    18    43       P1  8028  0.99
      P1  H  6896  6907       L1    16  0.55

> <Gold.Chemscore.Hbond.Weighted>
-6.5253

> <Gold.Chemscore.Metal.Weighted>
-0.0000

> <Gold.Chemscore.Lipo.Weighted>
-12.6749

> <Gold.Chemscore.Internal_Hbond.Weighted>
0.0000

> <Gold.Chemscore.DEClash.Weighted>
0.1198

> <Gold.Chemscore.DEInternal.Weighted>
1.8314

> <Gold.Chemscore.Rot.Weighted>
6.0040

> <Gold.Chemscore.Internal.Correction.Weighted>
   9.000000E+99

> <Gold.Protein.RotatedTorsions>
[ 6907 6896 6895 6894 ] final  -54.02 input  -60.11 | X-H torsion
[ 7974 7965 7964 7962 ] final -147.87 input  175.53 | X-H torsion
[ 8008 7997 7996 7995 ] final -160.67 input   59.86 | X-H torsion
[ 10167 10162 10161 10158 ] final  138.33 input  -65.29 | X-H torsion
[ 10718 10713 10712 10709 ] final -168.89 input   66.30 | X-H torsion
[ 10763 10752 10751 10750 ] final   55.39 input  -60.55 | X-H torsion
[ 11005 11000 10999 10996 ] final  -63.88 input  -57.11 | X-H torsion

> <Gold.Protein.ActiveResidues>
 VAL166  LYS551  ARG553  GLY616  TRP617  ASP618  TYR619  PRO620  LYS621  CYS622 
 ASP623  PHE694  ASN695  SER759  ASP760  ASP761  ALA762  ILE779  LEU786  VAL792 
 PHE793  MET794  SER795  GLU796  ALA797  LYS798  CYS799  TRP800  GLU811  SER814 

> <Gold.Protein.RotatedAtoms>
  150.8375  134.7653  159.6904 H   0  0  0  0  0  0  0  0  0  0  0  0  # atno 6907 bound_to 6896
  152.4469  134.5473  159.9866 H   0  0  0  0  0  0  0  0  0  0  0  0  # atno 6908 bound_to 6896
  151.5620  133.3364  159.3009 H   0  0  0  0  0  0  0  0  0  0  0  0  # atno 6909 bound_to 6896
  144.8066  140.5271  143.5671 H   0  0  0  0  0  0  0  0  0  0  0  0  # atno 7974 bound_to 7965
  155.7809  140.0865  157.2059 H   0  0  0  0  0  0  0  0  0  0  0  0  # atno 8008 bound_to 7997
  154.3990  140.1508  156.3109 H   0  0  0  0  0  0  0  0  0  0  0  0  # atno 8009 bound_to 7997
  155.8654  140.3428  155.5787 H   0  0  0  0  0  0  0  0  0  0  0  0  # atno 8010 bound_to 7997
  139.5114  144.6359  151.5697 H   0  0  0  0  0  0  0  0  0  0  0  0  # atno 10167 bound_to 10162
  156.7035  130.9206  151.3082 H   0  0  0  0  0  0  0  0  0  0  0  0  # atno 10718 bound_to 10713
  152.9816  135.5712  154.5059 H   0  0  0  0  0  0  0  0  0  0  0  0  # atno 10763 bound_to 10752
  154.4571  135.2780  155.1742 H   0  0  0  0  0  0  0  0  0  0  0  0  # atno 10764 bound_to 10752
  154.3345  135.6242  153.5620 H   0  0  0  0  0  0  0  0  0  0  0  0  # atno 10765 bound_to 10752
  141.1407  133.6658  156.5747 H   0  0  0  0  0  0  0  0  0  0  0  0  # atno 11005 bound_to 11000
  145.5424  139.1475  143.3439 LP  0  0  0  0  0  0  0  0  0  0  0  0  # atno 17320 bound_to 7965
  146.2358  140.5564  142.8955 LP  0  0  0  0  0  0  0  0  0  0  0  0  # atno 17321 bound_to 7965
  140.6108  143.9439  150.6452 LP  0  0  0  0  0  0  0  0  0  0  0  0  # atno 17342 bound_to 10162
  140.2681  143.3475  152.1262 LP  0  0  0  0  0  0  0  0  0  0  0  0  # atno 17343 bound_to 10162
  157.6964  130.9286  150.0656 LP  0  0  0  0  0  0  0  0  0  0  0  0  # atno 17370 bound_to 10713
  156.1711  130.3646  149.9163 LP  0  0  0  0  0  0  0  0  0  0  0  0  # atno 17371 bound_to 10713
  140.3885  134.7461  157.4706 LP  0  0  0  0  0  0  0  0  0  0  0  0  # atno 17394 bound_to 11000
  140.0584  134.6030  155.8778 LP  0  0  0  0  0  0  0  0  0  0  0  0  # atno 17395 bound_to 11000

$$$$
