AV-unprocessed.smi:1933|AV-procd|sdf|7816|dock3
  -GOLD-   22720 9563D 1   1.00000     0.00000
 Structure written by MMmdl.
 47 49  0  0  0  0  0  0  0  0  1 V2000
  144.6380  136.8306  152.1573 O   0  0  0  0  0  0  0  0  0  0  0  0
  145.8492  136.6101  152.1358 C   0  0  0  0  0  0  0  0  0  0  0  0
  146.7754  137.5255  152.4543 N   0  0  0  0  0  0  0  0  0  0  0  0
  146.5045  138.9050  152.8498 C   0  0  0  0  0  0  0  0  0  0  0  0
  147.2631  139.2866  154.1491 C   0  0  1  0  0  0  0  0  0  0  0  0
  148.8012  139.4272  153.9196 C   0  0  2  0  0  0  0  0  0  0  0  0
  149.6747  138.2413  154.3413 C   0  0  0  0  0  0  0  0  0  0  0  0
  150.7747  138.8776  155.1895 C   0  0  0  0  0  0  0  0  0  0  0  0
  150.8410  140.2145  154.7227 O   0  0  0  0  0  0  0  0  0  0  0  0
  149.5057  140.6515  154.5288 C   0  0  0  0  0  0  0  0  0  0  0  0
  146.6407  140.3710  154.9366 N   0  0  0  0  0  0  0  0  0  0  0  0
  145.3052  140.0372  155.4278 C   0  0  0  0  0  0  0  0  0  0  0  0
  144.7528  141.1251  156.3627 C   0  0  0  0  0  0  0  0  0  0  0  0
  144.7395  142.3722  155.6768 O   0  0  0  0  0  0  0  0  0  0  0  0
  146.0327  142.7636  155.2284 C   0  0  0  0  0  0  0  0  0  0  0  0
  146.6186  141.6858  154.2987 C   0  0  0  0  0  0  0  0  0  0  0  0
  146.4208  135.4422  151.7925 N   0  0  0  0  0  0  0  0  0  0  0  0
  145.7858  134.2439  151.3705 C   0  0  0  0  0  0  0  0  0  0  0  0
  146.6530  133.1461  151.1691 C   0  0  0  0  0  0  0  0  0  0  0  0
  146.1218  131.9113  150.7484 C   0  0  0  0  0  0  0  0  0  0  0  0
  144.7352  131.8060  150.5391 C   0  0  0  0  0  0  0  0  0  0  0  0
  143.9425  132.9469  150.7623 C   0  0  0  0  0  0  0  0  0  0  0  0
  144.4494  134.1310  151.1657 N   0  0  0  0  0  0  0  0  0  0  0  0
  147.7461  137.2519  152.4095 H   0  0  0  0  0  0  0  0  0  0  0  0
  146.7595  139.5996  152.0485 H   0  0  0  0  0  0  0  0  0  0  0  0
  145.4269  138.9807  152.9872 H   0  0  0  0  0  0  0  0  0  0  0  0
  147.1885  138.4038  154.7860 H   0  0  0  0  0  0  0  0  0  0  0  0
  148.9441  139.5232  152.8419 H   0  0  0  0  0  0  0  0  0  0  0  0
  149.1525  137.4605  154.8932 H   0  0  0  0  0  0  0  0  0  0  0  0
  150.1079  137.7718  153.4572 H   0  0  0  0  0  0  0  0  0  0  0  0
  150.4985  138.8772  156.2447 H   0  0  0  0  0  0  0  0  0  0  0  0
  151.7326  138.3675  155.0876 H   0  0  0  0  0  0  0  0  0  0  0  0
  149.4782  141.5179  153.8680 H   0  0  0  0  0  0  0  0  0  0  0  0
  149.0831  140.9577  155.4834 H   0  0  0  0  0  0  0  0  0  0  0  0
  144.6130  139.9176  154.5947 H   0  0  0  0  0  0  0  0  0  0  0  0
  145.3297  139.0847  155.9580 H   0  0  0  0  0  0  0  0  0  0  0  0
  143.7378  140.8786  156.6740 H   0  0  0  0  0  0  0  0  0  0  0  0
  145.3572  141.2027  157.2679 H   0  0  0  0  0  0  0  0  0  0  0  0
  145.9554  143.7153  154.7028 H   0  0  0  0  0  0  0  0  0  0  0  0
  146.6864  142.9252  156.0871 H   0  0  0  0  0  0  0  0  0  0  0  0
  147.6256  141.9956  154.0334 H   0  0  0  0  0  0  0  0  0  0  0  0
  146.0361  141.6489  153.3778 H   0  0  0  0  0  0  0  0  0  0  0  0
  147.4287  135.4088  151.8283 H   0  0  0  0  0  0  0  0  0  0  0  0
  147.7161  133.2444  151.3342 H   0  0  0  0  0  0  0  0  0  0  0  0
  146.7678  131.0606  150.5893 H   0  0  0  0  0  0  0  0  0  0  0  0
  144.2908  130.8761  150.2166 H   0  0  0  0  0  0  0  0  0  0  0  0
  142.8735  132.9085  150.6137 H   0  0  0  0  0  0  0  0  0  0  0  0
  1  2  2  0  0  0  0
  2  3  1  0  0  0  0
  2 17  1  0  0  0  0
  3  4  1  0  0  0  0
  3 24  1  0  0  0  0
  4  5  1  0  0  0  0
  4 25  1  0  0  0  0
  4 26  1  0  0  0  0
  5  6  1  0  0  0  0
  5 11  1  0  0  0  0
  5 27  1  0  0  0  0
  6 10  1  0  0  0  0
  6  7  1  0  0  0  0
  6 28  1  0  0  0  0
  7  8  1  0  0  0  0
  7 29  1  0  0  0  0
  7 30  1  0  0  0  0
  8  9  1  0  0  0  0
  8 31  1  0  0  0  0
  8 32  1  0  0  0  0
  9 10  1  0  0  0  0
 10 33  1  0  0  0  0
 10 34  1  0  0  0  0
 11 16  1  0  0  0  0
 11 12  1  0  0  0  0
 12 13  1  0  0  0  0
 12 35  1  0  0  0  0
 12 36  1  0  0  0  0
 13 14  1  0  0  0  0
 13 37  1  0  0  0  0
 13 38  1  0  0  0  0
 14 15  1  0  0  0  0
 15 16  1  0  0  0  0
 15 39  1  0  0  0  0
 15 40  1  0  0  0  0
 16 41  1  0  0  0  0
 16 42  1  0  0  0  0
 17 18  1  0  0  0  0
 17 43  1  0  0  0  0
 18 23  1  0  0  0  0
 18 19  2  0  0  0  0
 19 20  1  0  0  0  0
 19 44  1  0  0  0  0
 20 21  2  0  0  0  0
 20 45  1  0  0  0  0
 21 22  1  0  0  0  0
 21 46  1  0  0  0  0
 22 23  2  0  0  0  0
 22 47  1  0  0  0  0
M  END
> <s_m_source_file>
AV-unprocessed.smi

> <i_m_source_file_index>
1933

> <i_lp_mmshare_version>
43012

> <i_f3d_flags>
0

> <s_epik_input>
bjFbY0hdW2NIXVtjSF1bY0hdYzFbTkhdQyg9TylbTkhdW0NIMl1bQ0BIXShbQ0BASF0yW0NIMl1bQ0gyXU9bQ0gyXTIpTjNbQ0gyXVtDSDJdT1tDSDJdW0NIMl0z

> <s_epik_cmdline>
J2VwaWtfcHl0aG9uJywgJy1waCcsICc3LjAnLCAnLXRuJywgJzgnLCAnLW1hJywgJzIwMCcsICctbWV0YWxfYmluZGluZycsICctaW1hZScsICc8aW5maWxlLm1hZT4nLCAnLW9tYWUnLCAnPG91dGZpbGUubWFlPic=

> <r_epik_Ionization_Penalty>
0.125062

> <r_epik_Ionization_Penalty_Charging>
0

> <r_epik_Ionization_Penalty_Neutral>
0.125062

> <r_epik_State_Penalty>
0.114484

> <r_epik_Charging_Adjusted_Penalty>
0.114484

> <i_epik_Tot_Q>
0

> <i_epik_Tot_abs_Q>
0

> <r_epik_Metal_State_Penalty>
0.114484

> <b_epik_Metal_Only>
0

> <s_lp_Force_Field>
OPLS_2005

> <r_lp_Energy>
56.3046

> <b_lp_Chiralities_Consistent>
1

> <s_lp_Variant>
AV-unprocessed.smi:1933-2

> <Gold.Version>
5.8.1

> <Gold.Id.Protein>
6NUR|6NUR_protein|mol2

> <Gold.PLP.Fitness>
44.2557

> <Gold.PLP.PLP>
-35.2322

> <Gold.PLP.part.hbond>
-3.0000

> <Gold.PLP.part.metal>
0.0000

> <Gold.PLP.part.buried>
-3.3206

> <Gold.PLP.part.nonpolar>
-30.9891

> <Gold.PLP.part.repulsive>
1.6117

> <Gold.PLP.ligand.clash>
0.0000

> <Gold.PLP.ligand.torsion>
1.6598

> <Gold.PLP.Chemscore.Hbond>
2.9920

> <Gold.PLP.Chemscore.CHOScore>
0.9952

> <Gold.PLP.Chemscore.Metal>
0.0000

> <Gold.Chemscore.Hbonds>
donor molecule, donor type, donor heavy atom, donor atom, acceptor molecule, acceptor atom, score
      L1  H     3    24       P1  7948  1.00
      L1  H    17    43       P1  7948  1.00
      P1  H  7989  7998       L1     9  1.00
      L1  C    22    47       P1 10186  0.77

> <Gold.PLP.Chemscore.Internal.Correction>
0.3815

> <Gold.Rescore>
     Score         DG    S(hbond)    S(metal)    S(lipo)     H(rot)  DE(clash)    DE(int)     intcor
     16.49     -19.83       2.77        0.00      81.16       1.72       0.59       2.75       ----

> <Gold.Chemscore.Fitness>
16.4881

> <Gold.Chemscore.DG>
-19.8272

> <Gold.Chemscore.ZeroCoef>
-5.4800

> <Gold.Chemscore.Hbond>
2.7679

> <Gold.Chemscore.Metal>
0.0000

> <Gold.Chemscore.Lipo>
81.1603

> <Gold.Chemscore.Internal_Hbond>
0.0000

> <Gold.Chemscore.DEClash>
0.5860

> <Gold.Chemscore.DEInternal>
2.7532

> <Gold.Chemscore.Rot>
1.7161

> <Gold.Chemscore.Internal.Correction>
   9.000000E+99

> <Gold.Chemscore.Hbonds>
donor molecule, donor type, donor heavy atom, donor atom, acceptor molecule, acceptor atom, score
      L1  H     3    24       P1  7948  0.95
      L1  H    17    43       P1  7948  0.94
      P1  H  7989  7998       L1     9  0.39

> <Gold.Chemscore.Hbond.Weighted>
-9.2447

> <Gold.Chemscore.Metal.Weighted>
-0.0000

> <Gold.Chemscore.Lipo.Weighted>
-9.4958

> <Gold.Chemscore.Internal_Hbond.Weighted>
0.0000

> <Gold.Chemscore.DEClash.Weighted>
0.5860

> <Gold.Chemscore.DEInternal.Weighted>
2.7532

> <Gold.Chemscore.Rot.Weighted>
4.3932

> <Gold.Chemscore.Internal.Correction.Weighted>
   9.000000E+99

> <Gold.Protein.RotatedTorsions>
[ 6907 6896 6895 6894 ] final -160.55 input  -60.11 | X-H torsion
[ 7974 7965 7964 7962 ] final   44.70 input  175.53 | X-H torsion
[ 8008 7997 7996 7995 ] final  -86.14 input   59.86 | X-H torsion
[ 10167 10162 10161 10158 ] final  109.88 input  -65.29 | X-H torsion
[ 10718 10713 10712 10709 ] final   71.08 input   66.30 | X-H torsion
[ 10763 10752 10751 10750 ] final  -44.10 input  -60.55 | X-H torsion
[ 11005 11000 10999 10996 ] final  -25.85 input  -57.11 | X-H torsion

> <Gold.Protein.ActiveResidues>
 VAL166  LYS551  ARG553  GLY616  TRP617  ASP618  TYR619  PRO620  LYS621  CYS622 
 ASP623  PHE694  ASN695  SER759  ASP760  ASP761  ALA762  ILE779  LEU786  VAL792 
 PHE793  MET794  SER795  GLU796  ALA797  LYS798  CYS799  TRP800  GLU811  SER814 

> <Gold.Protein.RotatedAtoms>
  151.3509  133.3926  159.2679 H   0  0  0  0  0  0  0  0  0  0  0  0  # atno 6907 bound_to 6896
  150.9802  134.9159  159.7850 H   0  0  0  0  0  0  0  0  0  0  0  0  # atno 6908 bound_to 6896
  152.5214  134.3472  159.9290 H   0  0  0  0  0  0  0  0  0  0  0  0  # atno 6909 bound_to 6896
  146.0545  139.5045  142.9697 H   0  0  0  0  0  0  0  0  0  0  0  0  # atno 7974 bound_to 7965
  154.6486  140.0582  156.9929 H   0  0  0  0  0  0  0  0  0  0  0  0  # atno 8008 bound_to 7997
  155.1406  140.3265  155.4434 H   0  0  0  0  0  0  0  0  0  0  0  0  # atno 8009 bound_to 7997
  156.2565  140.1964  156.6522 H   0  0  0  0  0  0  0  0  0  0  0  0  # atno 8010 bound_to 7997
  139.6732  144.7124  151.1650 H   0  0  0  0  0  0  0  0  0  0  0  0  # atno 10167 bound_to 10162
  157.6433  130.9510  150.0740 H   0  0  0  0  0  0  0  0  0  0  0  0  # atno 10718 bound_to 10713
  154.0065  135.6687  153.4762 H   0  0  0  0  0  0  0  0  0  0  0  0  # atno 10763 bound_to 10752
  153.0639  135.5012  154.8152 H   0  0  0  0  0  0  0  0  0  0  0  0  # atno 10764 bound_to 10752
  154.7021  135.3081  154.9289 H   0  0  0  0  0  0  0  0  0  0  0  0  # atno 10765 bound_to 10752
  140.8975  133.7546  156.0501 H   0  0  0  0  0  0  0  0  0  0  0  0  # atno 11005 bound_to 11000
  145.6667  141.0227  143.1679 LP  0  0  0  0  0  0  0  0  0  0  0  0  # atno 17320 bound_to 7965
  144.7140  139.8264  143.7405 LP  0  0  0  0  0  0  0  0  0  0  0  0  # atno 17321 bound_to 7965
  140.7626  143.5812  150.8893 LP  0  0  0  0  0  0  0  0  0  0  0  0  # atno 17342 bound_to 10162
  139.9479  143.6306  152.3037 LP  0  0  0  0  0  0  0  0  0  0  0  0  # atno 17343 bound_to 10162
  156.1736  130.3647  149.9131 LP  0  0  0  0  0  0  0  0  0  0  0  0  # atno 17370 bound_to 10713
  156.7101  130.8966  151.3608 LP  0  0  0  0  0  0  0  0  0  0  0  0  # atno 17371 bound_to 10713
  140.8271  134.3222  157.5362 LP  0  0  0  0  0  0  0  0  0  0  0  0  # atno 17394 bound_to 11000
  139.8737  134.9342  156.3600 LP  0  0  0  0  0  0  0  0  0  0  0  0  # atno 17395 bound_to 11000

$$$$
