AV-unprocessed.smi:1278|AV-procd|sdf|5352|dock4
  -GOLD-   22720 4483D 1   1.00000     0.00000
 Structure written by MMmdl.
 38 39  0  0  0  0  0  0  0  0  3 V2000
  146.8380  133.5880  151.1697 C   0  0  0  0  0  0  0  0  0  0  0  0
  146.4184  133.0265  152.5396 C   0  0  1  0  0  0  0  0  0  0  0  0
  147.3282  131.8801  153.0191 C   0  0  0  0  0  0  0  0  0  0  0  0
  148.6893  132.4095  153.4927 C   0  0  0  0  0  0  0  0  0  0  0  0
  148.5164  133.5178  154.5434 C   0  0  0  0  0  0  0  0  0  0  0  0
  147.6653  134.6199  154.0256 N   0  3  2  0  0  0  0  0  0  0  0  0
  147.6073  135.7710  154.9603 C   0  0  0  0  0  0  0  0  0  0  0  0
  148.9259  135.9628  155.7337 C   0  0  0  0  0  0  0  0  0  0  0  0
  148.6962  136.6076  157.0211 N   0  0  0  0  0  0  0  0  0  0  0  0
  148.8354  136.0270  158.2216 C   0  0  0  0  0  0  0  0  0  0  0  0
  149.1928  134.8488  158.2960 O   0  0  0  0  0  0  0  0  0  0  0  0
  148.5460  136.8452  159.2578 N   0  5  0  0  0  0  0  0  0  0  0  0
  147.9835  136.3457  160.3704 C   0  0  0  0  0  0  0  0  0  0  0  0
  147.4456  137.1147  161.3239 N   0  0  0  0  0  0  0  0  0  0  0  0
  146.9144  136.3869  162.3903 C   0  0  0  0  0  0  0  0  0  0  0  0
  147.0429  135.0315  162.2409 C   0  0  0  0  0  0  0  0  0  0  0  0
  147.8379  134.6263  160.7465 S   0  0  0  0  0  0  0  0  0  0  0  0
  146.3218  134.1276  153.6159 C   0  0  0  0  0  0  0  0  0  0  0  0
  147.8227  134.0540  151.2042 H   0  0  0  0  0  0  0  0  0  0  0  0
  146.1302  134.3418  150.8234 H   0  0  0  0  0  0  0  0  0  0  0  0
  146.8698  132.8002  150.4167 H   0  0  0  0  0  0  0  0  0  0  0  0
  145.4182  132.6120  152.4065 H   0  0  0  0  0  0  0  0  0  0  0  0
  146.8432  131.3588  153.8456 H   0  0  0  0  0  0  0  0  0  0  0  0
  147.4628  131.1404  152.2290 H   0  0  0  0  0  0  0  0  0  0  0  0
  149.2791  131.5928  153.9101 H   0  0  0  0  0  0  0  0  0  0  0  0
  149.2567  132.7923  152.6440 H   0  0  0  0  0  0  0  0  0  0  0  0
  148.0737  133.1110  155.4540 H   0  0  0  0  0  0  0  0  0  0  0  0
  149.4996  133.9046  154.8143 H   0  0  0  0  0  0  0  0  0  0  0  0
  147.3385  136.6788  154.4178 H   0  0  0  0  0  0  0  0  0  0  0  0
  146.8086  135.5989  155.6830 H   0  0  0  0  0  0  0  0  0  0  0  0
  149.4287  135.0055  155.8803 H   0  0  0  0  0  0  0  0  0  0  0  0
  149.6173  136.5941  155.1771 H   0  0  0  0  0  0  0  0  0  0  0  0
  148.4087  137.5756  157.0062 H   0  0  0  0  0  0  0  0  0  0  0  0
  146.4621  136.9164  163.2156 H   0  0  0  0  0  0  0  0  0  0  0  0
  146.7189  134.2514  162.9129 H   0  0  0  0  0  0  0  0  0  0  0  0
  145.7107  134.9459  153.2366 H   0  0  0  0  0  0  0  0  0  0  0  0
  145.8042  133.7384  154.4943 H   0  0  0  0  0  0  0  0  0  0  0  0
  148.1234  134.9585  153.1915 H   0  0  0  0  0  0  0  0  0  0  0  0
  1  2  1  0  0  0  0
  1 19  1  0  0  0  0
  1 20  1  0  0  0  0
  1 21  1  0  0  0  0
  2 18  1  0  0  0  0
  2  3  1  0  0  0  0
  2 22  1  0  0  0  0
  3  4  1  0  0  0  0
  3 23  1  0  0  0  0
  3 24  1  0  0  0  0
  4  5  1  0  0  0  0
  4 25  1  0  0  0  0
  4 26  1  0  0  0  0
  5  6  1  0  0  0  0
  5 27  1  0  0  0  0
  5 28  1  0  0  0  0
  6  7  1  0  0  0  0
  6 18  1  0  0  0  0
  6 38  1  0  0  0  0
  7  8  1  0  0  0  0
  7 29  1  0  0  0  0
  7 30  1  0  0  0  0
  8  9  1  0  0  0  0
  8 31  1  0  0  0  0
  8 32  1  0  0  0  0
  9 10  1  0  0  0  0
  9 33  1  0  0  0  0
 10 11  2  0  0  0  0
 10 12  1  0  0  0  0
 12 13  1  0  0  0  0
 13 17  1  0  0  0  0
 13 14  2  0  0  0  0
 14 15  1  0  0  0  0
 15 16  2  0  0  0  0
 15 34  1  0  0  0  0
 16 17  1  0  0  0  0
 16 35  1  0  0  0  0
 18 36  1  0  0  0  0
 18 37  1  0  0  0  0
M  CHG  1   6   1
M  CHG  1  12  -1
M  END
> <s_m_source_file>
AV-unprocessed.smi

> <i_m_source_file_index>
1278

> <i_lp_mmshare_version>
43012

> <i_f3d_flags>
0

> <s_epik_input>
W0NIM11bQ0BASF0xW0NIMl1bQ0gyXVtDSDJdTihbQ0gyXTEpW0NIMl1bQ0gyXVtOSF1DKD1PKVtOSF1jMm5bY0hdW2NIXXMy

> <s_epik_cmdline>
J2VwaWtfcHl0aG9uJywgJy1waCcsICc3LjAnLCAnLXRuJywgJzgnLCAnLW1hJywgJzIwMCcsICctbWV0YWxfYmluZGluZycsICctaW1hZScsICc8aW5maWxlLm1hZT4nLCAnLW9tYWUnLCAnPG91dGZpbGUubWFlPic=

> <r_lp_tautomer_probability>
0.999

> <r_epik_Ionization_Penalty>
6.22019

> <r_epik_Ionization_Penalty_Charging>
5.38911

> <r_epik_Ionization_Penalty_Neutral>
0.831074

> <r_epik_State_Penalty>
5.38904

> <r_epik_Charging_Adjusted_Penalty>
10.7782

> <i_epik_Tot_Q>
0

> <i_epik_Tot_abs_Q>
2

> <r_epik_Metal_State_Penalty>
1.41502

> <b_epik_Metal_Only>
1

> <s_lp_Force_Field>
OPLS_2005

> <r_lp_Energy>
8.87374

> <b_lp_Chiralities_Consistent>
1

> <s_lp_Variant>
AV-unprocessed.smi:1278-6

> <Gold.Version>
5.8.1

> <Gold.Id.Protein>
6NUR|6NUR_protein|mol2

> <Gold.PLP.Fitness>
42.5280

> <Gold.PLP.PLP>
-29.2351

> <Gold.PLP.part.hbond>
-4.0000

> <Gold.PLP.part.metal>
0.0000

> <Gold.PLP.part.buried>
-4.4983

> <Gold.PLP.part.nonpolar>
-21.1314

> <Gold.PLP.part.repulsive>
0.0137

> <Gold.PLP.ligand.clash>
0.0000

> <Gold.PLP.ligand.torsion>
0.7055

> <Gold.PLP.Chemscore.Hbond>
4.8720

> <Gold.PLP.Chemscore.CHOScore>
0.0000

> <Gold.PLP.Chemscore.Metal>
0.0000

> <Gold.Chemscore.Hbonds>
donor molecule, donor type, donor heavy atom, donor atom, acceptor molecule, acceptor atom, score
      L1  H     6    38       P1  7948  2.00
      P1  H  6896  6907       L1    11  1.00
      P1  H  6931  6943       L1    14  0.94
      P1  H  6934  6947       L1    14  0.94

> <Gold.PLP.Chemscore.Internal.Correction>
0.0878

> <Gold.Rescore>
     Score         DG    S(hbond)    S(metal)    S(lipo)     H(rot)  DE(clash)    DE(int)     intcor
     17.32     -19.45       3.32        0.00      58.89       1.57       0.03       2.11       ----

> <Gold.Chemscore.Fitness>
17.3204

> <Gold.Chemscore.DG>
-19.4538

> <Gold.Chemscore.ZeroCoef>
-5.4800

> <Gold.Chemscore.Hbond>
3.3222

> <Gold.Chemscore.Metal>
0.0000

> <Gold.Chemscore.Lipo>
58.8947

> <Gold.Chemscore.Internal_Hbond>
0.0000

> <Gold.Chemscore.DEClash>
0.0270

> <Gold.Chemscore.DEInternal>
2.1063

> <Gold.Chemscore.Rot>
1.5676

> <Gold.Chemscore.Internal.Correction>
   9.000000E+99

> <Gold.Chemscore.Hbonds>
donor molecule, donor type, donor heavy atom, donor atom, acceptor molecule, acceptor atom, score
      L1  H     6    38       P1  7948  0.91
      P1  H  6896  6907       L1    11  0.95
      P1  H  6931  6943       L1    14  0.27
      P1  H  6934  6947       L1    14  0.86

> <Gold.Chemscore.Hbond.Weighted>
-11.0961

> <Gold.Chemscore.Metal.Weighted>
-0.0000

> <Gold.Chemscore.Lipo.Weighted>
-6.8907

> <Gold.Chemscore.Internal_Hbond.Weighted>
0.0000

> <Gold.Chemscore.DEClash.Weighted>
0.0270

> <Gold.Chemscore.DEInternal.Weighted>
2.1063

> <Gold.Chemscore.Rot.Weighted>
4.0130

> <Gold.Chemscore.Internal.Correction.Weighted>
   9.000000E+99

> <Gold.Protein.RotatedTorsions>
[ 6907 6896 6895 6894 ] final -103.95 input  -60.11 | X-H torsion
[ 7974 7965 7964 7962 ] final   84.76 input  175.53 | X-H torsion
[ 8008 7997 7996 7995 ] final  -64.41 input   59.86 | X-H torsion
[ 10167 10162 10161 10158 ] final  -99.27 input  -65.29 | X-H torsion
[ 10718 10713 10712 10709 ] final  110.65 input   66.30 | X-H torsion
[ 10763 10752 10751 10750 ] final  -30.44 input  -60.55 | X-H torsion
[ 11005 11000 10999 10996 ] final   31.15 input  -57.11 | X-H torsion

> <Gold.Protein.ActiveResidues>
 VAL166  LYS551  ARG553  GLY616  TRP617  ASP618  TYR619  PRO620  LYS621  CYS622 
 ASP623  PHE694  ASN695  SER759  ASP760  ASP761  ALA762  ILE779  LEU786  VAL792 
 PHE793  MET794  SER795  GLU796  ALA797  LYS798  CYS799  TRP800  GLU811  SER814 

> <Gold.Protein.RotatedAtoms>
  150.7264  134.0351  159.3746 H   0  0  0  0  0  0  0  0  0  0  0  0  # atno 6907 bound_to 6896
  151.8322  135.0615  160.0447 H   0  0  0  0  0  0  0  0  0  0  0  0  # atno 6908 bound_to 6896
  152.2925  133.5539  159.5603 H   0  0  0  0  0  0  0  0  0  0  0  0  # atno 6909 bound_to 6896
  145.5944  139.2343  143.2281 H   0  0  0  0  0  0  0  0  0  0  0  0  # atno 7974 bound_to 7965
  154.4610  140.0954  156.6893 H   0  0  0  0  0  0  0  0  0  0  0  0  # atno 8008 bound_to 7997
  155.4994  140.3473  155.4350 H   0  0  0  0  0  0  0  0  0  0  0  0  # atno 8009 bound_to 7997
  156.0870  140.1387  156.9629 H   0  0  0  0  0  0  0  0  0  0  0  0  # atno 8010 bound_to 7997
  140.2642  143.3387  152.0596 H   0  0  0  0  0  0  0  0  0  0  0  0  # atno 10167 bound_to 10162
  157.6484  131.0936  150.6633 H   0  0  0  0  0  0  0  0  0  0  0  0  # atno 10718 bound_to 10713
  153.7810  135.6905  153.4888 H   0  0  0  0  0  0  0  0  0  0  0  0  # atno 10763 bound_to 10752
  153.1811  135.4506  155.0028 H   0  0  0  0  0  0  0  0  0  0  0  0  # atno 10764 bound_to 10752
  154.8081  135.3365  154.7313 H   0  0  0  0  0  0  0  0  0  0  0  0  # atno 10765 bound_to 10752
  140.2869  134.2909  155.7786 H   0  0  0  0  0  0  0  0  0  0  0  0  # atno 11005 bound_to 11000
  146.1623  140.6770  142.9272 LP  0  0  0  0  0  0  0  0  0  0  0  0  # atno 17320 bound_to 7965
  144.7337  140.4746  143.6919 LP  0  0  0  0  0  0  0  0  0  0  0  0  # atno 17321 bound_to 7965
  139.5007  144.6699  151.6268 LP  0  0  0  0  0  0  0  0  0  0  0  0  # atno 17342 bound_to 10162
  140.5941  143.9727  150.6343 LP  0  0  0  0  0  0  0  0  0  0  0  0  # atno 17343 bound_to 10162
  156.6947  130.4605  149.5590 LP  0  0  0  0  0  0  0  0  0  0  0  0  # atno 17370 bound_to 10713
  156.1837  130.6515  151.0981 LP  0  0  0  0  0  0  0  0  0  0  0  0  # atno 17371 bound_to 10713
  141.2153  133.7560  156.9566 LP  0  0  0  0  0  0  0  0  0  0  0  0  # atno 17394 bound_to 11000
  140.1231  134.9404  157.2232 LP  0  0  0  0  0  0  0  0  0  0  0  0  # atno 17395 bound_to 11000

$$$$
