AV-unprocessed.smi:2278|AV-procd|sdf|9179|dock6
  -GOLD-   2272012393D 1   1.00000     0.00000
 Structure written by MMmdl.
 46 47  0  0  0  0  0  0  0  0  2 V2000
  150.0932  141.8436  158.2455 C   0  0  0  0  0  0  0  0  0  0  0  0
  149.2325  141.4884  157.0462 C   0  0  0  0  0  0  0  0  0  0  0  0
  149.9281  141.1247  155.8897 N   0  0  0  0  0  0  0  0  0  0  0  0
  149.2771  140.8001  154.8212 C   0  0  0  0  0  0  0  0  0  0  0  0
  147.8725  140.7965  154.7833 N   0  0  0  0  0  0  0  0  0  0  0  0
  147.2606  140.3888  153.5058 C   0  0  0  0  0  0  0  0  0  0  0  0
  147.2256  138.8542  153.3228 C   0  0  2  0  0  0  0  0  0  0  0  0
  148.5573  138.4123  153.1526 O   0  0  0  0  0  0  0  0  0  0  0  0
  146.4001  138.3950  152.1007 C   0  0  0  0  0  0  0  0  0  0  0  0
  146.5148  136.9363  151.8474 N   0  3  2  0  0  0  0  0  0  0  0  0
  145.8741  136.5365  150.5682 C   0  0  0  0  0  0  0  0  0  0  0  0
  146.1267  135.0511  150.2601 C   0  0  0  0  0  0  0  0  0  0  0  0
  145.6377  134.1509  151.4070 C   0  0  1  0  0  0  0  0  0  0  0  0
  145.9150  132.6678  151.1235 C   0  0  0  0  0  0  0  0  0  0  0  0
  146.2870  134.6103  152.7232 C   0  0  0  0  0  0  0  0  0  0  0  0
  146.0309  136.1044  152.9814 C   0  0  0  0  0  0  0  0  0  0  0  0
  147.1173  141.1493  155.8643 C   0  0  0  0  0  0  0  0  0  0  0  0
  145.8856  141.1449  155.8228 O   0  0  0  0  0  0  0  0  0  0  0  0
  147.8721  141.5132  157.0744 C   0  0  0  0  0  0  0  0  0  0  0  0
  147.0609  141.8944  158.3066 C   0  0  0  0  0  0  0  0  0  0  0  0
  149.8901  142.8633  158.5739 H   0  0  0  0  0  0  0  0  0  0  0  0
  151.1554  141.7761  158.0066 H   0  0  0  0  0  0  0  0  0  0  0  0
  149.8929  141.1636  159.0739 H   0  0  0  0  0  0  0  0  0  0  0  0
  149.7714  140.5071  153.8932 H   0  0  0  0  0  0  0  0  0  0  0  0
  146.2539  140.7972  153.3994 H   0  0  0  0  0  0  0  0  0  0  0  0
  147.8203  140.8399  152.6836 H   0  0  0  0  0  0  0  0  0  0  0  0
  146.8455  138.3998  154.2369 H   0  0  0  0  0  0  0  0  0  0  0  0
  148.5638  137.7006  152.5303 H   0  0  0  0  0  0  0  0  0  0  0  0
  145.3451  138.6390  152.2230 H   0  0  0  0  0  0  0  0  0  0  0  0
  146.7409  138.9535  151.2272 H   0  0  0  0  0  0  0  0  0  0  0  0
  144.8021  136.7352  150.6182 H   0  0  0  0  0  0  0  0  0  0  0  0
  146.2713  137.1410  149.7518 H   0  0  0  0  0  0  0  0  0  0  0  0
  145.6239  134.7792  149.3312 H   0  0  0  0  0  0  0  0  0  0  0  0
  147.1930  134.8910  150.0919 H   0  0  0  0  0  0  0  0  0  0  0  0
  144.5576  134.2745  151.4995 H   0  0  0  0  0  0  0  0  0  0  0  0
  146.9831  132.4766  151.0160 H   0  0  0  0  0  0  0  0  0  0  0  0
  145.4253  132.3461  150.2040 H   0  0  0  0  0  0  0  0  0  0  0  0
  145.5438  132.0371  151.9316 H   0  0  0  0  0  0  0  0  0  0  0  0
  145.8972  134.0235  153.5559 H   0  0  0  0  0  0  0  0  0  0  0  0
  147.3619  134.4255  152.6921 H   0  0  0  0  0  0  0  0  0  0  0  0
  146.5298  136.3923  153.9060 H   0  0  0  0  0  0  0  0  0  0  0  0
  144.9645  136.2794  153.1334 H   0  0  0  0  0  0  0  0  0  0  0  0
  146.4148  141.0671  158.6017 H   0  0  0  0  0  0  0  0  0  0  0  0
  146.4296  142.7565  158.0896 H   0  0  0  0  0  0  0  0  0  0  0  0
  147.6784  142.1491  159.1663 H   0  0  0  0  0  0  0  0  0  0  0  0
  147.5014  136.7478  151.7381 H   0  0  0  0  0  0  0  0  0  0  0  0
  1  2  1  0  0  0  0
  1 21  1  0  0  0  0
  1 22  1  0  0  0  0
  1 23  1  0  0  0  0
  2 19  2  0  0  0  0
  2  3  1  0  0  0  0
  3  4  2  0  0  0  0
  4  5  1  0  0  0  0
  4 24  1  0  0  0  0
  5  6  1  0  0  0  0
  5 17  1  0  0  0  0
  6  7  1  0  0  0  0
  6 25  1  0  0  0  0
  6 26  1  0  0  0  0
  7  8  1  0  0  0  0
  7  9  1  0  0  0  0
  7 27  1  0  0  0  0
  8 28  1  0  0  0  0
  9 10  1  0  0  0  0
  9 29  1  0  0  0  0
  9 30  1  0  0  0  0
 10 16  1  0  0  0  0
 10 11  1  0  0  0  0
 10 46  1  0  0  0  0
 11 12  1  0  0  0  0
 11 31  1  0  0  0  0
 11 32  1  0  0  0  0
 12 13  1  0  0  0  0
 12 33  1  0  0  0  0
 12 34  1  0  0  0  0
 13 14  1  0  0  0  0
 13 15  1  0  0  0  0
 13 35  1  0  0  0  0
 14 36  1  0  0  0  0
 14 37  1  0  0  0  0
 14 38  1  0  0  0  0
 15 16  1  0  0  0  0
 15 39  1  0  0  0  0
 15 40  1  0  0  0  0
 16 41  1  0  0  0  0
 16 42  1  0  0  0  0
 17 18  2  0  0  0  0
 17 19  1  0  0  0  0
 19 20  1  0  0  0  0
 20 43  1  0  0  0  0
 20 44  1  0  0  0  0
 20 45  1  0  0  0  0
M  CHG  1  10   1
M  END
> <s_m_source_file>
AV-unprocessed.smi

> <i_m_source_file_index>
2278

> <i_lp_mmshare_version>
43012

> <i_f3d_flags>
0

> <s_epik_input>
W0NIM11jMW5bY0hdbihjKD1PKWMxW0NIM10pW0NIMl1bQ0BIXShbT0hdKVtDSDJdTjJbQ0gyXVtDSDJdW0NIXShbQ0gzXSlbQ0gyXVtDSDJdMg==

> <s_epik_cmdline>
J2VwaWtfcHl0aG9uJywgJy1waCcsICc3LjAnLCAnLXRuJywgJzgnLCAnLW1hJywgJzIwMCcsICctbWV0YWxfYmluZGluZycsICctaW1hZScsICc8aW5maWxlLm1hZT4nLCAnLW9tYWUnLCAnPG91dGZpbGUubWFlPic=

> <r_lp_tautomer_probability>
1

> <r_epik_Ionization_Penalty>
0.00139489

> <r_epik_Ionization_Penalty_Charging>
0.00136819

> <r_epik_Ionization_Penalty_Neutral>
2.66975e-05

> <r_epik_State_Penalty>
0.000910892

> <r_epik_Charging_Adjusted_Penalty>
0.00227908

> <i_epik_Tot_Q>
1

> <i_epik_Tot_abs_Q>
1

> <r_epik_Metal_State_Penalty>
-0

> <b_epik_Metal_Only>
0

> <s_lp_Force_Field>
OPLS_2005

> <r_lp_Energy>
28.1947

> <b_lp_Chiralities_Consistent>
1

> <s_lp_Variant>
AV-unprocessed.smi:2278-1

> <Gold.Version>
5.8.1

> <Gold.Id.Protein>
6NUR|6NUR_protein|mol2

> <Gold.PLP.Fitness>
42.9736

> <Gold.PLP.PLP>
-31.6361

> <Gold.PLP.part.hbond>
-3.7803

> <Gold.PLP.part.metal>
0.0000

> <Gold.PLP.part.buried>
-0.2029

> <Gold.PLP.part.nonpolar>
-27.1241

> <Gold.PLP.part.repulsive>
0.2078

> <Gold.PLP.ligand.clash>
0.0000

> <Gold.PLP.ligand.torsion>
0.3638

> <Gold.PLP.Chemscore.Hbond>
3.0000

> <Gold.PLP.Chemscore.CHOScore>
1.0000

> <Gold.PLP.Chemscore.Metal>
0.0000

> <Gold.Chemscore.Hbonds>
donor molecule, donor type, donor heavy atom, donor atom, acceptor molecule, acceptor atom, score
      L1  H     8    28       P1  7948  1.00
      L1  H    10    46       P1  7948  1.95
      L1  C     4    24       P1  7957  0.39

> <Gold.PLP.Chemscore.Internal.Correction>
0.0650

> <Gold.Rescore>
     Score         DG    S(hbond)    S(metal)    S(lipo)     H(rot)  DE(clash)    DE(int)     intcor
     12.35     -13.66       1.98        0.00      61.59       2.20       0.04       1.27       ----

> <Gold.Chemscore.Fitness>
12.3451

> <Gold.Chemscore.DG>
-13.6561

> <Gold.Chemscore.ZeroCoef>
-5.4800

> <Gold.Chemscore.Hbond>
1.9758

> <Gold.Chemscore.Metal>
0.0000

> <Gold.Chemscore.Lipo>
61.5851

> <Gold.Chemscore.Internal_Hbond>
0.0000

> <Gold.Chemscore.DEClash>
0.0393

> <Gold.Chemscore.DEInternal>
1.2717

> <Gold.Chemscore.Rot>
2.1986

> <Gold.Chemscore.Internal.Correction>
   9.000000E+99

> <Gold.Chemscore.Hbonds>
donor molecule, donor type, donor heavy atom, donor atom, acceptor molecule, acceptor atom, score
      L1  H     8    28       P1  7948  0.99
      L1  H    10    46       P1  7948  0.91

> <Gold.Chemscore.Hbond.Weighted>
-6.5991

> <Gold.Chemscore.Metal.Weighted>
-0.0000

> <Gold.Chemscore.Lipo.Weighted>
-7.2055

> <Gold.Chemscore.Internal_Hbond.Weighted>
0.0000

> <Gold.Chemscore.DEClash.Weighted>
0.0393

> <Gold.Chemscore.DEInternal.Weighted>
1.2717

> <Gold.Chemscore.Rot.Weighted>
5.6285

> <Gold.Chemscore.Internal.Correction.Weighted>
   9.000000E+99

> <Gold.Protein.RotatedTorsions>
[ 6907 6896 6895 6894 ] final  162.19 input  -60.11 | X-H torsion
[ 7974 7965 7964 7962 ] final -164.09 input  175.53 | X-H torsion
[ 8008 7997 7996 7995 ] final   73.03 input   59.86 | X-H torsion
[ 10167 10162 10161 10158 ] final -174.98 input  -65.29 | X-H torsion
[ 10718 10713 10712 10709 ] final  135.73 input   66.30 | X-H torsion
[ 10763 10752 10751 10750 ] final   92.77 input  -60.55 | X-H torsion
[ 11005 11000 10999 10996 ] final  -75.54 input  -57.11 | X-H torsion

> <Gold.Protein.ActiveResidues>
 VAL166  LYS551  ARG553  GLY616  TRP617  ASP618  TYR619  PRO620  LYS621  CYS622 
 ASP623  PHE694  ASN695  SER759  ASP760  ASP761  ALA762  ILE779  LEU786  VAL792 
 PHE793  MET794  SER795  GLU796  ALA797  LYS798  CYS799  TRP800  GLU811  SER814 

> <Gold.Protein.RotatedAtoms>
  151.9443  133.3647  159.3976 H   0  0  0  0  0  0  0  0  0  0  0  0  # atno 6907 bound_to 6896
  150.6992  134.4407  159.5300 H   0  0  0  0  0  0  0  0  0  0  0  0  # atno 6908 bound_to 6896
  152.2069  134.8537  160.0552 H   0  0  0  0  0  0  0  0  0  0  0  0  # atno 6909 bound_to 6896
  144.7307  140.3011  143.6204 H   0  0  0  0  0  0  0  0  0  0  0  0  # atno 7974 bound_to 7965
  155.7777  140.3483  155.5280 H   0  0  0  0  0  0  0  0  0  0  0  0  # atno 8008 bound_to 7997
  155.8760  140.0994  157.1539 H   0  0  0  0  0  0  0  0  0  0  0  0  # atno 8009 bound_to 7997
  154.4021  140.1331  156.4124 H   0  0  0  0  0  0  0  0  0  0  0  0  # atno 8010 bound_to 7997
  139.5605  144.1882  152.1231 H   0  0  0  0  0  0  0  0  0  0  0  0  # atno 10167 bound_to 10162
  157.4540  131.1068  151.0000 H   0  0  0  0  0  0  0  0  0  0  0  0  # atno 10718 bound_to 10713
  153.2228  135.4349  155.0508 H   0  0  0  0  0  0  0  0  0  0  0  0  # atno 10763 bound_to 10752
  154.8258  135.3360  154.6902 H   0  0  0  0  0  0  0  0  0  0  0  0  # atno 10764 bound_to 10752
  153.7333  135.7009  153.5040 H   0  0  0  0  0  0  0  0  0  0  0  0  # atno 10765 bound_to 10752
  141.1646  133.6950  156.7532 H   0  0  0  0  0  0  0  0  0  0  0  0  # atno 11005 bound_to 11000
  145.7759  139.1874  143.2186 LP  0  0  0  0  0  0  0  0  0  0  0  0  # atno 17320 bound_to 7965
  146.0873  140.7696  142.9612 LP  0  0  0  0  0  0  0  0  0  0  0  0  # atno 17321 bound_to 7965
  140.1394  144.5216  150.6753 LP  0  0  0  0  0  0  0  0  0  0  0  0  # atno 17342 bound_to 10162
  140.6884  143.2362  151.5198 LP  0  0  0  0  0  0  0  0  0  0  0  0  # atno 17343 bound_to 10162
  157.0820  130.5907  149.5422 LP  0  0  0  0  0  0  0  0  0  0  0  0  # atno 17370 bound_to 10713
  155.9999  130.5076  150.7624 LP  0  0  0  0  0  0  0  0  0  0  0  0  # atno 17371 bound_to 10713
  140.2589  134.8482  157.3739 LP  0  0  0  0  0  0  0  0  0  0  0  0  # atno 17394 bound_to 11000
  140.1631  134.4704  155.7881 LP  0  0  0  0  0  0  0  0  0  0  0  0  # atno 17395 bound_to 11000

$$$$
