AV-unprocessed.smi:2051|AV-procd|sdf|8326|dock9
  -GOLD-   2272010593D 1   1.00000     0.00000
 Structure written by MMmdl.
 33 34  0  0  0  0  0  0  0  0  1 V2000
  149.7162  142.6027  158.9282 O   0  0  0  0  0  0  0  0  0  0  0  0
  150.8425  142.6777  158.4357 C   0  0  0  0  0  0  0  0  0  0  0  0
  151.8428  143.7315  158.9306 C   0  0  0  0  0  0  0  0  0  0  0  0
  152.4578  143.3777  160.2207 N   0  0  0  0  0  0  0  0  0  0  0  0
  152.2603  144.2690  161.2940 C   0  0  0  0  0  0  0  0  0  0  0  0
  152.7794  144.0414  162.5108 C   0  0  0  0  0  0  0  0  0  0  0  0
  153.5602  142.8430  162.7065 C   0  0  0  0  0  0  0  0  0  0  0  0
  153.7582  141.9850  161.6860 C   0  0  0  0  0  0  0  0  0  0  0  0
  153.1941  142.2309  160.3537 C   0  0  0  0  0  0  0  0  0  0  0  0
  153.3724  141.4538  159.4149 O   0  0  0  0  0  0  0  0  0  0  0  0
  151.2775  141.8626  157.4629 N   0  0  0  0  0  0  0  0  0  0  0  0
  150.4875  140.8203  156.8158 C   0  0  0  0  0  0  0  0  0  0  0  0
  151.3471  139.9587  155.8746 C   0  0  2  0  0  0  0  0  0  0  0  0
  150.6151  138.7939  155.2061 C   0  0  0  0  0  0  0  0  0  0  0  0
  151.7595  137.8586  154.8920 C   0  0  0  0  0  0  0  0  0  0  0  0
  152.6457  138.0277  156.1228 C   0  0  0  0  0  0  0  0  0  0  0  0
  152.4145  139.3522  156.5983 O   0  0  0  0  0  0  0  0  0  0  0  0
  152.6047  143.8627  158.1613 H   0  0  0  0  0  0  0  0  0  0  0  0
  151.3472  144.7010  159.0115 H   0  0  0  0  0  0  0  0  0  0  0  0
  151.6711  145.1448  161.0638 H   0  0  0  0  0  0  0  0  0  0  0  0
  152.6207  144.7379  163.3207 H   0  0  0  0  0  0  0  0  0  0  0  0
  153.9890  142.6341  163.6756 H   0  0  0  0  0  0  0  0  0  0  0  0
  154.3461  141.0940  161.8507 H   0  0  0  0  0  0  0  0  0  0  0  0
  152.2204  141.9913  157.1251 H   0  0  0  0  0  0  0  0  0  0  0  0
  150.0654  140.1903  157.5989 H   0  0  0  0  0  0  0  0  0  0  0  0
  149.6388  141.2453  156.2775 H   0  0  0  0  0  0  0  0  0  0  0  0
  151.7952  140.5872  155.1032 H   0  0  0  0  0  0  0  0  0  0  0  0
  149.9274  138.3178  155.9064 H   0  0  0  0  0  0  0  0  0  0  0  0
  150.0514  139.0938  154.3219 H   0  0  0  0  0  0  0  0  0  0  0  0
  151.4421  136.8280  154.7323 H   0  0  0  0  0  0  0  0  0  0  0  0
  152.2853  138.1983  153.9986 H   0  0  0  0  0  0  0  0  0  0  0  0
  152.3513  137.3257  156.9037 H   0  0  0  0  0  0  0  0  0  0  0  0
  153.7001  137.8630  155.8994 H   0  0  0  0  0  0  0  0  0  0  0  0
  1  2  2  0  0  0  0
  2  3  1  0  0  0  0
  2 11  1  0  0  0  0
  3  4  1  0  0  0  0
  3 18  1  0  0  0  0
  3 19  1  0  0  0  0
  4  9  1  0  0  0  0
  4  5  1  0  0  0  0
  5  6  2  0  0  0  0
  5 20  1  0  0  0  0
  6  7  1  0  0  0  0
  6 21  1  0  0  0  0
  7  8  2  0  0  0  0
  7 22  1  0  0  0  0
  8  9  1  0  0  0  0
  8 23  1  0  0  0  0
  9 10  2  0  0  0  0
 11 12  1  0  0  0  0
 11 24  1  0  0  0  0
 12 13  1  0  0  0  0
 12 25  1  0  0  0  0
 12 26  1  0  0  0  0
 13 17  1  0  0  0  0
 13 14  1  0  0  0  0
 13 27  1  0  0  0  0
 14 15  1  0  0  0  0
 14 28  1  0  0  0  0
 14 29  1  0  0  0  0
 15 16  1  0  0  0  0
 15 30  1  0  0  0  0
 15 31  1  0  0  0  0
 16 17  1  0  0  0  0
 16 32  1  0  0  0  0
 16 33  1  0  0  0  0
M  END
> <s_m_source_file>
AV-unprocessed.smi

> <i_m_source_file_index>
2051

> <i_lp_mmshare_version>
43012

> <i_f3d_flags>
0

> <s_epik_input>
TzFbQ0gyXVtDSDJdW0NIMl1bQ0BIXTFbQ0gyXVtOSF1DKD1PKVtDSDJdbjJbY0hdW2NIXVtjSF1bY0hdYzI9Tw==

> <s_epik_cmdline>
J2VwaWtfcHl0aG9uJywgJy1waCcsICc3LjAnLCAnLXRuJywgJzgnLCAnLW1hJywgJzIwMCcsICctbWV0YWxfYmluZGluZycsICctaW1hZScsICc8aW5maWxlLm1hZT4nLCAnLW9tYWUnLCAnPG91dGZpbGUubWFlPic=

> <r_lp_tautomer_probability>
1

> <r_epik_Ionization_Penalty>
3.94187e-07

> <r_epik_Ionization_Penalty_Charging>
3.67328e-07

> <r_epik_Ionization_Penalty_Neutral>
2.6859e-08

> <r_epik_State_Penalty>
-0

> <r_epik_Charging_Adjusted_Penalty>
3.67328e-07

> <i_epik_Tot_Q>
0

> <i_epik_Tot_abs_Q>
0

> <r_epik_Metal_State_Penalty>
-0

> <b_epik_Metal_Only>
0

> <s_lp_Force_Field>
OPLS_2005

> <r_lp_Energy>
26.4026

> <b_lp_Chiralities_Consistent>
1

> <s_lp_Variant>
AV-unprocessed.smi:2051-1

> <Gold.Version>
5.8.1

> <Gold.Id.Protein>
6NUR|6NUR_protein|mol2

> <Gold.PLP.Fitness>
46.9758

> <Gold.PLP.PLP>
-44.9340

> <Gold.PLP.part.hbond>
-1.2725

> <Gold.PLP.part.metal>
0.0000

> <Gold.PLP.part.buried>
-2.3504

> <Gold.PLP.part.nonpolar>
-39.7750

> <Gold.PLP.part.repulsive>
0.1757

> <Gold.PLP.ligand.clash>
0.0000

> <Gold.PLP.ligand.torsion>
0.2552

> <Gold.PLP.Chemscore.Hbond>
0.8500

> <Gold.PLP.Chemscore.CHOScore>
0.0000

> <Gold.PLP.Chemscore.Metal>
0.0000

> <Gold.Chemscore.Hbonds>
donor molecule, donor type, donor heavy atom, donor atom, acceptor molecule, acceptor atom, score
      P1  H  7997  8008       L1    17  0.85

> <Gold.PLP.Chemscore.Internal.Correction>
0.0022

> <Gold.Rescore>
     Score         DG    S(hbond)    S(metal)    S(lipo)     H(rot)  DE(clash)    DE(int)     intcor
     12.60     -13.98       0.50        0.00      95.51       1.69       0.05       1.33       ----

> <Gold.Chemscore.Fitness>
12.6032

> <Gold.Chemscore.DG>
-13.9828

> <Gold.Chemscore.ZeroCoef>
-5.4800

> <Gold.Chemscore.Hbond>
0.4981

> <Gold.Chemscore.Metal>
0.0000

> <Gold.Chemscore.Lipo>
95.5119

> <Gold.Chemscore.Internal_Hbond>
0.0000

> <Gold.Chemscore.DEClash>
0.0532

> <Gold.Chemscore.DEInternal>
1.3265

> <Gold.Chemscore.Rot>
1.6936

> <Gold.Chemscore.Internal.Correction>
   9.000000E+99

> <Gold.Chemscore.Hbonds>
donor molecule, donor type, donor heavy atom, donor atom, acceptor molecule, acceptor atom, score
      P1  H  7997  8008       L1    17  0.18

> <Gold.Chemscore.Hbond.Weighted>
-1.6636

> <Gold.Chemscore.Metal.Weighted>
-0.0000

> <Gold.Chemscore.Lipo.Weighted>
-11.1749

> <Gold.Chemscore.Internal_Hbond.Weighted>
0.0000

> <Gold.Chemscore.DEClash.Weighted>
0.0532

> <Gold.Chemscore.DEInternal.Weighted>
1.3265

> <Gold.Chemscore.Rot.Weighted>
4.3357

> <Gold.Chemscore.Internal.Correction.Weighted>
   9.000000E+99

> <Gold.Protein.RotatedTorsions>
[ 6907 6896 6895 6894 ] final -116.34 input  -60.11 | X-H torsion
[ 7974 7965 7964 7962 ] final  162.96 input  175.53 | X-H torsion
[ 8008 7997 7996 7995 ] final  -49.54 input   59.86 | X-H torsion
[ 10167 10162 10161 10158 ] final -171.40 input  -65.29 | X-H torsion
[ 10718 10713 10712 10709 ] final   74.70 input   66.30 | X-H torsion
[ 10763 10752 10751 10750 ] final -161.62 input  -60.55 | X-H torsion
[ 11005 11000 10999 10996 ] final -133.12 input  -57.11 | X-H torsion

> <Gold.Protein.ActiveResidues>
 VAL166  LYS551  ARG553  GLY616  TRP617  ASP618  TYR619  PRO620  LYS621  CYS622 
 ASP623  PHE694  ASN695  SER759  ASP760  ASP761  ALA762  ILE779  LEU786  VAL792 
 PHE793  MET794  SER795  GLU796  ALA797  LYS798  CYS799  TRP800  GLU811  SER814 

> <Gold.Protein.RotatedAtoms>
  150.8048  133.8530  159.3210 H   0  0  0  0  0  0  0  0  0  0  0  0  # atno 6907 bound_to 6896
  151.6332  135.1019  160.0135 H   0  0  0  0  0  0  0  0  0  0  0  0  # atno 6908 bound_to 6896
  152.4138  133.6966  159.6456 H   0  0  0  0  0  0  0  0  0  0  0  0  # atno 6909 bound_to 6896
  144.7612  139.8114  143.6332 H   0  0  0  0  0  0  0  0  0  0  0  0  # atno 7974 bound_to 7965
  154.4046  140.1294  156.4520 H   0  0  0  0  0  0  0  0  0  0  0  0  # atno 8008 bound_to 7997
  155.7357  140.3490  155.5060 H   0  0  0  0  0  0  0  0  0  0  0  0  # atno 8009 bound_to 7997
  155.9086  140.1032  157.1286 H   0  0  0  0  0  0  0  0  0  0  0  0  # atno 8010 bound_to 7997
  139.5804  144.1435  152.1508 H   0  0  0  0  0  0  0  0  0  0  0  0  # atno 10167 bound_to 10162
  157.6603  130.9690  150.1248 H   0  0  0  0  0  0  0  0  0  0  0  0  # atno 10718 bound_to 10713
  154.7288  135.3041  154.8927 H   0  0  0  0  0  0  0  0  0  0  0  0  # atno 10763 bound_to 10752
  153.9776  135.6734  153.4753 H   0  0  0  0  0  0  0  0  0  0  0  0  # atno 10764 bound_to 10752
  153.0899  135.4965  154.8589 H   0  0  0  0  0  0  0  0  0  0  0  0  # atno 10765 bound_to 10752
  140.9109  134.1569  157.4390 H   0  0  0  0  0  0  0  0  0  0  0  0  # atno 11005 bound_to 11000
  146.1676  139.4814  142.9948 LP  0  0  0  0  0  0  0  0  0  0  0  0  # atno 17320 bound_to 7965
  145.6614  141.0239  143.1707 LP  0  0  0  0  0  0  0  0  0  0  0  0  # atno 17321 bound_to 7965
  140.0987  144.5558  150.7004 LP  0  0  0  0  0  0  0  0  0  0  0  0  # atno 17342 bound_to 10162
  140.7083  143.2485  151.4659 LP  0  0  0  0  0  0  0  0  0  0  0  0  # atno 17343 bound_to 10162
  156.2110  130.3666  149.8670 LP  0  0  0  0  0  0  0  0  0  0  0  0  # atno 17370 bound_to 10713
  156.6549  130.8758  151.3537 LP  0  0  0  0  0  0  0  0  0  0  0  0  # atno 17371 bound_to 10713
  139.8757  134.9935  156.5649 LP  0  0  0  0  0  0  0  0  0  0  0  0  # atno 17394 bound_to 11000
  140.8111  133.8428  155.8811 LP  0  0  0  0  0  0  0  0  0  0  0  0  # atno 17395 bound_to 11000

$$$$
