AV-unprocessed.smi:587|AV-procd|sdf|3003|dock2
  -GOLD-   2262023513D 1   1.00000     0.00000
 Structure written by MMmdl.
 47 49  0  0  0  0  0  0  0  0  2 V2000
  152.6097  137.6951  155.7396 C   0  0  0  0  0  0  0  0  0  0  0  0
  151.4537  138.4908  155.3828 N   0  0  0  0  0  0  0  0  0  0  0  0
  150.3480  138.0142  154.6809 C   0  0  0  0  0  0  0  0  0  0  0  0
  150.3348  136.6831  154.2891 N   0  0  0  0  0  0  0  0  0  0  0  0
  149.2973  138.8260  154.3854 C   0  0  0  0  0  0  0  0  0  0  0  0
  148.1445  138.2366  153.6370 N   0  3  0  0  0  0  0  0  0  0  0  0
  147.4564  139.1701  152.7090 C   0  0  0  0  0  0  0  0  0  0  0  0
  146.4875  138.4088  151.7889 C   0  0  0  0  0  0  0  0  0  0  0  0
  145.4768  137.5943  152.6090 C   0  0  0  0  0  0  0  0  0  0  0  0
  146.2136  136.6673  153.5862 C   0  0  0  0  0  0  0  0  0  0  0  0
  147.1882  137.4632  154.4701 C   0  0  0  0  0  0  0  0  0  0  0  0
  149.2878  140.2356  154.7898 C   0  0  0  0  0  0  0  0  0  0  0  0
  148.3558  141.0051  154.5500 O   0  0  0  0  0  0  0  0  0  0  0  0
  150.4245  140.6853  155.4975 N   0  0  0  0  0  0  0  0  0  0  0  0
  150.4628  142.0911  155.9613 C   0  0  0  0  0  0  0  0  0  0  0  0
  150.6932  142.2317  157.4742 C   0  0  0  0  0  0  0  0  0  0  0  0
  150.3719  141.3309  158.2513 O   0  0  0  0  0  0  0  0  0  0  0  0
  151.2518  143.3836  157.8721 N   0  0  0  0  0  0  0  0  0  0  0  0
  151.5624  143.7326  159.2206 C   0  0  0  0  0  0  0  0  0  0  0  0
  150.7286  144.8100  159.8797 C   0  0  0  0  0  0  0  0  0  0  0  0
  152.1452  145.1067  159.4712 C   0  0  0  0  0  0  0  0  0  0  0  0
  151.5061  139.8372  155.8147 C   0  0  0  0  0  0  0  0  0  0  0  0
  152.4694  140.2647  156.4576 O   0  0  0  0  0  0  0  0  0  0  0  0
  152.5150  136.6852  155.3469 H   0  0  0  0  0  0  0  0  0  0  0  0
  152.6633  137.6669  156.8294 H   0  0  0  0  0  0  0  0  0  0  0  0
  153.4876  138.1751  155.3032 H   0  0  0  0  0  0  0  0  0  0  0  0
  151.0910  136.0456  154.4905 H   0  0  0  0  0  0  0  0  0  0  0  0
  149.5560  136.2942  153.7755 H   0  0  0  0  0  0  0  0  0  0  0  0
  146.9135  139.9302  153.2718 H   0  0  0  0  0  0  0  0  0  0  0  0
  148.2002  139.6918  152.1055 H   0  0  0  0  0  0  0  0  0  0  0  0
  145.9627  139.1088  151.1379 H   0  0  0  0  0  0  0  0  0  0  0  0
  147.0516  137.7419  151.1353 H   0  0  0  0  0  0  0  0  0  0  0  0
  144.8229  138.2689  153.1632 H   0  0  0  0  0  0  0  0  0  0  0  0
  144.8361  137.0114  151.9467 H   0  0  0  0  0  0  0  0  0  0  0  0
  145.4946  136.1345  154.2094 H   0  0  0  0  0  0  0  0  0  0  0  0
  146.7623  135.9076  153.0280 H   0  0  0  0  0  0  0  0  0  0  0  0
  147.7423  136.7779  155.1129 H   0  0  0  0  0  0  0  0  0  0  0  0
  146.6314  138.1337  155.1255 H   0  0  0  0  0  0  0  0  0  0  0  0
  151.2372  142.6552  155.4387 H   0  0  0  0  0  0  0  0  0  0  0  0
  149.5409  142.6145  155.7026 H   0  0  0  0  0  0  0  0  0  0  0  0
  151.4825  144.0654  157.1639 H   0  0  0  0  0  0  0  0  0  0  0  0
  151.9195  142.9377  159.8739 H   0  0  0  0  0  0  0  0  0  0  0  0
  149.9314  145.2660  159.2957 H   0  0  0  0  0  0  0  0  0  0  0  0
  150.5242  144.7049  160.9433 H   0  0  0  0  0  0  0  0  0  0  0  0
  152.8875  145.1991  160.2613 H   0  0  0  0  0  0  0  0  0  0  0  0
  152.2933  145.7618  158.6146 H   0  0  0  0  0  0  0  0  0  0  0  0
  148.5464  137.5420  153.0251 H   0  0  0  0  0  0  0  0  0  0  0  0
  1  2  1  0  0  0  0
  1 24  1  0  0  0  0
  1 25  1  0  0  0  0
  1 26  1  0  0  0  0
  2 22  1  0  0  0  0
  2  3  1  0  0  0  0
  3  4  1  0  0  0  0
  3  5  2  0  0  0  0
  4 27  1  0  0  0  0
  4 28  1  0  0  0  0
  5  6  1  0  0  0  0
  5 12  1  0  0  0  0
  6 11  1  0  0  0  0
  6  7  1  0  0  0  0
  6 47  1  0  0  0  0
  7  8  1  0  0  0  0
  7 29  1  0  0  0  0
  7 30  1  0  0  0  0
  8  9  1  0  0  0  0
  8 31  1  0  0  0  0
  8 32  1  0  0  0  0
  9 10  1  0  0  0  0
  9 33  1  0  0  0  0
  9 34  1  0  0  0  0
 10 11  1  0  0  0  0
 10 35  1  0  0  0  0
 10 36  1  0  0  0  0
 11 37  1  0  0  0  0
 11 38  1  0  0  0  0
 12 13  2  0  0  0  0
 12 14  1  0  0  0  0
 14 15  1  0  0  0  0
 14 22  1  0  0  0  0
 15 16  1  0  0  0  0
 15 39  1  0  0  0  0
 15 40  1  0  0  0  0
 16 17  2  0  0  0  0
 16 18  1  0  0  0  0
 18 19  1  0  0  0  0
 18 41  1  0  0  0  0
 19 21  1  0  0  0  0
 19 20  1  0  0  0  0
 19 42  1  0  0  0  0
 20 21  1  0  0  0  0
 20 43  1  0  0  0  0
 20 44  1  0  0  0  0
 21 45  1  0  0  0  0
 21 46  1  0  0  0  0
 22 23  2  0  0  0  0
M  CHG  1   6   1
M  END
> <s_m_source_file>
AV-unprocessed.smi

> <i_m_source_file_index>
587

> <i_lp_mmshare_version>
43012

> <i_f3d_flags>
0

> <s_epik_input>
W0NIMl0xW0NIMl1bQ0gyXVtDSDJdW0NIMl1OMWMoYyhbTkgyXSluMltDSDNdKWMoPU8pbihjMj1PKVtDSDJdQyg9TylbTkhdW0NIXTNbQ0gyXVtDSDJdMw==

> <s_epik_cmdline>
J2VwaWtfcHl0aG9uJywgJy1waCcsICc3LjAnLCAnLXRuJywgJzgnLCAnLW1hJywgJzIwMCcsICctbWV0YWxfYmluZGluZycsICctaW1hZScsICc8aW5maWxlLm1hZT4nLCAnLW9tYWUnLCAnPG91dGZpbGUubWFlPic=

> <r_epik_Ionization_Penalty>
2.48068

> <r_epik_Ionization_Penalty_Charging>
2.47625

> <r_epik_Ionization_Penalty_Neutral>
0.00443673

> <r_epik_State_Penalty>
2.66159

> <r_epik_Charging_Adjusted_Penalty>
5.13784

> <i_epik_Tot_Q>
1

> <i_epik_Tot_abs_Q>
1

> <r_epik_Metal_State_Penalty>
2.66159

> <b_epik_Metal_Only>
0

> <s_lp_Force_Field>
OPLS_2005

> <r_lp_Energy>
35.5709

> <b_lp_Chiralities_Consistent>
1

> <s_lp_Variant>
AV-unprocessed.smi:587-2

> <Gold.Version>
5.8.1

> <Gold.Id.Protein>
6NUR|6NUR_protein|mol2

> <Gold.PLP.Fitness>
48.4388

> <Gold.PLP.PLP>
-39.3006

> <Gold.PLP.part.hbond>
-4.0000

> <Gold.PLP.part.metal>
0.0000

> <Gold.PLP.part.buried>
2.5832

> <Gold.PLP.part.nonpolar>
-38.5018

> <Gold.PLP.part.repulsive>
0.2385

> <Gold.PLP.ligand.clash>
0.0000

> <Gold.PLP.ligand.torsion>
1.0891

> <Gold.PLP.Chemscore.Hbond>
3.7040

> <Gold.PLP.Chemscore.CHOScore>
0.0000

> <Gold.PLP.Chemscore.Metal>
0.0000

> <Gold.Chemscore.Hbonds>
donor molecule, donor type, donor heavy atom, donor atom, acceptor molecule, acceptor atom, score
      L1  H     4    28       P1  7948  0.70
      L1  H     6    47       P1  7948  2.00
      P1  H  7997  8010       L1    23  1.00

> <Gold.PLP.Chemscore.Internal.Correction>
0.2045

> <Gold.Rescore>
     Score         DG    S(hbond)    S(metal)    S(lipo)     H(rot)  DE(clash)    DE(int)     intcor
     13.68     -19.26       2.61        0.00      84.09       1.87       1.77       3.81       ----

> <Gold.Chemscore.Fitness>
13.6758

> <Gold.Chemscore.DG>
-19.2560

> <Gold.Chemscore.ZeroCoef>
-5.4800

> <Gold.Chemscore.Hbond>
2.6099

> <Gold.Chemscore.Metal>
0.0000

> <Gold.Chemscore.Lipo>
84.0921

> <Gold.Chemscore.Internal_Hbond>
0.0000

> <Gold.Chemscore.DEClash>
1.7714

> <Gold.Chemscore.DEInternal>
3.8088

> <Gold.Chemscore.Rot>
1.8672

> <Gold.Chemscore.Internal.Correction>
   9.000000E+99

> <Gold.Chemscore.Hbonds>
donor molecule, donor type, donor heavy atom, donor atom, acceptor molecule, acceptor atom, score
      L1  H     4    28       P1  7948  0.42
      L1  H     6    47       P1  7948  1.00
      P1  H  7997  8010       L1    23  0.96

> <Gold.Chemscore.Hbond.Weighted>
-8.7172

> <Gold.Chemscore.Metal.Weighted>
-0.0000

> <Gold.Chemscore.Lipo.Weighted>
-9.8388

> <Gold.Chemscore.Internal_Hbond.Weighted>
0.0000

> <Gold.Chemscore.DEClash.Weighted>
1.7714

> <Gold.Chemscore.DEInternal.Weighted>
3.8088

> <Gold.Chemscore.Rot.Weighted>
4.7799

> <Gold.Chemscore.Internal.Correction.Weighted>
   9.000000E+99

> <Gold.Protein.RotatedTorsions>
[ 6907 6896 6895 6894 ] final   68.38 input  -60.11 | X-H torsion
[ 7974 7965 7964 7962 ] final  -10.94 input  175.53 | X-H torsion
[ 8008 7997 7996 7995 ] final   80.43 input   59.86 | X-H torsion
[ 10167 10162 10161 10158 ] final   18.93 input  -65.29 | X-H torsion
[ 10718 10713 10712 10709 ] final  144.60 input   66.30 | X-H torsion
[ 10763 10752 10751 10750 ] final -100.17 input  -60.55 | X-H torsion
[ 11005 11000 10999 10996 ] final   52.90 input  -57.11 | X-H torsion

> <Gold.Protein.ActiveResidues>
 VAL166  LYS551  ARG553  GLY616  TRP617  ASP618  TYR619  PRO620  LYS621  CYS622 
 ASP623  PHE694  ASN695  SER759  ASP760  ASP761  ALA762  ILE779  LEU786  VAL792 
 PHE793  MET794  SER795  GLU796  ALA797  LYS798  CYS799  TRP800  GLU811  SER814 

> <Gold.Protein.RotatedAtoms>
  152.4616  134.5171  159.9770 H   0  0  0  0  0  0  0  0  0  0  0  0  # atno 6907 bound_to 6896
  151.5218  133.3459  159.2910 H   0  0  0  0  0  0  0  0  0  0  0  0  # atno 6908 bound_to 6896
  150.8582  134.7956  159.7124 H   0  0  0  0  0  0  0  0  0  0  0  0  # atno 6909 bound_to 6896
  146.2204  140.2838  142.8364 H   0  0  0  0  0  0  0  0  0  0  0  0  # atno 7974 bound_to 7965
  155.8833  140.3443  155.5903 H   0  0  0  0  0  0  0  0  0  0  0  0  # atno 8008 bound_to 7997
  155.7694  140.0843  157.2134 H   0  0  0  0  0  0  0  0  0  0  0  0  # atno 8009 bound_to 7997
  154.4026  140.1521  156.2912 H   0  0  0  0  0  0  0  0  0  0  0  0  # atno 8010 bound_to 7997
  140.5617  143.9325  150.6647 H   0  0  0  0  0  0  0  0  0  0  0  0  # atno 10167 bound_to 10162
  157.3552  131.0957  151.0964 H   0  0  0  0  0  0  0  0  0  0  0  0  # atno 10718 bound_to 10713
  154.7557  135.4945  153.9371 H   0  0  0  0  0  0  0  0  0  0  0  0  # atno 10763 bound_to 10752
  153.1194  135.6728  153.9370 H   0  0  0  0  0  0  0  0  0  0  0  0  # atno 10764 bound_to 10752
  153.9107  135.3099  155.3427 H   0  0  0  0  0  0  0  0  0  0  0  0  # atno 10765 bound_to 10752
  140.0811  134.5337  155.8946 H   0  0  0  0  0  0  0  0  0  0  0  0  # atno 11005 bound_to 11000
  144.9177  140.7832  143.5767 LP  0  0  0  0  0  0  0  0  0  0  0  0  # atno 17320 bound_to 7965
  145.2772  139.1932  143.4810 LP  0  0  0  0  0  0  0  0  0  0  0  0  # atno 17321 bound_to 7965
  140.2777  143.3411  152.1180 LP  0  0  0  0  0  0  0  0  0  0  0  0  # atno 17342 bound_to 10162
  139.5073  144.6830  151.5960 LP  0  0  0  0  0  0  0  0  0  0  0  0  # atno 17343 bound_to 10162
  157.2125  130.6444  149.5779 LP  0  0  0  0  0  0  0  0  0  0  0  0  # atno 17370 bound_to 10713
  155.9728  130.4655  150.6257 LP  0  0  0  0  0  0  0  0  0  0  0  0  # atno 17371 bound_to 10713
  141.2047  133.6641  156.6135 LP  0  0  0  0  0  0  0  0  0  0  0  0  # atno 17394 bound_to 11000
  140.3487  134.7787  157.4451 LP  0  0  0  0  0  0  0  0  0  0  0  0  # atno 17395 bound_to 11000

$$$$
