AV-unprocessed.smi:21|AV-procd|sdf|160|dock4
  -GOLD-   2262015393D 1   1.00000     0.00000
 Structure written by MMmdl.
 61 64  0  0  0  0  0  0  0  0  1 V2000
  147.6779  130.7352  152.1474 C   0  0  0  0  0  0  0  0  0  0  0  0
  148.7324  131.5245  152.6753 O   0  0  0  0  0  0  0  0  0  0  0  0
  148.5145  131.9256  154.0206 C   0  0  2  0  0  0  0  0  0  0  0  0
  149.2136  133.2566  154.3439 C   0  0  0  0  0  0  0  0  0  0  0  0
  149.9724  132.9752  155.6480 C   0  0  2  0  0  0  0  0  0  0  0  0
  151.1605  133.9323  155.8990 C   0  0  0  0  0  0  0  0  0  0  0  0
  150.7514  135.2738  156.3176 N   0  0  0  0  0  0  0  0  0  0  0  0
  149.3431  135.6304  156.1745 C   0  0  0  0  0  0  0  0  0  0  0  0
  151.6748  136.2697  156.2510 C   0  0  0  0  0  0  0  0  0  0  0  0
  152.4141  136.4125  155.1180 N   0  0  0  0  0  0  0  0  0  0  0  0
  153.3628  137.3497  155.0398 C   0  0  0  0  0  0  0  0  0  0  0  0
  153.7336  138.2388  155.9616 N   0  0  0  0  0  0  0  0  0  0  0  0
  152.9835  138.1181  157.0933 C   0  0  0  0  0  0  0  0  0  0  0  0
  151.9364  137.1790  157.3172 C   0  0  0  0  0  0  0  0  0  0  0  0
  151.3850  137.3862  158.5769 N   0  0  0  0  0  0  0  0  0  0  0  0
  152.0782  138.3722  159.0755 C   0  0  0  0  0  0  0  0  0  0  0  0
  153.0798  138.8516  158.2629 N   0  0  0  0  0  0  0  0  0  0  0  0
  154.0052  139.9279  158.5683 C   0  0  0  0  0  0  0  0  0  0  0  0
  153.3303  141.2680  158.9763 C   0  0  1  0  0  0  0  0  0  0  0  0
  153.9312  141.7498  160.3194 C   0  0  0  0  0  0  0  0  0  0  0  0
  155.3329  141.5734  160.3505 O   0  0  0  0  0  0  0  0  0  0  0  0
  153.4364  142.3696  157.8782 C   0  0  2  0  0  0  0  0  0  0  0  0
  152.8178  143.7097  158.2498 C   0  0  0  0  0  0  0  0  0  0  0  0
  152.6575  144.3840  156.8954 C   0  0  0  0  0  0  0  0  0  0  0  0
  152.2841  143.3347  156.0183 O   0  0  0  0  0  0  0  0  0  0  0  0
  152.6909  142.0834  156.5625 C   0  0  0  0  0  0  0  0  0  0  0  0
  150.3469  131.5749  155.5333 N   0  0  0  0  0  0  0  0  0  0  0  0
  150.7723  130.9680  156.7877 C   0  0  0  0  0  0  0  0  0  0  0  0
  149.1693  130.9267  154.9835 C   0  0  0  0  0  0  0  0  0  0  0  0
  147.4456  131.9760  154.2363 H   0  0  0  0  0  0  0  0  0  0  0  0
  149.2640  133.0723  156.4725 H   0  0  0  0  0  0  0  0  0  0  0  0
  147.9092  130.4579  151.1192 H   0  0  0  0  0  0  0  0  0  0  0  0
  146.7322  131.2781  152.1431 H   0  0  0  0  0  0  0  0  0  0  0  0
  147.5491  129.8159  152.7200 H   0  0  0  0  0  0  0  0  0  0  0  0
  149.9183  133.5145  153.5513 H   0  0  0  0  0  0  0  0  0  0  0  0
  148.5036  134.0777  154.4407 H   0  0  0  0  0  0  0  0  0  0  0  0
  151.7904  133.5342  156.6939 H   0  0  0  0  0  0  0  0  0  0  0  0
  151.7971  133.9598  155.0175 H   0  0  0  0  0  0  0  0  0  0  0  0
  149.0834  136.4566  156.8373 H   0  0  0  0  0  0  0  0  0  0  0  0
  148.7066  134.7838  156.4329 H   0  0  0  0  0  0  0  0  0  0  0  0
  149.1172  135.9230  155.1486 H   0  0  0  0  0  0  0  0  0  0  0  0
  153.9071  137.3874  154.1079 H   0  0  0  0  0  0  0  0  0  0  0  0
  151.8885  138.7654  160.0636 H   0  0  0  0  0  0  0  0  0  0  0  0
  154.6523  139.5649  159.3670 H   0  0  0  0  0  0  0  0  0  0  0  0
  154.6514  140.0865  157.7040 H   0  0  0  0  0  0  0  0  0  0  0  0
  152.2699  141.0835  159.1529 H   0  0  0  0  0  0  0  0  0  0  0  0
  153.6945  142.7996  160.4960 H   0  0  0  0  0  0  0  0  0  0  0  0
  153.5335  141.1854  161.1615 H   0  0  0  0  0  0  0  0  0  0  0  0
  155.6037  141.1682  159.5407 H   0  0  0  0  0  0  0  0  0  0  0  0
  154.4893  142.5424  157.6490 H   0  0  0  0  0  0  0  0  0  0  0  0
  151.8405  143.5658  158.7125 H   0  0  0  0  0  0  0  0  0  0  0  0
  153.4366  144.2993  158.9266 H   0  0  0  0  0  0  0  0  0  0  0  0
  151.9150  145.1822  156.9047 H   0  0  0  0  0  0  0  0  0  0  0  0
  153.6079  144.8025  156.5617 H   0  0  0  0  0  0  0  0  0  0  0  0
  153.3142  141.5582  155.8405 H   0  0  0  0  0  0  0  0  0  0  0  0
  151.7957  141.4860  156.7363 H   0  0  0  0  0  0  0  0  0  0  0  0
  150.9781  129.9062  156.6483 H   0  0  0  0  0  0  0  0  0  0  0  0
  150.0039  131.0661  157.5558 H   0  0  0  0  0  0  0  0  0  0  0  0
  151.6859  131.4320  157.1585 H   0  0  0  0  0  0  0  0  0  0  0  0
  148.4630  130.7003  155.7842 H   0  0  0  0  0  0  0  0  0  0  0  0
  149.4248  129.9835  154.4999 H   0  0  0  0  0  0  0  0  0  0  0  0
  1  2  1  0  0  0  0
  1 32  1  0  0  0  0
  1 33  1  0  0  0  0
  1 34  1  0  0  0  0
  2  3  1  0  0  0  0
  3 30  1  0  0  0  0
  3 29  1  0  0  0  0
  3  4  1  0  0  0  0
  4  5  1  0  0  0  0
  4 35  1  0  0  0  0
  4 36  1  0  0  0  0
  5 31  1  0  0  0  0
  5  6  1  0  0  0  0
  5 27  1  0  0  0  0
  6  7  1  0  0  0  0
  6 37  1  0  0  0  0
  6 38  1  0  0  0  0
  7  8  1  0  0  0  0
  7  9  1  0  0  0  0
  8 39  1  0  0  0  0
  8 40  1  0  0  0  0
  8 41  1  0  0  0  0
  9 14  1  0  0  0  0
  9 10  2  0  0  0  0
 10 11  1  0  0  0  0
 11 12  2  0  0  0  0
 11 42  1  0  0  0  0
 12 13  1  0  0  0  0
 13 17  1  0  0  0  0
 13 14  2  0  0  0  0
 14 15  1  0  0  0  0
 15 16  2  0  0  0  0
 16 17  1  0  0  0  0
 16 43  1  0  0  0  0
 17 18  1  0  0  0  0
 18 19  1  0  0  0  0
 18 44  1  0  0  0  0
 18 45  1  0  0  0  0
 19 20  1  0  0  0  0
 19 22  1  0  0  0  0
 19 46  1  0  0  0  0
 20 21  1  0  0  0  0
 20 47  1  0  0  0  0
 20 48  1  0  0  0  0
 21 49  1  0  0  0  0
 22 26  1  0  0  0  0
 22 23  1  0  0  0  0
 22 50  1  0  0  0  0
 23 24  1  0  0  0  0
 23 51  1  0  0  0  0
 23 52  1  0  0  0  0
 24 25  1  0  0  0  0
 24 53  1  0  0  0  0
 24 54  1  0  0  0  0
 25 26  1  0  0  0  0
 26 55  1  0  0  0  0
 26 56  1  0  0  0  0
 27 28  1  0  0  0  0
 27 29  1  0  0  0  0
 28 57  1  0  0  0  0
 28 58  1  0  0  0  0
 28 59  1  0  0  0  0
 29 60  1  0  0  0  0
 29 61  1  0  0  0  0
M  END
> <s_m_source_file>
AV-unprocessed.smi

> <i_m_source_file_index>
21

> <i_lp_mmshare_version>
43012

> <i_f3d_flags>
0

> <s_epik_input>
W0NIM11PW0NASF0xW0NIMl1bQ0BIXShOKFtDSDNdKVtDSDJdMSlbQ0gyXU4oW0NIM10pYyhuW2NIXW4yKWMoYzIzKW5bY0hdbjNbQ0gyXVtDQEhdKFtDSDJdW09IXSlbQ0BASF00W0NIMl1bQ0gyXU9bQ0gyXTQ=

> <s_epik_cmdline>
J2VwaWtfcHl0aG9uJywgJy1waCcsICc3LjAnLCAnLXRuJywgJzgnLCAnLW1hJywgJzIwMCcsICctbWV0YWxfYmluZGluZycsICctaW1hZScsICc8aW5maWxlLm1hZT4nLCAnLW9tYWUnLCAnPG91dGZpbGUubWFlPic=

> <r_lp_tautomer_probability>
1

> <r_epik_Ionization_Penalty>
2.17574

> <r_epik_Ionization_Penalty_Charging>
0

> <r_epik_Ionization_Penalty_Neutral>
2.17574

> <r_epik_State_Penalty>
2.31336

> <r_epik_Charging_Adjusted_Penalty>
2.31336

> <i_epik_Tot_Q>
0

> <i_epik_Tot_abs_Q>
0

> <r_epik_Metal_State_Penalty>
2.31025

> <b_epik_Metal_Only>
0

> <s_lp_Force_Field>
OPLS_2005

> <r_lp_Energy>
69.8382

> <b_lp_Chiralities_Consistent>
1

> <s_lp_Variant>
AV-unprocessed.smi:21-40

> <Gold.Version>
5.8.1

> <Gold.Id.Protein>
6NUR|6NUR_protein|mol2

> <Gold.PLP.Fitness>
50.1769

> <Gold.PLP.PLP>
-48.7102

> <Gold.PLP.part.hbond>
-3.5479

> <Gold.PLP.part.metal>
0.0000

> <Gold.PLP.part.buried>
-7.2887

> <Gold.PLP.part.nonpolar>
-39.4856

> <Gold.PLP.part.repulsive>
0.3445

> <Gold.PLP.ligand.clash>
0.0000

> <Gold.PLP.ligand.torsion>
2.7344

> <Gold.PLP.Chemscore.Hbond>
2.0000

> <Gold.PLP.Chemscore.CHOScore>
0.0000

> <Gold.PLP.Chemscore.Metal>
0.0000

> <Gold.Chemscore.Hbonds>
donor molecule, donor type, donor heavy atom, donor atom, acceptor molecule, acceptor atom, score
      P1  H  7997  8010       L1    12  0.27
      P1  H 10752 10764       L1    10  0.07

> <Gold.PLP.Chemscore.Internal.Correction>
0.9354

> <Gold.Rescore>
     Score         DG    S(hbond)    S(metal)    S(lipo)     H(rot)  DE(clash)    DE(int)     intcor
     11.20     -16.22       1.77        0.00     106.84       3.00       2.08       2.94       ----

> <Gold.Chemscore.Fitness>
11.1966

> <Gold.Chemscore.DG>
-16.2185

> <Gold.Chemscore.ZeroCoef>
-5.4800

> <Gold.Chemscore.Hbond>
1.7744

> <Gold.Chemscore.Metal>
0.0000

> <Gold.Chemscore.Lipo>
106.8370

> <Gold.Chemscore.Internal_Hbond>
0.0000

> <Gold.Chemscore.DEClash>
2.0848

> <Gold.Chemscore.DEInternal>
2.9371

> <Gold.Chemscore.Rot>
3.0031

> <Gold.Chemscore.Internal.Correction>
   9.000000E+99

> <Gold.Chemscore.Hbonds>
donor molecule, donor type, donor heavy atom, donor atom, acceptor molecule, acceptor atom, score
      P1  H  7997  8010       L1    12  0.01

> <Gold.Chemscore.Hbond.Weighted>
-5.9265

> <Gold.Chemscore.Metal.Weighted>
-0.0000

> <Gold.Chemscore.Lipo.Weighted>
-12.4999

> <Gold.Chemscore.Internal_Hbond.Weighted>
0.0000

> <Gold.Chemscore.DEClash.Weighted>
2.0848

> <Gold.Chemscore.DEInternal.Weighted>
2.9371

> <Gold.Chemscore.Rot.Weighted>
7.6880

> <Gold.Chemscore.Internal.Correction.Weighted>
   9.000000E+99

> <Gold.Protein.RotatedTorsions>
[ 6907 6896 6895 6894 ] final  116.79 input  -60.11 | X-H torsion
[ 7974 7965 7964 7962 ] final  -53.71 input  175.53 | X-H torsion
[ 8008 7997 7996 7995 ] final   59.49 input   59.86 | X-H torsion
[ 10167 10162 10161 10158 ] final  162.34 input  -65.29 | X-H torsion
[ 10718 10713 10712 10709 ] final   87.35 input   66.30 | X-H torsion
[ 10763 10752 10751 10750 ] final   -5.23 input  -60.55 | X-H torsion
[ 11005 11000 10999 10996 ] final  -57.42 input  -57.11 | X-H torsion

> <Gold.Protein.ActiveResidues>
 VAL166  LYS551  ARG553  GLY616  TRP617  ASP618  TYR619  PRO620  LYS621  CYS622 
 ASP623  PHE694  ASN695  SER759  ASP760  ASP761  ALA762  ILE779  LEU786  VAL792 
 PHE793  MET794  SER795  GLU796  ALA797  LYS798  CYS799  TRP800  GLU811  SER814 

> <Gold.Protein.RotatedAtoms>
  152.4655  133.7913  159.6903 H   0  0  0  0  0  0  0  0  0  0  0  0  # atno 6907 bound_to 6896
  150.8617  133.7624  159.2996 H   0  0  0  0  0  0  0  0  0  0  0  0  # atno 6908 bound_to 6896
  151.5187  135.1070  159.9925 H   0  0  0  0  0  0  0  0  0  0  0  0  # atno 6909 bound_to 6896
  145.8938  140.8049  142.9778 H   0  0  0  0  0  0  0  0  0  0  0  0  # atno 7974 bound_to 7965
  155.5670  140.3489  155.4505 H   0  0  0  0  0  0  0  0  0  0  0  0  # atno 8008 bound_to 7997
  156.0472  140.1309  157.0116 H   0  0  0  0  0  0  0  0  0  0  0  0  # atno 8009 bound_to 7997
  154.4418  140.1012  156.6309 H   0  0  0  0  0  0  0  0  0  0  0  0  # atno 8010 bound_to 7997
  139.4859  144.4447  151.8907 H   0  0  0  0  0  0  0  0  0  0  0  0  # atno 10167 bound_to 10162
  157.6939  131.0252  150.3109 H   0  0  0  0  0  0  0  0  0  0  0  0  # atno 10718 bound_to 10713
  153.3957  135.7003  153.6462 H   0  0  0  0  0  0  0  0  0  0  0  0  # atno 10763 bound_to 10752
  153.5016  135.3651  155.2543 H   0  0  0  0  0  0  0  0  0  0  0  0  # atno 10764 bound_to 10752
  154.8706  135.4113  154.3282 H   0  0  0  0  0  0  0  0  0  0  0  0  # atno 10765 bound_to 10752
  141.1164  133.6610  156.4767 H   0  0  0  0  0  0  0  0  0  0  0  0  # atno 11005 bound_to 11000
  144.6732  140.1571  143.7425 LP  0  0  0  0  0  0  0  0  0  0  0  0  # atno 17320 bound_to 7965
  145.8876  139.2357  143.1569 LP  0  0  0  0  0  0  0  0  0  0  0  0  # atno 17321 bound_to 7965
  140.3900  144.2627  150.5900 LP  0  0  0  0  0  0  0  0  0  0  0  0  # atno 17342 bound_to 10162
  140.5154  143.2279  151.8470 LP  0  0  0  0  0  0  0  0  0  0  0  0  # atno 17343 bound_to 10162
  156.3611  130.3847  149.7251 LP  0  0  0  0  0  0  0  0  0  0  0  0  # atno 17370 bound_to 10713
  156.4696  130.7990  151.3009 LP  0  0  0  0  0  0  0  0  0  0  0  0  # atno 17371 bound_to 10713
  140.4634  134.6820  157.5096 LP  0  0  0  0  0  0  0  0  0  0  0  0  # atno 17394 bound_to 11000
  140.0089  134.6721  155.9412 LP  0  0  0  0  0  0  0  0  0  0  0  0  # atno 17395 bound_to 11000

$$$$
