AV-unprocessed.smi:2855|AV-procd|sdf|10977|dock1
  -GOLD-   2272015433D 1   1.00000     0.00000
 Structure written by MMmdl.
 47 48  0  0  0  0  0  0  0  0  1 V2000
  151.1889  144.9655  158.9833 C   0  0  0  0  0  0  0  0  0  0  0  0
  150.9282  143.5465  158.4578 C   0  0  2  0  0  0  0  0  0  0  0  0
  151.7371  142.4992  159.2388 C   0  0  0  0  0  0  0  0  0  0  0  0
  151.4819  141.0763  158.7173 C   0  0  0  0  0  0  0  0  0  0  0  0
  151.7903  140.9332  157.2053 C   0  0  1  0  0  0  0  0  0  0  0  0
  151.5592  139.4792  156.6858 C   0  0  0  0  0  0  0  0  0  0  0  0
  152.3216  138.4271  157.5141 C   0  0  0  0  0  0  0  0  0  0  0  0
  151.9370  139.3073  155.2014 C   0  0  0  0  0  0  0  0  0  0  0  0
  151.0112  142.0147  156.4034 C   0  0  1  0  0  0  0  0  0  0  0  0
  149.5823  141.7045  156.3605 N   0  0  0  0  0  0  0  0  0  0  0  0
  148.8551  141.5005  155.2524 C   0  0  0  0  0  0  0  0  0  0  0  0
  149.3037  141.6243  154.1124 O   0  0  0  0  0  0  0  0  0  0  0  0
  147.3903  141.1010  155.4683 C   0  0  0  0  0  0  0  0  0  0  0  0
  146.4666  142.1977  155.1466 N   0  0  0  0  0  0  0  0  0  0  0  0
  146.4316  142.7359  153.8681 C   0  0  0  0  0  0  0  0  0  0  0  0
  145.5972  143.7385  153.5042 C   0  0  0  0  0  0  0  0  0  0  0  0
  144.6682  144.3143  154.4708 C   0  0  0  0  0  0  0  0  0  0  0  0
  143.8754  145.2236  154.2371 O   0  0  0  0  0  0  0  0  0  0  0  0
  144.7320  143.7448  155.7454 N   0  0  0  0  0  0  0  0  0  0  0  0
  145.5887  142.7112  156.1271 C   0  0  0  0  0  0  0  0  0  0  0  0
  145.5613  142.2785  157.2791 O   0  0  0  0  0  0  0  0  0  0  0  0
  151.2427  143.4360  156.9554 C   0  0  0  0  0  0  0  0  0  0  0  0
  144.1051  144.1097  156.4475 H   0  0  0  0  0  0  0  0  0  0  0  0
  152.2373  145.2437  158.8723 H   0  0  0  0  0  0  0  0  0  0  0  0
  150.9333  145.0456  160.0401 H   0  0  0  0  0  0  0  0  0  0  0  0
  150.5909  145.7001  158.4433 H   0  0  0  0  0  0  0  0  0  0  0  0
  149.8682  143.3347  158.6039 H   0  0  0  0  0  0  0  0  0  0  0  0
  152.8020  142.7254  159.1668 H   0  0  0  0  0  0  0  0  0  0  0  0
  151.4833  142.5486  160.2984 H   0  0  0  0  0  0  0  0  0  0  0  0
  152.0987  140.3964  159.3026 H   0  0  0  0  0  0  0  0  0  0  0  0
  150.4464  140.7955  158.9137 H   0  0  0  0  0  0  0  0  0  0  0  0
  152.8514  141.1529  157.0762 H   0  0  0  0  0  0  0  0  0  0  0  0
  150.4979  139.2440  156.7753 H   0  0  0  0  0  0  0  0  0  0  0  0
  153.3876  138.6522  157.5570 H   0  0  0  0  0  0  0  0  0  0  0  0
  152.2123  137.4321  157.0815 H   0  0  0  0  0  0  0  0  0  0  0  0
  151.9481  138.3597  158.5350 H   0  0  0  0  0  0  0  0  0  0  0  0
  152.9722  139.5970  155.0196 H   0  0  0  0  0  0  0  0  0  0  0  0
  151.3003  139.8991  154.5447 H   0  0  0  0  0  0  0  0  0  0  0  0
  151.8233  138.2702  154.8849 H   0  0  0  0  0  0  0  0  0  0  0  0
  151.4017  142.0182  155.3850 H   0  0  0  0  0  0  0  0  0  0  0  0
  149.1208  141.5905  157.2514 H   0  0  0  0  0  0  0  0  0  0  0  0
  147.1402  140.2187  154.8748 H   0  0  0  0  0  0  0  0  0  0  0  0
  147.2746  140.7918  156.5080 H   0  0  0  0  0  0  0  0  0  0  0  0
  147.0989  142.3376  153.1169 H   0  0  0  0  0  0  0  0  0  0  0  0
  145.6158  144.1154  152.4918 H   0  0  0  0  0  0  0  0  0  0  0  0
  150.6447  144.1549  156.3937 H   0  0  0  0  0  0  0  0  0  0  0  0
  152.2838  143.7144  156.7862 H   0  0  0  0  0  0  0  0  0  0  0  0
  1  2  1  0  0  0  0
  1 24  1  0  0  0  0
  1 25  1  0  0  0  0
  1 26  1  0  0  0  0
  2 22  1  0  0  0  0
  2  3  1  0  0  0  0
  2 27  1  0  0  0  0
  3  4  1  0  0  0  0
  3 28  1  0  0  0  0
  3 29  1  0  0  0  0
  4  5  1  0  0  0  0
  4 30  1  0  0  0  0
  4 31  1  0  0  0  0
  5  6  1  0  0  0  0
  5  9  1  0  0  0  0
  5 32  1  0  0  0  0
  6  7  1  0  0  0  0
  6  8  1  0  0  0  0
  6 33  1  0  0  0  0
  7 34  1  0  0  0  0
  7 35  1  0  0  0  0
  7 36  1  0  0  0  0
  8 37  1  0  0  0  0
  8 38  1  0  0  0  0
  8 39  1  0  0  0  0
  9 10  1  0  0  0  0
  9 22  1  0  0  0  0
  9 40  1  0  0  0  0
 10 11  1  0  0  0  0
 10 41  1  0  0  0  0
 11 12  2  0  0  0  0
 11 13  1  0  0  0  0
 13 14  1  0  0  0  0
 13 42  1  0  0  0  0
 13 43  1  0  0  0  0
 14 20  1  0  0  0  0
 14 15  1  0  0  0  0
 15 16  2  0  0  0  0
 15 44  1  0  0  0  0
 16 17  1  0  0  0  0
 16 45  1  0  0  0  0
 17 18  2  0  0  0  0
 17 19  1  0  0  0  0
 19 23  1  0  0  0  0
 19 20  1  0  0  0  0
 20 21  2  0  0  0  0
 22 46  1  0  0  0  0
 22 47  1  0  0  0  0
M  END
> <s_m_source_file>
AV-unprocessed.smi

> <i_m_source_file_index>
2855

> <i_lp_mmshare_version>
43012

> <i_f3d_flags>
0

> <s_epik_input>
W0NIM11bQ0BASF0xW0NIMl1bQ0gyXVtDQEBIXShbQ0hdKFtDSDNdKVtDSDNdKVtDQEhdKFtDSDJdMSlbTkhdQyg9TylbQ0gyXW4yW2NIXVtjSF1jKD1PKVtuSF1jMj1P

> <s_epik_cmdline>
J2VwaWtfcHl0aG9uJywgJy1waCcsICc3LjAnLCAnLXRuJywgJzgnLCAnLW1hJywgJzIwMCcsICctbWV0YWxfYmluZGluZycsICctaW1hZScsICc8aW5maWxlLm1hZT4nLCAnLW9tYWUnLCAnPG91dGZpbGUubWFlPic=

> <r_lp_tautomer_probability>
0.999537

> <r_epik_Ionization_Penalty>
0.00306256

> <r_epik_Ionization_Penalty_Charging>
0.00306254

> <r_epik_Ionization_Penalty_Neutral>
2.0223e-08

> <r_epik_State_Penalty>
0.0021533

> <r_epik_Charging_Adjusted_Penalty>
0.00521583

> <i_epik_Tot_Q>
0

> <i_epik_Tot_abs_Q>
0

> <r_epik_Metal_State_Penalty>
0.362116

> <b_epik_Metal_Only>
0

> <s_lp_Force_Field>
OPLS_2005

> <r_lp_Energy>
12.8991

> <b_lp_Chiralities_Consistent>
1

> <s_lp_Variant>
AV-unprocessed.smi:2855-1

> <Gold.Version>
5.8.1

> <Gold.Id.Protein>
6NUR|6NUR_protein|mol2

> <Gold.PLP.Fitness>
41.5819

> <Gold.PLP.PLP>
-40.0693

> <Gold.PLP.part.hbond>
-2.4716

> <Gold.PLP.part.metal>
0.0000

> <Gold.PLP.part.buried>
-5.4474

> <Gold.PLP.part.nonpolar>
-32.1346

> <Gold.PLP.part.repulsive>
0.3888

> <Gold.PLP.ligand.clash>
0.0000

> <Gold.PLP.ligand.torsion>
0.1791

> <Gold.PLP.Chemscore.Hbond>
0.6080

> <Gold.PLP.Chemscore.CHOScore>
0.0000

> <Gold.PLP.Chemscore.Metal>
0.0000

> <Gold.Chemscore.Hbonds>
donor molecule, donor type, donor heavy atom, donor atom, acceptor molecule, acceptor atom, score
      P1  H  8011  8017       L1    12  0.59

> <Gold.PLP.Chemscore.Internal.Correction>
0.0468

> <Gold.Rescore>
     Score         DG    S(hbond)    S(metal)    S(lipo)     H(rot)  DE(clash)    DE(int)     intcor
     14.20     -14.79       0.75        0.00      98.83       1.85       0.41       0.19       ----

> <Gold.Chemscore.Fitness>
14.1956

> <Gold.Chemscore.DG>
-14.7934

> <Gold.Chemscore.ZeroCoef>
-5.4800

> <Gold.Chemscore.Hbond>
0.7475

> <Gold.Chemscore.Metal>
0.0000

> <Gold.Chemscore.Lipo>
98.8278

> <Gold.Chemscore.Internal_Hbond>
0.0000

> <Gold.Chemscore.DEClash>
0.4086

> <Gold.Chemscore.DEInternal>
0.1892

> <Gold.Chemscore.Rot>
1.8539

> <Gold.Chemscore.Internal.Correction>
   9.000000E+99

> <Gold.Chemscore.Hbonds>
donor molecule, donor type, donor heavy atom, donor atom, acceptor molecule, acceptor atom, score
      P1  H  8011  8017       L1    12  0.58

> <Gold.Chemscore.Hbond.Weighted>
-2.4965

> <Gold.Chemscore.Metal.Weighted>
-0.0000

> <Gold.Chemscore.Lipo.Weighted>
-11.5629

> <Gold.Chemscore.Internal_Hbond.Weighted>
0.0000

> <Gold.Chemscore.DEClash.Weighted>
0.4086

> <Gold.Chemscore.DEInternal.Weighted>
0.1892

> <Gold.Chemscore.Rot.Weighted>
4.7460

> <Gold.Chemscore.Internal.Correction.Weighted>
   9.000000E+99

> <Gold.Protein.RotatedTorsions>
[ 6907 6896 6895 6894 ] final  154.49 input  -60.11 | X-H torsion
[ 7974 7965 7964 7962 ] final -151.23 input  175.53 | X-H torsion
[ 8008 7997 7996 7995 ] final  137.46 input   59.86 | X-H torsion
[ 10167 10162 10161 10158 ] final   57.33 input  -65.29 | X-H torsion
[ 10718 10713 10712 10709 ] final   87.65 input   66.30 | X-H torsion
[ 10763 10752 10751 10750 ] final  -89.10 input  -60.55 | X-H torsion
[ 11005 11000 10999 10996 ] final -145.34 input  -57.11 | X-H torsion

> <Gold.Protein.ActiveResidues>
 VAL166  LYS551  ARG553  GLY616  TRP617  ASP618  TYR619  PRO620  LYS621  CYS622 
 ASP623  PHE694  ASN695  SER759  ASP760  ASP761  ALA762  ILE779  LEU786  VAL792 
 PHE793  MET794  SER795  GLU796  ALA797  LYS798  CYS799  TRP800  GLU811  SER814 

> <Gold.Protein.RotatedAtoms>
  152.0577  133.4047  159.4403 H   0  0  0  0  0  0  0  0  0  0  0  0  # atno 6907 bound_to 6896
  150.6867  134.3236  159.4806 H   0  0  0  0  0  0  0  0  0  0  0  0  # atno 6908 bound_to 6896
  152.1054  134.9312  160.0619 H   0  0  0  0  0  0  0  0  0  0  0  0  # atno 6909 bound_to 6896
  144.7862  140.4826  143.5805 H   0  0  0  0  0  0  0  0  0  0  0  0  # atno 7974 bound_to 7965
  156.3002  140.2419  156.3913 H   0  0  0  0  0  0  0  0  0  0  0  0  # atno 8008 bound_to 7997
  154.8611  140.0420  157.1686 H   0  0  0  0  0  0  0  0  0  0  0  0  # atno 8009 bound_to 7997
  154.8895  140.2961  155.5382 H   0  0  0  0  0  0  0  0  0  0  0  0  # atno 8010 bound_to 7997
  140.1991  144.4006  150.6537 H   0  0  0  0  0  0  0  0  0  0  0  0  # atno 10167 bound_to 10162
  157.6942  131.0264  150.3156 H   0  0  0  0  0  0  0  0  0  0  0  0  # atno 10718 bound_to 10713
  154.6516  135.5353  153.7909 H   0  0  0  0  0  0  0  0  0  0  0  0  # atno 10763 bound_to 10752
  153.0390  135.6484  154.1007 H   0  0  0  0  0  0  0  0  0  0  0  0  # atno 10764 bound_to 10752
  154.0924  135.2939  155.3248 H   0  0  0  0  0  0  0  0  0  0  0  0  # atno 10765 bound_to 10752
  140.7932  134.2943  157.5006 H   0  0  0  0  0  0  0  0  0  0  0  0  # atno 11005 bound_to 11000
  145.5916  139.1496  143.3179 LP  0  0  0  0  0  0  0  0  0  0  0  0  # atno 17320 bound_to 7965
  146.2094  140.6042  142.9066 LP  0  0  0  0  0  0  0  0  0  0  0  0  # atno 17321 bound_to 7965
  140.6403  143.2202  151.6305 LP  0  0  0  0  0  0  0  0  0  0  0  0  # atno 17342 bound_to 10162
  139.5224  144.3163  152.0949 LP  0  0  0  0  0  0  0  0  0  0  0  0  # atno 17343 bound_to 10162
  156.3650  130.3853  149.7220 LP  0  0  0  0  0  0  0  0  0  0  0  0  # atno 17370 bound_to 10713
  156.4654  130.7971  151.2991 LP  0  0  0  0  0  0  0  0  0  0  0  0  # atno 17371 bound_to 10713
  139.8729  134.9387  156.3721 LP  0  0  0  0  0  0  0  0  0  0  0  0  # atno 17394 bound_to 11000
  140.9368  133.7541  156.0095 LP  0  0  0  0  0  0  0  0  0  0  0  0  # atno 17395 bound_to 11000

$$$$
