AV-unprocessed.smi:1196|AV-procd|sdf|5004|dock5
  -GOLD-   22720 4 13D 1   1.00000     0.00000
 Structure written by MMmdl.
 36 37  0  0  0  0  0  0  0  0  2 V2000
  150.8612  140.3645  157.0174 C   0  0  0  0  0  0  0  0  0  0  0  0
  150.3584  141.8062  156.8630 C   0  0  2  0  0  0  0  0  0  0  0  0
  149.9231  142.4009  158.2193 C   0  0  0  0  0  0  0  0  0  0  0  0
  150.8665  143.3826  158.7273 N   0  0  0  0  0  0  0  0  0  0  0  0
  151.3263  144.5275  158.1116 C   0  0  0  0  0  0  0  0  0  0  0  0
  152.1762  145.1446  158.9841 C   0  0  0  0  0  0  0  0  0  0  0  0
  152.1747  144.2885  160.1207 C   0  0  0  0  0  0  0  0  0  0  0  0
  151.3950  143.2313  159.9613 N   0  0  0  0  0  0  0  0  0  0  0  0
  149.2494  141.8281  155.9097 N   0  0  0  0  0  0  0  0  0  0  0  0
  149.2359  141.2200  154.7126 C   0  0  0  0  0  0  0  0  0  0  0  0
  150.1492  140.5016  154.3053 O   0  0  0  0  0  0  0  0  0  0  0  0
  148.0131  141.4790  153.8314 C   0  0  0  0  0  0  0  0  0  0  0  0
  147.2659  140.1757  153.4933 C   0  0  0  0  0  0  0  0  0  0  0  0
  146.2934  139.7339  154.6039 C   0  0  2  0  0  0  0  0  0  0  0  0
  145.2030  140.6741  154.7484 N   0  0  0  0  0  0  0  0  0  0  0  0
  145.1484  141.1680  155.9837 C   0  0  0  0  0  0  0  0  0  0  0  0
  144.2817  141.9716  156.3208 O   0  0  0  0  0  0  0  0  0  0  0  0
  146.1484  140.6616  156.7309 N   0  5  0  0  0  0  0  0  0  0  0  0
  146.8973  139.8024  156.0062 C   0  0  0  0  0  0  0  0  0  0  0  0
  147.8869  139.1454  156.3253 O   0  0  0  0  0  0  0  0  0  0  0  0
  151.7101  140.3170  157.6998 H   0  0  0  0  0  0  0  0  0  0  0  0
  151.1873  139.9575  156.0597 H   0  0  0  0  0  0  0  0  0  0  0  0
  150.0817  139.7108  157.4103 H   0  0  0  0  0  0  0  0  0  0  0  0
  151.1921  142.3966  156.4787 H   0  0  0  0  0  0  0  0  0  0  0  0
  148.9362  142.8603  158.1378 H   0  0  0  0  0  0  0  0  0  0  0  0
  149.8351  141.6083  158.9632 H   0  0  0  0  0  0  0  0  0  0  0  0
  151.0071  144.8081  157.1187 H   0  0  0  0  0  0  0  0  0  0  0  0
  152.7141  146.0689  158.8349 H   0  0  0  0  0  0  0  0  0  0  0  0
  152.7139  144.4025  161.0496 H   0  0  0  0  0  0  0  0  0  0  0  0
  148.4531  142.3988  156.1539 H   0  0  0  0  0  0  0  0  0  0  0  0
  147.3513  142.1694  154.3547 H   0  0  0  0  0  0  0  0  0  0  0  0
  148.3202  141.9765  152.9101 H   0  0  0  0  0  0  0  0  0  0  0  0
  146.7022  140.3247  152.5705 H   0  0  0  0  0  0  0  0  0  0  0  0
  147.9796  139.3763  153.2854 H   0  0  0  0  0  0  0  0  0  0  0  0
  145.9062  138.7310  154.4196 H   0  0  0  0  0  0  0  0  0  0  0  0
  144.5601  140.9027  154.0049 H   0  0  0  0  0  0  0  0  0  0  0  0
  1  2  1  0  0  0  0
  1 21  1  0  0  0  0
  1 22  1  0  0  0  0
  1 23  1  0  0  0  0
  2  3  1  0  0  0  0
  2  9  1  0  0  0  0
  2 24  1  0  0  0  0
  3  4  1  0  0  0  0
  3 25  1  0  0  0  0
  3 26  1  0  0  0  0
  4  8  1  0  0  0  0
  4  5  1  0  0  0  0
  5  6  2  0  0  0  0
  5 27  1  0  0  0  0
  6  7  1  0  0  0  0
  6 28  1  0  0  0  0
  7  8  2  0  0  0  0
  7 29  1  0  0  0  0
  9 10  1  0  0  0  0
  9 30  1  0  0  0  0
 10 11  2  0  0  0  0
 10 12  1  0  0  0  0
 12 13  1  0  0  0  0
 12 31  1  0  0  0  0
 12 32  1  0  0  0  0
 13 14  1  0  0  0  0
 13 33  1  0  0  0  0
 13 34  1  0  0  0  0
 14 19  1  0  0  0  0
 14 15  1  0  0  0  0
 14 35  1  0  0  0  0
 15 16  1  0  0  0  0
 15 36  1  0  0  0  0
 16 17  2  0  0  0  0
 16 18  1  0  0  0  0
 18 19  1  0  0  0  0
 19 20  2  0  0  0  0
M  CHG  1  18  -1
M  END
> <s_m_source_file>
AV-unprocessed.smi

> <i_m_source_file_index>
1196

> <i_lp_mmshare_version>
43012

> <i_f3d_flags>
0

> <s_epik_input>
bjFbY0hdW2NIXVtjSF1uMVtDSDJdW0NAQEhdKFtDSDNdKVtOSF1DKD1PKVtDSDJdW0NIMl1bQ0BASF0yW05IXUMoPU8pW05IXUMyPU8=

> <s_epik_cmdline>
J2VwaWtfcHl0aG9uJywgJy1waCcsICc3LjAnLCAnLXRuJywgJzgnLCAnLW1hJywgJzIwMCcsICctbWV0YWxfYmluZGluZycsICctaW1hZScsICc8aW5maWxlLm1hZT4nLCAnLW9tYWUnLCAnPG91dGZpbGUubWFlPic=

> <r_lp_tautomer_probability>
1

> <r_epik_Ionization_Penalty>
2.57056

> <r_epik_Ionization_Penalty_Charging>
2.57023

> <r_epik_Ionization_Penalty_Neutral>
0.000331301

> <r_epik_State_Penalty>
2.56828

> <r_epik_Charging_Adjusted_Penalty>
5.13851

> <i_epik_Tot_Q>
-1

> <i_epik_Tot_abs_Q>
1

> <r_epik_Metal_State_Penalty>
0.444883

> <b_epik_Metal_Only>
1

> <s_lp_Force_Field>
OPLS_2005

> <r_lp_Energy>
6.89561

> <b_lp_Chiralities_Consistent>
1

> <s_lp_Variant>
AV-unprocessed.smi:1196-9

> <Gold.Version>
5.8.1

> <Gold.Id.Protein>
6NUR|6NUR_protein|mol2

> <Gold.PLP.Fitness>
41.2826

> <Gold.PLP.PLP>
-34.4890

> <Gold.PLP.part.hbond>
-3.0000

> <Gold.PLP.part.metal>
0.0000

> <Gold.PLP.part.buried>
-5.9889

> <Gold.PLP.part.nonpolar>
-26.6136

> <Gold.PLP.part.repulsive>
0.3156

> <Gold.PLP.ligand.clash>
0.0000

> <Gold.PLP.ligand.torsion>
0.9895

> <Gold.PLP.Chemscore.Hbond>
1.8874

> <Gold.PLP.Chemscore.CHOScore>
0.9993

> <Gold.PLP.Chemscore.Metal>
0.0000

> <Gold.Chemscore.Hbonds>
donor molecule, donor type, donor heavy atom, donor atom, acceptor molecule, acceptor atom, score
      L1  H     9    30       P1  8028  0.01
      L1  H    15    36       P1 10175  1.00
      P1  H  7989  7998       L1    11  0.86
      L1  C     5    27       P1  8028  0.99

> <Gold.PLP.Chemscore.Internal.Correction>
0.1125

> <Gold.Rescore>
     Score         DG    S(hbond)    S(metal)    S(lipo)     H(rot)  DE(clash)    DE(int)     intcor
     11.31     -13.53       1.98        0.00      75.63       2.89       0.09       2.13       ----

> <Gold.Chemscore.Fitness>
11.3108

> <Gold.Chemscore.DG>
-13.5338

> <Gold.Chemscore.ZeroCoef>
-5.4800

> <Gold.Chemscore.Hbond>
1.9806

> <Gold.Chemscore.Metal>
0.0000

> <Gold.Chemscore.Lipo>
75.6312

> <Gold.Chemscore.Internal_Hbond>
0.0000

> <Gold.Chemscore.DEClash>
0.0898

> <Gold.Chemscore.DEInternal>
2.1332

> <Gold.Chemscore.Rot>
2.8946

> <Gold.Chemscore.Internal.Correction>
   9.000000E+99

> <Gold.Chemscore.Hbonds>
donor molecule, donor type, donor heavy atom, donor atom, acceptor molecule, acceptor atom, score
      L1  H     9    30       P1  8028  0.02
      L1  H    15    36       P1 10175  0.90
      P1  H  7989  7998       L1    11  0.85

> <Gold.Chemscore.Hbond.Weighted>
-6.6151

> <Gold.Chemscore.Metal.Weighted>
-0.0000

> <Gold.Chemscore.Lipo.Weighted>
-8.8489

> <Gold.Chemscore.Internal_Hbond.Weighted>
0.0000

> <Gold.Chemscore.DEClash.Weighted>
0.0898

> <Gold.Chemscore.DEInternal.Weighted>
2.1332

> <Gold.Chemscore.Rot.Weighted>
7.4101

> <Gold.Chemscore.Internal.Correction.Weighted>
   9.000000E+99

> <Gold.Protein.RotatedTorsions>
[ 6907 6896 6895 6894 ] final   -5.63 input  -60.11 | X-H torsion
[ 7974 7965 7964 7962 ] final   74.03 input  175.53 | X-H torsion
[ 8008 7997 7996 7995 ] final  -40.94 input   59.86 | X-H torsion
[ 10167 10162 10161 10158 ] final -149.94 input  -65.29 | X-H torsion
[ 10718 10713 10712 10709 ] final  -32.45 input   66.30 | X-H torsion
[ 10763 10752 10751 10750 ] final -155.37 input  -60.55 | X-H torsion
[ 11005 11000 10999 10996 ] final   48.80 input  -57.11 | X-H torsion

> <Gold.Protein.ActiveResidues>
 VAL166  LYS551  ARG553  GLY616  TRP617  ASP618  TYR619  PRO620  LYS621  CYS622 
 ASP623  PHE694  ASN695  SER759  ASP760  ASP761  ALA762  ILE779  LEU786  VAL792 
 PHE793  MET794  SER795  GLU796  ALA797  LYS798  CYS799  TRP800  GLU811  SER814 

> <Gold.Protein.RotatedAtoms>
  151.4784  135.1050  159.9770 H   0  0  0  0  0  0  0  0  0  0  0  0  # atno 6907 bound_to 6896
  152.4789  133.8201  159.7059 H   0  0  0  0  0  0  0  0  0  0  0  0  # atno 6908 bound_to 6896
  150.8846  133.7264  159.2948 H   0  0  0  0  0  0  0  0  0  0  0  0  # atno 6909 bound_to 6896
  145.7333  139.2692  143.1528 H   0  0  0  0  0  0  0  0  0  0  0  0  # atno 7974 bound_to 7965
  154.4008  140.1512  156.3109 H   0  0  0  0  0  0  0  0  0  0  0  0  # atno 8008 bound_to 7997
  155.8616  140.3453  155.5739 H   0  0  0  0  0  0  0  0  0  0  0  0  # atno 8009 bound_to 7997
  155.7873  140.0852  157.2018 H   0  0  0  0  0  0  0  0  0  0  0  0  # atno 8010 bound_to 7997
  139.7398  143.8679  152.2559 H   0  0  0  0  0  0  0  0  0  0  0  0  # atno 10167 bound_to 10162
  156.3747  130.4345  149.7516 H   0  0  0  0  0  0  0  0  0  0  0  0  # atno 10718 bound_to 10713
  154.7792  135.3169  154.8027 H   0  0  0  0  0  0  0  0  0  0  0  0  # atno 10763 bound_to 10752
  153.8743  135.6841  153.4776 H   0  0  0  0  0  0  0  0  0  0  0  0  # atno 10764 bound_to 10752
  153.1423  135.4734  154.9451 H   0  0  0  0  0  0  0  0  0  0  0  0  # atno 10765 bound_to 10752
  140.1159  134.4894  155.8638 H   0  0  0  0  0  0  0  0  0  0  0  0  # atno 11005 bound_to 11000
  146.0516  140.8063  142.9778 LP  0  0  0  0  0  0  0  0  0  0  0  0  # atno 17320 bound_to 7965
  144.6887  140.3062  143.7255 LP  0  0  0  0  0  0  0  0  0  0  0  0  # atno 17321 bound_to 7965
  139.8626  144.7109  150.9081 LP  0  0  0  0  0  0  0  0  0  0  0  0  # atno 17342 bound_to 10162
  140.7784  143.3804  151.1486 LP  0  0  0  0  0  0  0  0  0  0  0  0  # atno 17343 bound_to 10162
  156.4630  130.7961  151.2980 LP  0  0  0  0  0  0  0  0  0  0  0  0  # atno 17370 bound_to 10713
  157.7487  131.0060  150.3134 LP  0  0  0  0  0  0  0  0  0  0  0  0  # atno 17371 bound_to 10713
  141.2141  133.6743  156.6794 LP  0  0  0  0  0  0  0  0  0  0  0  0  # atno 17394 bound_to 11000
  140.3029  134.8149  157.4113 LP  0  0  0  0  0  0  0  0  0  0  0  0  # atno 17395 bound_to 11000

$$$$
