AV-unprocessed.smi:2022|AV-procd|sdf|8188|dock9
  -GOLD-   2272010443D 1   1.00000     0.00000
 Structure written by MMmdl.
 34 35  0  0  0  0  0  0  0  0  1 V2000
  146.9470  142.4926  154.2477 C   0  0  0  0  0  0  0  0  0  0  0  0
  146.7848  141.0155  154.1348 C   0  0  0  0  0  0  0  0  0  0  0  0
  147.0646  140.1226  153.1390 C   0  0  0  0  0  0  0  0  0  0  0  0
  146.6670  138.8806  153.7018 C   0  0  0  0  0  0  0  0  0  0  0  0
  146.8003  137.6740  152.9689 N   0  0  0  0  0  0  0  0  0  0  0  0
  145.8369  136.7849  152.6735 C   0  0  0  0  0  0  0  0  0  0  0  0
  144.6539  136.8849  153.0007 O   0  0  0  0  0  0  0  0  0  0  0  0
  146.3257  135.7552  151.9667 N   0  0  0  0  0  0  0  0  0  0  0  0
  145.5623  134.5923  151.5109 C   0  0  1  0  0  0  0  0  0  0  0  0
  146.4948  133.5875  150.7975 C   0  0  0  0  0  0  0  0  0  0  0  0
  145.7684  132.6377  149.8309 C   0  0  0  0  0  0  0  0  0  0  0  0
  144.7390  131.7063  150.4885 C   0  0  0  0  0  0  0  0  0  0  0  0
  143.5389  132.4469  151.1032 C   0  0  0  0  0  0  0  0  0  0  0  0
  143.8477  133.0280  152.4038 N   0  0  0  0  0  0  0  0  0  0  0  0
  144.7486  133.9859  152.6698 C   0  0  0  0  0  0  0  0  0  0  0  0
  144.9291  134.3696  153.8253 O   0  0  0  0  0  0  0  0  0  0  0  0
  146.1846  139.0047  154.9290 N   0  0  0  0  0  0  0  0  0  0  0  0
  146.2585  140.3735  155.2129 O   0  0  0  0  0  0  0  0  0  0  0  0
  147.2411  142.9262  153.2917 H   0  0  0  0  0  0  0  0  0  0  0  0
  147.7138  142.7407  154.9815 H   0  0  0  0  0  0  0  0  0  0  0  0
  146.0137  142.9623  154.5589 H   0  0  0  0  0  0  0  0  0  0  0  0
  147.4877  140.3276  152.1669 H   0  0  0  0  0  0  0  0  0  0  0  0
  147.7303  137.4623  152.6390 H   0  0  0  0  0  0  0  0  0  0  0  0
  147.3114  135.7546  151.7481 H   0  0  0  0  0  0  0  0  0  0  0  0
  144.8324  134.9593  150.7867 H   0  0  0  0  0  0  0  0  0  0  0  0
  147.2394  134.1313  150.2148 H   0  0  0  0  0  0  0  0  0  0  0  0
  147.0604  133.0136  151.5330 H   0  0  0  0  0  0  0  0  0  0  0  0
  145.2830  133.2201  149.0469 H   0  0  0  0  0  0  0  0  0  0  0  0
  146.5149  132.0249  149.3248 H   0  0  0  0  0  0  0  0  0  0  0  0
  144.3647  131.0263  149.7224 H   0  0  0  0  0  0  0  0  0  0  0  0
  145.2199  131.0753  151.2371 H   0  0  0  0  0  0  0  0  0  0  0  0
  143.1557  133.2105  150.4248 H   0  0  0  0  0  0  0  0  0  0  0  0
  142.7243  131.7389  151.2573 H   0  0  0  0  0  0  0  0  0  0  0  0
  143.3337  132.6551  153.1889 H   0  0  0  0  0  0  0  0  0  0  0  0
  1  2  1  0  0  0  0
  1 19  1  0  0  0  0
  1 20  1  0  0  0  0
  1 21  1  0  0  0  0
  2 18  1  0  0  0  0
  2  3  2  0  0  0  0
  3  4  1  0  0  0  0
  3 22  1  0  0  0  0
  4  5  1  0  0  0  0
  4 17  2  0  0  0  0
  5  6  1  0  0  0  0
  5 23  1  0  0  0  0
  6  7  2  0  0  0  0
  6  8  1  0  0  0  0
  8  9  1  0  0  0  0
  8 24  1  0  0  0  0
  9 15  1  0  0  0  0
  9 10  1  0  0  0  0
  9 25  1  0  0  0  0
 10 11  1  0  0  0  0
 10 26  1  0  0  0  0
 10 27  1  0  0  0  0
 11 12  1  0  0  0  0
 11 28  1  0  0  0  0
 11 29  1  0  0  0  0
 12 13  1  0  0  0  0
 12 30  1  0  0  0  0
 12 31  1  0  0  0  0
 13 14  1  0  0  0  0
 13 32  1  0  0  0  0
 13 33  1  0  0  0  0
 14 15  1  0  0  0  0
 14 34  1  0  0  0  0
 15 16  2  0  0  0  0
 17 18  1  0  0  0  0
M  END
> <s_m_source_file>
AV-unprocessed.smi

> <i_m_source_file_index>
2022

> <i_lp_mmshare_version>
43012

> <i_f3d_flags>
0

> <s_epik_input>
W0NIM11jMVtjSF1jKG5vMSlbTkhdQyg9TylbTkhdW0NAQEhdMltDSDJdW0NIMl1bQ0gyXVtDSDJdW05IXUMyPU8=

> <s_epik_cmdline>
J2VwaWtfcHl0aG9uJywgJy1waCcsICc3LjAnLCAnLXRuJywgJzgnLCAnLW1hJywgJzIwMCcsICctbWV0YWxfYmluZGluZycsICctaW1hZScsICc8aW5maWxlLm1hZT4nLCAnLW9tYWUnLCAnPG91dGZpbGUubWFlPic=

> <r_lp_tautomer_probability>
1

> <r_epik_Ionization_Penalty>
2.27343e-05

> <r_epik_Ionization_Penalty_Charging>
0

> <r_epik_Ionization_Penalty_Neutral>
2.27343e-05

> <r_epik_State_Penalty>
-0

> <r_epik_Charging_Adjusted_Penalty>
0

> <i_epik_Tot_Q>
0

> <i_epik_Tot_abs_Q>
0

> <r_epik_Metal_State_Penalty>
-0

> <b_epik_Metal_Only>
0

> <s_lp_Force_Field>
OPLS_2005

> <r_lp_Energy>
7.86792

> <b_lp_Chiralities_Consistent>
1

> <s_lp_Variant>
AV-unprocessed.smi:2022-2

> <Gold.Version>
5.8.1

> <Gold.Id.Protein>
6NUR|6NUR_protein|mol2

> <Gold.PLP.Fitness>
36.3942

> <Gold.PLP.PLP>
-28.5394

> <Gold.PLP.part.hbond>
-3.0000

> <Gold.PLP.part.metal>
0.0000

> <Gold.PLP.part.buried>
-3.9345

> <Gold.PLP.part.nonpolar>
-22.0573

> <Gold.PLP.part.repulsive>
0.4957

> <Gold.PLP.ligand.clash>
0.0000

> <Gold.PLP.ligand.torsion>
0.5732

> <Gold.PLP.Chemscore.Hbond>
2.9913

> <Gold.PLP.Chemscore.CHOScore>
0.0000

> <Gold.PLP.Chemscore.Metal>
0.0000

> <Gold.Chemscore.Hbonds>
donor molecule, donor type, donor heavy atom, donor atom, acceptor molecule, acceptor atom, score
      L1  H     5    23       P1  7948  1.00
      L1  H     8    24       P1  7948  1.00
      L1  H    14    34       P1 10957  1.00

> <Gold.PLP.Chemscore.Internal.Correction>
0.0275

> <Gold.Rescore>
     Score         DG    S(hbond)    S(metal)    S(lipo)     H(rot)  DE(clash)    DE(int)     intcor
     15.02     -18.34       2.51        0.00      60.28       1.00       0.73       2.59       ----

> <Gold.Chemscore.Fitness>
15.0193

> <Gold.Chemscore.DG>
-18.3398

> <Gold.Chemscore.ZeroCoef>
-5.4800

> <Gold.Chemscore.Hbond>
2.5051

> <Gold.Chemscore.Metal>
0.0000

> <Gold.Chemscore.Lipo>
60.2808

> <Gold.Chemscore.Internal_Hbond>
0.0000

> <Gold.Chemscore.DEClash>
0.7310

> <Gold.Chemscore.DEInternal>
2.5894

> <Gold.Chemscore.Rot>
1.0000

> <Gold.Chemscore.Internal.Correction>
   9.000000E+99

> <Gold.Chemscore.Hbonds>
donor molecule, donor type, donor heavy atom, donor atom, acceptor molecule, acceptor atom, score
      L1  H     5    23       P1  7948  0.94
      L1  H     8    24       P1  7948  0.99
      L1  H    14    34       P1 10957  0.30

> <Gold.Chemscore.Hbond.Weighted>
-8.3669

> <Gold.Chemscore.Metal.Weighted>
-0.0000

> <Gold.Chemscore.Lipo.Weighted>
-7.0529

> <Gold.Chemscore.Internal_Hbond.Weighted>
0.0000

> <Gold.Chemscore.DEClash.Weighted>
0.7310

> <Gold.Chemscore.DEInternal.Weighted>
2.5894

> <Gold.Chemscore.Rot.Weighted>
2.5600

> <Gold.Chemscore.Internal.Correction.Weighted>
   9.000000E+99

> <Gold.Protein.RotatedTorsions>
[ 6907 6896 6895 6894 ] final  111.37 input  -60.11 | X-H torsion
[ 7974 7965 7964 7962 ] final  -83.20 input  175.53 | X-H torsion
[ 8008 7997 7996 7995 ] final   33.38 input   59.86 | X-H torsion
[ 10167 10162 10161 10158 ] final  144.70 input  -65.29 | X-H torsion
[ 10718 10713 10712 10709 ] final   27.60 input   66.30 | X-H torsion
[ 10763 10752 10751 10750 ] final   47.87 input  -60.55 | X-H torsion
[ 11005 11000 10999 10996 ] final  154.84 input  -57.11 | X-H torsion

> <Gold.Protein.ActiveResidues>
 VAL166  LYS551  ARG553  GLY616  TRP617  ASP618  TYR619  PRO620  LYS621  CYS622 
 ASP623  PHE694  ASN695  SER759  ASP760  ASP761  ALA762  ILE779  LEU786  VAL792 
 PHE793  MET794  SER795  GLU796  ALA797  LYS798  CYS799  TRP800  GLU811  SER814 

> <Gold.Protein.RotatedAtoms>
  152.4973  133.8668  159.7277 H   0  0  0  0  0  0  0  0  0  0  0  0  # atno 6907 bound_to 6896
  150.9165  133.6924  159.2849 H   0  0  0  0  0  0  0  0  0  0  0  0  # atno 6908 bound_to 6896
  151.4315  135.1014  159.9696 H   0  0  0  0  0  0  0  0  0  0  0  0  # atno 6909 bound_to 6896
  145.5231  140.9529  143.1644 H   0  0  0  0  0  0  0  0  0  0  0  0  # atno 7974 bound_to 7965
  155.1376  140.3263  155.4459 H   0  0  0  0  0  0  0  0  0  0  0  0  # atno 8008 bound_to 7997
  156.2615  140.1999  156.6443 H   0  0  0  0  0  0  0  0  0  0  0  0  # atno 8009 bound_to 7997
  154.6566  140.0552  157.0002 H   0  0  0  0  0  0  0  0  0  0  0  0  # atno 8010 bound_to 7997
  139.4941  144.5953  151.6595 H   0  0  0  0  0  0  0  0  0  0  0  0  # atno 10167 bound_to 10162
  157.2223  130.6984  149.6275 H   0  0  0  0  0  0  0  0  0  0  0  0  # atno 10718 bound_to 10713
  152.9796  135.5962  154.3833 H   0  0  0  0  0  0  0  0  0  0  0  0  # atno 10763 bound_to 10752
  154.3496  135.2767  155.2381 H   0  0  0  0  0  0  0  0  0  0  0  0  # atno 10764 bound_to 10752
  154.4426  135.6009  153.6194 H   0  0  0  0  0  0  0  0  0  0  0  0  # atno 10765 bound_to 10752
  140.1526  134.8664  157.2473 H   0  0  0  0  0  0  0  0  0  0  0  0  # atno 11005 bound_to 11000
  144.7665  139.6833  143.7212 LP  0  0  0  0  0  0  0  0  0  0  0  0  # atno 17320 bound_to 7965
  146.2093  139.5438  142.9692 LP  0  0  0  0  0  0  0  0  0  0  0  0  # atno 17321 bound_to 7965
  140.5590  144.0300  150.6161 LP  0  0  0  0  0  0  0  0  0  0  0  0  # atno 17342 bound_to 10162
  140.3380  143.3037  152.0618 LP  0  0  0  0  0  0  0  0  0  0  0  0  # atno 17343 bound_to 10162
  155.9681  130.4516  150.5741 LP  0  0  0  0  0  0  0  0  0  0  0  0  # atno 17370 bound_to 10713
  157.3563  131.0742  151.1672 LP  0  0  0  0  0  0  0  0  0  0  0  0  # atno 17371 bound_to 10713
  140.2587  134.3597  155.7415 LP  0  0  0  0  0  0  0  0  0  0  0  0  # atno 17394 bound_to 11000
  141.2200  133.7357  156.9046 LP  0  0  0  0  0  0  0  0  0  0  0  0  # atno 17395 bound_to 11000

$$$$
