AV-unprocessed.smi:1762|AV-procd|sdf|7109|dock9
  -GOLD-   22720 8333D 1   1.00000     0.00000
 Structure written by MMmdl.
 53 54  0  0  0  0  0  0  0  0  2 V2000
  148.4091  136.0239  158.4293 C   0  0  0  0  0  0  0  0  0  0  0  0
  147.6123  137.1464  159.1179 C   0  0  1  0  0  0  0  0  0  0  0  0
  146.0954  137.0691  158.8543 C   0  0  0  0  0  0  0  0  0  0  0  0
  145.4284  135.9855  159.5875 N   0  0  0  0  0  0  0  0  0  0  0  0
  143.9688  135.9020  159.2987 C   0  0  2  0  0  0  0  0  0  0  0  0
  143.6546  135.2270  157.9427 C   0  0  0  0  0  0  0  0  0  0  0  0
  143.0568  134.1510  157.9044 O   0  0  0  0  0  0  0  0  0  0  0  0
  144.0355  135.8885  156.8383 N   0  0  0  0  0  0  0  0  0  0  0  0
  143.7993  135.4373  155.4727 C   0  0  0  0  0  0  0  0  0  0  0  0
  145.0991  134.9561  154.8056 C   0  0  0  0  0  0  0  0  0  0  0  0
  144.9007  134.6144  153.3420 C   0  0  0  0  0  0  0  0  0  0  0  0
  145.6239  135.2607  152.3162 C   0  0  0  0  0  0  0  0  0  0  0  0
  145.3870  134.8995  150.9734 C   0  0  0  0  0  0  0  0  0  0  0  0
  144.4320  133.9027  150.6849 C   0  0  0  0  0  0  0  0  0  0  0  0
  143.7369  133.2912  151.7482 C   0  0  0  0  0  0  0  0  0  0  0  0
  143.9924  133.6644  153.0216 N   0  3  0  0  0  0  0  0  0  0  0  0
  143.1869  137.2515  159.4412 C   0  0  0  0  0  0  0  0  0  0  0  0
  143.3184  137.8941  160.8370 C   0  0  0  0  0  0  0  0  0  0  0  0
  141.7040  137.1612  159.0301 C   0  0  0  0  0  0  0  0  0  0  0  0
  145.7602  136.1173  161.0163 C   0  0  0  0  0  0  0  0  0  0  0  0
  147.2775  136.1505  161.2753 C   0  0  2  0  0  0  0  0  0  0  0  0
  147.6078  136.3889  162.7531 C   0  0  0  0  0  0  0  0  0  0  0  0
  147.8699  137.2005  160.5188 O   0  0  0  0  0  0  0  0  0  0  0  0
  148.2996  136.0800  157.3461 H   0  0  0  0  0  0  0  0  0  0  0  0
  148.0741  135.0334  158.7367 H   0  0  0  0  0  0  0  0  0  0  0  0
  149.4718  136.1045  158.6582 H   0  0  0  0  0  0  0  0  0  0  0  0
  147.9753  138.0889  158.7066 H   0  0  0  0  0  0  0  0  0  0  0  0
  145.6412  138.0241  159.1237 H   0  0  0  0  0  0  0  0  0  0  0  0
  145.9637  136.9580  157.7800 H   0  0  0  0  0  0  0  0  0  0  0  0
  143.5429  135.2402  160.0561 H   0  0  0  0  0  0  0  0  0  0  0  0
  144.5176  136.7682  156.9554 H   0  0  0  0  0  0  0  0  0  0  0  0
  143.0721  134.6256  155.5059 H   0  0  0  0  0  0  0  0  0  0  0  0
  143.3435  136.2397  154.8899 H   0  0  0  0  0  0  0  0  0  0  0  0
  145.8723  135.7216  154.8857 H   0  0  0  0  0  0  0  0  0  0  0  0
  145.4838  134.0776  155.3259 H   0  0  0  0  0  0  0  0  0  0  0  0
  146.3509  136.0243  152.5534 H   0  0  0  0  0  0  0  0  0  0  0  0
  145.9312  135.3815  150.1743 H   0  0  0  0  0  0  0  0  0  0  0  0
  144.2361  133.6113  149.6632 H   0  0  0  0  0  0  0  0  0  0  0  0
  142.9905  132.5209  151.6196 H   0  0  0  0  0  0  0  0  0  0  0  0
  143.6546  137.9762  158.7769 H   0  0  0  0  0  0  0  0  0  0  0  0
  142.7846  137.3294  161.6018 H   0  0  0  0  0  0  0  0  0  0  0  0
  142.9083  138.9044  160.8387 H   0  0  0  0  0  0  0  0  0  0  0  0
  144.3631  137.9665  161.1406 H   0  0  0  0  0  0  0  0  0  0  0  0
  141.1302  136.5312  159.7092 H   0  0  0  0  0  0  0  0  0  0  0  0
  141.5899  136.7578  158.0240 H   0  0  0  0  0  0  0  0  0  0  0  0
  141.2405  138.1480  159.0354 H   0  0  0  0  0  0  0  0  0  0  0  0
  145.2986  137.0209  161.4183 H   0  0  0  0  0  0  0  0  0  0  0  0
  145.3674  135.2830  161.5962 H   0  0  0  0  0  0  0  0  0  0  0  0
  147.7166  135.1972  160.9799 H   0  0  0  0  0  0  0  0  0  0  0  0
  147.1877  135.6035  163.3819 H   0  0  0  0  0  0  0  0  0  0  0  0
  147.2100  137.3437  163.0981 H   0  0  0  0  0  0  0  0  0  0  0  0
  148.6860  136.4002  162.9131 H   0  0  0  0  0  0  0  0  0  0  0  0
  143.4777  133.2086  153.7754 H   0  0  0  0  0  0  0  0  0  0  0  0
  1  2  1  0  0  0  0
  1 24  1  0  0  0  0
  1 25  1  0  0  0  0
  1 26  1  0  0  0  0
  2 23  1  0  0  0  0
  2  3  1  0  0  0  0
  2 27  1  0  0  0  0
  3  4  1  0  0  0  0
  3 28  1  0  0  0  0
  3 29  1  0  0  0  0
  4  5  1  0  0  0  0
  4 20  1  0  0  0  0
  5  6  1  0  0  0  0
  5 17  1  0  0  0  0
  5 30  1  0  0  0  0
  6  7  2  0  0  0  0
  6  8  1  0  0  0  0
  8  9  1  0  0  0  0
  8 31  1  0  0  0  0
  9 10  1  0  0  0  0
  9 32  1  0  0  0  0
  9 33  1  0  0  0  0
 10 11  1  0  0  0  0
 10 34  1  0  0  0  0
 10 35  1  0  0  0  0
 11 16  1  0  0  0  0
 11 12  2  0  0  0  0
 12 13  1  0  0  0  0
 12 36  1  0  0  0  0
 13 14  2  0  0  0  0
 13 37  1  0  0  0  0
 14 15  1  0  0  0  0
 14 38  1  0  0  0  0
 15 16  2  0  0  0  0
 15 39  1  0  0  0  0
 16 53  1  0  0  0  0
 17 18  1  0  0  0  0
 17 19  1  0  0  0  0
 17 40  1  0  0  0  0
 18 41  1  0  0  0  0
 18 42  1  0  0  0  0
 18 43  1  0  0  0  0
 19 44  1  0  0  0  0
 19 45  1  0  0  0  0
 19 46  1  0  0  0  0
 20 21  1  0  0  0  0
 20 47  1  0  0  0  0
 20 48  1  0  0  0  0
 21 22  1  0  0  0  0
 21 23  1  0  0  0  0
 21 49  1  0  0  0  0
 22 50  1  0  0  0  0
 22 51  1  0  0  0  0
 22 52  1  0  0  0  0
M  CHG  1  16   1
M  END
> <s_m_source_file>
AV-unprocessed.smi

> <i_m_source_file_index>
1762

> <i_lp_mmshare_version>
43012

> <i_f3d_flags>
0

> <s_epik_input>
W0NIM11bQ0BASF0xW0NIMl1OKFtDSDJdW0NASF0oTzEpW0NIM10pW0NAQEhdKFtDSF0oW0NIM10pW0NIM10pQyg9TylbTkhdW0NIMl1bQ0gyXWMyW2NIXVtjSF1bY0hdW2NIXW4y

> <s_epik_cmdline>
J2VwaWtfcHl0aG9uJywgJy1waCcsICc3LjAnLCAnLXRuJywgJzgnLCAnLW1hJywgJzIwMCcsICctbWV0YWxfYmluZGluZycsICctaW1hZScsICc8aW5maWxlLm1hZT4nLCAnLW9tYWUnLCAnPG91dGZpbGUubWFlPic=

> <r_epik_Ionization_Penalty>
1.86475

> <r_epik_Ionization_Penalty_Charging>
1.85347

> <r_epik_Ionization_Penalty_Neutral>
0.0112771

> <r_epik_State_Penalty>
1.99714

> <r_epik_Charging_Adjusted_Penalty>
3.85061

> <i_epik_Tot_Q>
1

> <i_epik_Tot_abs_Q>
1

> <r_epik_Metal_State_Penalty>
2.02271

> <b_epik_Metal_Only>
0

> <s_lp_Force_Field>
OPLS_2005

> <r_lp_Energy>
35.2583

> <b_lp_Chiralities_Consistent>
1

> <s_lp_Variant>
AV-unprocessed.smi:1762-11

> <Gold.Version>
5.8.1

> <Gold.Id.Protein>
6NUR|6NUR_protein|mol2

> <Gold.PLP.Fitness>
38.9651

> <Gold.PLP.PLP>
-26.1570

> <Gold.PLP.part.hbond>
-4.0000

> <Gold.PLP.part.metal>
0.0000

> <Gold.PLP.part.buried>
-5.2083

> <Gold.PLP.part.nonpolar>
-17.1383

> <Gold.PLP.part.repulsive>
0.0585

> <Gold.PLP.ligand.clash>
0.0000

> <Gold.PLP.ligand.torsion>
0.4729

> <Gold.PLP.Chemscore.Hbond>
4.4845

> <Gold.PLP.Chemscore.CHOScore>
0.0000

> <Gold.PLP.Chemscore.Metal>
0.0000

> <Gold.Chemscore.Hbonds>
donor molecule, donor type, donor heavy atom, donor atom, acceptor molecule, acceptor atom, score
      L1  H    16    53       P1 10957  2.00
      P1  H  6931  6943       L1    23  0.65
      P1  H  6934  6947       L1    23  0.83
      P1  H 11000 11005       L1     7  0.94

> <Gold.PLP.Chemscore.Internal.Correction>
0.3005

> <Gold.Rescore>
     Score         DG    S(hbond)    S(metal)    S(lipo)     H(rot)  DE(clash)    DE(int)     intcor
     16.70     -17.40       2.87        0.00      57.64       1.72       0.04       0.66       ----

> <Gold.Chemscore.Fitness>
16.7047

> <Gold.Chemscore.DG>
-17.4010

> <Gold.Chemscore.ZeroCoef>
-5.4800

> <Gold.Chemscore.Hbond>
2.8664

> <Gold.Chemscore.Metal>
0.0000

> <Gold.Chemscore.Lipo>
57.6402

> <Gold.Chemscore.Internal_Hbond>
0.0000

> <Gold.Chemscore.DEClash>
0.0398

> <Gold.Chemscore.DEInternal>
0.6564

> <Gold.Chemscore.Rot>
1.7174

> <Gold.Chemscore.Internal.Correction>
   9.000000E+99

> <Gold.Chemscore.Hbonds>
donor molecule, donor type, donor heavy atom, donor atom, acceptor molecule, acceptor atom, score
      L1  H    16    53       P1 10957  0.98
      P1  H  6931  6943       L1    23  0.32
      P1  H  6934  6947       L1    23  0.19
      P1  H 11000 11005       L1     7  0.87

> <Gold.Chemscore.Hbond.Weighted>
-9.5737

> <Gold.Chemscore.Metal.Weighted>
-0.0000

> <Gold.Chemscore.Lipo.Weighted>
-6.7439

> <Gold.Chemscore.Internal_Hbond.Weighted>
0.0000

> <Gold.Chemscore.DEClash.Weighted>
0.0398

> <Gold.Chemscore.DEInternal.Weighted>
0.6564

> <Gold.Chemscore.Rot.Weighted>
4.3966

> <Gold.Chemscore.Internal.Correction.Weighted>
   9.000000E+99

> <Gold.Protein.RotatedTorsions>
[ 6907 6896 6895 6894 ] final   -6.51 input  -60.11 | X-H torsion
[ 7974 7965 7964 7962 ] final  -92.65 input  175.53 | X-H torsion
[ 8008 7997 7996 7995 ] final  139.01 input   59.86 | X-H torsion
[ 10167 10162 10161 10158 ] final  167.47 input  -65.29 | X-H torsion
[ 10718 10713 10712 10709 ] final  -28.13 input   66.30 | X-H torsion
[ 10763 10752 10751 10750 ] final  -47.75 input  -60.55 | X-H torsion
[ 11005 11000 10999 10996 ] final  -97.10 input  -57.11 | X-H torsion

> <Gold.Protein.ActiveResidues>
 VAL166  LYS551  ARG553  GLY616  TRP617  ASP618  TYR619  PRO620  LYS621  CYS622 
 ASP623  PHE694  ASN695  SER759  ASP760  ASP761  ALA762  ILE779  LEU786  VAL792 
 PHE793  MET794  SER795  GLU796  ALA797  LYS798  CYS799  TRP800  GLU811  SER814 

> <Gold.Protein.RotatedAtoms>
  151.4644  135.1041  159.9733 H   0  0  0  0  0  0  0  0  0  0  0  0  # atno 6907 bound_to 6896
  152.4840  133.8323  159.7120 H   0  0  0  0  0  0  0  0  0  0  0  0  # atno 6908 bound_to 6896
  150.8935  133.7151  159.2925 H   0  0  0  0  0  0  0  0  0  0  0  0  # atno 6909 bound_to 6896
  145.3970  140.9534  143.2308 H   0  0  0  0  0  0  0  0  0  0  0  0  # atno 7974 bound_to 7965
  156.2993  140.2378  156.4168 H   0  0  0  0  0  0  0  0  0  0  0  0  # atno 8008 bound_to 7997
  154.8391  140.0429  157.1549 H   0  0  0  0  0  0  0  0  0  0  0  0  # atno 8009 bound_to 7997
  154.9122  140.2992  155.5264 H   0  0  0  0  0  0  0  0  0  0  0  0  # atno 8010 bound_to 7997
  139.4946  144.3918  151.9509 H   0  0  0  0  0  0  0  0  0  0  0  0  # atno 10167 bound_to 10162
  156.4292  130.4441  149.7129 H   0  0  0  0  0  0  0  0  0  0  0  0  # atno 10718 bound_to 10713
  154.0666  135.6610  153.4818 H   0  0  0  0  0  0  0  0  0  0  0  0  # atno 10763 bound_to 10752
  153.0407  135.5147  154.7608 H   0  0  0  0  0  0  0  0  0  0  0  0  # atno 10764 bound_to 10752
  154.6660  135.3022  154.9771 H   0  0  0  0  0  0  0  0  0  0  0  0  # atno 10765 bound_to 10752
  141.1390  133.8146  157.0660 H   0  0  0  0  0  0  0  0  0  0  0  0  # atno 11005 bound_to 11000
  144.8400  139.5487  143.6904 LP  0  0  0  0  0  0  0  0  0  0  0  0  # atno 17320 bound_to 7965
  146.2770  139.6779  142.9256 LP  0  0  0  0  0  0  0  0  0  0  0  0  # atno 17321 bound_to 7965
  140.3355  144.3265  150.5978 LP  0  0  0  0  0  0  0  0  0  0  0  0  # atno 17342 bound_to 10162
  140.5609  143.2192  151.7766 LP  0  0  0  0  0  0  0  0  0  0  0  0  # atno 17343 bound_to 10162
  156.4039  130.7688  151.2698 LP  0  0  0  0  0  0  0  0  0  0  0  0  # atno 17370 bound_to 10713
  157.7508  131.0231  150.3822 LP  0  0  0  0  0  0  0  0  0  0  0  0  # atno 17371 bound_to 10713
  140.0541  134.9790  157.1189 LP  0  0  0  0  0  0  0  0  0  0  0  0  # atno 17394 bound_to 11000
  140.3945  134.2148  155.7165 LP  0  0  0  0  0  0  0  0  0  0  0  0  # atno 17395 bound_to 11000

$$$$
