AV-unprocessed.smi:292|AV-procd|sdf|2249|dock6
  -GOLD-   2262022133D 1   1.00000     0.00000
 Structure written by MMmdl.
 33 34  0  0  0  0  0  0  0  0  1 V2000
  149.9959  133.7351  157.4642 N   0  0  0  0  0  0  0  0  0  0  0  0
  150.1073  134.6737  156.7965 C   0  0  0  0  0  0  0  0  0  0  0  0
  150.2472  135.8522  155.9581 C   0  0  0  0  0  0  0  0  0  0  0  0
  150.9905  135.8285  154.8138 N   0  0  0  0  0  0  0  0  0  0  0  0
  150.8184  137.0872  154.4303 C   0  0  0  0  0  0  0  0  0  0  0  0
  150.0512  137.8071  155.2559 N   0  0  0  0  0  0  0  0  0  0  0  0
  149.6539  139.2054  155.1957 C   0  0  0  0  0  0  0  0  0  0  0  0
  150.5897  140.1394  155.9771 C   0  0  0  0  0  0  0  0  0  0  0  0
  151.6614  140.4759  155.4749 O   0  0  0  0  0  0  0  0  0  0  0  0
  150.1975  140.5383  157.1992 N   0  0  0  0  0  0  0  0  0  0  0  0
  150.9264  141.4373  158.0915 C   0  0  2  0  0  0  0  0  0  0  0  0
  150.8723  142.8934  157.5606 C   0  0  0  0  0  0  0  0  0  0  0  0
  152.0427  143.8111  157.9715 C   0  0  0  0  0  0  0  0  0  0  0  0
  152.3071  143.9130  159.4873 C   0  0  0  0  0  0  0  0  0  0  0  0
  152.5167  142.5808  160.2455 C   0  0  0  0  0  0  0  0  0  0  0  0
  153.0156  141.4873  159.4125 N   0  0  0  0  0  0  0  0  0  0  0  0
  152.3333  140.8974  158.4158 C   0  0  0  0  0  0  0  0  0  0  0  0
  152.8167  139.9694  157.7680 O   0  0  0  0  0  0  0  0  0  0  0  0
  149.6577  137.0033  156.2745 N   0  0  0  0  0  0  0  0  0  0  0  0
  151.2664  137.4954  153.5362 H   0  0  0  0  0  0  0  0  0  0  0  0
  149.6308  139.5184  154.1513 H   0  0  0  0  0  0  0  0  0  0  0  0
  148.6376  139.2987  155.5812 H   0  0  0  0  0  0  0  0  0  0  0  0
  149.2992  140.2175  157.5313 H   0  0  0  0  0  0  0  0  0  0  0  0
  150.3914  141.4172  159.0420 H   0  0  0  0  0  0  0  0  0  0  0  0
  150.8397  142.8780  156.4704 H   0  0  0  0  0  0  0  0  0  0  0  0
  149.9316  143.3479  157.8739 H   0  0  0  0  0  0  0  0  0  0  0  0
  152.9533  143.4829  157.4683 H   0  0  0  0  0  0  0  0  0  0  0  0
  151.8527  144.8121  157.5834 H   0  0  0  0  0  0  0  0  0  0  0  0
  153.1962  144.5295  159.6238 H   0  0  0  0  0  0  0  0  0  0  0  0
  151.4953  144.4646  159.9628 H   0  0  0  0  0  0  0  0  0  0  0  0
  153.2175  142.7364  161.0660 H   0  0  0  0  0  0  0  0  0  0  0  0
  151.5852  142.2710  160.7205 H   0  0  0  0  0  0  0  0  0  0  0  0
  153.9419  141.1417  159.6185 H   0  0  0  0  0  0  0  0  0  0  0  0
  1  2  3  0  0  0  0
  2  3  1  0  0  0  0
  3 19  2  0  0  0  0
  3  4  1  0  0  0  0
  4  5  2  0  0  0  0
  5  6  1  0  0  0  0
  5 20  1  0  0  0  0
  6  7  1  0  0  0  0
  6 19  1  0  0  0  0
  7  8  1  0  0  0  0
  7 21  1  0  0  0  0
  7 22  1  0  0  0  0
  8  9  2  0  0  0  0
  8 10  1  0  0  0  0
 10 11  1  0  0  0  0
 10 23  1  0  0  0  0
 11 17  1  0  0  0  0
 11 12  1  0  0  0  0
 11 24  1  0  0  0  0
 12 13  1  0  0  0  0
 12 25  1  0  0  0  0
 12 26  1  0  0  0  0
 13 14  1  0  0  0  0
 13 27  1  0  0  0  0
 13 28  1  0  0  0  0
 14 15  1  0  0  0  0
 14 29  1  0  0  0  0
 14 30  1  0  0  0  0
 15 16  1  0  0  0  0
 15 31  1  0  0  0  0
 15 32  1  0  0  0  0
 16 17  1  0  0  0  0
 16 33  1  0  0  0  0
 17 18  2  0  0  0  0
M  END
> <s_m_source_file>
AV-unprocessed.smi

> <i_m_source_file_index>
292

> <i_lp_mmshare_version>
43012

> <i_f3d_flags>
0

> <s_epik_input>
TiNDYzFuW2NIXW4objEpW0NIMl1DKD1PKVtOSF1bQ0BASF0yW0NIMl1bQ0gyXVtDSDJdW0NIMl1bTkhdQzI9Tw==

> <s_epik_cmdline>
J2VwaWtfcHl0aG9uJywgJy1waCcsICc3LjAnLCAnLXRuJywgJzgnLCAnLW1hJywgJzIwMCcsICctbWV0YWxfYmluZGluZycsICctaW1hZScsICc8aW5maWxlLm1hZT4nLCAnLW9tYWUnLCAnPG91dGZpbGUubWFlPic=

> <r_lp_tautomer_probability>
1

> <r_epik_Ionization_Penalty>
1.99744e-07

> <r_epik_Ionization_Penalty_Charging>
0

> <r_epik_Ionization_Penalty_Neutral>
1.99744e-07

> <r_epik_State_Penalty>
-0

> <r_epik_Charging_Adjusted_Penalty>
0

> <i_epik_Tot_Q>
0

> <i_epik_Tot_abs_Q>
0

> <r_epik_Metal_State_Penalty>
-0

> <b_epik_Metal_Only>
0

> <s_lp_Force_Field>
OPLS_2005

> <r_lp_Energy>
19.194

> <b_lp_Chiralities_Consistent>
1

> <s_lp_Variant>
AV-unprocessed.smi:292-1

> <Gold.Version>
5.8.1

> <Gold.Id.Protein>
6NUR|6NUR_protein|mol2

> <Gold.PLP.Fitness>
42.8059

> <Gold.PLP.PLP>
-30.7898

> <Gold.PLP.part.hbond>
-4.0000

> <Gold.PLP.part.metal>
0.0000

> <Gold.PLP.part.buried>
-2.8734

> <Gold.PLP.part.nonpolar>
-25.1422

> <Gold.PLP.part.repulsive>
0.3179

> <Gold.PLP.ligand.clash>
0.0000

> <Gold.PLP.ligand.torsion>
0.7049

> <Gold.PLP.Chemscore.Hbond>
3.7840

> <Gold.PLP.Chemscore.CHOScore>
0.6735

> <Gold.PLP.Chemscore.Metal>
0.0000

> <Gold.Chemscore.Hbonds>
donor molecule, donor type, donor heavy atom, donor atom, acceptor molecule, acceptor atom, score
      P1  H  6896  6909       L1     1  1.00
      P1  H  7989  7998       L1     9  0.78
      P1  H  7997  8008       L1    18  1.00
      P1  H 10752 10764       L1     4  1.00
      L1  C     5    20       P1  7949  0.69

> <Gold.PLP.Chemscore.Internal.Correction>
0.0535

> <Gold.Rescore>
     Score         DG    S(hbond)    S(metal)    S(lipo)     H(rot)  DE(clash)    DE(int)     intcor
     14.67     -18.05       3.48        0.00      55.06       2.14       0.07       3.30       ----

> <Gold.Chemscore.Fitness>
14.6747

> <Gold.Chemscore.DG>
-18.0503

> <Gold.Chemscore.ZeroCoef>
-5.4800

> <Gold.Chemscore.Hbond>
3.4784

> <Gold.Chemscore.Metal>
0.0000

> <Gold.Chemscore.Lipo>
55.0610

> <Gold.Chemscore.Internal_Hbond>
0.0000

> <Gold.Chemscore.DEClash>
0.0732

> <Gold.Chemscore.DEInternal>
3.3024

> <Gold.Chemscore.Rot>
2.1444

> <Gold.Chemscore.Internal.Correction>
   9.000000E+99

> <Gold.Chemscore.Hbonds>
donor molecule, donor type, donor heavy atom, donor atom, acceptor molecule, acceptor atom, score
      P1  H  6896  6909       L1     1  0.92
      P1  H  7989  7998       L1     9  0.70
      P1  H  7997  8008       L1    18  0.98
      P1  H 10752 10764       L1     4  0.47

> <Gold.Chemscore.Hbond.Weighted>
-11.6178

> <Gold.Chemscore.Metal.Weighted>
-0.0000

> <Gold.Chemscore.Lipo.Weighted>
-6.4421

> <Gold.Chemscore.Internal_Hbond.Weighted>
0.0000

> <Gold.Chemscore.DEClash.Weighted>
0.0732

> <Gold.Chemscore.DEInternal.Weighted>
3.3024

> <Gold.Chemscore.Rot.Weighted>
5.4896

> <Gold.Chemscore.Internal.Correction.Weighted>
   9.000000E+99

> <Gold.Protein.RotatedTorsions>
[ 6907 6896 6895 6894 ] final   -5.56 input  -60.11 | X-H torsion
[ 7974 7965 7964 7962 ] final -100.65 input  175.53 | X-H torsion
[ 8008 7997 7996 7995 ] final  -72.24 input   59.86 | X-H torsion
[ 10167 10162 10161 10158 ] final   -9.20 input  -65.29 | X-H torsion
[ 10718 10713 10712 10709 ] final   95.57 input   66.30 | X-H torsion
[ 10763 10752 10751 10750 ] final  -48.40 input  -60.55 | X-H torsion
[ 11005 11000 10999 10996 ] final -140.52 input  -57.11 | X-H torsion

> <Gold.Protein.ActiveResidues>
 VAL166  LYS551  ARG553  GLY616  TRP617  ASP618  TYR619  PRO620  LYS621  CYS622 
 ASP623  PHE694  ASN695  SER759  ASP760  ASP761  ALA762  ILE779  LEU786  VAL792 
 PHE793  MET794  SER795  GLU796  ALA797  LYS798  CYS799  TRP800  GLU811  SER814 

> <Gold.Protein.RotatedAtoms>
  151.4796  135.1051  159.9773 H   0  0  0  0  0  0  0  0  0  0  0  0  # atno 6907 bound_to 6896
  152.4784  133.8191  159.7054 H   0  0  0  0  0  0  0  0  0  0  0  0  # atno 6908 bound_to 6896
  150.8839  133.7273  159.2950 H   0  0  0  0  0  0  0  0  0  0  0  0  # atno 6909 bound_to 6896
  145.2918  140.9354  143.2873 H   0  0  0  0  0  0  0  0  0  0  0  0  # atno 7974 bound_to 7965
  154.5151  140.0801  156.8065 H   0  0  0  0  0  0  0  0  0  0  0  0  # atno 8008 bound_to 7997
  155.3699  140.3422  155.4225 H   0  0  0  0  0  0  0  0  0  0  0  0  # atno 8009 bound_to 7997
  156.1618  140.1591  156.8586 H   0  0  0  0  0  0  0  0  0  0  0  0  # atno 8010 bound_to 7997
  140.7080  143.5885  150.8918 H   0  0  0  0  0  0  0  0  0  0  0  0  # atno 10167 bound_to 10162
  157.6937  131.0550  150.4359 H   0  0  0  0  0  0  0  0  0  0  0  0  # atno 10718 bound_to 10713
  154.0771  135.6596  153.4832 H   0  0  0  0  0  0  0  0  0  0  0  0  # atno 10763 bound_to 10752
  153.0369  135.5171  154.7510 H   0  0  0  0  0  0  0  0  0  0  0  0  # atno 10764 bound_to 10752
  154.6594  135.3012  154.9854 H   0  0  0  0  0  0  0  0  0  0  0  0  # atno 10765 bound_to 10752
  140.8415  134.2396  157.4808 H   0  0  0  0  0  0  0  0  0  0  0  0  # atno 11005 bound_to 11000
  144.9167  139.4462  143.6561 LP  0  0  0  0  0  0  0  0  0  0  0  0  # atno 17320 bound_to 7965
  146.3182  139.8004  142.8966 LP  0  0  0  0  0  0  0  0  0  0  0  0  # atno 17321 bound_to 7965
  139.9610  143.6164  152.3002 LP  0  0  0  0  0  0  0  0  0  0  0  0  # atno 17342 bound_to 10162
  139.6716  144.7660  151.1772 LP  0  0  0  0  0  0  0  0  0  0  0  0  # atno 17343 bound_to 10162
  156.4722  130.4055  149.6511 LP  0  0  0  0  0  0  0  0  0  0  0  0  # atno 17370 bound_to 10713
  156.3587  130.7470  151.2439 LP  0  0  0  0  0  0  0  0  0  0  0  0  # atno 17371 bound_to 10713
  139.8703  134.9637  156.4472 LP  0  0  0  0  0  0  0  0  0  0  0  0  # atno 17394 bound_to 11000
  140.8890  133.7862  155.9551 LP  0  0  0  0  0  0  0  0  0  0  0  0  # atno 17395 bound_to 11000

$$$$
