AV-unprocessed.smi:2751|AV-procd|sdf|10596|dock2
  -GOLD-   2272015 43D 1   1.00000     0.00000
 Structure written by MMmdl.
 34 35  0  0  0  0  0  0  0  0  1 V2000
  153.8062  139.0803  157.9231 O   0  0  0  0  0  0  0  0  0  0  0  0
  152.6338  139.4407  158.0326 C   0  0  0  0  0  0  0  0  0  0  0  0
  152.1403  140.0309  159.1310 N   0  0  0  0  0  0  0  0  0  0  0  0
  152.9024  140.3142  160.3419 C   0  0  0  0  0  0  0  0  0  0  0  0
  153.5670  141.7002  160.2774 C   0  0  0  0  0  0  0  0  0  0  0  0
  152.6023  142.8071  159.8237 C   0  0  1  0  0  0  0  0  0  0  0  0
  151.9088  143.4899  161.0192 C   0  0  0  0  0  0  0  0  0  0  0  0
  151.0148  144.6389  160.5398 C   0  0  0  0  0  0  0  0  0  0  0  0
  151.8283  145.5927  159.6591 C   0  0  0  0  0  0  0  0  0  0  0  0
  152.5315  144.8137  158.5366 C   0  0  0  0  0  0  0  0  0  0  0  0
  153.3430  143.7842  159.0942 O   0  0  0  0  0  0  0  0  0  0  0  0
  151.6886  139.2965  157.0885 N   0  0  0  0  0  0  0  0  0  0  0  0
  151.8322  138.7079  155.8067 C   0  0  0  0  0  0  0  0  0  0  0  0
  152.6851  137.7398  155.4673 N   0  0  0  0  0  0  0  0  0  0  0  0
  152.4393  137.5131  154.1208 C   0  0  0  0  0  0  0  0  0  0  0  0
  151.4428  138.3650  153.7187 C   0  0  0  0  0  0  0  0  0  0  0  0
  151.0465  139.1320  154.7816 O   0  0  0  0  0  0  0  0  0  0  0  0
  151.1659  140.2949  159.1350 H   0  0  0  0  0  0  0  0  0  0  0  0
  152.2565  140.2355  161.2181 H   0  0  0  0  0  0  0  0  0  0  0  0
  153.6647  139.5421  160.4492 H   0  0  0  0  0  0  0  0  0  0  0  0
  153.9578  141.9496  161.2647 H   0  0  0  0  0  0  0  0  0  0  0  0
  154.4263  141.6710  159.6059 H   0  0  0  0  0  0  0  0  0  0  0  0
  151.8454  142.3684  159.1707 H   0  0  0  0  0  0  0  0  0  0  0  0
  151.3145  142.7656  161.5772 H   0  0  0  0  0  0  0  0  0  0  0  0
  152.6601  143.8756  161.7099 H   0  0  0  0  0  0  0  0  0  0  0  0
  150.1760  144.2378  159.9698 H   0  0  0  0  0  0  0  0  0  0  0  0
  150.5907  145.1726  161.3907 H   0  0  0  0  0  0  0  0  0  0  0  0
  151.1815  146.3628  159.2378 H   0  0  0  0  0  0  0  0  0  0  0  0
  152.5741  146.1069  160.2667 H   0  0  0  0  0  0  0  0  0  0  0  0
  151.8044  144.3847  157.8451 H   0  0  0  0  0  0  0  0  0  0  0  0
  153.1645  145.4850  157.9557 H   0  0  0  0  0  0  0  0  0  0  0  0
  150.7653  139.6363  157.3125 H   0  0  0  0  0  0  0  0  0  0  0  0
  152.9868  136.7702  153.5597 H   0  0  0  0  0  0  0  0  0  0  0  0
  150.9383  138.5382  152.7797 H   0  0  0  0  0  0  0  0  0  0  0  0
  1  2  2  0  0  0  0
  2  3  1  0  0  0  0
  2 12  1  0  0  0  0
  3  4  1  0  0  0  0
  3 18  1  0  0  0  0
  4  5  1  0  0  0  0
  4 19  1  0  0  0  0
  4 20  1  0  0  0  0
  5  6  1  0  0  0  0
  5 21  1  0  0  0  0
  5 22  1  0  0  0  0
  6 11  1  0  0  0  0
  6  7  1  0  0  0  0
  6 23  1  0  0  0  0
  7  8  1  0  0  0  0
  7 24  1  0  0  0  0
  7 25  1  0  0  0  0
  8  9  1  0  0  0  0
  8 26  1  0  0  0  0
  8 27  1  0  0  0  0
  9 10  1  0  0  0  0
  9 28  1  0  0  0  0
  9 29  1  0  0  0  0
 10 11  1  0  0  0  0
 10 30  1  0  0  0  0
 10 31  1  0  0  0  0
 12 13  1  0  0  0  0
 12 32  1  0  0  0  0
 13 17  1  0  0  0  0
 13 14  2  0  0  0  0
 14 15  1  0  0  0  0
 15 16  2  0  0  0  0
 15 33  1  0  0  0  0
 16 17  1  0  0  0  0
 16 34  1  0  0  0  0
M  END
> <s_m_source_file>
AV-unprocessed.smi

> <i_m_source_file_index>
2751

> <i_lp_mmshare_version>
43012

> <i_f3d_flags>
0

> <s_epik_input>
bzFbY0hdW2NIXW5jMVtOSF1DKD1PKVtOSF1bQ0gyXVtDSDJdW0NAQEhdMltDSDJdW0NIMl1bQ0gyXVtDSDJdTzI=

> <s_epik_cmdline>
J2VwaWtfcHl0aG9uJywgJy1waCcsICc3LjAnLCAnLXRuJywgJzgnLCAnLW1hJywgJzIwMCcsICctbWV0YWxfYmluZGluZycsICctaW1hZScsICc8aW5maWxlLm1hZT4nLCAnLW9tYWUnLCAnPG91dGZpbGUubWFlPic=

> <r_lp_tautomer_probability>
0.785861

> <r_epik_Ionization_Penalty>
4.88827e-05

> <r_epik_Ionization_Penalty_Charging>
0

> <r_epik_Ionization_Penalty_Neutral>
4.88827e-05

> <r_epik_State_Penalty>
0.0434822

> <r_epik_Charging_Adjusted_Penalty>
0.0434822

> <i_epik_Tot_Q>
0

> <i_epik_Tot_abs_Q>
0

> <r_epik_Metal_State_Penalty>
0.0598982

> <b_epik_Metal_Only>
0

> <s_lp_Force_Field>
OPLS_2005

> <r_lp_Energy>
7.8545

> <b_lp_Chiralities_Consistent>
1

> <s_lp_Variant>
AV-unprocessed.smi:2751-2

> <Gold.Version>
5.8.1

> <Gold.Id.Protein>
6NUR|6NUR_protein|mol2

> <Gold.PLP.Fitness>
43.6132

> <Gold.PLP.PLP>
-34.9190

> <Gold.PLP.part.hbond>
-0.9339

> <Gold.PLP.part.metal>
0.0000

> <Gold.PLP.part.buried>
-3.0246

> <Gold.PLP.part.nonpolar>
-32.9175

> <Gold.PLP.part.repulsive>
0.2853

> <Gold.PLP.ligand.clash>
0.0000

> <Gold.PLP.ligand.torsion>
0.8155

> <Gold.PLP.Chemscore.Hbond>
1.0000

> <Gold.PLP.Chemscore.CHOScore>
2.4326

> <Gold.PLP.Chemscore.Metal>
0.0000

> <Gold.Chemscore.Hbonds>
donor molecule, donor type, donor heavy atom, donor atom, acceptor molecule, acceptor atom, score
      P1  H  7989  7998       L1    17  0.10
      P1  H  7997  8008       L1     1  0.98
      L1  C    15    33       P1  7949  0.10
      L1  C    16    34       P1  7949  0.08
      L1  C    16    34       P1  7957  0.55

> <Gold.PLP.Chemscore.Internal.Correction>
0.0274

> <Gold.Rescore>
     Score         DG    S(hbond)    S(metal)    S(lipo)     H(rot)  DE(clash)    DE(int)     intcor
     15.00     -16.04       1.00        0.00      97.44       1.63       0.05       0.98       ----

> <Gold.Chemscore.Fitness>
14.9984

> <Gold.Chemscore.DG>
-16.0352

> <Gold.Chemscore.ZeroCoef>
-5.4800

> <Gold.Chemscore.Hbond>
0.9983

> <Gold.Chemscore.Metal>
0.0000

> <Gold.Chemscore.Lipo>
97.4430

> <Gold.Chemscore.Internal_Hbond>
0.0000

> <Gold.Chemscore.DEClash>
0.0533

> <Gold.Chemscore.DEInternal>
0.9835

> <Gold.Chemscore.Rot>
1.6328

> <Gold.Chemscore.Internal.Correction>
   9.000000E+99

> <Gold.Chemscore.Hbonds>
donor molecule, donor type, donor heavy atom, donor atom, acceptor molecule, acceptor atom, score
      P1  H  7997  8008       L1     1  0.78

> <Gold.Chemscore.Hbond.Weighted>
-3.3342

> <Gold.Chemscore.Metal.Weighted>
-0.0000

> <Gold.Chemscore.Lipo.Weighted>
-11.4008

> <Gold.Chemscore.Internal_Hbond.Weighted>
0.0000

> <Gold.Chemscore.DEClash.Weighted>
0.0533

> <Gold.Chemscore.DEInternal.Weighted>
0.9835

> <Gold.Chemscore.Rot.Weighted>
4.1799

> <Gold.Chemscore.Internal.Correction.Weighted>
   9.000000E+99

> <Gold.Protein.RotatedTorsions>
[ 6907 6896 6895 6894 ] final  -89.54 input  -60.11 | X-H torsion
[ 7974 7965 7964 7962 ] final  133.96 input  175.53 | X-H torsion
[ 8008 7997 7996 7995 ] final  -89.01 input   59.86 | X-H torsion
[ 10167 10162 10161 10158 ] final  -63.83 input  -65.29 | X-H torsion
[ 10718 10713 10712 10709 ] final  -68.19 input   66.30 | X-H torsion
[ 10763 10752 10751 10750 ] final   29.28 input  -60.55 | X-H torsion
[ 11005 11000 10999 10996 ] final  130.27 input  -57.11 | X-H torsion

> <Gold.Protein.ActiveResidues>
 VAL166  LYS551  ARG553  GLY616  TRP617  ASP618  TYR619  PRO620  LYS621  CYS622 
 ASP623  PHE694  ASN695  SER759  ASP760  ASP761  ALA762  ILE779  LEU786  VAL792 
 PHE793  MET794  SER795  GLU796  ALA797  LYS798  CYS799  TRP800  GLU811  SER814 

> <Gold.Protein.RotatedAtoms>
  150.6874  134.2570  159.4533 H   0  0  0  0  0  0  0  0  0  0  0  0  # atno 6907 bound_to 6896
  152.0503  134.9655  160.0584 H   0  0  0  0  0  0  0  0  0  0  0  0  # atno 6908 bound_to 6896
  152.1121  133.4272  159.4673 H   0  0  0  0  0  0  0  0  0  0  0  0  # atno 6909 bound_to 6896
  144.9811  139.4503  143.5385 H   0  0  0  0  0  0  0  0  0  0  0  0  # atno 7974 bound_to 7965
  154.6816  140.0547  157.0271 H   0  0  0  0  0  0  0  0  0  0  0  0  # atno 8008 bound_to 7997
  155.0944  140.3222  155.4546 H   0  0  0  0  0  0  0  0  0  0  0  0  # atno 8009 bound_to 7997
  156.2696  140.2042  156.6071 H   0  0  0  0  0  0  0  0  0  0  0  0  # atno 8010 bound_to 7997
  140.5843  143.2331  151.6275 H   0  0  0  0  0  0  0  0  0  0  0  0  # atno 10167 bound_to 10162
  156.0518  130.4290  150.1964 H   0  0  0  0  0  0  0  0  0  0  0  0  # atno 10718 bound_to 10713
  153.0440  135.6493  154.0867 H   0  0  0  0  0  0  0  0  0  0  0  0  # atno 10763 bound_to 10752
  154.0568  135.2891  155.3333 H   0  0  0  0  0  0  0  0  0  0  0  0  # atno 10764 bound_to 10752
  154.6684  135.5365  153.8172 H   0  0  0  0  0  0  0  0  0  0  0  0  # atno 10765 bound_to 10752
  139.9662  134.9590  156.9269 H   0  0  0  0  0  0  0  0  0  0  0  0  # atno 11005 bound_to 11000
  146.3408  139.9085  142.8784 LP  0  0  0  0  0  0  0  0  0  0  0  0  # atno 17320 bound_to 7965
  145.2419  141.0012  143.3931 LP  0  0  0  0  0  0  0  0  0  0  0  0  # atno 17321 bound_to 7965
  139.5188  144.3272  152.0858 LP  0  0  0  0  0  0  0  0  0  0  0  0  # atno 17342 bound_to 10162
  140.2427  144.4253  150.6253 LP  0  0  0  0  0  0  0  0  0  0  0  0  # atno 17343 bound_to 10162
  157.0046  130.9933  151.3382 LP  0  0  0  0  0  0  0  0  0  0  0  0  # atno 17370 bound_to 10713
  157.5451  130.8145  149.8076 LP  0  0  0  0  0  0  0  0  0  0  0  0  # atno 17371 bound_to 10713
  140.5391  134.0738  155.7336 LP  0  0  0  0  0  0  0  0  0  0  0  0  # atno 17394 bound_to 11000
  141.1342  133.9250  157.2470 LP  0  0  0  0  0  0  0  0  0  0  0  0  # atno 17395 bound_to 11000

$$$$
