AV-unprocessed.smi:3267|AV-procd|sdf|12504|dock5
  -GOLD-   2272018413D 1   1.00000     0.00000
 Structure written by MMmdl.
 38 39  0  0  0  0  0  0  0  0  1 V2000
  144.7927  135.3728  153.1988 C   0  0  0  0  0  0  0  0  0  0  0  0
  145.1186  136.3371  152.0495 C   0  0  2  0  0  0  0  0  0  0  0  0
  145.0884  135.6282  150.6736 C   0  0  0  0  0  0  0  0  0  0  0  0
  145.0180  134.1852  150.8045 N   0  0  0  0  0  0  0  0  0  0  0  0
  143.9085  133.3967  151.0242 C   0  0  0  0  0  0  0  0  0  0  0  0
  144.3362  132.1011  151.0802 C   0  0  0  0  0  0  0  0  0  0  0  0
  145.7419  132.2007  150.8829 C   0  0  0  0  0  0  0  0  0  0  0  0
  146.1474  133.4499  150.7198 N   0  0  0  0  0  0  0  0  0  0  0  0
  146.4246  136.9450  152.2924 N   0  0  0  0  0  0  0  0  0  0  0  0
  146.7371  137.7162  153.3434 C   0  0  0  0  0  0  0  0  0  0  0  0
  145.9536  138.0014  154.2493 O   0  0  0  0  0  0  0  0  0  0  0  0
  148.0059  138.1429  153.2859 N   0  0  0  0  0  0  0  0  0  0  0  0
  148.6496  138.9859  154.2868 C   0  0  0  0  0  0  0  0  0  0  0  0
  150.1747  139.0188  154.0973 C   0  0  2  0  0  0  0  0  0  0  0  0
  150.8712  137.7240  154.5106 C   0  0  0  0  0  0  0  0  0  0  0  0
  152.2675  138.2133  154.8188 C   0  0  0  0  0  0  0  0  0  0  0  0
  151.9867  139.5599  155.4787 C   0  0  0  0  0  0  0  0  0  0  0  0
  150.7619  140.0268  154.9176 O   0  0  0  0  0  0  0  0  0  0  0  0
  143.8042  134.9312  153.0675 H   0  0  0  0  0  0  0  0  0  0  0  0
  144.7961  135.8896  154.1593 H   0  0  0  0  0  0  0  0  0  0  0  0
  145.5165  134.5589  153.2544 H   0  0  0  0  0  0  0  0  0  0  0  0
  144.3643  137.1266  152.0750 H   0  0  0  0  0  0  0  0  0  0  0  0
  144.2378  135.9562  150.0738 H   0  0  0  0  0  0  0  0  0  0  0  0
  145.9743  135.8751  150.0862 H   0  0  0  0  0  0  0  0  0  0  0  0
  142.9196  133.8194  151.1238 H   0  0  0  0  0  0  0  0  0  0  0  0
  143.7367  131.2172  151.2390 H   0  0  0  0  0  0  0  0  0  0  0  0
  146.4749  131.4082  150.8536 H   0  0  0  0  0  0  0  0  0  0  0  0
  147.1426  136.7664  151.6055 H   0  0  0  0  0  0  0  0  0  0  0  0
  148.5730  137.8532  152.5026 H   0  0  0  0  0  0  0  0  0  0  0  0
  148.2394  139.9931  154.2067 H   0  0  0  0  0  0  0  0  0  0  0  0
  148.4013  138.6304  155.2884 H   0  0  0  0  0  0  0  0  0  0  0  0
  150.4282  139.2390  153.0589 H   0  0  0  0  0  0  0  0  0  0  0  0
  150.4148  137.3098  155.4107 H   0  0  0  0  0  0  0  0  0  0  0  0
  150.8470  136.9615  153.7319 H   0  0  0  0  0  0  0  0  0  0  0  0
  152.8308  137.5333  155.4585 H   0  0  0  0  0  0  0  0  0  0  0  0
  152.8265  138.3569  153.8932 H   0  0  0  0  0  0  0  0  0  0  0  0
  151.8488  139.4365  156.5533 H   0  0  0  0  0  0  0  0  0  0  0  0
  152.7948  140.2745  155.3216 H   0  0  0  0  0  0  0  0  0  0  0  0
  1  2  1  0  0  0  0
  1 19  1  0  0  0  0
  1 20  1  0  0  0  0
  1 21  1  0  0  0  0
  2  3  1  0  0  0  0
  2  9  1  0  0  0  0
  2 22  1  0  0  0  0
  3  4  1  0  0  0  0
  3 23  1  0  0  0  0
  3 24  1  0  0  0  0
  4  8  1  0  0  0  0
  4  5  1  0  0  0  0
  5  6  2  0  0  0  0
  5 25  1  0  0  0  0
  6  7  1  0  0  0  0
  6 26  1  0  0  0  0
  7  8  2  0  0  0  0
  7 27  1  0  0  0  0
  9 10  1  0  0  0  0
  9 28  1  0  0  0  0
 10 11  2  0  0  0  0
 10 12  1  0  0  0  0
 12 13  1  0  0  0  0
 12 29  1  0  0  0  0
 13 14  1  0  0  0  0
 13 30  1  0  0  0  0
 13 31  1  0  0  0  0
 14 18  1  0  0  0  0
 14 15  1  0  0  0  0
 14 32  1  0  0  0  0
 15 16  1  0  0  0  0
 15 33  1  0  0  0  0
 15 34  1  0  0  0  0
 16 17  1  0  0  0  0
 16 35  1  0  0  0  0
 16 36  1  0  0  0  0
 17 18  1  0  0  0  0
 17 37  1  0  0  0  0
 17 38  1  0  0  0  0
M  END
> <s_m_source_file>
AV-unprocessed.smi

> <i_m_source_file_index>
3267

> <i_lp_mmshare_version>
43012

> <i_f3d_flags>
0

> <s_epik_input>
bjFbY0hdW2NIXVtjSF1uMVtDSDJdW0NAQEhdKFtDSDNdKVtOSF1DKD1PKVtOSF1bQ0gyXVtDQEBIXTJbQ0gyXVtDSDJdW0NIMl1PMg==

> <s_epik_cmdline>
J2VwaWtfcHl0aG9uJywgJy1waCcsICc3LjAnLCAnLXRuJywgJzgnLCAnLW1hJywgJzIwMCcsICctbWV0YWxfYmluZGluZycsICctaW1hZScsICc8aW5maWxlLm1hZT4nLCAnLW9tYWUnLCAnPG91dGZpbGUubWFlPic=

> <r_lp_tautomer_probability>
1

> <r_epik_Ionization_Penalty>
6.24796e-05

> <r_epik_Ionization_Penalty_Charging>
0

> <r_epik_Ionization_Penalty_Neutral>
6.24796e-05

> <r_epik_State_Penalty>
-0

> <r_epik_Charging_Adjusted_Penalty>
0

> <i_epik_Tot_Q>
0

> <i_epik_Tot_abs_Q>
0

> <r_epik_Metal_State_Penalty>
-0

> <b_epik_Metal_Only>
0

> <s_lp_Force_Field>
OPLS_2005

> <r_lp_Energy>
17.87

> <b_lp_Chiralities_Consistent>
1

> <s_lp_Variant>
AV-unprocessed.smi:3267-1

> <Gold.Version>
5.8.1

> <Gold.Id.Protein>
6NUR|6NUR_protein|mol2

> <Gold.PLP.Fitness>
41.9172

> <Gold.PLP.PLP>
-33.7280

> <Gold.PLP.part.hbond>
-3.2338

> <Gold.PLP.part.metal>
0.0000

> <Gold.PLP.part.buried>
-3.8883

> <Gold.PLP.part.nonpolar>
-27.8471

> <Gold.PLP.part.repulsive>
0.4421

> <Gold.PLP.ligand.clash>
0.0000

> <Gold.PLP.ligand.torsion>
1.1818

> <Gold.PLP.Chemscore.Hbond>
1.5095

> <Gold.PLP.Chemscore.CHOScore>
1.9999

> <Gold.PLP.Chemscore.Metal>
0.0000

> <Gold.Chemscore.Hbonds>
donor molecule, donor type, donor heavy atom, donor atom, acceptor molecule, acceptor atom, score
      L1  H     9    28       P1  7948  0.62
      L1  H    12    29       P1  7948  0.66
      P1  H  7989  7998       L1    18  0.46
      L1  C     5    25       P1 10186  0.97
      L1  C     7    27       P1 10747  0.77

> <Gold.PLP.Chemscore.Internal.Correction>
0.0245

> <Gold.Rescore>
     Score         DG    S(hbond)    S(metal)    S(lipo)     H(rot)  DE(clash)    DE(int)     intcor
     13.74     -14.94       1.79        0.00      70.80       1.87       0.00       1.21       ----

> <Gold.Chemscore.Fitness>
13.7368

> <Gold.Chemscore.DG>
-14.9425

> <Gold.Chemscore.ZeroCoef>
-5.4800

> <Gold.Chemscore.Hbond>
1.7882

> <Gold.Chemscore.Metal>
0.0000

> <Gold.Chemscore.Lipo>
70.7951

> <Gold.Chemscore.Internal_Hbond>
0.0000

> <Gold.Chemscore.DEClash>
0.0004

> <Gold.Chemscore.DEInternal>
1.2053

> <Gold.Chemscore.Rot>
1.8724

> <Gold.Chemscore.Internal.Correction>
   9.000000E+99

> <Gold.Chemscore.Hbonds>
donor molecule, donor type, donor heavy atom, donor atom, acceptor molecule, acceptor atom, score
      L1  H     9    28       P1  7948  0.62
      L1  H    12    29       P1  7948  0.66

> <Gold.Chemscore.Hbond.Weighted>
-5.9727

> <Gold.Chemscore.Metal.Weighted>
-0.0000

> <Gold.Chemscore.Lipo.Weighted>
-8.2830

> <Gold.Chemscore.Internal_Hbond.Weighted>
0.0000

> <Gold.Chemscore.DEClash.Weighted>
0.0004

> <Gold.Chemscore.DEInternal.Weighted>
1.2053

> <Gold.Chemscore.Rot.Weighted>
4.7933

> <Gold.Chemscore.Internal.Correction.Weighted>
   9.000000E+99

> <Gold.Protein.RotatedTorsions>
[ 6907 6896 6895 6894 ] final  -31.05 input  -60.11 | X-H torsion
[ 7974 7965 7964 7962 ] final   11.65 input  175.53 | X-H torsion
[ 8008 7997 7996 7995 ] final  -17.90 input   59.86 | X-H torsion
[ 10167 10162 10161 10158 ] final -172.20 input  -65.29 | X-H torsion
[ 10718 10713 10712 10709 ] final -165.44 input   66.30 | X-H torsion
[ 10763 10752 10751 10750 ] final  -40.96 input  -60.55 | X-H torsion
[ 11005 11000 10999 10996 ] final   78.87 input  -57.11 | X-H torsion

> <Gold.Protein.ActiveResidues>
 VAL166  LYS551  ARG553  GLY616  TRP617  ASP618  TYR619  PRO620  LYS621  CYS622 
 ASP623  PHE694  ASN695  SER759  ASP760  ASP761  ALA762  ILE779  LEU786  VAL792 
 PHE793  MET794  SER795  GLU796  ALA797  LYS798  CYS799  TRP800  GLU811  SER814 

> <Gold.Protein.RotatedAtoms>
  151.0973  134.9952  159.8431 H   0  0  0  0  0  0  0  0  0  0  0  0  # atno 6907 bound_to 6896
  152.5434  134.1992  159.8715 H   0  0  0  0  0  0  0  0  0  0  0  0  # atno 6908 bound_to 6896
  151.2033  133.4554  159.2630 H   0  0  0  0  0  0  0  0  0  0  0  0  # atno 6909 bound_to 6896
  146.2367  139.9453  142.8477 H   0  0  0  0  0  0  0  0  0  0  0  0  # atno 7974 bound_to 7965
  154.4945  140.2130  155.9477 H   0  0  0  0  0  0  0  0  0  0  0  0  # atno 8008 bound_to 7997
  156.1351  140.3190  155.8376 H   0  0  0  0  0  0  0  0  0  0  0  0  # atno 8009 bound_to 7997
  155.4225  140.0498  157.3015 H   0  0  0  0  0  0  0  0  0  0  0  0  # atno 8010 bound_to 7997
  139.5758  144.1536  152.1448 H   0  0  0  0  0  0  0  0  0  0  0  0  # atno 10167 bound_to 10162
  156.6534  130.9016  151.3017 H   0  0  0  0  0  0  0  0  0  0  0  0  # atno 10718 bound_to 10713
  153.9545  135.6746  153.4744 H   0  0  0  0  0  0  0  0  0  0  0  0  # atno 10763 bound_to 10752
  153.0868  135.4895  154.8609 H   0  0  0  0  0  0  0  0  0  0  0  0  # atno 10764 bound_to 10752
  154.7307  135.3137  154.8856 H   0  0  0  0  0  0  0  0  0  0  0  0  # atno 10765 bound_to 10752
  139.9195  134.7797  156.1705 H   0  0  0  0  0  0  0  0  0  0  0  0  # atno 11005 bound_to 11000
  145.1913  140.9813  143.4209 LP  0  0  0  0  0  0  0  0  0  0  0  0  # atno 17320 bound_to 7965
  144.9855  139.3741  143.6241 LP  0  0  0  0  0  0  0  0  0  0  0  0  # atno 17321 bound_to 7965
  140.1079  144.5483  150.6945 LP  0  0  0  0  0  0  0  0  0  0  0  0  # atno 17342 bound_to 10162
  140.7040  143.2455  151.4780 LP  0  0  0  0  0  0  0  0  0  0  0  0  # atno 17343 bound_to 10162
  157.7133  130.9467  150.1166 LP  0  0  0  0  0  0  0  0  0  0  0  0  # atno 17370 bound_to 10713
  156.2067  130.3664  149.8721 LP  0  0  0  0  0  0  0  0  0  0  0  0  # atno 17371 bound_to 10713
  141.0703  133.6800  156.2128 LP  0  0  0  0  0  0  0  0  0  0  0  0  # atno 17394 bound_to 11000
  140.6517  134.5060  157.5578 LP  0  0  0  0  0  0  0  0  0  0  0  0  # atno 17395 bound_to 11000

$$$$
