AV-unprocessed.smi:1701|AV-procd|sdf|6834|dock3
  -GOLD-   22720 8 13D 1   1.00000     0.00000
 Structure written by MMmdl.
 54 56  0  0  0  0  0  0  0  0  2 V2000
  154.2312  141.7592  160.0317 C   0  0  0  0  0  0  0  0  0  0  0  0
  152.7422  141.4383  159.8573 C   0  0  0  0  0  0  0  0  0  0  0  0
  152.1533  142.1808  158.7450 N   0  0  0  0  0  0  0  0  0  0  0  0
  151.7160  143.5556  158.9918 C   0  0  0  0  0  0  0  0  0  0  0  0
  152.3919  144.5737  158.0604 C   0  0  0  0  0  0  0  0  0  0  0  0
  151.5399  141.4213  157.7244 C   0  0  0  0  0  0  0  0  0  0  0  0
  152.2268  140.3357  157.1318 C   0  0  0  0  0  0  0  0  0  0  0  0
  151.5945  139.5877  156.1200 C   0  0  0  0  0  0  0  0  0  0  0  0
  150.2858  139.9468  155.7195 C   0  0  0  0  0  0  0  0  0  0  0  0
  149.5208  139.2771  154.7255 N   0  0  0  0  0  0  0  0  0  0  0  0
  148.2418  139.4705  154.3467 C   0  0  0  0  0  0  0  0  0  0  0  0
  147.4683  140.2774  154.8555 O   0  0  0  0  0  0  0  0  0  0  0  0
  147.8446  138.6741  153.3383 N   0  0  0  0  0  0  0  0  0  0  0  0
  146.5315  138.6265  152.6934 C   0  0  1  0  0  0  0  0  0  0  0  0
  146.5412  137.9744  151.2964 C   0  0  0  0  0  0  0  0  0  0  0  0
  145.2470  137.1399  151.2242 C   0  0  0  0  0  0  0  0  0  0  0  0
  144.5221  137.4386  152.4737 N   0  3  1  0  0  0  0  0  0  0  0  0
  143.5460  136.4328  152.9466 C   0  0  0  0  0  0  0  0  0  0  0  0
  142.8429  136.9648  154.2119 C   0  0  0  0  0  0  0  0  0  0  0  0
  143.8558  137.3974  155.2925 C   0  0  0  0  0  0  0  0  0  0  0  0
  144.9030  138.3703  154.7166 C   0  0  0  0  0  0  0  0  0  0  0  0
  145.5563  137.7454  153.4732 C   0  0  2  0  0  0  0  0  0  0  0  0
  149.6845  141.0427  156.3700 C   0  0  0  0  0  0  0  0  0  0  0  0
  150.2864  141.7615  157.3396 N   0  0  0  0  0  0  0  0  0  0  0  0
  154.6485  141.2054  160.8727 H   0  0  0  0  0  0  0  0  0  0  0  0
  154.3910  142.8208  160.2218 H   0  0  0  0  0  0  0  0  0  0  0  0
  154.7981  141.4889  159.1405 H   0  0  0  0  0  0  0  0  0  0  0  0
  152.6072  140.3629  159.7403 H   0  0  0  0  0  0  0  0  0  0  0  0
  152.2075  141.7019  160.7702 H   0  0  0  0  0  0  0  0  0  0  0  0
  150.6314  143.6194  158.8981 H   0  0  0  0  0  0  0  0  0  0  0  0
  151.9433  143.8209  160.0248 H   0  0  0  0  0  0  0  0  0  0  0  0
  152.0755  145.5871  158.3063 H   0  0  0  0  0  0  0  0  0  0  0  0
  152.1448  144.3995  157.0134 H   0  0  0  0  0  0  0  0  0  0  0  0
  153.4769  144.5334  158.1586 H   0  0  0  0  0  0  0  0  0  0  0  0
  153.2299  140.0759  157.4379 H   0  0  0  0  0  0  0  0  0  0  0  0
  152.1292  138.7581  155.6862 H   0  0  0  0  0  0  0  0  0  0  0  0
  150.0112  138.5418  154.2384 H   0  0  0  0  0  0  0  0  0  0  0  0
  148.5319  138.0217  152.9882 H   0  0  0  0  0  0  0  0  0  0  0  0
  146.1083  139.6308  152.6215 H   0  0  0  0  0  0  0  0  0  0  0  0
  146.5784  138.7319  150.5127 H   0  0  0  0  0  0  0  0  0  0  0  0
  147.4080  137.3250  151.1639 H   0  0  0  0  0  0  0  0  0  0  0  0
  144.6388  137.3871  150.3538 H   0  0  0  0  0  0  0  0  0  0  0  0
  145.4900  136.0771  151.1777 H   0  0  0  0  0  0  0  0  0  0  0  0
  142.8134  136.2358  152.1633 H   0  0  0  0  0  0  0  0  0  0  0  0
  144.0543  135.4909  153.1587 H   0  0  0  0  0  0  0  0  0  0  0  0
  142.2189  137.8186  153.9442 H   0  0  0  0  0  0  0  0  0  0  0  0
  142.1694  136.2065  154.6124 H   0  0  0  0  0  0  0  0  0  0  0  0
  143.3350  137.8602  156.1312 H   0  0  0  0  0  0  0  0  0  0  0  0
  144.3600  136.5157  155.6901 H   0  0  0  0  0  0  0  0  0  0  0  0
  144.4259  139.3163  154.4565 H   0  0  0  0  0  0  0  0  0  0  0  0
  145.6590  138.5966  155.4692 H   0  0  0  0  0  0  0  0  0  0  0  0
  146.0559  136.8146  153.7525 H   0  0  0  0  0  0  0  0  0  0  0  0
  148.6850  141.3557  156.1052 H   0  0  0  0  0  0  0  0  0  0  0  0
  144.0151  138.2974  152.3134 H   0  0  0  0  0  0  0  0  0  0  0  0
  1  2  1  0  0  0  0
  1 25  1  0  0  0  0
  1 26  1  0  0  0  0
  1 27  1  0  0  0  0
  2  3  1  0  0  0  0
  2 28  1  0  0  0  0
  2 29  1  0  0  0  0
  3  4  1  0  0  0  0
  3  6  1  0  0  0  0
  4  5  1  0  0  0  0
  4 30  1  0  0  0  0
  4 31  1  0  0  0  0
  5 32  1  0  0  0  0
  5 33  1  0  0  0  0
  5 34  1  0  0  0  0
  6 24  1  0  0  0  0
  6  7  2  0  0  0  0
  7  8  1  0  0  0  0
  7 35  1  0  0  0  0
  8  9  2  0  0  0  0
  8 36  1  0  0  0  0
  9 10  1  0  0  0  0
  9 23  1  0  0  0  0
 10 11  1  0  0  0  0
 10 37  1  0  0  0  0
 11 12  2  0  0  0  0
 11 13  1  0  0  0  0
 13 14  1  0  0  0  0
 13 38  1  0  0  0  0
 14 22  1  0  0  0  0
 14 15  1  0  0  0  0
 14 39  1  0  0  0  0
 15 16  1  0  0  0  0
 15 40  1  0  0  0  0
 15 41  1  0  0  0  0
 16 17  1  0  0  0  0
 16 42  1  0  0  0  0
 16 43  1  0  0  0  0
 17 22  1  0  0  0  0
 17 18  1  0  0  0  0
 17 54  1  0  0  0  0
 18 19  1  0  0  0  0
 18 44  1  0  0  0  0
 18 45  1  0  0  0  0
 19 20  1  0  0  0  0
 19 46  1  0  0  0  0
 19 47  1  0  0  0  0
 20 21  1  0  0  0  0
 20 48  1  0  0  0  0
 20 49  1  0  0  0  0
 21 22  1  0  0  0  0
 21 50  1  0  0  0  0
 21 51  1  0  0  0  0
 22 52  1  0  0  0  0
 23 24  2  0  0  0  0
 23 53  1  0  0  0  0
M  CHG  1  17   1
M  END
> <s_m_source_file>
AV-unprocessed.smi

> <i_m_source_file_index>
1701

> <i_lp_mmshare_version>
43012

> <i_f3d_flags>
0

> <s_epik_input>
W0NIM11bQ0gyXU4oW0NIMl1bQ0gzXSljMVtjSF1bY0hdYyhbY0hdbjEpW05IXUMoPU8pW05IXVtDQEhdKFtDSDJdW0NIMl0yKVtDQEBIXShOMjMpW0NIMl1bQ0gyXVtDSDJdW0NIMl0z

> <s_epik_cmdline>
J2VwaWtfcHl0aG9uJywgJy1waCcsICc3LjAnLCAnLXRuJywgJzgnLCAnLW1hJywgJzIwMCcsICctbWV0YWxfYmluZGluZycsICctaW1hZScsICc8aW5maWxlLm1hZT4nLCAnLW9tYWUnLCAnPG91dGZpbGUubWFlPic=

> <r_lp_tautomer_probability>
1

> <r_epik_Ionization_Penalty>
0.56662

> <r_epik_Ionization_Penalty_Charging>
0.000974069

> <r_epik_Ionization_Penalty_Neutral>
0.565646

> <r_epik_State_Penalty>
2.0247

> <r_epik_Charging_Adjusted_Penalty>
2.02568

> <i_epik_Tot_Q>
1

> <i_epik_Tot_abs_Q>
1

> <r_epik_Metal_State_Penalty>
1.51504

> <b_epik_Metal_Only>
0

> <s_lp_Force_Field>
OPLS_2005

> <r_lp_Energy>
54.5744

> <b_lp_Chiralities_Consistent>
1

> <s_lp_Variant>
AV-unprocessed.smi:1701-14

> <Gold.Version>
5.8.1

> <Gold.Id.Protein>
6NUR|6NUR_protein|mol2

> <Gold.PLP.Fitness>
43.7796

> <Gold.PLP.PLP>
-37.0690

> <Gold.PLP.part.hbond>
-4.0000

> <Gold.PLP.part.metal>
0.0000

> <Gold.PLP.part.buried>
6.7533

> <Gold.PLP.part.nonpolar>
-41.7533

> <Gold.PLP.part.repulsive>
0.3009

> <Gold.PLP.ligand.clash>
0.0000

> <Gold.PLP.ligand.torsion>
1.2184

> <Gold.PLP.Chemscore.Hbond>
2.7755

> <Gold.PLP.Chemscore.CHOScore>
0.0000

> <Gold.PLP.Chemscore.Metal>
0.0000

> <Gold.Chemscore.Hbonds>
donor molecule, donor type, donor heavy atom, donor atom, acceptor molecule, acceptor atom, score
      L1  H    13    38       P1  7948  0.71
      L1  H    17    54       P1 10175  1.30

> <Gold.PLP.Chemscore.Internal.Correction>
0.8208

> <Gold.Rescore>
     Score         DG    S(hbond)    S(metal)    S(lipo)     H(rot)  DE(clash)    DE(int)     intcor
     15.59     -20.71       1.88        0.00     104.42       1.28       2.66       2.46       ----

> <Gold.Chemscore.Fitness>
15.5853

> <Gold.Chemscore.DG>
-20.7064

> <Gold.Chemscore.ZeroCoef>
-5.4800

> <Gold.Chemscore.Hbond>
1.8848

> <Gold.Chemscore.Metal>
0.0000

> <Gold.Chemscore.Lipo>
104.4242

> <Gold.Chemscore.Internal_Hbond>
0.0000

> <Gold.Chemscore.DEClash>
2.6586

> <Gold.Chemscore.DEInternal>
2.4626

> <Gold.Chemscore.Rot>
1.2838

> <Gold.Chemscore.Internal.Correction>
   9.000000E+99

> <Gold.Chemscore.Hbonds>
donor molecule, donor type, donor heavy atom, donor atom, acceptor molecule, acceptor atom, score
      L1  H    13    38       P1  7948  0.68
      L1  H    17    54       P1 10175  0.64

> <Gold.Chemscore.Hbond.Weighted>
-6.2953

> <Gold.Chemscore.Metal.Weighted>
-0.0000

> <Gold.Chemscore.Lipo.Weighted>
-12.2176

> <Gold.Chemscore.Internal_Hbond.Weighted>
0.0000

> <Gold.Chemscore.DEClash.Weighted>
2.6586

> <Gold.Chemscore.DEInternal.Weighted>
2.4626

> <Gold.Chemscore.Rot.Weighted>
3.2865

> <Gold.Chemscore.Internal.Correction.Weighted>
   9.000000E+99

> <Gold.Protein.RotatedTorsions>
[ 6907 6896 6895 6894 ] final -153.72 input  -60.11 | X-H torsion
[ 7974 7965 7964 7962 ] final  -86.62 input  175.53 | X-H torsion
[ 8008 7997 7996 7995 ] final  -50.83 input   59.86 | X-H torsion
[ 10167 10162 10161 10158 ] final   53.48 input  -65.29 | X-H torsion
[ 10718 10713 10712 10709 ] final   70.84 input   66.30 | X-H torsion
[ 10763 10752 10751 10750 ] final   91.80 input  -60.55 | X-H torsion
[ 11005 11000 10999 10996 ] final  160.59 input  -57.11 | X-H torsion

> <Gold.Protein.ActiveResidues>
 VAL166  LYS551  ARG553  GLY616  TRP617  ASP618  TYR619  PRO620  LYS621  CYS622 
 ASP623  PHE694  ASN695  SER759  ASP760  ASP761  ALA762  ILE779  LEU786  VAL792 
 PHE793  MET794  SER795  GLU796  ALA797  LYS798  CYS799  TRP800  GLU811  SER814 

> <Gold.Protein.RotatedAtoms>
  151.2468  133.4370  159.2609 H   0  0  0  0  0  0  0  0  0  0  0  0  # atno 6907 bound_to 6896
  151.0654  134.9764  159.8292 H   0  0  0  0  0  0  0  0  0  0  0  0  # atno 6908 bound_to 6896
  152.5404  134.2416  159.8917 H   0  0  0  0  0  0  0  0  0  0  0  0  # atno 6909 bound_to 6896
  145.4775  140.9558  143.1883 H   0  0  0  0  0  0  0  0  0  0  0  0  # atno 7974 bound_to 7965
  154.4070  140.1262  156.4730 H   0  0  0  0  0  0  0  0  0  0  0  0  # atno 8008 bound_to 7997
  155.7160  140.3493  155.4975 H   0  0  0  0  0  0  0  0  0  0  0  0  # atno 8009 bound_to 7997
  155.9257  140.1060  157.1162 H   0  0  0  0  0  0  0  0  0  0  0  0  # atno 8010 bound_to 7997
  140.2403  144.3591  150.6382 H   0  0  0  0  0  0  0  0  0  0  0  0  # atno 10167 bound_to 10162
  157.6421  130.9498  150.0707 H   0  0  0  0  0  0  0  0  0  0  0  0  # atno 10718 bound_to 10713
  153.2122  135.4384  155.0393 H   0  0  0  0  0  0  0  0  0  0  0  0  # atno 10763 bound_to 10752
  154.8206  135.3336  154.7051 H   0  0  0  0  0  0  0  0  0  0  0  0  # atno 10764 bound_to 10752
  153.7488  135.6999  153.5006 H   0  0  0  0  0  0  0  0  0  0  0  0  # atno 10765 bound_to 10752
  140.2074  134.8293  157.3084 H   0  0  0  0  0  0  0  0  0  0  0  0  # atno 11005 bound_to 11000
  144.7909  139.6331  143.7114 LP  0  0  0  0  0  0  0  0  0  0  0  0  # atno 17320 bound_to 7965
  146.2361  139.5908  142.9523 LP  0  0  0  0  0  0  0  0  0  0  0  0  # atno 17321 bound_to 7965
  140.6118  143.2170  151.6870 LP  0  0  0  0  0  0  0  0  0  0  0  0  # atno 17342 bound_to 10162
  139.5079  144.3628  152.0545 LP  0  0  0  0  0  0  0  0  0  0  0  0  # atno 17343 bound_to 10162
  156.1712  130.3646  149.9163 LP  0  0  0  0  0  0  0  0  0  0  0  0  # atno 17370 bound_to 10713
  156.7138  130.8980  151.3612 LP  0  0  0  0  0  0  0  0  0  0  0  0  # atno 17371 bound_to 10713
  140.1988  134.4281  155.7674 LP  0  0  0  0  0  0  0  0  0  0  0  0  # atno 17394 bound_to 11000
  141.2227  133.7062  156.8149 LP  0  0  0  0  0  0  0  0  0  0  0  0  # atno 17395 bound_to 11000

$$$$
