AV-unprocessed.smi:1207|AV-procd|sdf|5049|dock4
  -GOLD-   22720 4 73D 1   1.00000     0.00000
 Structure written by MMmdl.
 51 53  0  0  0  0  0  0  0  0  1 V2000
  153.2410  142.9454  161.6644 C   0  0  0  0  0  0  0  0  0  0  0  0
  152.6447  142.5664  160.3203 C   0  0  0  0  0  0  0  0  0  0  0  0
  152.7919  141.2413  159.8522 C   0  0  0  0  0  0  0  0  0  0  0  0
  152.2528  140.8483  158.6076 C   0  0  0  0  0  0  0  0  0  0  0  0
  152.2802  139.6233  157.9632 N   0  0  0  0  0  0  0  0  0  0  0  0
  151.6096  139.8932  156.8470 C   0  0  0  0  0  0  0  0  0  0  0  0
  151.1495  141.1493  156.6917 N   0  0  0  0  0  0  0  0  0  0  0  0
  150.3968  141.6685  155.5633 C   0  0  0  0  0  0  0  0  0  0  0  0
  149.9723  140.5634  154.5777 C   0  0  2  0  0  0  0  0  0  0  0  0
  149.2399  141.1423  153.5153 O   0  0  0  0  0  0  0  0  0  0  0  0
  149.0814  139.5060  155.2624 C   0  0  0  0  0  0  0  0  0  0  0  0
  148.6849  138.3724  154.4231 N   0  0  0  0  0  0  0  0  0  0  0  0
  147.4756  138.7055  153.6748 C   0  0  0  0  0  0  0  0  0  0  0  0
  148.4968  137.1398  155.1950 C   0  0  0  0  0  0  0  0  0  0  0  0
  149.7858  136.6005  155.7618 C   0  0  0  0  0  0  0  0  0  0  0  0
  151.1180  136.9771  155.4284 C   0  0  0  0  0  0  0  0  0  0  0  0
  151.5752  138.0075  154.4366 C   0  0  0  0  0  0  0  0  0  0  0  0
  152.0131  136.2919  156.1205 N   0  0  0  0  0  0  0  0  0  0  0  0
  151.2828  135.4285  156.9429 O   0  0  0  0  0  0  0  0  0  0  0  0
  149.9609  135.6296  156.7093 C   0  0  0  0  0  0  0  0  0  0  0  0
  149.0042  134.7974  157.4947 C   0  0  0  0  0  0  0  0  0  0  0  0
  151.5540  141.8246  157.8386 C   0  0  0  0  0  0  0  0  0  0  0  0
  151.4019  143.1463  158.2933 C   0  0  0  0  0  0  0  0  0  0  0  0
  151.9491  143.5229  159.5378 C   0  0  0  0  0  0  0  0  0  0  0  0
  151.7822  144.9538  160.0174 C   0  0  0  0  0  0  0  0  0  0  0  0
  153.7158  142.0898  162.1452 H   0  0  0  0  0  0  0  0  0  0  0  0
  152.4665  143.3179  162.3353 H   0  0  0  0  0  0  0  0  0  0  0  0
  153.9962  143.7220  161.5412 H   0  0  0  0  0  0  0  0  0  0  0  0
  153.3230  140.5129  160.4471 H   0  0  0  0  0  0  0  0  0  0  0  0
  151.4429  139.1340  156.0968 H   0  0  0  0  0  0  0  0  0  0  0  0
  149.5162  142.1816  155.9518 H   0  0  0  0  0  0  0  0  0  0  0  0
  150.9988  142.4251  155.0582 H   0  0  0  0  0  0  0  0  0  0  0  0
  150.8730  140.1112  154.1660 H   0  0  0  0  0  0  0  0  0  0  0  0
  148.9795  140.4522  152.9242 H   0  0  0  0  0  0  0  0  0  0  0  0
  149.5870  139.1294  156.1529 H   0  0  0  0  0  0  0  0  0  0  0  0
  148.1877  140.0156  155.6263 H   0  0  0  0  0  0  0  0  0  0  0  0
  147.1998  137.9050  152.9882 H   0  0  0  0  0  0  0  0  0  0  0  0
  147.6262  139.6039  153.0755 H   0  0  0  0  0  0  0  0  0  0  0  0
  146.6341  138.8832  154.3456 H   0  0  0  0  0  0  0  0  0  0  0  0
  147.8123  137.3172  156.0216 H   0  0  0  0  0  0  0  0  0  0  0  0
  148.0021  136.3941  154.5714 H   0  0  0  0  0  0  0  0  0  0  0  0
  151.3644  137.6858  153.4168 H   0  0  0  0  0  0  0  0  0  0  0  0
  152.6469  138.1942  154.5114 H   0  0  0  0  0  0  0  0  0  0  0  0
  151.0636  138.9563  154.5979 H   0  0  0  0  0  0  0  0  0  0  0  0
  148.2126  134.4099  156.8531 H   0  0  0  0  0  0  0  0  0  0  0  0
  148.5386  135.3892  158.2830 H   0  0  0  0  0  0  0  0  0  0  0  0
  149.5080  133.9495  157.9593 H   0  0  0  0  0  0  0  0  0  0  0  0
  150.8719  143.8648  157.6855 H   0  0  0  0  0  0  0  0  0  0  0  0
  151.2488  145.5592  159.2841 H   0  0  0  0  0  0  0  0  0  0  0  0
  152.7546  145.4160  160.1878 H   0  0  0  0  0  0  0  0  0  0  0  0
  151.2169  144.9803  160.9492 H   0  0  0  0  0  0  0  0  0  0  0  0
  1  2  1  0  0  0  0
  1 26  1  0  0  0  0
  1 27  1  0  0  0  0
  1 28  1  0  0  0  0
  2 24  1  0  0  0  0
  2  3  2  0  0  0  0
  3  4  1  0  0  0  0
  3 29  1  0  0  0  0
  4 22  2  0  0  0  0
  4  5  1  0  0  0  0
  5  6  2  0  0  0  0
  6  7  1  0  0  0  0
  6 30  1  0  0  0  0
  7  8  1  0  0  0  0
  7 22  1  0  0  0  0
  8  9  1  0  0  0  0
  8 31  1  0  0  0  0
  8 32  1  0  0  0  0
  9 10  1  0  0  0  0
  9 11  1  0  0  0  0
  9 33  1  0  0  0  0
 10 34  1  0  0  0  0
 11 12  1  0  0  0  0
 11 35  1  0  0  0  0
 11 36  1  0  0  0  0
 12 13  1  0  0  0  0
 12 14  1  0  0  0  0
 13 37  1  0  0  0  0
 13 38  1  0  0  0  0
 13 39  1  0  0  0  0
 14 15  1  0  0  0  0
 14 40  1  0  0  0  0
 14 41  1  0  0  0  0
 15 20  2  0  0  0  0
 15 16  1  0  0  0  0
 16 17  1  0  0  0  0
 16 18  2  0  0  0  0
 17 42  1  0  0  0  0
 17 43  1  0  0  0  0
 17 44  1  0  0  0  0
 18 19  1  0  0  0  0
 19 20  1  0  0  0  0
 20 21  1  0  0  0  0
 21 45  1  0  0  0  0
 21 46  1  0  0  0  0
 21 47  1  0  0  0  0
 22 23  1  0  0  0  0
 23 24  2  0  0  0  0
 23 48  1  0  0  0  0
 24 25  1  0  0  0  0
 25 49  1  0  0  0  0
 25 50  1  0  0  0  0
 25 51  1  0  0  0  0
M  END
> <s_m_source_file>
AV-unprocessed.smi

> <i_m_source_file_index>
1207

> <i_lp_mmshare_version>
43012

> <i_f3d_flags>
0

> <s_epik_input>
W0NIM11jKFtjSF0xKWMoW0NIM10pW2NIXWMoYzEyKW4oW2NIXW4yKVtDSDJdW0NASF0oW09IXSlbQ0gyXU4oW0NIM10pW0NIMl1jM2MoW0NIM10pbm9jM1tDSDNd

> <s_epik_cmdline>
J2VwaWtfcHl0aG9uJywgJy1waCcsICc3LjAnLCAnLXRuJywgJzgnLCAnLW1hJywgJzIwMCcsICctbWV0YWxfYmluZGluZycsICctaW1hZScsICc8aW5maWxlLm1hZT4nLCAnLW9tYWUnLCAnPG91dGZpbGUubWFlPic=

> <r_epik_Ionization_Penalty>
0.374039

> <r_epik_Ionization_Penalty_Charging>
0

> <r_epik_Ionization_Penalty_Neutral>
0.374039

> <r_epik_State_Penalty>
0.350767

> <r_epik_Charging_Adjusted_Penalty>
0.350767

> <i_epik_Tot_Q>
0

> <i_epik_Tot_abs_Q>
0

> <r_epik_Metal_State_Penalty>
0.343187

> <b_epik_Metal_Only>
0

> <s_lp_Force_Field>
OPLS_2005

> <r_lp_Energy>
17.2157

> <b_lp_Chiralities_Consistent>
1

> <s_lp_Variant>
AV-unprocessed.smi:1207-1

> <Gold.Version>
5.8.1

> <Gold.Id.Protein>
6NUR|6NUR_protein|mol2

> <Gold.PLP.Fitness>
54.1381

> <Gold.PLP.PLP>
-47.2597

> <Gold.PLP.part.hbond>
-4.0381

> <Gold.PLP.part.metal>
0.0000

> <Gold.PLP.part.buried>
-5.4320

> <Gold.PLP.part.nonpolar>
-37.1586

> <Gold.PLP.part.repulsive>
0.1973

> <Gold.PLP.ligand.clash>
0.0000

> <Gold.PLP.ligand.torsion>
0.6141

> <Gold.PLP.Chemscore.Hbond>
2.5900

> <Gold.PLP.Chemscore.CHOScore>
0.0000

> <Gold.PLP.Chemscore.Metal>
0.0000

> <Gold.Chemscore.Hbonds>
donor molecule, donor type, donor heavy atom, donor atom, acceptor molecule, acceptor atom, score
      L1  H    10    34       P1  7957  0.59
      P1  H  8011  8017       L1    10  1.00
      P1  H 10752 10765       L1    18  1.00

> <Gold.PLP.Chemscore.Internal.Correction>
0.3366

> <Gold.Rescore>
     Score         DG    S(hbond)    S(metal)    S(lipo)     H(rot)  DE(clash)    DE(int)     intcor
     16.10     -21.36       1.90        0.00     133.46       2.38       1.36       3.91       ----

> <Gold.Chemscore.Fitness>
16.0955

> <Gold.Chemscore.DG>
-21.3629

> <Gold.Chemscore.ZeroCoef>
-5.4800

> <Gold.Chemscore.Hbond>
1.9009

> <Gold.Chemscore.Metal>
0.0000

> <Gold.Chemscore.Lipo>
133.4641

> <Gold.Chemscore.Internal_Hbond>
0.0000

> <Gold.Chemscore.DEClash>
1.3597

> <Gold.Chemscore.DEInternal>
3.9076

> <Gold.Chemscore.Rot>
2.3756

> <Gold.Chemscore.Internal.Correction>
   9.000000E+99

> <Gold.Chemscore.Hbonds>
donor molecule, donor type, donor heavy atom, donor atom, acceptor molecule, acceptor atom, score
      L1  H    10    34       P1  7957  0.60
      P1  H  8011  8017       L1    10  0.29
      P1  H 10752 10765       L1    18  0.77

> <Gold.Chemscore.Hbond.Weighted>
-6.3491

> <Gold.Chemscore.Metal.Weighted>
-0.0000

> <Gold.Chemscore.Lipo.Weighted>
-15.6153

> <Gold.Chemscore.Internal_Hbond.Weighted>
0.0000

> <Gold.Chemscore.DEClash.Weighted>
1.3597

> <Gold.Chemscore.DEInternal.Weighted>
3.9076

> <Gold.Chemscore.Rot.Weighted>
6.0816

> <Gold.Chemscore.Internal.Correction.Weighted>
   9.000000E+99

> <Gold.Protein.RotatedTorsions>
[ 6907 6896 6895 6894 ] final  -56.68 input  -60.11 | X-H torsion
[ 7974 7965 7964 7962 ] final -107.13 input  175.53 | X-H torsion
[ 8008 7997 7996 7995 ] final -173.47 input   59.86 | X-H torsion
[ 10167 10162 10161 10158 ] final  -82.09 input  -65.29 | X-H torsion
[ 10718 10713 10712 10709 ] final   40.27 input   66.30 | X-H torsion
[ 10763 10752 10751 10750 ] final -134.95 input  -60.55 | X-H torsion
[ 11005 11000 10999 10996 ] final  -60.19 input  -57.11 | X-H torsion

> <Gold.Protein.ActiveResidues>
 VAL166  LYS551  ARG553  GLY616  TRP617  ASP618  TYR619  PRO620  LYS621  CYS622 
 ASP623  PHE694  ASN695  SER759  ASP760  ASP761  ALA762  ILE779  LEU786  VAL792 
 PHE793  MET794  SER795  GLU796  ALA797  LYS798  CYS799  TRP800  GLU811  SER814 

> <Gold.Protein.RotatedAtoms>
  150.8148  134.7323  159.6719 H   0  0  0  0  0  0  0  0  0  0  0  0  # atno 6907 bound_to 6896
  152.4267  134.5852  159.9969 H   0  0  0  0  0  0  0  0  0  0  0  0  # atno 6908 bound_to 6896
  151.6052  133.3315  159.3092 H   0  0  0  0  0  0  0  0  0  0  0  0  # atno 6909 bound_to 6896
  145.2092  140.9089  143.3324 H   0  0  0  0  0  0  0  0  0  0  0  0  # atno 7974 bound_to 7965
  155.9578  140.1138  157.0922 H   0  0  0  0  0  0  0  0  0  0  0  0  # atno 8008 bound_to 7997
  154.4124  140.1188  156.5205 H   0  0  0  0  0  0  0  0  0  0  0  0  # atno 8009 bound_to 7997
  155.6759  140.3473  155.4839 H   0  0  0  0  0  0  0  0  0  0  0  0  # atno 8010 bound_to 7997
  140.4352  143.2534  151.8703 H   0  0  0  0  0  0  0  0  0  0  0  0  # atno 10167 bound_to 10162
  157.3802  130.7749  149.7186 H   0  0  0  0  0  0  0  0  0  0  0  0  # atno 10718 bound_to 10713
  154.8711  135.3719  154.4818 H   0  0  0  0  0  0  0  0  0  0  0  0  # atno 10763 bound_to 10752
  153.5471  135.7025  153.5614 H   0  0  0  0  0  0  0  0  0  0  0  0  # atno 10764 bound_to 10752
  153.3749  135.4011  155.1780 H   0  0  0  0  0  0  0  0  0  0  0  0  # atno 10765 bound_to 10752
  141.1278  133.6620  156.5186 H   0  0  0  0  0  0  0  0  0  0  0  0  # atno 11005 bound_to 11000
  144.9872  139.3725  143.6233 LP  0  0  0  0  0  0  0  0  0  0  0  0  # atno 17320 bound_to 7965
  146.3401  139.9039  142.8790 LP  0  0  0  0  0  0  0  0  0  0  0  0  # atno 17321 bound_to 7965
  139.4786  144.5290  151.8693 LP  0  0  0  0  0  0  0  0  0  0  0  0  # atno 17342 bound_to 10162
  140.4381  144.2023  150.5890 LP  0  0  0  0  0  0  0  0  0  0  0  0  # atno 17343 bound_to 10162
  155.9774  130.4063  150.3715 LP  0  0  0  0  0  0  0  0  0  0  0  0  # atno 17370 bound_to 10713
  157.1818  131.0394  151.2745 LP  0  0  0  0  0  0  0  0  0  0  0  0  # atno 17371 bound_to 10713
  140.4311  134.7101  157.4942 LP  0  0  0  0  0  0  0  0  0  0  0  0  # atno 17394 bound_to 11000
  140.0293  134.6429  155.9128 LP  0  0  0  0  0  0  0  0  0  0  0  0  # atno 17395 bound_to 11000

$$$$
