AV-unprocessed.smi:2449|AV-procd|sdf|9664|dock3
  -GOLD-   2272013303D 1   1.00000     0.00000
 Structure written by MMmdl.
 36 36  0  0  0  0  0  0  0  0  2 V2000
  145.4540  131.5460  150.7074 C   0  0  0  0  0  0  0  0  0  0  0  0
  145.4971  133.0538  150.4379 C   0  0  0  0  0  0  0  0  0  0  0  0
  146.5639  133.7709  151.2905 C   0  0  0  0  0  0  0  0  0  0  0  0
  146.1985  134.0009  152.7840 C   0  0  0  0  0  0  0  0  0  0  0  0
  144.9006  134.8321  152.8824 C   0  0  0  0  0  0  0  0  0  0  0  0
  145.9547  132.6509  153.4866 C   0  0  0  0  0  0  0  0  0  0  0  0
  147.2826  134.6738  153.5112 N   0  0  0  0  0  0  0  0  0  0  0  0
  147.3282  135.0204  154.8099 C   0  0  0  0  0  0  0  0  0  0  0  0
  146.4329  134.7752  155.6188 O   0  0  0  0  0  0  0  0  0  0  0  0
  148.6015  135.7433  155.2659 C   0  0  0  0  0  0  0  0  0  0  0  0
  148.5597  136.1035  156.6918 N   0  0  0  0  0  0  0  0  0  0  0  0
  147.4803  136.8852  157.1400 C   0  0  0  0  0  0  0  0  0  0  0  0
  147.3660  137.2675  158.4262 C   0  0  0  0  0  0  0  0  0  0  0  0
  148.3998  136.8493  159.3653 C   0  0  0  0  0  0  0  0  0  0  0  0
  148.3102  137.1864  160.5442 O   0  0  0  0  0  0  0  0  0  0  0  0
  149.4291  136.0941  158.8814 N   0  5  0  0  0  0  0  0  0  0  0  0
  149.5332  135.7143  157.5699 C   0  0  0  0  0  0  0  0  0  0  0  0
  150.4716  135.0336  157.1537 O   0  0  0  0  0  0  0  0  0  0  0  0
  144.6964  131.0632  150.0897 H   0  0  0  0  0  0  0  0  0  0  0  0
  145.2118  131.3409  151.7504 H   0  0  0  0  0  0  0  0  0  0  0  0
  146.4132  131.0777  150.4856 H   0  0  0  0  0  0  0  0  0  0  0  0
  145.6914  133.2148  149.3780 H   0  0  0  0  0  0  0  0  0  0  0  0
  144.5093  133.4688  150.6377 H   0  0  0  0  0  0  0  0  0  0  0  0
  147.4912  133.2007  151.2278 H   0  0  0  0  0  0  0  0  0  0  0  0
  146.7912  134.7328  150.8290 H   0  0  0  0  0  0  0  0  0  0  0  0
  144.0614  134.3043  152.4283 H   0  0  0  0  0  0  0  0  0  0  0  0
  144.9864  135.7915  152.3724 H   0  0  0  0  0  0  0  0  0  0  0  0
  144.6356  135.0352  153.9208 H   0  0  0  0  0  0  0  0  0  0  0  0
  145.1846  132.0711  152.9768 H   0  0  0  0  0  0  0  0  0  0  0  0
  145.6259  132.7948  154.5166 H   0  0  0  0  0  0  0  0  0  0  0  0
  146.8568  132.0400  153.5223 H   0  0  0  0  0  0  0  0  0  0  0  0
  148.0827  134.9331  152.9527 H   0  0  0  0  0  0  0  0  0  0  0  0
  149.4522  135.0931  155.0588 H   0  0  0  0  0  0  0  0  0  0  0  0
  148.7681  136.6357  154.6594 H   0  0  0  0  0  0  0  0  0  0  0  0
  146.7621  137.1574  156.3807 H   0  0  0  0  0  0  0  0  0  0  0  0
  146.5319  137.8706  158.7540 H   0  0  0  0  0  0  0  0  0  0  0  0
  1  2  1  0  0  0  0
  1 19  1  0  0  0  0
  1 20  1  0  0  0  0
  1 21  1  0  0  0  0
  2  3  1  0  0  0  0
  2 22  1  0  0  0  0
  2 23  1  0  0  0  0
  3  4  1  0  0  0  0
  3 24  1  0  0  0  0
  3 25  1  0  0  0  0
  4  5  1  0  0  0  0
  4  6  1  0  0  0  0
  4  7  1  0  0  0  0
  5 26  1  0  0  0  0
  5 27  1  0  0  0  0
  5 28  1  0  0  0  0
  6 29  1  0  0  0  0
  6 30  1  0  0  0  0
  6 31  1  0  0  0  0
  7  8  1  0  0  0  0
  7 32  1  0  0  0  0
  8  9  2  0  0  0  0
  8 10  1  0  0  0  0
 10 11  1  0  0  0  0
 10 33  1  0  0  0  0
 10 34  1  0  0  0  0
 11 17  1  0  0  0  0
 11 12  1  0  0  0  0
 12 13  2  0  0  0  0
 12 35  1  0  0  0  0
 13 14  1  0  0  0  0
 13 36  1  0  0  0  0
 14 15  2  0  0  0  0
 14 16  1  0  0  0  0
 16 17  1  0  0  0  0
 17 18  2  0  0  0  0
M  CHG  1  16  -1
M  END
> <s_m_source_file>
AV-unprocessed.smi

> <i_m_source_file_index>
2449

> <i_lp_mmshare_version>
43012

> <i_f3d_flags>
0

> <s_epik_input>
W0NIM11bQ0gyXVtDSDJdQyhbQ0gzXSkoW0NIM10pW05IXUMoPU8pW0NIMl1uMVtjSF1bY0hdYyg9TylbbkhdYzE9Tw==

> <s_epik_cmdline>
J2VwaWtfcHl0aG9uJywgJy1waCcsICc3LjAnLCAnLXRuJywgJzgnLCAnLW1hJywgJzIwMCcsICctbWV0YWxfYmluZGluZycsICctaW1hZScsICc8aW5maWxlLm1hZT4nLCAnLW9tYWUnLCAnPG91dGZpbGUubWFlPic=

> <r_lp_tautomer_probability>
0.999537

> <r_epik_Ionization_Penalty>
3.14746

> <r_epik_Ionization_Penalty_Charging>
2.94994e-08

> <r_epik_Ionization_Penalty_Neutral>
3.14746

> <r_epik_State_Penalty>
3.14658

> <r_epik_Charging_Adjusted_Penalty>
3.14658

> <i_epik_Tot_Q>
-1

> <i_epik_Tot_abs_Q>
1

> <r_epik_Metal_State_Penalty>
0.466037

> <b_epik_Metal_Only>
1

> <s_lp_Force_Field>
OPLS_2005

> <r_lp_Energy>
14.91

> <b_lp_Chiralities_Consistent>
1

> <s_lp_Variant>
AV-unprocessed.smi:2449-2

> <Gold.Version>
5.8.1

> <Gold.Id.Protein>
6NUR|6NUR_protein|mol2

> <Gold.PLP.Fitness>
32.3217

> <Gold.PLP.PLP>
-20.0088

> <Gold.PLP.part.hbond>
-4.8207

> <Gold.PLP.part.metal>
0.0000

> <Gold.PLP.part.buried>
-4.0848

> <Gold.PLP.part.nonpolar>
-11.4387

> <Gold.PLP.part.repulsive>
0.0136

> <Gold.PLP.ligand.clash>
0.0000

> <Gold.PLP.ligand.torsion>
0.0889

> <Gold.PLP.Chemscore.Hbond>
4.1490

> <Gold.PLP.Chemscore.CHOScore>
0.0000

> <Gold.PLP.Chemscore.Metal>
0.0000

> <Gold.Chemscore.Hbonds>
donor molecule, donor type, donor heavy atom, donor atom, acceptor molecule, acceptor atom, score
      L1  H     7    32       P1  7948  1.00
      P1  H  6896  6907       L1    16  1.95
      P1  H  6931  6943       L1    15  0.77
      P1  H  6934  6947       L1    15  0.40

> <Gold.PLP.Chemscore.Internal.Correction>
0.0436

> <Gold.Rescore>
     Score         DG    S(hbond)    S(metal)    S(lipo)     H(rot)  DE(clash)    DE(int)     intcor
     11.61     -13.74       2.75        0.00      37.74       2.08       0.00       2.14       ----

> <Gold.Chemscore.Fitness>
11.6076

> <Gold.Chemscore.DG>
-13.7438

> <Gold.Chemscore.ZeroCoef>
-5.4800

> <Gold.Chemscore.Hbond>
2.7487

> <Gold.Chemscore.Metal>
0.0000

> <Gold.Chemscore.Lipo>
37.7352

> <Gold.Chemscore.Internal_Hbond>
0.0000

> <Gold.Chemscore.DEClash>
0.0000

> <Gold.Chemscore.DEInternal>
2.1362

> <Gold.Chemscore.Rot>
2.0828

> <Gold.Chemscore.Internal.Correction>
   9.000000E+99

> <Gold.Chemscore.Hbonds>
donor molecule, donor type, donor heavy atom, donor atom, acceptor molecule, acceptor atom, score
      L1  H     7    32       P1  7948  0.86
      P1  H  6896  6907       L1    16  0.23
      P1  H  6931  6943       L1    15  0.76
      P1  H  6934  6947       L1    15  0.36

> <Gold.Chemscore.Hbond.Weighted>
-9.1807

> <Gold.Chemscore.Metal.Weighted>
-0.0000

> <Gold.Chemscore.Lipo.Weighted>
-4.4150

> <Gold.Chemscore.Internal_Hbond.Weighted>
0.0000

> <Gold.Chemscore.DEClash.Weighted>
0.0000

> <Gold.Chemscore.DEInternal.Weighted>
2.1362

> <Gold.Chemscore.Rot.Weighted>
5.3319

> <Gold.Chemscore.Internal.Correction.Weighted>
   9.000000E+99

> <Gold.Protein.RotatedTorsions>
[ 6907 6896 6895 6894 ] final  -48.15 input  -60.11 | X-H torsion
[ 7974 7965 7964 7962 ] final   75.31 input  175.53 | X-H torsion
[ 8008 7997 7996 7995 ] final   98.37 input   59.86 | X-H torsion
[ 10167 10162 10161 10158 ] final -179.83 input  -65.29 | X-H torsion
[ 10718 10713 10712 10709 ] final  -25.71 input   66.30 | X-H torsion
[ 10763 10752 10751 10750 ] final  -93.05 input  -60.55 | X-H torsion
[ 11005 11000 10999 10996 ] final  -41.02 input  -57.11 | X-H torsion

> <Gold.Protein.ActiveResidues>
 VAL166  LYS551  ARG553  GLY616  TRP617  ASP618  TYR619  PRO620  LYS621  CYS622 
 ASP623  PHE694  ASN695  SER759  ASP760  ASP761  ALA762  ILE779  LEU786  VAL792 
 PHE793  MET794  SER795  GLU796  ALA797  LYS798  CYS799  TRP800  GLU811  SER814 

> <Gold.Protein.RotatedAtoms>
  150.8934  134.8340  159.7309 H   0  0  0  0  0  0  0  0  0  0  0  0  # atno 6907 bound_to 6896
  152.4851  134.4613  159.9616 H   0  0  0  0  0  0  0  0  0  0  0  0  # atno 6908 bound_to 6896
  151.4673  133.3539  159.2853 H   0  0  0  0  0  0  0  0  0  0  0  0  # atno 6909 bound_to 6896
  145.7172  139.2635  143.1617 H   0  0  0  0  0  0  0  0  0  0  0  0  # atno 7974 bound_to 7965
  156.0997  140.3245  155.7925 H   0  0  0  0  0  0  0  0  0  0  0  0  # atno 8008 bound_to 7997
  155.4857  140.0557  157.2978 H   0  0  0  0  0  0  0  0  0  0  0  0  # atno 8009 bound_to 7997
  154.4689  140.2002  156.0061 H   0  0  0  0  0  0  0  0  0  0  0  0  # atno 8010 bound_to 7997
  139.5368  144.2474  152.0812 H   0  0  0  0  0  0  0  0  0  0  0  0  # atno 10167 bound_to 10162
  156.4608  130.4503  149.6930 H   0  0  0  0  0  0  0  0  0  0  0  0  # atno 10718 bound_to 10713
  154.6922  135.5208  153.8408 H   0  0  0  0  0  0  0  0  0  0  0  0  # atno 10763 bound_to 10752
  153.0640  135.6578  154.0406 H   0  0  0  0  0  0  0  0  0  0  0  0  # atno 10764 bound_to 10752
  154.0278  135.2988  155.3352 H   0  0  0  0  0  0  0  0  0  0  0  0  # atno 10765 bound_to 10752
  141.0216  133.6860  156.2400 H   0  0  0  0  0  0  0  0  0  0  0  0  # atno 11005 bound_to 11000
  146.0659  140.7921  142.9712 LP  0  0  0  0  0  0  0  0  0  0  0  0  # atno 17320 bound_to 7965
  144.6926  140.3268  143.7223 LP  0  0  0  0  0  0  0  0  0  0  0  0  # atno 17321 bound_to 7965
  140.1946  144.4718  150.6462 LP  0  0  0  0  0  0  0  0  0  0  0  0  # atno 17342 bound_to 10162
  140.6579  143.2243  151.5925 LP  0  0  0  0  0  0  0  0  0  0  0  0  # atno 17343 bound_to 10162
  156.3718  130.7534  151.2518 LP  0  0  0  0  0  0  0  0  0  0  0  0  # atno 17370 bound_to 10713
  157.7498  131.0321  150.4210 LP  0  0  0  0  0  0  0  0  0  0  0  0  # atno 17371 bound_to 10713
  140.6563  134.5014  157.5581 LP  0  0  0  0  0  0  0  0  0  0  0  0  # atno 17394 bound_to 11000
  139.9150  134.8266  156.1398 LP  0  0  0  0  0  0  0  0  0  0  0  0  # atno 17395 bound_to 11000

$$$$
