AV-unprocessed.smi:527|AV-procd|sdf|2827|dock6
  -GOLD-   2262023313D 1   1.00000     0.00000
 Structure written by MMmdl.
 43 44  0  0  0  0  0  0  0  0  2 V2000
  149.8578  140.2832  156.6414 C   0  0  0  0  0  0  0  0  0  0  0  0
  150.0035  140.4036  155.1104 C   0  0  2  0  0  0  0  0  0  0  0  0
  149.2459  141.6299  154.5614 C   0  0  0  0  0  0  0  0  0  0  0  0
  147.7229  141.4255  154.5722 C   0  0  0  0  0  0  0  0  0  0  0  0
  147.3269  140.1563  153.8052 C   0  0  0  0  0  0  0  0  0  0  0  0
  148.0628  138.9089  154.3373 C   0  0  1  0  0  0  0  0  0  0  0  0
  147.7067  137.7460  153.5263 N   0  0  0  0  0  0  0  0  0  0  0  0
  146.6423  136.9549  153.7269 C   0  0  0  0  0  0  0  0  0  0  0  0
  145.6746  137.2821  154.4172 O   0  0  0  0  0  0  0  0  0  0  0  0
  146.7844  135.7819  153.0798 N   0  0  0  0  0  0  0  0  0  0  0  0
  145.9193  134.7478  153.0530 C   0  0  0  0  0  0  0  0  0  0  0  0
  144.8312  134.7211  153.6343 O   0  0  0  0  0  0  0  0  0  0  0  0
  146.3832  133.5439  152.2230 C   0  0  0  0  0  0  0  0  0  0  0  0
  145.4970  133.2489  151.0899 N   0  0  0  0  0  0  0  0  0  0  0  0
  145.7292  132.3754  150.0578 C   0  0  0  0  0  0  0  0  0  0  0  0
  144.6315  132.4380  149.2385 C   0  0  0  0  0  0  0  0  0  0  0  0
  143.7771  133.3470  149.8032 N   0  3  0  0  0  0  0  0  0  0  0  0
  144.3051  133.8394  150.9286 C   0  0  0  0  0  0  0  0  0  0  0  0
  149.5987  139.1237  154.3310 C   0  0  2  0  0  0  0  0  0  0  0  0
  150.3836  137.8804  154.7945 C   0  0  0  0  0  0  0  0  0  0  0  0
  148.8367  140.0512  156.9420 H   0  0  0  0  0  0  0  0  0  0  0  0
  150.1391  141.2151  157.1321 H   0  0  0  0  0  0  0  0  0  0  0  0
  150.5057  139.5057  157.0454 H   0  0  0  0  0  0  0  0  0  0  0  0
  151.0630  140.5793  154.9194 H   0  0  0  0  0  0  0  0  0  0  0  0
  149.5057  142.5227  155.1313 H   0  0  0  0  0  0  0  0  0  0  0  0
  149.5701  141.8222  153.5377 H   0  0  0  0  0  0  0  0  0  0  0  0
  147.3602  141.3634  155.5985 H   0  0  0  0  0  0  0  0  0  0  0  0
  147.2324  142.2918  154.1278 H   0  0  0  0  0  0  0  0  0  0  0  0
  146.2475  140.0149  153.8717 H   0  0  0  0  0  0  0  0  0  0  0  0
  147.5534  140.2926  152.7467 H   0  0  0  0  0  0  0  0  0  0  0  0
  147.7459  138.7262  155.3655 H   0  0  0  0  0  0  0  0  0  0  0  0
  148.3267  137.5253  152.7609 H   0  0  0  0  0  0  0  0  0  0  0  0
  147.6385  135.6633  152.5553 H   0  0  0  0  0  0  0  0  0  0  0  0
  147.3827  133.7307  151.8277 H   0  0  0  0  0  0  0  0  0  0  0  0
  146.4408  132.6574  152.8561 H   0  0  0  0  0  0  0  0  0  0  0  0
  146.6352  131.7913  149.9835 H   0  0  0  0  0  0  0  0  0  0  0  0
  144.4012  131.9185  148.3198 H   0  0  0  0  0  0  0  0  0  0  0  0
  143.8585  134.5729  151.5761 H   0  0  0  0  0  0  0  0  0  0  0  0
  149.8913  139.2938  153.2934 H   0  0  0  0  0  0  0  0  0  0  0  0
  150.0649  137.5488  155.7828 H   0  0  0  0  0  0  0  0  0  0  0  0
  151.4536  138.0855  154.8382 H   0  0  0  0  0  0  0  0  0  0  0  0
  150.2466  137.0429  154.1102 H   0  0  0  0  0  0  0  0  0  0  0  0
  142.8768  133.6127  149.4240 H   0  0  0  0  0  0  0  0  0  0  0  0
  1  2  1  0  0  0  0
  1 21  1  0  0  0  0
  1 22  1  0  0  0  0
  1 23  1  0  0  0  0
  2 19  1  0  0  0  0
  2  3  1  0  0  0  0
  2 24  1  0  0  0  0
  3  4  1  0  0  0  0
  3 25  1  0  0  0  0
  3 26  1  0  0  0  0
  4  5  1  0  0  0  0
  4 27  1  0  0  0  0
  4 28  1  0  0  0  0
  5  6  1  0  0  0  0
  5 29  1  0  0  0  0
  5 30  1  0  0  0  0
  6  7  1  0  0  0  0
  6 19  1  0  0  0  0
  6 31  1  0  0  0  0
  7  8  1  0  0  0  0
  7 32  1  0  0  0  0
  8  9  2  0  0  0  0
  8 10  1  0  0  0  0
 10 11  1  0  0  0  0
 10 33  1  0  0  0  0
 11 12  2  0  0  0  0
 11 13  1  0  0  0  0
 13 14  1  0  0  0  0
 13 34  1  0  0  0  0
 13 35  1  0  0  0  0
 14 18  1  0  0  0  0
 14 15  1  0  0  0  0
 15 16  2  0  0  0  0
 15 36  1  0  0  0  0
 16 17  1  0  0  0  0
 16 37  1  0  0  0  0
 17 18  2  0  0  0  0
 17 43  1  0  0  0  0
 18 38  1  0  0  0  0
 19 20  1  0  0  0  0
 19 39  1  0  0  0  0
 20 40  1  0  0  0  0
 20 41  1  0  0  0  0
 20 42  1  0  0  0  0
M  CHG  1  17   1
M  END
> <s_m_source_file>
AV-unprocessed.smi

> <i_m_source_file_index>
527

> <i_lp_mmshare_version>
43012

> <i_f3d_flags>
0

> <s_epik_input>
W0NIM11bQ0BASF0xW0NIMl1bQ0gyXVtDSDJdW0NASF0oW0NASF0xW0NIM10pW05IXUMoPU8pW05IXUMoPU8pW0NIMl1uMltjSF1bY0hdbltjSF0y

> <s_epik_cmdline>
J2VwaWtfcHl0aG9uJywgJy1waCcsICc3LjAnLCAnLXRuJywgJzgnLCAnLW1hJywgJzIwMCcsICctbWV0YWxfYmluZGluZycsICctaW1hZScsICc8aW5maWxlLm1hZT4nLCAnLW9tYWUnLCAnPG91dGZpbGUubWFlPic=

> <r_lp_tautomer_probability>
1

> <r_epik_Ionization_Penalty>
0.816441

> <r_epik_Ionization_Penalty_Charging>
0

> <r_epik_Ionization_Penalty_Neutral>
0.816441

> <r_epik_State_Penalty>
0.849034

> <r_epik_Charging_Adjusted_Penalty>
0.849034

> <i_epik_Tot_Q>
1

> <i_epik_Tot_abs_Q>
1

> <r_epik_Metal_State_Penalty>
0.984327

> <b_epik_Metal_Only>
0

> <s_lp_Force_Field>
OPLS_2005

> <r_lp_Energy>
18.5197

> <b_lp_Chiralities_Consistent>
1

> <s_lp_Variant>
AV-unprocessed.smi:527-13

> <Gold.Version>
5.8.1

> <Gold.Id.Protein>
6NUR|6NUR_protein|mol2

> <Gold.PLP.Fitness>
46.4335

> <Gold.PLP.PLP>
-32.8489

> <Gold.PLP.part.hbond>
-2.9879

> <Gold.PLP.part.metal>
0.0000

> <Gold.PLP.part.buried>
-2.6413

> <Gold.PLP.part.nonpolar>
-27.0904

> <Gold.PLP.part.repulsive>
0.2275

> <Gold.PLP.ligand.clash>
0.0000

> <Gold.PLP.ligand.torsion>
0.5346

> <Gold.PLP.Chemscore.Hbond>
3.8800

> <Gold.PLP.Chemscore.CHOScore>
1.0000

> <Gold.PLP.Chemscore.Metal>
0.0000

> <Gold.Chemscore.Hbonds>
donor molecule, donor type, donor heavy atom, donor atom, acceptor molecule, acceptor atom, score
      L1  H     7    32       P1  7948  0.88
      L1  H    10    33       P1  7948  1.00
      L1  H    17    43       P1 10186  1.95
      L1  C    15    36       P1 10747  1.00

> <Gold.PLP.Chemscore.Internal.Correction>
0.0138

> <Gold.Rescore>
     Score         DG    S(hbond)    S(metal)    S(lipo)     H(rot)  DE(clash)    DE(int)     intcor
     16.57     -19.64       2.89        0.00      75.80       1.71       0.10       2.97       ----

> <Gold.Chemscore.Fitness>
16.5735

> <Gold.Chemscore.DG>
-19.6397

> <Gold.Chemscore.ZeroCoef>
-5.4800

> <Gold.Chemscore.Hbond>
2.8911

> <Gold.Chemscore.Metal>
0.0000

> <Gold.Chemscore.Lipo>
75.8023

> <Gold.Chemscore.Internal_Hbond>
0.0000

> <Gold.Chemscore.DEClash>
0.0990

> <Gold.Chemscore.DEInternal>
2.9672

> <Gold.Chemscore.Rot>
1.7052

> <Gold.Chemscore.Internal.Correction>
   9.000000E+99

> <Gold.Chemscore.Hbonds>
donor molecule, donor type, donor heavy atom, donor atom, acceptor molecule, acceptor atom, score
      L1  H     7    32       P1  7948  0.86
      L1  H    10    33       P1  7948  0.94
      L1  H    17    43       P1 10186  0.90

> <Gold.Chemscore.Hbond.Weighted>
-9.6562

> <Gold.Chemscore.Metal.Weighted>
-0.0000

> <Gold.Chemscore.Lipo.Weighted>
-8.8689

> <Gold.Chemscore.Internal_Hbond.Weighted>
0.0000

> <Gold.Chemscore.DEClash.Weighted>
0.0990

> <Gold.Chemscore.DEInternal.Weighted>
2.9672

> <Gold.Chemscore.Rot.Weighted>
4.3653

> <Gold.Chemscore.Internal.Correction.Weighted>
   9.000000E+99

> <Gold.Protein.RotatedTorsions>
[ 6907 6896 6895 6894 ] final -119.81 input  -60.11 | X-H torsion
[ 7974 7965 7964 7962 ] final   -8.73 input  175.53 | X-H torsion
[ 8008 7997 7996 7995 ] final   77.70 input   59.86 | X-H torsion
[ 10167 10162 10161 10158 ] final  112.81 input  -65.29 | X-H torsion
[ 10718 10713 10712 10709 ] final  152.36 input   66.30 | X-H torsion
[ 10763 10752 10751 10750 ] final  168.86 input  -60.55 | X-H torsion
[ 11005 11000 10999 10996 ] final    8.58 input  -57.11 | X-H torsion

> <Gold.Protein.ActiveResidues>
 VAL166  LYS551  ARG553  GLY616  TRP617  ASP618  TYR619  PRO620  LYS621  CYS622 
 ASP623  PHE694  ASN695  SER759  ASP760  ASP761  ALA762  ILE779  LEU786  VAL792 
 PHE793  MET794  SER795  GLU796  ALA797  LYS798  CYS799  TRP800  GLU811  SER814 

> <Gold.Protein.RotatedAtoms>
  150.8338  133.8047  159.3087 H   0  0  0  0  0  0  0  0  0  0  0  0  # atno 6907 bound_to 6896
  151.5769  135.1058  160.0018 H   0  0  0  0  0  0  0  0  0  0  0  0  # atno 6908 bound_to 6896
  152.4414  133.7412  159.6698 H   0  0  0  0  0  0  0  0  0  0  0  0  # atno 6909 bound_to 6896
  146.2272  140.2512  142.8347 H   0  0  0  0  0  0  0  0  0  0  0  0  # atno 7974 bound_to 7965
  155.8453  140.3460  155.5658 H   0  0  0  0  0  0  0  0  0  0  0  0  # atno 8008 bound_to 7997
  155.8097  140.0897  157.1930 H   0  0  0  0  0  0  0  0  0  0  0  0  # atno 8009 bound_to 7997
  154.4006  140.1450  156.3359 H   0  0  0  0  0  0  0  0  0  0  0  0  # atno 8010 bound_to 7997
  139.6508  144.7128  151.2053 H   0  0  0  0  0  0  0  0  0  0  0  0  # atno 10167 bound_to 10162
  157.2588  131.0794  151.1680 H   0  0  0  0  0  0  0  0  0  0  0  0  # atno 10718 bound_to 10713
  154.3747  135.2753  155.2246 H   0  0  0  0  0  0  0  0  0  0  0  0  # atno 10763 bound_to 10752
  154.4378  135.5961  153.6113 H   0  0  0  0  0  0  0  0  0  0  0  0  # atno 10764 bound_to 10752
  152.9837  135.6011  154.3982 H   0  0  0  0  0  0  0  0  0  0  0  0  # atno 10765 bound_to 10752
  140.5353  134.0426  155.7886 H   0  0  0  0  0  0  0  0  0  0  0  0  # atno 11005 bound_to 11000
  144.9410  140.8078  143.5630 LP  0  0  0  0  0  0  0  0  0  0  0  0  # atno 17320 bound_to 7965
  145.2464  139.2050  143.4965 LP  0  0  0  0  0  0  0  0  0  0  0  0  # atno 17321 bound_to 7965
  140.7536  143.6154  150.8565 LP  0  0  0  0  0  0  0  0  0  0  0  0  # atno 17342 bound_to 10162
  139.9802  143.5960  152.2945 LP  0  0  0  0  0  0  0  0  0  0  0  0  # atno 17343 bound_to 10162
  157.3198  130.6931  149.6262 LP  0  0  0  0  0  0  0  0  0  0  0  0  # atno 17370 bound_to 10713
  155.9664  130.4339  150.5025 LP  0  0  0  0  0  0  0  0  0  0  0  0  # atno 17371 bound_to 10713
  141.1258  133.9385  157.2638 LP  0  0  0  0  0  0  0  0  0  0  0  0  # atno 17394 bound_to 11000
  139.9532  135.0171  156.9054 LP  0  0  0  0  0  0  0  0  0  0  0  0  # atno 17395 bound_to 11000

$$$$
