AV-unprocessed.smi:2524|AV-procd|sdf|9923|dock1
  -GOLD-   2272013563D 1   1.00000     0.00000
 Structure written by MMmdl.
 37 38  0  0  0  0  0  0  0  0  2 V2000
  151.8985  144.8111  160.5649 C   0  0  0  0  0  0  0  0  0  0  0  0
  152.4838  143.6703  160.9592 C   0  0  0  0  0  0  0  0  0  0  0  0
  152.8908  142.5476  160.0282 C   0  0  0  0  0  0  0  0  0  0  0  0
  153.8185  141.5403  160.7176 C   0  0  0  0  0  0  0  0  0  0  0  0
  154.0279  140.0291  159.6878 S   0  0  0  0  0  0  0  0  0  0  0  0
  155.4366  139.9381  159.2746 O   0  0  0  0  0  0  0  0  0  0  0  0
  153.3915  138.8914  160.3681 O   0  0  0  0  0  0  0  0  0  0  0  0
  153.0829  140.3938  158.2906 N   0  0  0  0  0  0  0  0  0  0  0  0
  151.8303  139.6657  158.0696 C   0  0  0  0  0  0  0  0  0  0  0  0
  150.9129  140.3987  157.0975 C   0  0  0  0  0  0  0  0  0  0  0  0
  150.6142  139.5716  155.8782 C   0  0  0  0  0  0  0  0  0  0  0  0
  151.5752  138.6791  155.3502 C   0  0  0  0  0  0  0  0  0  0  0  0
  151.2550  137.9005  154.2196 C   0  0  0  0  0  0  0  0  0  0  0  0
  150.0370  138.0156  153.6479 N   0  3  0  0  0  0  0  0  0  0  0  0
  149.0890  138.8570  154.1131 C   0  0  0  0  0  0  0  0  0  0  0  0
  149.3552  139.6582  155.2419 C   0  0  0  0  0  0  0  0  0  0  0  0
  149.8082  141.2720  157.6566 C   0  0  0  0  0  0  0  0  0  0  0  0
  150.9942  141.9069  156.9778 C   0  0  0  0  0  0  0  0  0  0  0  0
  151.6762  144.9988  159.5246 H   0  0  0  0  0  0  0  0  0  0  0  0
  151.6338  145.5745  161.2817 H   0  0  0  0  0  0  0  0  0  0  0  0
  152.6910  143.5206  162.0089 H   0  0  0  0  0  0  0  0  0  0  0  0
  152.0015  142.0396  159.6533 H   0  0  0  0  0  0  0  0  0  0  0  0
  153.3925  142.9841  159.1641 H   0  0  0  0  0  0  0  0  0  0  0  0
  154.8039  141.9749  160.8868 H   0  0  0  0  0  0  0  0  0  0  0  0
  153.4149  141.2404  161.6849 H   0  0  0  0  0  0  0  0  0  0  0  0
  152.9489  141.3996  158.1864 H   0  0  0  0  0  0  0  0  0  0  0  0
  152.0392  138.6633  157.6933 H   0  0  0  0  0  0  0  0  0  0  0  0
  151.3272  139.5446  159.0293 H   0  0  0  0  0  0  0  0  0  0  0  0
  152.5452  138.5828  155.8161 H   0  0  0  0  0  0  0  0  0  0  0  0
  151.9298  137.1924  153.7613 H   0  0  0  0  0  0  0  0  0  0  0  0
  148.1525  138.8619  153.5749 H   0  0  0  0  0  0  0  0  0  0  0  0
  148.5965  140.3274  155.6212 H   0  0  0  0  0  0  0  0  0  0  0  0
  148.8582  141.3009  157.1263 H   0  0  0  0  0  0  0  0  0  0  0  0
  149.7420  141.3917  158.7363 H   0  0  0  0  0  0  0  0  0  0  0  0
  151.6986  142.4348  157.6178 H   0  0  0  0  0  0  0  0  0  0  0  0
  150.8288  142.3540  155.9996 H   0  0  0  0  0  0  0  0  0  0  0  0
  149.8233  137.4418  152.8317 H   0  0  0  0  0  0  0  0  0  0  0  0
  1  2  2  0  0  0  0
  1 19  1  0  0  0  0
  1 20  1  0  0  0  0
  2  3  1  0  0  0  0
  2 21  1  0  0  0  0
  3  4  1  0  0  0  0
  3 22  1  0  0  0  0
  3 23  1  0  0  0  0
  4  5  1  0  0  0  0
  4 24  1  0  0  0  0
  4 25  1  0  0  0  0
  5  6  2  0  0  0  0
  5  7  2  0  0  0  0
  5  8  1  0  0  0  0
  8  9  1  0  0  0  0
  8 26  1  0  0  0  0
  9 10  1  0  0  0  0
  9 27  1  0  0  0  0
  9 28  1  0  0  0  0
 10 18  1  0  0  0  0
 10 11  1  0  0  0  0
 10 17  1  0  0  0  0
 11 16  1  0  0  0  0
 11 12  2  0  0  0  0
 12 13  1  0  0  0  0
 12 29  1  0  0  0  0
 13 14  2  0  0  0  0
 13 30  1  0  0  0  0
 14 15  1  0  0  0  0
 14 37  1  0  0  0  0
 15 16  2  0  0  0  0
 15 31  1  0  0  0  0
 16 32  1  0  0  0  0
 17 18  1  0  0  0  0
 17 33  1  0  0  0  0
 17 34  1  0  0  0  0
 18 35  1  0  0  0  0
 18 36  1  0  0  0  0
M  CHG  1  14   1
M  END
> <s_m_source_file>
AV-unprocessed.smi

> <i_m_source_file_index>
2524

> <i_lp_mmshare_version>
43012

> <i_f3d_flags>
0

> <s_epik_input>
W0NIMl09W0NIXVtDSDJdW0NIMl1TKD1PKSg9TylbTkhdW0NIMl1DMShbQ0gyXVtDSDJdMSljMltjSF1bY0hdbltjSF1bY0hdMg==

> <s_epik_cmdline>
J2VwaWtfcHl0aG9uJywgJy1waCcsICc3LjAnLCAnLXRuJywgJzgnLCAnLW1hJywgJzIwMCcsICctbWV0YWxfYmluZGluZycsICctaW1hZScsICc8aW5maWxlLm1hZT4nLCAnLW9tYWUnLCAnPG91dGZpbGUubWFlPic=

> <r_epik_Ionization_Penalty>
1.70311

> <r_epik_Ionization_Penalty_Charging>
1.7031

> <r_epik_Ionization_Penalty_Neutral>
1.31612e-05

> <r_epik_State_Penalty>
1.80925

> <r_epik_Charging_Adjusted_Penalty>
3.51235

> <i_epik_Tot_Q>
1

> <i_epik_Tot_abs_Q>
1

> <r_epik_Metal_State_Penalty>
1.86078

> <b_epik_Metal_Only>
0

> <s_lp_Force_Field>
OPLS_2005

> <r_lp_Energy>
15.9515

> <b_lp_Chiralities_Consistent>
1

> <s_lp_Variant>
AV-unprocessed.smi:2524-2

> <Gold.Version>
5.8.1

> <Gold.Id.Protein>
6NUR|6NUR_protein|mol2

> <Gold.PLP.Fitness>
46.1235

> <Gold.PLP.PLP>
-38.8443

> <Gold.PLP.part.hbond>
-4.4229

> <Gold.PLP.part.metal>
0.0000

> <Gold.PLP.part.buried>
-2.9553

> <Gold.PLP.part.nonpolar>
-31.1853

> <Gold.PLP.part.repulsive>
0.0762

> <Gold.PLP.ligand.clash>
0.0000

> <Gold.PLP.ligand.torsion>
1.6468

> <Gold.PLP.Chemscore.Hbond>
3.0000

> <Gold.PLP.Chemscore.CHOScore>
0.0000

> <Gold.PLP.Chemscore.Metal>
0.0000

> <Gold.Chemscore.Hbonds>
donor molecule, donor type, donor heavy atom, donor atom, acceptor molecule, acceptor atom, score
      L1  H    14    37       P1  7948  2.00
      P1  H  7997  8010       L1     6  1.00

> <Gold.PLP.Chemscore.Internal.Correction>
1.5728

> <Gold.Rescore>
     Score         DG    S(hbond)    S(metal)    S(lipo)     H(rot)  DE(clash)    DE(int)     intcor
     16.35     -18.02       1.81        0.00      98.58       1.97       0.10       1.57       ----

> <Gold.Chemscore.Fitness>
16.3510

> <Gold.Chemscore.DG>
-18.0168

> <Gold.Chemscore.ZeroCoef>
-5.4800

> <Gold.Chemscore.Hbond>
1.8135

> <Gold.Chemscore.Metal>
0.0000

> <Gold.Chemscore.Lipo>
98.5843

> <Gold.Chemscore.Internal_Hbond>
0.0000

> <Gold.Chemscore.DEClash>
0.0950

> <Gold.Chemscore.DEInternal>
1.5707

> <Gold.Chemscore.Rot>
1.9744

> <Gold.Chemscore.Internal.Correction>
   9.000000E+99

> <Gold.Chemscore.Hbonds>
donor molecule, donor type, donor heavy atom, donor atom, acceptor molecule, acceptor atom, score
      L1  H    14    37       P1  7948  0.30
      P1  H  7997  8010       L1     6  0.34

> <Gold.Chemscore.Hbond.Weighted>
-6.0570

> <Gold.Chemscore.Metal.Weighted>
-0.0000

> <Gold.Chemscore.Lipo.Weighted>
-11.5344

> <Gold.Chemscore.Internal_Hbond.Weighted>
0.0000

> <Gold.Chemscore.DEClash.Weighted>
0.0950

> <Gold.Chemscore.DEInternal.Weighted>
1.5707

> <Gold.Chemscore.Rot.Weighted>
5.0546

> <Gold.Chemscore.Internal.Correction.Weighted>
   9.000000E+99

> <Gold.Protein.RotatedTorsions>
[ 6907 6896 6895 6894 ] final  -48.83 input  -60.11 | X-H torsion
[ 7974 7965 7964 7962 ] final -141.75 input  175.53 | X-H torsion
[ 8008 7997 7996 7995 ] final  -10.02 input   59.86 | X-H torsion
[ 10167 10162 10161 10158 ] final -162.25 input  -65.29 | X-H torsion
[ 10718 10713 10712 10709 ] final -167.99 input   66.30 | X-H torsion
[ 10763 10752 10751 10750 ] final   65.48 input  -60.55 | X-H torsion
[ 11005 11000 10999 10996 ] final  143.48 input  -57.11 | X-H torsion

> <Gold.Protein.ActiveResidues>
 VAL166  LYS551  ARG553  GLY616  TRP617  ASP618  TYR619  PRO620  LYS621  CYS622 
 ASP623  PHE694  ASN695  SER759  ASP760  ASP761  ALA762  ILE779  LEU786  VAL792 
 PHE793  MET794  SER795  GLU796  ALA797  LYS798  CYS799  TRP800  GLU811  SER814 

> <Gold.Protein.RotatedAtoms>
  150.8866  134.8265  159.7263 H   0  0  0  0  0  0  0  0  0  0  0  0  # atno 6907 bound_to 6896
  152.4811  134.4712  159.9646 H   0  0  0  0  0  0  0  0  0  0  0  0  # atno 6908 bound_to 6896
  151.4780  133.3514  159.2869 H   0  0  0  0  0  0  0  0  0  0  0  0  # atno 6909 bound_to 6896
  144.8496  140.6042  143.5399 H   0  0  0  0  0  0  0  0  0  0  0  0  # atno 7974 bound_to 7965
  154.5593  140.2340  155.8360 H   0  0  0  0  0  0  0  0  0  0  0  0  # atno 8008 bound_to 7997
  156.2015  140.3051  155.9497 H   0  0  0  0  0  0  0  0  0  0  0  0  # atno 8009 bound_to 7997
  155.2920  140.0427  157.3014 H   0  0  0  0  0  0  0  0  0  0  0  0  # atno 8010 bound_to 7997
  139.6406  144.0267  152.2089 H   0  0  0  0  0  0  0  0  0  0  0  0  # atno 10167 bound_to 10162
  156.6905  130.9157  151.3068 H   0  0  0  0  0  0  0  0  0  0  0  0  # atno 10718 bound_to 10713
  153.0098  135.5355  154.6674 H   0  0  0  0  0  0  0  0  0  0  0  0  # atno 10763 bound_to 10752
  154.5867  135.2855  155.0679 H   0  0  0  0  0  0  0  0  0  0  0  0  # atno 10764 bound_to 10752
  154.1788  135.6520  153.5081 H   0  0  0  0  0  0  0  0  0  0  0  0  # atno 10765 bound_to 10752
  140.0557  134.9232  157.1096 H   0  0  0  0  0  0  0  0  0  0  0  0  # atno 11005 bound_to 11000
  145.4527  139.1521  143.3909 LP  0  0  0  0  0  0  0  0  0  0  0  0  # atno 17320 bound_to 7965
  146.2773  140.4654  142.8790 LP  0  0  0  0  0  0  0  0  0  0  0  0  # atno 17321 bound_to 7965
  139.9955  144.6331  150.7776 LP  0  0  0  0  0  0  0  0  0  0  0  0  # atno 17342 bound_to 10162
  140.7489  143.2929  151.3281 LP  0  0  0  0  0  0  0  0  0  0  0  0  # atno 17343 bound_to 10162
  157.7011  130.9334  150.0787 LP  0  0  0  0  0  0  0  0  0  0  0  0  # atno 17370 bound_to 10713
  156.1801  130.3650  149.9047 LP  0  0  0  0  0  0  0  0  0  0  0  0  # atno 17371 bound_to 10713
  140.3847  134.2249  155.7169 LP  0  0  0  0  0  0  0  0  0  0  0  0  # atno 17394 bound_to 11000
  141.1951  133.8113  157.0730 LP  0  0  0  0  0  0  0  0  0  0  0  0  # atno 17395 bound_to 11000

$$$$
