AV-unprocessed.smi:2226|AV-procd|sdf|9006|dock9
  -GOLD-   2272012213D 1   1.00000     0.00000
 Structure written by MMmdl.
 41 43  0  0  0  0  0  0  0  0  3 V2000
  143.4670  135.1499  154.5970 C   0  0  0  0  0  0  0  0  0  0  0  0
  143.8570  134.2271  153.5047 N   0  3  2  0  0  0  0  0  0  0  0  0
  145.2801  133.8092  153.5177 C   0  0  1  0  0  0  0  0  0  0  0  0
  145.4359  132.5447  152.6401 C   0  0  0  0  0  0  0  0  0  0  0  0
  144.8677  132.6978  151.2138 C   0  0  0  0  0  0  0  0  0  0  0  0
  143.5225  133.4531  151.1895 C   0  0  0  0  0  0  0  0  0  0  0  0
  143.4674  134.6696  152.1436 C   0  0  2  0  0  0  0  0  0  0  0  0
  144.3023  135.8936  151.6876 C   0  0  0  0  0  0  0  0  0  0  0  0
  145.8314  135.7185  151.8340 C   0  0  1  0  0  0  0  0  0  0  0  0
  146.4788  137.0309  151.8018 N   0  0  0  0  0  0  0  0  0  0  0  0
  146.3365  137.9991  152.7217 C   0  0  0  0  0  0  0  0  0  0  0  0
  145.6285  137.8946  153.7236 O   0  0  0  0  0  0  0  0  0  0  0  0
  147.0589  139.0876  152.4129 N   0  0  0  0  0  0  0  0  0  0  0  0
  147.1245  140.2764  153.1765 C   0  0  0  0  0  0  0  0  0  0  0  0
  146.0609  141.0009  153.5211 N   0  3  0  0  0  0  0  0  0  0  0  0
  146.4831  142.0817  154.2549 C   0  0  0  0  0  0  0  0  0  0  0  0
  147.8505  141.9692  154.3329 C   0  0  0  0  0  0  0  0  0  0  0  0
  148.2688  140.8389  153.6595 O   0  0  0  0  0  0  0  0  0  0  0  0
  146.2169  134.9847  153.1391 C   0  0  0  0  0  0  0  0  0  0  0  0
  143.9755  136.1111  154.5284 H   0  0  0  0  0  0  0  0  0  0  0  0
  143.7035  134.7111  155.5665 H   0  0  0  0  0  0  0  0  0  0  0  0
  142.3926  135.3335  154.5727 H   0  0  0  0  0  0  0  0  0  0  0  0
  145.5304  133.5096  154.5367 H   0  0  0  0  0  0  0  0  0  0  0  0
  146.4813  132.2374  152.5954 H   0  0  0  0  0  0  0  0  0  0  0  0
  144.9068  131.7253  153.1287 H   0  0  0  0  0  0  0  0  0  0  0  0
  145.5903  133.1885  150.5679 H   0  0  0  0  0  0  0  0  0  0  0  0
  144.7363  131.7107  150.7689 H   0  0  0  0  0  0  0  0  0  0  0  0
  143.2819  133.7562  150.1699 H   0  0  0  0  0  0  0  0  0  0  0  0
  142.7375  132.7552  151.4842 H   0  0  0  0  0  0  0  0  0  0  0  0
  142.4233  134.9845  152.1813 H   0  0  0  0  0  0  0  0  0  0  0  0
  144.0574  136.1472  150.6555 H   0  0  0  0  0  0  0  0  0  0  0  0
  143.9864  136.7556  152.2769 H   0  0  0  0  0  0  0  0  0  0  0  0
  146.1897  135.1310  150.9935 H   0  0  0  0  0  0  0  0  0  0  0  0
  147.0835  137.2137  151.0141 H   0  0  0  0  0  0  0  0  0  0  0  0
  145.0892  140.8216  153.3008 H   0  0  0  0  0  0  0  0  0  0  0  0
  145.7830  142.8089  154.6410 H   0  0  0  0  0  0  0  0  0  0  0  0
  148.6231  142.5653  154.7966 H   0  0  0  0  0  0  0  0  0  0  0  0
  146.2105  135.6998  153.9628 H   0  0  0  0  0  0  0  0  0  0  0  0
  147.2473  134.6330  153.0735 H   0  0  0  0  0  0  0  0  0  0  0  0
  143.3250  133.3862  153.6798 H   0  0  0  0  0  0  0  0  0  0  0  0
  147.6056  139.0657  151.5649 H   0  0  0  0  0  0  0  0  0  0  0  0
  1  2  1  0  0  0  0
  1 20  1  0  0  0  0
  1 21  1  0  0  0  0
  1 22  1  0  0  0  0
  2  7  1  0  0  0  0
  2  3  1  0  0  0  0
  2 40  1  0  0  0  0
  3 19  1  0  0  0  0
  3  4  1  0  0  0  0
  3 23  1  0  0  0  0
  4  5  1  0  0  0  0
  4 24  1  0  0  0  0
  4 25  1  0  0  0  0
  5  6  1  0  0  0  0
  5 26  1  0  0  0  0
  5 27  1  0  0  0  0
  6  7  1  0  0  0  0
  6 28  1  0  0  0  0
  6 29  1  0  0  0  0
  7  8  1  0  0  0  0
  7 30  1  0  0  0  0
  8  9  1  0  0  0  0
  8 31  1  0  0  0  0
  8 32  1  0  0  0  0
  9 10  1  0  0  0  0
  9 19  1  0  0  0  0
  9 33  1  0  0  0  0
 10 34  1  0  0  0  0
 10 11  1  0  0  0  0
 11 13  1  0  0  0  0
 11 12  2  0  0  0  0
 13 14  1  0  0  0  0
 13 41  1  0  0  0  0
 14 18  1  0  0  0  0
 14 15  2  0  0  0  0
 15 35  1  0  0  0  0
 15 16  1  0  0  0  0
 16 36  1  0  0  0  0
 16 17  2  0  0  0  0
 17 37  1  0  0  0  0
 17 18  1  0  0  0  0
 19 38  1  0  0  0  0
 19 39  1  0  0  0  0
M  CHG  1   2   1
M  CHG  1  15   1
M  END
> <s_m_source_file>
AV-unprocessed.smi

> <i_m_source_file_index>
2226

> <i_lp_mmshare_version>
43012

> <i_f3d_flags>
0

> <s_epik_input>
W0NIMl0xW0NIMl1bQ0gyXVtDQEhdKE4oW0NIM10pW0NIXTEyKVtDSDJdW0NASF0oW0NIMl0yKVtOSF1DKD1PKVtOSF1jM25bY0hdW2NIXW8z

> <s_epik_cmdline>
J2VwaWtfcHl0aG9uJywgJy1waCcsICc3LjAnLCAnLXRuJywgJzgnLCAnLW1hJywgJzIwMCcsICctbWV0YWxfYmluZGluZycsICctaW1hZScsICc8aW5maWxlLm1hZT4nLCAnLW9tYWUnLCAnPG91dGZpbGUubWFlPic=

> <r_epik_Ionization_Penalty>
6.92532

> <r_epik_Ionization_Penalty_Charging>
6.82059

> <r_epik_Ionization_Penalty_Neutral>
0.104727

> <r_epik_State_Penalty>
2.17671

> <r_epik_Charging_Adjusted_Penalty>
8.99731

> <i_epik_Tot_Q>
2

> <i_epik_Tot_abs_Q>
2

> <r_epik_Metal_State_Penalty>
2.20618

> <b_epik_Metal_Only>
0

> <s_lp_Force_Field>
OPLS_2005

> <r_lp_Energy>
47.1954

> <b_lp_Chiralities_Consistent>
1

> <s_lp_Variant>
AV-unprocessed.smi:2226-6

> <Gold.Version>
5.8.1

> <Gold.Id.Protein>
6NUR|6NUR_protein|mol2

> <Gold.PLP.Fitness>
43.1737

> <Gold.PLP.PLP>
-28.4550

> <Gold.PLP.part.hbond>
-4.0000

> <Gold.PLP.part.metal>
0.0000

> <Gold.PLP.part.buried>
-3.1110

> <Gold.PLP.part.nonpolar>
-22.9281

> <Gold.PLP.part.repulsive>
1.6455

> <Gold.PLP.ligand.clash>
0.0000

> <Gold.PLP.ligand.torsion>
0.5362

> <Gold.PLP.Chemscore.Hbond>
4.2615

> <Gold.PLP.Chemscore.CHOScore>
1.0000

> <Gold.PLP.Chemscore.Metal>
0.0000

> <Gold.Chemscore.Hbonds>
donor molecule, donor type, donor heavy atom, donor atom, acceptor molecule, acceptor atom, score
      L1  H     2    40       P1 10957  1.82
      L1  H    13    41       P1  7957  0.31
      L1  H    15    35       P1 10175  2.00
      L1  C    17    37       P1  8028  1.00

> <Gold.PLP.Chemscore.Internal.Correction>
0.0066

> <Gold.Rescore>
     Score         DG    S(hbond)    S(metal)    S(lipo)     H(rot)  DE(clash)    DE(int)     intcor
     15.77     -16.91       2.40        0.00      51.13       1.00       0.02       1.13       ----

> <Gold.Chemscore.Fitness>
15.7672

> <Gold.Chemscore.DG>
-16.9091

> <Gold.Chemscore.ZeroCoef>
-5.4800

> <Gold.Chemscore.Hbond>
2.3974

> <Gold.Chemscore.Metal>
0.0000

> <Gold.Chemscore.Lipo>
51.1260

> <Gold.Chemscore.Internal_Hbond>
0.0000

> <Gold.Chemscore.DEClash>
0.0162

> <Gold.Chemscore.DEInternal>
1.1257

> <Gold.Chemscore.Rot>
1.0000

> <Gold.Chemscore.Internal.Correction>
   9.000000E+99

> <Gold.Chemscore.Hbonds>
donor molecule, donor type, donor heavy atom, donor atom, acceptor molecule, acceptor atom, score
      L1  H     2    40       P1 10957  0.86
      L1  H    10    34       P1  7948  0.02
      L1  H    13    41       P1  7957  0.29
      L1  H    15    35       P1 10175  0.74

> <Gold.Chemscore.Hbond.Weighted>
-8.0074

> <Gold.Chemscore.Metal.Weighted>
-0.0000

> <Gold.Chemscore.Lipo.Weighted>
-5.9817

> <Gold.Chemscore.Internal_Hbond.Weighted>
0.0000

> <Gold.Chemscore.DEClash.Weighted>
0.0162

> <Gold.Chemscore.DEInternal.Weighted>
1.1257

> <Gold.Chemscore.Rot.Weighted>
2.5600

> <Gold.Chemscore.Internal.Correction.Weighted>
   9.000000E+99

> <Gold.Protein.RotatedTorsions>
[ 6907 6896 6895 6894 ] final -109.00 input  -60.11 | X-H torsion
[ 7974 7965 7964 7962 ] final -144.82 input  175.53 | X-H torsion
[ 8008 7997 7996 7995 ] final  -92.55 input   59.86 | X-H torsion
[ 10167 10162 10161 10158 ] final    1.17 input  -65.29 | X-H torsion
[ 10718 10713 10712 10709 ] final  -57.69 input   66.30 | X-H torsion
[ 10763 10752 10751 10750 ] final  -55.48 input  -60.55 | X-H torsion
[ 11005 11000 10999 10996 ] final -126.45 input  -57.11 | X-H torsion

> <Gold.Protein.ActiveResidues>
 VAL166  LYS551  ARG553  GLY616  TRP617  ASP618  TYR619  PRO620  LYS621  CYS622 
 ASP623  PHE694  ASN695  SER759  ASP760  ASP761  ALA762  ILE779  LEU786  VAL792 
 PHE793  MET794  SER795  GLU796  ALA797  LYS798  CYS799  TRP800  GLU811  SER814 

> <Gold.Protein.RotatedAtoms>
  150.7535  133.9595  159.3510 H   0  0  0  0  0  0  0  0  0  0  0  0  # atno 6907 bound_to 6896
  151.7519  135.0828  160.0341 H   0  0  0  0  0  0  0  0  0  0  0  0  # atno 6908 bound_to 6896
  152.3460  133.6086  159.5947 H   0  0  0  0  0  0  0  0  0  0  0  0  # atno 6909 bound_to 6896
  144.8271  140.5662  143.5540 H   0  0  0  0  0  0  0  0  0  0  0  0  # atno 7974 bound_to 7965
  154.7245  140.0508  157.0670 H   0  0  0  0  0  0  0  0  0  0  0  0  # atno 8008 bound_to 7997
  155.0383  140.3165  155.4714 H   0  0  0  0  0  0  0  0  0  0  0  0  # atno 8009 bound_to 7997
  156.2825  140.2137  156.5506 H   0  0  0  0  0  0  0  0  0  0  0  0  # atno 8010 bound_to 7997
  140.6695  143.7087  150.7894 H   0  0  0  0  0  0  0  0  0  0  0  0  # atno 10167 bound_to 10162
  156.1191  130.4168  150.0475 H   0  0  0  0  0  0  0  0  0  0  0  0  # atno 10718 bound_to 10713
  154.1915  135.6426  153.5061 H   0  0  0  0  0  0  0  0  0  0  0  0  # atno 10763 bound_to 10752
  153.0034  135.5430  154.6410 H   0  0  0  0  0  0  0  0  0  0  0  0  # atno 10764 bound_to 10752
  154.5800  135.2924  155.0715 H   0  0  0  0  0  0  0  0  0  0  0  0  # atno 10765 bound_to 10752
  140.9680  134.0844  157.3899 H   0  0  0  0  0  0  0  0  0  0  0  0  # atno 11005 bound_to 11000
  145.4977  139.1485  143.3674 LP  0  0  0  0  0  0  0  0  0  0  0  0  # atno 17320 bound_to 7965
  146.2575  140.5116  142.8867 LP  0  0  0  0  0  0  0  0  0  0  0  0  # atno 17321 bound_to 7965
  140.0770  143.5005  152.2550 LP  0  0  0  0  0  0  0  0  0  0  0  0  # atno 17342 bound_to 10162
  139.5957  144.7566  151.3291 LP  0  0  0  0  0  0  0  0  0  0  0  0  # atno 17343 bound_to 10162
  156.8418  130.9428  151.3631 LP  0  0  0  0  0  0  0  0  0  0  0  0  # atno 17370 bound_to 10713
  157.6375  130.8778  149.9385 LP  0  0  0  0  0  0  0  0  0  0  0  0  # atno 17371 bound_to 10713
  139.8902  135.0110  156.6721 LP  0  0  0  0  0  0  0  0  0  0  0  0  # atno 17394 bound_to 11000
  140.7370  133.9010  155.8251 LP  0  0  0  0  0  0  0  0  0  0  0  0  # atno 17395 bound_to 11000

$$$$
