AV-unprocessed.smi:114|AV-procd|sdf|1108|dock4
  -GOLD-   2262018223D 1   1.00000     0.00000
 Structure written by MMmdl.
 32 34  0  0  0  0  0  0  0  0  1 V2000
  148.4436  128.6336  154.7750 N   0  0  0  0  0  0  0  0  0  0  0  0
  148.3442  129.8818  154.2968 C   0  0  0  0  0  0  0  0  0  0  0  0
  149.1485  130.8379  154.8177 N   0  0  0  0  0  0  0  0  0  0  0  0
  149.0828  132.0969  154.3664 C   0  0  0  0  0  0  0  0  0  0  0  0
  149.9246  132.9866  154.9426 F   0  0  0  0  0  0  0  0  0  0  0  0
  148.2787  132.5757  153.4105 N   0  0  0  0  0  0  0  0  0  0  0  0
  147.4646  131.6140  152.8870 C   0  0  0  0  0  0  0  0  0  0  0  0
  147.4383  130.2477  153.2712 C   0  0  0  0  0  0  0  0  0  0  0  0
  146.4951  129.5636  152.5170 N   0  0  0  0  0  0  0  0  0  0  0  0
  145.9974  130.4799  151.7291 C   0  0  0  0  0  0  0  0  0  0  0  0
  146.5124  131.7494  151.9000 N   0  0  0  0  0  0  0  0  0  0  0  0
  146.1928  133.0189  151.1684 C   0  0  1  0  0  0  0  0  0  0  0  0
  145.7534  132.6983  149.8853 O   0  0  0  0  0  0  0  0  0  0  0  0
  144.3396  132.5525  149.8985 C   0  0  2  0  0  0  0  0  0  0  0  0
  143.7884  132.6780  148.4707 C   0  0  0  0  0  0  0  0  0  0  0  0
  142.4151  132.3519  148.4540 O   0  0  0  0  0  0  0  0  0  0  0  0
  143.9093  133.6923  150.8263 C   0  0  1  0  0  0  0  0  0  0  0  0
  142.6783  133.3805  151.4474 O   0  0  0  0  0  0  0  0  0  0  0  0
  145.0327  133.7605  151.8602 C   0  0  2  0  0  0  0  0  0  0  0  0
  145.3688  135.1044  152.1377 O   0  0  0  0  0  0  0  0  0  0  0  0
  147.1385  133.5621  151.1459 H   0  0  0  0  0  0  0  0  0  0  0  0
  144.0685  131.5916  150.3408 H   0  0  0  0  0  0  0  0  0  0  0  0
  143.8309  134.6266  150.2673 H   0  0  0  0  0  0  0  0  0  0  0  0
  144.7608  133.2534  152.7878 H   0  0  0  0  0  0  0  0  0  0  0  0
  147.8539  127.9040  154.4004 H   0  0  0  0  0  0  0  0  0  0  0  0
  149.1052  128.4249  155.5088 H   0  0  0  0  0  0  0  0  0  0  0  0
  145.2360  130.2456  150.9994 H   0  0  0  0  0  0  0  0  0  0  0  0
  143.8846  133.7063  148.1207 H   0  0  0  0  0  0  0  0  0  0  0  0
  144.3387  132.0449  147.7741 H   0  0  0  0  0  0  0  0  0  0  0  0
  141.9173  133.1380  148.6193 H   0  0  0  0  0  0  0  0  0  0  0  0
  141.9796  133.5892  150.8461 H   0  0  0  0  0  0  0  0  0  0  0  0
  146.2821  135.1394  152.3793 H   0  0  0  0  0  0  0  0  0  0  0  0
  1  2  1  0  0  0  0
  1 25  1  0  0  0  0
  1 26  1  0  0  0  0
  2  8  1  0  0  0  0
  2  3  2  0  0  0  0
  3  4  1  0  0  0  0
  4  5  1  0  0  0  0
  4  6  2  0  0  0  0
  6  7  1  0  0  0  0
  7 11  1  0  0  0  0
  7  8  2  0  0  0  0
  8  9  1  0  0  0  0
  9 10  2  0  0  0  0
 10 11  1  0  0  0  0
 10 27  1  0  0  0  0
 11 12  1  0  0  0  0
 12 21  1  0  0  0  0
 12 19  1  0  0  0  0
 12 13  1  0  0  0  0
 13 14  1  0  0  0  0
 14 22  1  0  0  0  0
 14 15  1  0  0  0  0
 14 17  1  0  0  0  0
 15 16  1  0  0  0  0
 15 28  1  0  0  0  0
 15 29  1  0  0  0  0
 16 30  1  0  0  0  0
 17 23  1  0  0  0  0
 17 18  1  0  0  0  0
 17 19  1  0  0  0  0
 18 31  1  0  0  0  0
 19 24  1  0  0  0  0
 19 20  1  0  0  0  0
 20 32  1  0  0  0  0
M  END
> <s_m_source_file>
AV-unprocessed.smi

> <i_m_source_file_index>
114

> <i_lp_mmshare_version>
43012

> <i_f3d_flags>
0

> <s_epik_input>
RmMobjEpbmMoW05IMl0pYyhjMTIpbltjSF1uMltDQEBIXTNPW0NASF0oW0NIMl1bT0hdKVtDQEBIXShbT0hdKVtDQEBIXTNbT0hd

> <s_epik_cmdline>
J2VwaWtfcHl0aG9uJywgJy1waCcsICc3LjAnLCAnLXRuJywgJzgnLCAnLW1hJywgJzIwMCcsICctbWV0YWxfYmluZGluZycsICctaW1hZScsICc8aW5maWxlLm1hZT4nLCAnLW9tYWUnLCAnPG91dGZpbGUubWFlPic=

> <r_lp_tautomer_probability>
1

> <r_epik_Ionization_Penalty>
1.13199e-05

> <r_epik_Ionization_Penalty_Charging>
0

> <r_epik_Ionization_Penalty_Neutral>
1.13199e-05

> <r_epik_State_Penalty>
-0

> <r_epik_Charging_Adjusted_Penalty>
0

> <i_epik_Tot_Q>
0

> <i_epik_Tot_abs_Q>
0

> <r_epik_Metal_State_Penalty>
-0

> <b_epik_Metal_Only>
0

> <s_epik_Chemistry_Notes>
This compound contains an acetal/aminal-like group ( X-CH(R)-Y where X, Y are N, S, or O) that may be acid/base labile, releasing an aldehyde.

> <s_lp_Force_Field>
OPLS_2005

> <r_lp_Energy>
32.1203

> <b_lp_Chiralities_Consistent>
1

> <s_lp_Variant>
AV-unprocessed.smi:114-2

> <Gold.Version>
5.8.1

> <Gold.Id.Protein>
6NUR|6NUR_protein|mol2

> <Gold.PLP.Fitness>
38.6020

> <Gold.PLP.PLP>
-34.0039

> <Gold.PLP.part.hbond>
-4.1600

> <Gold.PLP.part.metal>
0.0000

> <Gold.PLP.part.buried>
-5.1970

> <Gold.PLP.part.nonpolar>
-25.1362

> <Gold.PLP.part.repulsive>
0.6348

> <Gold.PLP.ligand.clash>
0.0000

> <Gold.PLP.ligand.torsion>
0.8080

> <Gold.PLP.Chemscore.Hbond>
2.0614

> <Gold.PLP.Chemscore.CHOScore>
0.0000

> <Gold.PLP.Chemscore.Metal>
0.0000

> <Gold.Chemscore.Hbonds>
donor molecule, donor type, donor heavy atom, donor atom, acceptor molecule, acceptor atom, score
      L1  H    16    30       P1 10186  1.00
      L1  H    18    31       P1 10186  1.00
      P1  H 10785 10796       L1    16  0.04

> <Gold.PLP.Chemscore.Internal.Correction>
0.0299

> <Gold.Rescore>
     Score         DG    S(hbond)    S(metal)    S(lipo)     H(rot)  DE(clash)    DE(int)     intcor
      5.24      -5.81       1.79        0.00      39.80       4.03       0.05       0.52       ----

> <Gold.Chemscore.Fitness>
5.2369

> <Gold.Chemscore.DG>
-5.8106

> <Gold.Chemscore.ZeroCoef>
-5.4800

> <Gold.Chemscore.Hbond>
1.7920

> <Gold.Chemscore.Metal>
0.0000

> <Gold.Chemscore.Lipo>
39.7965

> <Gold.Chemscore.Internal_Hbond>
0.0000

> <Gold.Chemscore.DEClash>
0.0513

> <Gold.Chemscore.DEInternal>
0.5225

> <Gold.Chemscore.Rot>
4.0277

> <Gold.Chemscore.Internal.Correction>
   9.000000E+99

> <Gold.Chemscore.Hbonds>
donor molecule, donor type, donor heavy atom, donor atom, acceptor molecule, acceptor atom, score
      L1  H    16    30       P1 10186  1.00
      L1  H    18    31       P1 10186  0.70

> <Gold.Chemscore.Hbond.Weighted>
-5.9854

> <Gold.Chemscore.Metal.Weighted>
-0.0000

> <Gold.Chemscore.Lipo.Weighted>
-4.6562

> <Gold.Chemscore.Internal_Hbond.Weighted>
0.0000

> <Gold.Chemscore.DEClash.Weighted>
0.0513

> <Gold.Chemscore.DEInternal.Weighted>
0.5225

> <Gold.Chemscore.Rot.Weighted>
10.3110

> <Gold.Chemscore.Internal.Correction.Weighted>
   9.000000E+99

> <Gold.Protein.RotatedTorsions>
[ 6907 6896 6895 6894 ] final  -47.76 input  -60.11 | X-H torsion
[ 7974 7965 7964 7962 ] final   23.37 input  175.53 | X-H torsion
[ 8008 7997 7996 7995 ] final -145.31 input   59.86 | X-H torsion
[ 10167 10162 10161 10158 ] final   31.08 input  -65.29 | X-H torsion
[ 10718 10713 10712 10709 ] final   55.63 input   66.30 | X-H torsion
[ 10763 10752 10751 10750 ] final -123.01 input  -60.55 | X-H torsion
[ 11005 11000 10999 10996 ] final  -58.61 input  -57.11 | X-H torsion

> <Gold.Protein.ActiveResidues>
 VAL166  LYS551  ARG553  GLY616  TRP617  ASP618  TYR619  PRO620  LYS621  CYS622 
 ASP623  PHE694  ASN695  SER759  ASP760  ASP761  ALA762  ILE779  LEU786  VAL792 
 PHE793  MET794  SER795  GLU796  ALA797  LYS798  CYS799  TRP800  GLU811  SER814 

> <Gold.Protein.RotatedAtoms>
  150.8975  134.8384  159.7336 H   0  0  0  0  0  0  0  0  0  0  0  0  # atno 6907 bound_to 6896
  152.4873  134.4554  159.9598 H   0  0  0  0  0  0  0  0  0  0  0  0  # atno 6908 bound_to 6896
  151.4609  133.3554  159.2844 H   0  0  0  0  0  0  0  0  0  0  0  0  # atno 6909 bound_to 6896
  146.1987  139.7755  142.8777 H   0  0  0  0  0  0  0  0  0  0  0  0  # atno 7974 bound_to 7965
  155.5411  140.0608  157.2870 H   0  0  0  0  0  0  0  0  0  0  0  0  # atno 8008 bound_to 7997
  154.4452  140.1919  156.0635 H   0  0  0  0  0  0  0  0  0  0  0  0  # atno 8009 bound_to 7997
  156.0584  140.3275  155.7436 H   0  0  0  0  0  0  0  0  0  0  0  0  # atno 8010 bound_to 7997
  140.4621  144.0891  150.6215 H   0  0  0  0  0  0  0  0  0  0  0  0  # atno 10167 bound_to 10162
  157.5361  130.8664  149.8756 H   0  0  0  0  0  0  0  0  0  0  0  0  # atno 10718 bound_to 10713
  154.8700  135.4113  154.2875 H   0  0  0  0  0  0  0  0  0  0  0  0  # atno 10763 bound_to 10752
  153.3756  135.7009  153.6609 H   0  0  0  0  0  0  0  0  0  0  0  0  # atno 10764 bound_to 10752
  153.5453  135.3640  155.2708 H   0  0  0  0  0  0  0  0  0  0  0  0  # atno 10765 bound_to 10752
  141.1214  133.6613  156.4946 H   0  0  0  0  0  0  0  0  0  0  0  0  # atno 11005 bound_to 11000
  145.3556  141.0316  143.3314 LP  0  0  0  0  0  0  0  0  0  0  0  0  # atno 17320 bound_to 7965
  144.8636  139.5140  143.6800 LP  0  0  0  0  0  0  0  0  0  0  0  0  # atno 17321 bound_to 7965
  140.4081  143.2670  151.9867 LP  0  0  0  0  0  0  0  0  0  0  0  0  # atno 17342 bound_to 10162
  139.4807  144.5940  151.7723 LP  0  0  0  0  0  0  0  0  0  0  0  0  # atno 17343 bound_to 10162
  156.0460  130.3728  150.1317 LP  0  0  0  0  0  0  0  0  0  0  0  0  # atno 17370 bound_to 10713
  156.9499  130.9771  151.3500 LP  0  0  0  0  0  0  0  0  0  0  0  0  # atno 17371 bound_to 10713
  140.4495  134.6942  157.5032 LP  0  0  0  0  0  0  0  0  0  0  0  0  # atno 17394 bound_to 11000
  140.0175  134.6597  155.9288 LP  0  0  0  0  0  0  0  0  0  0  0  0  # atno 17395 bound_to 11000

$$$$
