AV-unprocessed.smi:249|AV-procd|sdf|1921|dock6
  -GOLD-   2262021 23D 1   1.00000     0.00000
 Structure written by MMmdl.
 64 67  0  0  0  0  0  0  0  0  2 V2000
  142.2514  145.6142  153.7443 C   0  0  0  0  0  0  0  0  0  0  0  0
  142.4915  144.5929  154.8685 C   0  0  0  0  0  0  0  0  0  0  0  0
  143.5727  143.6104  154.5636 N   0  3  1  0  0  0  0  0  0  0  0  0
  144.8453  144.2895  154.1805 C   0  0  0  0  0  0  0  0  0  0  0  0
  145.9309  143.2920  153.7533 C   0  0  0  0  0  0  0  0  0  0  0  0
  146.1997  142.2858  154.8775 C   0  0  2  0  0  0  0  0  0  0  0  0
  147.2622  141.3369  154.5333 N   0  0  0  0  0  0  0  0  0  0  0  0
  147.2374  140.5923  153.2764 C   0  0  0  0  0  0  0  0  0  0  0  0
  148.4214  141.3638  155.2404 C   0  0  0  0  0  0  0  0  0  0  0  0
  149.5168  140.7451  154.7259 N   0  0  0  0  0  0  0  0  0  0  0  0
  150.6769  140.7609  155.3884 C   0  0  0  0  0  0  0  0  0  0  0  0
  150.9569  141.3203  156.5665 N   0  0  0  0  0  0  0  0  0  0  0  0
  149.8581  141.9265  157.0993 C   0  0  0  0  0  0  0  0  0  0  0  0
  148.5640  141.9983  156.5089 C   0  0  0  0  0  0  0  0  0  0  0  0
  147.7007  142.6896  157.3525 N   0  0  0  0  0  0  0  0  0  0  0  0
  148.4437  143.0189  158.3732 C   0  0  0  0  0  0  0  0  0  0  0  0
  149.7481  142.5840  158.3124 N   0  0  0  0  0  0  0  0  0  0  0  0
  150.7843  142.8107  159.3042 C   0  0  0  0  0  0  0  0  0  0  0  0
  152.2218  142.9181  158.7303 C   0  0  1  0  0  0  0  0  0  0  0  0
  152.5303  144.3990  158.4092 C   0  0  0  0  0  0  0  0  0  0  0  0
  152.1967  145.2470  159.4896 O   0  0  0  0  0  0  0  0  0  0  0  0
  153.3210  142.2594  159.6149 C   0  0  2  0  0  0  0  0  0  0  0  0
  153.2624  140.7405  159.6724 C   0  0  0  0  0  0  0  0  0  0  0  0
  154.0993  140.4337  160.9051 C   0  0  0  0  0  0  0  0  0  0  0  0
  153.7641  141.4630  161.8226 O   0  0  0  0  0  0  0  0  0  0  0  0
  153.2677  142.5955  161.1147 C   0  0  0  0  0  0  0  0  0  0  0  0
  144.8861  141.5838  155.2442 C   0  0  0  0  0  0  0  0  0  0  0  0
  143.7920  142.5961  155.6480 C   0  0  2  0  0  0  0  0  0  0  0  0
  142.5141  141.8153  156.0200 C   0  0  0  0  0  0  0  0  0  0  0  0
  141.3528  146.1970  153.9484 H   0  0  0  0  0  0  0  0  0  0  0  0
  142.1099  145.1199  152.7828 H   0  0  0  0  0  0  0  0  0  0  0  0
  143.0699  146.3265  153.6463 H   0  0  0  0  0  0  0  0  0  0  0  0
  142.7082  145.1047  155.8072 H   0  0  0  0  0  0  0  0  0  0  0  0
  141.5423  144.0803  155.0065 H   0  0  0  0  0  0  0  0  0  0  0  0
  144.6832  144.9714  153.3477 H   0  0  0  0  0  0  0  0  0  0  0  0
  145.2011  144.8930  155.0172 H   0  0  0  0  0  0  0  0  0  0  0  0
  145.6141  142.7797  152.8440 H   0  0  0  0  0  0  0  0  0  0  0  0
  146.8473  143.8292  153.5060 H   0  0  0  0  0  0  0  0  0  0  0  0
  146.5129  142.8744  155.7390 H   0  0  0  0  0  0  0  0  0  0  0  0
  147.7232  139.6227  153.3922 H   0  0  0  0  0  0  0  0  0  0  0  0
  147.7563  141.1465  152.4939 H   0  0  0  0  0  0  0  0  0  0  0  0
  146.2170  140.4116  152.9409 H   0  0  0  0  0  0  0  0  0  0  0  0
  151.4980  140.2518  154.9056 H   0  0  0  0  0  0  0  0  0  0  0  0
  148.0538  143.5786  159.2112 H   0  0  0  0  0  0  0  0  0  0  0  0
  150.5262  143.7287  159.8335 H   0  0  0  0  0  0  0  0  0  0  0  0
  150.7348  142.0095  160.0426 H   0  0  0  0  0  0  0  0  0  0  0  0
  152.2303  142.4018  157.7700 H   0  0  0  0  0  0  0  0  0  0  0  0
  153.5828  144.5385  158.1634 H   0  0  0  0  0  0  0  0  0  0  0  0
  151.9709  144.7206  157.5301 H   0  0  0  0  0  0  0  0  0  0  0  0
  152.9167  145.8403  159.6404 H   0  0  0  0  0  0  0  0  0  0  0  0
  154.3044  142.5411  159.2344 H   0  0  0  0  0  0  0  0  0  0  0  0
  152.2365  140.4013  159.8242 H   0  0  0  0  0  0  0  0  0  0  0  0
  153.6548  140.2593  158.7760 H   0  0  0  0  0  0  0  0  0  0  0  0
  153.8982  139.4451  161.3185 H   0  0  0  0  0  0  0  0  0  0  0  0
  155.1628  140.4986  160.6712 H   0  0  0  0  0  0  0  0  0  0  0  0
  153.8620  143.4747  161.3594 H   0  0  0  0  0  0  0  0  0  0  0  0
  152.2443  142.7752  161.4456 H   0  0  0  0  0  0  0  0  0  0  0  0
  144.5306  140.9816  154.4073 H   0  0  0  0  0  0  0  0  0  0  0  0
  145.0688  140.8901  156.0661 H   0  0  0  0  0  0  0  0  0  0  0  0
  144.1339  143.1263  156.5386 H   0  0  0  0  0  0  0  0  0  0  0  0
  142.7466  140.9827  156.6848 H   0  0  0  0  0  0  0  0  0  0  0  0
  142.0280  141.4014  155.1360 H   0  0  0  0  0  0  0  0  0  0  0  0
  141.7908  142.4305  156.5538 H   0  0  0  0  0  0  0  0  0  0  0  0
  143.2660  143.0922  153.7527 H   0  0  0  0  0  0  0  0  0  0  0  0
  1  2  1  0  0  0  0
  1 30  1  0  0  0  0
  1 31  1  0  0  0  0
  1 32  1  0  0  0  0
  2  3  1  0  0  0  0
  2 33  1  0  0  0  0
  2 34  1  0  0  0  0
  3 28  1  0  0  0  0
  3  4  1  0  0  0  0
  3 64  1  0  0  0  0
  4  5  1  0  0  0  0
  4 35  1  0  0  0  0
  4 36  1  0  0  0  0
  5  6  1  0  0  0  0
  5 37  1  0  0  0  0
  5 38  1  0  0  0  0
  6  7  1  0  0  0  0
  6 27  1  0  0  0  0
  6 39  1  0  0  0  0
  7  8  1  0  0  0  0
  7  9  1  0  0  0  0
  8 40  1  0  0  0  0
  8 41  1  0  0  0  0
  8 42  1  0  0  0  0
  9 14  1  0  0  0  0
  9 10  2  0  0  0  0
 10 11  1  0  0  0  0
 11 12  2  0  0  0  0
 11 43  1  0  0  0  0
 12 13  1  0  0  0  0
 13 17  1  0  0  0  0
 13 14  2  0  0  0  0
 14 15  1  0  0  0  0
 15 16  2  0  0  0  0
 16 17  1  0  0  0  0
 16 44  1  0  0  0  0
 17 18  1  0  0  0  0
 18 19  1  0  0  0  0
 18 45  1  0  0  0  0
 18 46  1  0  0  0  0
 19 20  1  0  0  0  0
 19 22  1  0  0  0  0
 19 47  1  0  0  0  0
 20 21  1  0  0  0  0
 20 48  1  0  0  0  0
 20 49  1  0  0  0  0
 21 50  1  0  0  0  0
 22 26  1  0  0  0  0
 22 23  1  0  0  0  0
 22 51  1  0  0  0  0
 23 24  1  0  0  0  0
 23 52  1  0  0  0  0
 23 53  1  0  0  0  0
 24 25  1  0  0  0  0
 24 54  1  0  0  0  0
 24 55  1  0  0  0  0
 25 26  1  0  0  0  0
 26 56  1  0  0  0  0
 26 57  1  0  0  0  0
 27 28  1  0  0  0  0
 27 58  1  0  0  0  0
 27 59  1  0  0  0  0
 28 29  1  0  0  0  0
 28 60  1  0  0  0  0
 29 61  1  0  0  0  0
 29 62  1  0  0  0  0
 29 63  1  0  0  0  0
M  CHG  1   3   1
M  END
> <s_m_source_file>
AV-unprocessed.smi

> <i_m_source_file_index>
249

> <i_lp_mmshare_version>
43012

> <i_f3d_flags>
0

> <s_epik_input>
W0NIM11bQ0gyXU4xW0NIMl1bQ0gyXVtDQEhdKFtDSDJdW0NASF0xW0NIM10pTihbQ0gzXSljKG5bY0hdbjIpYyhjMjMpbltjSF1uM1tDSDJdW0NASF0oW0NIMl1bT0hdKVtDQEBIXTRbQ0gyXVtDSDJdT1tDSDJdNA==

> <s_epik_cmdline>
J2VwaWtfcHl0aG9uJywgJy1waCcsICc3LjAnLCAnLXRuJywgJzgnLCAnLW1hJywgJzIwMCcsICctbWV0YWxfYmluZGluZycsICctaW1hZScsICc8aW5maWxlLm1hZT4nLCAnLW9tYWUnLCAnPG91dGZpbGUubWFlPic=

> <r_lp_tautomer_probability>
1

> <r_epik_Ionization_Penalty>
0.00294688

> <r_epik_Ionization_Penalty_Charging>
0.00169971

> <r_epik_Ionization_Penalty_Neutral>
0.00124717

> <r_epik_State_Penalty>
-0

> <r_epik_Charging_Adjusted_Penalty>
0.00169971

> <i_epik_Tot_Q>
1

> <i_epik_Tot_abs_Q>
1

> <r_epik_Metal_State_Penalty>
-0

> <b_epik_Metal_Only>
0

> <s_lp_Force_Field>
OPLS_2005

> <r_lp_Energy>
53.8216

> <b_lp_Chiralities_Consistent>
1

> <s_lp_Variant>
AV-unprocessed.smi:249-24

> <Gold.Version>
5.8.1

> <Gold.Id.Protein>
6NUR|6NUR_protein|mol2

> <Gold.PLP.Fitness>
51.3006

> <Gold.PLP.PLP>
-47.5391

> <Gold.PLP.part.hbond>
-1.4509

> <Gold.PLP.part.metal>
0.0000

> <Gold.PLP.part.buried>
-3.8966

> <Gold.PLP.part.nonpolar>
-42.6872

> <Gold.PLP.part.repulsive>
1.1291

> <Gold.PLP.ligand.clash>
0.0000

> <Gold.PLP.ligand.torsion>
1.3517

> <Gold.PLP.Chemscore.Hbond>
2.0000

> <Gold.PLP.Chemscore.CHOScore>
0.0000

> <Gold.PLP.Chemscore.Metal>
0.0000

> <Gold.Chemscore.Hbonds>
donor molecule, donor type, donor heavy atom, donor atom, acceptor molecule, acceptor atom, score
      L1  H     3    64       P1 10174  2.00

> <Gold.PLP.Chemscore.Internal.Correction>
0.4649

> <Gold.Rescore>
     Score         DG    S(hbond)    S(metal)    S(lipo)     H(rot)  DE(clash)    DE(int)     intcor
     10.01     -15.36       0.84        0.00     118.49       2.65       1.92       3.43       ----

> <Gold.Chemscore.Fitness>
10.0110

> <Gold.Chemscore.DG>
-15.3623

> <Gold.Chemscore.ZeroCoef>
-5.4800

> <Gold.Chemscore.Hbond>
0.8405

> <Gold.Chemscore.Metal>
0.0000

> <Gold.Chemscore.Lipo>
118.4855

> <Gold.Chemscore.Internal_Hbond>
0.0000

> <Gold.Chemscore.DEClash>
1.9229

> <Gold.Chemscore.DEInternal>
3.4284

> <Gold.Chemscore.Rot>
2.6515

> <Gold.Chemscore.Internal.Correction>
   9.000000E+99

> <Gold.Chemscore.Hbonds>
donor molecule, donor type, donor heavy atom, donor atom, acceptor molecule, acceptor atom, score
      L1  H     3    64       P1 10174  0.74

> <Gold.Chemscore.Hbond.Weighted>
-2.8074

> <Gold.Chemscore.Metal.Weighted>
-0.0000

> <Gold.Chemscore.Lipo.Weighted>
-13.8628

> <Gold.Chemscore.Internal_Hbond.Weighted>
0.0000

> <Gold.Chemscore.DEClash.Weighted>
1.9229

> <Gold.Chemscore.DEInternal.Weighted>
3.4284

> <Gold.Chemscore.Rot.Weighted>
6.7880

> <Gold.Chemscore.Internal.Correction.Weighted>
   9.000000E+99

> <Gold.Protein.RotatedTorsions>
[ 6907 6896 6895 6894 ] final -125.45 input  -60.11 | X-H torsion
[ 7974 7965 7964 7962 ] final  118.97 input  175.53 | X-H torsion
[ 8008 7997 7996 7995 ] final  141.42 input   59.86 | X-H torsion
[ 10167 10162 10161 10158 ] final -153.86 input  -65.29 | X-H torsion
[ 10718 10713 10712 10709 ] final  127.88 input   66.30 | X-H torsion
[ 10763 10752 10751 10750 ] final  -67.34 input  -60.55 | X-H torsion
[ 11005 11000 10999 10996 ] final -179.88 input  -57.11 | X-H torsion

> <Gold.Protein.ActiveResidues>
 VAL166  LYS551  ARG553  GLY616  TRP617  ASP618  TYR619  PRO620  LYS621  CYS622 
 ASP623  PHE694  ASN695  SER759  ASP760  ASP761  ALA762  ILE779  LEU786  VAL792 
 PHE793  MET794  SER795  GLU796  ALA797  LYS798  CYS799  TRP800  GLU811  SER814 

> <Gold.Protein.RotatedAtoms>
  150.8869  133.7296  159.2915 H   0  0  0  0  0  0  0  0  0  0  0  0  # atno 6907 bound_to 6896
  151.4859  135.1053  159.9800 H   0  0  0  0  0  0  0  0  0  0  0  0  # atno 6908 bound_to 6896
  152.4795  133.8174  159.7091 H   0  0  0  0  0  0  0  0  0  0  0  0  # atno 6909 bound_to 6896
  145.1488  139.3223  143.4577 H   0  0  0  0  0  0  0  0  0  0  0  0  # atno 7974 bound_to 7965
  156.2966  140.2315  156.4561 H   0  0  0  0  0  0  0  0  0  0  0  0  # atno 8008 bound_to 7997
  154.8059  140.0446  157.1328 H   0  0  0  0  0  0  0  0  0  0  0  0  # atno 8009 bound_to 7997
  154.9480  140.3038  155.5092 H   0  0  0  0  0  0  0  0  0  0  0  0  # atno 8010 bound_to 7997
  139.7062  143.9183  152.2449 H   0  0  0  0  0  0  0  0  0  0  0  0  # atno 10167 bound_to 10162
  157.5294  131.1098  150.9033 H   0  0  0  0  0  0  0  0  0  0  0  0  # atno 10718 bound_to 10713
  154.3730  135.6091  153.5750 H   0  0  0  0  0  0  0  0  0  0  0  0  # atno 10763 bound_to 10752
  152.9790  135.5842  154.4499 H   0  0  0  0  0  0  0  0  0  0  0  0  # atno 10764 bound_to 10752
  154.4256  135.2847  155.1924 H   0  0  0  0  0  0  0  0  0  0  0  0  # atno 10765 bound_to 10752
  140.4137  134.6669  157.4627 H   0  0  0  0  0  0  0  0  0  0  0  0  # atno 11005 bound_to 11000
  146.3497  140.1554  142.8591 LP  0  0  0  0  0  0  0  0  0  0  0  0  # atno 17320 bound_to 7965
  145.0453  140.8977  143.5028 LP  0  0  0  0  0  0  0  0  0  0  0  0  # atno 17321 bound_to 7965
  139.9039  144.6896  150.8635 LP  0  0  0  0  0  0  0  0  0  0  0  0  # atno 17342 bound_to 10162
  140.7722  143.3493  151.2046 LP  0  0  0  0  0  0  0  0  0  0  0  0  # atno 17343 bound_to 10162
  156.9619  130.5458  149.5286 LP  0  0  0  0  0  0  0  0  0  0  0  0  # atno 17370 bound_to 10713
  156.0411  130.5493  150.8772 LP  0  0  0  0  0  0  0  0  0  0  0  0  # atno 17371 bound_to 10713
  140.0249  134.6492  155.9187 LP  0  0  0  0  0  0  0  0  0  0  0  0  # atno 17394 bound_to 11000
  141.1811  133.6547  156.5025 LP  0  0  0  0  0  0  0  0  0  0  0  0  # atno 17395 bound_to 11000

$$$$
