AV-unprocessed.smi:21|AV-procd|sdf|140|dock10
  -GOLD-   2262015343D 1   1.00000     0.00000
 Structure written by MMmdl.
 62 65  0  0  0  0  0  0  0  0  2 V2000
  148.0737  126.5965  150.9383 C   0  0  0  0  0  0  0  0  0  0  0  0
  147.3413  127.2742  151.9464 O   0  0  0  0  0  0  0  0  0  0  0  0
  147.0603  128.6286  151.6271 C   0  0  2  0  0  0  0  0  0  0  0  0
  147.5886  129.5536  152.7142 C   0  0  0  0  0  0  0  0  0  0  0  0
  146.7540  130.8231  152.5202 C   0  0  2  0  0  0  0  0  0  0  0  0
  146.6727  131.7206  153.7713 C   0  0  0  0  0  0  0  0  0  0  0  0
  147.8606  132.5631  153.9377 N   0  0  0  0  0  0  0  0  0  0  0  0
  149.1631  131.9435  153.7245 C   0  0  0  0  0  0  0  0  0  0  0  0
  147.7732  133.7998  154.5124 C   0  0  0  0  0  0  0  0  0  0  0  0
  146.5420  134.3640  154.6434 N   0  0  0  0  0  0  0  0  0  0  0  0
  146.3891  135.5688  155.1976 C   0  0  0  0  0  0  0  0  0  0  0  0
  147.3228  136.3838  155.6853 N   0  0  0  0  0  0  0  0  0  0  0  0
  148.5647  135.8374  155.5601 C   0  0  0  0  0  0  0  0  0  0  0  0
  148.8812  134.5661  154.9954 C   0  0  0  0  0  0  0  0  0  0  0  0
  150.2582  134.3684  155.0627 N   0  0  0  0  0  0  0  0  0  0  0  0
  150.7219  135.4509  155.6231 C   0  0  0  0  0  0  0  0  0  0  0  0
  149.7722  136.3901  155.9472 N   0  0  0  0  0  0  0  0  0  0  0  0
  149.9981  137.6794  156.5755 C   0  0  0  0  0  0  0  0  0  0  0  0
  149.5828  138.8822  155.6840 C   0  0  2  0  0  0  0  0  0  0  0  0
  150.1800  138.8019  154.2580 C   0  0  0  0  0  0  0  0  0  0  0  0
  149.9450  139.9809  153.5161 O   0  0  0  0  0  0  0  0  0  0  0  0
  149.9041  140.2611  156.3202 C   0  0  2  0  0  0  0  0  0  0  0  0
  151.3543  140.7089  156.2950 C   0  0  0  0  0  0  0  0  0  0  0  0
  151.3265  141.8681  157.2857 C   0  0  0  0  0  0  0  0  0  0  0  0
  150.3566  141.5125  158.2675 O   0  0  0  0  0  0  0  0  0  0  0  0
  149.5569  140.4269  157.8032 C   0  0  0  0  0  0  0  0  0  0  0  0
  145.4145  130.3367  152.1119 N   0  3  1  0  0  0  0  0  0  0  0  0
  144.6999  131.2373  151.1809 C   0  0  0  0  0  0  0  0  0  0  0  0
  145.5602  128.9497  151.6084 C   0  0  0  0  0  0  0  0  0  0  0  0
  147.5184  128.9083  150.6763 H   0  0  0  0  0  0  0  0  0  0  0  0
  147.1831  131.3850  151.6882 H   0  0  0  0  0  0  0  0  0  0  0  0
  148.2704  125.5729  151.2571 H   0  0  0  0  0  0  0  0  0  0  0  0
  149.0339  127.0807  150.7560 H   0  0  0  0  0  0  0  0  0  0  0  0
  147.5197  126.5529  150.0000 H   0  0  0  0  0  0  0  0  0  0  0  0
  147.3910  129.1175  153.6947 H   0  0  0  0  0  0  0  0  0  0  0  0
  148.6614  129.7320  152.6350 H   0  0  0  0  0  0  0  0  0  0  0  0
  145.8146  132.3865  153.6768 H   0  0  0  0  0  0  0  0  0  0  0  0
  146.4612  131.1216  154.6569 H   0  0  0  0  0  0  0  0  0  0  0  0
  149.6546  131.7405  154.6763 H   0  0  0  0  0  0  0  0  0  0  0  0
  149.8048  132.5879  153.1230 H   0  0  0  0  0  0  0  0  0  0  0  0
  149.0637  130.9957  153.1950 H   0  0  0  0  0  0  0  0  0  0  0  0
  145.3736  135.9319  155.2579 H   0  0  0  0  0  0  0  0  0  0  0  0
  151.7760  135.5974  155.8092 H   0  0  0  0  0  0  0  0  0  0  0  0
  149.4484  137.6742  157.5150 H   0  0  0  0  0  0  0  0  0  0  0  0
  151.0537  137.7464  156.8390 H   0  0  0  0  0  0  0  0  0  0  0  0
  148.4969  138.8595  155.5778 H   0  0  0  0  0  0  0  0  0  0  0  0
  151.2614  138.6706  154.3008 H   0  0  0  0  0  0  0  0  0  0  0  0
  149.7803  137.9437  153.7166 H   0  0  0  0  0  0  0  0  0  0  0  0
  149.7650  139.7421  152.6197 H   0  0  0  0  0  0  0  0  0  0  0  0
  149.3225  141.0174  155.7898 H   0  0  0  0  0  0  0  0  0  0  0  0
  152.0199  139.9311  156.6686 H   0  0  0  0  0  0  0  0  0  0  0  0
  151.6963  141.0075  155.3037 H   0  0  0  0  0  0  0  0  0  0  0  0
  152.3012  142.0570  157.7363 H   0  0  0  0  0  0  0  0  0  0  0  0
  151.0000  142.7832  156.7900 H   0  0  0  0  0  0  0  0  0  0  0  0
  148.4962  140.6258  157.9575 H   0  0  0  0  0  0  0  0  0  0  0  0
  149.8174  139.5484  158.3908 H   0  0  0  0  0  0  0  0  0  0  0  0
  145.2341  131.3290  150.2343 H   0  0  0  0  0  0  0  0  0  0  0  0
  144.5933  132.2329  151.6124 H   0  0  0  0  0  0  0  0  0  0  0  0
  143.7002  130.8538  150.9738 H   0  0  0  0  0  0  0  0  0  0  0  0
  145.1313  128.8085  150.6151 H   0  0  0  0  0  0  0  0  0  0  0  0
  145.0229  128.2927  152.2934 H   0  0  0  0  0  0  0  0  0  0  0  0
  144.8597  130.2724  152.9536 H   0  0  0  0  0  0  0  0  0  0  0  0
  1  2  1  0  0  0  0
  1 32  1  0  0  0  0
  1 33  1  0  0  0  0
  1 34  1  0  0  0  0
  2  3  1  0  0  0  0
  3 30  1  0  0  0  0
  3 29  1  0  0  0  0
  3  4  1  0  0  0  0
  4  5  1  0  0  0  0
  4 35  1  0  0  0  0
  4 36  1  0  0  0  0
  5 31  1  0  0  0  0
  5  6  1  0  0  0  0
  5 27  1  0  0  0  0
  6  7  1  0  0  0  0
  6 37  1  0  0  0  0
  6 38  1  0  0  0  0
  7  8  1  0  0  0  0
  7  9  1  0  0  0  0
  8 39  1  0  0  0  0
  8 40  1  0  0  0  0
  8 41  1  0  0  0  0
  9 14  1  0  0  0  0
  9 10  2  0  0  0  0
 10 11  1  0  0  0  0
 11 12  2  0  0  0  0
 11 42  1  0  0  0  0
 12 13  1  0  0  0  0
 13 17  1  0  0  0  0
 13 14  2  0  0  0  0
 14 15  1  0  0  0  0
 15 16  2  0  0  0  0
 16 17  1  0  0  0  0
 16 43  1  0  0  0  0
 17 18  1  0  0  0  0
 18 19  1  0  0  0  0
 18 44  1  0  0  0  0
 18 45  1  0  0  0  0
 19 20  1  0  0  0  0
 19 22  1  0  0  0  0
 19 46  1  0  0  0  0
 20 21  1  0  0  0  0
 20 47  1  0  0  0  0
 20 48  1  0  0  0  0
 21 49  1  0  0  0  0
 22 26  1  0  0  0  0
 22 23  1  0  0  0  0
 22 50  1  0  0  0  0
 23 24  1  0  0  0  0
 23 51  1  0  0  0  0
 23 52  1  0  0  0  0
 24 25  1  0  0  0  0
 24 53  1  0  0  0  0
 24 54  1  0  0  0  0
 25 26  1  0  0  0  0
 26 55  1  0  0  0  0
 26 56  1  0  0  0  0
 27 28  1  0  0  0  0
 27 29  1  0  0  0  0
 27 62  1  0  0  0  0
 28 57  1  0  0  0  0
 28 58  1  0  0  0  0
 28 59  1  0  0  0  0
 29 60  1  0  0  0  0
 29 61  1  0  0  0  0
M  CHG  1  27   1
M  END
> <s_m_source_file>
AV-unprocessed.smi

> <i_m_source_file_index>
21

> <i_lp_mmshare_version>
43012

> <i_f3d_flags>
0

> <s_epik_input>
W0NIM11PW0NASF0xW0NIMl1bQ0BIXShOKFtDSDNdKVtDSDJdMSlbQ0gyXU4oW0NIM10pYyhuW2NIXW4yKWMoYzIzKW5bY0hdbjNbQ0gyXVtDQEhdKFtDSDJdW09IXSlbQ0BASF00W0NIMl1bQ0gyXU9bQ0gyXTQ=

> <s_epik_cmdline>
J2VwaWtfcHl0aG9uJywgJy1waCcsICc3LjAnLCAnLXRuJywgJzgnLCAnLW1hJywgJzIwMCcsICctbWV0YWxfYmluZGluZycsICctaW1hZScsICc8aW5maWxlLm1hZT4nLCAnLW9tYWUnLCAnPG91dGZpbGUubWFlPic=

> <r_lp_tautomer_probability>
1

> <r_epik_Ionization_Penalty>
0.0157465

> <r_epik_Ionization_Penalty_Charging>
0.015354

> <r_epik_Ionization_Penalty_Neutral>
0.000392529

> <r_epik_State_Penalty>
0.0120612

> <r_epik_Charging_Adjusted_Penalty>
0.0274152

> <i_epik_Tot_Q>
1

> <i_epik_Tot_abs_Q>
1

> <r_epik_Metal_State_Penalty>
0.0121253

> <b_epik_Metal_Only>
0

> <s_lp_Force_Field>
OPLS_2005

> <r_lp_Energy>
59.0143

> <b_lp_Chiralities_Consistent>
1

> <s_lp_Variant>
AV-unprocessed.smi:21-20

> <Gold.Version>
5.8.1

> <Gold.Id.Protein>
6NUR|6NUR_protein|mol2

> <Gold.PLP.Fitness>
42.8204

> <Gold.PLP.PLP>
-39.9084

> <Gold.PLP.part.hbond>
-1.6446

> <Gold.PLP.part.metal>
0.0000

> <Gold.PLP.part.buried>
-7.7558

> <Gold.PLP.part.nonpolar>
-31.6397

> <Gold.PLP.part.repulsive>
0.2963

> <Gold.PLP.ligand.clash>
0.0000

> <Gold.PLP.ligand.torsion>
1.5425

> <Gold.PLP.Chemscore.Hbond>
1.8994

> <Gold.PLP.Chemscore.CHOScore>
0.0000

> <Gold.PLP.Chemscore.Metal>
0.0000

> <Gold.Chemscore.Hbonds>
donor molecule, donor type, donor heavy atom, donor atom, acceptor molecule, acceptor atom, score
      L1  H    21    49       P1  7957  0.91
      P1  H  7989  7998       L1    21  0.67

> <Gold.PLP.Chemscore.Internal.Correction>
0.2989

> <Gold.Rescore>
     Score         DG    S(hbond)    S(metal)    S(lipo)     H(rot)  DE(clash)    DE(int)     intcor
     11.69     -14.41       1.51        0.00     100.42       3.08       0.07       2.65       ----

> <Gold.Chemscore.Fitness>
11.6919

> <Gold.Chemscore.DG>
-14.4123

> <Gold.Chemscore.ZeroCoef>
-5.4800

> <Gold.Chemscore.Hbond>
1.5141

> <Gold.Chemscore.Metal>
0.0000

> <Gold.Chemscore.Lipo>
100.4209

> <Gold.Chemscore.Internal_Hbond>
0.0000

> <Gold.Chemscore.DEClash>
0.0726

> <Gold.Chemscore.DEInternal>
2.6479

> <Gold.Chemscore.Rot>
3.0758

> <Gold.Chemscore.Internal.Correction>
   9.000000E+99

> <Gold.Chemscore.Hbonds>
donor molecule, donor type, donor heavy atom, donor atom, acceptor molecule, acceptor atom, score
      L1  H    21    49       P1  7957  0.85
      P1  H  7989  7998       L1    21  0.17

> <Gold.Chemscore.Hbond.Weighted>
-5.0572

> <Gold.Chemscore.Metal.Weighted>
-0.0000

> <Gold.Chemscore.Lipo.Weighted>
-11.7492

> <Gold.Chemscore.Internal_Hbond.Weighted>
0.0000

> <Gold.Chemscore.DEClash.Weighted>
0.0726

> <Gold.Chemscore.DEInternal.Weighted>
2.6479

> <Gold.Chemscore.Rot.Weighted>
7.8741

> <Gold.Chemscore.Internal.Correction.Weighted>
   9.000000E+99

> <Gold.Protein.RotatedTorsions>
[ 6907 6896 6895 6894 ] final  115.97 input  -60.11 | X-H torsion
[ 7974 7965 7964 7962 ] final   -0.15 input  175.53 | X-H torsion
[ 8008 7997 7996 7995 ] final  -56.59 input   59.86 | X-H torsion
[ 10167 10162 10161 10158 ] final  124.58 input  -65.29 | X-H torsion
[ 10718 10713 10712 10709 ] final -150.78 input   66.30 | X-H torsion
[ 10763 10752 10751 10750 ] final  -69.87 input  -60.55 | X-H torsion
[ 11005 11000 10999 10996 ] final   19.69 input  -57.11 | X-H torsion

> <Gold.Protein.ActiveResidues>
 VAL166  LYS551  ARG553  GLY616  TRP617  ASP618  TYR619  PRO620  LYS621  CYS622 
 ASP623  PHE694  ASN695  SER759  ASP760  ASP761  ALA762  ILE779  LEU786  VAL792 
 PHE793  MET794  SER795  GLU796  ALA797  LYS798  CYS799  TRP800  GLU811  SER814 

> <Gold.Protein.RotatedAtoms>
  152.4708  133.8025  159.6959 H   0  0  0  0  0  0  0  0  0  0  0  0  # atno 6907 bound_to 6896
  150.8696  133.7515  159.2972 H   0  0  0  0  0  0  0  0  0  0  0  0  # atno 6908 bound_to 6896
  151.5055  135.1066  159.9892 H   0  0  0  0  0  0  0  0  0  0  0  0  # atno 6909 bound_to 6896
  146.2430  140.1227  142.8340 H   0  0  0  0  0  0  0  0  0  0  0  0  # atno 7974 bound_to 7965
  154.4236  140.1126  156.5661 H   0  0  0  0  0  0  0  0  0  0  0  0  # atno 8008 bound_to 7997
  155.6260  140.3495  155.4648 H   0  0  0  0  0  0  0  0  0  0  0  0  # atno 8009 bound_to 7997
  155.9986  140.1194  157.0559 H   0  0  0  0  0  0  0  0  0  0  0  0  # atno 8010 bound_to 7997
  139.5734  144.6951  151.3719 H   0  0  0  0  0  0  0  0  0  0  0  0  # atno 10167 bound_to 10162
  156.4506  130.8166  151.2397 H   0  0  0  0  0  0  0  0  0  0  0  0  # atno 10718 bound_to 10713
  154.4096  135.6012  153.5945 H   0  0  0  0  0  0  0  0  0  0  0  0  # atno 10763 bound_to 10752
  152.9790  135.5926  154.4086 H   0  0  0  0  0  0  0  0  0  0  0  0  # atno 10764 bound_to 10752
  154.3897  135.2842  155.2141 H   0  0  0  0  0  0  0  0  0  0  0  0  # atno 10765 bound_to 10752
  140.4109  134.1619  155.7667 H   0  0  0  0  0  0  0  0  0  0  0  0  # atno 11005 bound_to 11000
  145.0393  140.8932  143.5062 LP  0  0  0  0  0  0  0  0  0  0  0  0  # atno 17320 bound_to 7965
  145.1305  139.2635  143.5542 LP  0  0  0  0  0  0  0  0  0  0  0  0  # atno 17321 bound_to 7965
  140.7017  143.7614  150.7414 LP  0  0  0  0  0  0  0  0  0  0  0  0  # atno 17342 bound_to 10162
  140.1127  143.4684  152.2360 LP  0  0  0  0  0  0  0  0  0  0  0  0  # atno 17343 bound_to 10162
  157.7503  131.0139  150.3442 LP  0  0  0  0  0  0  0  0  0  0  0  0  # atno 17370 bound_to 10713
  156.3820  130.3882  149.7095 LP  0  0  0  0  0  0  0  0  0  0  0  0  # atno 17371 bound_to 10713
  141.1821  133.8391  157.1219 LP  0  0  0  0  0  0  0  0  0  0  0  0  # atno 17394 bound_to 11000
  140.0268  134.9920  157.0702 LP  0  0  0  0  0  0  0  0  0  0  0  0  # atno 17395 bound_to 11000

$$$$
