AV-unprocessed.smi:1205|AV-procd|sdf|5043|dock2
  -GOLD-   22720 4 63D 1   1.00000     0.00000
 Structure written by MMmdl.
 49 50  0  0  0  0  0  0  0  0  2 V2000
  136.2376  140.7341  152.8814 C   0  0  0  0  0  0  0  0  0  0  0  0
  137.7133  140.6090  153.1207 C   0  0  0  0  0  0  0  0  0  0  0  0
  138.5725  139.5294  152.7634 C   0  0  0  0  0  0  0  0  0  0  0  0
  139.7916  139.9512  153.2192 C   0  0  0  0  0  0  0  0  0  0  0  0
  140.9958  139.3240  153.1449 N   0  0  0  0  0  0  0  0  0  0  0  0
  141.2863  138.0336  153.3843 C   0  0  0  0  0  0  0  0  0  0  0  0
  140.4782  137.1707  153.7283 O   0  0  0  0  0  0  0  0  0  0  0  0
  142.5915  137.7872  153.1963 N   0  0  0  0  0  0  0  0  0  0  0  0
  143.2452  136.4953  153.3917 C   0  0  0  0  0  0  0  0  0  0  0  0
  142.7194  135.4055  152.4278 C   0  0  2  0  0  0  0  0  0  0  0  0
  141.4490  134.6885  152.9369 C   0  0  0  0  0  0  0  0  0  0  0  0
  143.8134  134.4542  152.0723 N   0  3  1  0  0  0  0  0  0  0  0  0
  143.3922  133.2684  151.2766 C   0  0  0  0  0  0  0  0  0  0  0  0
  144.5295  132.2392  151.1921 C   0  0  0  0  0  0  0  0  0  0  0  0
  145.7991  132.8728  150.6045 C   0  0  0  0  0  0  0  0  0  0  0  0
  146.2019  134.1432  151.3774 C   0  0  2  0  0  0  0  0  0  0  0  0
  146.8210  133.8324  152.7515 C   0  0  0  0  0  0  0  0  0  0  0  0
  145.0089  135.1166  151.4831 C   0  0  0  0  0  0  0  0  0  0  0  0
  139.6450  141.1921  153.7985 N   0  0  0  0  0  0  0  0  0  0  0  0
  140.6411  142.0459  154.4156 C   0  0  0  0  0  0  0  0  0  0  0  0
  138.3577  141.5951  153.7345 N   0  0  0  0  0  0  0  0  0  0  0  0
  135.8302  139.8224  152.4441 H   0  0  0  0  0  0  0  0  0  0  0  0
  136.0195  141.5556  152.1986 H   0  0  0  0  0  0  0  0  0  0  0  0
  135.7025  140.9222  153.8128 H   0  0  0  0  0  0  0  0  0  0  0  0
  138.3158  138.6115  152.2566 H   0  0  0  0  0  0  0  0  0  0  0  0
  141.7716  139.9150  152.8844 H   0  0  0  0  0  0  0  0  0  0  0  0
  143.1814  138.5559  152.9120 H   0  0  0  0  0  0  0  0  0  0  0  0
  144.3126  136.6431  153.2244 H   0  0  0  0  0  0  0  0  0  0  0  0
  143.1478  136.1825  154.4317 H   0  0  0  0  0  0  0  0  0  0  0  0
  142.4429  135.9291  151.5114 H   0  0  0  0  0  0  0  0  0  0  0  0
  140.6101  135.3797  153.0138 H   0  0  0  0  0  0  0  0  0  0  0  0
  141.5996  134.2516  153.9243 H   0  0  0  0  0  0  0  0  0  0  0  0
  141.1362  133.8926  152.2616 H   0  0  0  0  0  0  0  0  0  0  0  0
  142.5192  132.7952  151.7241 H   0  0  0  0  0  0  0  0  0  0  0  0
  143.1050  133.5760  150.2703 H   0  0  0  0  0  0  0  0  0  0  0  0
  144.7366  131.8351  152.1834 H   0  0  0  0  0  0  0  0  0  0  0  0
  144.2200  131.3938  150.5770 H   0  0  0  0  0  0  0  0  0  0  0  0
  146.6163  132.1508  150.5992 H   0  0  0  0  0  0  0  0  0  0  0  0
  145.6155  133.1319  149.5608 H   0  0  0  0  0  0  0  0  0  0  0  0
  146.9796  134.6418  150.7973 H   0  0  0  0  0  0  0  0  0  0  0  0
  146.1064  133.3563  153.4230 H   0  0  0  0  0  0  0  0  0  0  0  0
  147.1712  134.7437  153.2370 H   0  0  0  0  0  0  0  0  0  0  0  0
  147.6781  133.1657  152.6531 H   0  0  0  0  0  0  0  0  0  0  0  0
  144.7593  135.4993  150.4927 H   0  0  0  0  0  0  0  0  0  0  0  0
  145.2988  135.9786  152.0855 H   0  0  0  0  0  0  0  0  0  0  0  0
  141.2657  141.4580  155.0889 H   0  0  0  0  0  0  0  0  0  0  0  0
  140.1618  142.8417  154.9876 H   0  0  0  0  0  0  0  0  0  0  0  0
  141.2687  142.4914  153.6435 H   0  0  0  0  0  0  0  0  0  0  0  0
  144.1337  134.0886  152.9577 H   0  0  0  0  0  0  0  0  0  0  0  0
  1  2  1  0  0  0  0
  1 22  1  0  0  0  0
  1 23  1  0  0  0  0
  1 24  1  0  0  0  0
  2 21  2  0  0  0  0
  2  3  1  0  0  0  0
  3  4  2  0  0  0  0
  3 25  1  0  0  0  0
  4  5  1  0  0  0  0
  4 19  1  0  0  0  0
  5  6  1  0  0  0  0
  5 26  1  0  0  0  0
  6  7  2  0  0  0  0
  6  8  1  0  0  0  0
  8  9  1  0  0  0  0
  8 27  1  0  0  0  0
  9 10  1  0  0  0  0
  9 28  1  0  0  0  0
  9 29  1  0  0  0  0
 10 11  1  0  0  0  0
 10 12  1  0  0  0  0
 10 30  1  0  0  0  0
 11 31  1  0  0  0  0
 11 32  1  0  0  0  0
 11 33  1  0  0  0  0
 12 18  1  0  0  0  0
 12 13  1  0  0  0  0
 12 49  1  0  0  0  0
 13 14  1  0  0  0  0
 13 34  1  0  0  0  0
 13 35  1  0  0  0  0
 14 15  1  0  0  0  0
 14 36  1  0  0  0  0
 14 37  1  0  0  0  0
 15 16  1  0  0  0  0
 15 38  1  0  0  0  0
 15 39  1  0  0  0  0
 16 17  1  0  0  0  0
 16 18  1  0  0  0  0
 16 40  1  0  0  0  0
 17 41  1  0  0  0  0
 17 42  1  0  0  0  0
 17 43  1  0  0  0  0
 18 44  1  0  0  0  0
 18 45  1  0  0  0  0
 19 20  1  0  0  0  0
 19 21  1  0  0  0  0
 20 46  1  0  0  0  0
 20 47  1  0  0  0  0
 20 48  1  0  0  0  0
M  CHG  1  12   1
M  END
> <s_m_source_file>
AV-unprocessed.smi

> <i_m_source_file_index>
1205

> <i_lp_mmshare_version>
43012

> <i_f3d_flags>
0

> <s_epik_input>
W0NIM11jMVtjSF1jKG4objEpW0NIM10pW05IXUMoPU8pW05IXVtDSDJdW0NASF0oW0NIM10pTjJbQ0gyXVtDSDJdW0NIMl1bQ0BASF0oW0NIM10pW0NIMl0y

> <s_epik_cmdline>
J2VwaWtfcHl0aG9uJywgJy1waCcsICc3LjAnLCAnLXRuJywgJzgnLCAnLW1hJywgJzIwMCcsICctbWV0YWxfYmluZGluZycsICctaW1hZScsICc8aW5maWxlLm1hZT4nLCAnLW9tYWUnLCAnPG91dGZpbGUubWFlPic=

> <r_lp_tautomer_probability>
1

> <r_epik_Ionization_Penalty>
0.0020309

> <r_epik_Ionization_Penalty_Charging>
0.00195276

> <r_epik_Ionization_Penalty_Neutral>
7.81448e-05

> <r_epik_State_Penalty>
0.00133177

> <r_epik_Charging_Adjusted_Penalty>
0.00328452

> <i_epik_Tot_Q>
1

> <i_epik_Tot_abs_Q>
1

> <r_epik_Metal_State_Penalty>
-0

> <b_epik_Metal_Only>
0

> <s_lp_Force_Field>
OPLS_2005

> <r_lp_Energy>
25.0457

> <b_lp_Chiralities_Consistent>
1

> <s_lp_Variant>
AV-unprocessed.smi:1205-5

> <Gold.Version>
5.8.1

> <Gold.Id.Protein>
6NUR|6NUR_protein|mol2

> <Gold.PLP.Fitness>
41.7876

> <Gold.PLP.PLP>
-37.2410

> <Gold.PLP.part.hbond>
-3.0000

> <Gold.PLP.part.metal>
0.0000

> <Gold.PLP.part.buried>
-2.6823

> <Gold.PLP.part.nonpolar>
-30.9294

> <Gold.PLP.part.repulsive>
0.1677

> <Gold.PLP.ligand.clash>
0.0000

> <Gold.PLP.ligand.torsion>
0.7990

> <Gold.PLP.Chemscore.Hbond>
2.0000

> <Gold.PLP.Chemscore.CHOScore>
0.0000

> <Gold.PLP.Chemscore.Metal>
0.0000

> <Gold.Chemscore.Hbonds>
donor molecule, donor type, donor heavy atom, donor atom, acceptor molecule, acceptor atom, score
      L1  H     5    26       P1 10175  0.90
      L1  H     8    27       P1 10175  1.00

> <Gold.PLP.Chemscore.Internal.Correction>
0.1446

> <Gold.Rescore>
     Score         DG    S(hbond)    S(metal)    S(lipo)     H(rot)  DE(clash)    DE(int)     intcor
     12.54     -14.87       1.29        0.00      75.51       1.47       0.19       2.14       ----

> <Gold.Chemscore.Fitness>
12.5436

> <Gold.Chemscore.DG>
-14.8730

> <Gold.Chemscore.ZeroCoef>
-5.4800

> <Gold.Chemscore.Hbond>
1.2905

> <Gold.Chemscore.Metal>
0.0000

> <Gold.Chemscore.Lipo>
75.5148

> <Gold.Chemscore.Internal_Hbond>
0.0000

> <Gold.Chemscore.DEClash>
0.1889

> <Gold.Chemscore.DEInternal>
2.1405

> <Gold.Chemscore.Rot>
1.4658

> <Gold.Chemscore.Internal.Correction>
   9.000000E+99

> <Gold.Chemscore.Hbonds>
donor molecule, donor type, donor heavy atom, donor atom, acceptor molecule, acceptor atom, score
      L1  H     5    26       P1 10175  0.18
      L1  H     8    27       P1 10175  0.96

> <Gold.Chemscore.Hbond.Weighted>
-4.3103

> <Gold.Chemscore.Metal.Weighted>
-0.0000

> <Gold.Chemscore.Lipo.Weighted>
-8.8352

> <Gold.Chemscore.Internal_Hbond.Weighted>
0.0000

> <Gold.Chemscore.DEClash.Weighted>
0.1889

> <Gold.Chemscore.DEInternal.Weighted>
2.1405

> <Gold.Chemscore.Rot.Weighted>
3.7526

> <Gold.Chemscore.Internal.Correction.Weighted>
   9.000000E+99

> <Gold.Protein.RotatedTorsions>
[ 6907 6896 6895 6894 ] final -122.62 input  -60.11 | X-H torsion
[ 7974 7965 7964 7962 ] final  -10.87 input  175.53 | X-H torsion
[ 8008 7997 7996 7995 ] final  111.67 input   59.86 | X-H torsion
[ 10167 10162 10161 10158 ] final   67.53 input  -65.29 | X-H torsion
[ 10718 10713 10712 10709 ] final -112.82 input   66.30 | X-H torsion
[ 10763 10752 10751 10750 ] final  -14.22 input  -60.55 | X-H torsion
[ 11005 11000 10999 10996 ] final  -28.51 input  -57.11 | X-H torsion

> <Gold.Protein.ActiveResidues>
 VAL166  LYS551  ARG553  GLY616  TRP617  ASP618  TYR619  PRO620  LYS621  CYS622 
 ASP623  PHE694  ASN695  SER759  ASP760  ASP761  ALA762  ILE779  LEU786  VAL792 
 PHE793  MET794  SER795  GLU796  ALA797  LYS798  CYS799  TRP800  GLU811  SER814 

> <Gold.Protein.RotatedAtoms>
  150.8593  133.7667  159.2997 H   0  0  0  0  0  0  0  0  0  0  0  0  # atno 6907 bound_to 6896
  151.5314  135.1067  159.9913 H   0  0  0  0  0  0  0  0  0  0  0  0  # atno 6908 bound_to 6896
  152.4614  133.7787  159.6894 H   0  0  0  0  0  0  0  0  0  0  0  0  # atno 6909 bound_to 6896
  146.2206  140.2828  142.8363 H   0  0  0  0  0  0  0  0  0  0  0  0  # atno 7974 bound_to 7965
  156.2140  140.3015  155.9796 H   0  0  0  0  0  0  0  0  0  0  0  0  # atno 8008 bound_to 7997
  155.2653  140.0431  157.3018 H   0  0  0  0  0  0  0  0  0  0  0  0  # atno 8009 bound_to 7997
  154.5740  140.2356  155.8158 H   0  0  0  0  0  0  0  0  0  0  0  0  # atno 8010 bound_to 7997
  140.0885  144.5008  150.7114 H   0  0  0  0  0  0  0  0  0  0  0  0  # atno 10167 bound_to 10162
  156.0729  130.5940  150.8560 H   0  0  0  0  0  0  0  0  0  0  0  0  # atno 10718 bound_to 10713
  153.5250  135.7015  153.5712 H   0  0  0  0  0  0  0  0  0  0  0  0  # atno 10763 bound_to 10752
  153.3745  135.3936  155.1812 H   0  0  0  0  0  0  0  0  0  0  0  0  # atno 10764 bound_to 10752
  154.8691  135.3820  154.4742 H   0  0  0  0  0  0  0  0  0  0  0  0  # atno 10765 bound_to 10752
  140.9214  133.7396  156.0807 H   0  0  0  0  0  0  0  0  0  0  0  0  # atno 11005 bound_to 11000
  144.9184  140.7839  143.5763 LP  0  0  0  0  0  0  0  0  0  0  0  0  # atno 17320 bound_to 7965
  145.2763  139.1935  143.4814 LP  0  0  0  0  0  0  0  0  0  0  0  0  # atno 17321 bound_to 7965
  140.7041  143.2455  151.4779 LP  0  0  0  0  0  0  0  0  0  0  0  0  # atno 17342 bound_to 10162
  139.5738  144.1866  152.1874 LP  0  0  0  0  0  0  0  0  0  0  0  0  # atno 17343 bound_to 10162
  157.5809  131.0946  150.9272 LP  0  0  0  0  0  0  0  0  0  0  0  0  # atno 17370 bound_to 10713
  156.9468  130.5405  149.5281 LP  0  0  0  0  0  0  0  0  0  0  0  0  # atno 17371 bound_to 10713
  140.7982  134.3539  157.5446 LP  0  0  0  0  0  0  0  0  0  0  0  0  # atno 17394 bound_to 11000
  139.8776  134.9182  156.3196 LP  0  0  0  0  0  0  0  0  0  0  0  0  # atno 17395 bound_to 11000

$$$$
