AV-unprocessed.smi:2027|AV-procd|sdf|8217|dock2
  -GOLD-   2272010483D 1   1.00000     0.00000
 Structure written by MMmdl.
 51 53  0  0  0  0  0  0  0  0  3 V2000
  153.1290  143.3814  161.8665 C   0  0  0  0  0  0  0  0  0  0  0  0
  152.5787  142.8454  160.5559 C   0  0  0  0  0  0  0  0  0  0  0  0
  152.5758  141.4476  160.3471 C   0  0  0  0  0  0  0  0  0  0  0  0
  152.0640  140.9879  159.1395 C   0  0  0  0  0  0  0  0  0  0  0  0
  151.9178  139.6915  158.6407 N   0  3  0  0  0  0  0  0  0  0  0  0
  151.3564  139.7417  157.4009 C   0  0  0  0  0  0  0  0  0  0  0  0
  151.1528  141.0527  157.0960 N   0  0  0  0  0  0  0  0  0  0  0  0
  150.5694  141.6658  155.8963 C   0  0  0  0  0  0  0  0  0  0  0  0
  149.8446  140.6552  154.9839 C   0  0  2  0  0  0  0  0  0  0  0  0
  150.8320  139.8632  154.3559 O   0  0  0  0  0  0  0  0  0  0  0  0
  148.9715  141.3143  153.8963 C   0  0  0  0  0  0  0  0  0  0  0  0
  147.5755  141.5228  154.3659 N   0  3  1  0  0  0  0  0  0  0  0  0
  146.8075  142.4306  153.4823 C   0  0  0  0  0  0  0  0  0  0  0  0
  146.8427  140.2615  154.6395 C   0  0  0  0  0  0  0  0  0  0  0  0
  146.6245  139.4725  153.3758 C   0  0  0  0  0  0  0  0  0  0  0  0
  147.1962  139.6997  152.0912 C   0  0  0  0  0  0  0  0  0  0  0  0
  146.8138  138.8079  151.1930 N   0  0  0  0  0  0  0  0  0  0  0  0
  145.9784  137.9904  151.8651 N   0  0  0  0  0  0  0  0  0  0  0  0
  145.3626  136.8770  151.1757 C   0  0  0  0  0  0  0  0  0  0  0  0
  145.8409  138.3696  153.1826 C   0  0  0  0  0  0  0  0  0  0  0  0
  151.5687  141.8656  158.1559 C   0  0  0  0  0  0  0  0  0  0  0  0
  151.5604  143.2451  158.3466 C   0  0  0  0  0  0  0  0  0  0  0  0
  152.0765  143.7324  159.5685 C   0  0  0  0  0  0  0  0  0  0  0  0
  152.0801  145.2330  159.8061 C   0  0  0  0  0  0  0  0  0  0  0  0
  153.4945  142.5767  162.5050 H   0  0  0  0  0  0  0  0  0  0  0  0
  152.3541  143.9166  162.4156 H   0  0  0  0  0  0  0  0  0  0  0  0
  153.9593  144.0637  161.6840 H   0  0  0  0  0  0  0  0  0  0  0  0
  152.9522  140.7665  161.0965 H   0  0  0  0  0  0  0  0  0  0  0  0
  151.1171  138.8945  156.7742 H   0  0  0  0  0  0  0  0  0  0  0  0
  149.8752  142.4377  156.2320 H   0  0  0  0  0  0  0  0  0  0  0  0
  151.3664  142.1794  155.3561 H   0  0  0  0  0  0  0  0  0  0  0  0
  149.2348  139.9950  155.5993 H   0  0  0  0  0  0  0  0  0  0  0  0
  151.3673  139.4579  155.0218 H   0  0  0  0  0  0  0  0  0  0  0  0
  149.3855  142.2744  153.5864 H   0  0  0  0  0  0  0  0  0  0  0  0
  148.9981  140.6838  153.0076 H   0  0  0  0  0  0  0  0  0  0  0  0
  146.6452  141.9776  152.5035 H   0  0  0  0  0  0  0  0  0  0  0  0
  147.3281  143.3770  153.3372 H   0  0  0  0  0  0  0  0  0  0  0  0
  145.8338  142.6587  153.9170 H   0  0  0  0  0  0  0  0  0  0  0  0
  147.4156  139.6613  155.3477 H   0  0  0  0  0  0  0  0  0  0  0  0
  145.8998  140.4936  155.1368 H   0  0  0  0  0  0  0  0  0  0  0  0
  147.8824  140.4774  151.7894 H   0  0  0  0  0  0  0  0  0  0  0  0
  144.6616  136.3677  151.8377 H   0  0  0  0  0  0  0  0  0  0  0  0
  146.1299  136.1695  150.8598 H   0  0  0  0  0  0  0  0  0  0  0  0
  144.8233  137.2364  150.2987 H   0  0  0  0  0  0  0  0  0  0  0  0
  145.2102  137.8238  153.8689 H   0  0  0  0  0  0  0  0  0  0  0  0
  151.1737  143.9201  157.5973 H   0  0  0  0  0  0  0  0  0  0  0  0
  151.6713  145.7737  158.9521 H   0  0  0  0  0  0  0  0  0  0  0  0
  153.0953  145.5939  159.9723 H   0  0  0  0  0  0  0  0  0  0  0  0
  151.4760  145.4834  160.6783 H   0  0  0  0  0  0  0  0  0  0  0  0
  147.6489  141.9904  155.2589 H   0  0  0  0  0  0  0  0  0  0  0  0
  152.1739  138.8338  159.1134 H   0  0  0  0  0  0  0  0  0  0  0  0
  1  2  1  0  0  0  0
  1 25  1  0  0  0  0
  1 26  1  0  0  0  0
  1 27  1  0  0  0  0
  2 23  1  0  0  0  0
  2  3  2  0  0  0  0
  3  4  1  0  0  0  0
  3 28  1  0  0  0  0
  4 21  2  0  0  0  0
  4  5  1  0  0  0  0
  5  6  2  0  0  0  0
  5 51  1  0  0  0  0
  6  7  1  0  0  0  0
  6 29  1  0  0  0  0
  7  8  1  0  0  0  0
  7 21  1  0  0  0  0
  8  9  1  0  0  0  0
  8 30  1  0  0  0  0
  8 31  1  0  0  0  0
  9 10  1  0  0  0  0
  9 11  1  0  0  0  0
  9 32  1  0  0  0  0
 10 33  1  0  0  0  0
 11 12  1  0  0  0  0
 11 34  1  0  0  0  0
 11 35  1  0  0  0  0
 12 13  1  0  0  0  0
 12 14  1  0  0  0  0
 12 50  1  0  0  0  0
 13 36  1  0  0  0  0
 13 37  1  0  0  0  0
 13 38  1  0  0  0  0
 14 15  1  0  0  0  0
 14 39  1  0  0  0  0
 14 40  1  0  0  0  0
 15 20  2  0  0  0  0
 15 16  1  0  0  0  0
 16 17  2  0  0  0  0
 16 41  1  0  0  0  0
 17 18  1  0  0  0  0
 18 19  1  0  0  0  0
 18 20  1  0  0  0  0
 19 42  1  0  0  0  0
 19 43  1  0  0  0  0
 19 44  1  0  0  0  0
 20 45  1  0  0  0  0
 21 22  1  0  0  0  0
 22 23  2  0  0  0  0
 22 46  1  0  0  0  0
 23 24  1  0  0  0  0
 24 47  1  0  0  0  0
 24 48  1  0  0  0  0
 24 49  1  0  0  0  0
M  CHG  1   5   1
M  CHG  1  12   1
M  END
> <s_m_source_file>
AV-unprocessed.smi

> <i_m_source_file_index>
2027

> <i_lp_mmshare_version>
43012

> <i_f3d_flags>
0

> <s_epik_input>
W0NIM11jKFtjSF0xKWMoW0NIM10pW2NIXWMoYzEyKW4oW2NIXW4yKVtDSDJdW0NASF0oW09IXSlbQ0gyXU4oW0NIM10pW0NIMl1jM1tjSF1ubihbQ0gzXSlbY0hdMw==

> <s_epik_cmdline>
J2VwaWtfcHl0aG9uJywgJy1waCcsICc3LjAnLCAnLXRuJywgJzgnLCAnLW1hJywgJzIwMCcsICctbWV0YWxfYmluZGluZycsICctaW1hZScsICc8aW5maWxlLm1hZT4nLCAnLW9tYWUnLCAnPG91dGZpbGUubWFlPic=

> <r_lp_tautomer_probability>
1

> <r_epik_Ionization_Penalty>
1.77469

> <r_epik_Ionization_Penalty_Charging>
1.77463

> <r_epik_Ionization_Penalty_Neutral>
6.41153e-05

> <r_epik_State_Penalty>
1.85225

> <r_epik_Charging_Adjusted_Penalty>
3.62688

> <i_epik_Tot_Q>
2

> <i_epik_Tot_abs_Q>
2

> <r_epik_Metal_State_Penalty>
1.92669

> <b_epik_Metal_Only>
0

> <s_lp_Force_Field>
OPLS_2005

> <r_lp_Energy>
21.1473

> <b_lp_Chiralities_Consistent>
1

> <s_lp_Variant>
AV-unprocessed.smi:2027-9

> <Gold.Version>
5.8.1

> <Gold.Id.Protein>
6NUR|6NUR_protein|mol2

> <Gold.PLP.Fitness>
56.7097

> <Gold.PLP.PLP>
-49.6995

> <Gold.PLP.part.hbond>
-2.0000

> <Gold.PLP.part.metal>
0.0000

> <Gold.PLP.part.buried>
-2.2493

> <Gold.PLP.part.nonpolar>
-46.4400

> <Gold.PLP.part.repulsive>
0.5159

> <Gold.PLP.ligand.clash>
0.0000

> <Gold.PLP.ligand.torsion>
0.7937

> <Gold.PLP.Chemscore.Hbond>
1.9588

> <Gold.PLP.Chemscore.CHOScore>
0.8154

> <Gold.PLP.Chemscore.Metal>
0.0000

> <Gold.Chemscore.Hbonds>
donor molecule, donor type, donor heavy atom, donor atom, acceptor molecule, acceptor atom, score
      P1  H  7954  7966       L1    17  0.81
      P1  H  7989  7998       L1    10  1.00
      L1  C    16    41       P1  7957  0.46

> <Gold.PLP.Chemscore.Internal.Correction>
0.2752

> <Gold.Rescore>
     Score         DG    S(hbond)    S(metal)    S(lipo)     H(rot)  DE(clash)    DE(int)     intcor
     16.04     -18.81       1.20        0.00     136.36       2.58       0.92       1.85       ----

> <Gold.Chemscore.Fitness>
16.0411

> <Gold.Chemscore.DG>
-18.8134

> <Gold.Chemscore.ZeroCoef>
-5.4800

> <Gold.Chemscore.Hbond>
1.1955

> <Gold.Chemscore.Metal>
0.0000

> <Gold.Chemscore.Lipo>
136.3612

> <Gold.Chemscore.Internal_Hbond>
0.0000

> <Gold.Chemscore.DEClash>
0.9231

> <Gold.Chemscore.DEInternal>
1.8492

> <Gold.Chemscore.Rot>
2.5836

> <Gold.Chemscore.Internal.Correction>
   9.000000E+99

> <Gold.Chemscore.Hbonds>
donor molecule, donor type, donor heavy atom, donor atom, acceptor molecule, acceptor atom, score
      P1  H  7954  7966       L1    17  0.72
      P1  H  7989  7998       L1    10  0.35

> <Gold.Chemscore.Hbond.Weighted>
-3.9931

> <Gold.Chemscore.Metal.Weighted>
-0.0000

> <Gold.Chemscore.Lipo.Weighted>
-15.9543

> <Gold.Chemscore.Internal_Hbond.Weighted>
0.0000

> <Gold.Chemscore.DEClash.Weighted>
0.9231

> <Gold.Chemscore.DEInternal.Weighted>
1.8492

> <Gold.Chemscore.Rot.Weighted>
6.6139

> <Gold.Chemscore.Internal.Correction.Weighted>
   9.000000E+99

> <Gold.Protein.RotatedTorsions>
[ 6907 6896 6895 6894 ] final -131.57 input  -60.11 | X-H torsion
[ 7974 7965 7964 7962 ] final -148.62 input  175.53 | X-H torsion
[ 8008 7997 7996 7995 ] final -167.75 input   59.86 | X-H torsion
[ 10167 10162 10161 10158 ] final  -48.80 input  -65.29 | X-H torsion
[ 10718 10713 10712 10709 ] final  -88.72 input   66.30 | X-H torsion
[ 10763 10752 10751 10750 ] final -104.25 input  -60.55 | X-H torsion
[ 11005 11000 10999 10996 ] final    2.97 input  -57.11 | X-H torsion

> <Gold.Protein.ActiveResidues>
 VAL166  LYS551  ARG553  GLY616  TRP617  ASP618  TYR619  PRO620  LYS621  CYS622 
 ASP623  PHE694  ASN695  SER759  ASP760  ASP761  ALA762  ILE779  LEU786  VAL792 
 PHE793  MET794  SER795  GLU796  ALA797  LYS798  CYS799  TRP800  GLU811  SER814 

> <Gold.Protein.RotatedAtoms>
  150.9525  133.6534  159.2769 H   0  0  0  0  0  0  0  0  0  0  0  0  # atno 6907 bound_to 6896
  151.3885  135.0951  159.9528 H   0  0  0  0  0  0  0  0  0  0  0  0  # atno 6908 bound_to 6896
  152.5115  133.9044  159.7512 H   0  0  0  0  0  0  0  0  0  0  0  0  # atno 6909 bound_to 6896
  144.8018  140.5172  143.5702 H   0  0  0  0  0  0  0  0  0  0  0  0  # atno 7974 bound_to 7965
  155.8819  140.1010  157.1479 H   0  0  0  0  0  0  0  0  0  0  0  0  # atno 8008 bound_to 7997
  154.4006  140.1327  156.4271 H   0  0  0  0  0  0  0  0  0  0  0  0  # atno 8009 bound_to 7997
  155.7633  140.3462  155.5211 H   0  0  0  0  0  0  0  0  0  0  0  0  # atno 8010 bound_to 7997
  140.6715  143.2725  151.4122 H   0  0  0  0  0  0  0  0  0  0  0  0  # atno 10167 bound_to 10162
  155.9983  130.4846  150.5062 H   0  0  0  0  0  0  0  0  0  0  0  0  # atno 10718 bound_to 10713
  154.7865  135.4793  153.9957 H   0  0  0  0  0  0  0  0  0  0  0  0  # atno 10763 bound_to 10752
  153.1567  135.6801  153.8809 H   0  0  0  0  0  0  0  0  0  0  0  0  # atno 10764 bound_to 10752
  153.8436  135.3176  155.3406 H   0  0  0  0  0  0  0  0  0  0  0  0  # atno 10765 bound_to 10752
  140.5984  133.9859  155.8120 H   0  0  0  0  0  0  0  0  0  0  0  0  # atno 11005 bound_to 11000
  145.5535  139.1477  143.3381 LP  0  0  0  0  0  0  0  0  0  0  0  0  # atno 17320 bound_to 7965
  146.2301  140.5672  142.8979 LP  0  0  0  0  0  0  0  0  0  0  0  0  # atno 17321 bound_to 7965
  139.5985  144.1346  152.2171 LP  0  0  0  0  0  0  0  0  0  0  0  0  # atno 17342 bound_to 10162
  140.0722  144.5769  150.7183 LP  0  0  0  0  0  0  0  0  0  0  0  0  # atno 17343 bound_to 10162
  157.3041  131.0651  151.2048 LP  0  0  0  0  0  0  0  0  0  0  0  0  # atno 17370 bound_to 10713
  157.3017  130.6846  149.6167 LP  0  0  0  0  0  0  0  0  0  0  0  0  # atno 17371 bound_to 10713
  141.0889  133.9948  157.3270 LP  0  0  0  0  0  0  0  0  0  0  0  0  # atno 17394 bound_to 11000
  139.9243  135.0201  156.8178 LP  0  0  0  0  0  0  0  0  0  0  0  0  # atno 17395 bound_to 11000

$$$$
