AV-unprocessed.smi:1508|AV-procd|sdf|6089|dock8
  -GOLD-   22720 6213D 1   1.00000     0.00000
 Structure written by MMmdl.
 37 38  0  0  0  0  0  0  0  0  3 V2000
  146.3277  133.8371  156.4217 C   0  0  0  0  0  0  0  0  0  0  0  0
  146.0436  134.0019  154.9201 C   0  0  0  0  0  0  0  0  0  0  0  0
  147.1954  134.6540  154.1075 C   0  0  1  0  0  0  0  0  0  0  0  0
  148.5900  134.0826  154.4766 C   0  0  0  0  0  0  0  0  0  0  0  0
  149.6384  135.0966  154.3973 N   0  0  0  0  0  0  0  0  0  0  0  0
  150.5019  135.4326  155.3663 C   0  0  0  0  0  0  0  0  0  0  0  0
  150.4803  134.8421  156.4481 O   0  0  0  0  0  0  0  0  0  0  0  0
  151.3337  136.4404  155.0215 N   0  5  0  0  0  0  0  0  0  0  0  0
  150.8432  137.6741  154.8165 C   0  0  0  0  0  0  0  0  0  0  0  0
  151.6373  138.7501  154.6961 N   0  0  0  0  0  0  0  0  0  0  0  0
  150.9325  139.9283  154.4902 N   0  0  0  0  0  0  0  0  0  0  0  0
  149.6179  139.7104  154.4679 C   0  0  0  0  0  0  0  0  0  0  0  0
  149.1212  138.0475  154.7009 S   0  0  0  0  0  0  0  0  0  0  0  0
  146.9305  134.5685  152.6408 N   0  3  0  0  0  0  0  0  0  0  0  0
  147.0178  133.2050  152.0582 C   0  0  0  0  0  0  0  0  0  0  0  0
  145.9455  133.1067  150.9639 C   0  0  0  0  0  0  0  0  0  0  0  0
  145.4176  134.5277  150.8021 C   0  0  0  0  0  0  0  0  0  0  0  0
  145.6480  135.1411  152.1781 C   0  0  0  0  0  0  0  0  0  0  0  0
  145.4748  133.3800  156.9238 H   0  0  0  0  0  0  0  0  0  0  0  0
  146.5138  134.7941  156.9069 H   0  0  0  0  0  0  0  0  0  0  0  0
  147.1927  133.1986  156.5995 H   0  0  0  0  0  0  0  0  0  0  0  0
  145.7992  133.0246  154.5043 H   0  0  0  0  0  0  0  0  0  0  0  0
  145.1298  134.5840  154.7988 H   0  0  0  0  0  0  0  0  0  0  0  0
  147.2107  135.7146  154.3643 H   0  0  0  0  0  0  0  0  0  0  0  0
  148.5601  133.6064  155.4575 H   0  0  0  0  0  0  0  0  0  0  0  0
  148.8816  133.3016  153.7751 H   0  0  0  0  0  0  0  0  0  0  0  0
  149.7066  135.6102  153.5305 H   0  0  0  0  0  0  0  0  0  0  0  0
  148.9366  140.5344  154.3178 H   0  0  0  0  0  0  0  0  0  0  0  0
  148.0177  133.0482  151.6524 H   0  0  0  0  0  0  0  0  0  0  0  0
  146.8398  132.4353  152.8107 H   0  0  0  0  0  0  0  0  0  0  0  0
  146.3359  132.7009  150.0301 H   0  0  0  0  0  0  0  0  0  0  0  0
  145.1403  132.4508  151.2979 H   0  0  0  0  0  0  0  0  0  0  0  0
  146.0088  135.0607  150.0558 H   0  0  0  0  0  0  0  0  0  0  0  0
  144.3729  134.5608  150.4913 H   0  0  0  0  0  0  0  0  0  0  0  0
  144.8449  134.8425  152.8544 H   0  0  0  0  0  0  0  0  0  0  0  0
  145.6765  136.2304  152.1375 H   0  0  0  0  0  0  0  0  0  0  0  0
  147.6499  135.1114  152.1848 H   0  0  0  0  0  0  0  0  0  0  0  0
  1  2  1  0  0  0  0
  1 19  1  0  0  0  0
  1 20  1  0  0  0  0
  1 21  1  0  0  0  0
  2  3  1  0  0  0  0
  2 22  1  0  0  0  0
  2 23  1  0  0  0  0
  3  4  1  0  0  0  0
  3 14  1  0  0  0  0
  3 24  1  0  0  0  0
  4  5  1  0  0  0  0
  4 25  1  0  0  0  0
  4 26  1  0  0  0  0
  5  6  1  0  0  0  0
  5 27  1  0  0  0  0
  6  7  2  0  0  0  0
  6  8  1  0  0  0  0
  8  9  1  0  0  0  0
  9 13  1  0  0  0  0
  9 10  2  0  0  0  0
 10 11  1  0  0  0  0
 11 12  2  0  0  0  0
 12 13  1  0  0  0  0
 12 28  1  0  0  0  0
 14 18  1  0  0  0  0
 14 15  1  0  0  0  0
 14 37  1  0  0  0  0
 15 16  1  0  0  0  0
 15 29  1  0  0  0  0
 15 30  1  0  0  0  0
 16 17  1  0  0  0  0
 16 31  1  0  0  0  0
 16 32  1  0  0  0  0
 17 18  1  0  0  0  0
 17 33  1  0  0  0  0
 17 34  1  0  0  0  0
 18 35  1  0  0  0  0
 18 36  1  0  0  0  0
M  CHG  1   8  -1
M  CHG  1  14   1
M  END
> <s_m_source_file>
AV-unprocessed.smi

> <i_m_source_file_index>
1508

> <i_lp_mmshare_version>
43012

> <i_f3d_flags>
0

> <s_epik_input>
W0NIMl0xW0NIMl1bQ0gyXVtDSDJdTjFbQ0BIXShbQ0gyXVtDSDNdKVtDSDJdW05IXUMoPU8pW05IXWMybm5bY0hdczI=

> <s_epik_cmdline>
J2VwaWtfcHl0aG9uJywgJy1waCcsICc3LjAnLCAnLXRuJywgJzgnLCAnLW1hJywgJzIwMCcsICctbWV0YWxfYmluZGluZycsICctaW1hZScsICc8aW5maWxlLm1hZT4nLCAnLW9tYWUnLCAnPG91dGZpbGUubWFlPic=

> <r_lp_tautomer_probability>
1

> <r_epik_Ionization_Penalty>
3.98086

> <r_epik_Ionization_Penalty_Charging>
3.94833

> <r_epik_Ionization_Penalty_Neutral>
0.032525

> <r_epik_State_Penalty>
3.94643

> <r_epik_Charging_Adjusted_Penalty>
7.89477

> <i_epik_Tot_Q>
0

> <i_epik_Tot_abs_Q>
2

> <r_epik_Metal_State_Penalty>
0.605555

> <b_epik_Metal_Only>
1

> <s_lp_Force_Field>
OPLS_2005

> <r_lp_Energy>
25.5937

> <b_lp_Chiralities_Consistent>
1

> <s_lp_Variant>
AV-unprocessed.smi:1508-4

> <Gold.Version>
5.8.1

> <Gold.Id.Protein>
6NUR|6NUR_protein|mol2

> <Gold.PLP.Fitness>
40.9085

> <Gold.PLP.PLP>
-26.0363

> <Gold.PLP.part.hbond>
-4.0000

> <Gold.PLP.part.metal>
0.0000

> <Gold.PLP.part.buried>
-5.1397

> <Gold.PLP.part.nonpolar>
-17.3065

> <Gold.PLP.part.repulsive>
0.3647

> <Gold.PLP.ligand.clash>
0.0000

> <Gold.PLP.ligand.torsion>
1.1911

> <Gold.PLP.Chemscore.Hbond>
5.7000

> <Gold.PLP.Chemscore.CHOScore>
0.0000

> <Gold.PLP.Chemscore.Metal>
0.0000

> <Gold.Chemscore.Hbonds>
donor molecule, donor type, donor heavy atom, donor atom, acceptor molecule, acceptor atom, score
      L1  H     5    27       P1  7948  0.70
      L1  H    14    37       P1  7948  2.00
      P1  H  7989  7998       L1    11  1.00
      P1  H 10752 10764       L1     8  2.00

> <Gold.PLP.Chemscore.Internal.Correction>
0.1546

> <Gold.Rescore>
     Score         DG    S(hbond)    S(metal)    S(lipo)     H(rot)  DE(clash)    DE(int)     intcor
     14.23     -15.39       2.98        0.00      40.17       1.86       0.00       1.17       ----

> <Gold.Chemscore.Fitness>
14.2252

> <Gold.Chemscore.DG>
-15.3944

> <Gold.Chemscore.ZeroCoef>
-5.4800

> <Gold.Chemscore.Hbond>
2.9848

> <Gold.Chemscore.Metal>
0.0000

> <Gold.Chemscore.Lipo>
40.1747

> <Gold.Chemscore.Internal_Hbond>
0.0000

> <Gold.Chemscore.DEClash>
0.0000

> <Gold.Chemscore.DEInternal>
1.1692

> <Gold.Chemscore.Rot>
1.8575

> <Gold.Chemscore.Internal.Correction>
   9.000000E+99

> <Gold.Chemscore.Hbonds>
donor molecule, donor type, donor heavy atom, donor atom, acceptor molecule, acceptor atom, score
      L1  H     5    27       P1  7948  0.07
      L1  H    14    37       P1  7948  0.96
      P1  H  7989  7998       L1    11  0.76
      P1  H 10752 10764       L1     8  0.34

> <Gold.Chemscore.Hbond.Weighted>
-9.9691

> <Gold.Chemscore.Metal.Weighted>
-0.0000

> <Gold.Chemscore.Lipo.Weighted>
-4.7004

> <Gold.Chemscore.Internal_Hbond.Weighted>
0.0000

> <Gold.Chemscore.DEClash.Weighted>
0.0000

> <Gold.Chemscore.DEInternal.Weighted>
1.1692

> <Gold.Chemscore.Rot.Weighted>
4.7551

> <Gold.Chemscore.Internal.Correction.Weighted>
   9.000000E+99

> <Gold.Protein.RotatedTorsions>
[ 6907 6896 6895 6894 ] final  -20.34 input  -60.11 | X-H torsion
[ 7974 7965 7964 7962 ] final   79.07 input  175.53 | X-H torsion
[ 8008 7997 7996 7995 ] final  -54.37 input   59.86 | X-H torsion
[ 10167 10162 10161 10158 ] final  -49.89 input  -65.29 | X-H torsion
[ 10718 10713 10712 10709 ] final  -67.22 input   66.30 | X-H torsion
[ 10763 10752 10751 10750 ] final  -42.47 input  -60.55 | X-H torsion
[ 11005 11000 10999 10996 ] final  118.00 input  -57.11 | X-H torsion

> <Gold.Protein.ActiveResidues>
 VAL166  LYS551  ARG553  GLY616  TRP617  ASP618  TYR619  PRO620  LYS621  CYS622 
 ASP623  PHE694  ASN695  SER759  ASP760  ASP761  ALA762  ILE779  LEU786  VAL792 
 PHE793  MET794  SER795  GLU796  ALA797  LYS798  CYS799  TRP800  GLU811  SER814 

> <Gold.Protein.RotatedAtoms>
  151.2496  135.0617  159.9056 H   0  0  0  0  0  0  0  0  0  0  0  0  # atno 6907 bound_to 6896
  152.5382  134.0346  159.8050 H   0  0  0  0  0  0  0  0  0  0  0  0  # atno 6908 bound_to 6896
  151.0552  133.5541  159.2670 H   0  0  0  0  0  0  0  0  0  0  0  0  # atno 6909 bound_to 6896
  145.6690  139.2491  143.1879 H   0  0  0  0  0  0  0  0  0  0  0  0  # atno 7974 bound_to 7965
  154.4161  140.1178  156.5305 H   0  0  0  0  0  0  0  0  0  0  0  0  # atno 8008 bound_to 7997
  155.6611  140.3496  155.4764 H   0  0  0  0  0  0  0  0  0  0  0  0  # atno 8009 bound_to 7997
  155.9713  140.1142  157.0800 H   0  0  0  0  0  0  0  0  0  0  0  0  # atno 8010 bound_to 7997
  140.6664  143.2679  151.4280 H   0  0  0  0  0  0  0  0  0  0  0  0  # atno 10167 bound_to 10162
  156.0569  130.4274  150.1822 H   0  0  0  0  0  0  0  0  0  0  0  0  # atno 10718 bound_to 10713
  153.9795  135.6718  153.4749 H   0  0  0  0  0  0  0  0  0  0  0  0  # atno 10763 bound_to 10752
  153.0755  135.4951  154.8391 H   0  0  0  0  0  0  0  0  0  0  0  0  # atno 10764 bound_to 10752
  154.7172  135.3109  154.9066 H   0  0  0  0  0  0  0  0  0  0  0  0  # atno 10765 bound_to 10752
  139.9094  134.9616  156.7436 H   0  0  0  0  0  0  0  0  0  0  0  0  # atno 11005 bound_to 11000
  146.1061  140.7485  142.9525 LP  0  0  0  0  0  0  0  0  0  0  0  0  # atno 17320 bound_to 7965
  144.7063  140.3865  143.7115 LP  0  0  0  0  0  0  0  0  0  0  0  0  # atno 17321 bound_to 7965
  139.5914  144.1490  152.2093 LP  0  0  0  0  0  0  0  0  0  0  0  0  # atno 17342 bound_to 10162
  140.0846  144.5672  150.7098 LP  0  0  0  0  0  0  0  0  0  0  0  0  # atno 17343 bound_to 10162
  156.9897  130.9889  151.3418 LP  0  0  0  0  0  0  0  0  0  0  0  0  # atno 17370 bound_to 10713
  157.5547  130.8206  149.8189 LP  0  0  0  0  0  0  0  0  0  0  0  0  # atno 17371 bound_to 10713
  140.6829  133.9458  155.7921 LP  0  0  0  0  0  0  0  0  0  0  0  0  # atno 17394 bound_to 11000
  141.0497  134.0503  157.3799 LP  0  0  0  0  0  0  0  0  0  0  0  0  # atno 17395 bound_to 11000

$$$$
