AV-unprocessed.smi:895|AV-procd|sdf|4076|dock3
  -GOLD-   22720 1563D 1   1.00000     0.00000
 Structure written by MMmdl.
 44 45  0  0  0  0  0  0  0  0  1 V2000
  143.2790  135.8221  152.3192 C   0  0  0  0  0  0  0  0  0  0  0  0
  144.7421  136.3060  152.2972 C   0  0  0  0  0  0  0  0  0  0  0  0
  145.4362  135.8563  151.0007 C   0  0  0  0  0  0  0  0  0  0  0  0
  144.7418  137.7199  152.2676 O   0  0  0  0  0  0  0  0  0  0  0  0
  145.5651  135.8435  153.5246 C   0  0  0  0  0  0  0  0  0  0  0  0
  146.9227  136.3806  153.5423 N   0  0  0  0  0  0  0  0  0  0  0  0
  147.4399  137.1325  154.5229 C   0  0  0  0  0  0  0  0  0  0  0  0
  146.8118  137.4963  155.5171 O   0  0  0  0  0  0  0  0  0  0  0  0
  148.7237  137.4348  154.2849 N   0  0  0  0  0  0  0  0  0  0  0  0
  149.5823  138.2506  155.1429 C   0  0  1  0  0  0  0  0  0  0  0  0
  150.8681  137.4609  155.4573 C   0  0  0  0  0  0  0  0  0  0  0  0
  151.8622  138.2958  156.2785 C   0  0  0  0  0  0  0  0  0  0  0  0
  152.1963  139.6147  155.5672 C   0  0  0  0  0  0  0  0  0  0  0  0
  150.9213  140.4196  155.2765 C   0  0  0  0  0  0  0  0  0  0  0  0
  149.9100  139.5980  154.4495 C   0  0  2  0  0  0  0  0  0  0  0  0
  148.7102  140.3777  154.1701 N   0  0  0  0  0  0  0  0  0  0  0  0
  148.4460  141.6845  154.5236 C   0  0  0  0  0  0  0  0  0  0  0  0
  147.2070  141.9967  154.0422 C   0  0  0  0  0  0  0  0  0  0  0  0
  146.7840  140.8005  153.3989 C   0  0  0  0  0  0  0  0  0  0  0  0
  147.6825  139.8334  153.4797 N   0  0  0  0  0  0  0  0  0  0  0  0
  143.2262  134.7348  152.3794 H   0  0  0  0  0  0  0  0  0  0  0  0
  142.7486  136.1275  151.4166 H   0  0  0  0  0  0  0  0  0  0  0  0
  142.7271  136.2286  153.1672 H   0  0  0  0  0  0  0  0  0  0  0  0
  145.4755  134.7685  150.9329 H   0  0  0  0  0  0  0  0  0  0  0  0
  146.4611  136.2257  150.9478 H   0  0  0  0  0  0  0  0  0  0  0  0
  144.9093  136.2206  150.1178 H   0  0  0  0  0  0  0  0  0  0  0  0
  144.1791  138.0064  151.5642 H   0  0  0  0  0  0  0  0  0  0  0  0
  145.0852  136.2074  154.4336 H   0  0  0  0  0  0  0  0  0  0  0  0
  145.5680  134.7547  153.6080 H   0  0  0  0  0  0  0  0  0  0  0  0
  147.5184  136.1356  152.7651 H   0  0  0  0  0  0  0  0  0  0  0  0
  149.1413  137.0787  153.4380 H   0  0  0  0  0  0  0  0  0  0  0  0
  149.0846  138.4602  156.0915 H   0  0  0  0  0  0  0  0  0  0  0  0
  150.6207  136.5479  156.0005 H   0  0  0  0  0  0  0  0  0  0  0  0
  151.3464  137.1466  154.5283 H   0  0  0  0  0  0  0  0  0  0  0  0
  151.4390  138.5063  157.2615 H   0  0  0  0  0  0  0  0  0  0  0  0
  152.7746  137.7242  156.4500 H   0  0  0  0  0  0  0  0  0  0  0  0
  152.8775  140.2060  156.1796 H   0  0  0  0  0  0  0  0  0  0  0  0
  152.7200  139.4059  154.6336 H   0  0  0  0  0  0  0  0  0  0  0  0
  150.4710  140.7279  156.2210 H   0  0  0  0  0  0  0  0  0  0  0  0
  151.1795  141.3360  154.7450 H   0  0  0  0  0  0  0  0  0  0  0  0
  150.3765  139.3772  153.4878 H   0  0  0  0  0  0  0  0  0  0  0  0
  149.1557  142.2784  155.0804 H   0  0  0  0  0  0  0  0  0  0  0  0
  146.6837  142.9367  154.1345 H   0  0  0  0  0  0  0  0  0  0  0  0
  145.8568  140.6073  152.8799 H   0  0  0  0  0  0  0  0  0  0  0  0
  1  2  1  0  0  0  0
  1 21  1  0  0  0  0
  1 22  1  0  0  0  0
  1 23  1  0  0  0  0
  2  3  1  0  0  0  0
  2  4  1  0  0  0  0
  2  5  1  0  0  0  0
  3 24  1  0  0  0  0
  3 25  1  0  0  0  0
  3 26  1  0  0  0  0
  4 27  1  0  0  0  0
  5  6  1  0  0  0  0
  5 28  1  0  0  0  0
  5 29  1  0  0  0  0
  6  7  1  0  0  0  0
  6 30  1  0  0  0  0
  7  8  2  0  0  0  0
  7  9  1  0  0  0  0
  9 10  1  0  0  0  0
  9 31  1  0  0  0  0
 10 15  1  0  0  0  0
 10 11  1  0  0  0  0
 10 32  1  0  0  0  0
 11 12  1  0  0  0  0
 11 33  1  0  0  0  0
 11 34  1  0  0  0  0
 12 13  1  0  0  0  0
 12 35  1  0  0  0  0
 12 36  1  0  0  0  0
 13 14  1  0  0  0  0
 13 37  1  0  0  0  0
 13 38  1  0  0  0  0
 14 15  1  0  0  0  0
 14 39  1  0  0  0  0
 14 40  1  0  0  0  0
 15 16  1  0  0  0  0
 15 41  1  0  0  0  0
 16 20  1  0  0  0  0
 16 17  1  0  0  0  0
 17 18  2  0  0  0  0
 17 42  1  0  0  0  0
 18 19  1  0  0  0  0
 18 43  1  0  0  0  0
 19 20  2  0  0  0  0
 19 44  1  0  0  0  0
M  END
> <s_m_source_file>
AV-unprocessed.smi

> <i_m_source_file_index>
895

> <i_lp_mmshare_version>
43012

> <i_f3d_flags>
0

> <s_epik_input>
W0NIM11DKFtDSDNdKShbT0hdKVtDSDJdW05IXUMoPU8pW05IXVtDQEBIXTFbQ0gyXVtDSDJdW0NIMl1bQ0gyXVtDQEhdMW4yW2NIXVtjSF1bY0hdbjI=

> <s_epik_cmdline>
J2VwaWtfcHl0aG9uJywgJy1waCcsICc3LjAnLCAnLXRuJywgJzgnLCAnLW1hJywgJzIwMCcsICctbWV0YWxfYmluZGluZycsICctaW1hZScsICc8aW5maWxlLm1hZT4nLCAnLW9tYWUnLCAnPG91dGZpbGUubWFlPic=

> <r_lp_tautomer_probability>
1

> <r_epik_Ionization_Penalty>
0.000440451

> <r_epik_Ionization_Penalty_Charging>
0

> <r_epik_Ionization_Penalty_Neutral>
0.000440451

> <r_epik_State_Penalty>
-0

> <r_epik_Charging_Adjusted_Penalty>
0

> <i_epik_Tot_Q>
0

> <i_epik_Tot_abs_Q>
0

> <r_epik_Metal_State_Penalty>
-0

> <b_epik_Metal_Only>
0

> <s_lp_Force_Field>
OPLS_2005

> <r_lp_Energy>
11.0588

> <b_lp_Chiralities_Consistent>
1

> <s_lp_Variant>
AV-unprocessed.smi:895-4

> <Gold.Version>
5.8.1

> <Gold.Id.Protein>
6NUR|6NUR_protein|mol2

> <Gold.PLP.Fitness>
47.8214

> <Gold.PLP.PLP>
-33.4093

> <Gold.PLP.part.hbond>
-4.0000

> <Gold.PLP.part.metal>
0.0000

> <Gold.PLP.part.buried>
-1.3172

> <Gold.PLP.part.nonpolar>
-28.7664

> <Gold.PLP.part.repulsive>
0.8545

> <Gold.PLP.ligand.clash>
0.0000

> <Gold.PLP.ligand.torsion>
0.1121

> <Gold.PLP.Chemscore.Hbond>
3.0000

> <Gold.PLP.Chemscore.CHOScore>
1.8618

> <Gold.PLP.Chemscore.Metal>
0.0000

> <Gold.Chemscore.Hbonds>
donor molecule, donor type, donor heavy atom, donor atom, acceptor molecule, acceptor atom, score
      L1  H     4    27       P1 10171  1.00
      L1  H     6    30       P1  7948  1.00
      L1  H     9    31       P1  7948  1.00
      L1  C    17    42       P1  8028  0.90
      L1  C    19    44       P1 10175  1.00

> <Gold.PLP.Chemscore.Internal.Correction>
0.0509

> <Gold.Rescore>
     Score         DG    S(hbond)    S(metal)    S(lipo)     H(rot)  DE(clash)    DE(int)     intcor
     15.25     -18.27       2.93        0.00      73.55       2.19       0.01       3.01       ----

> <Gold.Chemscore.Fitness>
15.2497

> <Gold.Chemscore.DG>
-18.2697

> <Gold.Chemscore.ZeroCoef>
-5.4800

> <Gold.Chemscore.Hbond>
2.9330

> <Gold.Chemscore.Metal>
0.0000

> <Gold.Chemscore.Lipo>
73.5465

> <Gold.Chemscore.Internal_Hbond>
0.0000

> <Gold.Chemscore.DEClash>
0.0065

> <Gold.Chemscore.DEInternal>
3.0135

> <Gold.Chemscore.Rot>
2.1919

> <Gold.Chemscore.Internal.Correction>
   9.000000E+99

> <Gold.Chemscore.Hbonds>
donor molecule, donor type, donor heavy atom, donor atom, acceptor molecule, acceptor atom, score
      L1  H     4    27       P1 10171  0.97
      L1  H     6    30       P1  7948  0.98
      L1  H     9    31       P1  7948  0.95

> <Gold.Chemscore.Hbond.Weighted>
-9.7961

> <Gold.Chemscore.Metal.Weighted>
-0.0000

> <Gold.Chemscore.Lipo.Weighted>
-8.6049

> <Gold.Chemscore.Internal_Hbond.Weighted>
0.0000

> <Gold.Chemscore.DEClash.Weighted>
0.0065

> <Gold.Chemscore.DEInternal.Weighted>
3.0135

> <Gold.Chemscore.Rot.Weighted>
5.6113

> <Gold.Chemscore.Internal.Correction.Weighted>
   9.000000E+99

> <Gold.Protein.RotatedTorsions>
[ 6907 6896 6895 6894 ] final   -3.97 input  -60.11 | X-H torsion
[ 7974 7965 7964 7962 ] final   -0.13 input  175.53 | X-H torsion
[ 8008 7997 7996 7995 ] final  -76.99 input   59.86 | X-H torsion
[ 10167 10162 10161 10158 ] final -128.72 input  -65.29 | X-H torsion
[ 10718 10713 10712 10709 ] final  -75.09 input   66.30 | X-H torsion
[ 10763 10752 10751 10750 ] final    9.38 input  -60.55 | X-H torsion
[ 11005 11000 10999 10996 ] final   74.77 input  -57.11 | X-H torsion

> <Gold.Protein.ActiveResidues>
 VAL166  LYS551  ARG553  GLY616  TRP617  ASP618  TYR619  PRO620  LYS621  CYS622 
 ASP623  PHE694  ASN695  SER759  ASP760  ASP761  ALA762  ILE779  LEU786  VAL792 
 PHE793  MET794  SER795  GLU796  ALA797  LYS798  CYS799  TRP800  GLU811  SER814 

> <Gold.Protein.RotatedAtoms>
  151.5051  135.1063  159.9838 H   0  0  0  0  0  0  0  0  0  0  0  0  # atno 6907 bound_to 6896
  152.4685  133.7973  159.6944 H   0  0  0  0  0  0  0  0  0  0  0  0  # atno 6908 bound_to 6896
  150.8681  133.7481  159.2996 H   0  0  0  0  0  0  0  0  0  0  0  0  # atno 6909 bound_to 6896
  146.2430  140.1223  142.8340 H   0  0  0  0  0  0  0  0  0  0  0  0  # atno 7974 bound_to 7965
  154.5555  140.0718  156.8736 H   0  0  0  0  0  0  0  0  0  0  0  0  # atno 8008 bound_to 7997
  155.2911  140.3378  155.4234 H   0  0  0  0  0  0  0  0  0  0  0  0  # atno 8009 bound_to 7997
  156.1998  140.1717  156.7909 H   0  0  0  0  0  0  0  0  0  0  0  0  # atno 8010 bound_to 7997
  139.9473  143.6096  152.2486 H   0  0  0  0  0  0  0  0  0  0  0  0  # atno 10167 bound_to 10162
  156.0220  130.4432  150.2990 H   0  0  0  0  0  0  0  0  0  0  0  0  # atno 10718 bound_to 10713
  153.2146  135.6873  153.8072 H   0  0  0  0  0  0  0  0  0  0  0  0  # atno 10763 bound_to 10752
  153.7293  135.3255  155.3283 H   0  0  0  0  0  0  0  0  0  0  0  0  # atno 10764 bound_to 10752
  154.8239  135.4632  154.0968 H   0  0  0  0  0  0  0  0  0  0  0  0  # atno 10765 bound_to 10752
  139.9375  134.7461  156.1189 H   0  0  0  0  0  0  0  0  0  0  0  0  # atno 11005 bound_to 11000
  145.0396  140.8935  143.5060 LP  0  0  0  0  0  0  0  0  0  0  0  0  # atno 17320 bound_to 7965
  145.1301  139.2637  143.5544 LP  0  0  0  0  0  0  0  0  0  0  0  0  # atno 17321 bound_to 7965
  139.6657  144.7662  151.1879 LP  0  0  0  0  0  0  0  0  0  0  0  0  # atno 17342 bound_to 10162
  140.7593  143.5942  150.8765 LP  0  0  0  0  0  0  0  0  0  0  0  0  # atno 17343 bound_to 10162
  157.1093  131.0217  151.3054 LP  0  0  0  0  0  0  0  0  0  0  0  0  # atno 17370 bound_to 10713
  157.4717  130.7713  149.7330 LP  0  0  0  0  0  0  0  0  0  0  0  0  # atno 17371 bound_to 10713
  141.0995  133.6682  156.2722 LP  0  0  0  0  0  0  0  0  0  0  0  0  # atno 17394 bound_to 11000
  140.6037  134.5528  157.5522 LP  0  0  0  0  0  0  0  0  0  0  0  0  # atno 17395 bound_to 11000

$$$$
