AV-unprocessed.smi:25|AV-procd|sdf|180|dock2
  -GOLD-   2262015443D 1   1.00000     0.00000
 Structure written by MMmdl.
 47 50  0  0  0  0  0  0  0  0  1 V2000
  151.9701  137.9320  158.5374 C   0  0  0  0  0  0  0  0  0  0  0  0
  150.8867  139.0163  158.7035 C   0  0  1  0  0  0  0  0  0  0  0  0
  151.3309  140.3584  158.0794 C   0  0  0  0  0  0  0  0  0  0  0  0
  150.3514  140.5576  156.9647 C   0  0  0  0  0  0  0  0  0  0  0  0
  150.3750  141.6001  156.0221 C   0  0  0  0  0  0  0  0  0  0  0  0
  149.3840  141.6191  155.0207 C   0  0  0  0  0  0  0  0  0  0  0  0
  148.4047  140.6027  154.9742 C   0  0  0  0  0  0  0  0  0  0  0  0
  148.3977  139.5622  155.9289 C   0  0  0  0  0  0  0  0  0  0  0  0
  149.3837  139.5540  156.9452 C   0  0  0  0  0  0  0  0  0  0  0  0
  149.6235  138.6474  158.0229 N   0  0  0  0  0  0  0  0  0  0  0  0
  148.8179  137.6790  158.5409 C   0  0  0  0  0  0  0  0  0  0  0  0
  147.7617  137.3689  157.9841 O   0  0  0  0  0  0  0  0  0  0  0  0
  149.2057  136.9144  159.8214 C   0  0  0  0  0  0  0  0  0  0  0  0
  148.2254  135.8771  160.2197 N   0  0  0  0  0  0  0  0  0  0  0  0
  148.2398  134.6308  159.5437 C   0  0  0  0  0  0  0  0  0  0  0  0
  149.0407  134.4054  158.6352 O   0  0  0  0  0  0  0  0  0  0  0  0
  147.2624  133.6514  160.0054 C   0  0  0  0  0  0  0  0  0  0  0  0
  147.2089  132.4402  159.4259 F   0  0  0  0  0  0  0  0  0  0  0  0
  146.4120  133.9400  161.0113 C   0  0  0  0  0  0  0  0  0  0  0  0
  146.4073  135.1607  161.6606 N   0  0  0  0  0  0  0  0  0  0  0  0
  145.4506  135.4415  162.7979 C   0  0  2  0  0  0  0  0  0  0  0  0
  144.5391  134.2319  163.0341 C   0  0  0  0  0  0  0  0  0  0  0  0
  143.3178  134.5968  162.2185 C   0  0  0  0  0  0  0  0  0  0  0  0
  143.2724  136.1102  162.3952 C   0  0  0  0  0  0  0  0  0  0  0  0
  144.6350  136.5241  162.4514 O   0  0  0  0  0  0  0  0  0  0  0  0
  147.3341  136.1567  161.2837 C   0  0  0  0  0  0  0  0  0  0  0  0
  147.3725  137.2371  161.8766 O   0  0  0  0  0  0  0  0  0  0  0  0
  152.9069  138.2454  158.9987 H   0  0  0  0  0  0  0  0  0  0  0  0
  152.1695  137.7324  157.4840 H   0  0  0  0  0  0  0  0  0  0  0  0
  151.6820  136.9903  159.0039 H   0  0  0  0  0  0  0  0  0  0  0  0
  150.7018  139.1749  159.7675 H   0  0  0  0  0  0  0  0  0  0  0  0
  151.2489  141.1788  158.7932 H   0  0  0  0  0  0  0  0  0  0  0  0
  152.3516  140.3335  157.6956 H   0  0  0  0  0  0  0  0  0  0  0  0
  151.1363  142.3653  156.0606 H   0  0  0  0  0  0  0  0  0  0  0  0
  149.3782  142.4074  154.2825 H   0  0  0  0  0  0  0  0  0  0  0  0
  147.6552  140.6188  154.1966 H   0  0  0  0  0  0  0  0  0  0  0  0
  147.6381  138.8086  155.8281 H   0  0  0  0  0  0  0  0  0  0  0  0
  150.1865  136.4602  159.6788 H   0  0  0  0  0  0  0  0  0  0  0  0
  149.3237  137.6354  160.6301 H   0  0  0  0  0  0  0  0  0  0  0  0
  145.7154  133.1736  161.3163 H   0  0  0  0  0  0  0  0  0  0  0  0
  146.0661  135.7083  163.6585 H   0  0  0  0  0  0  0  0  0  0  0  0
  145.0074  133.2919  162.7393 H   0  0  0  0  0  0  0  0  0  0  0  0
  144.2901  134.1859  164.0950 H   0  0  0  0  0  0  0  0  0  0  0  0
  143.4731  134.3413  161.1697 H   0  0  0  0  0  0  0  0  0  0  0  0
  142.4093  134.1003  162.5603 H   0  0  0  0  0  0  0  0  0  0  0  0
  142.7341  136.6119  161.5911 H   0  0  0  0  0  0  0  0  0  0  0  0
  142.7907  136.3669  163.3395 H   0  0  0  0  0  0  0  0  0  0  0  0
  1  2  1  0  0  0  0
  1 28  1  0  0  0  0
  1 29  1  0  0  0  0
  1 30  1  0  0  0  0
  2 10  1  0  0  0  0
  2  3  1  0  0  0  0
  2 31  1  0  0  0  0
  3  4  1  0  0  0  0
  3 32  1  0  0  0  0
  3 33  1  0  0  0  0
  4  9  2  0  0  0  0
  4  5  1  0  0  0  0
  5  6  2  0  0  0  0
  5 34  1  0  0  0  0
  6  7  1  0  0  0  0
  6 35  1  0  0  0  0
  7  8  2  0  0  0  0
  7 36  1  0  0  0  0
  8  9  1  0  0  0  0
  8 37  1  0  0  0  0
  9 10  1  0  0  0  0
 10 11  1  0  0  0  0
 11 12  2  0  0  0  0
 11 13  1  0  0  0  0
 13 14  1  0  0  0  0
 13 38  1  0  0  0  0
 13 39  1  0  0  0  0
 14 26  1  0  0  0  0
 14 15  1  0  0  0  0
 15 16  2  0  0  0  0
 15 17  1  0  0  0  0
 17 18  1  0  0  0  0
 17 19  2  0  0  0  0
 19 20  1  0  0  0  0
 19 40  1  0  0  0  0
 20 21  1  0  0  0  0
 20 26  1  0  0  0  0
 21 25  1  0  0  0  0
 21 22  1  0  0  0  0
 21 41  1  0  0  0  0
 22 23  1  0  0  0  0
 22 42  1  0  0  0  0
 22 43  1  0  0  0  0
 23 24  1  0  0  0  0
 23 44  1  0  0  0  0
 23 45  1  0  0  0  0
 24 25  1  0  0  0  0
 24 46  1  0  0  0  0
 24 47  1  0  0  0  0
 26 27  2  0  0  0  0
M  END
> <s_m_source_file>
AV-unprocessed.smi

> <i_m_source_file_index>
25

> <i_lp_mmshare_version>
43012

> <i_f3d_flags>
0

> <s_epik_input>
W2NIXTFbY0hdW2NIXVtjSF1jKGMxMilOKFtDQEhdKFtDSDNdKVtDSDJdMilDKD1PKVtDSDJdbjNjKD1PKWMoRilbY0hdbihjMz1PKVtDQEBIXTRbQ0gyXVtDSDJdW0NIMl1PNA==

> <s_epik_cmdline>
J2VwaWtfcHl0aG9uJywgJy1waCcsICc3LjAnLCAnLXRuJywgJzgnLCAnLW1hJywgJzIwMCcsICctbWV0YWxfYmluZGluZycsICctaW1hZScsICc8aW5maWxlLm1hZT4nLCAnLW9tYWUnLCAnPG91dGZpbGUubWFlPic=

> <r_lp_tautomer_probability>
1

> <r_epik_Ionization_Penalty>
1.67943e-06

> <r_epik_Ionization_Penalty_Charging>
3.79603e-09

> <r_epik_Ionization_Penalty_Neutral>
1.67563e-06

> <r_epik_State_Penalty>
-0

> <r_epik_Charging_Adjusted_Penalty>
3.79603e-09

> <i_epik_Tot_Q>
0

> <i_epik_Tot_abs_Q>
0

> <r_epik_Metal_State_Penalty>
-0

> <b_epik_Metal_Only>
0

> <s_epik_Chemistry_Notes>
This compound contains an acetal/aminal-like group ( X-CH(R)-Y where X, Y are N, S, or O) that may be acid/base labile, releasing an aldehyde.

> <s_lp_Force_Field>
OPLS_2005

> <r_lp_Energy>
55.2786

> <b_lp_Chiralities_Consistent>
1

> <s_lp_Variant>
AV-unprocessed.smi:25-2

> <Gold.Version>
5.8.1

> <Gold.Id.Protein>
6NUR|6NUR_protein|mol2

> <Gold.PLP.Fitness>
46.6168

> <Gold.PLP.PLP>
-39.0002

> <Gold.PLP.part.hbond>
-3.0000

> <Gold.PLP.part.metal>
0.0000

> <Gold.PLP.part.buried>
-5.1709

> <Gold.PLP.part.nonpolar>
-30.5603

> <Gold.PLP.part.repulsive>
0.0191

> <Gold.PLP.ligand.clash>
0.0000

> <Gold.PLP.ligand.torsion>
0.2715

> <Gold.PLP.Chemscore.Hbond>
2.7051

> <Gold.PLP.Chemscore.CHOScore>
0.0000

> <Gold.PLP.Chemscore.Metal>
0.0000

> <Gold.Chemscore.Hbonds>
donor molecule, donor type, donor heavy atom, donor atom, acceptor molecule, acceptor atom, score
      P1  H  6896  6909       L1    16  0.94
      P1  H  6931  6943       L1    27  0.88
      P1  H  6934  6947       L1    27  0.75

> <Gold.PLP.Chemscore.Internal.Correction>
0.0441

> <Gold.Rescore>
     Score         DG    S(hbond)    S(metal)    S(lipo)     H(rot)  DE(clash)    DE(int)     intcor
     17.30     -18.67       2.54        0.00      74.02       1.55       0.00       1.36       ----

> <Gold.Chemscore.Fitness>
17.3050

> <Gold.Chemscore.DG>
-18.6737

> <Gold.Chemscore.ZeroCoef>
-5.4800

> <Gold.Chemscore.Hbond>
2.5444

> <Gold.Chemscore.Metal>
0.0000

> <Gold.Chemscore.Lipo>
74.0220

> <Gold.Chemscore.Internal_Hbond>
0.0000

> <Gold.Chemscore.DEClash>
0.0038

> <Gold.Chemscore.DEInternal>
1.3650

> <Gold.Chemscore.Rot>
1.5489

> <Gold.Chemscore.Internal.Correction>
   9.000000E+99

> <Gold.Chemscore.Hbonds>
donor molecule, donor type, donor heavy atom, donor atom, acceptor molecule, acceptor atom, score
      P1  H  6896  6909       L1    16  0.71
      P1  H  6931  6943       L1    27  0.84
      P1  H  6934  6947       L1    27  0.71

> <Gold.Chemscore.Hbond.Weighted>
-8.4983

> <Gold.Chemscore.Metal.Weighted>
-0.0000

> <Gold.Chemscore.Lipo.Weighted>
-8.6606

> <Gold.Chemscore.Internal_Hbond.Weighted>
0.0000

> <Gold.Chemscore.DEClash.Weighted>
0.0038

> <Gold.Chemscore.DEInternal.Weighted>
1.3650

> <Gold.Chemscore.Rot.Weighted>
3.9651

> <Gold.Chemscore.Internal.Correction.Weighted>
   9.000000E+99

> <Gold.Protein.RotatedTorsions>
[ 6907 6896 6895 6894 ] final    6.15 input  -60.11 | X-H torsion
[ 7974 7965 7964 7962 ] final  -66.50 input  175.53 | X-H torsion
[ 8008 7997 7996 7995 ] final  -27.81 input   59.86 | X-H torsion
[ 10167 10162 10161 10158 ] final -162.22 input  -65.29 | X-H torsion
[ 10718 10713 10712 10709 ] final -114.47 input   66.30 | X-H torsion
[ 10763 10752 10751 10750 ] final  -44.76 input  -60.55 | X-H torsion
[ 11005 11000 10999 10996 ] final  -16.04 input  -57.11 | X-H torsion

> <Gold.Protein.ActiveResidues>
 VAL166  LYS551  ARG553  GLY616  TRP617  ASP618  TYR619  PRO620  LYS621  CYS622 
 ASP623  PHE694  ASN695  SER759  ASP760  ASP761  ALA762  ILE779  LEU786  VAL792 
 PHE793  MET794  SER795  GLU796  ALA797  LYS798  CYS799  TRP800  GLU811  SER814 

> <Gold.Protein.RotatedAtoms>
  151.6691  135.0978  160.0194 H   0  0  0  0  0  0  0  0  0  0  0  0  # atno 6907 bound_to 6896
  152.3902  133.6664  159.6240 H   0  0  0  0  0  0  0  0  0  0  0  0  # atno 6908 bound_to 6896
  150.7819  133.8883  159.3347 H   0  0  0  0  0  0  0  0  0  0  0  0  # atno 6909 bound_to 6896
  145.7410  140.8953  143.0530 H   0  0  0  0  0  0  0  0  0  0  0  0  # atno 7974 bound_to 7965
  154.4360  140.1862  156.0991 H   0  0  0  0  0  0  0  0  0  0  0  0  # atno 8008 bound_to 7997
  156.0306  140.3331  155.7110 H   0  0  0  0  0  0  0  0  0  0  0  0  # atno 8009 bound_to 7997
  155.5844  140.0625  157.2765 H   0  0  0  0  0  0  0  0  0  0  0  0  # atno 8010 bound_to 7997
  139.6408  144.0264  152.2090 H   0  0  0  0  0  0  0  0  0  0  0  0  # atno 10167 bound_to 10162
  156.0832  130.6028  150.8778 H   0  0  0  0  0  0  0  0  0  0  0  0  # atno 10718 bound_to 10713
  154.0174  135.6673  153.4770 H   0  0  0  0  0  0  0  0  0  0  0  0  # atno 10763 bound_to 10752
  153.0595  135.5036  154.8055 H   0  0  0  0  0  0  0  0  0  0  0  0  # atno 10764 bound_to 10752
  154.6958  135.3069  154.9377 H   0  0  0  0  0  0  0  0  0  0  0  0  # atno 10765 bound_to 10752
  140.8027  133.8201  155.9486 H   0  0  0  0  0  0  0  0  0  0  0  0  # atno 11005 bound_to 11000
  144.6870  139.9461  143.7476 LP  0  0  0  0  0  0  0  0  0  0  0  0  # atno 17320 bound_to 7965
  146.0448  139.3455  143.0676 LP  0  0  0  0  0  0  0  0  0  0  0  0  # atno 17321 bound_to 7965
  139.9953  144.6332  150.7778 LP  0  0  0  0  0  0  0  0  0  0  0  0  # atno 17342 bound_to 10162
  140.7489  143.2930  151.3278 LP  0  0  0  0  0  0  0  0  0  0  0  0  # atno 17343 bound_to 10162
  157.5956  131.0943  150.9046 LP  0  0  0  0  0  0  0  0  0  0  0  0  # atno 17370 bound_to 10713
  156.9213  130.5316  149.5279 LP  0  0  0  0  0  0  0  0  0  0  0  0  # atno 17371 bound_to 10713
  140.9278  134.2061  157.4884 LP  0  0  0  0  0  0  0  0  0  0  0  0  # atno 17394 bound_to 11000
  139.8720  134.9820  156.5138 LP  0  0  0  0  0  0  0  0  0  0  0  0  # atno 17395 bound_to 11000

$$$$
