AV-unprocessed.smi:86|AV-procd|sdf|812|dock8
  -GOLD-   2262017213D 1   1.00000     0.00000
 Structure written by MMmdl.
 51 55  0  0  0  0  0  0  0  0  1 V2000
  146.8373  137.5564  151.2194 O   0  0  0  0  0  0  0  0  0  0  0  0
  145.8885  138.1209  152.1013 C   0  0  0  0  0  0  0  0  0  0  0  0
  146.5705  138.7711  153.3178 C   0  0  0  0  0  0  0  0  0  0  0  0
  147.3700  140.0171  152.8860 C   0  0  0  0  0  0  0  0  0  0  0  0
  148.1695  140.6004  153.9531 N   0  0  0  0  0  0  0  0  0  0  0  0
  147.8645  141.7174  154.6965 C   0  0  0  0  0  0  0  0  0  0  0  0
  148.7496  142.0438  155.5975 N   0  0  0  0  0  0  0  0  0  0  0  0
  149.7352  141.0690  155.4839 C   0  0  0  0  0  0  0  0  0  0  0  0
  150.9724  140.8150  156.1467 C   0  0  0  0  0  0  0  0  0  0  0  0
  151.4754  141.5828  157.1468 N   0  0  0  0  0  0  0  0  0  0  0  0
  150.9901  142.9344  157.4182 C   0  0  0  0  0  0  0  0  0  0  0  0
  151.1723  143.0991  158.9284 C   0  0  2  0  0  0  0  0  0  0  0  0
  151.3687  144.5067  159.5034 C   0  0  0  0  0  0  0  0  0  0  0  0
  151.6090  144.3987  161.0253 C   0  0  0  0  0  0  0  0  0  0  0  0
  152.7614  143.4242  161.3741 C   0  0  1  0  0  0  0  0  0  0  0  0
  152.8435  143.2738  162.7756 O   0  0  0  0  0  0  0  0  0  0  0  0
  152.5830  142.0365  160.7165 C   0  0  0  0  0  0  0  0  0  0  0  0
  152.3889  142.2273  159.2076 C   0  0  1  0  0  0  0  0  0  0  0  0
  152.0950  141.0069  158.3388 C   0  0  0  0  0  0  0  0  0  0  0  0
  151.6936  139.7419  155.7274 N   0  0  0  0  0  0  0  0  0  0  0  0
  151.2378  138.9591  154.7459 C   0  0  0  0  0  0  0  0  0  0  0  0
  150.1062  139.0698  154.0496 N   0  0  0  0  0  0  0  0  0  0  0  0
  149.3814  140.1524  154.4518 C   0  0  0  0  0  0  0  0  0  0  0  0
  145.6522  138.9504  154.5355 C   0  0  0  0  0  0  0  0  0  0  0  0
  146.2077  137.7943  155.1966 O   0  0  0  0  0  0  0  0  0  0  0  0
  147.2988  137.7941  154.2514 C   0  0  0  0  0  0  0  0  0  0  0  0
  147.4690  137.0719  151.7286 H   0  0  0  0  0  0  0  0  0  0  0  0
  145.2726  138.8345  151.5539 H   0  0  0  0  0  0  0  0  0  0  0  0
  145.2154  137.3240  152.4190 H   0  0  0  0  0  0  0  0  0  0  0  0
  148.0470  139.7693  152.0675 H   0  0  0  0  0  0  0  0  0  0  0  0
  146.7059  140.7855  152.4888 H   0  0  0  0  0  0  0  0  0  0  0  0
  146.9613  142.2908  154.5487 H   0  0  0  0  0  0  0  0  0  0  0  0
  151.5972  143.6512  156.8643 H   0  0  0  0  0  0  0  0  0  0  0  0
  149.9453  143.0688  157.1365 H   0  0  0  0  0  0  0  0  0  0  0  0
  150.3030  142.6494  159.4131 H   0  0  0  0  0  0  0  0  0  0  0  0
  152.2189  144.9941  159.0243 H   0  0  0  0  0  0  0  0  0  0  0  0
  150.4938  145.1253  159.3017 H   0  0  0  0  0  0  0  0  0  0  0  0
  151.8185  145.3871  161.4354 H   0  0  0  0  0  0  0  0  0  0  0  0
  150.6892  144.0580  161.5037 H   0  0  0  0  0  0  0  0  0  0  0  0
  153.7026  143.8575  161.0332 H   0  0  0  0  0  0  0  0  0  0  0  0
  152.0767  142.8083  163.0726 H   0  0  0  0  0  0  0  0  0  0  0  0
  153.4536  141.4084  160.9090 H   0  0  0  0  0  0  0  0  0  0  0  0
  151.7197  141.5222  161.1420 H   0  0  0  0  0  0  0  0  0  0  0  0
  153.2769  142.7180  158.8032 H   0  0  0  0  0  0  0  0  0  0  0  0
  151.3946  140.3325  158.8337 H   0  0  0  0  0  0  0  0  0  0  0  0
  153.0027  140.4535  158.0959 H   0  0  0  0  0  0  0  0  0  0  0  0
  151.8709  138.1255  154.4803 H   0  0  0  0  0  0  0  0  0  0  0  0
  145.8369  139.8619  155.1056 H   0  0  0  0  0  0  0  0  0  0  0  0
  144.5902  138.8391  154.3132 H   0  0  0  0  0  0  0  0  0  0  0  0
  147.4777  136.8098  153.8167 H   0  0  0  0  0  0  0  0  0  0  0  0
  148.2134  138.1973  154.6896 H   0  0  0  0  0  0  0  0  0  0  0  0
  1  2  1  0  0  0  0
  1 27  1  0  0  0  0
  2  3  1  0  0  0  0
  2 28  1  0  0  0  0
  2 29  1  0  0  0  0
  3 26  1  0  0  0  0
  3  4  1  0  0  0  0
  3 24  1  0  0  0  0
  4  5  1  0  0  0  0
  4 30  1  0  0  0  0
  4 31  1  0  0  0  0
  5 23  1  0  0  0  0
  5  6  1  0  0  0  0
  6  7  2  0  0  0  0
  6 32  1  0  0  0  0
  7  8  1  0  0  0  0
  8 23  2  0  0  0  0
  8  9  1  0  0  0  0
  9 10  1  0  0  0  0
  9 20  2  0  0  0  0
 10 19  1  0  0  0  0
 10 11  1  0  0  0  0
 11 12  1  0  0  0  0
 11 33  1  0  0  0  0
 11 34  1  0  0  0  0
 12 18  1  0  0  0  0
 12 13  1  0  0  0  0
 12 35  1  0  0  0  0
 13 14  1  0  0  0  0
 13 36  1  0  0  0  0
 13 37  1  0  0  0  0
 14 15  1  0  0  0  0
 14 38  1  0  0  0  0
 14 39  1  0  0  0  0
 15 16  1  0  0  0  0
 15 17  1  0  0  0  0
 15 40  1  0  0  0  0
 16 41  1  0  0  0  0
 17 18  1  0  0  0  0
 17 42  1  0  0  0  0
 17 43  1  0  0  0  0
 18 19  1  0  0  0  0
 18 44  1  0  0  0  0
 19 45  1  0  0  0  0
 19 46  1  0  0  0  0
 20 21  1  0  0  0  0
 21 22  2  0  0  0  0
 21 47  1  0  0  0  0
 22 23  1  0  0  0  0
 24 25  1  0  0  0  0
 24 48  1  0  0  0  0
 24 49  1  0  0  0  0
 25 26  1  0  0  0  0
 26 50  1  0  0  0  0
 26 51  1  0  0  0  0
M  END
> <s_m_source_file>
AV-unprocessed.smi

> <i_m_source_file_index>
86

> <i_lp_mmshare_version>
43012

> <i_f3d_flags>
0

> <s_epik_input>
W0NIMl0xT1tDSDJdQzEoW0NIMl1bT0hdKVtDSDJdbihbY0hdbjIpYyhjMjMpbltjSF1uYzNOKFtDSDJdNClbQ0gyXVtDQEBIXShbQ0BIXTQ1KVtDSDJdW0NASF0oW09IXSlbQ0gyXVtDSDJdNQ==

> <s_epik_cmdline>
J2VwaWtfcHl0aG9uJywgJy1waCcsICc3LjAnLCAnLXRuJywgJzgnLCAnLW1hJywgJzIwMCcsICctbWV0YWxfYmluZGluZycsICctaW1hZScsICc8aW5maWxlLm1hZT4nLCAnLW9tYWUnLCAnPG91dGZpbGUubWFlPic=

> <r_lp_tautomer_probability>
1

> <r_epik_Ionization_Penalty>
0.00425795

> <r_epik_Ionization_Penalty_Charging>
0

> <r_epik_Ionization_Penalty_Neutral>
0.00425795

> <r_epik_State_Penalty>
0.00299946

> <r_epik_Charging_Adjusted_Penalty>
0.00299946

> <i_epik_Tot_Q>
0

> <i_epik_Tot_abs_Q>
0

> <r_epik_Metal_State_Penalty>
-0

> <b_epik_Metal_Only>
0

> <s_lp_Force_Field>
OPLS_2005

> <r_lp_Energy>
53.7305

> <b_lp_Chiralities_Consistent>
1

> <s_lp_Variant>
AV-unprocessed.smi:86-1

> <Gold.Version>
5.8.1

> <Gold.Id.Protein>
6NUR|6NUR_protein|mol2

> <Gold.PLP.Fitness>
52.0630

> <Gold.PLP.PLP>
-48.3225

> <Gold.PLP.part.hbond>
-2.1695

> <Gold.PLP.part.metal>
0.0000

> <Gold.PLP.part.buried>
-3.6244

> <Gold.PLP.part.nonpolar>
-45.7754

> <Gold.PLP.part.repulsive>
3.0192

> <Gold.PLP.ligand.clash>
0.0000

> <Gold.PLP.ligand.torsion>
0.8933

> <Gold.PLP.Chemscore.Hbond>
1.6760

> <Gold.PLP.Chemscore.CHOScore>
0.0000

> <Gold.PLP.Chemscore.Metal>
0.0000

> <Gold.Chemscore.Hbonds>
donor molecule, donor type, donor heavy atom, donor atom, acceptor molecule, acceptor atom, score
      L1  H     1    27       P1  7948  0.98
      P1  H  7954  7966       L1     1  0.45

> <Gold.PLP.Chemscore.Internal.Correction>
0.4990

> <Gold.Rescore>
     Score         DG    S(hbond)    S(metal)    S(lipo)     H(rot)  DE(clash)    DE(int)     intcor
     10.16     -15.15       0.97        0.00     115.25       2.76       3.12       1.87       ----

> <Gold.Chemscore.Fitness>
10.1581

> <Gold.Chemscore.DG>
-15.1466

> <Gold.Chemscore.ZeroCoef>
-5.4800

> <Gold.Chemscore.Hbond>
0.9748

> <Gold.Chemscore.Metal>
0.0000

> <Gold.Chemscore.Lipo>
115.2490

> <Gold.Chemscore.Internal_Hbond>
0.0000

> <Gold.Chemscore.DEClash>
3.1166

> <Gold.Chemscore.DEInternal>
1.8719

> <Gold.Chemscore.Rot>
2.7630

> <Gold.Chemscore.Internal.Correction>
   9.000000E+99

> <Gold.Chemscore.Hbonds>
donor molecule, donor type, donor heavy atom, donor atom, acceptor molecule, acceptor atom, score
      L1  H     1    27       P1  7948  0.93
      P1  H  7954  7966       L1     1  0.02

> <Gold.Chemscore.Hbond.Weighted>
-3.2558

> <Gold.Chemscore.Metal.Weighted>
-0.0000

> <Gold.Chemscore.Lipo.Weighted>
-13.4841

> <Gold.Chemscore.Internal_Hbond.Weighted>
0.0000

> <Gold.Chemscore.DEClash.Weighted>
3.1166

> <Gold.Chemscore.DEInternal.Weighted>
1.8719

> <Gold.Chemscore.Rot.Weighted>
7.0734

> <Gold.Chemscore.Internal.Correction.Weighted>
   9.000000E+99

> <Gold.Protein.RotatedTorsions>
[ 6907 6896 6895 6894 ] final  141.52 input  -60.11 | X-H torsion
[ 7974 7965 7964 7962 ] final  122.36 input  175.53 | X-H torsion
[ 8008 7997 7996 7995 ] final   53.29 input   59.86 | X-H torsion
[ 10167 10162 10161 10158 ] final  -95.96 input  -65.29 | X-H torsion
[ 10718 10713 10712 10709 ] final -174.40 input   66.30 | X-H torsion
[ 10763 10752 10751 10750 ] final -139.85 input  -60.55 | X-H torsion
[ 11005 11000 10999 10996 ] final -129.63 input  -57.11 | X-H torsion

> <Gold.Protein.ActiveResidues>
 VAL166  LYS551  ARG553  GLY616  TRP617  ASP618  TYR619  PRO620  LYS621  CYS622 
 ASP623  PHE694  ASN695  SER759  ASP760  ASP761  ALA762  ILE779  LEU786  VAL792 
 PHE793  MET794  SER795  GLU796  ALA797  LYS798  CYS799  TRP800  GLU811  SER814 

> <Gold.Protein.RotatedAtoms>
  152.2300  133.5050  159.5210 H   0  0  0  0  0  0  0  0  0  0  0  0  # atno 6907 bound_to 6896
  150.7035  134.1229  159.4050 H   0  0  0  0  0  0  0  0  0  0  0  0  # atno 6908 bound_to 6896
  151.9150  135.0322  160.0568 H   0  0  0  0  0  0  0  0  0  0  0  0  # atno 6909 bound_to 6896
  145.1085  139.3469  143.4775 H   0  0  0  0  0  0  0  0  0  0  0  0  # atno 7974 bound_to 7965
  155.4659  140.3463  155.4319 H   0  0  0  0  0  0  0  0  0  0  0  0  # atno 8008 bound_to 7997
  156.1131  140.1466  156.9339 H   0  0  0  0  0  0  0  0  0  0  0  0  # atno 8009 bound_to 7997
  154.4770  140.0882  156.7265 H   0  0  0  0  0  0  0  0  0  0  0  0  # atno 8010 bound_to 7997
  140.2987  143.3175  152.0270 H   0  0  0  0  0  0  0  0  0  0  0  0  # atno 10167 bound_to 10162
  156.7845  130.9495  151.3120 H   0  0  0  0  0  0  0  0  0  0  0  0  # atno 10718 bound_to 10713
  154.8597  135.3570  154.5613 H   0  0  0  0  0  0  0  0  0  0  0  0  # atno 10763 bound_to 10752
  153.6228  135.7005  153.5309 H   0  0  0  0  0  0  0  0  0  0  0  0  # atno 10764 bound_to 10752
  153.3115  135.4177  155.1299 H   0  0  0  0  0  0  0  0  0  0  0  0  # atno 10765 bound_to 10752
  140.9415  134.1187  157.4146 H   0  0  0  0  0  0  0  0  0  0  0  0  # atno 11005 bound_to 11000
  146.3527  140.0994  142.8608 LP  0  0  0  0  0  0  0  0  0  0  0  0  # atno 17320 bound_to 7965
  145.0874  140.9261  143.4789 LP  0  0  0  0  0  0  0  0  0  0  0  0  # atno 17321 bound_to 7965
  139.4920  144.6471  151.6754 LP  0  0  0  0  0  0  0  0  0  0  0  0  # atno 17342 bound_to 10162
  140.5669  144.0174  150.6197 LP  0  0  0  0  0  0  0  0  0  0  0  0  # atno 17343 bound_to 10162
  157.6630  130.8983  149.9871 LP  0  0  0  0  0  0  0  0  0  0  0  0  # atno 17370 bound_to 10713
  156.1197  130.3646  149.9908 LP  0  0  0  0  0  0  0  0  0  0  0  0  # atno 17371 bound_to 10713
  139.8821  135.0038  156.6209 LP  0  0  0  0  0  0  0  0  0  0  0  0  # atno 17394 bound_to 11000
  140.7727  133.8725  155.8505 LP  0  0  0  0  0  0  0  0  0  0  0  0  # atno 17395 bound_to 11000

$$$$
