AV-unprocessed.smi:821|AV-procd|sdf|3840|dock10
  -GOLD-   22720 1283D 1   1.00000     0.00000
 Structure written by MMmdl.
 45 46  0  0  0  0  0  0  0  0  2 V2000
  151.7434  136.7360  157.1698 C   0  0  0  0  0  0  0  0  0  0  0  0
  150.7973  137.7326  156.4868 C   0  0  2  0  0  0  0  0  0  0  0  0
  150.6314  137.4197  154.9814 C   0  0  0  0  0  0  0  0  0  0  0  0
  149.2206  137.4724  154.5158 N   0  3  0  0  0  0  0  0  0  0  0  0
  148.3100  136.6539  155.3510 C   0  0  0  0  0  0  0  0  0  0  0  0
  146.8775  136.6946  154.7895 C   0  0  0  0  0  0  0  0  0  0  0  0
  146.4355  138.0425  154.6850 O   0  0  0  0  0  0  0  0  0  0  0  0
  147.2597  138.8106  153.8171 C   0  0  0  0  0  0  0  0  0  0  0  0
  148.6907  138.8503  154.3766 C   0  0  0  0  0  0  0  0  0  0  0  0
  151.3020  139.0921  156.6806 N   0  0  0  0  0  0  0  0  0  0  0  0
  150.5526  140.1985  156.8077 C   0  0  0  0  0  0  0  0  0  0  0  0
  149.3225  140.1855  156.8504 O   0  0  0  0  0  0  0  0  0  0  0  0
  151.3145  141.5284  156.8779 C   0  0  0  0  0  0  0  0  0  0  0  0
  151.8785  141.7802  158.2158 N   0  0  0  0  0  0  0  0  0  0  0  0
  151.4448  142.9370  158.8873 C   0  0  0  0  0  0  0  0  0  0  0  0
  151.9063  143.2616  160.1024 C   0  0  0  0  0  0  0  0  0  0  0  0
  152.8748  142.3894  160.7208 C   0  0  0  0  0  0  0  0  0  0  0  0
  153.3144  141.2714  160.0983 C   0  0  0  0  0  0  0  0  0  0  0  0
  154.3390  140.3373  160.7383 C   0  0  0  0  0  0  0  0  0  0  0  0
  153.8872  139.0828  160.7610 F   0  0  0  0  0  0  0  0  0  0  0  0
  155.4790  140.3559  160.0467 F   0  0  0  0  0  0  0  0  0  0  0  0
  154.6170  140.6924  161.9935 F   0  0  0  0  0  0  0  0  0  0  0  0
  152.7943  140.9197  158.7615 C   0  0  0  0  0  0  0  0  0  0  0  0
  153.1640  139.9131  158.1532 O   0  0  0  0  0  0  0  0  0  0  0  0
  151.3804  135.7137  157.0598 H   0  0  0  0  0  0  0  0  0  0  0  0
  151.8260  136.9417  158.2376 H   0  0  0  0  0  0  0  0  0  0  0  0
  152.7466  136.7802  156.7440 H   0  0  0  0  0  0  0  0  0  0  0  0
  149.8269  137.6263  156.9734 H   0  0  0  0  0  0  0  0  0  0  0  0
  151.2070  138.1570  154.4196 H   0  0  0  0  0  0  0  0  0  0  0  0
  151.0644  136.4478  154.7395 H   0  0  0  0  0  0  0  0  0  0  0  0
  148.6605  135.6215  155.3810 H   0  0  0  0  0  0  0  0  0  0  0  0
  148.3206  137.0272  156.3763 H   0  0  0  0  0  0  0  0  0  0  0  0
  146.8250  136.2071  153.8160 H   0  0  0  0  0  0  0  0  0  0  0  0
  146.2006  136.1522  155.4496 H   0  0  0  0  0  0  0  0  0  0  0  0
  147.2467  138.3907  152.8099 H   0  0  0  0  0  0  0  0  0  0  0  0
  146.8548  139.8201  153.7471 H   0  0  0  0  0  0  0  0  0  0  0  0
  148.6989  139.3480  155.3476 H   0  0  0  0  0  0  0  0  0  0  0  0
  149.3214  139.4401  153.7132 H   0  0  0  0  0  0  0  0  0  0  0  0
  152.3058  139.2052  156.6753 H   0  0  0  0  0  0  0  0  0  0  0  0
  152.0945  141.5118  156.1158 H   0  0  0  0  0  0  0  0  0  0  0  0
  150.6556  142.3533  156.5988 H   0  0  0  0  0  0  0  0  0  0  0  0
  150.7245  143.5410  158.3548 H   0  0  0  0  0  0  0  0  0  0  0  0
  151.5653  144.1553  160.6043 H   0  0  0  0  0  0  0  0  0  0  0  0
  153.2491  142.6509  161.6993 H   0  0  0  0  0  0  0  0  0  0  0  0
  149.2076  137.0574  153.5946 H   0  0  0  0  0  0  0  0  0  0  0  0
  1  2  1  0  0  0  0
  1 25  1  0  0  0  0
  1 26  1  0  0  0  0
  1 27  1  0  0  0  0
  2  3  1  0  0  0  0
  2 10  1  0  0  0  0
  2 28  1  0  0  0  0
  3  4  1  0  0  0  0
  3 29  1  0  0  0  0
  3 30  1  0  0  0  0
  4  9  1  0  0  0  0
  4  5  1  0  0  0  0
  4 45  1  0  0  0  0
  5  6  1  0  0  0  0
  5 31  1  0  0  0  0
  5 32  1  0  0  0  0
  6  7  1  0  0  0  0
  6 33  1  0  0  0  0
  6 34  1  0  0  0  0
  7  8  1  0  0  0  0
  8  9  1  0  0  0  0
  8 35  1  0  0  0  0
  8 36  1  0  0  0  0
  9 37  1  0  0  0  0
  9 38  1  0  0  0  0
 10 11  1  0  0  0  0
 10 39  1  0  0  0  0
 11 12  2  0  0  0  0
 11 13  1  0  0  0  0
 13 14  1  0  0  0  0
 13 40  1  0  0  0  0
 13 41  1  0  0  0  0
 14 23  1  0  0  0  0
 14 15  1  0  0  0  0
 15 16  2  0  0  0  0
 15 42  1  0  0  0  0
 16 17  1  0  0  0  0
 16 43  1  0  0  0  0
 17 18  2  0  0  0  0
 17 44  1  0  0  0  0
 18 19  1  0  0  0  0
 18 23  1  0  0  0  0
 19 20  1  0  0  0  0
 19 21  1  0  0  0  0
 19 22  1  0  0  0  0
 23 24  2  0  0  0  0
M  CHG  1   4   1
M  END
> <s_m_source_file>
AV-unprocessed.smi

> <i_m_source_file_index>
821

> <i_lp_mmshare_version>
43012

> <i_f3d_flags>
0

> <s_epik_input>
W0NIMl0xW0NIMl1PW0NIMl1bQ0gyXU4xW0NIMl1bQ0BASF0oW0NIM10pW05IXUMoPU8pW0NIMl1uMltjSF1bY0hdW2NIXWMoQyhGKShGKUYpYzI9Tw==

> <s_epik_cmdline>
J2VwaWtfcHl0aG9uJywgJy1waCcsICc3LjAnLCAnLXRuJywgJzgnLCAnLW1hJywgJzIwMCcsICctbWV0YWxfYmluZGluZycsICctaW1hZScsICc8aW5maWxlLm1hZT4nLCAnLW9tYWUnLCAnPG91dGZpbGUubWFlPic=

> <r_lp_tautomer_probability>
1

> <r_epik_Ionization_Penalty>
0.656654

> <r_epik_Ionization_Penalty_Charging>
0.656653

> <r_epik_Ionization_Penalty_Neutral>
9.12373e-08

> <r_epik_State_Penalty>
0.675641

> <r_epik_Charging_Adjusted_Penalty>
1.33229

> <i_epik_Tot_Q>
1

> <i_epik_Tot_abs_Q>
1

> <r_epik_Metal_State_Penalty>
0.675695

> <b_epik_Metal_Only>
0

> <s_lp_Force_Field>
OPLS_2005

> <r_lp_Energy>
29.4747

> <b_lp_Chiralities_Consistent>
1

> <s_lp_Variant>
AV-unprocessed.smi:821-3

> <Gold.Version>
5.8.1

> <Gold.Id.Protein>
6NUR|6NUR_protein|mol2

> <Gold.PLP.Fitness>
43.5283

> <Gold.PLP.PLP>
-37.2458

> <Gold.PLP.part.hbond>
-2.0000

> <Gold.PLP.part.metal>
0.0000

> <Gold.PLP.part.buried>
-3.4555

> <Gold.PLP.part.nonpolar>
-31.6892

> <Gold.PLP.part.repulsive>
0.2547

> <Gold.PLP.ligand.clash>
0.1829

> <Gold.PLP.ligand.torsion>
1.4555

> <Gold.PLP.Chemscore.Hbond>
3.0000

> <Gold.PLP.Chemscore.CHOScore>
0.0000

> <Gold.PLP.Chemscore.Metal>
0.0000

> <Gold.Chemscore.Hbonds>
donor molecule, donor type, donor heavy atom, donor atom, acceptor molecule, acceptor atom, score
      L1  H     4    45       P1  7948  2.00
      P1  H  7997  8010       L1    24  1.00

> <Gold.PLP.Chemscore.Internal.Correction>
0.3763

> <Gold.Rescore>
     Score         DG    S(hbond)    S(metal)    S(lipo)     H(rot)  DE(clash)    DE(int)     intcor
     10.16     -16.44       1.97        0.00      85.01       2.17       0.07       6.21       ----

> <Gold.Chemscore.Fitness>
10.1585

> <Gold.Chemscore.DG>
-16.4412

> <Gold.Chemscore.ZeroCoef>
-5.4800

> <Gold.Chemscore.Hbond>
1.9685

> <Gold.Chemscore.Metal>
0.0000

> <Gold.Chemscore.Lipo>
85.0060

> <Gold.Chemscore.Internal_Hbond>
0.0000

> <Gold.Chemscore.DEClash>
0.0748

> <Gold.Chemscore.DEInternal>
6.2080

> <Gold.Chemscore.Rot>
2.1716

> <Gold.Chemscore.Internal.Correction>
   9.000000E+99

> <Gold.Chemscore.Hbonds>
donor molecule, donor type, donor heavy atom, donor atom, acceptor molecule, acceptor atom, score
      L1  H     4    45       P1  7948  0.99
      P1  H  7997  8010       L1    24  0.95

> <Gold.Chemscore.Hbond.Weighted>
-6.5747

> <Gold.Chemscore.Metal.Weighted>
-0.0000

> <Gold.Chemscore.Lipo.Weighted>
-9.9457

> <Gold.Chemscore.Internal_Hbond.Weighted>
0.0000

> <Gold.Chemscore.DEClash.Weighted>
0.0748

> <Gold.Chemscore.DEInternal.Weighted>
6.2080

> <Gold.Chemscore.Rot.Weighted>
5.5592

> <Gold.Chemscore.Internal.Correction.Weighted>
   9.000000E+99

> <Gold.Protein.RotatedTorsions>
[ 6907 6896 6895 6894 ] final -129.84 input  -60.11 | X-H torsion
[ 7974 7965 7964 7962 ] final -136.93 input  175.53 | X-H torsion
[ 8008 7997 7996 7995 ] final   42.54 input   59.86 | X-H torsion
[ 10167 10162 10161 10158 ] final   17.93 input  -65.29 | X-H torsion
[ 10718 10713 10712 10709 ] final   81.13 input   66.30 | X-H torsion
[ 10763 10752 10751 10750 ] final   39.06 input  -60.55 | X-H torsion
[ 11005 11000 10999 10996 ] final  158.56 input  -57.11 | X-H torsion

> <Gold.Protein.ActiveResidues>
 VAL166  LYS551  ARG553  GLY616  TRP617  ASP618  TYR619  PRO620  LYS621  CYS622 
 ASP623  PHE694  ASN695  SER759  ASP760  ASP761  ALA762  ILE779  LEU786  VAL792 
 PHE793  MET794  SER795  GLU796  ALA797  LYS798  CYS799  TRP800  GLU811  SER814 

> <Gold.Protein.RotatedAtoms>
  150.9332  133.6743  159.2806 H   0  0  0  0  0  0  0  0  0  0  0  0  # atno 6907 bound_to 6896
  151.4158  135.0990  159.9608 H   0  0  0  0  0  0  0  0  0  0  0  0  # atno 6908 bound_to 6896
  152.5035  133.8794  159.7394 H   0  0  0  0  0  0  0  0  0  0  0  0  # atno 6909 bound_to 6896
  144.8884  140.6608  143.5161 H   0  0  0  0  0  0  0  0  0  0  0  0  # atno 7974 bound_to 7965
  155.2879  140.3377  155.4254 H   0  0  0  0  0  0  0  0  0  0  0  0  # atno 8008 bound_to 7997
  156.2060  140.1751  156.7840 H   0  0  0  0  0  0  0  0  0  0  0  0  # atno 8009 bound_to 7997
  154.5621  140.0685  156.8819 H   0  0  0  0  0  0  0  0  0  0  0  0  # atno 8010 bound_to 7997
  140.5690  143.9196  150.6698 H   0  0  0  0  0  0  0  0  0  0  0  0  # atno 10167 bound_to 10162
  157.6825  130.9990  150.2181 H   0  0  0  0  0  0  0  0  0  0  0  0  # atno 10718 bound_to 10713
  152.9980  135.6231  154.2404 H   0  0  0  0  0  0  0  0  0  0  0  0  # atno 10763 bound_to 10752
  154.2145  135.2798  155.2948 H   0  0  0  0  0  0  0  0  0  0  0  0  # atno 10764 bound_to 10752
  154.5579  135.5714  153.7039 H   0  0  0  0  0  0  0  0  0  0  0  0  # atno 10765 bound_to 10752
  140.1877  134.8430  157.2876 H   0  0  0  0  0  0  0  0  0  0  0  0  # atno 11005 bound_to 11000
  145.3826  139.1633  143.4272 LP  0  0  0  0  0  0  0  0  0  0  0  0  # atno 17320 bound_to 7965
  146.3039  140.3908  142.8694 LP  0  0  0  0  0  0  0  0  0  0  0  0  # atno 17321 bound_to 7965
  140.2667  143.3485  152.1275 LP  0  0  0  0  0  0  0  0  0  0  0  0  # atno 17342 bound_to 10162
  139.5108  144.6889  151.5812 LP  0  0  0  0  0  0  0  0  0  0  0  0  # atno 17343 bound_to 10162
  156.2838  130.3737  149.7908 LP  0  0  0  0  0  0  0  0  0  0  0  0  # atno 17370 bound_to 10713
  156.5589  130.8374  151.3322 LP  0  0  0  0  0  0  0  0  0  0  0  0  # atno 17371 bound_to 10713
  140.2195  134.4040  155.7573 LP  0  0  0  0  0  0  0  0  0  0  0  0  # atno 17394 bound_to 11000
  141.2225  133.7159  156.8467 LP  0  0  0  0  0  0  0  0  0  0  0  0  # atno 17395 bound_to 11000

$$$$
