AV-unprocessed.smi:2025|AV-procd|sdf|8197|dock8
  -GOLD-   2272010453D 1   1.00000     0.00000
 Structure written by MMmdl.
 39 40  0  0  0  0  0  0  0  0  1 V2000
  153.2996  140.1977  159.5876 C   0  0  0  0  0  0  0  0  0  0  0  0
  152.1174  141.1064  159.2170 C   0  0  2  0  0  0  0  0  0  0  0  0
  151.9166  141.0413  157.7710 N   0  0  0  0  0  0  0  0  0  0  0  0
  151.8999  139.9202  157.0335 C   0  0  0  0  0  0  0  0  0  0  0  0
  152.0515  138.7939  157.5086 O   0  0  0  0  0  0  0  0  0  0  0  0
  151.6459  140.1078  155.5318 C   0  0  0  0  0  0  0  0  0  0  0  0
  150.3915  139.4906  155.0814 N   0  0  0  0  0  0  0  0  0  0  0  0
  150.1440  138.1597  155.3655 C   0  0  0  0  0  0  0  0  0  0  0  0
  149.0263  137.5099  154.9747 C   0  0  0  0  0  0  0  0  0  0  0  0
  147.9910  138.1977  154.2137 C   0  0  0  0  0  0  0  0  0  0  0  0
  146.9574  137.6504  153.8265 O   0  0  0  0  0  0  0  0  0  0  0  0
  148.2638  139.5581  153.9431 N   0  0  0  0  0  0  0  0  0  0  0  0
  147.2602  140.2788  153.1879 C   0  0  0  0  0  0  0  0  0  0  0  0
  149.4414  140.2313  154.3448 C   0  0  0  0  0  0  0  0  0  0  0  0
  149.6527  141.4151  154.0708 O   0  0  0  0  0  0  0  0  0  0  0  0
  152.3413  142.5702  159.6521 C   0  0  2  0  0  0  0  0  0  0  0  0
  152.3538  142.7879  161.1661 C   0  0  0  0  0  0  0  0  0  0  0  0
  151.9836  144.2493  161.2712 C   0  0  0  0  0  0  0  0  0  0  0  0
  150.9477  144.3885  160.1607 C   0  0  0  0  0  0  0  0  0  0  0  0
  151.2838  143.4066  159.1842 O   0  0  0  0  0  0  0  0  0  0  0  0
  153.4545  140.1659  160.6661 H   0  0  0  0  0  0  0  0  0  0  0  0
  154.2262  140.5428  159.1277 H   0  0  0  0  0  0  0  0  0  0  0  0
  153.1245  139.1735  159.2564 H   0  0  0  0  0  0  0  0  0  0  0  0
  151.2335  140.7205  159.7282 H   0  0  0  0  0  0  0  0  0  0  0  0
  151.7737  141.9197  157.2944 H   0  0  0  0  0  0  0  0  0  0  0  0
  151.6289  141.1783  155.3227 H   0  0  0  0  0  0  0  0  0  0  0  0
  152.4868  139.7105  154.9604 H   0  0  0  0  0  0  0  0  0  0  0  0
  150.8849  137.6066  155.9245 H   0  0  0  0  0  0  0  0  0  0  0  0
  148.8975  136.4674  155.2267 H   0  0  0  0  0  0  0  0  0  0  0  0
  147.4849  141.3441  153.1460 H   0  0  0  0  0  0  0  0  0  0  0  0
  146.3028  140.1375  153.6926 H   0  0  0  0  0  0  0  0  0  0  0  0
  147.2488  139.8519  152.1838 H   0  0  0  0  0  0  0  0  0  0  0  0
  153.2730  142.9513  159.2303 H   0  0  0  0  0  0  0  0  0  0  0  0
  151.5916  142.1753  161.6501 H   0  0  0  0  0  0  0  0  0  0  0  0
  153.3177  142.5601  161.6218 H   0  0  0  0  0  0  0  0  0  0  0  0
  151.5974  144.5268  162.2523 H   0  0  0  0  0  0  0  0  0  0  0  0
  152.8532  144.8716  161.0556 H   0  0  0  0  0  0  0  0  0  0  0  0
  149.9488  144.1696  160.5396 H   0  0  0  0  0  0  0  0  0  0  0  0
  150.9345  145.3899  159.7299 H   0  0  0  0  0  0  0  0  0  0  0  0
  1  2  1  0  0  0  0
  1 21  1  0  0  0  0
  1 22  1  0  0  0  0
  1 23  1  0  0  0  0
  2  3  1  0  0  0  0
  2 16  1  0  0  0  0
  2 24  1  0  0  0  0
  3  4  1  0  0  0  0
  3 25  1  0  0  0  0
  4  5  2  0  0  0  0
  4  6  1  0  0  0  0
  6  7  1  0  0  0  0
  6 26  1  0  0  0  0
  6 27  1  0  0  0  0
  7 14  1  0  0  0  0
  7  8  1  0  0  0  0
  8  9  2  0  0  0  0
  8 28  1  0  0  0  0
  9 10  1  0  0  0  0
  9 29  1  0  0  0  0
 10 11  2  0  0  0  0
 10 12  1  0  0  0  0
 12 13  1  0  0  0  0
 12 14  1  0  0  0  0
 13 30  1  0  0  0  0
 13 31  1  0  0  0  0
 13 32  1  0  0  0  0
 14 15  2  0  0  0  0
 16 20  1  0  0  0  0
 16 17  1  0  0  0  0
 16 33  1  0  0  0  0
 17 18  1  0  0  0  0
 17 34  1  0  0  0  0
 17 35  1  0  0  0  0
 18 19  1  0  0  0  0
 18 36  1  0  0  0  0
 18 37  1  0  0  0  0
 19 20  1  0  0  0  0
 19 38  1  0  0  0  0
 19 39  1  0  0  0  0
M  END
> <s_m_source_file>
AV-unprocessed.smi

> <i_m_source_file_index>
2025

> <i_lp_mmshare_version>
43012

> <i_f3d_flags>
0

> <s_epik_input>
TzFbQ0gyXVtDSDJdW0NIMl1bQ0BIXTFbQ0BIXShbQ0gzXSlbTkhdQyg9TylbQ0gyXW4yW2NIXVtjSF1jKD1PKW4oW0NIM10pYzI9Tw==

> <s_epik_cmdline>
J2VwaWtfcHl0aG9uJywgJy1waCcsICc3LjAnLCAnLXRuJywgJzgnLCAnLW1hJywgJzIwMCcsICctbWV0YWxfYmluZGluZycsICctaW1hZScsICc8aW5maWxlLm1hZT4nLCAnLW9tYWUnLCAnPG91dGZpbGUubWFlPic=

> <r_lp_tautomer_probability>
1

> <r_epik_Ionization_Penalty>
3.54787e-08

> <r_epik_Ionization_Penalty_Charging>
1.24654e-08

> <r_epik_Ionization_Penalty_Neutral>
2.30132e-08

> <r_epik_State_Penalty>
-0

> <r_epik_Charging_Adjusted_Penalty>
1.24654e-08

> <i_epik_Tot_Q>
0

> <i_epik_Tot_abs_Q>
0

> <r_epik_Metal_State_Penalty>
-0

> <b_epik_Metal_Only>
0

> <s_lp_Force_Field>
OPLS_2005

> <r_lp_Energy>
25.7594

> <b_lp_Chiralities_Consistent>
1

> <s_lp_Variant>
AV-unprocessed.smi:2025-1

> <Gold.Version>
5.8.1

> <Gold.Id.Protein>
6NUR|6NUR_protein|mol2

> <Gold.PLP.Fitness>
37.7385

> <Gold.PLP.PLP>
-35.6787

> <Gold.PLP.part.hbond>
-2.0000

> <Gold.PLP.part.metal>
0.0000

> <Gold.PLP.part.buried>
-2.8189

> <Gold.PLP.part.nonpolar>
-30.3633

> <Gold.PLP.part.repulsive>
0.4489

> <Gold.PLP.ligand.clash>
0.0000

> <Gold.PLP.ligand.torsion>
0.2593

> <Gold.PLP.Chemscore.Hbond>
0.8540

> <Gold.PLP.Chemscore.CHOScore>
0.0000

> <Gold.PLP.Chemscore.Metal>
0.0000

> <Gold.Chemscore.Hbonds>
donor molecule, donor type, donor heavy atom, donor atom, acceptor molecule, acceptor atom, score
      P1  H  7989  7998       L1    15  0.11
      P1  H  8011  8017       L1    15  0.67

> <Gold.PLP.Chemscore.Internal.Correction>
0.0166

> <Gold.Rescore>
     Score         DG    S(hbond)    S(metal)    S(lipo)     H(rot)  DE(clash)    DE(int)     intcor
      9.89     -12.97       0.88        0.00      78.61       1.82       0.47       2.60       ----

> <Gold.Chemscore.Fitness>
9.8884

> <Gold.Chemscore.DG>
-12.9660

> <Gold.Chemscore.ZeroCoef>
-5.4800

> <Gold.Chemscore.Hbond>
0.8848

> <Gold.Chemscore.Metal>
0.0000

> <Gold.Chemscore.Lipo>
78.6078

> <Gold.Chemscore.Internal_Hbond>
0.0000

> <Gold.Chemscore.DEClash>
0.4749

> <Gold.Chemscore.DEInternal>
2.6027

> <Gold.Chemscore.Rot>
1.8228

> <Gold.Chemscore.Internal.Correction>
   9.000000E+99

> <Gold.Chemscore.Hbonds>
donor molecule, donor type, donor heavy atom, donor atom, acceptor molecule, acceptor atom, score
      P1  H  7989  7998       L1    15  0.01
      P1  H  8011  8017       L1    15  0.65

> <Gold.Chemscore.Hbond.Weighted>
-2.9554

> <Gold.Chemscore.Metal.Weighted>
-0.0000

> <Gold.Chemscore.Lipo.Weighted>
-9.1971

> <Gold.Chemscore.Internal_Hbond.Weighted>
0.0000

> <Gold.Chemscore.DEClash.Weighted>
0.4749

> <Gold.Chemscore.DEInternal.Weighted>
2.6027

> <Gold.Chemscore.Rot.Weighted>
4.6665

> <Gold.Chemscore.Internal.Correction.Weighted>
   9.000000E+99

> <Gold.Protein.RotatedTorsions>
[ 6907 6896 6895 6894 ] final    3.26 input  -60.11 | X-H torsion
[ 7974 7965 7964 7962 ] final  -37.85 input  175.53 | X-H torsion
[ 8008 7997 7996 7995 ] final   80.56 input   59.86 | X-H torsion
[ 10167 10162 10161 10158 ] final  169.34 input  -65.29 | X-H torsion
[ 10718 10713 10712 10709 ] final -114.68 input   66.30 | X-H torsion
[ 10763 10752 10751 10750 ] final -113.58 input  -60.55 | X-H torsion
[ 11005 11000 10999 10996 ] final   94.11 input  -57.11 | X-H torsion

> <Gold.Protein.ActiveResidues>
 VAL166  LYS551  ARG553  GLY616  TRP617  ASP618  TYR619  PRO620  LYS621  CYS622 
 ASP623  PHE694  ASN695  SER759  ASP760  ASP761  ALA762  ILE779  LEU786  VAL792 
 PHE793  MET794  SER795  GLU796  ALA797  LYS798  CYS799  TRP800  GLU811  SER814 

> <Gold.Protein.RotatedAtoms>
  151.6222  135.1031  160.0103 H   0  0  0  0  0  0  0  0  0  0  0  0  # atno 6907 bound_to 6896
  152.4152  133.7022  159.6441 H   0  0  0  0  0  0  0  0  0  0  0  0  # atno 6908 bound_to 6896
  150.8040  133.8471  159.3236 H   0  0  0  0  0  0  0  0  0  0  0  0  # atno 6909 bound_to 6896
  146.0539  140.6444  142.9029 H   0  0  0  0  0  0  0  0  0  0  0  0  # atno 7974 bound_to 7965
  155.8851  140.3442  155.5915 H   0  0  0  0  0  0  0  0  0  0  0  0  # atno 8008 bound_to 7997
  155.7675  140.0841  157.2143 H   0  0  0  0  0  0  0  0  0  0  0  0  # atno 8009 bound_to 7997
  154.4028  140.1524  156.2891 H   0  0  0  0  0  0  0  0  0  0  0  0  # atno 8010 bound_to 7997
  139.4990  144.3717  151.9718 H   0  0  0  0  0  0  0  0  0  0  0  0  # atno 10167 bound_to 10162
  156.0846  130.6040  150.8806 H   0  0  0  0  0  0  0  0  0  0  0  0  # atno 10718 bound_to 10713
  154.8402  135.4449  154.1371 H   0  0  0  0  0  0  0  0  0  0  0  0  # atno 10763 bound_to 10752
  153.2566  135.6932  153.7628 H   0  0  0  0  0  0  0  0  0  0  0  0  # atno 10764 bound_to 10752
  153.6921  135.3385  155.3180 H   0  0  0  0  0  0  0  0  0  0  0  0  # atno 10765 bound_to 10752
  139.8802  134.8827  156.3817 H   0  0  0  0  0  0  0  0  0  0  0  0  # atno 11005 bound_to 11000
  144.7137  140.4133  143.7061 LP  0  0  0  0  0  0  0  0  0  0  0  0  # atno 17320 bound_to 7965
  145.6678  139.1593  143.2772 LP  0  0  0  0  0  0  0  0  0  0  0  0  # atno 17321 bound_to 7965
  140.3153  144.3491  150.6023 LP  0  0  0  0  0  0  0  0  0  0  0  0  # atno 17342 bound_to 10162
  140.5766  143.2176  151.7504 LP  0  0  0  0  0  0  0  0  0  0  0  0  # atno 17343 bound_to 10162
  157.5975  131.0942  150.9016 LP  0  0  0  0  0  0  0  0  0  0  0  0  # atno 17370 bound_to 10713
  156.9180  130.5304  149.5279 LP  0  0  0  0  0  0  0  0  0  0  0  0  # atno 17371 bound_to 10713
  140.9394  133.7525  156.0127 LP  0  0  0  0  0  0  0  0  0  0  0  0  # atno 17394 bound_to 11000
  140.8237  134.3259  157.5373 LP  0  0  0  0  0  0  0  0  0  0  0  0  # atno 17395 bound_to 11000

$$$$
