AV-unprocessed.smi:107|AV-procd|sdf|1019|dock10
  -GOLD-   2262018 23D 1   1.00000     0.00000
 Structure written by MMmdl.
 31 32  0  0  0  0  0  0  0  0  1 V2000
  153.7992  142.8527  163.9045 C   0  0  0  0  0  0  0  0  0  0  0  0
  153.7019  142.2963  162.4937 C   0  0  0  0  0  0  0  0  0  0  0  0
  152.9339  142.8738  161.5345 C   0  0  0  0  0  0  0  0  0  0  0  0
  152.8211  142.3933  160.2358 N   0  0  0  0  0  0  0  0  0  0  0  0
  151.8673  143.0269  159.2429 C   0  0  2  0  0  0  0  0  0  0  0  0
  152.3292  144.3948  158.7057 C   0  0  0  0  0  0  0  0  0  0  0  0
  151.2149  145.3365  159.1417 C   0  0  2  0  0  0  0  0  0  0  0  0
  151.5888  146.0674  160.2940 O   0  0  0  0  0  0  0  0  0  0  0  0
  150.0352  144.3867  159.4050 C   0  0  2  0  0  0  0  0  0  0  0  0
  148.9454  144.8763  160.3746 C   0  0  0  0  0  0  0  0  0  0  0  0
  147.9714  143.8726  160.5661 O   0  0  0  0  0  0  0  0  0  0  0  0
  150.6451  143.1985  159.8873 O   0  0  0  0  0  0  0  0  0  0  0  0
  153.4503  141.1718  159.9066 C   0  0  0  0  0  0  0  0  0  0  0  0
  153.3254  140.6216  158.8132 O   0  0  0  0  0  0  0  0  0  0  0  0
  154.2519  140.5860  160.8849 N   0  0  0  0  0  0  0  0  0  0  0  0
  154.4473  141.0759  162.1776 C   0  0  0  0  0  0  0  0  0  0  0  0
  155.1922  140.4746  162.9498 O   0  0  0  0  0  0  0  0  0  0  0  0
  154.7218  139.7260  160.6422 H   0  0  0  0  0  0  0  0  0  0  0  0
  153.2028  143.7574  164.0251 H   0  0  0  0  0  0  0  0  0  0  0  0
  154.8337  143.0993  164.1465 H   0  0  0  0  0  0  0  0  0  0  0  0
  153.4431  142.1191  164.6286 H   0  0  0  0  0  0  0  0  0  0  0  0
  152.3694  143.7494  161.8129 H   0  0  0  0  0  0  0  0  0  0  0  0
  151.7480  142.3278  158.4141 H   0  0  0  0  0  0  0  0  0  0  0  0
  153.3243  144.6827  159.0448 H   0  0  0  0  0  0  0  0  0  0  0  0
  152.3619  144.3340  157.6170 H   0  0  0  0  0  0  0  0  0  0  0  0
  150.9731  146.0549  158.3580 H   0  0  0  0  0  0  0  0  0  0  0  0
  152.5082  146.2769  160.2289 H   0  0  0  0  0  0  0  0  0  0  0  0
  149.5737  144.1340  158.4483 H   0  0  0  0  0  0  0  0  0  0  0  0
  149.3897  145.1113  161.3420 H   0  0  0  0  0  0  0  0  0  0  0  0
  148.4692  145.7890  160.0156 H   0  0  0  0  0  0  0  0  0  0  0  0
  147.3877  143.8752  159.8225 H   0  0  0  0  0  0  0  0  0  0  0  0
  1  2  1  0  0  0  0
  1 19  1  0  0  0  0
  1 20  1  0  0  0  0
  1 21  1  0  0  0  0
  2 16  1  0  0  0  0
  2  3  2  0  0  0  0
  3  4  1  0  0  0  0
  3 22  1  0  0  0  0
  4  5  1  0  0  0  0
  4 13  1  0  0  0  0
  5 12  1  0  0  0  0
  5  6  1  0  0  0  0
  5 23  1  0  0  0  0
  6  7  1  0  0  0  0
  6 24  1  0  0  0  0
  6 25  1  0  0  0  0
  7  8  1  0  0  0  0
  7  9  1  0  0  0  0
  7 26  1  0  0  0  0
  8 27  1  0  0  0  0
  9 10  1  0  0  0  0
  9 12  1  0  0  0  0
  9 28  1  0  0  0  0
 10 11  1  0  0  0  0
 10 29  1  0  0  0  0
 10 30  1  0  0  0  0
 11 31  1  0  0  0  0
 13 14  2  0  0  0  0
 13 15  1  0  0  0  0
 15 18  1  0  0  0  0
 15 16  1  0  0  0  0
 16 17  2  0  0  0  0
M  END
> <s_m_source_file>
AV-unprocessed.smi

> <i_m_source_file_index>
107

> <i_lp_mmshare_version>
43012

> <i_f3d_flags>
0

> <s_epik_input>
Tz1jMVtuSF1jKD1PKW4oW2NIXWMxW0NIM10pW0NAQEhdMltDSDJdW0NAQEhdKFtPSF0pW0NASF0oTzIpW0NIMl1bT0hd

> <s_epik_cmdline>
J2VwaWtfcHl0aG9uJywgJy1waCcsICc3LjAnLCAnLXRuJywgJzgnLCAnLW1hJywgJzIwMCcsICctbWV0YWxfYmluZGluZycsICctaW1hZScsICc8aW5maWxlLm1hZT4nLCAnLW9tYWUnLCAnPG91dGZpbGUubWFlPic=

> <r_lp_tautomer_probability>
0.999537

> <r_epik_Ionization_Penalty>
0.00121888

> <r_epik_Ionization_Penalty_Charging>
0.00121876

> <r_epik_Ionization_Penalty_Neutral>
1.19946e-07

> <r_epik_State_Penalty>
0.000805124

> <r_epik_Charging_Adjusted_Penalty>
0.00202389

> <i_epik_Tot_Q>
0

> <i_epik_Tot_abs_Q>
0

> <r_epik_Metal_State_Penalty>
0.662472

> <b_epik_Metal_Only>
0

> <s_epik_Chemistry_Notes>
This compound contains an acetal/aminal-like group ( X-CH(R)-Y where X, Y are N, S, or O) that may be acid/base labile, releasing an aldehyde.

> <s_lp_Force_Field>
OPLS_2005

> <r_lp_Energy>
26.1821

> <b_lp_Chiralities_Consistent>
1

> <s_lp_Variant>
AV-unprocessed.smi:107-7

> <Gold.Version>
5.8.1

> <Gold.Id.Protein>
6NUR|6NUR_protein|mol2

> <Gold.PLP.Fitness>
47.4455

> <Gold.PLP.PLP>
-43.5973

> <Gold.PLP.part.hbond>
-5.6046

> <Gold.PLP.part.metal>
0.0000

> <Gold.PLP.part.buried>
-3.7275

> <Gold.PLP.part.nonpolar>
-34.1087

> <Gold.PLP.part.repulsive>
0.0770

> <Gold.PLP.ligand.clash>
0.0000

> <Gold.PLP.ligand.torsion>
0.1759

> <Gold.PLP.Chemscore.Hbond>
1.3666

> <Gold.PLP.Chemscore.CHOScore>
0.0000

> <Gold.PLP.Chemscore.Metal>
0.0000

> <Gold.Chemscore.Hbonds>
donor molecule, donor type, donor heavy atom, donor atom, acceptor molecule, acceptor atom, score
      P1  H  6933  6944       L1    11  1.00
      P1  H  7997  8008       L1    14  0.35

> <Gold.PLP.Chemscore.Internal.Correction>
0.1003

> <Gold.Rescore>
     Score         DG    S(hbond)    S(metal)    S(lipo)     H(rot)  DE(clash)    DE(int)     intcor
     12.09     -12.73       1.68        0.00      73.70       2.73       0.45       0.19       ----

> <Gold.Chemscore.Fitness>
12.0919

> <Gold.Chemscore.DG>
-12.7324

> <Gold.Chemscore.ZeroCoef>
-5.4800

> <Gold.Chemscore.Hbond>
1.6785

> <Gold.Chemscore.Metal>
0.0000

> <Gold.Chemscore.Lipo>
73.7014

> <Gold.Chemscore.Internal_Hbond>
0.0000

> <Gold.Chemscore.DEClash>
0.4490

> <Gold.Chemscore.DEInternal>
0.1915

> <Gold.Chemscore.Rot>
2.7253

> <Gold.Chemscore.Internal.Correction>
   9.000000E+99

> <Gold.Chemscore.Hbonds>
donor molecule, donor type, donor heavy atom, donor atom, acceptor molecule, acceptor atom, score
      P1  H  6933  6944       L1    11  0.92
      P1  H  7997  8008       L1    14  0.35

> <Gold.Chemscore.Hbond.Weighted>
-5.6062

> <Gold.Chemscore.Metal.Weighted>
-0.0000

> <Gold.Chemscore.Lipo.Weighted>
-8.6231

> <Gold.Chemscore.Internal_Hbond.Weighted>
0.0000

> <Gold.Chemscore.DEClash.Weighted>
0.4490

> <Gold.Chemscore.DEInternal.Weighted>
0.1915

> <Gold.Chemscore.Rot.Weighted>
6.9769

> <Gold.Chemscore.Internal.Correction.Weighted>
   9.000000E+99

> <Gold.Protein.RotatedTorsions>
[ 6907 6896 6895 6894 ] final -149.41 input  -60.11 | X-H torsion
[ 7974 7965 7964 7962 ] final   60.27 input  175.53 | X-H torsion
[ 8008 7997 7996 7995 ] final  -94.22 input   59.86 | X-H torsion
[ 10167 10162 10161 10158 ] final -140.74 input  -65.29 | X-H torsion
[ 10718 10713 10712 10709 ] final  -96.12 input   66.30 | X-H torsion
[ 10763 10752 10751 10750 ] final  163.61 input  -60.55 | X-H torsion
[ 11005 11000 10999 10996 ] final   91.39 input  -57.11 | X-H torsion

> <Gold.Protein.ActiveResidues>
 VAL166  LYS551  ARG553  GLY616  TRP617  ASP618  TYR619  PRO620  LYS621  CYS622 
 ASP623  PHE694  ASN695  SER759  ASP760  ASP761  ALA762  ILE779  LEU786  VAL792 
 PHE793  MET794  SER795  GLU796  ALA797  LYS798  CYS799  TRP800  GLU811  SER814 

> <Gold.Protein.RotatedAtoms>
  151.1837  133.4709  159.2594 H   0  0  0  0  0  0  0  0  0  0  0  0  # atno 6907 bound_to 6896
  151.1233  135.0091  159.8558 H   0  0  0  0  0  0  0  0  0  0  0  0  # atno 6908 bound_to 6896
  152.5457  134.1747  159.8664 H   0  0  0  0  0  0  0  0  0  0  0  0  # atno 6909 bound_to 6896
  145.8979  139.3559  143.0610 H   0  0  0  0  0  0  0  0  0  0  0  0  # atno 7974 bound_to 7965
  154.7457  140.0491  157.0849 H   0  0  0  0  0  0  0  0  0  0  0  0  # atno 8008 bound_to 7997
  155.0122  140.3137  155.4806 H   0  0  0  0  0  0  0  0  0  0  0  0  # atno 8009 bound_to 7997
  156.2874  140.2182  156.5236 H   0  0  0  0  0  0  0  0  0  0  0  0  # atno 8010 bound_to 7997
  139.8252  143.7520  152.2666 H   0  0  0  0  0  0  0  0  0  0  0  0  # atno 10167 bound_to 10162
  156.0056  130.5138  150.6178 H   0  0  0  0  0  0  0  0  0  0  0  0  # atno 10718 bound_to 10713
  154.2964  135.2760  155.2631 H   0  0  0  0  0  0  0  0  0  0  0  0  # atno 10763 bound_to 10752
  154.5087  135.5788  153.6591 H   0  0  0  0  0  0  0  0  0  0  0  0  # atno 10764 bound_to 10752
  152.9907  135.6176  154.3132 H   0  0  0  0  0  0  0  0  0  0  0  0  # atno 10765 bound_to 10752
  139.8839  134.8671  156.3421 H   0  0  0  0  0  0  0  0  0  0  0  0  # atno 11005 bound_to 11000
  145.8827  140.9353  143.0593 LP  0  0  0  0  0  0  0  0  0  0  0  0  # atno 17320 bound_to 7965
  144.6734  140.0801  143.7469 LP  0  0  0  0  0  0  0  0  0  0  0  0  # atno 17321 bound_to 7965
  139.7711  144.7476  151.0224 LP  0  0  0  0  0  0  0  0  0  0  0  0  # atno 17342 bound_to 10162
  140.7810  143.4644  151.0232 LP  0  0  0  0  0  0  0  0  0  0  0  0  # atno 17343 bound_to 10162
  157.3999  131.0808  151.1318 LP  0  0  0  0  0  0  0  0  0  0  0  0  # atno 17370 bound_to 10713
  157.1983  130.6383  149.5729 LP  0  0  0  0  0  0  0  0  0  0  0  0  # atno 17371 bound_to 10713
  140.9652  133.7363  156.0456 LP  0  0  0  0  0  0  0  0  0  0  0  0  # atno 17394 bound_to 11000
  140.7940  134.3584  157.5457 LP  0  0  0  0  0  0  0  0  0  0  0  0  # atno 17395 bound_to 11000

$$$$
