AV-unprocessed.smi:1161|AV-procd|sdf|4918|dock1
  -GOLD-   22720 3503D 1   1.00000     0.00000
 Structure written by MMmdl.
 46 47  0  0  0  0  0  0  0  0  1 V2000
  146.1216  133.5206  150.7902 C   0  0  0  0  0  0  0  0  0  0  0  0
  146.2002  134.7237  151.7464 C   0  0  0  0  0  0  0  0  0  0  0  0
  145.2536  135.9086  151.4270 C   0  0  2  0  0  0  0  0  0  0  0  0
  143.7910  135.4472  151.2428 C   0  0  0  0  0  0  0  0  0  0  0  0
  145.7096  136.4746  150.2130 O   0  0  0  0  0  0  0  0  0  0  0  0
  145.4174  136.9901  152.5300 C   0  0  0  0  0  0  0  0  0  0  0  0
  146.8035  137.2828  152.8883 N   0  0  0  0  0  0  0  0  0  0  0  0
  147.1964  138.2220  153.7595 C   0  0  0  0  0  0  0  0  0  0  0  0
  146.4169  138.9540  154.3686 O   0  0  0  0  0  0  0  0  0  0  0  0
  148.5358  138.2641  153.8587 N   0  0  0  0  0  0  0  0  0  0  0  0
  149.3235  139.0964  154.6976 C   0  0  0  0  0  0  0  0  0  0  0  0
  150.7351  139.1564  154.6496 C   0  0  0  0  0  0  0  0  0  0  0  0
  151.4095  140.0377  155.5161 C   0  0  0  0  0  0  0  0  0  0  0  0
  150.6600  140.8427  156.4058 C   0  0  0  0  0  0  0  0  0  0  0  0
  151.3193  141.7280  157.2853 N   0  0  0  0  0  0  0  0  0  0  0  0
  151.0138  143.1443  157.1001 C   0  0  0  0  0  0  0  0  0  0  0  0
  152.0063  144.0144  157.8912 C   0  0  0  0  0  0  0  0  0  0  0  0
  152.0103  143.6212  159.2597 O   0  0  0  0  0  0  0  0  0  0  0  0
  152.4215  142.2676  159.4200 C   0  0  0  0  0  0  0  0  0  0  0  0
  151.4378  141.3385  158.6890 C   0  0  0  0  0  0  0  0  0  0  0  0
  149.3058  140.7879  156.4424 N   0  0  0  0  0  0  0  0  0  0  0  0
  148.6631  139.9462  155.6063 C   0  0  0  0  0  0  0  0  0  0  0  0
  146.8659  132.7713  151.0605 H   0  0  0  0  0  0  0  0  0  0  0  0
  146.3145  133.8118  149.7577 H   0  0  0  0  0  0  0  0  0  0  0  0
  145.1477  133.0340  150.8289 H   0  0  0  0  0  0  0  0  0  0  0  0
  146.0024  134.3689  152.7586 H   0  0  0  0  0  0  0  0  0  0  0  0
  147.2306  135.0826  151.7568 H   0  0  0  0  0  0  0  0  0  0  0  0
  143.4027  135.0022  152.1591 H   0  0  0  0  0  0  0  0  0  0  0  0
  143.6957  134.7071  150.4489 H   0  0  0  0  0  0  0  0  0  0  0  0
  143.1322  136.2720  150.9703 H   0  0  0  0  0  0  0  0  0  0  0  0
  145.0791  137.1185  149.9266 H   0  0  0  0  0  0  0  0  0  0  0  0
  145.0088  137.9331  152.1653 H   0  0  0  0  0  0  0  0  0  0  0  0
  144.8329  136.7420  153.4185 H   0  0  0  0  0  0  0  0  0  0  0  0
  147.5145  136.7293  152.4335 H   0  0  0  0  0  0  0  0  0  0  0  0
  149.0510  137.6752  153.2210 H   0  0  0  0  0  0  0  0  0  0  0  0
  151.3091  138.5562  153.9606 H   0  0  0  0  0  0  0  0  0  0  0  0
  152.4884  140.0773  155.4960 H   0  0  0  0  0  0  0  0  0  0  0  0
  151.0494  143.4298  156.0497 H   0  0  0  0  0  0  0  0  0  0  0  0
  149.9965  143.3318  157.4456 H   0  0  0  0  0  0  0  0  0  0  0  0
  153.0117  143.9323  157.4751 H   0  0  0  0  0  0  0  0  0  0  0  0
  151.7199  145.0639  157.8249 H   0  0  0  0  0  0  0  0  0  0  0  0
  153.4361  142.1366  159.0404 H   0  0  0  0  0  0  0  0  0  0  0  0
  152.4459  142.0265  160.4827 H   0  0  0  0  0  0  0  0  0  0  0  0
  150.4563  141.3876  159.1627 H   0  0  0  0  0  0  0  0  0  0  0  0
  151.7876  140.3082  158.7658 H   0  0  0  0  0  0  0  0  0  0  0  0
  147.5849  139.9468  155.6726 H   0  0  0  0  0  0  0  0  0  0  0  0
  1  2  1  0  0  0  0
  1 23  1  0  0  0  0
  1 24  1  0  0  0  0
  1 25  1  0  0  0  0
  2  3  1  0  0  0  0
  2 26  1  0  0  0  0
  2 27  1  0  0  0  0
  3  4  1  0  0  0  0
  3  5  1  0  0  0  0
  3  6  1  0  0  0  0
  4 28  1  0  0  0  0
  4 29  1  0  0  0  0
  4 30  1  0  0  0  0
  5 31  1  0  0  0  0
  6  7  1  0  0  0  0
  6 32  1  0  0  0  0
  6 33  1  0  0  0  0
  7  8  1  0  0  0  0
  7 34  1  0  0  0  0
  8  9  2  0  0  0  0
  8 10  1  0  0  0  0
 10 11  1  0  0  0  0
 10 35  1  0  0  0  0
 11 22  1  0  0  0  0
 11 12  2  0  0  0  0
 12 13  1  0  0  0  0
 12 36  1  0  0  0  0
 13 14  2  0  0  0  0
 13 37  1  0  0  0  0
 14 15  1  0  0  0  0
 14 21  1  0  0  0  0
 15 20  1  0  0  0  0
 15 16  1  0  0  0  0
 16 17  1  0  0  0  0
 16 38  1  0  0  0  0
 16 39  1  0  0  0  0
 17 18  1  0  0  0  0
 17 40  1  0  0  0  0
 17 41  1  0  0  0  0
 18 19  1  0  0  0  0
 19 20  1  0  0  0  0
 19 42  1  0  0  0  0
 19 43  1  0  0  0  0
 20 44  1  0  0  0  0
 20 45  1  0  0  0  0
 21 22  2  0  0  0  0
 22 46  1  0  0  0  0
M  END
> <s_m_source_file>
AV-unprocessed.smi

> <i_m_source_file_index>
1161

> <i_lp_mmshare_version>
43012

> <i_f3d_flags>
0

> <s_epik_input>
W0NIM11bQ0gyXVtDQEBdKFtDSDNdKShbT0hdKVtDSDJdW05IXUMoPU8pW05IXWMxW2NIXVtjSF1jKG5bY0hdMSlOMltDSDJdW0NIMl1PW0NIMl1bQ0gyXTI=

> <s_epik_cmdline>
J2VwaWtfcHl0aG9uJywgJy1waCcsICc3LjAnLCAnLXRuJywgJzgnLCAnLW1hJywgJzIwMCcsICctbWV0YWxfYmluZGluZycsICctaW1hZScsICc8aW5maWxlLm1hZT4nLCAnLW9tYWUnLCAnPG91dGZpbGUubWFlPic=

> <r_lp_tautomer_probability>
1

> <r_epik_Ionization_Penalty>
0.00208949

> <r_epik_Ionization_Penalty_Charging>
0

> <r_epik_Ionization_Penalty_Neutral>
0.00208949

> <r_epik_State_Penalty>
0.00140033

> <r_epik_Charging_Adjusted_Penalty>
0.00140033

> <i_epik_Tot_Q>
0

> <i_epik_Tot_abs_Q>
0

> <r_epik_Metal_State_Penalty>
-0

> <b_epik_Metal_Only>
0

> <s_lp_Force_Field>
OPLS_2005

> <r_lp_Energy>
23.4822

> <b_lp_Chiralities_Consistent>
1

> <s_lp_Variant>
AV-unprocessed.smi:1161-2

> <Gold.Version>
5.8.1

> <Gold.Id.Protein>
6NUR|6NUR_protein|mol2

> <Gold.PLP.Fitness>
45.3265

> <Gold.PLP.PLP>
-36.7447

> <Gold.PLP.part.hbond>
-3.6888

> <Gold.PLP.part.metal>
0.0000

> <Gold.PLP.part.buried>
-3.1169

> <Gold.PLP.part.nonpolar>
-31.2872

> <Gold.PLP.part.repulsive>
0.2264

> <Gold.PLP.ligand.clash>
0.0041

> <Gold.PLP.ligand.torsion>
0.3751

> <Gold.PLP.Chemscore.Hbond>
2.9600

> <Gold.PLP.Chemscore.CHOScore>
0.0000

> <Gold.PLP.Chemscore.Metal>
0.0000

> <Gold.Chemscore.Hbonds>
donor molecule, donor type, donor heavy atom, donor atom, acceptor molecule, acceptor atom, score
      L1  H     5    31       P1 10171  1.00
      L1  H     7    34       P1  7948  1.00
      L1  H    10    35       P1  7948  0.96

> <Gold.PLP.Chemscore.Internal.Correction>
0.4561

> <Gold.Rescore>
     Score         DG    S(hbond)    S(metal)    S(lipo)     H(rot)  DE(clash)    DE(int)     intcor
     18.49     -20.40       2.95        0.00      90.79       2.16       0.10       1.82       ----

> <Gold.Chemscore.Fitness>
18.4914

> <Gold.Chemscore.DG>
-20.4044

> <Gold.Chemscore.ZeroCoef>
-5.4800

> <Gold.Chemscore.Hbond>
2.9460

> <Gold.Chemscore.Metal>
0.0000

> <Gold.Chemscore.Lipo>
90.7921

> <Gold.Chemscore.Internal_Hbond>
0.0000

> <Gold.Chemscore.DEClash>
0.0978

> <Gold.Chemscore.DEInternal>
1.8152

> <Gold.Chemscore.Rot>
2.1633

> <Gold.Chemscore.Internal.Correction>
   9.000000E+99

> <Gold.Chemscore.Hbonds>
donor molecule, donor type, donor heavy atom, donor atom, acceptor molecule, acceptor atom, score
      L1  H     5    31       P1 10171  1.00
      L1  H     7    34       P1  7948  0.99
      L1  H    10    35       P1  7948  0.91

> <Gold.Chemscore.Hbond.Weighted>
-9.8396

> <Gold.Chemscore.Metal.Weighted>
-0.0000

> <Gold.Chemscore.Lipo.Weighted>
-10.6227

> <Gold.Chemscore.Internal_Hbond.Weighted>
0.0000

> <Gold.Chemscore.DEClash.Weighted>
0.0978

> <Gold.Chemscore.DEInternal.Weighted>
1.8152

> <Gold.Chemscore.Rot.Weighted>
5.5379

> <Gold.Chemscore.Internal.Correction.Weighted>
   9.000000E+99

> <Gold.Protein.RotatedTorsions>
[ 6907 6896 6895 6894 ] final -178.48 input  -60.11 | X-H torsion
[ 7974 7965 7964 7962 ] final  -54.85 input  175.53 | X-H torsion
[ 8008 7997 7996 7995 ] final -156.16 input   59.86 | X-H torsion
[ 10167 10162 10161 10158 ] final  -51.65 input  -65.29 | X-H torsion
[ 10718 10713 10712 10709 ] final  -20.45 input   66.30 | X-H torsion
[ 10763 10752 10751 10750 ] final  136.65 input  -60.55 | X-H torsion
[ 11005 11000 10999 10996 ] final -137.97 input  -57.11 | X-H torsion

> <Gold.Protein.ActiveResidues>
 VAL166  LYS551  ARG553  GLY616  TRP617  ASP618  TYR619  PRO620  LYS621  CYS622 
 ASP623  PHE694  ASN695  SER759  ASP760  ASP761  ALA762  ILE779  LEU786  VAL792 
 PHE793  MET794  SER795  GLU796  ALA797  LYS798  CYS799  TRP800  GLU811  SER814 

> <Gold.Protein.RotatedAtoms>
  151.6379  133.3328  159.3123 H   0  0  0  0  0  0  0  0  0  0  0  0  # atno 6907 bound_to 6896
  150.8023  134.7128  159.6623 H   0  0  0  0  0  0  0  0  0  0  0  0  # atno 6908 bound_to 6896
  152.4116  134.6119  160.0079 H   0  0  0  0  0  0  0  0  0  0  0  0  # atno 6909 bound_to 6896
  145.8808  140.8146  142.9840 H   0  0  0  0  0  0  0  0  0  0  0  0  # atno 7974 bound_to 7965
  155.7130  140.0780  157.2363 H   0  0  0  0  0  0  0  0  0  0  0  0  # atno 8008 bound_to 7997
  154.4056  140.1626  156.2371 H   0  0  0  0  0  0  0  0  0  0  0  0  # atno 8009 bound_to 7997
  155.9266  140.3394  155.6218 H   0  0  0  0  0  0  0  0  0  0  0  0  # atno 8010 bound_to 7997
  140.6577  143.2612  151.4534 H   0  0  0  0  0  0  0  0  0  0  0  0  # atno 10167 bound_to 10162
  156.5317  130.4656  149.6544 H   0  0  0  0  0  0  0  0  0  0  0  0  # atno 10718 bound_to 10713
  153.8600  135.3068  155.3437 H   0  0  0  0  0  0  0  0  0  0  0  0  # atno 10763 bound_to 10752
  154.7853  135.4813  153.9935 H   0  0  0  0  0  0  0  0  0  0  0  0  # atno 10764 bound_to 10752
  153.1467  135.6835  153.9038 H   0  0  0  0  0  0  0  0  0  0  0  0  # atno 10765 bound_to 10752
  140.8660  134.2109  157.4679 H   0  0  0  0  0  0  0  0  0  0  0  0  # atno 11005 bound_to 11000
  144.6727  140.1381  143.7439 LP  0  0  0  0  0  0  0  0  0  0  0  0  # atno 17320 bound_to 7965
  145.9025  139.2439  143.1485 LP  0  0  0  0  0  0  0  0  0  0  0  0  # atno 17321 bound_to 7965
  139.5804  144.1723  152.1960 LP  0  0  0  0  0  0  0  0  0  0  0  0  # atno 17342 bound_to 10162
  140.1046  144.5509  150.6965 LP  0  0  0  0  0  0  0  0  0  0  0  0  # atno 17343 bound_to 10162
  156.3054  130.7200  151.2081 LP  0  0  0  0  0  0  0  0  0  0  0  0  # atno 17370 bound_to 10713
  157.7420  131.0495  150.5052 LP  0  0  0  0  0  0  0  0  0  0  0  0  # atno 17371 bound_to 10713
  139.8709  134.9752  156.4875 LP  0  0  0  0  0  0  0  0  0  0  0  0  # atno 17394 bound_to 11000
  140.8628  133.8047  155.9282 LP  0  0  0  0  0  0  0  0  0  0  0  0  # atno 17395 bound_to 11000

$$$$
