AV-unprocessed.smi:466|AV-procd|sdf|2641|dock6
  -GOLD-   2262023 53D 1   1.00000     0.00000
 Structure written by MMmdl.
 43 45  0  0  0  0  0  0  0  0  1 V2000
  156.2700  140.9695  164.7767 C   0  0  0  0  0  0  0  0  0  0  0  0
  155.6735  140.6497  163.5283 O   0  0  0  0  0  0  0  0  0  0  0  0
  155.1011  139.4032  163.3762 C   0  0  0  0  0  0  0  0  0  0  0  0
  155.1376  138.3960  164.3740 C   0  0  0  0  0  0  0  0  0  0  0  0
  154.5349  137.1453  164.1492 C   0  0  0  0  0  0  0  0  0  0  0  0
  153.8896  136.8862  162.9285 C   0  0  0  0  0  0  0  0  0  0  0  0
  153.8462  137.8778  161.9319 C   0  0  0  0  0  0  0  0  0  0  0  0
  154.4514  139.1423  162.1470 C   0  0  0  0  0  0  0  0  0  0  0  0
  154.4491  140.1597  161.2149 O   0  0  0  0  0  0  0  0  0  0  0  0
  154.0429  139.8606  159.8872 C   0  0  0  0  0  0  0  0  0  0  0  0
  152.5231  140.0362  159.7905 C   0  0  0  0  0  0  0  0  0  0  0  0
  152.1715  141.2947  159.1518 N   0  0  0  0  0  0  0  0  0  0  0  0
  151.8482  141.5250  157.8532 C   0  0  0  0  0  0  0  0  0  0  0  0
  151.7937  140.4340  156.8230 C   0  0  0  0  0  0  0  0  0  0  0  0
  150.5250  140.4788  155.9568 C   0  0  0  0  0  0  0  0  0  0  0  0
  150.7795  139.9821  154.6597 O   0  0  0  0  0  0  0  0  0  0  0  0
  151.5716  142.7924  157.5422 N   0  0  0  0  0  0  0  0  0  0  0  0
  151.7347  143.4454  158.7482 C   0  0  0  0  0  0  0  0  0  0  0  0
  151.5877  144.8112  159.0805 C   0  0  0  0  0  0  0  0  0  0  0  0
  151.8157  145.2533  160.4002 C   0  0  0  0  0  0  0  0  0  0  0  0
  152.1938  144.3383  161.4041 C   0  0  0  0  0  0  0  0  0  0  0  0
  152.3444  142.9729  161.0945 C   0  0  0  0  0  0  0  0  0  0  0  0
  152.1135  142.5366  159.7761 C   0  0  0  0  0  0  0  0  0  0  0  0
  156.6824  141.9773  164.7296 H   0  0  0  0  0  0  0  0  0  0  0  0
  157.0895  140.2896  165.0133 H   0  0  0  0  0  0  0  0  0  0  0  0
  155.5381  140.9506  165.5851 H   0  0  0  0  0  0  0  0  0  0  0  0
  155.6240  138.5583  165.3236 H   0  0  0  0  0  0  0  0  0  0  0  0
  154.5684  136.3841  164.9148 H   0  0  0  0  0  0  0  0  0  0  0  0
  153.4268  135.9258  162.7552 H   0  0  0  0  0  0  0  0  0  0  0  0
  153.3401  137.6421  161.0082 H   0  0  0  0  0  0  0  0  0  0  0  0
  154.5351  140.5340  159.1833 H   0  0  0  0  0  0  0  0  0  0  0  0
  154.3157  138.8362  159.6294 H   0  0  0  0  0  0  0  0  0  0  0  0
  152.0716  139.2080  159.2452 H   0  0  0  0  0  0  0  0  0  0  0  0
  152.0819  140.0183  160.7875 H   0  0  0  0  0  0  0  0  0  0  0  0
  152.6620  140.5537  156.1741 H   0  0  0  0  0  0  0  0  0  0  0  0
  151.9128  139.4552  157.2863 H   0  0  0  0  0  0  0  0  0  0  0  0
  149.7135  139.9161  156.4194 H   0  0  0  0  0  0  0  0  0  0  0  0
  150.1847  141.5096  155.8571 H   0  0  0  0  0  0  0  0  0  0  0  0
  150.5915  139.0560  154.6492 H   0  0  0  0  0  0  0  0  0  0  0  0
  151.2999  145.5199  158.3180 H   0  0  0  0  0  0  0  0  0  0  0  0
  151.7008  146.2994  160.6435 H   0  0  0  0  0  0  0  0  0  0  0  0
  152.3682  144.6846  162.4124 H   0  0  0  0  0  0  0  0  0  0  0  0
  152.6343  142.2697  161.8611 H   0  0  0  0  0  0  0  0  0  0  0  0
  1  2  1  0  0  0  0
  1 24  1  0  0  0  0
  1 25  1  0  0  0  0
  1 26  1  0  0  0  0
  2  3  1  0  0  0  0
  3  8  1  0  0  0  0
  3  4  2  0  0  0  0
  4  5  1  0  0  0  0
  4 27  1  0  0  0  0
  5  6  2  0  0  0  0
  5 28  1  0  0  0  0
  6  7  1  0  0  0  0
  6 29  1  0  0  0  0
  7  8  2  0  0  0  0
  7 30  1  0  0  0  0
  8  9  1  0  0  0  0
  9 10  1  0  0  0  0
 10 11  1  0  0  0  0
 10 31  1  0  0  0  0
 10 32  1  0  0  0  0
 11 12  1  0  0  0  0
 11 33  1  0  0  0  0
 11 34  1  0  0  0  0
 12 23  1  0  0  0  0
 12 13  1  0  0  0  0
 13 14  1  0  0  0  0
 13 17  2  0  0  0  0
 14 15  1  0  0  0  0
 14 35  1  0  0  0  0
 14 36  1  0  0  0  0
 15 16  1  0  0  0  0
 15 37  1  0  0  0  0
 15 38  1  0  0  0  0
 16 39  1  0  0  0  0
 17 18  1  0  0  0  0
 18 23  2  0  0  0  0
 18 19  1  0  0  0  0
 19 20  2  0  0  0  0
 19 40  1  0  0  0  0
 20 21  1  0  0  0  0
 20 41  1  0  0  0  0
 21 22  2  0  0  0  0
 21 42  1  0  0  0  0
 22 23  1  0  0  0  0
 22 43  1  0  0  0  0
M  END
> <s_m_source_file>
AV-unprocessed.smi

> <i_m_source_file_index>
466

> <i_lp_mmshare_version>
43012

> <i_f3d_flags>
0

> <s_epik_input>
W0NIM11PYzFbY0hdW2NIXVtjSF1bY0hdYzFPW0NIMl1bQ0gyXW4oYyhuMilbQ0gyXVtDSDJdW09IXSljKGMyMylbY0hdW2NIXVtjSF1bY0hdMw==

> <s_epik_cmdline>
J2VwaWtfcHl0aG9uJywgJy1waCcsICc3LjAnLCAnLXRuJywgJzgnLCAnLW1hJywgJzIwMCcsICctbWV0YWxfYmluZGluZycsICctaW1hZScsICc8aW5maWxlLm1hZT4nLCAnLW9tYWUnLCAnPG91dGZpbGUubWFlPic=

> <r_lp_tautomer_probability>
1

> <r_epik_Ionization_Penalty>
0.20808

> <r_epik_Ionization_Penalty_Charging>
0

> <r_epik_Ionization_Penalty_Neutral>
0.20808

> <r_epik_State_Penalty>
0.198097

> <r_epik_Charging_Adjusted_Penalty>
0.198097

> <i_epik_Tot_Q>
0

> <i_epik_Tot_abs_Q>
0

> <r_epik_Metal_State_Penalty>
0.000235189

> <b_epik_Metal_Only>
0

> <s_lp_Force_Field>
OPLS_2005

> <r_lp_Energy>
20.5556

> <b_lp_Chiralities_Consistent>
1

> <s_lp_Variant>
AV-unprocessed.smi:466-1

> <Gold.Version>
5.8.1

> <Gold.Id.Protein>
6NUR|6NUR_protein|mol2

> <Gold.PLP.Fitness>
50.7380

> <Gold.PLP.PLP>
-50.1584

> <Gold.PLP.part.hbond>
-2.0000

> <Gold.PLP.part.metal>
0.0000

> <Gold.PLP.part.buried>
-5.8406

> <Gold.PLP.part.nonpolar>
-41.4775

> <Gold.PLP.part.repulsive>
0.0712

> <Gold.PLP.ligand.clash>
0.0000

> <Gold.PLP.ligand.torsion>
1.2781

> <Gold.PLP.Chemscore.Hbond>
1.0000

> <Gold.PLP.Chemscore.CHOScore>
0.0000

> <Gold.PLP.Chemscore.Metal>
0.0000

> <Gold.Chemscore.Hbonds>
donor molecule, donor type, donor heavy atom, donor atom, acceptor molecule, acceptor atom, score
      P1  H  7989  7998       L1    16  1.00

> <Gold.PLP.Chemscore.Internal.Correction>
0.1358

> <Gold.Rescore>
     Score         DG    S(hbond)    S(metal)    S(lipo)     H(rot)  DE(clash)    DE(int)     intcor
     17.90     -19.16       0.99        0.00     145.38       2.59       0.17       1.08       ----

> <Gold.Chemscore.Fitness>
17.9041

> <Gold.Chemscore.DG>
-19.1570

> <Gold.Chemscore.ZeroCoef>
-5.4800

> <Gold.Chemscore.Hbond>
0.9887

> <Gold.Chemscore.Metal>
0.0000

> <Gold.Chemscore.Lipo>
145.3789

> <Gold.Chemscore.Internal_Hbond>
0.0000

> <Gold.Chemscore.DEClash>
0.1684

> <Gold.Chemscore.DEInternal>
1.0845

> <Gold.Chemscore.Rot>
2.5916

> <Gold.Chemscore.Internal.Correction>
   9.000000E+99

> <Gold.Chemscore.Hbonds>
donor molecule, donor type, donor heavy atom, donor atom, acceptor molecule, acceptor atom, score
      P1  H  7989  7998       L1    16  0.99

> <Gold.Chemscore.Hbond.Weighted>
-3.3022

> <Gold.Chemscore.Metal.Weighted>
-0.0000

> <Gold.Chemscore.Lipo.Weighted>
-17.0093

> <Gold.Chemscore.Internal_Hbond.Weighted>
0.0000

> <Gold.Chemscore.DEClash.Weighted>
0.1684

> <Gold.Chemscore.DEInternal.Weighted>
1.0845

> <Gold.Chemscore.Rot.Weighted>
6.6346

> <Gold.Chemscore.Internal.Correction.Weighted>
   9.000000E+99

> <Gold.Protein.RotatedTorsions>
[ 6907 6896 6895 6894 ] final  144.11 input  -60.11 | X-H torsion
[ 7974 7965 7964 7962 ] final  -90.79 input  175.53 | X-H torsion
[ 8008 7997 7996 7995 ] final -122.58 input   59.86 | X-H torsion
[ 10167 10162 10161 10158 ] final   16.67 input  -65.29 | X-H torsion
[ 10718 10713 10712 10709 ] final   22.49 input   66.30 | X-H torsion
[ 10763 10752 10751 10750 ] final  123.73 input  -60.55 | X-H torsion
[ 11005 11000 10999 10996 ] final  121.66 input  -57.11 | X-H torsion

> <Gold.Protein.ActiveResidues>
 VAL166  LYS551  ARG553  GLY616  TRP617  ASP618  TYR619  PRO620  LYS621  CYS622 
 ASP623  PHE694  ASN695  SER759  ASP760  ASP761  ALA762  ILE779  LEU786  VAL792 
 PHE793  MET794  SER795  GLU796  ALA797  LYS798  CYS799  TRP800  GLU811  SER814 

> <Gold.Protein.RotatedAtoms>
  152.1978  133.4819  159.5041 H   0  0  0  0  0  0  0  0  0  0  0  0  # atno 6907 bound_to 6896
  150.6963  134.1630  159.4192 H   0  0  0  0  0  0  0  0  0  0  0  0  # atno 6908 bound_to 6896
  151.9546  135.0152  160.0595 H   0  0  0  0  0  0  0  0  0  0  0  0  # atno 6909 bound_to 6896
  145.4218  140.9551  143.2177 H   0  0  0  0  0  0  0  0  0  0  0  0  # atno 7974 bound_to 7965
  155.1665  140.0407  157.2854 H   0  0  0  0  0  0  0  0  0  0  0  0  # atno 8008 bound_to 7997
  154.6299  140.2521  155.7419 H   0  0  0  0  0  0  0  0  0  0  0  0  # atno 8009 bound_to 7997
  156.2479  140.2877  156.0647 H   0  0  0  0  0  0  0  0  0  0  0  0  # atno 8010 bound_to 7997
  140.5781  143.9034  150.6767 H   0  0  0  0  0  0  0  0  0  0  0  0  # atno 10167 bound_to 10162
  157.1530  130.6683  149.6018 H   0  0  0  0  0  0  0  0  0  0  0  0  # atno 10718 bound_to 10713
  153.6502  135.3364  155.3097 H   0  0  0  0  0  0  0  0  0  0  0  0  # atno 10763 bound_to 10752
  154.8539  135.4339  154.1912 H   0  0  0  0  0  0  0  0  0  0  0  0  # atno 10764 bound_to 10752
  153.2853  135.7012  153.7420 H   0  0  0  0  0  0  0  0  0  0  0  0  # atno 10765 bound_to 10752
  139.9235  134.9639  156.7992 H   0  0  0  0  0  0  0  0  0  0  0  0  # atno 11005 bound_to 11000
  144.8240  139.5741  143.6974 LP  0  0  0  0  0  0  0  0  0  0  0  0  # atno 17320 bound_to 7965
  146.2653  139.6504  142.9334 LP  0  0  0  0  0  0  0  0  0  0  0  0  # atno 17321 bound_to 7965
  140.2526  143.3582  152.1392 LP  0  0  0  0  0  0  0  0  0  0  0  0  # atno 17342 bound_to 10162
  139.5154  144.6962  151.5623 LP  0  0  0  0  0  0  0  0  0  0  0  0  # atno 17343 bound_to 10162
  155.9767  130.4738  150.6545 LP  0  0  0  0  0  0  0  0  0  0  0  0  # atno 17370 bound_to 10713
  157.4202  131.0836  151.1138 LP  0  0  0  0  0  0  0  0  0  0  0  0  # atno 17371 bound_to 10713
  140.6404  133.9824  155.7705 LP  0  0  0  0  0  0  0  0  0  0  0  0  # atno 17394 bound_to 11000
  141.0775  134.0113  157.3436 LP  0  0  0  0  0  0  0  0  0  0  0  0  # atno 17395 bound_to 11000

$$$$
