AV-unprocessed.smi:121|AV-procd|sdf|1140|dock3
  -GOLD-   2262018273D 1   1.00000     0.00000
 Structure written by MMmdl.
 37 39  0  0  0  0  0  0  0  0  1 V2000
  147.8598  135.0153  154.5603 N   0  0  0  0  0  0  0  0  0  0  0  0
  148.8646  135.3327  155.0383 C   0  0  0  0  0  0  0  0  0  0  0  0
  150.1268  135.7312  155.6385 C   0  0  0  0  0  0  0  0  0  0  0  0
  150.8144  134.8446  156.4917 C   0  0  0  0  0  0  0  0  0  0  0  0
  152.0347  135.2353  157.0750 C   0  0  0  0  0  0  0  0  0  0  0  0
  152.5698  136.5093  156.8052 C   0  0  0  0  0  0  0  0  0  0  0  0
  151.8930  137.4005  155.9463 C   0  0  0  0  0  0  0  0  0  0  0  0
  152.4976  138.7731  155.6709 C   0  0  0  0  0  0  0  0  0  0  0  0
  151.6524  139.9093  156.0052 N   0  0  0  0  0  0  0  0  0  0  0  0
  150.5765  140.1900  155.1277 C   0  0  0  0  0  0  0  0  0  0  0  0
  150.3610  139.5119  154.1212 O   0  0  0  0  0  0  0  0  0  0  0  0
  149.7558  141.3305  155.5188 C   0  0  0  0  0  0  0  0  0  0  0  0
  148.7211  141.7013  154.7457 F   0  0  0  0  0  0  0  0  0  0  0  0
  150.0202  142.0247  156.6463 C   0  0  0  0  0  0  0  0  0  0  0  0
  151.0640  141.7109  157.5001 N   0  0  0  0  0  0  0  0  0  0  0  0
  151.3143  142.5202  158.7526 C   0  0  1  0  0  0  0  0  0  0  0  0
  152.7626  143.0225  158.7797 C   0  0  0  0  0  0  0  0  0  0  0  0
  152.6186  144.4333  158.2506 C   0  0  0  0  0  0  0  0  0  0  0  0
  151.2537  144.8290  158.8007 C   0  0  0  0  0  0  0  0  0  0  0  0
  150.4741  143.6385  158.7442 O   0  0  0  0  0  0  0  0  0  0  0  0
  151.9256  140.6355  157.1900 C   0  0  0  0  0  0  0  0  0  0  0  0
  152.8682  140.3474  157.9310 O   0  0  0  0  0  0  0  0  0  0  0  0
  150.6646  137.0064  155.3687 C   0  0  0  0  0  0  0  0  0  0  0  0
  150.4109  133.8648  156.7040 H   0  0  0  0  0  0  0  0  0  0  0  0
  152.5614  134.5569  157.7299 H   0  0  0  0  0  0  0  0  0  0  0  0
  153.5071  136.7988  157.2575 H   0  0  0  0  0  0  0  0  0  0  0  0
  153.4469  138.8703  156.1979 H   0  0  0  0  0  0  0  0  0  0  0  0
  152.7574  138.8806  154.6157 H   0  0  0  0  0  0  0  0  0  0  0  0
  149.3810  142.8629  156.8812 H   0  0  0  0  0  0  0  0  0  0  0  0
  151.0540  141.8806  159.5970 H   0  0  0  0  0  0  0  0  0  0  0  0
  153.1063  143.0369  159.8146 H   0  0  0  0  0  0  0  0  0  0  0  0
  153.4331  142.3930  158.1929 H   0  0  0  0  0  0  0  0  0  0  0  0
  153.4188  145.0977  158.5782 H   0  0  0  0  0  0  0  0  0  0  0  0
  152.6018  144.4288  157.1600 H   0  0  0  0  0  0  0  0  0  0  0  0
  151.3399  145.1438  159.8416 H   0  0  0  0  0  0  0  0  0  0  0  0
  150.7902  145.6386  158.2367 H   0  0  0  0  0  0  0  0  0  0  0  0
  150.1292  137.6816  154.7173 H   0  0  0  0  0  0  0  0  0  0  0  0
  1  2  3  0  0  0  0
  2  3  1  0  0  0  0
  3 23  1  0  0  0  0
  3  4  2  0  0  0  0
  4  5  1  0  0  0  0
  4 24  1  0  0  0  0
  5  6  2  0  0  0  0
  5 25  1  0  0  0  0
  6  7  1  0  0  0  0
  6 26  1  0  0  0  0
  7  8  1  0  0  0  0
  7 23  2  0  0  0  0
  8  9  1  0  0  0  0
  8 27  1  0  0  0  0
  8 28  1  0  0  0  0
  9 21  1  0  0  0  0
  9 10  1  0  0  0  0
 10 11  2  0  0  0  0
 10 12  1  0  0  0  0
 12 13  1  0  0  0  0
 12 14  2  0  0  0  0
 14 15  1  0  0  0  0
 14 29  1  0  0  0  0
 15 16  1  0  0  0  0
 15 21  1  0  0  0  0
 16 20  1  0  0  0  0
 16 17  1  0  0  0  0
 16 30  1  0  0  0  0
 17 18  1  0  0  0  0
 17 31  1  0  0  0  0
 17 32  1  0  0  0  0
 18 19  1  0  0  0  0
 18 33  1  0  0  0  0
 18 34  1  0  0  0  0
 19 20  1  0  0  0  0
 19 35  1  0  0  0  0
 19 36  1  0  0  0  0
 21 22  2  0  0  0  0
 23 37  1  0  0  0  0
M  END
> <s_m_source_file>
AV-unprocessed.smi

> <i_m_source_file_index>
121

> <i_lp_mmshare_version>
43012

> <i_f3d_flags>
0

> <s_epik_input>
TiNDYzFbY0hdW2NIXVtjSF1jKFtjSF0xKVtDSDJdbjJjKD1PKWMoRilbY0hdbihjMj1PKVtDQEBIXTNbQ0gyXVtDSDJdW0NIMl1PMw==

> <s_epik_cmdline>
J2VwaWtfcHl0aG9uJywgJy1waCcsICc3LjAnLCAnLXRuJywgJzgnLCAnLW1hJywgJzIwMCcsICctbWV0YWxfYmluZGluZycsICctaW1hZScsICc8aW5maWxlLm1hZT4nLCAnLW9tYWUnLCAnPG91dGZpbGUubWFlPic=

> <r_lp_tautomer_probability>
1

> <r_epik_Ionization_Penalty>
1.69864e-08

> <r_epik_Ionization_Penalty_Charging>
1.69802e-08

> <r_epik_Ionization_Penalty_Neutral>
6.20402e-12

> <r_epik_State_Penalty>
-0

> <r_epik_Charging_Adjusted_Penalty>
1.69802e-08

> <i_epik_Tot_Q>
0

> <i_epik_Tot_abs_Q>
0

> <r_epik_Metal_State_Penalty>
-0

> <b_epik_Metal_Only>
0

> <s_epik_Chemistry_Notes>
This compound contains an acetal/aminal-like group ( X-CH(R)-Y where X, Y are N, S, or O) that may be acid/base labile, releasing an aldehyde.

> <s_lp_Force_Field>
OPLS_2005

> <r_lp_Energy>
33.8546

> <b_lp_Chiralities_Consistent>
1

> <s_lp_Variant>
AV-unprocessed.smi:121-2

> <Gold.Version>
5.8.1

> <Gold.Id.Protein>
6NUR|6NUR_protein|mol2

> <Gold.PLP.Fitness>
43.8584

> <Gold.PLP.PLP>
-38.7556

> <Gold.PLP.part.hbond>
-2.0000

> <Gold.PLP.part.metal>
0.0000

> <Gold.PLP.part.buried>
2.8878

> <Gold.PLP.part.nonpolar>
-39.5521

> <Gold.PLP.part.repulsive>
1.0422

> <Gold.PLP.ligand.clash>
0.0000

> <Gold.PLP.ligand.torsion>
0.3213

> <Gold.PLP.Chemscore.Hbond>
0.9120

> <Gold.PLP.Chemscore.CHOScore>
1.0000

> <Gold.PLP.Chemscore.Metal>
0.0000

> <Gold.Chemscore.Hbonds>
donor molecule, donor type, donor heavy atom, donor atom, acceptor molecule, acceptor atom, score
      P1  H  7997  8010       L1    22  0.90
      L1  C    14    29       P1  8028  1.00

> <Gold.PLP.Chemscore.Internal.Correction>
0.0095

> <Gold.Rescore>
     Score         DG    S(hbond)    S(metal)    S(lipo)     H(rot)  DE(clash)    DE(int)     intcor
     10.78     -14.05       0.77        0.00      86.16       1.59       0.34       2.94       ----

> <Gold.Chemscore.Fitness>
10.7764

> <Gold.Chemscore.DG>
-14.0518

> <Gold.Chemscore.ZeroCoef>
-5.4800

> <Gold.Chemscore.Hbond>
0.7654

> <Gold.Chemscore.Metal>
0.0000

> <Gold.Chemscore.Lipo>
86.1635

> <Gold.Chemscore.Internal_Hbond>
0.0000

> <Gold.Chemscore.DEClash>
0.3383

> <Gold.Chemscore.DEInternal>
2.9372

> <Gold.Chemscore.Rot>
1.5882

> <Gold.Chemscore.Internal.Correction>
   9.000000E+99

> <Gold.Chemscore.Hbonds>
donor molecule, donor type, donor heavy atom, donor atom, acceptor molecule, acceptor atom, score
      P1  H  7997  8010       L1    22  0.69

> <Gold.Chemscore.Hbond.Weighted>
-2.5564

> <Gold.Chemscore.Metal.Weighted>
-0.0000

> <Gold.Chemscore.Lipo.Weighted>
-10.0811

> <Gold.Chemscore.Internal_Hbond.Weighted>
0.0000

> <Gold.Chemscore.DEClash.Weighted>
0.3383

> <Gold.Chemscore.DEInternal.Weighted>
2.9372

> <Gold.Chemscore.Rot.Weighted>
4.0657

> <Gold.Chemscore.Internal.Correction.Weighted>
   9.000000E+99

> <Gold.Protein.RotatedTorsions>
[ 6907 6896 6895 6894 ] final  -11.38 input  -60.11 | X-H torsion
[ 7974 7965 7964 7962 ] final  118.47 input  175.53 | X-H torsion
[ 8008 7997 7996 7995 ] final   43.53 input   59.86 | X-H torsion
[ 10167 10162 10161 10158 ] final   46.47 input  -65.29 | X-H torsion
[ 10718 10713 10712 10709 ] final  172.67 input   66.30 | X-H torsion
[ 10763 10752 10751 10750 ] final  142.26 input  -60.55 | X-H torsion
[ 11005 11000 10999 10996 ] final -177.41 input  -57.11 | X-H torsion

> <Gold.Protein.ActiveResidues>
 VAL166  LYS551  ARG553  GLY616  TRP617  ASP618  TYR619  PRO620  LYS621  CYS622 
 ASP623  PHE694  ASN695  SER759  ASP760  ASP761  ALA762  ILE779  LEU786  VAL792 
 PHE793  MET794  SER795  GLU796  ALA797  LYS798  CYS799  TRP800  GLU811  SER814 

> <Gold.Protein.RotatedAtoms>
  151.3870  135.0949  159.9514 H   0  0  0  0  0  0  0  0  0  0  0  0  # atno 6907 bound_to 6896
  152.5091  133.9016  159.7454 H   0  0  0  0  0  0  0  0  0  0  0  0  # atno 6908 bound_to 6896
  150.9462  133.6545  159.2809 H   0  0  0  0  0  0  0  0  0  0  0  0  # atno 6909 bound_to 6896
  145.1548  139.3189  143.4548 H   0  0  0  0  0  0  0  0  0  0  0  0  # atno 7974 bound_to 7965
  155.3043  140.3387  155.4246 H   0  0  0  0  0  0  0  0  0  0  0  0  # atno 8008 bound_to 7997
  156.1986  140.1724  156.7985 H   0  0  0  0  0  0  0  0  0  0  0  0  # atno 8009 bound_to 7997
  154.5530  140.0702  156.8682 H   0  0  0  0  0  0  0  0  0  0  0  0  # atno 8010 bound_to 7997
  140.3136  144.2790  150.6195 H   0  0  0  0  0  0  0  0  0  0  0  0  # atno 10167 bound_to 10162
  156.9756  131.0103  151.2894 H   0  0  0  0  0  0  0  0  0  0  0  0  # atno 10718 bound_to 10713
  153.9529  135.2968  155.3437 H   0  0  0  0  0  0  0  0  0  0  0  0  # atno 10763 bound_to 10752
  154.7417  135.5022  153.9136 H   0  0  0  0  0  0  0  0  0  0  0  0  # atno 10764 bound_to 10752
  153.0985  135.6728  153.9826 H   0  0  0  0  0  0  0  0  0  0  0  0  # atno 10765 bound_to 10752
  140.4413  134.6429  157.4758 H   0  0  0  0  0  0  0  0  0  0  0  0  # atno 11005 bound_to 11000
  146.3490  140.1636  142.8590 LP  0  0  0  0  0  0  0  0  0  0  0  0  # atno 17320 bound_to 7965
  145.0393  140.8933  143.5062 LP  0  0  0  0  0  0  0  0  0  0  0  0  # atno 17321 bound_to 7965
  140.5546  143.2201  151.7869 LP  0  0  0  0  0  0  0  0  0  0  0  0  # atno 17342 bound_to 10162
  139.4888  144.4431  151.9742 LP  0  0  0  0  0  0  0  0  0  0  0  0  # atno 17343 bound_to 10162
  157.5562  130.8215  149.8207 LP  0  0  0  0  0  0  0  0  0  0  0  0  # atno 17370 bound_to 10713
  156.0265  130.3778  150.1808 LP  0  0  0  0  0  0  0  0  0  0  0  0  # atno 17371 bound_to 10713
  140.0068  134.6751  155.9442 LP  0  0  0  0  0  0  0  0  0  0  0  0  # atno 17394 bound_to 11000
  141.1704  133.6537  156.4632 LP  0  0  0  0  0  0  0  0  0  0  0  0  # atno 17395 bound_to 11000

$$$$
