AV-unprocessed.smi:1240|AV-procd|sdf|5199|dock10
  -GOLD-   22720 4283D 1   1.00000     0.00000
 Structure written by MMmdl.
 48 50  0  0  0  0  0  0  0  0  2 V2000
  144.3887  136.2703  152.8433 O   0  0  0  0  0  0  0  0  0  0  0  0
  145.5913  136.2636  152.5817 C   0  0  0  0  0  0  0  0  0  0  0  0
  146.4630  137.1378  153.1025 N   0  0  0  0  0  0  0  0  0  0  0  0
  146.1303  138.1766  154.0702 C   0  0  0  0  0  0  0  0  0  0  0  0
  147.0032  139.4489  153.8992 C   0  0  2  0  0  0  0  0  0  0  0  0
  148.2549  139.4773  154.8229 C   0  0  2  0  0  0  0  0  0  0  0  0
  149.3486  140.4267  154.3593 C   0  0  0  0  0  0  0  0  0  0  0  0
  150.5557  139.9310  155.1432 C   0  0  0  0  0  0  0  0  0  0  0  0
  150.4043  138.5193  155.1891 O   0  0  0  0  0  0  0  0  0  0  0  0
  149.0505  138.1668  154.9197 C   0  0  0  0  0  0  0  0  0  0  0  0
  146.2064  140.6991  154.0876 N   0  3  0  0  0  0  0  0  0  0  0  0
  145.6055  140.8397  155.4365 C   0  0  0  0  0  0  0  0  0  0  0  0
  144.6507  142.0457  155.4663 C   0  0  0  0  0  0  0  0  0  0  0  0
  145.3487  143.2220  155.0742 O   0  0  0  0  0  0  0  0  0  0  0  0
  145.8607  143.1256  153.7502 C   0  0  0  0  0  0  0  0  0  0  0  0
  146.8646  141.9642  153.6718 C   0  0  0  0  0  0  0  0  0  0  0  0
  146.2063  135.4101  151.7448 N   0  0  0  0  0  0  0  0  0  0  0  0
  145.6643  134.3019  151.0380 C   0  0  0  0  0  0  0  0  0  0  0  0
  146.5647  133.3205  150.5744 C   0  0  0  0  0  0  0  0  0  0  0  0
  146.0557  132.2010  149.8864 C   0  0  0  0  0  0  0  0  0  0  0  0
  144.7407  132.0097  149.6518 N   0  0  0  0  0  0  0  0  0  0  0  0
  143.8786  132.9431  150.1075 C   0  0  0  0  0  0  0  0  0  0  0  0
  144.2822  134.0991  150.8057 C   0  0  0  0  0  0  0  0  0  0  0  0
  147.4302  137.0675  152.8217 H   0  0  0  0  0  0  0  0  0  0  0  0
  145.0735  138.4101  153.9429 H   0  0  0  0  0  0  0  0  0  0  0  0
  146.2466  137.7835  155.0813 H   0  0  0  0  0  0  0  0  0  0  0  0
  147.3706  139.4664  152.8716 H   0  0  0  0  0  0  0  0  0  0  0  0
  147.9606  139.7649  155.8333 H   0  0  0  0  0  0  0  0  0  0  0  0
  149.5266  140.3136  153.2889 H   0  0  0  0  0  0  0  0  0  0  0  0
  149.1256  141.4749  154.5611 H   0  0  0  0  0  0  0  0  0  0  0  0
  151.5025  140.2192  154.6862 H   0  0  0  0  0  0  0  0  0  0  0  0
  150.5349  140.3207  156.1617 H   0  0  0  0  0  0  0  0  0  0  0  0
  148.6674  137.5075  155.6989 H   0  0  0  0  0  0  0  0  0  0  0  0
  149.0273  137.6225  153.9747 H   0  0  0  0  0  0  0  0  0  0  0  0
  145.0561  139.9350  155.6987 H   0  0  0  0  0  0  0  0  0  0  0  0
  146.3871  140.9704  156.1854 H   0  0  0  0  0  0  0  0  0  0  0  0
  143.7949  141.8815  154.8094 H   0  0  0  0  0  0  0  0  0  0  0  0
  144.2562  142.1880  156.4726 H   0  0  0  0  0  0  0  0  0  0  0  0
  145.0446  142.9844  153.0395 H   0  0  0  0  0  0  0  0  0  0  0  0
  146.3507  144.0643  153.4911 H   0  0  0  0  0  0  0  0  0  0  0  0
  147.7142  142.1813  154.3200 H   0  0  0  0  0  0  0  0  0  0  0  0
  147.2455  141.8821  152.6542 H   0  0  0  0  0  0  0  0  0  0  0  0
  147.1847  135.5887  151.5727 H   0  0  0  0  0  0  0  0  0  0  0  0
  147.6280  133.4205  150.7371 H   0  0  0  0  0  0  0  0  0  0  0  0
  146.7241  131.4374  149.5170 H   0  0  0  0  0  0  0  0  0  0  0  0
  142.8317  132.7600  149.9158 H   0  0  0  0  0  0  0  0  0  0  0  0
  143.5291  134.7885  151.1533 H   0  0  0  0  0  0  0  0  0  0  0  0
  145.4169  140.5911  153.4669 H   0  0  0  0  0  0  0  0  0  0  0  0
  1  2  2  0  0  0  0
  2  3  1  0  0  0  0
  2 17  1  0  0  0  0
  3  4  1  0  0  0  0
  3 24  1  0  0  0  0
  4  5  1  0  0  0  0
  4 25  1  0  0  0  0
  4 26  1  0  0  0  0
  5  6  1  0  0  0  0
  5 11  1  0  0  0  0
  5 27  1  0  0  0  0
  6 10  1  0  0  0  0
  6  7  1  0  0  0  0
  6 28  1  0  0  0  0
  7  8  1  0  0  0  0
  7 29  1  0  0  0  0
  7 30  1  0  0  0  0
  8  9  1  0  0  0  0
  8 31  1  0  0  0  0
  8 32  1  0  0  0  0
  9 10  1  0  0  0  0
 10 33  1  0  0  0  0
 10 34  1  0  0  0  0
 11 16  1  0  0  0  0
 11 12  1  0  0  0  0
 11 48  1  0  0  0  0
 12 13  1  0  0  0  0
 12 35  1  0  0  0  0
 12 36  1  0  0  0  0
 13 14  1  0  0  0  0
 13 37  1  0  0  0  0
 13 38  1  0  0  0  0
 14 15  1  0  0  0  0
 15 16  1  0  0  0  0
 15 39  1  0  0  0  0
 15 40  1  0  0  0  0
 16 41  1  0  0  0  0
 16 42  1  0  0  0  0
 17 18  1  0  0  0  0
 17 43  1  0  0  0  0
 18 23  1  0  0  0  0
 18 19  2  0  0  0  0
 19 20  1  0  0  0  0
 19 44  1  0  0  0  0
 20 21  2  0  0  0  0
 20 45  1  0  0  0  0
 21 22  1  0  0  0  0
 22 23  2  0  0  0  0
 22 46  1  0  0  0  0
 23 47  1  0  0  0  0
M  CHG  1  11   1
M  END
> <s_m_source_file>
AV-unprocessed.smi

> <i_m_source_file_index>
1240

> <i_lp_mmshare_version>
43012

> <i_f3d_flags>
0

> <s_epik_input>
W2NIXTFbY0hdbltjSF1bY0hdYzFbTkhdQyg9TylbTkhdW0NIMl1bQ0BIXShbQ0BASF0yW0NIMl1bQ0gyXU9bQ0gyXTIpTjNbQ0gyXVtDSDJdT1tDSDJdW0NIMl0z

> <s_epik_cmdline>
J2VwaWtfcHl0aG9uJywgJy1waCcsICc3LjAnLCAnLXRuJywgJzgnLCAnLW1hJywgJzIwMCcsICctbWV0YWxfYmluZGluZycsICctaW1hZScsICc8aW5maWxlLm1hZT4nLCAnLW9tYWUnLCAnPG91dGZpbGUubWFlPic=

> <r_epik_Ionization_Penalty>
1.08433

> <r_epik_Ionization_Penalty_Charging>
0.98326

> <r_epik_Ionization_Penalty_Neutral>
0.10107

> <r_epik_State_Penalty>
1.11265

> <r_epik_Charging_Adjusted_Penalty>
2.09591

> <i_epik_Tot_Q>
1

> <i_epik_Tot_abs_Q>
1

> <r_epik_Metal_State_Penalty>
1.10731

> <b_epik_Metal_Only>
0

> <s_lp_Force_Field>
OPLS_2005

> <r_lp_Energy>
43.6027

> <b_lp_Chiralities_Consistent>
1

> <s_lp_Variant>
AV-unprocessed.smi:1240-5

> <Gold.Version>
5.8.1

> <Gold.Id.Protein>
6NUR|6NUR_protein|mol2

> <Gold.PLP.Fitness>
52.0743

> <Gold.PLP.PLP>
-36.0126

> <Gold.PLP.part.hbond>
-3.2703

> <Gold.PLP.part.metal>
0.0000

> <Gold.PLP.part.buried>
-6.3935

> <Gold.PLP.part.nonpolar>
-26.8347

> <Gold.PLP.part.repulsive>
0.6266

> <Gold.PLP.ligand.clash>
0.0000

> <Gold.PLP.ligand.torsion>
1.0539

> <Gold.PLP.Chemscore.Hbond>
4.0000

> <Gold.PLP.Chemscore.CHOScore>
1.9939

> <Gold.PLP.Chemscore.Metal>
0.0000

> <Gold.Chemscore.Hbonds>
donor molecule, donor type, donor heavy atom, donor atom, acceptor molecule, acceptor atom, score
      L1  H     3    24       P1  7948  1.00
      L1  H    11    48       P1 10175  2.00
      L1  H    17    43       P1  7948  1.00
      L1  C    20    45       P1 10747  1.00
      L1  C    22    46       P1 10186  0.98

> <Gold.PLP.Chemscore.Internal.Correction>
0.1878

> <Gold.Rescore>
     Score         DG    S(hbond)    S(metal)    S(lipo)     H(rot)  DE(clash)    DE(int)     intcor
     18.69     -21.06       2.91        0.00      87.37       1.70       0.10       2.28       ----

> <Gold.Chemscore.Fitness>
18.6851

> <Gold.Chemscore.DG>
-21.0618

> <Gold.Chemscore.ZeroCoef>
-5.4800

> <Gold.Chemscore.Hbond>
2.9093

> <Gold.Chemscore.Metal>
0.0000

> <Gold.Chemscore.Lipo>
87.3695

> <Gold.Chemscore.Internal_Hbond>
0.0000

> <Gold.Chemscore.DEClash>
0.0990

> <Gold.Chemscore.DEInternal>
2.2777

> <Gold.Chemscore.Rot>
1.7021

> <Gold.Chemscore.Internal.Correction>
   9.000000E+99

> <Gold.Chemscore.Hbonds>
donor molecule, donor type, donor heavy atom, donor atom, acceptor molecule, acceptor atom, score
      L1  H     3    24       P1  7948  0.95
      L1  H    11    48       P1 10175  0.91
      L1  H    17    43       P1  7948  0.99

> <Gold.Chemscore.Hbond.Weighted>
-9.7170

> <Gold.Chemscore.Metal.Weighted>
-0.0000

> <Gold.Chemscore.Lipo.Weighted>
-10.2222

> <Gold.Chemscore.Internal_Hbond.Weighted>
0.0000

> <Gold.Chemscore.DEClash.Weighted>
0.0990

> <Gold.Chemscore.DEInternal.Weighted>
2.2777

> <Gold.Chemscore.Rot.Weighted>
4.3575

> <Gold.Chemscore.Internal.Correction.Weighted>
   9.000000E+99

> <Gold.Protein.RotatedTorsions>
[ 6907 6896 6895 6894 ] final  118.07 input  -60.11 | X-H torsion
[ 7974 7965 7964 7962 ] final  -65.31 input  175.53 | X-H torsion
[ 8008 7997 7996 7995 ] final   59.74 input   59.86 | X-H torsion
[ 10167 10162 10161 10158 ] final -107.54 input  -65.29 | X-H torsion
[ 10718 10713 10712 10709 ] final -124.03 input   66.30 | X-H torsion
[ 10763 10752 10751 10750 ] final  144.03 input  -60.55 | X-H torsion
[ 11005 11000 10999 10996 ] final  148.36 input  -57.11 | X-H torsion

> <Gold.Protein.ActiveResidues>
 VAL166  LYS551  ARG553  GLY616  TRP617  ASP618  TYR619  PRO620  LYS621  CYS622 
 ASP623  PHE694  ASN695  SER759  ASP760  ASP761  ALA762  ILE779  LEU786  VAL792 
 PHE793  MET794  SER795  GLU796  ALA797  LYS798  CYS799  TRP800  GLU811  SER814 

> <Gold.Protein.RotatedAtoms>
  152.4569  133.7741  159.6814 H   0  0  0  0  0  0  0  0  0  0  0  0  # atno 6907 bound_to 6896
  150.8498  133.7795  159.3036 H   0  0  0  0  0  0  0  0  0  0  0  0  # atno 6908 bound_to 6896
  151.5394  135.1071  159.9974 H   0  0  0  0  0  0  0  0  0  0  0  0  # atno 6909 bound_to 6896
  145.7559  140.8886  143.0455 H   0  0  0  0  0  0  0  0  0  0  0  0  # atno 7974 bound_to 7965
  155.5710  140.3490  155.4515 H   0  0  0  0  0  0  0  0  0  0  0  0  # atno 8008 bound_to 7997
  156.0444  140.1303  157.0146 H   0  0  0  0  0  0  0  0  0  0  0  0  # atno 8009 bound_to 7997
  154.4406  140.1017  156.6269 H   0  0  0  0  0  0  0  0  0  0  0  0  # atno 8010 bound_to 7997
  140.1759  143.4005  152.1319 H   0  0  0  0  0  0  0  0  0  0  0  0  # atno 10167 bound_to 10162
  156.1553  130.6563  150.9972 H   0  0  0  0  0  0  0  0  0  0  0  0  # atno 10718 bound_to 10713
  153.9821  135.2940  155.3419 H   0  0  0  0  0  0  0  0  0  0  0  0  # atno 10763 bound_to 10752
  154.7263  135.5087  153.8894 H   0  0  0  0  0  0  0  0  0  0  0  0  # atno 10764 bound_to 10752
  153.0849  135.6690  154.0083 H   0  0  0  0  0  0  0  0  0  0  0  0  # atno 10765 bound_to 10752
  140.0953  134.9016  157.1713 H   0  0  0  0  0  0  0  0  0  0  0  0  # atno 11005 bound_to 11000
  144.6840  139.9655  143.7481 LP  0  0  0  0  0  0  0  0  0  0  0  0  # atno 17320 bound_to 7965
  146.0312  139.3336  143.0754 LP  0  0  0  0  0  0  0  0  0  0  0  0  # atno 17321 bound_to 7965
  139.5317  144.7166  151.5032 LP  0  0  0  0  0  0  0  0  0  0  0  0  # atno 17342 bound_to 10162
  140.6552  143.8615  150.6827 LP  0  0  0  0  0  0  0  0  0  0  0  0  # atno 17343 bound_to 10162
  157.6690  131.0865  150.7659 LP  0  0  0  0  0  0  0  0  0  0  0  0  # atno 17370 bound_to 10713
  156.7725  130.4833  149.5416 LP  0  0  0  0  0  0  0  0  0  0  0  0  # atno 17371 bound_to 10713
  140.3295  134.2826  155.7230 LP  0  0  0  0  0  0  0  0  0  0  0  0  # atno 17394 bound_to 11000
  141.2090  133.7761  157.0023 LP  0  0  0  0  0  0  0  0  0  0  0  0  # atno 17395 bound_to 11000

$$$$
