AV-unprocessed.smi:1717|AV-procd|sdf|6917|dock5
  -GOLD-   22720 8123D 1   1.00000     0.00000
 Structure written by MMmdl.
 40 41  0  0  0  0  0  0  0  0  1 V2000
  149.9417  142.0737  157.4507 C   0  0  0  0  0  0  0  0  0  0  0  0
  148.9773  141.9761  156.3663 N   0  0  0  0  0  0  0  0  0  0  0  0
  149.2070  141.3461  155.2051 C   0  0  0  0  0  0  0  0  0  0  0  0
  150.2705  140.7883  154.9357 O   0  0  0  0  0  0  0  0  0  0  0  0
  148.0620  141.3507  154.1859 C   0  0  0  0  0  0  0  0  0  0  0  0
  147.8130  140.0462  153.5294 N   0  0  0  0  0  0  0  0  0  0  0  0
  146.8987  140.1590  152.3830 C   0  0  0  0  0  0  0  0  0  0  0  0
  146.7299  138.7956  151.6893 C   0  0  0  0  0  0  0  0  0  0  0  0
  146.2132  137.7296  152.6696 C   0  0  0  0  0  0  0  0  0  0  0  0
  146.1846  136.4119  152.0415 N   0  0  0  0  0  0  0  0  0  0  0  0
  145.0739  135.7239  151.7408 C   0  0  0  0  0  0  0  0  0  0  0  0
  143.9353  136.1381  151.9609 O   0  0  0  0  0  0  0  0  0  0  0  0
  145.3701  134.5420  151.1759 N   0  0  0  0  0  0  0  0  0  0  0  0
  144.4613  133.5459  150.7375 C   0  0  0  0  0  0  0  0  0  0  0  0
  144.4622  132.9634  149.4412 C   0  0  0  0  0  0  0  0  0  0  0  0
  143.5012  132.0593  149.3161 N   0  0  0  0  0  0  0  0  0  0  0  0
  142.8862  132.0599  150.5202 N   0  0  0  0  0  0  0  0  0  0  0  0
  143.4364  132.9493  151.4167 C   0  0  0  0  0  0  0  0  0  0  0  0
  147.1273  137.7018  153.9023 C   0  0  0  0  0  0  0  0  0  0  0  0
  147.2729  139.1052  154.5161 C   0  0  0  0  0  0  0  0  0  0  0  0
  142.1016  131.4536  150.7134 H   0  0  0  0  0  0  0  0  0  0  0  0
  149.5346  142.6845  158.2563 H   0  0  0  0  0  0  0  0  0  0  0  0
  150.8690  142.5352  157.1083 H   0  0  0  0  0  0  0  0  0  0  0  0
  150.1711  141.0865  157.8534 H   0  0  0  0  0  0  0  0  0  0  0  0
  148.0740  142.4053  156.5079 H   0  0  0  0  0  0  0  0  0  0  0  0
  147.1621  141.6700  154.7139 H   0  0  0  0  0  0  0  0  0  0  0  0
  148.2623  142.1115  153.4291 H   0  0  0  0  0  0  0  0  0  0  0  0
  145.9296  140.5393  152.7107 H   0  0  0  0  0  0  0  0  0  0  0  0
  147.2808  140.8657  151.6464 H   0  0  0  0  0  0  0  0  0  0  0  0
  146.0432  138.8966  150.8480 H   0  0  0  0  0  0  0  0  0  0  0  0
  147.6876  138.4832  151.2697 H   0  0  0  0  0  0  0  0  0  0  0  0
  145.2058  137.9981  152.9938 H   0  0  0  0  0  0  0  0  0  0  0  0
  147.0769  135.9940  151.8223 H   0  0  0  0  0  0  0  0  0  0  0  0
  146.3490  134.3283  151.0526 H   0  0  0  0  0  0  0  0  0  0  0  0
  145.1160  133.1612  148.6045 H   0  0  0  0  0  0  0  0  0  0  0  0
  143.0573  133.0673  152.4209 H   0  0  0  0  0  0  0  0  0  0  0  0
  146.7276  137.0138  154.6481 H   0  0  0  0  0  0  0  0  0  0  0  0
  148.1134  137.3232  153.6285 H   0  0  0  0  0  0  0  0  0  0  0  0
  147.9431  139.0443  155.3747 H   0  0  0  0  0  0  0  0  0  0  0  0
  146.3094  139.4567  154.8905 H   0  0  0  0  0  0  0  0  0  0  0  0
  1  2  1  0  0  0  0
  1 22  1  0  0  0  0
  1 23  1  0  0  0  0
  1 24  1  0  0  0  0
  2  3  1  0  0  0  0
  2 25  1  0  0  0  0
  3  4  2  0  0  0  0
  3  5  1  0  0  0  0
  5  6  1  0  0  0  0
  5 26  1  0  0  0  0
  5 27  1  0  0  0  0
  6 20  1  0  0  0  0
  6  7  1  0  0  0  0
  7  8  1  0  0  0  0
  7 28  1  0  0  0  0
  7 29  1  0  0  0  0
  8  9  1  0  0  0  0
  8 30  1  0  0  0  0
  8 31  1  0  0  0  0
  9 10  1  0  0  0  0
  9 19  1  0  0  0  0
  9 32  1  0  0  0  0
 10 11  1  0  0  0  0
 10 33  1  0  0  0  0
 11 12  2  0  0  0  0
 11 13  1  0  0  0  0
 13 14  1  0  0  0  0
 13 34  1  0  0  0  0
 14 18  2  0  0  0  0
 14 15  1  0  0  0  0
 15 16  2  0  0  0  0
 15 35  1  0  0  0  0
 16 17  1  0  0  0  0
 17 21  1  0  0  0  0
 17 18  1  0  0  0  0
 18 36  1  0  0  0  0
 19 20  1  0  0  0  0
 19 37  1  0  0  0  0
 19 38  1  0  0  0  0
 20 39  1  0  0  0  0
 20 40  1  0  0  0  0
M  END
> <s_m_source_file>
AV-unprocessed.smi

> <i_m_source_file_index>
1717

> <i_lp_mmshare_version>
43012

> <i_f3d_flags>
0

> <s_epik_input>
W0NIM11bTkhdQyg9TylbQ0gyXU4xW0NIMl1bQ0gyXVtDSF0oW0NIMl1bQ0gyXTEpW05IXUMoPU8pW05IXWMyW2NIXW5bbkhdW2NIXTI=

> <s_epik_cmdline>
J2VwaWtfcHl0aG9uJywgJy1waCcsICc3LjAnLCAnLXRuJywgJzgnLCAnLW1hJywgJzIwMCcsICctbWV0YWxfYmluZGluZycsICctaW1hZScsICc8aW5maWxlLm1hZT4nLCAnLW9tYWUnLCAnPG91dGZpbGUubWFlPic=

> <r_lp_tautomer_probability>
0.5

> <r_epik_Ionization_Penalty>
0.164786

> <r_epik_Ionization_Penalty_Charging>
0

> <r_epik_Ionization_Penalty_Neutral>
0.164786

> <r_epik_State_Penalty>
0.154069

> <r_epik_Charging_Adjusted_Penalty>
0.154069

> <i_epik_Tot_Q>
0

> <i_epik_Tot_abs_Q>
0

> <r_epik_Metal_State_Penalty>
0.158586

> <b_epik_Metal_Only>
0

> <s_lp_Force_Field>
OPLS_2005

> <r_lp_Energy>
16.0226

> <b_lp_Chiralities_Consistent>
1

> <s_lp_Variant>
AV-unprocessed.smi:1717-1

> <Gold.Version>
5.8.1

> <Gold.Id.Protein>
6NUR|6NUR_protein|mol2

> <Gold.PLP.Fitness>
45.2325

> <Gold.PLP.PLP>
-32.5962

> <Gold.PLP.part.hbond>
-5.7338

> <Gold.PLP.part.metal>
0.0000

> <Gold.PLP.part.buried>
-1.5615

> <Gold.PLP.part.nonpolar>
-27.3149

> <Gold.PLP.part.repulsive>
2.1153

> <Gold.PLP.ligand.clash>
0.0000

> <Gold.PLP.ligand.torsion>
0.7793

> <Gold.PLP.Chemscore.Hbond>
3.3348

> <Gold.PLP.Chemscore.CHOScore>
1.3911

> <Gold.PLP.Chemscore.Metal>
0.0000

> <Gold.Chemscore.Hbonds>
donor molecule, donor type, donor heavy atom, donor atom, acceptor molecule, acceptor atom, score
      L1  H    10    33       P1  7948  0.93
      L1  H    17    21       P1 10952  0.54
      P1  H  7989  7998       L1     4  0.82
      P1  H 10785 10796       L1    16  0.98
      L1  C    15    35       P1  7921  1.00
      L1  C    18    36       P1 10957  0.55

> <Gold.PLP.Chemscore.Internal.Correction>
0.0174

> <Gold.Rescore>
     Score         DG    S(hbond)    S(metal)    S(lipo)     H(rot)  DE(clash)    DE(int)     intcor
     14.74     -17.28       2.58        0.00      66.21       1.79       1.84       0.70       ----

> <Gold.Chemscore.Fitness>
14.7394

> <Gold.Chemscore.DG>
-17.2777

> <Gold.Chemscore.ZeroCoef>
-5.4800

> <Gold.Chemscore.Hbond>
2.5814

> <Gold.Chemscore.Metal>
0.0000

> <Gold.Chemscore.Lipo>
66.2071

> <Gold.Chemscore.Internal_Hbond>
0.0000

> <Gold.Chemscore.DEClash>
1.8370

> <Gold.Chemscore.DEInternal>
0.7012

> <Gold.Chemscore.Rot>
1.7854

> <Gold.Chemscore.Internal.Correction>
   9.000000E+99

> <Gold.Chemscore.Hbonds>
donor molecule, donor type, donor heavy atom, donor atom, acceptor molecule, acceptor atom, score
      L1  H    10    33       P1  7948  0.90
      L1  H    17    21       P1 10952  0.06
      P1  H  7989  7998       L1     4  0.80
      P1  H 10785 10796       L1    16  0.26

> <Gold.Chemscore.Hbond.Weighted>
-8.6220

> <Gold.Chemscore.Metal.Weighted>
-0.0000

> <Gold.Chemscore.Lipo.Weighted>
-7.7462

> <Gold.Chemscore.Internal_Hbond.Weighted>
0.0000

> <Gold.Chemscore.DEClash.Weighted>
1.8370

> <Gold.Chemscore.DEInternal.Weighted>
0.7012

> <Gold.Chemscore.Rot.Weighted>
4.5706

> <Gold.Chemscore.Internal.Correction.Weighted>
   9.000000E+99

> <Gold.Protein.RotatedTorsions>
[ 6907 6896 6895 6894 ] final  159.43 input  -60.11 | X-H torsion
[ 7974 7965 7964 7962 ] final  -23.53 input  175.53 | X-H torsion
[ 8008 7997 7996 7995 ] final  143.40 input   59.86 | X-H torsion
[ 10167 10162 10161 10158 ] final  -68.25 input  -65.29 | X-H torsion
[ 10718 10713 10712 10709 ] final  177.82 input   66.30 | X-H torsion
[ 10763 10752 10751 10750 ] final   69.10 input  -60.55 | X-H torsion
[ 11005 11000 10999 10996 ] final -169.81 input  -57.11 | X-H torsion

> <Gold.Protein.ActiveResidues>
 VAL166  LYS551  ARG553  GLY616  TRP617  ASP618  TYR619  PRO620  LYS621  CYS622 
 ASP623  PHE694  ASN695  SER759  ASP760  ASP761  ALA762  ILE779  LEU786  VAL792 
 PHE793  MET794  SER795  GLU796  ALA797  LYS798  CYS799  TRP800  GLU811  SER814 

> <Gold.Protein.RotatedAtoms>
  151.9857  133.3773  159.4124 H   0  0  0  0  0  0  0  0  0  0  0  0  # atno 6907 bound_to 6896
  150.6928  134.3990  159.5120 H   0  0  0  0  0  0  0  0  0  0  0  0  # atno 6908 bound_to 6896
  152.1716  134.8829  160.0584 H   0  0  0  0  0  0  0  0  0  0  0  0  # atno 6909 bound_to 6896
  146.1610  140.4628  142.8571 H   0  0  0  0  0  0  0  0  0  0  0  0  # atno 7974 bound_to 7965
  156.2931  140.2263  156.4884 H   0  0  0  0  0  0  0  0  0  0  0  0  # atno 8008 bound_to 7997
  154.7792  140.0461  157.1135 H   0  0  0  0  0  0  0  0  0  0  0  0  # atno 8009 bound_to 7997
  154.9779  140.3075  155.4962 H   0  0  0  0  0  0  0  0  0  0  0  0  # atno 8010 bound_to 7997
  140.5522  143.2312  151.6890 H   0  0  0  0  0  0  0  0  0  0  0  0  # atno 10167 bound_to 10162
  156.8997  130.9874  151.3037 H   0  0  0  0  0  0  0  0  0  0  0  0  # atno 10718 bound_to 10713
  153.0269  135.5223  154.7236 H   0  0  0  0  0  0  0  0  0  0  0  0  # atno 10763 bound_to 10752
  154.6284  135.2897  155.0247 H   0  0  0  0  0  0  0  0  0  0  0  0  # atno 10764 bound_to 10752
  154.1208  135.6608  153.4955 H   0  0  0  0  0  0  0  0  0  0  0  0  # atno 10765 bound_to 10752
  140.5265  134.5658  157.5063 H   0  0  0  0  0  0  0  0  0  0  0  0  # atno 11005 bound_to 11000
  144.8028  140.6244  143.6467 LP  0  0  0  0  0  0  0  0  0  0  0  0  # atno 17320 bound_to 7965
  145.4587  139.1515  143.3878 LP  0  0  0  0  0  0  0  0  0  0  0  0  # atno 17321 bound_to 7965
  139.5032  144.3800  152.0385 LP  0  0  0  0  0  0  0  0  0  0  0  0  # atno 17342 bound_to 10162
  140.2918  144.3745  150.6086 LP  0  0  0  0  0  0  0  0  0  0  0  0  # atno 17343 bound_to 10162
  157.6034  130.8529  149.8837 LP  0  0  0  0  0  0  0  0  0  0  0  0  # atno 17370 bound_to 10713
  156.0588  130.3703  150.1029 LP  0  0  0  0  0  0  0  0  0  0  0  0  # atno 17371 bound_to 10713
  139.9577  134.7506  156.0305 LP  0  0  0  0  0  0  0  0  0  0  0  0  # atno 17394 bound_to 11000
  141.1305  133.6588  156.3452 LP  0  0  0  0  0  0  0  0  0  0  0  0  # atno 17395 bound_to 11000

$$$$
