AV-unprocessed.smi:206|AV-procd|sdf|1601|dock5
  -GOLD-   2262019513D 1   1.00000     0.00000
 Structure written by MMmdl.
 47 50  0  0  0  0  0  0  0  0  1 V2000
  145.9099  137.7930  160.0106 O   0  0  0  0  0  0  0  0  0  0  0  0
  145.3158  137.0105  159.2706 C   0  0  0  0  0  0  0  0  0  0  0  0
  144.9119  137.3584  157.8497 C   0  0  0  0  0  0  0  0  0  0  0  0
  144.2939  136.1124  157.4128 N   0  0  0  0  0  0  0  0  0  0  0  0
  143.6916  135.9665  156.2043 C   0  0  0  0  0  0  0  0  0  0  0  0
  142.5359  136.6450  155.9789 N   0  0  0  0  0  0  0  0  0  0  0  0
  141.9019  136.5383  154.8084 C   0  0  0  0  0  0  0  0  0  0  0  0
  142.2425  135.8182  153.7392 N   0  0  0  0  0  0  0  0  0  0  0  0
  143.4020  135.1331  153.9524 C   0  0  0  0  0  0  0  0  0  0  0  0
  144.1871  135.1520  155.1423 C   0  0  0  0  0  0  0  0  0  0  0  0
  145.3031  134.3398  154.9730 N   0  0  0  0  0  0  0  0  0  0  0  0
  145.1863  133.8737  153.7604 C   0  0  0  0  0  0  0  0  0  0  0  0
  144.0629  134.2849  153.0792 N   0  0  0  0  0  0  0  0  0  0  0  0
  143.6936  133.9503  151.7319 C   0  0  0  0  0  0  0  0  0  0  0  0
  143.6203  132.4988  151.2455 C   0  0  0  0  0  0  0  0  0  0  0  0
  144.1943  132.9196  149.8731 C   0  0  0  0  0  0  0  0  0  0  0  0
  145.3391  132.0406  149.3456 C   0  0  0  0  0  0  0  0  0  0  0  0
  146.3176  131.8134  150.3396 O   0  0  0  0  0  0  0  0  0  0  0  0
  143.1893  133.1007  148.7137 C   0  0  0  0  0  0  0  0  0  0  0  0
  143.5832  134.0893  147.7836 O   0  0  0  0  0  0  0  0  0  0  0  0
  144.6614  134.2138  150.5776 C   0  0  0  0  0  0  0  0  0  0  0  0
  144.2848  135.0974  158.4573 C   0  0  0  0  0  0  0  0  0  0  0  0
  144.9408  135.7622  159.5713 N   0  0  0  0  0  0  0  0  0  0  0  0
  145.1604  135.0636  160.8357 C   0  0  0  0  0  0  0  0  0  0  0  0
  146.6486  135.0093  161.2246 C   0  0  0  0  0  0  0  0  0  0  0  0
  147.3516  134.5589  160.1864 F   0  0  0  0  0  0  0  0  0  0  0  0
  147.1062  136.2175  161.5519 F   0  0  0  0  0  0  0  0  0  0  0  0
  146.8295  134.1791  162.2518 F   0  0  0  0  0  0  0  0  0  0  0  0
  144.2035  138.1876  157.8423 H   0  0  0  0  0  0  0  0  0  0  0  0
  145.7841  137.6081  157.2445 H   0  0  0  0  0  0  0  0  0  0  0  0
  140.9899  137.1098  154.7163 H   0  0  0  0  0  0  0  0  0  0  0  0
  145.9267  133.2147  153.3318 H   0  0  0  0  0  0  0  0  0  0  0  0
  142.7391  134.4436  151.5441 H   0  0  0  0  0  0  0  0  0  0  0  0
  144.2852  131.8267  151.7888 H   0  0  0  0  0  0  0  0  0  0  0  0
  142.6093  132.0918  151.2085 H   0  0  0  0  0  0  0  0  0  0  0  0
  144.9669  131.0796  148.9891 H   0  0  0  0  0  0  0  0  0  0  0  0
  145.8333  132.5127  148.4957 H   0  0  0  0  0  0  0  0  0  0  0  0
  147.0210  131.3090  149.9600 H   0  0  0  0  0  0  0  0  0  0  0  0
  143.0592  132.1660  148.1673 H   0  0  0  0  0  0  0  0  0  0  0  0
  142.2047  133.3820  149.0882 H   0  0  0  0  0  0  0  0  0  0  0  0
  144.4489  134.3907  148.0138 H   0  0  0  0  0  0  0  0  0  0  0  0
  144.4606  135.1344  150.0285 H   0  0  0  0  0  0  0  0  0  0  0  0
  145.7042  134.1745  150.8970 H   0  0  0  0  0  0  0  0  0  0  0  0
  143.2666  134.8139  158.7270 H   0  0  0  0  0  0  0  0  0  0  0  0
  144.8445  134.2121  158.1525 H   0  0  0  0  0  0  0  0  0  0  0  0
  144.5946  135.5667  161.6210 H   0  0  0  0  0  0  0  0  0  0  0  0
  144.7546  134.0528  160.7692 H   0  0  0  0  0  0  0  0  0  0  0  0
  1  2  2  0  0  0  0
  2 23  1  0  0  0  0
  2  3  1  0  0  0  0
  3  4  1  0  0  0  0
  3 29  1  0  0  0  0
  3 30  1  0  0  0  0
  4  5  1  0  0  0  0
  4 22  1  0  0  0  0
  5 10  1  0  0  0  0
  5  6  2  0  0  0  0
  6  7  1  0  0  0  0
  7  8  2  0  0  0  0
  7 31  1  0  0  0  0
  8  9  1  0  0  0  0
  9 13  1  0  0  0  0
  9 10  2  0  0  0  0
 10 11  1  0  0  0  0
 11 12  2  0  0  0  0
 12 13  1  0  0  0  0
 12 32  1  0  0  0  0
 13 14  1  0  0  0  0
 14 21  1  0  0  0  0
 14 15  1  0  0  0  0
 14 33  1  0  0  0  0
 15 16  1  0  0  0  0
 15 34  1  0  0  0  0
 15 35  1  0  0  0  0
 16 17  1  0  0  0  0
 16 19  1  0  0  0  0
 16 21  1  0  0  0  0
 17 18  1  0  0  0  0
 17 36  1  0  0  0  0
 17 37  1  0  0  0  0
 18 38  1  0  0  0  0
 19 20  1  0  0  0  0
 19 39  1  0  0  0  0
 19 40  1  0  0  0  0
 20 41  1  0  0  0  0
 21 42  1  0  0  0  0
 21 43  1  0  0  0  0
 22 23  1  0  0  0  0
 22 44  1  0  0  0  0
 22 45  1  0  0  0  0
 23 24  1  0  0  0  0
 24 25  1  0  0  0  0
 24 46  1  0  0  0  0
 24 47  1  0  0  0  0
 25 26  1  0  0  0  0
 25 27  1  0  0  0  0
 25 28  1  0  0  0  0
M  END
> <s_m_source_file>
AV-unprocessed.smi

> <i_m_source_file_index>
206

> <i_lp_mmshare_version>
43012

> <i_f3d_flags>
0

> <s_epik_input>
RkMoRikoRilbQ0gyXU4xW0NIMl1OKFtDSDJdQzE9TyljKG5bY0hdbjIpYyhjMjMpbltjSF1uM1tDSF0oW0NIMl00KVtDSDJdQzQoW0NIMl1bT0hdKVtDSDJdW09IXQ==

> <s_epik_cmdline>
J2VwaWtfcHl0aG9uJywgJy1waCcsICc3LjAnLCAnLXRuJywgJzgnLCAnLW1hJywgJzIwMCcsICctbWV0YWxfYmluZGluZycsICctaW1hZScsICc8aW5maWxlLm1hZT4nLCAnLW9tYWUnLCAnPG91dGZpbGUubWFlPic=

> <r_lp_tautomer_probability>
1

> <r_epik_Ionization_Penalty>
0.000251167

> <r_epik_Ionization_Penalty_Charging>
0

> <r_epik_Ionization_Penalty_Neutral>
0.000251167

> <r_epik_State_Penalty>
-0

> <r_epik_Charging_Adjusted_Penalty>
0

> <i_epik_Tot_Q>
0

> <i_epik_Tot_abs_Q>
0

> <r_epik_Metal_State_Penalty>
-0

> <b_epik_Metal_Only>
0

> <s_epik_Chemistry_Notes>
This compound contains an acetal/aminal-like group ( X-CH(R)-Y where X, Y are N, S, or O) that may be acid/base labile, releasing an aldehyde.

> <s_lp_Force_Field>
OPLS_2005

> <r_lp_Energy>
40.1188

> <b_lp_Chiralities_Consistent>
1

> <s_lp_Variant>
AV-unprocessed.smi:206-1

> <Gold.Version>
5.8.1

> <Gold.Id.Protein>
6NUR|6NUR_protein|mol2

> <Gold.PLP.Fitness>
46.7166

> <Gold.PLP.PLP>
-38.7464

> <Gold.PLP.part.hbond>
-5.5894

> <Gold.PLP.part.metal>
0.0000

> <Gold.PLP.part.buried>
-4.0837

> <Gold.PLP.part.nonpolar>
-29.2291

> <Gold.PLP.part.repulsive>
0.1688

> <Gold.PLP.ligand.clash>
0.0000

> <Gold.PLP.ligand.torsion>
1.9025

> <Gold.PLP.Chemscore.Hbond>
3.7600

> <Gold.PLP.Chemscore.CHOScore>
0.0000

> <Gold.PLP.Chemscore.Metal>
0.0000

> <Gold.Chemscore.Hbonds>
donor molecule, donor type, donor heavy atom, donor atom, acceptor molecule, acceptor atom, score
      L1  H    18    38       P1 10747  0.83
      L1  H    20    41       P1  7921  1.00
      P1  H  6934  6947       L1     1  0.99
      P1  H 10192 10197       L1    20  1.00

> <Gold.PLP.Chemscore.Internal.Correction>
0.4953

> <Gold.Rescore>
     Score         DG    S(hbond)    S(metal)    S(lipo)     H(rot)  DE(clash)    DE(int)     intcor
     11.20     -15.46       3.54        0.00      67.12       3.79       0.81       3.45       ----

> <Gold.Chemscore.Fitness>
11.1953

> <Gold.Chemscore.DG>
-15.4609

> <Gold.Chemscore.ZeroCoef>
-5.4800

> <Gold.Chemscore.Hbond>
3.5444

> <Gold.Chemscore.Metal>
0.0000

> <Gold.Chemscore.Lipo>
67.1217

> <Gold.Chemscore.Internal_Hbond>
0.0000

> <Gold.Chemscore.DEClash>
0.8140

> <Gold.Chemscore.DEInternal>
3.4516

> <Gold.Chemscore.Rot>
3.7932

> <Gold.Chemscore.Internal.Correction>
   9.000000E+99

> <Gold.Chemscore.Hbonds>
donor molecule, donor type, donor heavy atom, donor atom, acceptor molecule, acceptor atom, score
      L1  H    18    38       P1 10747  0.79
      L1  H    20    41       P1  7921  0.96
      P1  H  6934  6947       L1     1  0.92
      P1  H 10192 10197       L1    20  0.79

> <Gold.Chemscore.Hbond.Weighted>
-11.8384

> <Gold.Chemscore.Metal.Weighted>
-0.0000

> <Gold.Chemscore.Lipo.Weighted>
-7.8532

> <Gold.Chemscore.Internal_Hbond.Weighted>
0.0000

> <Gold.Chemscore.DEClash.Weighted>
0.8140

> <Gold.Chemscore.DEInternal.Weighted>
3.4516

> <Gold.Chemscore.Rot.Weighted>
9.7107

> <Gold.Chemscore.Internal.Correction.Weighted>
   9.000000E+99

> <Gold.Protein.RotatedTorsions>
[ 6907 6896 6895 6894 ] final  169.22 input  -60.11 | X-H torsion
[ 7974 7965 7964 7962 ] final    0.15 input  175.53 | X-H torsion
[ 8008 7997 7996 7995 ] final  162.38 input   59.86 | X-H torsion
[ 10167 10162 10161 10158 ] final   28.13 input  -65.29 | X-H torsion
[ 10718 10713 10712 10709 ] final    2.53 input   66.30 | X-H torsion
[ 10763 10752 10751 10750 ] final  118.57 input  -60.55 | X-H torsion
[ 11005 11000 10999 10996 ] final -143.37 input  -57.11 | X-H torsion

> <Gold.Protein.ActiveResidues>
 VAL166  LYS551  ARG553  GLY616  TRP617  ASP618  TYR619  PRO620  LYS621  CYS622 
 ASP623  PHE694  ASN695  SER759  ASP760  ASP761  ALA762  ILE779  LEU786  VAL792 
 PHE793  MET794  SER795  GLU796  ALA797  LYS798  CYS799  TRP800  GLU811  SER814 

> <Gold.Protein.RotatedAtoms>
  151.8353  133.3415  159.3625 H   0  0  0  0  0  0  0  0  0  0  0  0  # atno 6907 bound_to 6896
  150.7251  134.5443  159.5772 H   0  0  0  0  0  0  0  0  0  0  0  0  # atno 6908 bound_to 6896
  152.2905  134.7727  160.0430 H   0  0  0  0  0  0  0  0  0  0  0  0  # atno 6909 bound_to 6896
  146.2432  140.1182  142.8341 H   0  0  0  0  0  0  0  0  0  0  0  0  # atno 7974 bound_to 7965
  156.2035  140.1752  156.7848 H   0  0  0  0  0  0  0  0  0  0  0  0  # atno 8008 bound_to 7997
  154.5624  140.0697  156.8870 H   0  0  0  0  0  0  0  0  0  0  0  0  # atno 8009 bound_to 7997
  155.2824  140.3350  155.4260 H   0  0  0  0  0  0  0  0  0  0  0  0  # atno 8010 bound_to 7997
  140.4879  144.0513  150.6287 H   0  0  0  0  0  0  0  0  0  0  0  0  # atno 10167 bound_to 10162
  156.8644  130.5598  149.5661 H   0  0  0  0  0  0  0  0  0  0  0  0  # atno 10718 bound_to 10713
  153.5696  135.3505  155.2832 H   0  0  0  0  0  0  0  0  0  0  0  0  # atno 10763 bound_to 10752
  154.8684  135.4156  154.2740 H   0  0  0  0  0  0  0  0  0  0  0  0  # atno 10764 bound_to 10752
  153.3503  135.7054  153.6864 H   0  0  0  0  0  0  0  0  0  0  0  0  # atno 10765 bound_to 10752
  140.8131  134.2720  157.4932 H   0  0  0  0  0  0  0  0  0  0  0  0  # atno 11005 bound_to 11000
  145.0429  140.8959  143.5041 LP  0  0  0  0  0  0  0  0  0  0  0  0  # atno 17320 bound_to 7965
  145.1266  139.2659  143.5561 LP  0  0  0  0  0  0  0  0  0  0  0  0  # atno 17321 bound_to 7965
  140.3773  143.2821  152.0210 LP  0  0  0  0  0  0  0  0  0  0  0  0  # atno 17342 bound_to 10162
  139.4845  144.6182  151.7305 LP  0  0  0  0  0  0  0  0  0  0  0  0  # atno 17343 bound_to 10162
  156.0759  130.5781  150.9473 LP  0  0  0  0  0  0  0  0  0  0  0  0  # atno 17370 bound_to 10713
  157.6231  131.0928  150.8584 LP  0  0  0  0  0  0  0  0  0  0  0  0  # atno 17371 bound_to 10713
  139.8713  134.9494  156.4025 LP  0  0  0  0  0  0  0  0  0  0  0  0  # atno 17394 bound_to 11000
  140.9177  133.7667  155.9868 LP  0  0  0  0  0  0  0  0  0  0  0  0  # atno 17395 bound_to 11000

$$$$
