AV-unprocessed.smi:2669|AV-procd|sdf|10344|dock2
  -GOLD-   2272014363D 1   1.00000     0.00000
 Structure written by MMmdl.
 39 41  0  0  0  0  0  0  0  0  1 V2000
  151.2227  137.8868  154.9248 C   0  0  0  0  0  0  0  0  0  0  0  0
  149.9026  137.6388  155.4820 N   0  0  0  0  0  0  0  0  0  0  0  0
  148.7540  138.1170  154.8356 C   0  0  0  0  0  0  0  0  0  0  0  0
  147.8084  137.2486  154.4070 N   0  0  0  0  0  0  0  0  0  0  0  0
  146.7275  137.7509  153.7957 C   0  0  0  0  0  0  0  0  0  0  0  0
  146.4230  139.0313  153.5326 N   0  0  0  0  0  0  0  0  0  0  0  0
  147.3534  139.8991  153.9532 C   0  0  0  0  0  0  0  0  0  0  0  0
  147.3013  141.2757  153.8165 N   0  0  0  0  0  0  0  0  0  0  0  0
  148.4440  141.6474  154.3881 C   0  0  0  0  0  0  0  0  0  0  0  0
  149.2372  140.6765  154.8828 N   0  0  0  0  0  0  0  0  0  0  0  0
  150.5196  140.8558  155.5424 C   0  0  0  0  0  0  0  0  0  0  0  0
  150.3986  141.6225  156.8746 C   0  0  1  0  0  0  0  0  0  0  0  0
  150.5233  140.7068  157.9460 O   0  0  0  0  0  0  0  0  0  0  0  0
  151.4871  142.6982  157.0182 C   0  0  0  0  0  0  0  0  0  0  0  0
  151.1655  143.5320  158.1234 O   0  0  0  0  0  0  0  0  0  0  0  0
  151.7943  143.2949  159.3268 C   0  0  0  0  0  0  0  0  0  0  0  0
  151.5405  144.2082  160.3710 C   0  0  0  0  0  0  0  0  0  0  0  0
  152.1418  144.0455  161.6338 C   0  0  0  0  0  0  0  0  0  0  0  0
  153.0073  142.9606  161.8660 C   0  0  0  0  0  0  0  0  0  0  0  0
  153.7456  142.7589  163.4124 Cl  0  0  0  0  0  0  0  0  0  0  0  0
  153.2689  142.0408  160.8335 C   0  0  0  0  0  0  0  0  0  0  0  0
  152.6675  142.2042  159.5702 C   0  0  0  0  0  0  0  0  0  0  0  0
  148.5502  139.4940  154.6174 C   0  0  0  0  0  0  0  0  0  0  0  0
  151.9872  137.4634  155.5761 H   0  0  0  0  0  0  0  0  0  0  0  0
  151.4087  138.9573  154.8317 H   0  0  0  0  0  0  0  0  0  0  0  0
  151.3195  137.4268  153.9409 H   0  0  0  0  0  0  0  0  0  0  0  0
  149.8232  137.1539  156.3640 H   0  0  0  0  0  0  0  0  0  0  0  0
  145.9989  137.0238  153.4692 H   0  0  0  0  0  0  0  0  0  0  0  0
  148.7234  142.6892  154.4482 H   0  0  0  0  0  0  0  0  0  0  0  0
  150.9670  139.8747  155.7087 H   0  0  0  0  0  0  0  0  0  0  0  0
  151.1843  141.3826  154.8572 H   0  0  0  0  0  0  0  0  0  0  0  0
  149.4149  142.0906  156.9276 H   0  0  0  0  0  0  0  0  0  0  0  0
  149.7687  140.1384  157.9464 H   0  0  0  0  0  0  0  0  0  0  0  0
  152.4720  142.2409  157.1284 H   0  0  0  0  0  0  0  0  0  0  0  0
  151.5046  143.3152  156.1183 H   0  0  0  0  0  0  0  0  0  0  0  0
  150.8777  145.0443  160.2020 H   0  0  0  0  0  0  0  0  0  0  0  0
  151.9380  144.7547  162.4226 H   0  0  0  0  0  0  0  0  0  0  0  0
  153.9331  141.2070  161.0078 H   0  0  0  0  0  0  0  0  0  0  0  0
  152.8937  141.4783  158.8041 H   0  0  0  0  0  0  0  0  0  0  0  0
  1  2  1  0  0  0  0
  1 24  1  0  0  0  0
  1 25  1  0  0  0  0
  1 26  1  0  0  0  0
  2  3  1  0  0  0  0
  2 27  1  0  0  0  0
  3 23  1  0  0  0  0
  3  4  2  0  0  0  0
  4  5  1  0  0  0  0
  5  6  2  0  0  0  0
  5 28  1  0  0  0  0
  6  7  1  0  0  0  0
  7 23  2  0  0  0  0
  7  8  1  0  0  0  0
  8  9  2  0  0  0  0
  9 10  1  0  0  0  0
  9 29  1  0  0  0  0
 10 11  1  0  0  0  0
 10 23  1  0  0  0  0
 11 12  1  0  0  0  0
 11 30  1  0  0  0  0
 11 31  1  0  0  0  0
 12 13  1  0  0  0  0
 12 14  1  0  0  0  0
 12 32  1  0  0  0  0
 13 33  1  0  0  0  0
 14 15  1  0  0  0  0
 14 34  1  0  0  0  0
 14 35  1  0  0  0  0
 15 16  1  0  0  0  0
 16 22  1  0  0  0  0
 16 17  2  0  0  0  0
 17 18  1  0  0  0  0
 17 36  1  0  0  0  0
 18 19  2  0  0  0  0
 18 37  1  0  0  0  0
 19 20  1  0  0  0  0
 19 21  1  0  0  0  0
 21 22  2  0  0  0  0
 21 38  1  0  0  0  0
 22 39  1  0  0  0  0
M  END
> <s_m_source_file>
AV-unprocessed.smi

> <i_m_source_file_index>
2669

> <i_lp_mmshare_version>
43012

> <i_f3d_flags>
0

> <s_epik_input>
bjFbY0hdbmMoW05IXVtDSDNdKWMoYzEyKW4oW2NIXW4yKVtDSDJdW0NASF0oW09IXSlbQ0gyXU9jM1tjSF1bY0hdYyhDbClbY0hdW2NIXTM=

> <s_epik_cmdline>
J2VwaWtfcHl0aG9uJywgJy1waCcsICc3LjAnLCAnLXRuJywgJzgnLCAnLW1hJywgJzIwMCcsICctbWV0YWxfYmluZGluZycsICctaW1hZScsICc8aW5maWxlLm1hZT4nLCAnLW9tYWUnLCAnPG91dGZpbGUubWFlPic=

> <r_lp_tautomer_probability>
1

> <r_epik_Ionization_Penalty>
0.00733592

> <r_epik_Ionization_Penalty_Charging>
0

> <r_epik_Ionization_Penalty_Neutral>
0.00733592

> <r_epik_State_Penalty>
-0

> <r_epik_Charging_Adjusted_Penalty>
0

> <i_epik_Tot_Q>
0

> <i_epik_Tot_abs_Q>
0

> <r_epik_Metal_State_Penalty>
-0

> <b_epik_Metal_Only>
0

> <s_lp_Force_Field>
OPLS_2005

> <r_lp_Energy>
13.4458

> <b_lp_Chiralities_Consistent>
1

> <s_lp_Variant>
AV-unprocessed.smi:2669-2

> <Gold.Version>
5.8.1

> <Gold.Id.Protein>
6NUR|6NUR_protein|mol2

> <Gold.PLP.Fitness>
44.2904

> <Gold.PLP.PLP>
-44.3236

> <Gold.PLP.part.hbond>
0.0000

> <Gold.PLP.part.metal>
0.0000

> <Gold.PLP.part.buried>
-6.5500

> <Gold.PLP.part.nonpolar>
-38.6304

> <Gold.PLP.part.repulsive>
1.3464

> <Gold.PLP.ligand.clash>
0.0000

> <Gold.PLP.ligand.torsion>
1.5845

> <Gold.PLP.Chemscore.Hbond>
0.0000

> <Gold.PLP.Chemscore.CHOScore>
1.0000

> <Gold.PLP.Chemscore.Metal>
0.0000

> <Gold.Chemscore.Hbonds>
donor molecule, donor type, donor heavy atom, donor atom, acceptor molecule, acceptor atom, score
      L1  C     9    29       P1  8028  1.00

> <Gold.PLP.Chemscore.Internal.Correction>
0.1358

> <Gold.Rescore>
     Score         DG    S(hbond)    S(metal)    S(lipo)     H(rot)  DE(clash)    DE(int)     intcor
      9.45     -11.27       0.00        0.00     114.59       2.97       0.26       1.56       ----

> <Gold.Chemscore.Fitness>
9.4487

> <Gold.Chemscore.DG>
-11.2719

> <Gold.Chemscore.ZeroCoef>
-5.4800

> <Gold.Chemscore.Hbond>
0.0000

> <Gold.Chemscore.Metal>
0.0000

> <Gold.Chemscore.Lipo>
114.5885

> <Gold.Chemscore.Internal_Hbond>
0.0000

> <Gold.Chemscore.DEClash>
0.2630

> <Gold.Chemscore.DEInternal>
1.5601

> <Gold.Chemscore.Rot>
2.9746

> <Gold.Chemscore.Internal.Correction>
   9.000000E+99

> <Gold.Chemscore.Hbond.Weighted>
-0.0000

> <Gold.Chemscore.Metal.Weighted>
-0.0000

> <Gold.Chemscore.Lipo.Weighted>
-13.4069

> <Gold.Chemscore.Internal_Hbond.Weighted>
0.0000

> <Gold.Chemscore.DEClash.Weighted>
0.2630

> <Gold.Chemscore.DEInternal.Weighted>
1.5601

> <Gold.Chemscore.Rot.Weighted>
7.6150

> <Gold.Chemscore.Internal.Correction.Weighted>
   9.000000E+99

> <Gold.Protein.RotatedTorsions>
[ 6907 6896 6895 6894 ] final  -71.68 input  -60.11 | X-H torsion
[ 7974 7965 7964 7962 ] final  101.35 input  175.53 | X-H torsion
[ 8008 7997 7996 7995 ] final   12.09 input   59.86 | X-H torsion
[ 10167 10162 10161 10158 ] final   80.33 input  -65.29 | X-H torsion
[ 10718 10713 10712 10709 ] final  -37.29 input   66.30 | X-H torsion
[ 10763 10752 10751 10750 ] final -175.58 input  -60.55 | X-H torsion
[ 11005 11000 10999 10996 ] final    5.01 input  -57.11 | X-H torsion

> <Gold.Protein.ActiveResidues>
 VAL166  LYS551  ARG553  GLY616  TRP617  ASP618  TYR619  PRO620  LYS621  CYS622 
 ASP623  PHE694  ASN695  SER759  ASP760  ASP761  ALA762  ILE779  LEU786  VAL792 
 PHE793  MET794  SER795  GLU796  ALA797  LYS798  CYS799  TRP800  GLU811  SER814 

> <Gold.Protein.RotatedAtoms>
  150.7202  134.5273  159.5682 H   0  0  0  0  0  0  0  0  0  0  0  0  # atno 6907 bound_to 6896
  152.2814  134.7821  160.0405 H   0  0  0  0  0  0  0  0  0  0  0  0  # atno 6908 bound_to 6896
  151.8467  133.3397  159.3697 H   0  0  0  0  0  0  0  0  0  0  0  0  # atno 6909 bound_to 6896
  145.3735  139.2393  143.3442 H   0  0  0  0  0  0  0  0  0  0  0  0  # atno 7974 bound_to 7965
  154.8158  140.2875  155.5821 H   0  0  0  0  0  0  0  0  0  0  0  0  # atno 8008 bound_to 7997
  156.2993  140.2559  156.2986 H   0  0  0  0  0  0  0  0  0  0  0  0  # atno 8009 bound_to 7997
  154.9395  140.0381  157.2079 H   0  0  0  0  0  0  0  0  0  0  0  0  # atno 8010 bound_to 7997
  139.9509  144.6026  150.8161 H   0  0  0  0  0  0  0  0  0  0  0  0  # atno 10167 bound_to 10162
  156.3170  130.4260  149.7996 H   0  0  0  0  0  0  0  0  0  0  0  0  # atno 10718 bound_to 10713
  154.5826  135.2837  155.0717 H   0  0  0  0  0  0  0  0  0  0  0  0  # atno 10763 bound_to 10752
  154.2047  135.6418  153.5101 H   0  0  0  0  0  0  0  0  0  0  0  0  # atno 10764 bound_to 10752
  153.0093  135.5477  154.6485 H   0  0  0  0  0  0  0  0  0  0  0  0  # atno 10765 bound_to 10752
  140.5755  134.0062  155.8026 H   0  0  0  0  0  0  0  0  0  0  0  0  # atno 11005 bound_to 11000
  146.2874  140.4390  142.8752 LP  0  0  0  0  0  0  0  0  0  0  0  0  # atno 17320 bound_to 7965
  144.8559  140.7069  143.6138 LP  0  0  0  0  0  0  0  0  0  0  0  0  # atno 17321 bound_to 7965
  140.7583  143.3104  151.2859 LP  0  0  0  0  0  0  0  0  0  0  0  0  # atno 17342 bound_to 10162
  139.6629  144.0157  152.2704 LP  0  0  0  0  0  0  0  0  0  0  0  0  # atno 17343 bound_to 10162
  156.5318  130.8261  151.3240 LP  0  0  0  0  0  0  0  0  0  0  0  0  # atno 17370 bound_to 10713
  157.7403  130.9849  150.2372 LP  0  0  0  0  0  0  0  0  0  0  0  0  # atno 17371 bound_to 10713
  141.1029  133.9739  157.3047 LP  0  0  0  0  0  0  0  0  0  0  0  0  # atno 17394 bound_to 11000
  139.9341  135.0198  156.8499 LP  0  0  0  0  0  0  0  0  0  0  0  0  # atno 17395 bound_to 11000

$$$$
