AV-unprocessed.smi:72|AV-procd|sdf|689|dock1
  -GOLD-   2262017 03D 1   1.00000     0.00000
 Structure written by MMmdl.
 29 30  0  0  0  0  0  0  0  0  1 V2000
  154.0241  138.2992  155.0091 N   0  0  0  0  0  0  0  0  0  0  0  0
  152.7527  138.4569  154.9105 C   0  0  0  0  0  0  0  0  0  0  0  0
  151.8750  137.5859  154.2478 N   0  0  0  0  0  0  0  0  0  0  0  0
  150.6096  137.8733  154.2283 C   0  0  0  0  0  0  0  0  0  0  0  0
  150.0753  139.0685  154.8670 N   0  0  0  0  0  0  0  0  0  0  0  0
  148.5956  139.4114  154.8479 C   0  0  2  0  0  0  0  0  0  0  0  0
  147.8721  138.3859  154.2299 O   0  0  0  0  0  0  0  0  0  0  0  0
  147.4100  138.8112  152.9511 C   0  0  1  0  0  0  0  0  0  0  0  0
  146.2007  137.9790  152.4902 C   0  0  0  0  0  0  0  0  0  0  0  0
  146.4687  137.3889  151.2360 O   0  0  0  0  0  0  0  0  0  0  0  0
  147.1439  140.3065  153.1635 C   0  0  1  0  0  0  0  0  0  0  0  0
  145.8913  140.5195  153.7894 O   0  0  0  0  0  0  0  0  0  0  0  0
  148.2781  140.7246  154.0901 C   0  0  2  0  0  0  0  0  0  0  0  0
  149.3604  141.2232  153.3227 O   0  0  0  0  0  0  0  0  0  0  0  0
  150.9505  139.9571  155.5384 C   0  0  0  0  0  0  0  0  0  0  0  0
  150.5523  140.9862  156.0838 O   0  0  0  0  0  0  0  0  0  0  0  0
  152.2550  139.6085  155.5329 N   0  0  0  0  0  0  0  0  0  0  0  0
  148.2907  139.4382  155.8956 H   0  0  0  0  0  0  0  0  0  0  0  0
  148.2226  138.7170  152.2284 H   0  0  0  0  0  0  0  0  0  0  0  0
  147.1460  140.8574  152.2218 H   0  0  0  0  0  0  0  0  0  0  0  0
  147.9751  141.4966  154.7989 H   0  0  0  0  0  0  0  0  0  0  0  0
  154.3046  137.4512  154.5376 H   0  0  0  0  0  0  0  0  0  0  0  0
  149.8763  137.2367  153.7337 H   0  0  0  0  0  0  0  0  0  0  0  0
  145.9422  137.2119  153.2209 H   0  0  0  0  0  0  0  0  0  0  0  0
  145.3278  138.6208  152.3672 H   0  0  0  0  0  0  0  0  0  0  0  0
  147.3866  137.1667  151.1984 H   0  0  0  0  0  0  0  0  0  0  0  0
  145.2071  140.2997  153.1759 H   0  0  0  0  0  0  0  0  0  0  0  0
  149.6022  140.5667  152.6872 H   0  0  0  0  0  0  0  0  0  0  0  0
  152.9063  140.2206  156.0023 H   0  0  0  0  0  0  0  0  0  0  0  0
  1  2  2  0  0  0  0
  1 22  1  0  0  0  0
  2 17  1  0  0  0  0
  2  3  1  0  0  0  0
  3  4  2  0  0  0  0
  4  5  1  0  0  0  0
  4 23  1  0  0  0  0
  5  6  1  0  0  0  0
  5 15  1  0  0  0  0
  6 18  1  0  0  0  0
  6 13  1  0  0  0  0
  6  7  1  0  0  0  0
  7  8  1  0  0  0  0
  8 19  1  0  0  0  0
  8  9  1  0  0  0  0
  8 11  1  0  0  0  0
  9 10  1  0  0  0  0
  9 24  1  0  0  0  0
  9 25  1  0  0  0  0
 10 26  1  0  0  0  0
 11 20  1  0  0  0  0
 11 12  1  0  0  0  0
 11 13  1  0  0  0  0
 12 27  1  0  0  0  0
 13 21  1  0  0  0  0
 13 14  1  0  0  0  0
 14 28  1  0  0  0  0
 15 16  2  0  0  0  0
 15 17  1  0  0  0  0
 17 29  1  0  0  0  0
M  END
> <s_m_source_file>
AV-unprocessed.smi

> <i_m_source_file_index>
72

> <i_lp_mmshare_version>
43012

> <i_f3d_flags>
0

> <s_epik_input>
W05IMl1jMW5bY0hdbihjKD1PKW4xKVtDQEBIXTJPW0NASF0oW0NIMl1bT0hdKVtDQEBIXShbT0hdKVtDQEhdMltPSF0=

> <s_epik_cmdline>
J2VwaWtfcHl0aG9uJywgJy1waCcsICc3LjAnLCAnLXRuJywgJzgnLCAnLW1hJywgJzIwMCcsICctbWV0YWxfYmluZGluZycsICctaW1hZScsICc8aW5maWxlLm1hZT4nLCAnLW9tYWUnLCAnPG91dGZpbGUubWFlPic=

> <r_lp_tautomer_probability>
7.17554e-07

> <r_epik_Ionization_Penalty>
0.0066451

> <r_epik_Ionization_Penalty_Charging>
0.00663793

> <r_epik_Ionization_Penalty_Neutral>
7.17052e-06

> <r_epik_State_Penalty>
0.419231

> <r_epik_Charging_Adjusted_Penalty>
0.425868

> <i_epik_Tot_Q>
0

> <i_epik_Tot_abs_Q>
0

> <r_epik_Metal_State_Penalty>
1.44144

> <b_epik_Metal_Only>
0

> <s_epik_Chemistry_Notes>
This compound contains an acetal/aminal-like group ( X-CH(R)-Y where X, Y are N, S, or O) that may be acid/base labile, releasing an aldehyde.

> <s_lp_Force_Field>
OPLS_2005

> <r_lp_Energy>
44.3496

> <b_lp_Chiralities_Consistent>
1

> <s_lp_Variant>
AV-unprocessed.smi:72-27

> <Gold.Version>
5.8.1

> <Gold.Id.Protein>
6NUR|6NUR_protein|mol2

> <Gold.PLP.Fitness>
46.4310

> <Gold.PLP.PLP>
-30.9306

> <Gold.PLP.part.hbond>
-8.1826

> <Gold.PLP.part.metal>
0.0000

> <Gold.PLP.part.buried>
-3.4667

> <Gold.PLP.part.nonpolar>
-21.5938

> <Gold.PLP.part.repulsive>
0.5529

> <Gold.PLP.ligand.clash>
0.0000

> <Gold.PLP.ligand.torsion>
0.7789

> <Gold.PLP.Chemscore.Hbond>
4.6566

> <Gold.PLP.Chemscore.CHOScore>
1.0000

> <Gold.PLP.Chemscore.Metal>
0.0000

> <Gold.Chemscore.Hbonds>
donor molecule, donor type, donor heavy atom, donor atom, acceptor molecule, acceptor atom, score
      L1  H    10    26       P1  7948  1.00
      L1  H    12    27       P1 10175  1.00
      L1  H    14    28       P1  7957  0.99
      P1  H  7997  8010       L1     1  0.48
      P1  H  8011  8017       L1    14  0.60
      P1  H 10752 10765       L1     3  0.58
      L1  C     4    23       P1  7948  1.00

> <Gold.PLP.Chemscore.Internal.Correction>
0.0886

> <Gold.Rescore>
     Score         DG    S(hbond)    S(metal)    S(lipo)     H(rot)  DE(clash)    DE(int)     intcor
      8.58      -9.44       3.31        0.00      28.27       4.06       0.00       0.86       ----

> <Gold.Chemscore.Fitness>
8.5781

> <Gold.Chemscore.DG>
-9.4419

> <Gold.Chemscore.ZeroCoef>
-5.4800

> <Gold.Chemscore.Hbond>
3.3079

> <Gold.Chemscore.Metal>
0.0000

> <Gold.Chemscore.Lipo>
28.2666

> <Gold.Chemscore.Internal_Hbond>
0.0000

> <Gold.Chemscore.DEClash>
0.0004

> <Gold.Chemscore.DEInternal>
0.8634

> <Gold.Chemscore.Rot>
4.0600

> <Gold.Chemscore.Internal.Correction>
   9.000000E+99

> <Gold.Chemscore.Hbonds>
donor molecule, donor type, donor heavy atom, donor atom, acceptor molecule, acceptor atom, score
      L1  H    10    26       P1  7948  0.97
      L1  H    12    27       P1 10175  0.97
      L1  H    14    28       P1  7957  0.92
      P1  H  7997  8010       L1     1  0.11
      P1  H  8011  8017       L1    14  0.04
      P1  H 10752 10765       L1     3  0.22

> <Gold.Chemscore.Hbond.Weighted>
-11.0483

> <Gold.Chemscore.Metal.Weighted>
-0.0000

> <Gold.Chemscore.Lipo.Weighted>
-3.3072

> <Gold.Chemscore.Internal_Hbond.Weighted>
0.0000

> <Gold.Chemscore.DEClash.Weighted>
0.0004

> <Gold.Chemscore.DEInternal.Weighted>
0.8634

> <Gold.Chemscore.Rot.Weighted>
10.3936

> <Gold.Chemscore.Internal.Correction.Weighted>
   9.000000E+99

> <Gold.Protein.RotatedTorsions>
[ 6907 6896 6895 6894 ] final   28.84 input  -60.11 | X-H torsion
[ 7974 7965 7964 7962 ] final   29.37 input  175.53 | X-H torsion
[ 8008 7997 7996 7995 ] final  105.51 input   59.86 | X-H torsion
[ 10167 10162 10161 10158 ] final   67.35 input  -65.29 | X-H torsion
[ 10718 10713 10712 10709 ] final  -69.11 input   66.30 | X-H torsion
[ 10763 10752 10751 10750 ] final  156.46 input  -60.55 | X-H torsion
[ 11005 11000 10999 10996 ] final   44.65 input  -57.11 | X-H torsion

> <Gold.Protein.ActiveResidues>
 VAL166  LYS551  ARG553  GLY616  TRP617  ASP618  TYR619  PRO620  LYS621  CYS622 
 ASP623  PHE694  ASN695  SER759  ASP760  ASP761  ALA762  ILE779  LEU786  VAL792 
 PHE793  MET794  SER795  GLU796  ALA797  LYS798  CYS799  TRP800  GLU811  SER814 

> <Gold.Protein.RotatedAtoms>
  152.0228  134.9813  160.0570 H   0  0  0  0  0  0  0  0  0  0  0  0  # atno 6907 bound_to 6896
  152.1321  133.4409  159.4734 H   0  0  0  0  0  0  0  0  0  0  0  0  # atno 6908 bound_to 6896
  150.6857  134.2327  159.4484 H   0  0  0  0  0  0  0  0  0  0  0  0  # atno 6909 bound_to 6896
  146.1675  139.6930  142.8991 H   0  0  0  0  0  0  0  0  0  0  0  0  # atno 7974 bound_to 7965
  156.1665  140.3129  155.8898 H   0  0  0  0  0  0  0  0  0  0  0  0  # atno 8008 bound_to 7997
  155.3676  140.0480  157.3063 H   0  0  0  0  0  0  0  0  0  0  0  0  # atno 8009 bound_to 7997
  154.5197  140.2194  155.9009 H   0  0  0  0  0  0  0  0  0  0  0  0  # atno 8010 bound_to 7997
  140.0905  144.4992  150.7102 H   0  0  0  0  0  0  0  0  0  0  0  0  # atno 10167 bound_to 10162
  156.0472  130.4306  150.2099 H   0  0  0  0  0  0  0  0  0  0  0  0  # atno 10718 bound_to 10713
  154.1847  135.2798  155.3041 H   0  0  0  0  0  0  0  0  0  0  0  0  # atno 10763 bound_to 10752
  154.5976  135.5540  153.7344 H   0  0  0  0  0  0  0  0  0  0  0  0  # atno 10764 bound_to 10752
  153.0128  135.6383  154.1985 H   0  0  0  0  0  0  0  0  0  0  0  0  # atno 10765 bound_to 10752
  140.1532  134.4435  155.8367 H   0  0  0  0  0  0  0  0  0  0  0  0  # atno 11005 bound_to 11000
  145.4429  141.0423  143.2847 LP  0  0  0  0  0  0  0  0  0  0  0  0  # atno 17320 bound_to 7965
  144.8114  139.5956  143.7028 LP  0  0  0  0  0  0  0  0  0  0  0  0  # atno 17321 bound_to 7965
  140.7031  143.2448  151.4807 LP  0  0  0  0  0  0  0  0  0  0  0  0  # atno 17342 bound_to 10162
  139.5727  144.1890  152.1860 LP  0  0  0  0  0  0  0  0  0  0  0  0  # atno 17343 bound_to 10162
  157.0187  130.9973  151.3346 LP  0  0  0  0  0  0  0  0  0  0  0  0  # atno 17370 bound_to 10713
  157.5359  130.8088  149.7972 LP  0  0  0  0  0  0  0  0  0  0  0  0  # atno 17371 bound_to 10713
  141.2201  133.6881  156.7460 LP  0  0  0  0  0  0  0  0  0  0  0  0  # atno 17394 bound_to 11000
  140.2579  134.8489  157.3731 LP  0  0  0  0  0  0  0  0  0  0  0  0  # atno 17395 bound_to 11000

$$$$
