AV-unprocessed.smi:38|AV-procd|sdf|339|dock9
  -GOLD-   2262016173D 1   1.00000     0.00000
 Structure written by MMmdl.
 28 29  0  0  0  0  0  0  0  0  1 V2000
  140.4996  134.9469  154.0753 O   0  0  0  0  0  0  0  0  0  0  0  0
  141.5921  135.3820  153.7165 C   0  0  0  0  0  0  0  0  0  0  0  0
  142.6865  134.5205  153.5952 N   0  0  0  0  0  0  0  0  0  0  0  0
  143.9731  134.8929  153.2005 C   0  0  0  0  0  0  0  0  0  0  0  0
  144.8567  134.0414  153.1133 O   0  0  0  0  0  0  0  0  0  0  0  0
  144.1870  136.2586  152.9084 N   0  0  0  0  0  0  0  0  0  0  0  0
  145.5592  136.7276  152.4824 C   0  0  1  0  0  0  0  0  0  0  0  0
  145.4563  137.8450  151.4391 C   0  0  0  0  0  0  0  0  0  0  0  0
  146.5697  138.7821  151.8631 C   0  0  2  0  0  0  0  0  0  0  0  0
  147.7958  138.4007  151.2675 O   0  0  0  0  0  0  0  0  0  0  0  0
  146.5793  138.6015  153.3879 C   0  0  2  0  0  0  0  0  0  0  0  0
  147.8826  138.9570  154.1241 C   0  0  0  0  0  0  0  0  0  0  0  0
  148.9805  138.3092  153.5172 O   0  0  0  0  0  0  0  0  0  0  0  0
  146.2304  137.2353  153.5988 O   0  0  0  0  0  0  0  0  0  0  0  0
  143.1250  137.1481  153.0026 C   0  0  0  0  0  0  0  0  0  0  0  0
  141.8808  136.7735  153.3828 C   0  0  0  0  0  0  0  0  0  0  0  0
  140.9020  137.6920  153.4481 F   0  0  0  0  0  0  0  0  0  0  0  0
  142.5320  133.5455  153.8074 H   0  0  0  0  0  0  0  0  0  0  0  0
  146.1224  135.8617  152.1315 H   0  0  0  0  0  0  0  0  0  0  0  0
  146.3591  139.8141  151.5808 H   0  0  0  0  0  0  0  0  0  0  0  0
  145.7676  139.1996  153.8050 H   0  0  0  0  0  0  0  0  0  0  0  0
  145.5517  137.4551  150.4250 H   0  0  0  0  0  0  0  0  0  0  0  0
  144.4927  138.3482  151.5324 H   0  0  0  0  0  0  0  0  0  0  0  0
  148.4581  139.0264  151.5200 H   0  0  0  0  0  0  0  0  0  0  0  0
  148.0525  140.0328  154.0765 H   0  0  0  0  0  0  0  0  0  0  0  0
  147.8337  138.6907  155.1801 H   0  0  0  0  0  0  0  0  0  0  0  0
  148.6554  137.7490  152.8289 H   0  0  0  0  0  0  0  0  0  0  0  0
  143.2830  138.1878  152.7596 H   0  0  0  0  0  0  0  0  0  0  0  0
  1  2  2  0  0  0  0
  2 16  1  0  0  0  0
  2  3  1  0  0  0  0
  3 18  1  0  0  0  0
  3  4  1  0  0  0  0
  4  5  2  0  0  0  0
  4  6  1  0  0  0  0
  6  7  1  0  0  0  0
  6 15  1  0  0  0  0
  7 19  1  0  0  0  0
  7 14  1  0  0  0  0
  7  8  1  0  0  0  0
  8  9  1  0  0  0  0
  8 22  1  0  0  0  0
  8 23  1  0  0  0  0
  9 20  1  0  0  0  0
  9 10  1  0  0  0  0
  9 11  1  0  0  0  0
 10 24  1  0  0  0  0
 11 21  1  0  0  0  0
 11 12  1  0  0  0  0
 11 14  1  0  0  0  0
 12 13  1  0  0  0  0
 12 25  1  0  0  0  0
 12 26  1  0  0  0  0
 13 27  1  0  0  0  0
 15 16  2  0  0  0  0
 15 28  1  0  0  0  0
 16 17  1  0  0  0  0
M  END
> <s_m_source_file>
AV-unprocessed.smi

> <i_m_source_file_index>
38

> <i_lp_mmshare_version>
43012

> <i_f3d_flags>
0

> <s_epik_input>
Tz1jMVtuSF1jKD1PKW4oW2NIXWMxRilbQ0BIXTJbQ0gyXVtDQEhdKFtPSF0pW0NASF0oTzIpW0NIMl1bT0hd

> <s_epik_cmdline>
J2VwaWtfcHl0aG9uJywgJy1waCcsICc3LjAnLCAnLXRuJywgJzgnLCAnLW1hJywgJzIwMCcsICctbWV0YWxfYmluZGluZycsICctaW1hZScsICc8aW5maWxlLm1hZT4nLCAnLW9tYWUnLCAnPG91dGZpbGUubWFlPic=

> <r_lp_tautomer_probability>
0.999537

> <r_epik_Ionization_Penalty>
0.0357432

> <r_epik_Ionization_Penalty_Charging>
0.0357431

> <r_epik_Ionization_Penalty_Neutral>
1.19946e-07

> <r_epik_State_Penalty>
0.0298169

> <r_epik_Charging_Adjusted_Penalty>
0.06556

> <i_epik_Tot_Q>
0

> <i_epik_Tot_abs_Q>
0

> <r_epik_Metal_State_Penalty>
2.348

> <b_epik_Metal_Only>
0

> <s_epik_Chemistry_Notes>
This compound contains an acetal/aminal-like group ( X-CH(R)-Y where X, Y are N, S, or O) that may be acid/base labile, releasing an aldehyde.

> <s_lp_Force_Field>
OPLS_2005

> <r_lp_Energy>
29.3974

> <b_lp_Chiralities_Consistent>
1

> <s_lp_Variant>
AV-unprocessed.smi:38-5

> <Gold.Version>
5.8.1

> <Gold.Id.Protein>
6NUR|6NUR_protein|mol2

> <Gold.PLP.Fitness>
39.7702

> <Gold.PLP.PLP>
-22.8618

> <Gold.PLP.part.hbond>
-6.9593

> <Gold.PLP.part.metal>
0.0000

> <Gold.PLP.part.buried>
2.7504

> <Gold.PLP.part.nonpolar>
-20.7271

> <Gold.PLP.part.repulsive>
0.4309

> <Gold.PLP.ligand.clash>
0.0000

> <Gold.PLP.ligand.torsion>
0.7220

> <Gold.PLP.Chemscore.Hbond>
4.9587

> <Gold.PLP.Chemscore.CHOScore>
1.1580

> <Gold.PLP.Chemscore.Metal>
0.0000

> <Gold.Chemscore.Hbonds>
donor molecule, donor type, donor heavy atom, donor atom, acceptor molecule, acceptor atom, score
      L1  H     3    18       P1 10957  1.00
      L1  H    10    24       P1  7957  0.98
      L1  H    13    27       P1  7948  0.90
      P1  H  7954  7966       L1    10  0.90
      P1  H 11000 11005       L1     1  1.00
      L1  C    15    28       P1 10175  1.00

> <Gold.PLP.Chemscore.Internal.Correction>
0.0022

> <Gold.Rescore>
     Score         DG    S(hbond)    S(metal)    S(lipo)     H(rot)  DE(clash)    DE(int)     intcor
     13.04     -15.99       4.16        0.00      34.69       2.91       2.23       0.72       ----

> <Gold.Chemscore.Fitness>
13.0407

> <Gold.Chemscore.DG>
-15.9870

> <Gold.Chemscore.ZeroCoef>
-5.4800

> <Gold.Chemscore.Hbond>
4.1642

> <Gold.Chemscore.Metal>
0.0000

> <Gold.Chemscore.Lipo>
34.6885

> <Gold.Chemscore.Internal_Hbond>
0.0000

> <Gold.Chemscore.DEClash>
2.2299

> <Gold.Chemscore.DEInternal>
0.7164

> <Gold.Chemscore.Rot>
2.9141

> <Gold.Chemscore.Internal.Correction>
   9.000000E+99

> <Gold.Chemscore.Hbonds>
donor molecule, donor type, donor heavy atom, donor atom, acceptor molecule, acceptor atom, score
      L1  H     3    18       P1 10957  0.93
      L1  H    10    24       P1  7957  0.61
      L1  H    13    27       P1  7948  0.88
      P1  H  7954  7966       L1    10  0.46
      P1  H 11000 11005       L1     1  0.98

> <Gold.Chemscore.Hbond.Weighted>
-13.9085

> <Gold.Chemscore.Metal.Weighted>
-0.0000

> <Gold.Chemscore.Lipo.Weighted>
-4.0586

> <Gold.Chemscore.Internal_Hbond.Weighted>
0.0000

> <Gold.Chemscore.DEClash.Weighted>
2.2299

> <Gold.Chemscore.DEInternal.Weighted>
0.7164

> <Gold.Chemscore.Rot.Weighted>
7.4601

> <Gold.Chemscore.Internal.Correction.Weighted>
   9.000000E+99

> <Gold.Protein.RotatedTorsions>
[ 6907 6896 6895 6894 ] final -109.73 input  -60.11 | X-H torsion
[ 7974 7965 7964 7962 ] final  163.75 input  175.53 | X-H torsion
[ 8008 7997 7996 7995 ] final  114.21 input   59.86 | X-H torsion
[ 10167 10162 10161 10158 ] final   70.40 input  -65.29 | X-H torsion
[ 10718 10713 10712 10709 ] final  -72.22 input   66.30 | X-H torsion
[ 10763 10752 10751 10750 ] final -138.98 input  -60.55 | X-H torsion
[ 11005 11000 10999 10996 ] final   34.03 input  -57.11 | X-H torsion

> <Gold.Protein.ActiveResidues>
 VAL166  LYS551  ARG553  GLY616  TRP617  ASP618  TYR619  PRO620  LYS621  CYS622 
 ASP623  PHE694  ASN695  SER759  ASP760  ASP761  ALA762  ILE779  LEU786  VAL792 
 PHE793  MET794  SER795  GLU796  ALA797  LYS798  CYS799  TRP800  GLU811  SER814 

> <Gold.Protein.RotatedAtoms>
  150.7580  133.9487  159.3478 H   0  0  0  0  0  0  0  0  0  0  0  0  # atno 6907 bound_to 6896
  151.7402  135.0854  160.0324 H   0  0  0  0  0  0  0  0  0  0  0  0  # atno 6908 bound_to 6896
  152.3533  133.6169  159.5997 H   0  0  0  0  0  0  0  0  0  0  0  0  # atno 6909 bound_to 6896
  144.7575  139.8227  143.6344 H   0  0  0  0  0  0  0  0  0  0  0  0  # atno 7974 bound_to 7965
  156.2307  140.2964  156.0181 H   0  0  0  0  0  0  0  0  0  0  0  0  # atno 8008 bound_to 7997
  155.2233  140.0416  157.2968 H   0  0  0  0  0  0  0  0  0  0  0  0  # atno 8009 bound_to 7997
  154.5991  140.2422  155.7825 H   0  0  0  0  0  0  0  0  0  0  0  0  # atno 8010 bound_to 7997
  140.0574  144.5261  150.7319 H   0  0  0  0  0  0  0  0  0  0  0  0  # atno 10167 bound_to 10162
  156.0329  130.4367  150.2560 H   0  0  0  0  0  0  0  0  0  0  0  0  # atno 10718 bound_to 10713
  154.8622  135.3596  154.5472 H   0  0  0  0  0  0  0  0  0  0  0  0  # atno 10763 bound_to 10752
  153.6092  135.7010  153.5358 H   0  0  0  0  0  0  0  0  0  0  0  0  # atno 10764 bound_to 10752
  153.3224  135.4147  155.1388 H   0  0  0  0  0  0  0  0  0  0  0  0  # atno 10765 bound_to 10752
  140.2570  134.3236  155.7870 H   0  0  0  0  0  0  0  0  0  0  0  0  # atno 11005 bound_to 11000
  146.1603  139.4715  142.9992 LP  0  0  0  0  0  0  0  0  0  0  0  0  # atno 17320 bound_to 7965
  145.6728  141.0212  143.1648 LP  0  0  0  0  0  0  0  0  0  0  0  0  # atno 17321 bound_to 7965
  140.7188  143.2569  151.4346 LP  0  0  0  0  0  0  0  0  0  0  0  0  # atno 17342 bound_to 10162
  139.5915  144.1489  152.2094 LP  0  0  0  0  0  0  0  0  0  0  0  0  # atno 17343 bound_to 10162
  157.0661  131.0103  151.3206 LP  0  0  0  0  0  0  0  0  0  0  0  0  # atno 17370 bound_to 10713
  157.5034  130.7894  149.7629 LP  0  0  0  0  0  0  0  0  0  0  0  0  # atno 17371 bound_to 10713
  141.2195  133.7387  156.9127 LP  0  0  0  0  0  0  0  0  0  0  0  0  # atno 17394 bound_to 11000
  140.1501  134.9235  157.2582 LP  0  0  0  0  0  0  0  0  0  0  0  0  # atno 17395 bound_to 11000

$$$$
