AV-unprocessed.smi:1570|AV-procd|sdf|6323|dock8
  -GOLD-   22720 6533D 1   1.00000     0.00000
 Structure written by MMmdl.
 52 54  0  0  0  0  0  0  0  0  2 V2000
  154.4204  140.0660  161.6212 C   0  0  0  0  0  0  0  0  0  0  0  0
  154.6622  141.1420  160.5552 C   0  0  0  0  0  0  0  0  0  0  0  0
  153.5765  141.1706  159.5784 N   0  0  0  0  0  0  0  0  0  0  0  0
  153.0032  140.1023  158.9773 C   0  0  0  0  0  0  0  0  0  0  0  0
  153.3133  138.9228  159.1453 O   0  0  0  0  0  0  0  0  0  0  0  0
  152.0141  140.5534  158.1695 N   0  0  0  0  0  0  0  0  0  0  0  0
  151.1379  139.7347  157.3322 C   0  0  0  0  0  0  0  0  0  0  0  0
  151.4430  139.9176  155.8314 C   0  0  1  0  0  0  0  0  0  0  0  0
  152.8129  139.6344  155.6218 O   0  0  0  0  0  0  0  0  0  0  0  0
  150.6253  138.9438  154.9584 C   0  0  0  0  0  0  0  0  0  0  0  0
  149.3372  139.5330  154.5117 N   0  3  1  0  0  0  0  0  0  0  0  0
  148.4489  138.5420  153.8623 C   0  0  0  0  0  0  0  0  0  0  0  0
  147.1835  139.2299  153.3182 C   0  0  1  0  0  0  0  0  0  0  0  0
  146.1944  138.2240  152.7189 C   0  0  0  0  0  0  0  0  0  0  0  0
  146.5219  139.9160  154.3780 O   0  0  0  0  0  0  0  0  0  0  0  0
  147.3167  140.8930  155.0502 C   0  0  2  0  0  0  0  0  0  0  0  0
  147.5669  142.1403  154.1838 C   0  0  0  0  0  0  0  0  0  0  0  0
  148.6084  140.2479  155.5886 C   0  0  0  0  0  0  0  0  0  0  0  0
  151.9425  141.9508  158.2688 C   0  0  0  0  0  0  0  0  0  0  0  0
  151.0861  142.8821  157.6553 C   0  0  0  0  0  0  0  0  0  0  0  0
  151.2741  144.2461  157.9804 C   0  0  0  0  0  0  0  0  0  0  0  0
  152.2874  144.6441  158.8903 C   0  0  0  0  0  0  0  0  0  0  0  0
  153.1335  143.6862  159.4961 C   0  0  0  0  0  0  0  0  0  0  0  0
  152.9262  142.3384  159.1549 C   0  0  0  0  0  0  0  0  0  0  0  0
  155.2320  140.0523  162.3487 H   0  0  0  0  0  0  0  0  0  0  0  0
  154.3578  139.0735  161.1737 H   0  0  0  0  0  0  0  0  0  0  0  0
  153.4921  140.2489  162.1635 H   0  0  0  0  0  0  0  0  0  0  0  0
  154.7566  142.1210  161.0257 H   0  0  0  0  0  0  0  0  0  0  0  0
  155.6120  140.9571  160.0511 H   0  0  0  0  0  0  0  0  0  0  0  0
  151.1808  138.6842  157.6210 H   0  0  0  0  0  0  0  0  0  0  0  0
  150.1135  140.0493  157.5376 H   0  0  0  0  0  0  0  0  0  0  0  0
  151.2431  140.9463  155.5341 H   0  0  0  0  0  0  0  0  0  0  0  0
  152.8832  138.8670  155.0745 H   0  0  0  0  0  0  0  0  0  0  0  0
  151.2268  138.6578  154.0939 H   0  0  0  0  0  0  0  0  0  0  0  0
  150.4200  138.0195  155.5012 H   0  0  0  0  0  0  0  0  0  0  0  0
  148.9779  138.0537  153.0429 H   0  0  0  0  0  0  0  0  0  0  0  0
  148.1825  137.7648  154.5809 H   0  0  0  0  0  0  0  0  0  0  0  0
  147.4589  139.9379  152.5362 H   0  0  0  0  0  0  0  0  0  0  0  0
  146.6437  137.6775  151.8893 H   0  0  0  0  0  0  0  0  0  0  0  0
  145.3057  138.7297  152.3402 H   0  0  0  0  0  0  0  0  0  0  0  0
  145.8704  137.4963  153.4635 H   0  0  0  0  0  0  0  0  0  0  0  0
  146.7286  141.2206  155.9081 H   0  0  0  0  0  0  0  0  0  0  0  0
  148.0616  142.9201  154.7635 H   0  0  0  0  0  0  0  0  0  0  0  0
  146.6269  142.5520  153.8155 H   0  0  0  0  0  0  0  0  0  0  0  0
  148.2006  141.9281  153.3231 H   0  0  0  0  0  0  0  0  0  0  0  0
  148.3577  139.5383  156.3791 H   0  0  0  0  0  0  0  0  0  0  0  0
  149.2358  141.0125  156.0452 H   0  0  0  0  0  0  0  0  0  0  0  0
  150.3128  142.5768  156.9666 H   0  0  0  0  0  0  0  0  0  0  0  0
  150.6369  144.9941  157.5319 H   0  0  0  0  0  0  0  0  0  0  0  0
  152.4134  145.6909  159.1250 H   0  0  0  0  0  0  0  0  0  0  0  0
  153.9035  143.9826  160.1931 H   0  0  0  0  0  0  0  0  0  0  0  0
  149.5677  140.2151  153.8027 H   0  0  0  0  0  0  0  0  0  0  0  0
  1  2  1  0  0  0  0
  1 25  1  0  0  0  0
  1 26  1  0  0  0  0
  1 27  1  0  0  0  0
  2  3  1  0  0  0  0
  2 28  1  0  0  0  0
  2 29  1  0  0  0  0
  3 24  1  0  0  0  0
  3  4  1  0  0  0  0
  4  5  2  0  0  0  0
  4  6  1  0  0  0  0
  6  7  1  0  0  0  0
  6 19  1  0  0  0  0
  7  8  1  0  0  0  0
  7 30  1  0  0  0  0
  7 31  1  0  0  0  0
  8  9  1  0  0  0  0
  8 10  1  0  0  0  0
  8 32  1  0  0  0  0
  9 33  1  0  0  0  0
 10 11  1  0  0  0  0
 10 34  1  0  0  0  0
 10 35  1  0  0  0  0
 11 18  1  0  0  0  0
 11 12  1  0  0  0  0
 11 52  1  0  0  0  0
 12 13  1  0  0  0  0
 12 36  1  0  0  0  0
 12 37  1  0  0  0  0
 13 14  1  0  0  0  0
 13 15  1  0  0  0  0
 13 38  1  0  0  0  0
 14 39  1  0  0  0  0
 14 40  1  0  0  0  0
 14 41  1  0  0  0  0
 15 16  1  0  0  0  0
 16 17  1  0  0  0  0
 16 18  1  0  0  0  0
 16 42  1  0  0  0  0
 17 43  1  0  0  0  0
 17 44  1  0  0  0  0
 17 45  1  0  0  0  0
 18 46  1  0  0  0  0
 18 47  1  0  0  0  0
 19 24  2  0  0  0  0
 19 20  1  0  0  0  0
 20 21  2  0  0  0  0
 20 48  1  0  0  0  0
 21 22  1  0  0  0  0
 21 49  1  0  0  0  0
 22 23  2  0  0  0  0
 22 50  1  0  0  0  0
 23 24  1  0  0  0  0
 23 51  1  0  0  0  0
M  CHG  1  11   1
M  END
> <s_m_source_file>
AV-unprocessed.smi

> <i_m_source_file_index>
1570

> <i_lp_mmshare_version>
43012

> <i_f3d_flags>
0

> <s_epik_input>
W2NIXTFbY0hdW2NIXVtjSF1jKGMxMiluKFtDSDJdW0NIM10pYyg9TyluMltDSDJdW0NASF0oW09IXSlbQ0gyXU4zW0NIMl1bQ0BASF0oW0NIM10pT1tDQEBIXShbQ0gzXSlbQ0gyXTM=

> <s_epik_cmdline>
J2VwaWtfcHl0aG9uJywgJy1waCcsICc3LjAnLCAnLXRuJywgJzgnLCAnLW1hJywgJzIwMCcsICctbWV0YWxfYmluZGluZycsICctaW1hZScsICc8aW5maWxlLm1hZT4nLCAnLW9tYWUnLCAnPG91dGZpbGUubWFlPic=

> <r_epik_Ionization_Penalty>
0.706332

> <r_epik_Ionization_Penalty_Charging>
0.706318

> <r_epik_Ionization_Penalty_Neutral>
1.42224e-05

> <r_epik_State_Penalty>
0.729493

> <r_epik_Charging_Adjusted_Penalty>
1.43581

> <i_epik_Tot_Q>
1

> <i_epik_Tot_abs_Q>
1

> <r_epik_Metal_State_Penalty>
0.729493

> <b_epik_Metal_Only>
0

> <s_lp_Force_Field>
OPLS_2005

> <r_lp_Energy>
55.371

> <b_lp_Chiralities_Consistent>
1

> <s_lp_Variant>
AV-unprocessed.smi:1570-12

> <Gold.Version>
5.8.1

> <Gold.Id.Protein>
6NUR|6NUR_protein|mol2

> <Gold.PLP.Fitness>
50.3443

> <Gold.PLP.PLP>
-48.7691

> <Gold.PLP.part.hbond>
-1.0000

> <Gold.PLP.part.metal>
0.0000

> <Gold.PLP.part.buried>
-3.1714

> <Gold.PLP.part.nonpolar>
-45.4673

> <Gold.PLP.part.repulsive>
0.2074

> <Gold.PLP.ligand.clash>
0.0000

> <Gold.PLP.ligand.torsion>
0.7539

> <Gold.PLP.Chemscore.Hbond>
1.0000

> <Gold.PLP.Chemscore.CHOScore>
0.0000

> <Gold.PLP.Chemscore.Metal>
0.0000

> <Gold.Chemscore.Hbonds>
donor molecule, donor type, donor heavy atom, donor atom, acceptor molecule, acceptor atom, score
      P1  H  7997  8008       L1     9  1.00

> <Gold.PLP.Chemscore.Internal.Correction>
0.0829

> <Gold.Rescore>
     Score         DG    S(hbond)    S(metal)    S(lipo)     H(rot)  DE(clash)    DE(int)     intcor
     19.29     -20.17       0.96        0.00     144.81       2.13       0.33       0.55       ----

> <Gold.Chemscore.Fitness>
19.2904

> <Gold.Chemscore.DG>
-20.1706

> <Gold.Chemscore.ZeroCoef>
-5.4800

> <Gold.Chemscore.Hbond>
0.9586

> <Gold.Chemscore.Metal>
0.0000

> <Gold.Chemscore.Lipo>
144.8077

> <Gold.Chemscore.Internal_Hbond>
0.0000

> <Gold.Chemscore.DEClash>
0.3273

> <Gold.Chemscore.DEInternal>
0.5529

> <Gold.Chemscore.Rot>
2.1303

> <Gold.Chemscore.Internal.Correction>
   9.000000E+99

> <Gold.Chemscore.Hbonds>
donor molecule, donor type, donor heavy atom, donor atom, acceptor molecule, acceptor atom, score
      P1  H  7997  8008       L1     9  0.84

> <Gold.Chemscore.Hbond.Weighted>
-3.2017

> <Gold.Chemscore.Metal.Weighted>
-0.0000

> <Gold.Chemscore.Lipo.Weighted>
-16.9425

> <Gold.Chemscore.Internal_Hbond.Weighted>
0.0000

> <Gold.Chemscore.DEClash.Weighted>
0.3273

> <Gold.Chemscore.DEInternal.Weighted>
0.5529

> <Gold.Chemscore.Rot.Weighted>
5.4535

> <Gold.Chemscore.Internal.Correction.Weighted>
   9.000000E+99

> <Gold.Protein.RotatedTorsions>
[ 6907 6896 6895 6894 ] final  -48.37 input  -60.11 | X-H torsion
[ 7974 7965 7964 7962 ] final -178.95 input  175.53 | X-H torsion
[ 8008 7997 7996 7995 ] final  -49.67 input   59.86 | X-H torsion
[ 10167 10162 10161 10158 ] final  101.15 input  -65.29 | X-H torsion
[ 10718 10713 10712 10709 ] final  -73.30 input   66.30 | X-H torsion
[ 10763 10752 10751 10750 ] final  -34.38 input  -60.55 | X-H torsion
[ 11005 11000 10999 10996 ] final  123.01 input  -57.11 | X-H torsion

> <Gold.Protein.ActiveResidues>
 VAL166  LYS551  ARG553  GLY616  TRP617  ASP618  TYR619  PRO620  LYS621  CYS622 
 ASP623  PHE694  ASN695  SER759  ASP760  ASP761  ALA762  ILE779  LEU786  VAL792 
 PHE793  MET794  SER795  GLU796  ALA797  LYS798  CYS799  TRP800  GLU811  SER814 

> <Gold.Protein.RotatedAtoms>
  150.8912  134.8316  159.7294 H   0  0  0  0  0  0  0  0  0  0  0  0  # atno 6907 bound_to 6896
  152.4838  134.4645  159.9625 H   0  0  0  0  0  0  0  0  0  0  0  0  # atno 6908 bound_to 6896
  151.4707  133.3531  159.2858 H   0  0  0  0  0  0  0  0  0  0  0  0  # atno 6909 bound_to 6896
  144.7133  140.0791  143.6426 H   0  0  0  0  0  0  0  0  0  0  0  0  # atno 7974 bound_to 7965
  154.4048  140.1291  156.4540 H   0  0  0  0  0  0  0  0  0  0  0  0  # atno 8008 bound_to 7997
  155.7338  140.3491  155.5052 H   0  0  0  0  0  0  0  0  0  0  0  0  # atno 8009 bound_to 7997
  155.9102  140.1034  157.1275 H   0  0  0  0  0  0  0  0  0  0  0  0  # atno 8010 bound_to 7997
  139.7463  144.6997  151.0499 H   0  0  0  0  0  0  0  0  0  0  0  0  # atno 10167 bound_to 10162
  156.0286  130.4391  150.2721 H   0  0  0  0  0  0  0  0  0  0  0  0  # atno 10718 bound_to 10713
  153.8457  135.6853  153.4798 H   0  0  0  0  0  0  0  0  0  0  0  0  # atno 10763 bound_to 10752
  153.1427  135.4650  154.9518 H   0  0  0  0  0  0  0  0  0  0  0  0  # atno 10764 bound_to 10752
  154.7825  135.3273  154.7906 H   0  0  0  0  0  0  0  0  0  0  0  0  # atno 10765 bound_to 10752
  139.9293  134.9641  156.8195 H   0  0  0  0  0  0  0  0  0  0  0  0  # atno 11005 bound_to 11000
  145.9717  139.2875  143.1095 LP  0  0  0  0  0  0  0  0  0  0  0  0  # atno 17320 bound_to 7965
  145.9109  140.9181  143.0454 LP  0  0  0  0  0  0  0  0  0  0  0  0  # atno 17321 bound_to 7965
  140.7792  143.4863  150.9952 LP  0  0  0  0  0  0  0  0  0  0  0  0  # atno 17342 bound_to 10162
  139.8551  143.7388  152.3176 LP  0  0  0  0  0  0  0  0  0  0  0  0  # atno 17343 bound_to 10162
  157.0824  131.0147  151.3151 LP  0  0  0  0  0  0  0  0  0  0  0  0  # atno 17370 bound_to 10713
  157.4917  130.7826  149.7514 LP  0  0  0  0  0  0  0  0  0  0  0  0  # atno 17371 bound_to 10713
  140.6246  133.9962  155.7634 LP  0  0  0  0  0  0  0  0  0  0  0  0  # atno 17394 bound_to 11000
  141.0872  133.9972  157.3294 LP  0  0  0  0  0  0  0  0  0  0  0  0  # atno 17395 bound_to 11000

$$$$
