AV-unprocessed.smi:3025|AV-procd|sdf|11506|dock6
  -GOLD-   2272016443D 1   1.00000     0.00000
 Structure written by MMmdl.
 42 43  0  0  0  0  0  0  0  0  2 V2000
  144.4675  132.8634  150.1585 C   0  0  0  0  0  0  0  0  0  0  0  0
  144.4198  134.3732  150.4166 C   0  0  0  0  0  0  0  0  0  0  0  0
  145.2959  134.7937  151.6089 C   0  0  0  0  0  0  0  0  0  0  0  0
  145.3370  136.3157  151.8582 C   0  0  2  0  0  0  0  0  0  0  0  0
  146.1935  137.0662  150.8154 C   0  0  0  0  0  0  0  0  0  0  0  0
  146.2413  138.5782  151.0958 C   0  0  0  0  0  0  0  0  0  0  0  0
  146.7406  138.8968  152.5210 C   0  0  2  0  0  0  0  0  0  0  0  0
  148.1806  138.5946  152.6972 N   0  3  0  0  0  0  0  0  0  0  0  0
  148.6934  138.7245  154.0772 C   0  0  0  0  0  0  0  0  0  0  0  0
  150.0594  138.0411  154.2220 C   0  0  0  0  0  0  0  0  0  0  0  0
  151.0364  138.8767  154.9823 C   0  0  0  0  0  0  0  0  0  0  0  0
  152.0979  138.3549  155.6005 N   0  0  0  0  0  0  0  0  0  0  0  0
  152.7857  139.3416  156.2122 N   0  0  0  0  0  0  0  0  0  0  0  0
  152.0621  140.4173  155.9079 C   0  0  0  0  0  0  0  0  0  0  0  0
  150.9519  140.1928  155.1420 N   0  0  0  0  0  0  0  0  0  0  0  0
  145.9017  138.1330  153.5623 C   0  0  0  0  0  0  0  0  0  0  0  0
  145.8528  136.6211  153.2787 C   0  0  0  0  0  0  0  0  0  0  0  0
  152.3814  137.3858  155.6306 H   0  0  0  0  0  0  0  0  0  0  0  0
  143.8438  132.5956  149.3053 H   0  0  0  0  0  0  0  0  0  0  0  0
  144.1067  132.3038  151.0217 H   0  0  0  0  0  0  0  0  0  0  0  0
  145.4839  132.5324  149.9439 H   0  0  0  0  0  0  0  0  0  0  0  0
  144.7391  134.8912  149.5128 H   0  0  0  0  0  0  0  0  0  0  0  0
  143.3865  134.6720  150.5969 H   0  0  0  0  0  0  0  0  0  0  0  0
  144.9097  134.3023  152.5030 H   0  0  0  0  0  0  0  0  0  0  0  0
  146.3095  134.4144  151.4724 H   0  0  0  0  0  0  0  0  0  0  0  0
  144.3149  136.6922  151.7928 H   0  0  0  0  0  0  0  0  0  0  0  0
  147.2060  136.6609  150.8051 H   0  0  0  0  0  0  0  0  0  0  0  0
  145.7929  136.9118  149.8138 H   0  0  0  0  0  0  0  0  0  0  0  0
  146.8481  139.0802  150.3426 H   0  0  0  0  0  0  0  0  0  0  0  0
  145.2359  138.9850  150.9779 H   0  0  0  0  0  0  0  0  0  0  0  0
  146.6071  139.9632  152.7092 H   0  0  0  0  0  0  0  0  0  0  0  0
  148.3257  137.6365  152.4124 H   0  0  0  0  0  0  0  0  0  0  0  0
  148.7828  139.7787  154.3395 H   0  0  0  0  0  0  0  0  0  0  0  0
  147.9825  138.2760  154.7726 H   0  0  0  0  0  0  0  0  0  0  0  0
  149.9472  137.0802  154.7264 H   0  0  0  0  0  0  0  0  0  0  0  0
  150.4800  137.8287  153.2381 H   0  0  0  0  0  0  0  0  0  0  0  0
  152.3428  141.4021  156.2515 H   0  0  0  0  0  0  0  0  0  0  0  0
  146.2891  138.3125  154.5660 H   0  0  0  0  0  0  0  0  0  0  0  0
  144.8841  138.5259  153.5585 H   0  0  0  0  0  0  0  0  0  0  0  0
  145.2115  136.1391  154.0178 H   0  0  0  0  0  0  0  0  0  0  0  0
  146.8459  136.1897  153.4112 H   0  0  0  0  0  0  0  0  0  0  0  0
  148.7161  139.1936  152.0849 H   0  0  0  0  0  0  0  0  0  0  0  0
  1  2  1  0  0  0  0
  1 19  1  0  0  0  0
  1 20  1  0  0  0  0
  1 21  1  0  0  0  0
  2  3  1  0  0  0  0
  2 22  1  0  0  0  0
  2 23  1  0  0  0  0
  3  4  1  0  0  0  0
  3 24  1  0  0  0  0
  3 25  1  0  0  0  0
  4 17  1  0  0  0  0
  4  5  1  0  0  0  0
  4 26  1  0  0  0  0
  5  6  1  0  0  0  0
  5 27  1  0  0  0  0
  5 28  1  0  0  0  0
  6  7  1  0  0  0  0
  6 29  1  0  0  0  0
  6 30  1  0  0  0  0
  7  8  1  0  0  0  0
  7 16  1  0  0  0  0
  7 31  1  0  0  0  0
  8  9  1  0  0  0  0
  8 32  1  0  0  0  0
  8 42  1  0  0  0  0
  9 10  1  0  0  0  0
  9 33  1  0  0  0  0
  9 34  1  0  0  0  0
 10 35  1  0  0  0  0
 10 36  1  0  0  0  0
 10 11  1  0  0  0  0
 11 15  2  0  0  0  0
 11 12  1  0  0  0  0
 12 18  1  0  0  0  0
 12 13  1  0  0  0  0
 13 14  2  0  0  0  0
 14 15  1  0  0  0  0
 14 37  1  0  0  0  0
 16 17  1  0  0  0  0
 16 38  1  0  0  0  0
 16 39  1  0  0  0  0
 17 40  1  0  0  0  0
 17 41  1  0  0  0  0
M  CHG  1   8   1
M  END
> <s_m_source_file>
AV-unprocessed.smi

> <i_m_source_file_index>
3025

> <i_lp_mmshare_version>
43012

> <i_f3d_flags>
0

> <s_epik_input>
W0NIM11bQ0gyXVtDSDJdW0NAQEhdMVtDSDJdW0NIMl1bQ0BIXShbQ0gyXVtDSDJdMSlbTkhdW0NIMl1bQ0gyXWMybm5bY0hdW25IXTI=

> <s_epik_cmdline>
J2VwaWtfcHl0aG9uJywgJy1waCcsICc3LjAnLCAnLXRuJywgJzgnLCAnLW1hJywgJzIwMCcsICctbWV0YWxfYmluZGluZycsICctaW1hZScsICc8aW5maWxlLm1hZT4nLCAnLW9tYWUnLCAnPG91dGZpbGUubWFlPic=

> <r_lp_tautomer_probability>
0.948284

> <r_epik_Ionization_Penalty>
0.0093758

> <r_epik_Ionization_Penalty_Charging>
0.000546397

> <r_epik_Ionization_Penalty_Neutral>
0.00882941

> <r_epik_State_Penalty>
0.401098

> <r_epik_Charging_Adjusted_Penalty>
0.401645

> <i_epik_Tot_Q>
1

> <i_epik_Tot_abs_Q>
1

> <r_epik_Metal_State_Penalty>
0.634803

> <b_epik_Metal_Only>
0

> <s_lp_Force_Field>
OPLS_2005

> <r_lp_Energy>
16.9982

> <b_lp_Chiralities_Consistent>
1

> <s_lp_Variant>
AV-unprocessed.smi:3025-2

> <Gold.Version>
5.8.1

> <Gold.Id.Protein>
6NUR|6NUR_protein|mol2

> <Gold.PLP.Fitness>
41.6799

> <Gold.PLP.PLP>
-28.6187

> <Gold.PLP.part.hbond>
-4.0000

> <Gold.PLP.part.metal>
0.0000

> <Gold.PLP.part.buried>
3.3562

> <Gold.PLP.part.nonpolar>
-29.0903

> <Gold.PLP.part.repulsive>
0.2720

> <Gold.PLP.ligand.clash>
0.0000

> <Gold.PLP.ligand.torsion>
0.8472

> <Gold.PLP.Chemscore.Hbond>
4.8913

> <Gold.PLP.Chemscore.CHOScore>
0.0000

> <Gold.PLP.Chemscore.Metal>
0.0000

> <Gold.Chemscore.Hbonds>
donor molecule, donor type, donor heavy atom, donor atom, acceptor molecule, acceptor atom, score
      L1  H     8    32       P1  7948  2.00
      L1  H     8    42       P1  7957  0.98
      P1  H  7989  7998       L1    15  0.85
      P1  H  7997  8008       L1    13  0.95

> <Gold.PLP.Chemscore.Internal.Correction>
0.0818

> <Gold.Rescore>
     Score         DG    S(hbond)    S(metal)    S(lipo)     H(rot)  DE(clash)    DE(int)     intcor
     14.06     -17.45       2.97        0.00      73.54       2.56       2.67       0.73       ----

> <Gold.Chemscore.Fitness>
14.0567

> <Gold.Chemscore.DG>
-17.4519

> <Gold.Chemscore.ZeroCoef>
-5.4800

> <Gold.Chemscore.Hbond>
2.9705

> <Gold.Chemscore.Metal>
0.0000

> <Gold.Chemscore.Lipo>
73.5426

> <Gold.Chemscore.Internal_Hbond>
0.0000

> <Gold.Chemscore.DEClash>
2.6688

> <Gold.Chemscore.DEInternal>
0.7264

> <Gold.Chemscore.Rot>
2.5602

> <Gold.Chemscore.Internal.Correction>
   9.000000E+99

> <Gold.Chemscore.Hbonds>
donor molecule, donor type, donor heavy atom, donor atom, acceptor molecule, acceptor atom, score
      L1  H     8    32       P1  7948  0.99
      L1  H     8    42       P1  7957  0.91
      P1  H  7989  7998       L1    15  0.06
      P1  H  7997  8008       L1    13  0.22

> <Gold.Chemscore.Hbond.Weighted>
-9.9216

> <Gold.Chemscore.Metal.Weighted>
-0.0000

> <Gold.Chemscore.Lipo.Weighted>
-8.6045

> <Gold.Chemscore.Internal_Hbond.Weighted>
0.0000

> <Gold.Chemscore.DEClash.Weighted>
2.6688

> <Gold.Chemscore.DEInternal.Weighted>
0.7264

> <Gold.Chemscore.Rot.Weighted>
6.5542

> <Gold.Chemscore.Internal.Correction.Weighted>
   9.000000E+99

> <Gold.Protein.RotatedTorsions>
[ 6907 6896 6895 6894 ] final   55.05 input  -60.11 | X-H torsion
[ 7974 7965 7964 7962 ] final  -69.32 input  175.53 | X-H torsion
[ 8008 7997 7996 7995 ] final  -48.01 input   59.86 | X-H torsion
[ 10167 10162 10161 10158 ] final -119.76 input  -65.29 | X-H torsion
[ 10718 10713 10712 10709 ] final  169.79 input   66.30 | X-H torsion
[ 10763 10752 10751 10750 ] final  -25.14 input  -60.55 | X-H torsion
[ 11005 11000 10999 10996 ] final    8.12 input  -57.11 | X-H torsion

> <Gold.Protein.ActiveResidues>
 VAL166  LYS551  ARG553  GLY616  TRP617  ASP618  TYR619  PRO620  LYS621  CYS622 
 ASP623  PHE694  ASN695  SER759  ASP760  ASP761  ALA762  ILE779  LEU786  VAL792 
 PHE793  MET794  SER795  GLU796  ALA797  LYS798  CYS799  TRP800  GLU811  SER814 

> <Gold.Protein.RotatedAtoms>
  152.3500  134.7018  160.0238 H   0  0  0  0  0  0  0  0  0  0  0  0  # atno 6907 bound_to 6896
  151.7375  133.3315  159.3365 H   0  0  0  0  0  0  0  0  0  0  0  0  # atno 6908 bound_to 6896
  150.7534  134.6241  159.6196 H   0  0  0  0  0  0  0  0  0  0  0  0  # atno 6909 bound_to 6896
  145.7053  140.9100  143.0709 H   0  0  0  0  0  0  0  0  0  0  0  0  # atno 7974 bound_to 7965
  154.4023  140.1332  156.4269 H   0  0  0  0  0  0  0  0  0  0  0  0  # atno 8008 bound_to 7997
  155.7589  140.3486  155.5167 H   0  0  0  0  0  0  0  0  0  0  0  0  # atno 8009 bound_to 7997
  155.8878  140.0998  157.1430 H   0  0  0  0  0  0  0  0  0  0  0  0  # atno 8010 bound_to 7997
  140.0431  143.5134  152.2120 H   0  0  0  0  0  0  0  0  0  0  0  0  # atno 10167 bound_to 10162
  157.0175  131.0222  151.2785 H   0  0  0  0  0  0  0  0  0  0  0  0  # atno 10718 bound_to 10713
  153.6950  135.6959  153.5079 H   0  0  0  0  0  0  0  0  0  0  0  0  # atno 10763 bound_to 10752
  153.2385  135.4314  155.0671 H   0  0  0  0  0  0  0  0  0  0  0  0  # atno 10764 bound_to 10752
  154.8361  135.3502  154.6491 H   0  0  0  0  0  0  0  0  0  0  0  0  # atno 10765 bound_to 10752
  140.5406  134.0378  155.7903 H   0  0  0  0  0  0  0  0  0  0  0  0  # atno 11005 bound_to 11000
  144.6957  139.9002  143.7458 LP  0  0  0  0  0  0  0  0  0  0  0  0  # atno 17320 bound_to 7965
  146.0761  139.3749  143.0493 LP  0  0  0  0  0  0  0  0  0  0  0  0  # atno 17321 bound_to 7965
  139.6001  144.7580  151.3192 LP  0  0  0  0  0  0  0  0  0  0  0  0  # atno 17342 bound_to 10162
  140.7251  143.7027  150.7832 LP  0  0  0  0  0  0  0  0  0  0  0  0  # atno 17343 bound_to 10162
  157.5275  130.8037  149.7878 LP  0  0  0  0  0  0  0  0  0  0  0  0  # atno 17370 bound_to 10713
  156.0114  130.3832  150.2252 LP  0  0  0  0  0  0  0  0  0  0  0  0  # atno 17371 bound_to 10713
  141.1229  133.9431  157.2693 LP  0  0  0  0  0  0  0  0  0  0  0  0  # atno 17394 bound_to 11000
  139.9506  135.0176  156.8982 LP  0  0  0  0  0  0  0  0  0  0  0  0  # atno 17395 bound_to 11000

$$$$
