AV-unprocessed.smi:3314|AV-procd|sdf|12736|dock6
  -GOLD-   2272019 83D 1   1.00000     0.00000
 Structure written by MMmdl.
 37 38  0  0  0  0  0  0  0  0  1 V2000
  153.4723  142.6074  162.8342 C   0  0  0  0  0  0  0  0  0  0  0  0
  152.8229  142.8584  161.4893 C   0  0  0  0  0  0  0  0  0  0  0  0
  152.2599  144.1113  161.1792 C   0  0  0  0  0  0  0  0  0  0  0  0
  151.6680  144.2786  159.9117 C   0  0  0  0  0  0  0  0  0  0  0  0
  151.0461  145.5993  159.5094 C   0  0  0  0  0  0  0  0  0  0  0  0
  151.6159  143.2959  158.9874 N   0  0  0  0  0  0  0  0  0  0  0  0
  152.1548  142.0852  159.2754 C   0  0  0  0  0  0  0  0  0  0  0  0
  152.1503  140.9867  158.3761 N   0  0  0  0  0  0  0  0  0  0  0  0
  151.6423  140.9274  157.1307 C   0  0  0  0  0  0  0  0  0  0  0  0
  151.0825  141.8647  156.5599 O   0  0  0  0  0  0  0  0  0  0  0  0
  151.7933  139.5708  156.4323 C   0  0  1  0  0  0  0  0  0  0  0  0
  150.4431  138.8895  156.1138 C   0  0  0  0  0  0  0  0  0  0  0  0
  150.6321  137.6344  155.3982 N   0  0  0  0  0  0  0  0  0  0  0  0
  149.3623  136.9873  155.1049 C   0  0  0  0  0  0  0  0  0  0  0  0
  151.4061  137.8760  154.1877 C   0  0  0  0  0  0  0  0  0  0  0  0
  152.7469  138.5639  154.4983 C   0  0  0  0  0  0  0  0  0  0  0  0
  152.5141  139.7717  155.2176 O   0  0  0  0  0  0  0  0  0  0  0  0
  152.7699  141.8345  160.5224 C   0  0  0  0  0  0  0  0  0  0  0  0
  153.4523  143.5014  163.4583 H   0  0  0  0  0  0  0  0  0  0  0  0
  154.5119  142.3070  162.7017 H   0  0  0  0  0  0  0  0  0  0  0  0
  152.9486  141.8105  163.3626 H   0  0  0  0  0  0  0  0  0  0  0  0
  152.2814  144.9222  161.8929 H   0  0  0  0  0  0  0  0  0  0  0  0
  151.0767  146.3173  160.3294 H   0  0  0  0  0  0  0  0  0  0  0  0
  150.0042  145.4570  159.2211 H   0  0  0  0  0  0  0  0  0  0  0  0
  151.5823  146.0266  158.6616 H   0  0  0  0  0  0  0  0  0  0  0  0
  152.5786  140.1403  158.7212 H   0  0  0  0  0  0  0  0  0  0  0  0
  152.3772  138.9204  157.0867 H   0  0  0  0  0  0  0  0  0  0  0  0
  149.8997  138.7036  157.0412 H   0  0  0  0  0  0  0  0  0  0  0  0
  149.8223  139.5602  155.5166 H   0  0  0  0  0  0  0  0  0  0  0  0
  149.5226  136.0346  154.5992 H   0  0  0  0  0  0  0  0  0  0  0  0
  148.7391  137.6126  154.4640 H   0  0  0  0  0  0  0  0  0  0  0  0
  148.8104  136.7862  156.0236 H   0  0  0  0  0  0  0  0  0  0  0  0
  151.5921  136.9331  153.6722 H   0  0  0  0  0  0  0  0  0  0  0  0
  150.8329  138.4999  153.5002 H   0  0  0  0  0  0  0  0  0  0  0  0
  153.3920  137.9056  155.0819 H   0  0  0  0  0  0  0  0  0  0  0  0
  153.2771  138.7961  153.5746 H   0  0  0  0  0  0  0  0  0  0  0  0
  153.1955  140.8654  160.7396 H   0  0  0  0  0  0  0  0  0  0  0  0
  1  2  1  0  0  0  0
  1 19  1  0  0  0  0
  1 20  1  0  0  0  0
  1 21  1  0  0  0  0
  2 18  1  0  0  0  0
  2  3  2  0  0  0  0
  3  4  1  0  0  0  0
  3 22  1  0  0  0  0
  4  5  1  0  0  0  0
  4  6  2  0  0  0  0
  5 23  1  0  0  0  0
  5 24  1  0  0  0  0
  5 25  1  0  0  0  0
  6  7  1  0  0  0  0
  7  8  1  0  0  0  0
  7 18  2  0  0  0  0
  8  9  1  0  0  0  0
  8 26  1  0  0  0  0
  9 10  2  0  0  0  0
  9 11  1  0  0  0  0
 11 17  1  0  0  0  0
 11 12  1  0  0  0  0
 11 27  1  0  0  0  0
 12 13  1  0  0  0  0
 12 28  1  0  0  0  0
 12 29  1  0  0  0  0
 13 14  1  0  0  0  0
 13 15  1  0  0  0  0
 14 30  1  0  0  0  0
 14 31  1  0  0  0  0
 14 32  1  0  0  0  0
 15 16  1  0  0  0  0
 15 33  1  0  0  0  0
 15 34  1  0  0  0  0
 16 17  1  0  0  0  0
 16 35  1  0  0  0  0
 16 36  1  0  0  0  0
 18 37  1  0  0  0  0
M  END
> <s_m_source_file>
AV-unprocessed.smi

> <i_m_source_file_index>
3314

> <i_lp_mmshare_version>
43012

> <i_f3d_flags>
0

> <s_epik_input>
W0NIM11jMVtjSF1jKFtDSDNdKW5jKFtjSF0xKVtOSF1DKD1PKVtDQEBIXTJbQ0gyXU4oW0NIM10pW0NIMl1bQ0gyXU8y

> <s_epik_cmdline>
J2VwaWtfcHl0aG9uJywgJy1waCcsICc3LjAnLCAnLXRuJywgJzgnLCAnLW1hJywgJzIwMCcsICctbWV0YWxfYmluZGluZycsICctaW1hZScsICc8aW5maWxlLm1hZT4nLCAnLW9tYWUnLCAnPG91dGZpbGUubWFlPic=

> <r_epik_Ionization_Penalty>
0.55509

> <r_epik_Ionization_Penalty_Charging>
0

> <r_epik_Ionization_Penalty_Neutral>
0.55509

> <r_epik_State_Penalty>
0.632277

> <r_epik_Charging_Adjusted_Penalty>
0.632277

> <i_epik_Tot_Q>
0

> <i_epik_Tot_abs_Q>
0

> <r_epik_Metal_State_Penalty>
0.606221

> <b_epik_Metal_Only>
0

> <s_lp_Force_Field>
OPLS_2005

> <r_lp_Energy>
21.1919

> <b_lp_Chiralities_Consistent>
1

> <s_lp_Variant>
AV-unprocessed.smi:3314-6

> <Gold.Version>
5.8.1

> <Gold.Id.Protein>
6NUR|6NUR_protein|mol2

> <Gold.PLP.Fitness>
42.4777

> <Gold.PLP.PLP>
-38.8138

> <Gold.PLP.part.hbond>
-2.0000

> <Gold.PLP.part.metal>
0.0000

> <Gold.PLP.part.buried>
-3.9478

> <Gold.PLP.part.nonpolar>
-31.9951

> <Gold.PLP.part.repulsive>
0.2749

> <Gold.PLP.ligand.clash>
0.0000

> <Gold.PLP.ligand.torsion>
0.0154

> <Gold.PLP.Chemscore.Hbond>
1.2309

> <Gold.PLP.Chemscore.CHOScore>
0.0000

> <Gold.PLP.Chemscore.Metal>
0.0000

> <Gold.Chemscore.Hbonds>
donor molecule, donor type, donor heavy atom, donor atom, acceptor molecule, acceptor atom, score
      P1  H  7989  7998       L1    17  0.28
      P1  H  7997  8009       L1    17  0.78

> <Gold.PLP.Chemscore.Internal.Correction>
0.0020

> <Gold.Rescore>
     Score         DG    S(hbond)    S(metal)    S(lipo)     H(rot)  DE(clash)    DE(int)     intcor
     14.27     -15.85       0.50        0.00      96.21       1.00       0.15       1.43       ----

> <Gold.Chemscore.Fitness>
14.2743

> <Gold.Chemscore.DG>
-15.8497

> <Gold.Chemscore.ZeroCoef>
-5.4800

> <Gold.Chemscore.Hbond>
0.5010

> <Gold.Chemscore.Metal>
0.0000

> <Gold.Chemscore.Lipo>
96.2070

> <Gold.Chemscore.Internal_Hbond>
0.0000

> <Gold.Chemscore.DEClash>
0.1496

> <Gold.Chemscore.DEInternal>
1.4259

> <Gold.Chemscore.Rot>
1.0000

> <Gold.Chemscore.Internal.Correction>
   9.000000E+99

> <Gold.Chemscore.Hbonds>
donor molecule, donor type, donor heavy atom, donor atom, acceptor molecule, acceptor atom, score
      P1  H  7989  7998       L1    17  0.03
      P1  H  7997  8009       L1    17  0.11

> <Gold.Chemscore.Hbond.Weighted>
-1.6735

> <Gold.Chemscore.Metal.Weighted>
-0.0000

> <Gold.Chemscore.Lipo.Weighted>
-11.2562

> <Gold.Chemscore.Internal_Hbond.Weighted>
0.0000

> <Gold.Chemscore.DEClash.Weighted>
0.1496

> <Gold.Chemscore.DEInternal.Weighted>
1.4259

> <Gold.Chemscore.Rot.Weighted>
2.5600

> <Gold.Chemscore.Internal.Correction.Weighted>
   9.000000E+99

> <Gold.Protein.RotatedTorsions>
[ 6907 6896 6895 6894 ] final  112.14 input  -60.11 | X-H torsion
[ 7974 7965 7964 7962 ] final  100.07 input  175.53 | X-H torsion
[ 8008 7997 7996 7995 ] final -128.59 input   59.86 | X-H torsion
[ 10167 10162 10161 10158 ] final -117.11 input  -65.29 | X-H torsion
[ 10718 10713 10712 10709 ] final  -74.14 input   66.30 | X-H torsion
[ 10763 10752 10751 10750 ] final   68.46 input  -60.55 | X-H torsion
[ 11005 11000 10999 10996 ] final  120.59 input  -57.11 | X-H torsion

> <Gold.Protein.ActiveResidues>
 VAL166  LYS551  ARG553  GLY616  TRP617  ASP618  TYR619  PRO620  LYS621  CYS622 
 ASP623  PHE694  ASN695  SER759  ASP760  ASP761  ALA762  ILE779  LEU786  VAL792 
 PHE793  MET794  SER795  GLU796  ALA797  LYS798  CYS799  TRP800  GLU811  SER814 

> <Gold.Protein.RotatedAtoms>
  152.4932  133.8558  159.7224 H   0  0  0  0  0  0  0  0  0  0  0  0  # atno 6907 bound_to 6896
  150.9083  133.7021  159.2868 H   0  0  0  0  0  0  0  0  0  0  0  0  # atno 6908 bound_to 6896
  151.4439  135.1027  159.9730 H   0  0  0  0  0  0  0  0  0  0  0  0  # atno 6909 bound_to 6896
  145.3904  139.2364  143.3355 H   0  0  0  0  0  0  0  0  0  0  0  0  # atno 7974 bound_to 7965
  155.2652  140.0437  157.3001 H   0  0  0  0  0  0  0  0  0  0  0  0  # atno 8008 bound_to 7997
  154.5686  140.2367  155.8194 H   0  0  0  0  0  0  0  0  0  0  0  0  # atno 8009 bound_to 7997
  156.2105  140.3000  155.9729 H   0  0  0  0  0  0  0  0  0  0  0  0  # atno 8010 bound_to 7997
  140.0719  143.4869  152.1975 H   0  0  0  0  0  0  0  0  0  0  0  0  # atno 10167 bound_to 10162
  156.0254  130.4410  150.2847 H   0  0  0  0  0  0  0  0  0  0  0  0  # atno 10718 bound_to 10713
  153.0236  135.5246  154.7138 H   0  0  0  0  0  0  0  0  0  0  0  0  # atno 10763 bound_to 10752
  154.6213  135.2889  155.0325 H   0  0  0  0  0  0  0  0  0  0  0  0  # atno 10764 bound_to 10752
  154.1311  135.6593  153.4974 H   0  0  0  0  0  0  0  0  0  0  0  0  # atno 10765 bound_to 10752
  139.9191  134.9635  156.7829 H   0  0  0  0  0  0  0  0  0  0  0  0  # atno 11005 bound_to 11000
  146.2800  140.4586  142.8780 LP  0  0  0  0  0  0  0  0  0  0  0  0  # atno 17320 bound_to 7965
  144.8444  140.6907  143.6208 LP  0  0  0  0  0  0  0  0  0  0  0  0  # atno 17321 bound_to 7965
  139.5831  144.7519  151.3589 LP  0  0  0  0  0  0  0  0  0  0  0  0  # atno 17342 bound_to 10162
  140.7121  143.7362  150.7587 LP  0  0  0  0  0  0  0  0  0  0  0  0  # atno 17343 bound_to 10162
  157.0950  131.0180  151.3107 LP  0  0  0  0  0  0  0  0  0  0  0  0  # atno 17370 bound_to 10713
  157.4824  130.7773  149.7427 LP  0  0  0  0  0  0  0  0  0  0  0  0  # atno 17371 bound_to 10713
  140.6529  133.9715  155.7764 LP  0  0  0  0  0  0  0  0  0  0  0  0  # atno 17394 bound_to 11000
  141.0696  134.0226  157.3546 LP  0  0  0  0  0  0  0  0  0  0  0  0  # atno 17395 bound_to 11000

$$$$
