AV-unprocessed.smi:2451|AV-procd|sdf|9674|dock6
  -GOLD-   2272013313D 1   1.00000     0.00000
 Structure written by MMmdl.
 38 39  0  0  0  0  0  0  0  0  1 V2000
  151.6400  145.7374  160.0901 C   0  0  0  0  0  0  0  0  0  0  0  0
  152.3502  144.3797  159.9374 C   0  0  1  0  0  0  0  0  0  0  0  0
  152.5091  143.7223  161.3229 C   0  0  0  0  0  0  0  0  0  0  0  0
  153.2455  142.3815  161.2344 C   0  0  0  0  0  0  0  0  0  0  0  0
  152.5031  141.4248  160.2982 C   0  0  0  0  0  0  0  0  0  0  0  0
  152.3230  142.0381  158.8987 C   0  0  1  0  0  0  0  0  0  0  0  0
  151.5383  141.1060  158.0827 N   0  0  0  0  0  0  0  0  0  0  0  0
  152.1949  139.5501  157.7341 S   0  0  0  0  0  0  0  0  0  0  0  0
  153.5608  139.5102  158.2795 O   0  0  0  0  0  0  0  0  0  0  0  0
  151.2063  138.5462  158.1562 O   0  0  0  0  0  0  0  0  0  0  0  0
  152.2973  139.5674  155.8954 C   0  0  0  0  0  0  0  0  0  0  0  0
  150.9305  139.7939  155.3166 C   0  0  0  0  0  0  0  0  0  0  0  0
  150.0889  140.9317  155.4596 C   0  0  0  0  0  0  0  0  0  0  0  0
  148.9805  140.6011  154.7349 C   0  0  0  0  0  0  0  0  0  0  0  0
  149.1189  139.3649  154.1925 O   0  0  0  0  0  0  0  0  0  0  0  0
  150.3666  138.8564  154.5713 N   0  0  0  0  0  0  0  0  0  0  0  0
  151.6327  143.4274  158.9382 C   0  0  2  0  0  0  0  0  0  0  0  0
  151.5636  144.0391  157.5216 C   0  0  0  0  0  0  0  0  0  0  0  0
  150.5974  145.6087  160.3825 H   0  0  0  0  0  0  0  0  0  0  0  0
  151.6622  146.3152  159.1669 H   0  0  0  0  0  0  0  0  0  0  0  0
  152.1237  146.3484  160.8527 H   0  0  0  0  0  0  0  0  0  0  0  0
  153.3526  144.5768  159.5542 H   0  0  0  0  0  0  0  0  0  0  0  0
  153.0558  144.3883  161.9917 H   0  0  0  0  0  0  0  0  0  0  0  0
  151.5279  143.5704  161.7753 H   0  0  0  0  0  0  0  0  0  0  0  0
  154.2623  142.5399  160.8725 H   0  0  0  0  0  0  0  0  0  0  0  0
  153.3335  141.9382  162.2268 H   0  0  0  0  0  0  0  0  0  0  0  0
  153.0490  140.4831  160.2277 H   0  0  0  0  0  0  0  0  0  0  0  0
  151.5289  141.1864  160.7273 H   0  0  0  0  0  0  0  0  0  0  0  0
  153.3105  142.1587  158.4506 H   0  0  0  0  0  0  0  0  0  0  0  0
  150.5782  141.0374  158.4195 H   0  0  0  0  0  0  0  0  0  0  0  0
  152.9979  140.3464  155.5936 H   0  0  0  0  0  0  0  0  0  0  0  0
  152.7021  138.6102  155.5676 H   0  0  0  0  0  0  0  0  0  0  0  0
  150.2720  141.8463  156.0037 H   0  0  0  0  0  0  0  0  0  0  0  0
  148.0538  141.1128  154.5205 H   0  0  0  0  0  0  0  0  0  0  0  0
  150.6099  143.2836  159.2906 H   0  0  0  0  0  0  0  0  0  0  0  0
  152.5600  144.2581  157.1366 H   0  0  0  0  0  0  0  0  0  0  0  0
  150.9862  144.9625  157.5049 H   0  0  0  0  0  0  0  0  0  0  0  0
  151.0804  143.3663  156.8132 H   0  0  0  0  0  0  0  0  0  0  0  0
  1  2  1  0  0  0  0
  1 19  1  0  0  0  0
  1 20  1  0  0  0  0
  1 21  1  0  0  0  0
  2 17  1  0  0  0  0
  2  3  1  0  0  0  0
  2 22  1  0  0  0  0
  3  4  1  0  0  0  0
  3 23  1  0  0  0  0
  3 24  1  0  0  0  0
  4  5  1  0  0  0  0
  4 25  1  0  0  0  0
  4 26  1  0  0  0  0
  5  6  1  0  0  0  0
  5 27  1  0  0  0  0
  5 28  1  0  0  0  0
  6  7  1  0  0  0  0
  6 17  1  0  0  0  0
  6 29  1  0  0  0  0
  7  8  1  0  0  0  0
  7 30  1  0  0  0  0
  8  9  2  0  0  0  0
  8 10  2  0  0  0  0
  8 11  1  0  0  0  0
 11 12  1  0  0  0  0
 11 31  1  0  0  0  0
 11 32  1  0  0  0  0
 12 16  2  0  0  0  0
 12 13  1  0  0  0  0
 13 14  2  0  0  0  0
 13 33  1  0  0  0  0
 14 15  1  0  0  0  0
 14 34  1  0  0  0  0
 15 16  1  0  0  0  0
 17 18  1  0  0  0  0
 17 35  1  0  0  0  0
 18 36  1  0  0  0  0
 18 37  1  0  0  0  0
 18 38  1  0  0  0  0
M  END
> <s_m_source_file>
AV-unprocessed.smi

> <i_m_source_file_index>
2451

> <i_lp_mmshare_version>
43012

> <i_f3d_flags>
0

> <s_epik_input>
W0NIM11bQ0BASF0xW0NIMl1bQ0gyXVtDSDJdW0NASF0oW0NASF0xW0NIM10pW05IXVMoPU8pKD1PKVtDSDJdYzJbY0hdW2NIXW9uMg==

> <s_epik_cmdline>
J2VwaWtfcHl0aG9uJywgJy1waCcsICc3LjAnLCAnLXRuJywgJzgnLCAnLW1hJywgJzIwMCcsICctbWV0YWxfYmluZGluZycsICctaW1hZScsICc8aW5maWxlLm1hZT4nLCAnLW9tYWUnLCAnPG91dGZpbGUubWFlPic=

> <r_lp_tautomer_probability>
1

> <r_epik_Ionization_Penalty>
8.73668e-05

> <r_epik_Ionization_Penalty_Charging>
0

> <r_epik_Ionization_Penalty_Neutral>
8.73668e-05

> <r_epik_State_Penalty>
-0

> <r_epik_Charging_Adjusted_Penalty>
0

> <i_epik_Tot_Q>
0

> <i_epik_Tot_abs_Q>
0

> <r_epik_Metal_State_Penalty>
0.0716439

> <b_epik_Metal_Only>
0

> <s_lp_Force_Field>
OPLS_2005

> <r_lp_Energy>
6.58047

> <b_lp_Chiralities_Consistent>
1

> <s_lp_Variant>
AV-unprocessed.smi:2451-6

> <Gold.Version>
5.8.1

> <Gold.Id.Protein>
6NUR|6NUR_protein|mol2

> <Gold.PLP.Fitness>
43.8928

> <Gold.PLP.PLP>
-40.9403

> <Gold.PLP.part.hbond>
-1.0000

> <Gold.PLP.part.metal>
0.0000

> <Gold.PLP.part.buried>
-3.0078

> <Gold.PLP.part.nonpolar>
-37.5916

> <Gold.PLP.part.repulsive>
0.9930

> <Gold.PLP.ligand.clash>
0.0000

> <Gold.PLP.ligand.torsion>
0.0963

> <Gold.PLP.Chemscore.Hbond>
1.0000

> <Gold.PLP.Chemscore.CHOScore>
0.0000

> <Gold.PLP.Chemscore.Metal>
0.0000

> <Gold.Chemscore.Hbonds>
donor molecule, donor type, donor heavy atom, donor atom, acceptor molecule, acceptor atom, score
      P1  H  7997  8009       L1     9  1.00

> <Gold.PLP.Chemscore.Internal.Correction>
0.1452

> <Gold.Rescore>
     Score         DG    S(hbond)    S(metal)    S(lipo)     H(rot)  DE(clash)    DE(int)     intcor
     18.07     -18.33       0.96        0.00     118.62       1.66       0.06       0.21       ----

> <Gold.Chemscore.Fitness>
18.0662

> <Gold.Chemscore.DG>
-18.3319

> <Gold.Chemscore.ZeroCoef>
-5.4800

> <Gold.Chemscore.Hbond>
0.9640

> <Gold.Chemscore.Metal>
0.0000

> <Gold.Chemscore.Lipo>
118.6231

> <Gold.Chemscore.Internal_Hbond>
0.0000

> <Gold.Chemscore.DEClash>
0.0566

> <Gold.Chemscore.DEInternal>
0.2091

> <Gold.Chemscore.Rot>
1.6588

> <Gold.Chemscore.Internal.Correction>
   9.000000E+99

> <Gold.Chemscore.Hbonds>
donor molecule, donor type, donor heavy atom, donor atom, acceptor molecule, acceptor atom, score
      P1  H  7997  8009       L1     9  0.92

> <Gold.Chemscore.Hbond.Weighted>
-3.2196

> <Gold.Chemscore.Metal.Weighted>
-0.0000

> <Gold.Chemscore.Lipo.Weighted>
-13.8789

> <Gold.Chemscore.Internal_Hbond.Weighted>
0.0000

> <Gold.Chemscore.DEClash.Weighted>
0.0566

> <Gold.Chemscore.DEInternal.Weighted>
0.2091

> <Gold.Chemscore.Rot.Weighted>
4.2466

> <Gold.Chemscore.Internal.Correction.Weighted>
   9.000000E+99

> <Gold.Protein.RotatedTorsions>
[ 6907 6896 6895 6894 ] final  -84.56 input  -60.11 | X-H torsion
[ 7974 7965 7964 7962 ] final  -90.16 input  175.53 | X-H torsion
[ 8008 7997 7996 7995 ] final  129.67 input   59.86 | X-H torsion
[ 10167 10162 10161 10158 ] final   15.32 input  -65.29 | X-H torsion
[ 10718 10713 10712 10709 ] final  -14.16 input   66.30 | X-H torsion
[ 10763 10752 10751 10750 ] final  -52.60 input  -60.55 | X-H torsion
[ 11005 11000 10999 10996 ] final  148.99 input  -57.11 | X-H torsion

> <Gold.Protein.ActiveResidues>
 VAL166  LYS551  ARG553  GLY616  TRP617  ASP618  TYR619  PRO620  LYS621  CYS622 
 ASP623  PHE694  ASN695  SER759  ASP760  ASP761  ALA762  ILE779  LEU786  VAL792 
 PHE793  MET794  SER795  GLU796  ALA797  LYS798  CYS799  TRP800  GLU811  SER814 

> <Gold.Protein.RotatedAtoms>
  150.6875  134.3340  159.4838 H   0  0  0  0  0  0  0  0  0  0  0  0  # atno 6907 bound_to 6896
  152.1201  134.9209  160.0572 H   0  0  0  0  0  0  0  0  0  0  0  0  # atno 6908 bound_to 6896
  152.0418  133.3946  159.4377 H   0  0  0  0  0  0  0  0  0  0  0  0  # atno 6909 bound_to 6896
  145.4302  140.9555  143.2132 H   0  0  0  0  0  0  0  0  0  0  0  0  # atno 7974 bound_to 7965
  156.2940  140.2615  156.2637 H   0  0  0  0  0  0  0  0  0  0  0  0  # atno 8008 bound_to 7997
  154.9763  140.0390  157.2276 H   0  0  0  0  0  0  0  0  0  0  0  0  # atno 8009 bound_to 7997
  154.7812  140.2795  155.6067 H   0  0  0  0  0  0  0  0  0  0  0  0  # atno 8010 bound_to 7997
  140.5875  143.8860  150.6844 H   0  0  0  0  0  0  0  0  0  0  0  0  # atno 10167 bound_to 10162
  156.6200  130.4873  149.6168 H   0  0  0  0  0  0  0  0  0  0  0  0  # atno 10718 bound_to 10713
  154.1454  135.6498  153.4951 H   0  0  0  0  0  0  0  0  0  0  0  0  # atno 10763 bound_to 10752
  153.0153  135.5325  154.6863 H   0  0  0  0  0  0  0  0  0  0  0  0  # atno 10764 bound_to 10752
  154.6136  135.2956  155.0376 H   0  0  0  0  0  0  0  0  0  0  0  0  # atno 10765 bound_to 10752
  140.1006  134.8985  157.1790 H   0  0  0  0  0  0  0  0  0  0  0  0  # atno 11005 bound_to 11000
  144.8188  139.5829  143.6996 LP  0  0  0  0  0  0  0  0  0  0  0  0  # atno 17320 bound_to 7965
  146.2611  139.6413  142.9361 LP  0  0  0  0  0  0  0  0  0  0  0  0  # atno 17321 bound_to 7965
  140.2375  143.3689  152.1514 LP  0  0  0  0  0  0  0  0  0  0  0  0  # atno 17342 bound_to 10162
  139.5207  144.7036  151.5421 LP  0  0  0  0  0  0  0  0  0  0  0  0  # atno 17343 bound_to 10162
  156.2320  130.6800  151.1472 LP  0  0  0  0  0  0  0  0  0  0  0  0  # atno 17370 bound_to 10713
  157.7230  131.0669  150.6053 LP  0  0  0  0  0  0  0  0  0  0  0  0  # atno 17371 bound_to 10713
  140.3225  134.2900  155.7243 LP  0  0  0  0  0  0  0  0  0  0  0  0  # atno 17394 bound_to 11000
  141.2104  133.7719  156.9930 LP  0  0  0  0  0  0  0  0  0  0  0  0  # atno 17395 bound_to 11000

$$$$
