AV-unprocessed.smi:1563|AV-procd|sdf|6289|dock9
  -GOLD-   22720 6483D 1   1.00000     0.00000
 Structure written by MMmdl.
 43 44  0  0  0  0  0  0  0  0  1 V2000
  145.6096  136.8779  151.7058 C   0  0  0  0  0  0  0  0  0  0  0  0
  146.0011  137.7462  152.8966 C   0  0  0  0  0  0  0  0  0  0  0  0
  145.1411  138.1366  153.6853 O   0  0  0  0  0  0  0  0  0  0  0  0
  147.3050  138.0400  153.0123 N   0  0  0  0  0  0  0  0  0  0  0  0
  147.8953  138.8583  154.0673 C   0  0  2  0  0  0  0  0  0  0  0  0
  147.1010  140.1746  154.2074 C   0  0  0  0  0  0  0  0  0  0  0  0
  147.7874  141.1640  155.1678 C   0  0  0  0  0  0  0  0  0  0  0  0
  149.2709  141.3413  154.8030 C   0  0  0  0  0  0  0  0  0  0  0  0
  149.9203  140.0192  154.8210 N   0  0  0  0  0  0  0  0  0  0  0  0
  150.8152  139.5731  155.7392 C   0  0  0  0  0  0  0  0  0  0  0  0
  151.3471  138.4639  155.6781 O   0  0  0  0  0  0  0  0  0  0  0  0
  151.0671  140.4358  156.7388 N   0  0  0  0  0  0  0  0  0  0  0  0
  152.0251  140.2432  157.8244 C   0  0  0  0  0  0  0  0  0  0  0  0
  151.4871  140.7782  159.1642 C   0  0  0  0  0  0  0  0  0  0  0  0
  151.5439  142.2923  159.2859 C   0  0  0  0  0  0  0  0  0  0  0  0
  152.0393  142.8980  160.4602 C   0  0  0  0  0  0  0  0  0  0  0  0
  152.0867  144.3042  160.5219 C   0  0  0  0  0  0  0  0  0  0  0  0
  151.6397  145.0474  159.4124 C   0  0  0  0  0  0  0  0  0  0  0  0
  151.1641  144.3482  158.2853 C   0  0  0  0  0  0  0  0  0  0  0  0
  151.1128  143.0005  158.2165 N   0  0  0  0  0  0  0  0  0  0  0  0
  149.3832  139.1495  153.7663 C   0  0  0  0  0  0  0  0  0  0  0  0
  146.1822  135.9500  151.7043 H   0  0  0  0  0  0  0  0  0  0  0  0
  145.8024  137.4054  150.7712 H   0  0  0  0  0  0  0  0  0  0  0  0
  144.5496  136.6243  151.7428 H   0  0  0  0  0  0  0  0  0  0  0  0
  147.9360  137.6716  152.3156 H   0  0  0  0  0  0  0  0  0  0  0  0
  147.8279  138.3212  155.0156 H   0  0  0  0  0  0  0  0  0  0  0  0
  147.0094  140.6472  153.2284 H   0  0  0  0  0  0  0  0  0  0  0  0
  146.0848  139.9699  154.5464 H   0  0  0  0  0  0  0  0  0  0  0  0
  147.2754  142.1260  155.1399 H   0  0  0  0  0  0  0  0  0  0  0  0
  147.7052  140.7975  156.1920 H   0  0  0  0  0  0  0  0  0  0  0  0
  149.3584  141.7676  153.8027 H   0  0  0  0  0  0  0  0  0  0  0  0
  149.7338  142.0732  155.4649 H   0  0  0  0  0  0  0  0  0  0  0  0
  150.5810  141.3203  156.7208 H   0  0  0  0  0  0  0  0  0  0  0  0
  152.2278  139.1757  157.9116 H   0  0  0  0  0  0  0  0  0  0  0  0
  152.9816  140.7187  157.6026 H   0  0  0  0  0  0  0  0  0  0  0  0
  150.4557  140.4507  159.3027 H   0  0  0  0  0  0  0  0  0  0  0  0
  152.0533  140.3367  159.9854 H   0  0  0  0  0  0  0  0  0  0  0  0
  152.3794  142.3004  161.2933 H   0  0  0  0  0  0  0  0  0  0  0  0
  152.4603  144.8035  161.4036 H   0  0  0  0  0  0  0  0  0  0  0  0
  151.6620  146.1270  159.4240 H   0  0  0  0  0  0  0  0  0  0  0  0
  150.8148  144.8855  157.4160 H   0  0  0  0  0  0  0  0  0  0  0  0
  149.9377  138.2144  153.6733 H   0  0  0  0  0  0  0  0  0  0  0  0
  149.4858  139.6485  152.8013 H   0  0  0  0  0  0  0  0  0  0  0  0
  1  2  1  0  0  0  0
  1 22  1  0  0  0  0
  1 23  1  0  0  0  0
  1 24  1  0  0  0  0
  2  3  2  0  0  0  0
  2  4  1  0  0  0  0
  4  5  1  0  0  0  0
  4 25  1  0  0  0  0
  5 21  1  0  0  0  0
  5  6  1  0  0  0  0
  5 26  1  0  0  0  0
  6  7  1  0  0  0  0
  6 27  1  0  0  0  0
  6 28  1  0  0  0  0
  7  8  1  0  0  0  0
  7 29  1  0  0  0  0
  7 30  1  0  0  0  0
  8  9  1  0  0  0  0
  8 31  1  0  0  0  0
  8 32  1  0  0  0  0
  9 10  1  0  0  0  0
  9 21  1  0  0  0  0
 10 11  2  0  0  0  0
 10 12  1  0  0  0  0
 12 13  1  0  0  0  0
 12 33  1  0  0  0  0
 13 14  1  0  0  0  0
 13 34  1  0  0  0  0
 13 35  1  0  0  0  0
 14 15  1  0  0  0  0
 14 36  1  0  0  0  0
 14 37  1  0  0  0  0
 15 20  1  0  0  0  0
 15 16  2  0  0  0  0
 16 17  1  0  0  0  0
 16 38  1  0  0  0  0
 17 18  2  0  0  0  0
 17 39  1  0  0  0  0
 18 19  1  0  0  0  0
 18 40  1  0  0  0  0
 19 20  2  0  0  0  0
 19 41  1  0  0  0  0
 21 42  1  0  0  0  0
 21 43  1  0  0  0  0
M  END
> <s_m_source_file>
AV-unprocessed.smi

> <i_m_source_file_index>
1563

> <i_lp_mmshare_version>
43012

> <i_f3d_flags>
0

> <s_epik_input>
W0NIM11DKD1PKVtOSF1bQ0BASF0xW0NIMl1bQ0gyXVtDSDJdTihbQ0gyXTEpQyg9TylbTkhdW0NIMl1bQ0gyXWMyW2NIXVtjSF1bY0hdW2NIXW4y

> <s_epik_cmdline>
J2VwaWtfcHl0aG9uJywgJy1waCcsICc3LjAnLCAnLXRuJywgJzgnLCAnLW1hJywgJzIwMCcsICctbWV0YWxfYmluZGluZycsICctaW1hZScsICc8aW5maWxlLm1hZT4nLCAnLW9tYWUnLCAnPG91dGZpbGUubWFlPic=

> <r_epik_Ionization_Penalty>
0.0442074

> <r_epik_Ionization_Penalty_Charging>
0

> <r_epik_Ionization_Penalty_Neutral>
0.0442074

> <r_epik_State_Penalty>
0.0374027

> <r_epik_Charging_Adjusted_Penalty>
0.0374027

> <i_epik_Tot_Q>
0

> <i_epik_Tot_abs_Q>
0

> <r_epik_Metal_State_Penalty>
0.0347963

> <b_epik_Metal_Only>
0

> <s_lp_Force_Field>
OPLS_2005

> <r_lp_Energy>
29.1558

> <b_lp_Chiralities_Consistent>
1

> <s_lp_Variant>
AV-unprocessed.smi:1563-1

> <Gold.Version>
5.8.1

> <Gold.Id.Protein>
6NUR|6NUR_protein|mol2

> <Gold.PLP.Fitness>
43.3580

> <Gold.PLP.PLP>
-38.3477

> <Gold.PLP.part.hbond>
-1.0000

> <Gold.PLP.part.metal>
0.0000

> <Gold.PLP.part.buried>
-2.3516

> <Gold.PLP.part.nonpolar>
-36.5099

> <Gold.PLP.part.repulsive>
0.3936

> <Gold.PLP.ligand.clash>
0.0000

> <Gold.PLP.ligand.torsion>
0.4907

> <Gold.PLP.Chemscore.Hbond>
0.9920

> <Gold.PLP.Chemscore.CHOScore>
1.0000

> <Gold.PLP.Chemscore.Metal>
0.0000

> <Gold.Chemscore.Hbonds>
donor molecule, donor type, donor heavy atom, donor atom, acceptor molecule, acceptor atom, score
      L1  H     4    25       P1  7948  0.91
      L1  C    19    41       P1  8028  0.90

> <Gold.PLP.Chemscore.Internal.Correction>
0.0157

> <Gold.Rescore>
     Score         DG    S(hbond)    S(metal)    S(lipo)     H(rot)  DE(clash)    DE(int)     intcor
     15.67     -16.35       0.98        0.00     101.83       1.68       0.12       0.56       ----

> <Gold.Chemscore.Fitness>
15.6689

> <Gold.Chemscore.DG>
-16.3476

> <Gold.Chemscore.ZeroCoef>
-5.4800

> <Gold.Chemscore.Hbond>
0.9752

> <Gold.Chemscore.Metal>
0.0000

> <Gold.Chemscore.Lipo>
101.8349

> <Gold.Chemscore.Internal_Hbond>
0.0000

> <Gold.Chemscore.DEClash>
0.1220

> <Gold.Chemscore.DEInternal>
0.5567

> <Gold.Chemscore.Rot>
1.6813

> <Gold.Chemscore.Internal.Correction>
   9.000000E+99

> <Gold.Chemscore.Hbonds>
donor molecule, donor type, donor heavy atom, donor atom, acceptor molecule, acceptor atom, score
      L1  H     4    25       P1  7948  0.90

> <Gold.Chemscore.Hbond.Weighted>
-3.2572

> <Gold.Chemscore.Metal.Weighted>
-0.0000

> <Gold.Chemscore.Lipo.Weighted>
-11.9147

> <Gold.Chemscore.Internal_Hbond.Weighted>
0.0000

> <Gold.Chemscore.DEClash.Weighted>
0.1220

> <Gold.Chemscore.DEInternal.Weighted>
0.5567

> <Gold.Chemscore.Rot.Weighted>
4.3042

> <Gold.Chemscore.Internal.Correction.Weighted>
   9.000000E+99

> <Gold.Protein.RotatedTorsions>
[ 6907 6896 6895 6894 ] final  -27.40 input  -60.11 | X-H torsion
[ 7974 7965 7964 7962 ] final   23.84 input  175.53 | X-H torsion
[ 8008 7997 7996 7995 ] final   66.81 input   59.86 | X-H torsion
[ 10167 10162 10161 10158 ] final -140.54 input  -65.29 | X-H torsion
[ 10718 10713 10712 10709 ] final  -55.74 input   66.30 | X-H torsion
[ 10763 10752 10751 10750 ] final   90.11 input  -60.55 | X-H torsion
[ 11005 11000 10999 10996 ] final  -53.13 input  -57.11 | X-H torsion

> <Gold.Protein.ActiveResidues>
 VAL166  LYS551  ARG553  GLY616  TRP617  ASP618  TYR619  PRO620  LYS621  CYS622 
 ASP623  PHE694  ASN695  SER759  ASP760  ASP761  ALA762  ILE779  LEU786  VAL792 
 PHE793  MET794  SER795  GLU796  ALA797  LYS798  CYS799  TRP800  GLU811  SER814 

> <Gold.Protein.RotatedAtoms>
  151.1474  135.0210  159.8652 H   0  0  0  0  0  0  0  0  0  0  0  0  # atno 6907 bound_to 6896
  152.5453  134.1428  159.8496 H   0  0  0  0  0  0  0  0  0  0  0  0  # atno 6908 bound_to 6896
  151.1510  133.4862  159.2628 H   0  0  0  0  0  0  0  0  0  0  0  0  # atno 6909 bound_to 6896
  146.1965  139.7687  142.8793 H   0  0  0  0  0  0  0  0  0  0  0  0  # atno 7974 bound_to 7965
  155.6832  140.3496  155.4864 H   0  0  0  0  0  0  0  0  0  0  0  0  # atno 8008 bound_to 7997
  155.9588  140.1133  157.0936 H   0  0  0  0  0  0  0  0  0  0  0  0  # atno 8009 bound_to 7997
  154.4138  140.1179  156.5138 H   0  0  0  0  0  0  0  0  0  0  0  0  # atno 8010 bound_to 7997
  139.8272  143.7495  152.2666 H   0  0  0  0  0  0  0  0  0  0  0  0  # atno 10167 bound_to 10162
  156.1344  130.4157  150.0211 H   0  0  0  0  0  0  0  0  0  0  0  0  # atno 10718 bound_to 10713
  153.1941  135.4446  155.0185 H   0  0  0  0  0  0  0  0  0  0  0  0  # atno 10763 bound_to 10752
  154.8108  135.3293  154.7313 H   0  0  0  0  0  0  0  0  0  0  0  0  # atno 10764 bound_to 10752
  153.7764  135.6981  153.4952 H   0  0  0  0  0  0  0  0  0  0  0  0  # atno 10765 bound_to 10752
  141.0960  133.6624  156.4126 H   0  0  0  0  0  0  0  0  0  0  0  0  # atno 11005 bound_to 11000
  145.3625  141.0328  143.3277 LP  0  0  0  0  0  0  0  0  0  0  0  0  # atno 17320 bound_to 7965
  144.8592  139.5203  143.6820 LP  0  0  0  0  0  0  0  0  0  0  0  0  # atno 17321 bound_to 7965
  139.7691  144.7482  151.0250 LP  0  0  0  0  0  0  0  0  0  0  0  0  # atno 17342 bound_to 10162
  140.7809  143.4665  151.0206 LP  0  0  0  0  0  0  0  0  0  0  0  0  # atno 17343 bound_to 10162
  156.8114  130.9326  151.3644 LP  0  0  0  0  0  0  0  0  0  0  0  0  # atno 17370 bound_to 10713
  157.6519  130.8891  149.9649 LP  0  0  0  0  0  0  0  0  0  0  0  0  # atno 17371 bound_to 10713
  140.5139  134.6369  157.5294 LP  0  0  0  0  0  0  0  0  0  0  0  0  # atno 17394 bound_to 11000
  139.9797  134.7158  155.9883 LP  0  0  0  0  0  0  0  0  0  0  0  0  # atno 17395 bound_to 11000

$$$$
