AV-unprocessed.smi:2104|AV-procd|sdf|8584|dock4
  -GOLD-   2272011313D 1   1.00000     0.00000
 Structure written by MMmdl.
 43 44  0  0  0  0  0  0  0  0  1 V2000
  138.1666  137.3210  154.0813 C   0  0  0  0  0  0  0  0  0  0  0  0
  139.6543  137.2362  154.0672 C   0  0  0  0  0  0  0  0  0  0  0  0
  140.6296  138.0705  153.5977 C   0  0  0  0  0  0  0  0  0  0  0  0
  141.8260  137.3725  153.9119 C   0  0  0  0  0  0  0  0  0  0  0  0
  143.0941  137.9186  153.5877 N   0  0  0  0  0  0  0  0  0  0  0  0
  144.3013  137.3844  153.8377 C   0  0  0  0  0  0  0  0  0  0  0  0
  144.4950  136.2712  154.3272 O   0  0  0  0  0  0  0  0  0  0  0  0
  145.2869  138.2286  153.4984 N   0  0  0  0  0  0  0  0  0  0  0  0
  146.7077  137.9996  153.7417 C   0  0  0  0  0  0  0  0  0  0  0  0
  147.5047  139.3096  153.6496 C   0  0  0  0  0  0  0  0  0  0  0  0
  148.6609  139.1977  154.4646 O   0  0  0  0  0  0  0  0  0  0  0  0
  149.6161  140.2402  154.3161 C   0  0  1  0  0  0  0  0  0  0  0  0
  149.0274  141.5839  154.7999 C   0  0  0  0  0  0  0  0  0  0  0  0
  148.7074  141.5593  156.3042 C   0  0  0  0  0  0  0  0  0  0  0  0
  149.9418  141.1695  157.1310 C   0  0  0  0  0  0  0  0  0  0  0  0
  150.5374  139.8353  156.6539 C   0  0  0  0  0  0  0  0  0  0  0  0
  150.8644  139.8662  155.1465 C   0  0  1  0  0  0  0  0  0  0  0  0
  151.4987  138.5491  154.6733 C   0  0  0  0  0  0  0  0  0  0  0  0
  141.6014  136.2185  154.5214 N   0  0  0  0  0  0  0  0  0  0  0  0
  140.2084  136.1247  154.6231 O   0  0  0  0  0  0  0  0  0  0  0  0
  137.8214  138.2028  153.5415 H   0  0  0  0  0  0  0  0  0  0  0  0
  137.7937  137.3827  155.1037 H   0  0  0  0  0  0  0  0  0  0  0  0
  137.7246  136.4424  153.6112 H   0  0  0  0  0  0  0  0  0  0  0  0
  140.5041  139.0253  153.1092 H   0  0  0  0  0  0  0  0  0  0  0  0
  143.0813  138.8317  153.1582 H   0  0  0  0  0  0  0  0  0  0  0  0
  145.0340  139.1175  153.0922 H   0  0  0  0  0  0  0  0  0  0  0  0
  146.8679  137.5157  154.7066 H   0  0  0  0  0  0  0  0  0  0  0  0
  147.0654  137.3028  152.9833 H   0  0  0  0  0  0  0  0  0  0  0  0
  147.8105  139.4906  152.6185 H   0  0  0  0  0  0  0  0  0  0  0  0
  146.8762  140.1466  153.9534 H   0  0  0  0  0  0  0  0  0  0  0  0
  149.9065  140.3235  153.2671 H   0  0  0  0  0  0  0  0  0  0  0  0
  149.7466  142.3795  154.6020 H   0  0  0  0  0  0  0  0  0  0  0  0
  148.1328  141.8460  154.2359 H   0  0  0  0  0  0  0  0  0  0  0  0
  148.3414  142.5357  156.6226 H   0  0  0  0  0  0  0  0  0  0  0  0
  147.9007  140.8522  156.4977 H   0  0  0  0  0  0  0  0  0  0  0  0
  150.6954  141.9540  157.0525 H   0  0  0  0  0  0  0  0  0  0  0  0
  149.6749  141.1008  158.1861 H   0  0  0  0  0  0  0  0  0  0  0  0
  151.4389  139.6148  157.2265 H   0  0  0  0  0  0  0  0  0  0  0  0
  149.8353  139.0273  156.8656 H   0  0  0  0  0  0  0  0  0  0  0  0
  151.6079  140.6490  154.9888 H   0  0  0  0  0  0  0  0  0  0  0  0
  150.8248  137.7052  154.8242 H   0  0  0  0  0  0  0  0  0  0  0  0
  152.4187  138.3392  155.2193 H   0  0  0  0  0  0  0  0  0  0  0  0
  151.7468  138.5920  153.6125 H   0  0  0  0  0  0  0  0  0  0  0  0
  1  2  1  0  0  0  0
  1 21  1  0  0  0  0
  1 22  1  0  0  0  0
  1 23  1  0  0  0  0
  2 20  1  0  0  0  0
  2  3  2  0  0  0  0
  3  4  1  0  0  0  0
  3 24  1  0  0  0  0
  4  5  1  0  0  0  0
  4 19  2  0  0  0  0
  5  6  1  0  0  0  0
  5 25  1  0  0  0  0
  6  7  2  0  0  0  0
  6  8  1  0  0  0  0
  8  9  1  0  0  0  0
  8 26  1  0  0  0  0
  9 10  1  0  0  0  0
  9 27  1  0  0  0  0
  9 28  1  0  0  0  0
 10 11  1  0  0  0  0
 10 29  1  0  0  0  0
 10 30  1  0  0  0  0
 11 12  1  0  0  0  0
 12 17  1  0  0  0  0
 12 13  1  0  0  0  0
 12 31  1  0  0  0  0
 13 14  1  0  0  0  0
 13 32  1  0  0  0  0
 13 33  1  0  0  0  0
 14 15  1  0  0  0  0
 14 34  1  0  0  0  0
 14 35  1  0  0  0  0
 15 16  1  0  0  0  0
 15 36  1  0  0  0  0
 15 37  1  0  0  0  0
 16 17  1  0  0  0  0
 16 38  1  0  0  0  0
 16 39  1  0  0  0  0
 17 18  1  0  0  0  0
 17 40  1  0  0  0  0
 18 41  1  0  0  0  0
 18 42  1  0  0  0  0
 18 43  1  0  0  0  0
 19 20  1  0  0  0  0
M  END
> <s_m_source_file>
AV-unprocessed.smi

> <i_m_source_file_index>
2104

> <i_lp_mmshare_version>
43012

> <i_f3d_flags>
0

> <s_epik_input>
W0NIM11jMVtjSF1jKG5vMSlbTkhdQyg9TylbTkhdW0NIMl1bQ0gyXU9bQ0BASF0yW0NIMl1bQ0gyXVtDSDJdW0NIMl1bQ0BIXTJbQ0gzXQ==

> <s_epik_cmdline>
J2VwaWtfcHl0aG9uJywgJy1waCcsICc3LjAnLCAnLXRuJywgJzgnLCAnLW1hJywgJzIwMCcsICctbWV0YWxfYmluZGluZycsICctaW1hZScsICc8aW5maWxlLm1hZT4nLCAnLW9tYWUnLCAnPG91dGZpbGUubWFlPic=

> <r_lp_tautomer_probability>
1

> <r_epik_Ionization_Penalty>
2.94418e-05

> <r_epik_Ionization_Penalty_Charging>
0

> <r_epik_Ionization_Penalty_Neutral>
2.94418e-05

> <r_epik_State_Penalty>
-0

> <r_epik_Charging_Adjusted_Penalty>
0

> <i_epik_Tot_Q>
0

> <i_epik_Tot_abs_Q>
0

> <r_epik_Metal_State_Penalty>
0.0104148

> <b_epik_Metal_Only>
0

> <s_lp_Force_Field>
OPLS_2005

> <r_lp_Energy>
8.22598

> <b_lp_Chiralities_Consistent>
1

> <s_lp_Variant>
AV-unprocessed.smi:2104-2

> <Gold.Version>
5.8.1

> <Gold.Id.Protein>
6NUR|6NUR_protein|mol2

> <Gold.PLP.Fitness>
39.9535

> <Gold.PLP.PLP>
-31.5787

> <Gold.PLP.part.hbond>
-3.0196

> <Gold.PLP.part.metal>
0.0000

> <Gold.PLP.part.buried>
-4.2017

> <Gold.PLP.part.nonpolar>
-25.3196

> <Gold.PLP.part.repulsive>
0.3028

> <Gold.PLP.ligand.clash>
0.0000

> <Gold.PLP.ligand.torsion>
0.3276

> <Gold.PLP.Chemscore.Hbond>
3.0000

> <Gold.PLP.Chemscore.CHOScore>
0.0000

> <Gold.PLP.Chemscore.Metal>
0.0000

> <Gold.Chemscore.Hbonds>
donor molecule, donor type, donor heavy atom, donor atom, acceptor molecule, acceptor atom, score
      L1  H     5    25       P1 10175  1.00
      L1  H     8    26       P1 10175  1.00
      P1  H 11000 11005       L1    20  1.00

> <Gold.PLP.Chemscore.Internal.Correction>
0.0301

> <Gold.Rescore>
     Score         DG    S(hbond)    S(metal)    S(lipo)     H(rot)  DE(clash)    DE(int)     intcor
     16.44     -18.29       2.60        0.00      73.69       1.75       0.20       1.66       ----

> <Gold.Chemscore.Fitness>
16.4410

> <Gold.Chemscore.DG>
-18.2948

> <Gold.Chemscore.ZeroCoef>
-5.4800

> <Gold.Chemscore.Hbond>
2.5986

> <Gold.Chemscore.Metal>
0.0000

> <Gold.Chemscore.Lipo>
73.6888

> <Gold.Chemscore.Internal_Hbond>
0.0000

> <Gold.Chemscore.DEClash>
0.1957

> <Gold.Chemscore.DEInternal>
1.6581

> <Gold.Chemscore.Rot>
1.7524

> <Gold.Chemscore.Internal.Correction>
   9.000000E+99

> <Gold.Chemscore.Hbonds>
donor molecule, donor type, donor heavy atom, donor atom, acceptor molecule, acceptor atom, score
      L1  H     5    25       P1 10175  1.00
      L1  H     8    26       P1 10175  0.92
      P1  H 11000 11005       L1    20  0.29

> <Gold.Chemscore.Hbond.Weighted>
-8.6793

> <Gold.Chemscore.Metal.Weighted>
-0.0000

> <Gold.Chemscore.Lipo.Weighted>
-8.6216

> <Gold.Chemscore.Internal_Hbond.Weighted>
0.0000

> <Gold.Chemscore.DEClash.Weighted>
0.1957

> <Gold.Chemscore.DEInternal.Weighted>
1.6581

> <Gold.Chemscore.Rot.Weighted>
4.4861

> <Gold.Chemscore.Internal.Correction.Weighted>
   9.000000E+99

> <Gold.Protein.RotatedTorsions>
[ 6907 6896 6895 6894 ] final   18.64 input  -60.11 | X-H torsion
[ 7974 7965 7964 7962 ] final  -82.06 input  175.53 | X-H torsion
[ 8008 7997 7996 7995 ] final -108.33 input   59.86 | X-H torsion
[ 10167 10162 10161 10158 ] final -111.21 input  -65.29 | X-H torsion
[ 10718 10713 10712 10709 ] final  -91.54 input   66.30 | X-H torsion
[ 10763 10752 10751 10750 ] final  138.70 input  -60.55 | X-H torsion
[ 11005 11000 10999 10996 ] final   63.23 input  -57.11 | X-H torsion

> <Gold.Protein.ActiveResidues>
 VAL166  LYS551  ARG553  GLY616  TRP617  ASP618  TYR619  PRO620  LYS621  CYS622 
 ASP623  PHE694  ASN695  SER759  ASP760  ASP761  ALA762  ILE779  LEU786  VAL792 
 PHE793  MET794  SER795  GLU796  ALA797  LYS798  CYS799  TRP800  GLU811  SER814 

> <Gold.Protein.RotatedAtoms>
  151.8684  135.0498  160.0476 H   0  0  0  0  0  0  0  0  0  0  0  0  # atno 6907 bound_to 6896
  152.2607  133.5291  159.5388 H   0  0  0  0  0  0  0  0  0  0  0  0  # atno 6908 bound_to 6896
  150.7115  134.0749  159.3920 H   0  0  0  0  0  0  0  0  0  0  0  0  # atno 6909 bound_to 6896
  145.5383  140.9513  143.1565 H   0  0  0  0  0  0  0  0  0  0  0  0  # atno 7974 bound_to 7965
  154.9427  140.0402  157.2104 H   0  0  0  0  0  0  0  0  0  0  0  0  # atno 8008 bound_to 7997
  154.8054  140.2859  155.5869 H   0  0  0  0  0  0  0  0  0  0  0  0  # atno 8009 bound_to 7997
  156.2966  140.2547  156.2931 H   0  0  0  0  0  0  0  0  0  0  0  0  # atno 8010 bound_to 7997
  140.1360  143.4319  152.1595 H   0  0  0  0  0  0  0  0  0  0  0  0  # atno 10167 bound_to 10162
  155.9994  130.4952  150.5490 H   0  0  0  0  0  0  0  0  0  0  0  0  # atno 10718 bound_to 10713
  153.8938  135.3030  155.3448 H   0  0  0  0  0  0  0  0  0  0  0  0  # atno 10763 bound_to 10752
  154.7703  135.4889  153.9639 H   0  0  0  0  0  0  0  0  0  0  0  0  # atno 10764 bound_to 10752
  153.1282  135.6798  153.9320 H   0  0  0  0  0  0  0  0  0  0  0  0  # atno 10765 bound_to 10752
  140.0039  134.6400  155.9887 H   0  0  0  0  0  0  0  0  0  0  0  0  # atno 11005 bound_to 11000
  144.7590  139.7003  143.7242 LP  0  0  0  0  0  0  0  0  0  0  0  0  # atno 17320 bound_to 7965
  146.1998  139.5286  142.9751 LP  0  0  0  0  0  0  0  0  0  0  0  0  # atno 17321 bound_to 7965
  139.5495  144.7326  151.4477 LP  0  0  0  0  0  0  0  0  0  0  0  0  # atno 17342 bound_to 10162
  140.6789  143.8128  150.7094 LP  0  0  0  0  0  0  0  0  0  0  0  0  # atno 17343 bound_to 10162
  157.3416  131.0718  151.1783 LP  0  0  0  0  0  0  0  0  0  0  0  0  # atno 17370 bound_to 10713
  157.2630  130.6668  149.5983 LP  0  0  0  0  0  0  0  0  0  0  0  0  # atno 17371 bound_to 10713
  141.1662  133.6537  156.4488 LP  0  0  0  0  0  0  0  0  0  0  0  0  # atno 17394 bound_to 11000
  140.4678  134.6782  157.5115 LP  0  0  0  0  0  0  0  0  0  0  0  0  # atno 17395 bound_to 11000

$$$$
