AV-unprocessed.smi:86|AV-procd|sdf|814|dock10
  -GOLD-   2262017213D 1   1.00000     0.00000
 Structure written by MMmdl.
 51 55  0  0  0  0  0  0  0  0  1 V2000
  149.6967  133.5897  158.1301 O   0  0  0  0  0  0  0  0  0  0  0  0
  149.0892  134.4999  157.2353 C   0  0  0  0  0  0  0  0  0  0  0  0
  149.6576  134.3912  155.8057 C   0  0  0  0  0  0  0  0  0  0  0  0
  151.1443  134.7911  155.8359 C   0  0  0  0  0  0  0  0  0  0  0  0
  151.3804  136.1459  156.3116 N   0  0  0  0  0  0  0  0  0  0  0  0
  151.9158  136.5135  157.5247 C   0  0  0  0  0  0  0  0  0  0  0  0
  152.0203  137.7992  157.7188 N   0  0  0  0  0  0  0  0  0  0  0  0
  151.5164  138.3673  156.5535 C   0  0  0  0  0  0  0  0  0  0  0  0
  151.3282  139.7037  156.0920 C   0  0  0  0  0  0  0  0  0  0  0  0
  151.6618  140.8104  156.8033 N   0  0  0  0  0  0  0  0  0  0  0  0
  152.4191  140.7356  158.0512 C   0  0  0  0  0  0  0  0  0  0  0  0
  152.4238  142.1790  158.5481 C   0  0  2  0  0  0  0  0  0  0  0  0
  152.6786  142.4501  160.0346 C   0  0  0  0  0  0  0  0  0  0  0  0
  152.5393  143.9661  160.3009 C   0  0  0  0  0  0  0  0  0  0  0  0
  151.2043  144.5620  159.7838 C   0  0  2  0  0  0  0  0  0  0  0  0
  150.1482  144.1533  160.6302 O   0  0  0  0  0  0  0  0  0  0  0  0
  150.8889  144.1597  158.3220 C   0  0  0  0  0  0  0  0  0  0  0  0
  151.0295  142.6407  158.1512 C   0  0  1  0  0  0  0  0  0  0  0  0
  150.8693  142.0374  156.7545 C   0  0  0  0  0  0  0  0  0  0  0  0
  150.7603  139.8642  154.8674 N   0  0  0  0  0  0  0  0  0  0  0  0
  150.4155  138.8024  154.1341 C   0  0  0  0  0  0  0  0  0  0  0  0
  150.5420  137.5084  154.4305 N   0  0  0  0  0  0  0  0  0  0  0  0
  151.0988  137.3363  155.6632 C   0  0  0  0  0  0  0  0  0  0  0  0
  149.3555  133.0882  155.0515 C   0  0  0  0  0  0  0  0  0  0  0  0
  148.3757  133.7325  154.2076 O   0  0  0  0  0  0  0  0  0  0  0  0
  148.8090  135.0226  154.6929 C   0  0  0  0  0  0  0  0  0  0  0  0
  149.4593  132.7118  157.8731 H   0  0  0  0  0  0  0  0  0  0  0  0
  148.0185  134.2969  157.2505 H   0  0  0  0  0  0  0  0  0  0  0  0
  149.2268  135.5065  157.6314 H   0  0  0  0  0  0  0  0  0  0  0  0
  151.7126  134.1007  156.4602 H   0  0  0  0  0  0  0  0  0  0  0  0
  151.5815  134.7121  154.8396 H   0  0  0  0  0  0  0  0  0  0  0  0
  152.2264  135.7952  158.2692 H   0  0  0  0  0  0  0  0  0  0  0  0
  151.9095  140.0797  158.7587 H   0  0  0  0  0  0  0  0  0  0  0  0
  153.4296  140.3589  157.8890 H   0  0  0  0  0  0  0  0  0  0  0  0
  153.1620  142.7315  157.9624 H   0  0  0  0  0  0  0  0  0  0  0  0
  151.9682  141.8940  160.6476 H   0  0  0  0  0  0  0  0  0  0  0  0
  153.6744  142.1072  160.3169 H   0  0  0  0  0  0  0  0  0  0  0  0
  152.6593  144.1724  161.3651 H   0  0  0  0  0  0  0  0  0  0  0  0
  153.3625  144.4807  159.8035 H   0  0  0  0  0  0  0  0  0  0  0  0
  151.2530  145.6494  159.8494 H   0  0  0  0  0  0  0  0  0  0  0  0
  149.8397  143.3091  160.3381 H   0  0  0  0  0  0  0  0  0  0  0  0
  149.8881  144.4880  158.0390 H   0  0  0  0  0  0  0  0  0  0  0  0
  151.5822  144.6660  157.6492 H   0  0  0  0  0  0  0  0  0  0  0  0
  150.3022  142.1486  158.8003 H   0  0  0  0  0  0  0  0  0  0  0  0
  151.2766  142.6968  155.9872 H   0  0  0  0  0  0  0  0  0  0  0  0
  149.8187  141.8494  156.5318 H   0  0  0  0  0  0  0  0  0  0  0  0
  149.9749  139.0214  153.1726 H   0  0  0  0  0  0  0  0  0  0  0  0
  150.1975  132.7062  154.4723 H   0  0  0  0  0  0  0  0  0  0  0  0
  148.9248  132.2987  155.6679 H   0  0  0  0  0  0  0  0  0  0  0  0
  147.9825  135.6353  155.0539 H   0  0  0  0  0  0  0  0  0  0  0  0
  149.3874  135.5578  153.9395 H   0  0  0  0  0  0  0  0  0  0  0  0
  1  2  1  0  0  0  0
  1 27  1  0  0  0  0
  2  3  1  0  0  0  0
  2 28  1  0  0  0  0
  2 29  1  0  0  0  0
  3 26  1  0  0  0  0
  3  4  1  0  0  0  0
  3 24  1  0  0  0  0
  4  5  1  0  0  0  0
  4 30  1  0  0  0  0
  4 31  1  0  0  0  0
  5 23  1  0  0  0  0
  5  6  1  0  0  0  0
  6  7  2  0  0  0  0
  6 32  1  0  0  0  0
  7  8  1  0  0  0  0
  8 23  2  0  0  0  0
  8  9  1  0  0  0  0
  9 10  1  0  0  0  0
  9 20  2  0  0  0  0
 10 19  1  0  0  0  0
 10 11  1  0  0  0  0
 11 12  1  0  0  0  0
 11 33  1  0  0  0  0
 11 34  1  0  0  0  0
 12 18  1  0  0  0  0
 12 13  1  0  0  0  0
 12 35  1  0  0  0  0
 13 14  1  0  0  0  0
 13 36  1  0  0  0  0
 13 37  1  0  0  0  0
 14 15  1  0  0  0  0
 14 38  1  0  0  0  0
 14 39  1  0  0  0  0
 15 16  1  0  0  0  0
 15 17  1  0  0  0  0
 15 40  1  0  0  0  0
 16 41  1  0  0  0  0
 17 18  1  0  0  0  0
 17 42  1  0  0  0  0
 17 43  1  0  0  0  0
 18 19  1  0  0  0  0
 18 44  1  0  0  0  0
 19 45  1  0  0  0  0
 19 46  1  0  0  0  0
 20 21  1  0  0  0  0
 21 22  2  0  0  0  0
 21 47  1  0  0  0  0
 22 23  1  0  0  0  0
 24 25  1  0  0  0  0
 24 48  1  0  0  0  0
 24 49  1  0  0  0  0
 25 26  1  0  0  0  0
 26 50  1  0  0  0  0
 26 51  1  0  0  0  0
M  END
> <s_m_source_file>
AV-unprocessed.smi

> <i_m_source_file_index>
86

> <i_lp_mmshare_version>
43012

> <i_f3d_flags>
0

> <s_epik_input>
W0NIMl0xT1tDSDJdQzEoW0NIMl1bT0hdKVtDSDJdbihbY0hdbjIpYyhjMjMpbltjSF1uYzNOKFtDSDJdNClbQ0gyXVtDQEBIXShbQ0BIXTQ1KVtDSDJdW0NASF0oW09IXSlbQ0gyXVtDSDJdNQ==

> <s_epik_cmdline>
J2VwaWtfcHl0aG9uJywgJy1waCcsICc3LjAnLCAnLXRuJywgJzgnLCAnLW1hJywgJzIwMCcsICctbWV0YWxfYmluZGluZycsICctaW1hZScsICc8aW5maWxlLm1hZT4nLCAnLW9tYWUnLCAnPG91dGZpbGUubWFlPic=

> <r_lp_tautomer_probability>
1

> <r_epik_Ionization_Penalty>
0.00425795

> <r_epik_Ionization_Penalty_Charging>
0

> <r_epik_Ionization_Penalty_Neutral>
0.00425795

> <r_epik_State_Penalty>
0.00299946

> <r_epik_Charging_Adjusted_Penalty>
0.00299946

> <i_epik_Tot_Q>
0

> <i_epik_Tot_abs_Q>
0

> <r_epik_Metal_State_Penalty>
-0

> <b_epik_Metal_Only>
0

> <s_lp_Force_Field>
OPLS_2005

> <r_lp_Energy>
55.6071

> <b_lp_Chiralities_Consistent>
1

> <s_lp_Variant>
AV-unprocessed.smi:86-3

> <Gold.Version>
5.8.1

> <Gold.Id.Protein>
6NUR|6NUR_protein|mol2

> <Gold.PLP.Fitness>
49.0451

> <Gold.PLP.PLP>
-40.8302

> <Gold.PLP.part.hbond>
-2.9180

> <Gold.PLP.part.metal>
0.0000

> <Gold.PLP.part.buried>
-5.6889

> <Gold.PLP.part.nonpolar>
-33.1326

> <Gold.PLP.part.repulsive>
0.3850

> <Gold.PLP.ligand.clash>
0.0000

> <Gold.PLP.ligand.torsion>
0.5561

> <Gold.PLP.Chemscore.Hbond>
1.9500

> <Gold.PLP.Chemscore.CHOScore>
1.0000

> <Gold.PLP.Chemscore.Metal>
0.0000

> <Gold.Chemscore.Hbonds>
donor molecule, donor type, donor heavy atom, donor atom, acceptor molecule, acceptor atom, score
      P1  H  6896  6907       L1     1  1.00
      P1  H  7989  7998       L1    20  0.90
      L1  C    21    47       P1  7957  1.00

> <Gold.PLP.Chemscore.Internal.Correction>
0.4771

> <Gold.Rescore>
     Score         DG    S(hbond)    S(metal)    S(lipo)     H(rot)  DE(clash)    DE(int)     intcor
     13.90     -15.71       1.62        0.00     101.75       2.76       0.05       1.75       ----

> <Gold.Chemscore.Fitness>
13.9046

> <Gold.Chemscore.DG>
-15.7074

> <Gold.Chemscore.ZeroCoef>
-5.4800

> <Gold.Chemscore.Hbond>
1.6155

> <Gold.Chemscore.Metal>
0.0000

> <Gold.Chemscore.Lipo>
101.7528

> <Gold.Chemscore.Internal_Hbond>
0.0000

> <Gold.Chemscore.DEClash>
0.0513

> <Gold.Chemscore.DEInternal>
1.7515

> <Gold.Chemscore.Rot>
2.7630

> <Gold.Chemscore.Internal.Correction>
   9.000000E+99

> <Gold.Chemscore.Hbonds>
donor molecule, donor type, donor heavy atom, donor atom, acceptor molecule, acceptor atom, score
      P1  H  6896  6907       L1     1  0.96
      P1  H  7989  7998       L1    20  0.18

> <Gold.Chemscore.Hbond.Weighted>
-5.3957

> <Gold.Chemscore.Metal.Weighted>
-0.0000

> <Gold.Chemscore.Lipo.Weighted>
-11.9051

> <Gold.Chemscore.Internal_Hbond.Weighted>
0.0000

> <Gold.Chemscore.DEClash.Weighted>
0.0513

> <Gold.Chemscore.DEInternal.Weighted>
1.7515

> <Gold.Chemscore.Rot.Weighted>
7.0734

> <Gold.Chemscore.Internal.Correction.Weighted>
   9.000000E+99

> <Gold.Protein.RotatedTorsions>
[ 6907 6896 6895 6894 ] final  -98.20 input  -60.11 | X-H torsion
[ 7974 7965 7964 7962 ] final   27.11 input  175.53 | X-H torsion
[ 8008 7997 7996 7995 ] final   23.46 input   59.86 | X-H torsion
[ 10167 10162 10161 10158 ] final -109.08 input  -65.29 | X-H torsion
[ 10718 10713 10712 10709 ] final   35.05 input   66.30 | X-H torsion
[ 10763 10752 10751 10750 ] final   41.94 input  -60.55 | X-H torsion
[ 11005 11000 10999 10996 ] final   10.57 input  -57.11 | X-H torsion

> <Gold.Protein.ActiveResidues>
 VAL166  LYS551  ARG553  GLY616  TRP617  ASP618  TYR619  PRO620  LYS621  CYS622 
 ASP623  PHE694  ASN695  SER759  ASP760  ASP761  ALA762  ILE779  LEU786  VAL792 
 PHE793  MET794  SER795  GLU796  ALA797  LYS798  CYS799  TRP800  GLU811  SER814 

> <Gold.Protein.RotatedAtoms>
  150.7039  134.1230  159.4041 H   0  0  0  0  0  0  0  0  0  0  0  0  # atno 6907 bound_to 6896
  151.9217  135.0293  160.0532 H   0  0  0  0  0  0  0  0  0  0  0  0  # atno 6908 bound_to 6896
  152.2251  133.4978  159.5221 H   0  0  0  0  0  0  0  0  0  0  0  0  # atno 6909 bound_to 6896
  146.1801  139.7235  142.8906 H   0  0  0  0  0  0  0  0  0  0  0  0  # atno 7974 bound_to 7965
  154.9812  140.3102  155.4945 H   0  0  0  0  0  0  0  0  0  0  0  0  # atno 8008 bound_to 7997
  156.2953  140.2266  156.4851 H   0  0  0  0  0  0  0  0  0  0  0  0  # atno 8009 bound_to 7997
  154.7787  140.0447  157.1098 H   0  0  0  0  0  0  0  0  0  0  0  0  # atno 8010 bound_to 7997
  140.1591  143.4135  152.1438 H   0  0  0  0  0  0  0  0  0  0  0  0  # atno 10167 bound_to 10162
  157.3178  130.7433  149.6766 H   0  0  0  0  0  0  0  0  0  0  0  0  # atno 10718 bound_to 10713
  152.9895  135.6147  154.2868 H   0  0  0  0  0  0  0  0  0  0  0  0  # atno 10763 bound_to 10752
  154.2595  135.2783  155.2785 H   0  0  0  0  0  0  0  0  0  0  0  0  # atno 10764 bound_to 10752
  154.5218  135.5812  153.6744 H   0  0  0  0  0  0  0  0  0  0  0  0  # atno 10765 bound_to 10752
  140.5130  134.0633  155.7823 H   0  0  0  0  0  0  0  0  0  0  0  0  # atno 11005 bound_to 11000
  145.4099  141.0395  143.3023 LP  0  0  0  0  0  0  0  0  0  0  0  0  # atno 17320 bound_to 7965
  144.8301  139.5642  143.6947 LP  0  0  0  0  0  0  0  0  0  0  0  0  # atno 17321 bound_to 7965
  139.5389  144.7237  151.4799 LP  0  0  0  0  0  0  0  0  0  0  0  0  # atno 17342 bound_to 10162
  140.6654  143.8409  150.6936 LP  0  0  0  0  0  0  0  0  0  0  0  0  # atno 17343 bound_to 10162
  155.9683  130.4232  150.4551 LP  0  0  0  0  0  0  0  0  0  0  0  0  # atno 17370 bound_to 10713
  157.2561  131.0557  151.2349 LP  0  0  0  0  0  0  0  0  0  0  0  0  # atno 17371 bound_to 10713
  141.1375  133.9196  157.2401 LP  0  0  0  0  0  0  0  0  0  0  0  0  # atno 17394 bound_to 11000
  139.9648  135.0145  156.9357 LP  0  0  0  0  0  0  0  0  0  0  0  0  # atno 17395 bound_to 11000

$$$$
