AV-unprocessed.smi:240|AV-procd|sdf|1829|dock1
  -GOLD-   2262020433D 1   1.00000     0.00000
 Structure written by MMmdl.
 55 59  0  0  0  0  0  0  0  0  1 V2000
  151.2589  143.2283  156.8250 O   0  0  0  0  0  0  0  0  0  0  0  0
  150.3441  142.3669  157.4794 C   0  0  1  0  0  0  0  0  0  0  0  0
  149.2395  141.9880  156.4915 C   0  0  0  0  0  0  0  0  0  0  0  0
  149.7906  140.7970  155.7018 C   0  0  0  0  0  0  0  0  0  0  0  0
  150.9996  140.2783  156.4936 C   0  0  0  0  0  0  0  0  0  0  0  0
  151.0010  141.0197  157.8471 C   0  0  1  0  0  0  0  0  0  0  0  0
  152.3662  141.1160  158.6083 C   0  0  1  0  0  0  0  0  0  0  0  0
  152.2921  142.2139  159.7036 C   0  0  0  0  0  0  0  0  0  0  0  0
  153.5043  142.2955  160.4418 O   0  0  0  0  0  0  0  0  0  0  0  0
  153.7793  141.0867  161.1309 C   0  0  0  0  0  0  0  0  0  0  0  0
  153.9626  139.9739  160.0954 C   0  0  0  0  0  0  0  0  0  0  0  0
  152.7749  139.8554  159.2542 N   0  0  0  0  0  0  0  0  0  0  0  0
  152.8903  138.7585  158.4746 C   0  0  0  0  0  0  0  0  0  0  0  0
  154.1082  138.5159  157.9307 N   0  0  0  0  0  0  0  0  0  0  0  0
  154.2866  137.4507  157.1435 C   0  0  0  0  0  0  0  0  0  0  0  0
  153.3968  136.5270  156.7734 N   0  0  0  0  0  0  0  0  0  0  0  0
  152.1671  136.7785  157.3076 C   0  0  0  0  0  0  0  0  0  0  0  0
  151.8268  137.8647  158.1615 C   0  0  0  0  0  0  0  0  0  0  0  0
  150.4825  137.7947  158.5060 N   0  0  0  0  0  0  0  0  0  0  0  0
  150.0532  136.7256  157.8927 C   0  0  0  0  0  0  0  0  0  0  0  0
  150.9965  136.0591  157.1431 N   0  0  0  0  0  0  0  0  0  0  0  0
  150.7909  134.8530  156.3557 C   0  0  0  0  0  0  0  0  0  0  0  0
  149.8395  135.0605  155.1543 C   0  0  1  0  0  0  0  0  0  0  0  0
  150.3920  136.0449  154.2971 O   0  0  0  0  0  0  0  0  0  0  0  0
  149.5775  133.7987  154.3372 C   0  0  0  0  0  0  0  0  0  0  0  0
  148.1585  134.0121  153.8299 C   0  0  0  0  0  0  0  0  0  0  0  0
  147.5167  134.6019  154.9475 O   0  0  0  0  0  0  0  0  0  0  0  0
  148.4230  135.5118  155.5636 C   0  0  0  0  0  0  0  0  0  0  0  0
  150.8040  143.6806  156.1311 H   0  0  0  0  0  0  0  0  0  0  0  0
  149.9316  142.8794  158.3491 H   0  0  0  0  0  0  0  0  0  0  0  0
  148.3572  141.6684  157.0474 H   0  0  0  0  0  0  0  0  0  0  0  0
  148.9339  142.8159  155.8503 H   0  0  0  0  0  0  0  0  0  0  0  0
  149.0284  140.0260  155.5852 H   0  0  0  0  0  0  0  0  0  0  0  0
  150.1005  141.1041  154.7023 H   0  0  0  0  0  0  0  0  0  0  0  0
  150.9444  139.1967  156.6093 H   0  0  0  0  0  0  0  0  0  0  0  0
  151.9121  140.5053  155.9413 H   0  0  0  0  0  0  0  0  0  0  0  0
  150.2978  140.5004  158.5007 H   0  0  0  0  0  0  0  0  0  0  0  0
  153.1443  141.4059  157.9016 H   0  0  0  0  0  0  0  0  0  0  0  0
  152.1272  143.1967  159.2643 H   0  0  0  0  0  0  0  0  0  0  0  0
  151.4585  142.0293  160.3835 H   0  0  0  0  0  0  0  0  0  0  0  0
  154.6888  141.2088  161.7191 H   0  0  0  0  0  0  0  0  0  0  0  0
  152.9735  140.8498  161.8276 H   0  0  0  0  0  0  0  0  0  0  0  0
  154.8349  140.1910  159.4774 H   0  0  0  0  0  0  0  0  0  0  0  0
  154.1573  139.0291  160.6056 H   0  0  0  0  0  0  0  0  0  0  0  0
  155.2853  137.3205  156.7534 H   0  0  0  0  0  0  0  0  0  0  0  0
  149.0271  136.3951  157.9643 H   0  0  0  0  0  0  0  0  0  0  0  0
  151.7637  134.5053  156.0059 H   0  0  0  0  0  0  0  0  0  0  0  0
  150.4073  134.0726  157.0143 H   0  0  0  0  0  0  0  0  0  0  0  0
  149.8427  136.1164  153.5314 H   0  0  0  0  0  0  0  0  0  0  0  0
  150.3019  133.6301  153.5390 H   0  0  0  0  0  0  0  0  0  0  0  0
  149.5864  132.9216  154.9849 H   0  0  0  0  0  0  0  0  0  0  0  0
  148.1414  134.7032  152.9858 H   0  0  0  0  0  0  0  0  0  0  0  0
  147.6725  133.0837  153.5293 H   0  0  0  0  0  0  0  0  0  0  0  0
  148.2738  135.4823  156.6432 H   0  0  0  0  0  0  0  0  0  0  0  0
  148.2026  136.5281  155.2328 H   0  0  0  0  0  0  0  0  0  0  0  0
  1  2  1  0  0  0  0
  1 29  1  0  0  0  0
  2  6  1  0  0  0  0
  2  3  1  0  0  0  0
  2 30  1  0  0  0  0
  3  4  1  0  0  0  0
  3 31  1  0  0  0  0
  3 32  1  0  0  0  0
  4  5  1  0  0  0  0
  4 33  1  0  0  0  0
  4 34  1  0  0  0  0
  5  6  1  0  0  0  0
  5 35  1  0  0  0  0
  5 36  1  0  0  0  0
  6  7  1  0  0  0  0
  6 37  1  0  0  0  0
  7 12  1  0  0  0  0
  7  8  1  0  0  0  0
  7 38  1  0  0  0  0
  8  9  1  0  0  0  0
  8 39  1  0  0  0  0
  8 40  1  0  0  0  0
  9 10  1  0  0  0  0
 10 11  1  0  0  0  0
 10 41  1  0  0  0  0
 10 42  1  0  0  0  0
 11 12  1  0  0  0  0
 11 43  1  0  0  0  0
 11 44  1  0  0  0  0
 12 13  1  0  0  0  0
 13 18  1  0  0  0  0
 13 14  2  0  0  0  0
 14 15  1  0  0  0  0
 15 16  2  0  0  0  0
 15 45  1  0  0  0  0
 16 17  1  0  0  0  0
 17 21  1  0  0  0  0
 17 18  2  0  0  0  0
 18 19  1  0  0  0  0
 19 20  2  0  0  0  0
 20 21  1  0  0  0  0
 20 46  1  0  0  0  0
 21 22  1  0  0  0  0
 22 23  1  0  0  0  0
 22 47  1  0  0  0  0
 22 48  1  0  0  0  0
 23 28  1  0  0  0  0
 23 24  1  0  0  0  0
 23 25  1  0  0  0  0
 24 49  1  0  0  0  0
 25 26  1  0  0  0  0
 25 50  1  0  0  0  0
 25 51  1  0  0  0  0
 26 27  1  0  0  0  0
 26 52  1  0  0  0  0
 26 53  1  0  0  0  0
 27 28  1  0  0  0  0
 28 54  1  0  0  0  0
 28 55  1  0  0  0  0
M  END
> <s_m_source_file>
AV-unprocessed.smi

> <i_m_source_file_index>
240

> <i_lp_mmshare_version>
43012

> <i_f3d_flags>
0

> <s_epik_input>
W09IXVtDQEBIXTFbQ0gyXVtDSDJdW0NIMl1bQ0BIXTFbQ0BASF0yW0NIMl1PW0NIMl1bQ0gyXU4yYyhuW2NIXW4zKWMoYzM0KW5bY0hdbjRbQ0gyXVtDQEBdNShbT0hdKVtDSDJdW0NIMl1PW0NIMl01

> <s_epik_cmdline>
J2VwaWtfcHl0aG9uJywgJy1waCcsICc3LjAnLCAnLXRuJywgJzgnLCAnLW1hJywgJzIwMCcsICctbWV0YWxfYmluZGluZycsICctaW1hZScsICc8aW5maWxlLm1hZT4nLCAnLW9tYWUnLCAnPG91dGZpbGUubWFlPic=

> <r_lp_tautomer_probability>
1

> <r_epik_Ionization_Penalty>
0.000130618

> <r_epik_Ionization_Penalty_Charging>
0

> <r_epik_Ionization_Penalty_Neutral>
0.000130618

> <r_epik_State_Penalty>
-0

> <r_epik_Charging_Adjusted_Penalty>
0

> <i_epik_Tot_Q>
0

> <i_epik_Tot_abs_Q>
0

> <r_epik_Metal_State_Penalty>
-0

> <b_epik_Metal_Only>
0

> <s_lp_Force_Field>
OPLS_2005

> <r_lp_Energy>
62.2831

> <b_lp_Chiralities_Consistent>
1

> <s_lp_Variant>
AV-unprocessed.smi:240-6

> <Gold.Version>
5.8.1

> <Gold.Id.Protein>
6NUR|6NUR_protein|mol2

> <Gold.PLP.Fitness>
47.0534

> <Gold.PLP.PLP>
-36.5676

> <Gold.PLP.part.hbond>
-5.0000

> <Gold.PLP.part.metal>
0.0000

> <Gold.PLP.part.buried>
-4.5807

> <Gold.PLP.part.nonpolar>
-27.4005

> <Gold.PLP.part.repulsive>
0.0507

> <Gold.PLP.ligand.clash>
0.0000

> <Gold.PLP.ligand.torsion>
0.9282

> <Gold.PLP.Chemscore.Hbond>
3.9920

> <Gold.PLP.Chemscore.CHOScore>
0.0000

> <Gold.PLP.Chemscore.Metal>
0.0000

> <Gold.Chemscore.Hbonds>
donor molecule, donor type, donor heavy atom, donor atom, acceptor molecule, acceptor atom, score
      L1  H     1    29       P1  8028  0.46
      L1  H    24    49       P1  7948  0.80
      P1  H  7997  8008       L1    14  1.00
      P1  H 10752 10764       L1    16  1.00

> <Gold.PLP.Chemscore.Internal.Correction>
0.3662

> <Gold.Rescore>
     Score         DG    S(hbond)    S(metal)    S(lipo)     H(rot)  DE(clash)    DE(int)     intcor
     16.95     -19.10       3.59        0.00      79.72       3.00       0.94       1.21       ----

> <Gold.Chemscore.Fitness>
16.9528

> <Gold.Chemscore.DG>
-19.1001

> <Gold.Chemscore.ZeroCoef>
-5.4800

> <Gold.Chemscore.Hbond>
3.5876

> <Gold.Chemscore.Metal>
0.0000

> <Gold.Chemscore.Lipo>
79.7211

> <Gold.Chemscore.Internal_Hbond>
0.0000

> <Gold.Chemscore.DEClash>
0.9377

> <Gold.Chemscore.DEInternal>
1.2096

> <Gold.Chemscore.Rot>
3.0039

> <Gold.Chemscore.Internal.Correction>
   9.000000E+99

> <Gold.Chemscore.Hbonds>
donor molecule, donor type, donor heavy atom, donor atom, acceptor molecule, acceptor atom, score
      L1  H     1    29       P1  8028  0.46
      L1  H    24    49       P1  7948  0.12
      P1  H  7997  8008       L1    14  0.53
      P1  H 10752 10764       L1    16  0.94

> <Gold.Chemscore.Hbond.Weighted>
-11.9827

> <Gold.Chemscore.Metal.Weighted>
-0.0000

> <Gold.Chemscore.Lipo.Weighted>
-9.3274

> <Gold.Chemscore.Internal_Hbond.Weighted>
0.0000

> <Gold.Chemscore.DEClash.Weighted>
0.9377

> <Gold.Chemscore.DEInternal.Weighted>
1.2096

> <Gold.Chemscore.Rot.Weighted>
7.6899

> <Gold.Chemscore.Internal.Correction.Weighted>
   9.000000E+99

> <Gold.Protein.RotatedTorsions>
[ 6907 6896 6895 6894 ] final  -51.11 input  -60.11 | X-H torsion
[ 7974 7965 7964 7962 ] final -107.11 input  175.53 | X-H torsion
[ 8008 7997 7996 7995 ] final  -92.84 input   59.86 | X-H torsion
[ 10167 10162 10161 10158 ] final  155.44 input  -65.29 | X-H torsion
[ 10718 10713 10712 10709 ] final   66.88 input   66.30 | X-H torsion
[ 10763 10752 10751 10750 ] final    4.89 input  -60.55 | X-H torsion
[ 11005 11000 10999 10996 ] final  105.51 input  -57.11 | X-H torsion

> <Gold.Protein.ActiveResidues>
 VAL166  LYS551  ARG553  GLY616  TRP617  ASP618  TYR619  PRO620  LYS621  CYS622 
 ASP623  PHE694  ASN695  SER759  ASP760  ASP761  ALA762  ILE779  LEU786  VAL792 
 PHE793  MET794  SER795  GLU796  ALA797  LYS798  CYS799  TRP800  GLU811  SER814 

> <Gold.Protein.RotatedAtoms>
  150.8642  134.8001  159.7105 H   0  0  0  0  0  0  0  0  0  0  0  0  # atno 6907 bound_to 6896
  152.4669  134.5050  159.9746 H   0  0  0  0  0  0  0  0  0  0  0  0  # atno 6908 bound_to 6896
  151.5149  133.3439  159.2927 H   0  0  0  0  0  0  0  0  0  0  0  0  # atno 6909 bound_to 6896
  145.2094  140.9090  143.3323 H   0  0  0  0  0  0  0  0  0  0  0  0  # atno 7974 bound_to 7965
  154.7281  140.0505  157.0701 H   0  0  0  0  0  0  0  0  0  0  0  0  # atno 8008 bound_to 7997
  155.0338  140.3161  155.4729 H   0  0  0  0  0  0  0  0  0  0  0  0  # atno 8009 bound_to 7997
  156.2834  140.2145  156.5460 H   0  0  0  0  0  0  0  0  0  0  0  0  # atno 8010 bound_to 7997
  139.4821  144.5098  151.8041 H   0  0  0  0  0  0  0  0  0  0  0  0  # atno 10167 bound_to 10162
  157.6196  130.9291  150.0168 H   0  0  0  0  0  0  0  0  0  0  0  0  # atno 10718 bound_to 10713
  153.2658  135.6927  153.7531 H   0  0  0  0  0  0  0  0  0  0  0  0  # atno 10763 bound_to 10752
  153.6573  135.3366  155.3118 H   0  0  0  0  0  0  0  0  0  0  0  0  # atno 10764 bound_to 10752
  154.8447  135.4468  154.1664 H   0  0  0  0  0  0  0  0  0  0  0  0  # atno 10765 bound_to 10752
  139.8803  134.9338  156.5525 H   0  0  0  0  0  0  0  0  0  0  0  0  # atno 11005 bound_to 11000
  144.9871  139.3726  143.6233 LP  0  0  0  0  0  0  0  0  0  0  0  0  # atno 17320 bound_to 7965
  146.3401  139.9037  142.8790 LP  0  0  0  0  0  0  0  0  0  0  0  0  # atno 17321 bound_to 7965
  140.4600  144.1735  150.5905 LP  0  0  0  0  0  0  0  0  0  0  0  0  # atno 17342 bound_to 10162
  140.4494  143.2493  151.9367 LP  0  0  0  0  0  0  0  0  0  0  0  0  # atno 17343 bound_to 10162
  156.1335  130.3643  149.9694 LP  0  0  0  0  0  0  0  0  0  0  0  0  # atno 17370 bound_to 10713
  156.7749  130.9200  151.3645 LP  0  0  0  0  0  0  0  0  0  0  0  0  # atno 17371 bound_to 10713
  140.8229  133.8339  155.8913 LP  0  0  0  0  0  0  0  0  0  0  0  0  # atno 17394 bound_to 11000
  140.9401  134.1912  157.4804 LP  0  0  0  0  0  0  0  0  0  0  0  0  # atno 17395 bound_to 11000

$$$$
