AV-unprocessed.smi:3111|AV-procd|sdf|11835|dock10
  -GOLD-   2272017213D 1   1.00000     0.00000
 Structure written by MMmdl.
 30 30  0  0  0  0  0  0  0  0  2 V2000
  146.8908  139.3201  151.7472 C   0  0  0  0  0  0  0  0  0  0  0  0
  147.0181  138.1206  152.5607 N   0  0  0  0  0  0  0  0  0  0  0  0
  146.1549  137.7658  153.5226 C   0  0  0  0  0  0  0  0  0  0  0  0
  145.1545  138.4277  153.8062 O   0  0  0  0  0  0  0  0  0  0  0  0
  146.4735  136.4582  154.2608 C   0  0  0  0  0  0  0  0  0  0  0  0
  146.8418  135.3705  153.3579 N   0  0  0  0  0  0  0  0  0  0  0  0
  146.2019  134.1938  153.2626 C   0  0  0  0  0  0  0  0  0  0  0  0
  145.2532  133.8823  153.9836 O   0  0  0  0  0  0  0  0  0  0  0  0
  146.6955  133.2411  152.1628 C   0  0  1  0  0  0  0  0  0  0  0  0
  147.1710  131.8824  152.7122 C   0  0  0  0  0  0  0  0  0  0  0  0
  145.6632  133.0766  151.1253 N   0  0  0  0  0  0  0  0  0  0  0  0
  145.7468  132.3013  149.9962 C   0  0  0  0  0  0  0  0  0  0  0  0
  144.5665  132.4646  149.3179 C   0  0  0  0  0  0  0  0  0  0  0  0
  143.8103  133.3325  150.0584 N   0  3  0  0  0  0  0  0  0  0  0  0
  144.4769  133.7035  151.1560 C   0  0  0  0  0  0  0  0  0  0  0  0
  147.7141  139.3754  151.0350 H   0  0  0  0  0  0  0  0  0  0  0  0
  146.9168  140.2157  152.3691 H   0  0  0  0  0  0  0  0  0  0  0  0
  145.9553  139.3121  151.1863 H   0  0  0  0  0  0  0  0  0  0  0  0
  147.8130  137.5237  152.3825 H   0  0  0  0  0  0  0  0  0  0  0  0
  147.3082  136.6364  154.9391 H   0  0  0  0  0  0  0  0  0  0  0  0
  145.6231  136.1647  154.8790 H   0  0  0  0  0  0  0  0  0  0  0  0
  147.6102  135.5467  152.7271 H   0  0  0  0  0  0  0  0  0  0  0  0
  147.5519  133.7160  151.6807 H   0  0  0  0  0  0  0  0  0  0  0  0
  147.9576  132.0127  153.4564 H   0  0  0  0  0  0  0  0  0  0  0  0
  147.5786  131.2624  151.9132 H   0  0  0  0  0  0  0  0  0  0  0  0
  146.3605  131.3238  153.1816 H   0  0  0  0  0  0  0  0  0  0  0  0
  146.6183  131.7070  149.7626 H   0  0  0  0  0  0  0  0  0  0  0  0
  144.2178  132.0406  148.3874 H   0  0  0  0  0  0  0  0  0  0  0  0
  144.1286  134.3820  151.9145 H   0  0  0  0  0  0  0  0  0  0  0  0
  142.8819  133.6522  149.8120 H   0  0  0  0  0  0  0  0  0  0  0  0
  1  2  1  0  0  0  0
  1 16  1  0  0  0  0
  1 17  1  0  0  0  0
  1 18  1  0  0  0  0
  2  3  1  0  0  0  0
  2 19  1  0  0  0  0
  3  4  2  0  0  0  0
  3  5  1  0  0  0  0
  5  6  1  0  0  0  0
  5 20  1  0  0  0  0
  5 21  1  0  0  0  0
  6  7  1  0  0  0  0
  6 22  1  0  0  0  0
  7  8  2  0  0  0  0
  7  9  1  0  0  0  0
  9 10  1  0  0  0  0
  9 11  1  0  0  0  0
  9 23  1  0  0  0  0
 10 24  1  0  0  0  0
 10 25  1  0  0  0  0
 10 26  1  0  0  0  0
 11 15  1  0  0  0  0
 11 12  1  0  0  0  0
 12 13  2  0  0  0  0
 12 27  1  0  0  0  0
 13 14  1  0  0  0  0
 13 28  1  0  0  0  0
 14 15  2  0  0  0  0
 14 30  1  0  0  0  0
 15 29  1  0  0  0  0
M  CHG  1  14   1
M  END
> <s_m_source_file>
AV-unprocessed.smi

> <i_m_source_file_index>
3111

> <i_lp_mmshare_version>
43012

> <i_f3d_flags>
0

> <s_epik_input>
W0NIM11bTkhdQyg9TylbQ0gyXVtOSF1DKD1PKVtDQEhdKFtDSDNdKW4xW2NIXVtjSF1uW2NIXTE=

> <s_epik_cmdline>
J2VwaWtfcHl0aG9uJywgJy1waCcsICc3LjAnLCAnLXRuJywgJzgnLCAnLW1hJywgJzIwMCcsICctbWV0YWxfYmluZGluZycsICctaW1hZScsICc8aW5maWxlLm1hZT4nLCAnLW9tYWUnLCAnPG91dGZpbGUubWFlPic=

> <r_lp_tautomer_probability>
1

> <r_epik_Ionization_Penalty>
0.581414

> <r_epik_Ionization_Penalty_Charging>
0

> <r_epik_Ionization_Penalty_Neutral>
0.581414

> <r_epik_State_Penalty>
0.594207

> <r_epik_Charging_Adjusted_Penalty>
0.594207

> <i_epik_Tot_Q>
1

> <i_epik_Tot_abs_Q>
1

> <r_epik_Metal_State_Penalty>
0.784638

> <b_epik_Metal_Only>
0

> <s_lp_Force_Field>
OPLS_2005

> <r_lp_Energy>
5.66591

> <b_lp_Chiralities_Consistent>
1

> <s_lp_Variant>
AV-unprocessed.smi:3111-4

> <Gold.Version>
5.8.1

> <Gold.Id.Protein>
6NUR|6NUR_protein|mol2

> <Gold.PLP.Fitness>
37.8407

> <Gold.PLP.PLP>
-23.5983

> <Gold.PLP.part.hbond>
-2.9825

> <Gold.PLP.part.metal>
0.0000

> <Gold.PLP.part.buried>
-1.9717

> <Gold.PLP.part.nonpolar>
-19.9149

> <Gold.PLP.part.repulsive>
1.8265

> <Gold.PLP.ligand.clash>
0.0000

> <Gold.PLP.ligand.torsion>
0.2605

> <Gold.PLP.Chemscore.Hbond>
4.0000

> <Gold.PLP.Chemscore.CHOScore>
0.8889

> <Gold.PLP.Chemscore.Metal>
0.0000

> <Gold.Chemscore.Hbonds>
donor molecule, donor type, donor heavy atom, donor atom, acceptor molecule, acceptor atom, score
      L1  H     2    19       P1  7948  1.00
      L1  H     6    22       P1  7948  1.00
      L1  H    14    30       P1 10186  1.95
      L1  C    12    27       P1 10747  0.97

> <Gold.PLP.Chemscore.Internal.Correction>
0.0965

> <Gold.Rescore>
     Score         DG    S(hbond)    S(metal)    S(lipo)     H(rot)  DE(clash)    DE(int)     intcor
     13.18     -14.69       2.97        0.00      44.95       2.33       0.08       1.42       ----

> <Gold.Chemscore.Fitness>
13.1799

> <Gold.Chemscore.DG>
-14.6853

> <Gold.Chemscore.ZeroCoef>
-5.4800

> <Gold.Chemscore.Hbond>
2.9683

> <Gold.Chemscore.Metal>
0.0000

> <Gold.Chemscore.Lipo>
44.9462

> <Gold.Chemscore.Internal_Hbond>
0.0000

> <Gold.Chemscore.DEClash>
0.0848

> <Gold.Chemscore.DEInternal>
1.4206

> <Gold.Chemscore.Rot>
2.3311

> <Gold.Chemscore.Internal.Correction>
   9.000000E+99

> <Gold.Chemscore.Hbonds>
donor molecule, donor type, donor heavy atom, donor atom, acceptor molecule, acceptor atom, score
      L1  H     2    19       P1  7948  1.00
      L1  H     6    22       P1  7948  1.00
      L1  H    14    30       P1 10186  0.91

> <Gold.Chemscore.Hbond.Weighted>
-9.9142

> <Gold.Chemscore.Metal.Weighted>
-0.0000

> <Gold.Chemscore.Lipo.Weighted>
-5.2587

> <Gold.Chemscore.Internal_Hbond.Weighted>
0.0000

> <Gold.Chemscore.DEClash.Weighted>
0.0848

> <Gold.Chemscore.DEInternal.Weighted>
1.4206

> <Gold.Chemscore.Rot.Weighted>
5.9676

> <Gold.Chemscore.Internal.Correction.Weighted>
   9.000000E+99

> <Gold.Protein.RotatedTorsions>
[ 6907 6896 6895 6894 ] final  -29.55 input  -60.11 | X-H torsion
[ 7974 7965 7964 7962 ] final -150.85 input  175.53 | X-H torsion
[ 8008 7997 7996 7995 ] final -133.31 input   59.86 | X-H torsion
[ 10167 10162 10161 10158 ] final   78.97 input  -65.29 | X-H torsion
[ 10718 10713 10712 10709 ] final  -30.24 input   66.30 | X-H torsion
[ 10763 10752 10751 10750 ] final -133.34 input  -60.55 | X-H torsion
[ 11005 11000 10999 10996 ] final  124.83 input  -57.11 | X-H torsion

> <Gold.Protein.ActiveResidues>
 VAL166  LYS551  ARG553  GLY616  TRP617  ASP618  TYR619  PRO620  LYS621  CYS622 
 ASP623  PHE694  ASN695  SER759  ASP760  ASP761  ALA762  ILE779  LEU786  VAL792 
 PHE793  MET794  SER795  GLU796  ALA797  LYS798  CYS799  TRP800  GLU811  SER814 

> <Gold.Protein.RotatedAtoms>
  151.1177  135.0062  159.8523 H   0  0  0  0  0  0  0  0  0  0  0  0  # atno 6907 bound_to 6896
  152.5446  134.1760  159.8626 H   0  0  0  0  0  0  0  0  0  0  0  0  # atno 6908 bound_to 6896
  151.1815  133.4677  159.2627 H   0  0  0  0  0  0  0  0  0  0  0  0  # atno 6909 bound_to 6896
  144.7884  140.4877  143.5790 H   0  0  0  0  0  0  0  0  0  0  0  0  # atno 7974 bound_to 7965
  155.3434  140.0473  157.3045 H   0  0  0  0  0  0  0  0  0  0  0  0  # atno 8008 bound_to 7997
  154.5265  140.2242  155.8845 H   0  0  0  0  0  0  0  0  0  0  0  0  # atno 8009 bound_to 7997
  156.1745  140.3088  155.9039 H   0  0  0  0  0  0  0  0  0  0  0  0  # atno 8010 bound_to 7997
  139.9653  144.5933  150.8035 H   0  0  0  0  0  0  0  0  0  0  0  0  # atno 10167 bound_to 10162
  156.4022  130.4392  149.7314 H   0  0  0  0  0  0  0  0  0  0  0  0  # atno 10718 bound_to 10713
  154.8733  135.3769  154.4557 H   0  0  0  0  0  0  0  0  0  0  0  0  # atno 10763 bound_to 10752
  153.5229  135.7028  153.5727 H   0  0  0  0  0  0  0  0  0  0  0  0  # atno 10764 bound_to 10752
  153.3966  135.3959  155.1925 H   0  0  0  0  0  0  0  0  0  0  0  0  # atno 10765 bound_to 10752
  139.9377  134.9638  156.8467 H   0  0  0  0  0  0  0  0  0  0  0  0  # atno 11005 bound_to 11000
  145.5861  139.1492  143.3208 LP  0  0  0  0  0  0  0  0  0  0  0  0  # atno 17320 bound_to 7965
  146.2125  140.5988  142.9053 LP  0  0  0  0  0  0  0  0  0  0  0  0  # atno 17321 bound_to 7965
  140.7540  143.3019  151.3060 LP  0  0  0  0  0  0  0  0  0  0  0  0  # atno 17342 bound_to 10162
  139.6523  144.0340  152.2635 LP  0  0  0  0  0  0  0  0  0  0  0  0  # atno 17343 bound_to 10162
  156.4325  130.7822  151.2842 LP  0  0  0  0  0  0  0  0  0  0  0  0  # atno 17370 bound_to 10713
  157.7504  131.0149  150.3485 LP  0  0  0  0  0  0  0  0  0  0  0  0  # atno 17371 bound_to 10713
  140.6032  134.0152  155.7546 LP  0  0  0  0  0  0  0  0  0  0  0  0  # atno 17394 bound_to 11000
  141.0998  133.9786  157.3098 LP  0  0  0  0  0  0  0  0  0  0  0  0  # atno 17395 bound_to 11000

$$$$
