AV-unprocessed.smi:243|AV-procd|sdf|1860|dock5
  -GOLD-   2262020493D 1   1.00000     0.00000
 Structure written by MMmdl.
 58 61  0  0  0  0  0  0  0  0  2 V2000
  151.7446  144.8376  158.6383 C   0  0  0  0  0  0  0  0  0  0  0  0
  152.0178  143.7347  157.6050 C   0  0  0  0  0  0  0  0  0  0  0  0
  150.7844  143.0121  157.2027 N   0  3  2  0  0  0  0  0  0  0  0  0
  149.9357  142.6599  158.3682 C   0  0  0  0  0  0  0  0  0  0  0  0
  148.5890  142.0856  157.9088 C   0  0  0  0  0  0  0  0  0  0  0  0
  148.7869  140.8587  156.9914 C   0  0  1  0  0  0  0  0  0  0  0  0
  147.5162  140.2454  156.5748 N   0  0  0  0  0  0  0  0  0  0  0  0
  147.1074  140.3804  155.1821 C   0  0  0  0  0  0  0  0  0  0  0  0
  147.0343  139.1236  157.1678 C   0  0  0  0  0  0  0  0  0  0  0  0
  145.7637  138.7087  156.9255 N   0  0  0  0  0  0  0  0  0  0  0  0
  145.2888  137.6094  157.5186 C   0  0  0  0  0  0  0  0  0  0  0  0
  145.9044  136.7911  158.3740 N   0  0  0  0  0  0  0  0  0  0  0  0
  147.1795  137.2050  158.6247 C   0  0  0  0  0  0  0  0  0  0  0  0
  147.8169  138.3492  158.0678 C   0  0  0  0  0  0  0  0  0  0  0  0
  149.1211  138.4414  158.5371 N   0  0  0  0  0  0  0  0  0  0  0  0
  149.2474  137.4109  159.3275 C   0  0  0  0  0  0  0  0  0  0  0  0
  148.1253  136.6221  159.4508 N   0  0  0  0  0  0  0  0  0  0  0  0
  147.9869  135.4192  160.2585 C   0  0  0  0  0  0  0  0  0  0  0  0
  147.5672  135.6834  161.7275 C   0  0  2  0  0  0  0  0  0  0  0  0
  148.4443  136.6353  162.3011 O   0  0  0  0  0  0  0  0  0  0  0  0
  147.5432  134.4318  162.6080 C   0  0  0  0  0  0  0  0  0  0  0  0
  146.0709  134.0482  162.6174 C   0  0  0  0  0  0  0  0  0  0  0  0
  145.4324  135.3097  162.6941 O   0  0  0  0  0  0  0  0  0  0  0  0
  146.1153  136.1972  161.8166 C   0  0  0  0  0  0  0  0  0  0  0  0
  149.7462  141.1965  155.8179 C   0  0  2  0  0  0  0  0  0  0  0  0
  150.0739  139.9610  154.9597 C   0  0  0  0  0  0  0  0  0  0  0  0
  151.0510  141.8203  156.3556 C   0  0  0  0  0  0  0  0  0  0  0  0
  152.6800  145.2755  158.9871 H   0  0  0  0  0  0  0  0  0  0  0  0
  151.2224  144.4412  159.5096 H   0  0  0  0  0  0  0  0  0  0  0  0
  151.1456  145.6489  158.2257 H   0  0  0  0  0  0  0  0  0  0  0  0
  152.5176  144.1437  156.7258 H   0  0  0  0  0  0  0  0  0  0  0  0
  152.7159  143.0281  158.0557 H   0  0  0  0  0  0  0  0  0  0  0  0
  150.4591  141.9415  159.0013 H   0  0  0  0  0  0  0  0  0  0  0  0
  149.7529  143.5460  158.9774 H   0  0  0  0  0  0  0  0  0  0  0  0
  147.9982  141.8111  158.7834 H   0  0  0  0  0  0  0  0  0  0  0  0
  148.0333  142.8716  157.3994 H   0  0  0  0  0  0  0  0  0  0  0  0
  149.2909  140.0985  157.5901 H   0  0  0  0  0  0  0  0  0  0  0  0
  147.3633  139.4832  154.6170 H   0  0  0  0  0  0  0  0  0  0  0  0
  147.6032  141.2286  154.7095 H   0  0  0  0  0  0  0  0  0  0  0  0
  146.0322  140.5404  155.1032 H   0  0  0  0  0  0  0  0  0  0  0  0
  144.2694  137.3491  157.2750 H   0  0  0  0  0  0  0  0  0  0  0  0
  150.1696  137.1984  159.8486 H   0  0  0  0  0  0  0  0  0  0  0  0
  147.2569  134.7693  159.7737 H   0  0  0  0  0  0  0  0  0  0  0  0
  148.9360  134.8824  160.2302 H   0  0  0  0  0  0  0  0  0  0  0  0
  148.8887  136.2320  163.0309 H   0  0  0  0  0  0  0  0  0  0  0  0
  148.1837  133.6218  162.2643 H   0  0  0  0  0  0  0  0  0  0  0  0
  147.8458  134.6712  163.6290 H   0  0  0  0  0  0  0  0  0  0  0  0
  145.7893  133.5435  161.6919 H   0  0  0  0  0  0  0  0  0  0  0  0
  145.8052  133.4080  163.4588 H   0  0  0  0  0  0  0  0  0  0  0  0
  146.0414  137.2221  162.1827 H   0  0  0  0  0  0  0  0  0  0  0  0
  145.6231  136.1641  160.8436 H   0  0  0  0  0  0  0  0  0  0  0  0
  149.2820  141.9393  155.1693 H   0  0  0  0  0  0  0  0  0  0  0  0
  150.5302  139.1722  155.5587 H   0  0  0  0  0  0  0  0  0  0  0  0
  150.7685  140.2127  154.1579 H   0  0  0  0  0  0  0  0  0  0  0  0
  149.1822  139.5457  154.4905 H   0  0  0  0  0  0  0  0  0  0  0  0
  151.6795  142.0976  155.5102 H   0  0  0  0  0  0  0  0  0  0  0  0
  151.6126  141.0845  156.9337 H   0  0  0  0  0  0  0  0  0  0  0  0
  150.2445  143.6583  156.6446 H   0  0  0  0  0  0  0  0  0  0  0  0
  1  2  1  0  0  0  0
  1 28  1  0  0  0  0
  1 29  1  0  0  0  0
  1 30  1  0  0  0  0
  2  3  1  0  0  0  0
  2 31  1  0  0  0  0
  2 32  1  0  0  0  0
  3 27  1  0  0  0  0
  3  4  1  0  0  0  0
  3 58  1  0  0  0  0
  4  5  1  0  0  0  0
  4 33  1  0  0  0  0
  4 34  1  0  0  0  0
  5  6  1  0  0  0  0
  5 35  1  0  0  0  0
  5 36  1  0  0  0  0
  6  7  1  0  0  0  0
  6 25  1  0  0  0  0
  6 37  1  0  0  0  0
  7  8  1  0  0  0  0
  7  9  1  0  0  0  0
  8 38  1  0  0  0  0
  8 39  1  0  0  0  0
  8 40  1  0  0  0  0
  9 14  1  0  0  0  0
  9 10  2  0  0  0  0
 10 11  1  0  0  0  0
 11 12  2  0  0  0  0
 11 41  1  0  0  0  0
 12 13  1  0  0  0  0
 13 17  1  0  0  0  0
 13 14  2  0  0  0  0
 14 15  1  0  0  0  0
 15 16  2  0  0  0  0
 16 17  1  0  0  0  0
 16 42  1  0  0  0  0
 17 18  1  0  0  0  0
 18 19  1  0  0  0  0
 18 43  1  0  0  0  0
 18 44  1  0  0  0  0
 19 24  1  0  0  0  0
 19 20  1  0  0  0  0
 19 21  1  0  0  0  0
 20 45  1  0  0  0  0
 21 22  1  0  0  0  0
 21 46  1  0  0  0  0
 21 47  1  0  0  0  0
 22 23  1  0  0  0  0
 22 48  1  0  0  0  0
 22 49  1  0  0  0  0
 23 24  1  0  0  0  0
 24 50  1  0  0  0  0
 24 51  1  0  0  0  0
 25 26  1  0  0  0  0
 25 27  1  0  0  0  0
 25 52  1  0  0  0  0
 26 53  1  0  0  0  0
 26 54  1  0  0  0  0
 26 55  1  0  0  0  0
 27 56  1  0  0  0  0
 27 57  1  0  0  0  0
M  CHG  1   3   1
M  END
> <s_m_source_file>
AV-unprocessed.smi

> <i_m_source_file_index>
243

> <i_lp_mmshare_version>
43012

> <i_f3d_flags>
0

> <s_epik_input>
W0NIM11bQ0gyXU4xW0NIMl1bQ0gyXVtDQEhdKFtDQEBIXShbQ0gzXSlbQ0gyXTEpTihbQ0gzXSljKG5bY0hdbjIpYyhjMjMpbltjSF1uM1tDSDJdW0NAQF00KFtPSF0pW0NIMl1bQ0gyXU9bQ0gyXTQ=

> <s_epik_cmdline>
J2VwaWtfcHl0aG9uJywgJy1waCcsICc3LjAnLCAnLXRuJywgJzgnLCAnLW1hJywgJzIwMCcsICctbWV0YWxfYmluZGluZycsICctaW1hZScsICc8aW5maWxlLm1hZT4nLCAnLW9tYWUnLCAnPG91dGZpbGUubWFlPic=

> <r_lp_tautomer_probability>
1

> <r_epik_Ionization_Penalty>
0.00253099

> <r_epik_Ionization_Penalty_Charging>
0.00137877

> <r_epik_Ionization_Penalty_Neutral>
0.00115221

> <r_epik_State_Penalty>
-0

> <r_epik_Charging_Adjusted_Penalty>
0.00137877

> <i_epik_Tot_Q>
1

> <i_epik_Tot_abs_Q>
1

> <r_epik_Metal_State_Penalty>
-0

> <b_epik_Metal_Only>
0

> <s_lp_Force_Field>
OPLS_2005

> <r_lp_Energy>
45.5006

> <b_lp_Chiralities_Consistent>
1

> <s_lp_Variant>
AV-unprocessed.smi:243-13

> <Gold.Version>
5.8.1

> <Gold.Id.Protein>
6NUR|6NUR_protein|mol2

> <Gold.PLP.Fitness>
48.4049

> <Gold.PLP.PLP>
-40.6954

> <Gold.PLP.part.hbond>
-2.2664

> <Gold.PLP.part.metal>
0.0000

> <Gold.PLP.part.buried>
-6.5485

> <Gold.PLP.part.nonpolar>
-32.3389

> <Gold.PLP.part.repulsive>
0.0024

> <Gold.PLP.ligand.clash>
0.0000

> <Gold.PLP.ligand.torsion>
1.1753

> <Gold.PLP.Chemscore.Hbond>
3.0000

> <Gold.PLP.Chemscore.CHOScore>
0.0000

> <Gold.PLP.Chemscore.Metal>
0.0000

> <Gold.Chemscore.Hbonds>
donor molecule, donor type, donor heavy atom, donor atom, acceptor molecule, acceptor atom, score
      L1  H     3    58       P1  8028  2.00
      P1  H  6931  6943       L1    20  1.00

> <Gold.PLP.Chemscore.Internal.Correction>
1.0601

> <Gold.Rescore>
     Score         DG    S(hbond)    S(metal)    S(lipo)     H(rot)  DE(clash)    DE(int)     intcor
     15.13     -17.59       1.90        0.00      98.25       2.24       0.03       2.43       ----

> <Gold.Chemscore.Fitness>
15.1319

> <Gold.Chemscore.DG>
-17.5934

> <Gold.Chemscore.ZeroCoef>
-5.4800

> <Gold.Chemscore.Hbond>
1.9002

> <Gold.Chemscore.Metal>
0.0000

> <Gold.Chemscore.Lipo>
98.2540

> <Gold.Chemscore.Internal_Hbond>
0.0000

> <Gold.Chemscore.DEClash>
0.0327

> <Gold.Chemscore.DEInternal>
2.4288

> <Gold.Chemscore.Rot>
2.2379

> <Gold.Chemscore.Internal.Correction>
   9.000000E+99

> <Gold.Chemscore.Hbonds>
donor molecule, donor type, donor heavy atom, donor atom, acceptor molecule, acceptor atom, score
      L1  H     3    58       P1  8028  0.98
      P1  H  6931  6943       L1    20  0.85

> <Gold.Chemscore.Hbond.Weighted>
-6.3468

> <Gold.Chemscore.Metal.Weighted>
-0.0000

> <Gold.Chemscore.Lipo.Weighted>
-11.4957

> <Gold.Chemscore.Internal_Hbond.Weighted>
0.0000

> <Gold.Chemscore.DEClash.Weighted>
0.0327

> <Gold.Chemscore.DEInternal.Weighted>
2.4288

> <Gold.Chemscore.Rot.Weighted>
5.7291

> <Gold.Chemscore.Internal.Correction.Weighted>
   9.000000E+99

> <Gold.Protein.RotatedTorsions>
[ 6907 6896 6895 6894 ] final  -86.61 input  -60.11 | X-H torsion
[ 7974 7965 7964 7962 ] final  -53.03 input  175.53 | X-H torsion
[ 8008 7997 7996 7995 ] final   68.57 input   59.86 | X-H torsion
[ 10167 10162 10161 10158 ] final   77.87 input  -65.29 | X-H torsion
[ 10718 10713 10712 10709 ] final -177.40 input   66.30 | X-H torsion
[ 10763 10752 10751 10750 ] final  -47.29 input  -60.55 | X-H torsion
[ 11005 11000 10999 10996 ] final  120.87 input  -57.11 | X-H torsion

> <Gold.Protein.ActiveResidues>
 VAL166  LYS551  ARG553  GLY616  TRP617  ASP618  TYR619  PRO620  LYS621  CYS622 
 ASP623  PHE694  ASN695  SER759  ASP760  ASP761  ALA762  ILE779  LEU786  VAL792 
 PHE793  MET794  SER795  GLU796  ALA797  LYS798  CYS799  TRP800  GLU811  SER814 

> <Gold.Protein.RotatedAtoms>
  150.6867  134.3024  159.4711 H   0  0  0  0  0  0  0  0  0  0  0  0  # atno 6907 bound_to 6896
  152.0918  134.9399  160.0581 H   0  0  0  0  0  0  0  0  0  0  0  0  # atno 6908 bound_to 6896
  152.0712  133.4073  159.4497 H   0  0  0  0  0  0  0  0  0  0  0  0  # atno 6909 bound_to 6896
  145.9013  140.7991  142.9742 H   0  0  0  0  0  0  0  0  0  0  0  0  # atno 7974 bound_to 7965
  155.7103  140.3494  155.4971 H   0  0  0  0  0  0  0  0  0  0  0  0  # atno 8008 bound_to 7997
  155.9361  140.1093  157.1115 H   0  0  0  0  0  0  0  0  0  0  0  0  # atno 8009 bound_to 7997
  154.4094  140.1222  156.4853 H   0  0  0  0  0  0  0  0  0  0  0  0  # atno 8010 bound_to 7997
  139.9770  144.5854  150.7935 H   0  0  0  0  0  0  0  0  0  0  0  0  # atno 10167 bound_to 10162
  156.8290  130.9646  151.3107 H   0  0  0  0  0  0  0  0  0  0  0  0  # atno 10718 bound_to 10713
  154.0589  135.6621  153.4809 H   0  0  0  0  0  0  0  0  0  0  0  0  # atno 10763 bound_to 10752
  153.0434  135.5130  154.7678 H   0  0  0  0  0  0  0  0  0  0  0  0  # atno 10764 bound_to 10752
  154.6708  135.3029  154.9711 H   0  0  0  0  0  0  0  0  0  0  0  0  # atno 10765 bound_to 10752
  139.9202  134.9636  156.7872 H   0  0  0  0  0  0  0  0  0  0  0  0  # atno 11005 bound_to 11000
  144.6736  140.1682  143.7416 LP  0  0  0  0  0  0  0  0  0  0  0  0  # atno 17320 bound_to 7965
  145.8787  139.2311  143.1618 LP  0  0  0  0  0  0  0  0  0  0  0  0  # atno 17321 bound_to 7965
  140.7502  143.2952  151.3224 LP  0  0  0  0  0  0  0  0  0  0  0  0  # atno 17342 bound_to 10162
  139.6438  144.0489  152.2575 LP  0  0  0  0  0  0  0  0  0  0  0  0  # atno 17343 bound_to 10162
  157.6417  130.8811  149.9461 LP  0  0  0  0  0  0  0  0  0  0  0  0  # atno 17370 bound_to 10713
  156.0945  130.3660  150.0332 LP  0  0  0  0  0  0  0  0  0  0  0  0  # atno 17371 bound_to 10713
  140.6496  133.9743  155.7748 LP  0  0  0  0  0  0  0  0  0  0  0  0  # atno 17394 bound_to 11000
  141.0717  134.0196  157.3517 LP  0  0  0  0  0  0  0  0  0  0  0  0  # atno 17395 bound_to 11000

$$$$
