AV-unprocessed.smi:1599|AV-procd|sdf|6424|dock2
  -GOLD-   22720 7 63D 1   1.00000     0.00000
 Structure written by MMmdl.
 39 40  0  0  0  0  0  0  0  0  1 V2000
  147.4225  141.6008  153.8177 C   0  0  0  0  0  0  0  0  0  0  0  0
  147.9925  140.2020  154.0963 C   0  0  1  0  0  0  0  0  0  0  0  0
  147.5721  139.2871  153.0370 N   0  0  0  0  0  0  0  0  0  0  0  0
  146.5993  138.3699  153.1343 C   0  0  0  0  0  0  0  0  0  0  0  0
  145.9179  138.1989  154.1448 O   0  0  0  0  0  0  0  0  0  0  0  0
  146.4762  137.6720  151.9941 N   0  0  0  0  0  0  0  0  0  0  0  0
  145.5776  136.6078  151.7340 C   0  0  0  0  0  0  0  0  0  0  0  0
  144.3789  136.2528  152.4148 C   0  0  0  0  0  0  0  0  0  0  0  0
  143.8207  135.1839  151.8669 N   0  0  0  0  0  0  0  0  0  0  0  0
  144.6376  134.8448  150.8384 N   0  0  0  0  0  0  0  0  0  0  0  0
  144.3167  133.6923  150.0140 C   0  0  0  0  0  0  0  0  0  0  0  0
  145.2978  132.5407  150.2508 C   0  0  0  0  0  0  0  0  0  0  0  0
  146.5872  132.7777  149.9959 N   0  0  0  0  0  0  0  0  0  0  0  0
  144.9007  131.4504  150.6575 O   0  0  0  0  0  0  0  0  0  0  0  0
  145.7216  135.6950  150.7330 C   0  0  0  0  0  0  0  0  0  0  0  0
  149.5295  140.2105  154.1959 C   0  0  2  0  0  0  0  0  0  0  0  0
  150.1564  138.8489  154.4947 C   0  0  0  0  0  0  0  0  0  0  0  0
  151.5112  139.2190  155.0698 C   0  0  0  0  0  0  0  0  0  0  0  0
  151.3110  140.6443  155.5945 C   0  0  0  0  0  0  0  0  0  0  0  0
  149.9578  140.9793  155.3094 O   0  0  0  0  0  0  0  0  0  0  0  0
  147.7032  142.3035  154.6026 H   0  0  0  0  0  0  0  0  0  0  0  0
  146.3330  141.5788  153.7733 H   0  0  0  0  0  0  0  0  0  0  0  0
  147.7872  141.9983  152.8700 H   0  0  0  0  0  0  0  0  0  0  0  0
  147.5997  139.8628  155.0566 H   0  0  0  0  0  0  0  0  0  0  0  0
  148.0731  139.3516  152.1632 H   0  0  0  0  0  0  0  0  0  0  0  0
  147.0991  137.9187  151.2391 H   0  0  0  0  0  0  0  0  0  0  0  0
  143.9009  136.7130  153.2665 H   0  0  0  0  0  0  0  0  0  0  0  0
  143.2949  133.3824  150.2382 H   0  0  0  0  0  0  0  0  0  0  0  0
  144.3417  133.9767  148.9609 H   0  0  0  0  0  0  0  0  0  0  0  0
  147.2724  132.0490  150.1334 H   0  0  0  0  0  0  0  0  0  0  0  0
  146.8713  133.6875  149.6625 H   0  0  0  0  0  0  0  0  0  0  0  0
  146.4803  135.5768  149.9734 H   0  0  0  0  0  0  0  0  0  0  0  0
  149.9703  140.6274  153.2881 H   0  0  0  0  0  0  0  0  0  0  0  0
  149.5684  138.3212  155.2473 H   0  0  0  0  0  0  0  0  0  0  0  0
  150.2299  138.2097  153.6142 H   0  0  0  0  0  0  0  0  0  0  0  0
  151.8220  138.5266  155.8526 H   0  0  0  0  0  0  0  0  0  0  0  0
  152.2742  139.2101  154.2908 H   0  0  0  0  0  0  0  0  0  0  0  0
  151.5008  140.7206  156.6655 H   0  0  0  0  0  0  0  0  0  0  0  0
  151.9755  141.3403  155.0813 H   0  0  0  0  0  0  0  0  0  0  0  0
  1  2  1  0  0  0  0
  1 21  1  0  0  0  0
  1 22  1  0  0  0  0
  1 23  1  0  0  0  0
  2  3  1  0  0  0  0
  2 16  1  0  0  0  0
  2 24  1  0  0  0  0
  3  4  1  0  0  0  0
  3 25  1  0  0  0  0
  4  5  2  0  0  0  0
  4  6  1  0  0  0  0
  6  7  1  0  0  0  0
  6 26  1  0  0  0  0
  7 15  2  0  0  0  0
  7  8  1  0  0  0  0
  8  9  2  0  0  0  0
  8 27  1  0  0  0  0
  9 10  1  0  0  0  0
 10 11  1  0  0  0  0
 10 15  1  0  0  0  0
 11 12  1  0  0  0  0
 11 28  1  0  0  0  0
 11 29  1  0  0  0  0
 12 13  1  0  0  0  0
 12 14  2  0  0  0  0
 13 30  1  0  0  0  0
 13 31  1  0  0  0  0
 15 32  1  0  0  0  0
 16 20  1  0  0  0  0
 16 17  1  0  0  0  0
 16 33  1  0  0  0  0
 17 18  1  0  0  0  0
 17 34  1  0  0  0  0
 17 35  1  0  0  0  0
 18 19  1  0  0  0  0
 18 36  1  0  0  0  0
 18 37  1  0  0  0  0
 19 20  1  0  0  0  0
 19 38  1  0  0  0  0
 19 39  1  0  0  0  0
M  END
> <s_m_source_file>
AV-unprocessed.smi

> <i_m_source_file_index>
1599

> <i_lp_mmshare_version>
43012

> <i_f3d_flags>
0

> <s_epik_input>
TzFbQ0gyXVtDSDJdW0NIMl1bQ0BIXTFbQ0BIXShbQ0gzXSlbTkhdQyg9TylbTkhdYzJbY0hdbm4oW2NIXTIpW0NIMl1DKD1PKVtOSDJd

> <s_epik_cmdline>
J2VwaWtfcHl0aG9uJywgJy1waCcsICc3LjAnLCAnLXRuJywgJzgnLCAnLW1hJywgJzIwMCcsICctbWV0YWxfYmluZGluZycsICctaW1hZScsICc8aW5maWxlLm1hZT4nLCAnLW9tYWUnLCAnPG91dGZpbGUubWFlPic=

> <r_lp_tautomer_probability>
1

> <r_epik_Ionization_Penalty>
4.15391e-05

> <r_epik_Ionization_Penalty_Charging>
0

> <r_epik_Ionization_Penalty_Neutral>
4.15391e-05

> <r_epik_State_Penalty>
-0

> <r_epik_Charging_Adjusted_Penalty>
0

> <i_epik_Tot_Q>
0

> <i_epik_Tot_abs_Q>
0

> <r_epik_Metal_State_Penalty>
-0

> <b_epik_Metal_Only>
0

> <s_lp_Force_Field>
OPLS_2005

> <r_lp_Energy>
20.7391

> <b_lp_Chiralities_Consistent>
1

> <s_lp_Variant>
AV-unprocessed.smi:1599-2

> <Gold.Version>
5.8.1

> <Gold.Id.Protein>
6NUR|6NUR_protein|mol2

> <Gold.PLP.Fitness>
44.6073

> <Gold.PLP.PLP>
-36.7171

> <Gold.PLP.part.hbond>
-3.1574

> <Gold.PLP.part.metal>
0.0000

> <Gold.PLP.part.buried>
-4.8257

> <Gold.PLP.part.nonpolar>
-28.7402

> <Gold.PLP.part.repulsive>
0.7152

> <Gold.PLP.ligand.clash>
0.0000

> <Gold.PLP.ligand.torsion>
0.3795

> <Gold.PLP.Chemscore.Hbond>
2.0000

> <Gold.PLP.Chemscore.CHOScore>
0.8636

> <Gold.PLP.Chemscore.Metal>
0.0000

> <Gold.Chemscore.Hbonds>
donor molecule, donor type, donor heavy atom, donor atom, acceptor molecule, acceptor atom, score
      L1  H     3    25       P1  7957  1.00
      L1  H    13    30       P1 10747  0.89
      L1  C    15    32       P1  7921  0.95

> <Gold.PLP.Chemscore.Internal.Correction>
0.0586

> <Gold.Rescore>
     Score         DG    S(hbond)    S(metal)    S(lipo)     H(rot)  DE(clash)    DE(int)     intcor
     12.72     -14.05       1.96        0.00      67.30       2.28       0.00       1.33       ----

> <Gold.Chemscore.Fitness>
12.7207

> <Gold.Chemscore.DG>
-14.0460

> <Gold.Chemscore.ZeroCoef>
-5.4800

> <Gold.Chemscore.Hbond>
1.9566

> <Gold.Chemscore.Metal>
0.0000

> <Gold.Chemscore.Lipo>
67.2970

> <Gold.Chemscore.Internal_Hbond>
0.0000

> <Gold.Chemscore.DEClash>
0.0000

> <Gold.Chemscore.DEInternal>
1.3253

> <Gold.Chemscore.Rot>
2.2823

> <Gold.Chemscore.Internal.Correction>
   9.000000E+99

> <Gold.Chemscore.Hbonds>
donor molecule, donor type, donor heavy atom, donor atom, acceptor molecule, acceptor atom, score
      L1  H     3    25       P1  7957  0.94
      L1  H    13    30       P1 10747  0.87

> <Gold.Chemscore.Hbond.Weighted>
-6.5349

> <Gold.Chemscore.Metal.Weighted>
-0.0000

> <Gold.Chemscore.Lipo.Weighted>
-7.8738

> <Gold.Chemscore.Internal_Hbond.Weighted>
0.0000

> <Gold.Chemscore.DEClash.Weighted>
0.0000

> <Gold.Chemscore.DEInternal.Weighted>
1.3253

> <Gold.Chemscore.Rot.Weighted>
5.8427

> <Gold.Chemscore.Internal.Correction.Weighted>
   9.000000E+99

> <Gold.Protein.RotatedTorsions>
[ 6907 6896 6895 6894 ] final -133.23 input  -60.11 | X-H torsion
[ 7974 7965 7964 7962 ] final -175.80 input  175.53 | X-H torsion
[ 8008 7997 7996 7995 ] final   25.69 input   59.86 | X-H torsion
[ 10167 10162 10161 10158 ] final -134.24 input  -65.29 | X-H torsion
[ 10718 10713 10712 10709 ] final  -56.01 input   66.30 | X-H torsion
[ 10763 10752 10751 10750 ] final -120.08 input  -60.55 | X-H torsion
[ 11005 11000 10999 10996 ] final  135.93 input  -57.11 | X-H torsion

> <Gold.Protein.ActiveResidues>
 VAL166  LYS551  ARG553  GLY616  TRP617  ASP618  TYR619  PRO620  LYS621  CYS622 
 ASP623  PHE694  ASN695  SER759  ASP760  ASP761  ALA762  ILE779  LEU786  VAL792 
 PHE793  MET794  SER795  GLU796  ALA797  LYS798  CYS799  TRP800  GLU811  SER814 

> <Gold.Protein.RotatedAtoms>
  150.9716  133.6338  159.2736 H   0  0  0  0  0  0  0  0  0  0  0  0  # atno 6907 bound_to 6896
  151.3625  135.0905  159.9449 H   0  0  0  0  0  0  0  0  0  0  0  0  # atno 6908 bound_to 6896
  152.5185  133.9287  159.7624 H   0  0  0  0  0  0  0  0  0  0  0  0  # atno 6909 bound_to 6896
  144.7127  140.1266  143.6401 H   0  0  0  0  0  0  0  0  0  0  0  0  # atno 7974 bound_to 7965
  155.0157  140.3142  155.4813 H   0  0  0  0  0  0  0  0  0  0  0  0  # atno 8008 bound_to 7997
  156.2901  140.2206  156.5214 H   0  0  0  0  0  0  0  0  0  0  0  0  # atno 8009 bound_to 7997
  154.7496  140.0467  157.0870 H   0  0  0  0  0  0  0  0  0  0  0  0  # atno 8010 bound_to 7997
  139.8900  143.6734  152.2613 H   0  0  0  0  0  0  0  0  0  0  0  0  # atno 10167 bound_to 10162
  156.1322  130.4159  150.0248 H   0  0  0  0  0  0  0  0  0  0  0  0  # atno 10718 bound_to 10713
  154.8635  135.4215  154.2403 H   0  0  0  0  0  0  0  0  0  0  0  0  # atno 10763 bound_to 10752
  153.3369  135.6991  153.6905 H   0  0  0  0  0  0  0  0  0  0  0  0  # atno 10764 bound_to 10752
  153.5899  135.3557  155.2880 H   0  0  0  0  0  0  0  0  0  0  0  0  # atno 10765 bound_to 10752
  140.0012  134.9477  157.0076 H   0  0  0  0  0  0  0  0  0  0  0  0  # atno 11005 bound_to 11000
  145.9324  139.2615  143.1317 LP  0  0  0  0  0  0  0  0  0  0  0  0  # atno 17320 bound_to 7965
  145.9509  140.8909  143.0259 LP  0  0  0  0  0  0  0  0  0  0  0  0  # atno 17321 bound_to 7965
  139.7118  144.7619  151.1099 LP  0  0  0  0  0  0  0  0  0  0  0  0  # atno 17342 bound_to 10162
  140.7728  143.5321  150.9411 LP  0  0  0  0  0  0  0  0  0  0  0  0  # atno 17343 bound_to 10162
  156.8156  130.9340  151.3643 LP  0  0  0  0  0  0  0  0  0  0  0  0  # atno 17370 bound_to 10713
  157.6499  130.8876  149.9612 LP  0  0  0  0  0  0  0  0  0  0  0  0  # atno 17371 bound_to 10713
  140.4724  134.1372  155.7205 LP  0  0  0  0  0  0  0  0  0  0  0  0  # atno 17394 bound_to 11000
  141.1643  133.8733  157.1759 LP  0  0  0  0  0  0  0  0  0  0  0  0  # atno 17395 bound_to 11000

$$$$
