AV-unprocessed.smi:450|AV-procd|sdf|2607|dock10
  -GOLD-   2262023 03D 1   1.00000     0.00000
 Structure written by MMmdl.
 32 32  0  0  0  0  0  0  0  0  1 V2000
  145.8683  134.9864  151.2730 C   0  0  0  0  0  0  0  0  0  0  0  0
  145.6372  136.4416  151.7057 C   0  0  0  0  0  0  0  0  0  0  0  0
  145.7647  136.6682  153.2247 C   0  0  2  0  0  0  0  0  0  0  0  0
  145.3489  138.0911  153.6234 C   0  0  0  0  0  0  0  0  0  0  0  0
  147.1376  136.4270  153.6659 N   0  0  0  0  0  0  0  0  0  0  0  0
  147.6241  136.6574  154.8952 C   0  0  0  0  0  0  0  0  0  0  0  0
  146.9489  137.1170  155.8176 O   0  0  0  0  0  0  0  0  0  0  0  0
  149.1023  136.3030  155.0971 C   0  0  0  0  0  0  0  0  0  0  0  0
  149.9391  137.4779  155.3377 N   0  0  0  0  0  0  0  0  0  0  0  0
  150.2551  138.4658  154.4760 C   0  0  0  0  0  0  0  0  0  0  0  0
  149.7755  138.4597  153.1745 N   0  0  0  0  0  0  0  0  0  0  0  0
  151.0475  139.4059  154.9837 N   0  0  0  0  0  0  0  0  0  0  0  0
  151.2888  139.0059  156.2966 C   0  0  0  0  0  0  0  0  0  0  0  0
  152.1133  139.7646  157.1753 C   0  0  0  0  0  0  0  0  0  0  0  0
  152.7829  140.3789  157.8914 N   0  0  0  0  0  0  0  0  0  0  0  0
  150.6107  137.8246  156.5078 C   0  0  0  0  0  0  0  0  0  0  0  0
  150.5916  137.0710  157.7005 C   0  0  0  0  0  0  0  0  0  0  0  0
  150.5752  136.4542  158.6789 N   0  0  0  0  0  0  0  0  0  0  0  0
  145.7060  134.8718  150.2013 H   0  0  0  0  0  0  0  0  0  0  0  0
  145.1843  134.3101  151.7865 H   0  0  0  0  0  0  0  0  0  0  0  0
  146.8863  134.6603  151.4868 H   0  0  0  0  0  0  0  0  0  0  0  0
  146.3352  137.0900  151.1745 H   0  0  0  0  0  0  0  0  0  0  0  0
  144.6399  136.7435  151.3838 H   0  0  0  0  0  0  0  0  0  0  0  0
  145.0810  135.9794  153.7238 H   0  0  0  0  0  0  0  0  0  0  0  0
  144.3188  138.2952  153.3301 H   0  0  0  0  0  0  0  0  0  0  0  0
  145.9844  138.8395  153.1490 H   0  0  0  0  0  0  0  0  0  0  0  0
  145.4167  138.2320  154.7027 H   0  0  0  0  0  0  0  0  0  0  0  0
  147.7699  136.0474  152.9760 H   0  0  0  0  0  0  0  0  0  0  0  0
  149.1998  135.6144  155.9372 H   0  0  0  0  0  0  0  0  0  0  0  0
  149.4715  135.7714  154.2195 H   0  0  0  0  0  0  0  0  0  0  0  0
  149.1787  137.7170  152.8394 H   0  0  0  0  0  0  0  0  0  0  0  0
  149.9698  139.2161  152.5346 H   0  0  0  0  0  0  0  0  0  0  0  0
  1  2  1  0  0  0  0
  1 19  1  0  0  0  0
  1 20  1  0  0  0  0
  1 21  1  0  0  0  0
  2  3  1  0  0  0  0
  2 22  1  0  0  0  0
  2 23  1  0  0  0  0
  3  4  1  0  0  0  0
  3  5  1  0  0  0  0
  3 24  1  0  0  0  0
  4 25  1  0  0  0  0
  4 26  1  0  0  0  0
  4 27  1  0  0  0  0
  5  6  1  0  0  0  0
  5 28  1  0  0  0  0
  6  7  2  0  0  0  0
  6  8  1  0  0  0  0
  8  9  1  0  0  0  0
  8 29  1  0  0  0  0
  8 30  1  0  0  0  0
  9 16  1  0  0  0  0
  9 10  1  0  0  0  0
 10 11  1  0  0  0  0
 10 12  2  0  0  0  0
 11 31  1  0  0  0  0
 11 32  1  0  0  0  0
 12 13  1  0  0  0  0
 13 14  1  0  0  0  0
 13 16  2  0  0  0  0
 14 15  3  0  0  0  0
 16 17  1  0  0  0  0
 17 18  3  0  0  0  0
M  END
> <s_m_source_file>
AV-unprocessed.smi

> <i_m_source_file_index>
450

> <i_lp_mmshare_version>
43012

> <i_f3d_flags>
0

> <s_epik_input>
W0NIM11bQ0gyXVtDQEhdKFtDSDNdKVtOSF1DKD1PKVtDSDJdbjFjKFtOSDJdKW5jKEMjTiljMUMjTg==

> <s_epik_cmdline>
J2VwaWtfcHl0aG9uJywgJy1waCcsICc3LjAnLCAnLXRuJywgJzgnLCAnLW1hJywgJzIwMCcsICctbWV0YWxfYmluZGluZycsICctaW1hZScsICc8aW5maWxlLm1hZT4nLCAnLW9tYWUnLCAnPG91dGZpbGUubWFlPic=

> <r_epik_Ionization_Penalty>
0.000482749

> <r_epik_Ionization_Penalty_Charging>
7.71074e-10

> <r_epik_Ionization_Penalty_Neutral>
0.000482748

> <r_epik_State_Penalty>
0.000433536

> <r_epik_Charging_Adjusted_Penalty>
0.000433537

> <i_epik_Tot_Q>
0

> <i_epik_Tot_abs_Q>
0

> <r_epik_Metal_State_Penalty>
-0

> <b_epik_Metal_Only>
0

> <s_lp_Force_Field>
OPLS_2005

> <r_lp_Energy>
6.35239

> <b_lp_Chiralities_Consistent>
1

> <s_lp_Variant>
AV-unprocessed.smi:450-1

> <Gold.Version>
5.8.1

> <Gold.Id.Protein>
6NUR|6NUR_protein|mol2

> <Gold.PLP.Fitness>
34.7227

> <Gold.PLP.PLP>
-18.8141

> <Gold.PLP.part.hbond>
-5.7174

> <Gold.PLP.part.metal>
0.0000

> <Gold.PLP.part.buried>
-0.3996

> <Gold.PLP.part.nonpolar>
-12.0839

> <Gold.PLP.part.repulsive>
0.1745

> <Gold.PLP.ligand.clash>
0.0000

> <Gold.PLP.ligand.torsion>
0.2014

> <Gold.PLP.Chemscore.Hbond>
5.4326

> <Gold.PLP.Chemscore.CHOScore>
0.0000

> <Gold.PLP.Chemscore.Metal>
0.0000

> <Gold.Chemscore.Hbonds>
donor molecule, donor type, donor heavy atom, donor atom, acceptor molecule, acceptor atom, score
      L1  H     5    28       P1  7948  1.00
      L1  H    11    31       P1  7948  0.96
      L1  H    11    32       P1  7957  0.99
      P1  H  6896  6908       L1    18  0.99
      P1  H  7989  7998       L1    12  0.67
      P1  H  7997  8008       L1    15  0.79

> <Gold.PLP.Chemscore.Internal.Correction>
0.0137

> <Gold.Rescore>
     Score         DG    S(hbond)    S(metal)    S(lipo)     H(rot)  DE(clash)    DE(int)     intcor
     16.57     -18.23       4.49        0.00      29.27       2.21       0.16       1.51       ----

> <Gold.Chemscore.Fitness>
16.5681

> <Gold.Chemscore.DG>
-18.2324

> <Gold.Chemscore.ZeroCoef>
-5.4800

> <Gold.Chemscore.Hbond>
4.4881

> <Gold.Chemscore.Metal>
0.0000

> <Gold.Chemscore.Lipo>
29.2743

> <Gold.Chemscore.Internal_Hbond>
0.0000

> <Gold.Chemscore.DEClash>
0.1564

> <Gold.Chemscore.DEInternal>
1.5079

> <Gold.Chemscore.Rot>
2.2121

> <Gold.Chemscore.Internal.Correction>
   9.000000E+99

> <Gold.Chemscore.Hbonds>
donor molecule, donor type, donor heavy atom, donor atom, acceptor molecule, acceptor atom, score
      L1  H     5    28       P1  7948  0.96
      L1  H    11    31       P1  7948  0.91
      L1  H    11    32       P1  7957  0.77
      P1  H  6896  6908       L1    18  0.94
      P1  H  7989  7998       L1    12  0.55
      P1  H  7997  8008       L1    15  0.15

> <Gold.Chemscore.Hbond.Weighted>
-14.9902

> <Gold.Chemscore.Metal.Weighted>
-0.0000

> <Gold.Chemscore.Lipo.Weighted>
-3.4251

> <Gold.Chemscore.Internal_Hbond.Weighted>
0.0000

> <Gold.Chemscore.DEClash.Weighted>
0.1564

> <Gold.Chemscore.DEInternal.Weighted>
1.5079

> <Gold.Chemscore.Rot.Weighted>
5.6629

> <Gold.Chemscore.Internal.Correction.Weighted>
   9.000000E+99

> <Gold.Protein.RotatedTorsions>
[ 6907 6896 6895 6894 ] final -153.58 input  -60.11 | X-H torsion
[ 7974 7965 7964 7962 ] final  145.92 input  175.53 | X-H torsion
[ 8008 7997 7996 7995 ] final  -80.63 input   59.86 | X-H torsion
[ 10167 10162 10161 10158 ] final  129.39 input  -65.29 | X-H torsion
[ 10718 10713 10712 10709 ] final  146.49 input   66.30 | X-H torsion
[ 10763 10752 10751 10750 ] final  -39.77 input  -60.55 | X-H torsion
[ 11005 11000 10999 10996 ] final  102.57 input  -57.11 | X-H torsion

> <Gold.Protein.ActiveResidues>
 VAL166  LYS551  ARG553  GLY616  TRP617  ASP618  TYR619  PRO620  LYS621  CYS622 
 ASP623  PHE694  ASN695  SER759  ASP760  ASP761  ALA762  ILE779  LEU786  VAL792 
 PHE793  MET794  SER795  GLU796  ALA797  LYS798  CYS799  TRP800  GLU811  SER814 

> <Gold.Protein.RotatedAtoms>
  151.2447  133.4381  159.2608 H   0  0  0  0  0  0  0  0  0  0  0  0  # atno 6907 bound_to 6896
  151.0673  134.9776  159.8301 H   0  0  0  0  0  0  0  0  0  0  0  0  # atno 6908 bound_to 6896
  152.5407  134.2394  159.8909 H   0  0  0  0  0  0  0  0  0  0  0  0  # atno 6909 bound_to 6896
  144.8713  139.5842  143.5885 H   0  0  0  0  0  0  0  0  0  0  0  0  # atno 7974 bound_to 7965
  154.5903  140.0660  156.9229 H   0  0  0  0  0  0  0  0  0  0  0  0  # atno 8008 bound_to 7997
  155.2308  140.3337  155.4285 H   0  0  0  0  0  0  0  0  0  0  0  0  # atno 8009 bound_to 7997
  156.2251  140.1815  156.7368 H   0  0  0  0  0  0  0  0  0  0  0  0  # atno 8010 bound_to 7997
  139.5480  144.6790  151.4412 H   0  0  0  0  0  0  0  0  0  0  0  0  # atno 10167 bound_to 10162
  157.3325  131.0922  151.1150 H   0  0  0  0  0  0  0  0  0  0  0  0  # atno 10718 bound_to 10713
  153.9349  135.6768  153.4745 H   0  0  0  0  0  0  0  0  0  0  0  0  # atno 10763 bound_to 10752
  153.0961  135.4851  154.8777 H   0  0  0  0  0  0  0  0  0  0  0  0  # atno 10764 bound_to 10752
  154.7408  135.3160  154.8689 H   0  0  0  0  0  0  0  0  0  0  0  0  # atno 10765 bound_to 10752
  139.8778  134.9229  156.5078 H   0  0  0  0  0  0  0  0  0  0  0  0  # atno 11005 bound_to 11000
  146.2932  139.7200  142.9146 LP  0  0  0  0  0  0  0  0  0  0  0  0  # atno 17320 bound_to 7965
  145.4126  141.0398  143.3009 LP  0  0  0  0  0  0  0  0  0  0  0  0  # atno 17321 bound_to 7965
  140.6734  143.8242  150.7028 LP  0  0  0  0  0  0  0  0  0  0  0  0  # atno 17342 bound_to 10162
  140.1674  143.4224  152.2025 LP  0  0  0  0  0  0  0  0  0  0  0  0  # atno 17343 bound_to 10162
  157.2393  130.6562  149.5883 LP  0  0  0  0  0  0  0  0  0  0  0  0  # atno 17370 bound_to 10713
  155.9697  130.4573  150.5959 LP  0  0  0  0  0  0  0  0  0  0  0  0  # atno 17371 bound_to 10713
  140.8542  133.8109  155.9199 LP  0  0  0  0  0  0  0  0  0  0  0  0  # atno 17394 bound_to 11000
  140.9114  134.2256  157.4983 LP  0  0  0  0  0  0  0  0  0  0  0  0  # atno 17395 bound_to 11000

$$$$
