AV-unprocessed.smi:72|AV-procd|sdf|684|dock6
  -GOLD-   2262016593D 1   1.00000     0.00000
 Structure written by MMmdl.
 29 30  0  0  0  0  0  0  0  0  1 V2000
  146.1319  143.1192  154.8080 N   0  0  0  0  0  0  0  0  0  0  0  0
  146.8973  142.1115  154.5852 C   0  0  0  0  0  0  0  0  0  0  0  0
  146.5566  140.9860  153.8209 N   0  0  0  0  0  0  0  0  0  0  0  0
  147.4293  140.0344  153.6942 C   0  0  0  0  0  0  0  0  0  0  0  0
  148.7380  140.0843  154.3268 N   0  0  0  0  0  0  0  0  0  0  0  0
  149.7038  138.9317  154.0987 C   0  0  1  0  0  0  0  0  0  0  0  0
  151.0128  139.3461  154.3641 O   0  0  0  0  0  0  0  0  0  0  0  0
  151.6100  138.5224  155.3665 C   0  0  2  0  0  0  0  0  0  0  0  0
  153.1309  138.4108  155.1557 C   0  0  0  0  0  0  0  0  0  0  0  0
  153.6585  139.6514  154.7372 O   0  0  0  0  0  0  0  0  0  0  0  0
  150.8299  137.2009  155.2925 C   0  0  2  0  0  0  0  0  0  0  0  0
  151.3618  136.3466  154.2951 O   0  0  0  0  0  0  0  0  0  0  0  0
  149.4260  137.6416  154.9035 C   0  0  1  0  0  0  0  0  0  0  0  0
  148.6104  137.8145  156.0468 O   0  0  0  0  0  0  0  0  0  0  0  0
  149.1100  141.2362  155.0711 C   0  0  0  0  0  0  0  0  0  0  0  0
  150.2125  141.3680  155.5975 O   0  0  0  0  0  0  0  0  0  0  0  0
  148.1643  142.1948  155.1744 N   0  0  0  0  0  0  0  0  0  0  0  0
  149.6699  138.7314  153.0268 H   0  0  0  0  0  0  0  0  0  0  0  0
  151.4144  138.9593  156.3458 H   0  0  0  0  0  0  0  0  0  0  0  0
  150.8523  136.6623  156.2409 H   0  0  0  0  0  0  0  0  0  0  0  0
  148.9300  136.9148  154.2586 H   0  0  0  0  0  0  0  0  0  0  0  0
  145.2405  142.9854  154.3523 H   0  0  0  0  0  0  0  0  0  0  0  0
  147.2337  139.1345  153.1094 H   0  0  0  0  0  0  0  0  0  0  0  0
  153.6223  138.1523  156.0942 H   0  0  0  0  0  0  0  0  0  0  0  0
  153.3770  137.6331  154.4320 H   0  0  0  0  0  0  0  0  0  0  0  0
  154.2322  139.5016  154.0013 H   0  0  0  0  0  0  0  0  0  0  0  0
  150.8914  136.4965  153.4895 H   0  0  0  0  0  0  0  0  0  0  0  0
  148.5870  138.7338  156.2627 H   0  0  0  0  0  0  0  0  0  0  0  0
  148.3939  143.0227  155.7045 H   0  0  0  0  0  0  0  0  0  0  0  0
  1  2  2  0  0  0  0
  1 22  1  0  0  0  0
  2 17  1  0  0  0  0
  2  3  1  0  0  0  0
  3  4  2  0  0  0  0
  4  5  1  0  0  0  0
  4 23  1  0  0  0  0
  5  6  1  0  0  0  0
  5 15  1  0  0  0  0
  6 18  1  0  0  0  0
  6 13  1  0  0  0  0
  6  7  1  0  0  0  0
  7  8  1  0  0  0  0
  8 19  1  0  0  0  0
  8  9  1  0  0  0  0
  8 11  1  0  0  0  0
  9 10  1  0  0  0  0
  9 24  1  0  0  0  0
  9 25  1  0  0  0  0
 10 26  1  0  0  0  0
 11 20  1  0  0  0  0
 11 12  1  0  0  0  0
 11 13  1  0  0  0  0
 12 27  1  0  0  0  0
 13 21  1  0  0  0  0
 13 14  1  0  0  0  0
 14 28  1  0  0  0  0
 15 16  2  0  0  0  0
 15 17  1  0  0  0  0
 17 29  1  0  0  0  0
M  END
> <s_m_source_file>
AV-unprocessed.smi

> <i_m_source_file_index>
72

> <i_lp_mmshare_version>
43012

> <i_f3d_flags>
0

> <s_epik_input>
W05IMl1jMW5bY0hdbihjKD1PKW4xKVtDQEBIXTJPW0NASF0oW0NIMl1bT0hdKVtDQEBIXShbT0hdKVtDQEhdMltPSF0=

> <s_epik_cmdline>
J2VwaWtfcHl0aG9uJywgJy1waCcsICc3LjAnLCAnLXRuJywgJzgnLCAnLW1hJywgJzIwMCcsICctbWV0YWxfYmluZGluZycsICctaW1hZScsICc8aW5maWxlLm1hZT4nLCAnLW9tYWUnLCAnPG91dGZpbGUubWFlPic=

> <r_lp_tautomer_probability>
7.17554e-07

> <r_epik_Ionization_Penalty>
0.0066451

> <r_epik_Ionization_Penalty_Charging>
0.00663793

> <r_epik_Ionization_Penalty_Neutral>
7.17052e-06

> <r_epik_State_Penalty>
0.419231

> <r_epik_Charging_Adjusted_Penalty>
0.425868

> <i_epik_Tot_Q>
0

> <i_epik_Tot_abs_Q>
0

> <r_epik_Metal_State_Penalty>
1.44144

> <b_epik_Metal_Only>
0

> <s_epik_Chemistry_Notes>
This compound contains an acetal/aminal-like group ( X-CH(R)-Y where X, Y are N, S, or O) that may be acid/base labile, releasing an aldehyde.

> <s_lp_Force_Field>
OPLS_2005

> <r_lp_Energy>
43.3095

> <b_lp_Chiralities_Consistent>
1

> <s_lp_Variant>
AV-unprocessed.smi:72-22

> <Gold.Version>
5.8.1

> <Gold.Id.Protein>
6NUR|6NUR_protein|mol2

> <Gold.PLP.Fitness>
38.8592

> <Gold.PLP.PLP>
-26.9967

> <Gold.PLP.part.hbond>
-6.6990

> <Gold.PLP.part.metal>
0.0000

> <Gold.PLP.part.buried>
-1.5027

> <Gold.PLP.part.nonpolar>
-19.3783

> <Gold.PLP.part.repulsive>
0.5820

> <Gold.PLP.ligand.clash>
0.0001

> <Gold.PLP.ligand.torsion>
0.6719

> <Gold.PLP.Chemscore.Hbond>
4.3923

> <Gold.PLP.Chemscore.CHOScore>
0.0000

> <Gold.PLP.Chemscore.Metal>
0.0000

> <Gold.Chemscore.Hbonds>
donor molecule, donor type, donor heavy atom, donor atom, acceptor molecule, acceptor atom, score
      L1  H    12    27       P1  7949  0.53
      L1  H    17    29       P1  8028  0.93
      P1  H  7989  7998       L1     7  1.00
      P1  H  7997  8010       L1    10  0.93
      P1  H 10752 10764       L1    12  0.94

> <Gold.PLP.Chemscore.Internal.Correction>
0.0295

> <Gold.Rescore>
     Score         DG    S(hbond)    S(metal)    S(lipo)     H(rot)  DE(clash)    DE(int)     intcor
      7.76     -10.30       3.74        0.00      23.33       4.06       0.08       2.46       ----

> <Gold.Chemscore.Fitness>
7.7581

> <Gold.Chemscore.DG>
-10.3020

> <Gold.Chemscore.ZeroCoef>
-5.4800

> <Gold.Chemscore.Hbond>
3.7382

> <Gold.Chemscore.Metal>
0.0000

> <Gold.Chemscore.Lipo>
23.3329

> <Gold.Chemscore.Internal_Hbond>
0.0000

> <Gold.Chemscore.DEClash>
0.0803

> <Gold.Chemscore.DEInternal>
2.4635

> <Gold.Chemscore.Rot>
4.0600

> <Gold.Chemscore.Internal.Correction>
   9.000000E+99

> <Gold.Chemscore.Hbonds>
donor molecule, donor type, donor heavy atom, donor atom, acceptor molecule, acceptor atom, score
      L1  H    12    27       P1  7949  0.09
      L1  H    17    29       P1  8028  0.88
      P1  H  7989  7998       L1     7  0.96
      P1  H  7997  8010       L1    10  0.37
      P1  H 10752 10764       L1    12  0.84

> <Gold.Chemscore.Hbond.Weighted>
-12.4856

> <Gold.Chemscore.Metal.Weighted>
-0.0000

> <Gold.Chemscore.Lipo.Weighted>
-2.7300

> <Gold.Chemscore.Internal_Hbond.Weighted>
0.0000

> <Gold.Chemscore.DEClash.Weighted>
0.0803

> <Gold.Chemscore.DEInternal.Weighted>
2.4635

> <Gold.Chemscore.Rot.Weighted>
10.3936

> <Gold.Chemscore.Internal.Correction.Weighted>
   9.000000E+99

> <Gold.Protein.RotatedTorsions>
[ 6907 6896 6895 6894 ] final  117.14 input  -60.11 | X-H torsion
[ 7974 7965 7964 7962 ] final  -50.38 input  175.53 | X-H torsion
[ 8008 7997 7996 7995 ] final  102.64 input   59.86 | X-H torsion
[ 10167 10162 10161 10158 ] final  171.80 input  -65.29 | X-H torsion
[ 10718 10713 10712 10709 ] final  -77.03 input   66.30 | X-H torsion
[ 10763 10752 10751 10750 ] final  -51.89 input  -60.55 | X-H torsion
[ 11005 11000 10999 10996 ] final  -58.08 input  -57.11 | X-H torsion

> <Gold.Protein.ActiveResidues>
 VAL166  LYS551  ARG553  GLY616  TRP617  ASP618  TYR619  PRO620  LYS621  CYS622 
 ASP623  PHE694  ASN695  SER759  ASP760  ASP761  ALA762  ILE779  LEU786  VAL792 
 PHE793  MET794  SER795  GLU796  ALA797  LYS798  CYS799  TRP800  GLU811  SER814 

> <Gold.Protein.RotatedAtoms>
  152.4632  133.7866  159.6879 H   0  0  0  0  0  0  0  0  0  0  0  0  # atno 6907 bound_to 6896
  150.8584  133.7670  159.3007 H   0  0  0  0  0  0  0  0  0  0  0  0  # atno 6908 bound_to 6896
  151.5243  135.1070  159.9938 H   0  0  0  0  0  0  0  0  0  0  0  0  # atno 6909 bound_to 6896
  145.9305  140.7754  142.9602 H   0  0  0  0  0  0  0  0  0  0  0  0  # atno 7974 bound_to 7965
  156.1411  140.3178  155.8497 H   0  0  0  0  0  0  0  0  0  0  0  0  # atno 8008 bound_to 7997
  155.4152  140.0508  157.3046 H   0  0  0  0  0  0  0  0  0  0  0  0  # atno 8009 bound_to 7997
  154.4977  140.2117  155.9424 H   0  0  0  0  0  0  0  0  0  0  0  0  # atno 8010 bound_to 7997
  139.5057  144.3445  151.9984 H   0  0  0  0  0  0  0  0  0  0  0  0  # atno 10167 bound_to 10162
  156.0157  130.4481  150.3283 H   0  0  0  0  0  0  0  0  0  0  0  0  # atno 10718 bound_to 10713
  154.1340  135.6515  153.4928 H   0  0  0  0  0  0  0  0  0  0  0  0  # atno 10763 bound_to 10752
  153.0186  135.5299  154.6973 H   0  0  0  0  0  0  0  0  0  0  0  0  # atno 10764 bound_to 10752
  154.6215  135.2965  155.0291 H   0  0  0  0  0  0  0  0  0  0  0  0  # atno 10765 bound_to 10752
  141.1192  133.6611  156.4866 H   0  0  0  0  0  0  0  0  0  0  0  0  # atno 11005 bound_to 11000
  144.6764  140.2119  143.7376 LP  0  0  0  0  0  0  0  0  0  0  0  0  # atno 17320 bound_to 7965
  145.8432  139.2140  143.1815 LP  0  0  0  0  0  0  0  0  0  0  0  0  # atno 17321 bound_to 7965
  140.2883  144.3782  150.6096 LP  0  0  0  0  0  0  0  0  0  0  0  0  # atno 17342 bound_to 10162
  140.5966  143.2167  151.7153 LP  0  0  0  0  0  0  0  0  0  0  0  0  # atno 17343 bound_to 10162
  157.1382  131.0289  151.2939 LP  0  0  0  0  0  0  0  0  0  0  0  0  # atno 17370 bound_to 10713
  157.4494  130.7589  149.7138 LP  0  0  0  0  0  0  0  0  0  0  0  0  # atno 17371 bound_to 10713
  140.4557  134.6888  157.5061 LP  0  0  0  0  0  0  0  0  0  0  0  0  # atno 17394 bound_to 11000
  140.0136  134.6652  155.9343 LP  0  0  0  0  0  0  0  0  0  0  0  0  # atno 17395 bound_to 11000

$$$$
