AV-unprocessed.smi:2342|AV-procd|sdf|9354|dock10
  -GOLD-   2272012573D 1   1.00000     0.00000
 Structure written by MMmdl.
 38 38  0  0  0  0  0  0  0  0  2 V2000
  146.9087  134.0268  161.5814 C   0  0  0  0  0  0  0  0  0  0  0  0
  146.9441  135.1066  160.4875 C   0  0  2  0  0  0  0  0  0  0  0  0
  147.9480  134.7487  159.3621 C   0  0  0  0  0  0  0  0  0  0  0  0
  147.4950  133.6385  158.5292 N   0  0  0  0  0  0  0  0  0  0  0  0
  147.3428  133.6835  157.1970 C   0  0  0  0  0  0  0  0  0  0  0  0
  147.4212  134.7194  156.5366 O   0  0  0  0  0  0  0  0  0  0  0  0
  147.0986  132.3450  156.4997 C   0  0  0  0  0  0  0  0  0  0  0  0
  147.3146  132.5053  155.0223 C   0  0  0  0  0  0  0  0  0  0  0  0
  148.4804  132.8649  154.3946 C   0  0  0  0  0  0  0  0  0  0  0  0
  148.3078  132.8717  152.6628 S   0  0  0  0  0  0  0  0  0  0  0  0
  146.6177  132.3896  152.8481 C   0  0  0  0  0  0  0  0  0  0  0  0
  145.6586  132.1407  151.7090 C   0  0  0  0  0  0  0  0  0  0  0  0
  145.2487  130.6554  151.6850 C   0  0  0  0  0  0  0  0  0  0  0  0
  146.3087  132.4664  150.3469 C   0  0  0  0  0  0  0  0  0  0  0  0
  144.4203  133.0452  151.8613 C   0  0  0  0  0  0  0  0  0  0  0  0
  146.2658  132.2550  154.1319 N   0  0  0  0  0  0  0  0  0  0  0  0
  147.2413  136.4797  161.1170 C   0  0  0  0  0  0  0  0  0  0  0  0
  148.2950  136.5936  161.7820 O   0  0  0  0  0  0  0  0  0  0  0  0
  146.4106  137.3931  160.9168 O   0  5  0  0  0  0  0  0  0  0  0  0
  146.2018  134.2837  162.3714 H   0  0  0  0  0  0  0  0  0  0  0  0
  147.8882  133.8904  162.0415 H   0  0  0  0  0  0  0  0  0  0  0  0
  146.6015  133.0662  161.1676 H   0  0  0  0  0  0  0  0  0  0  0  0
  145.9492  135.1618  160.0425 H   0  0  0  0  0  0  0  0  0  0  0  0
  148.0970  135.6099  158.7100 H   0  0  0  0  0  0  0  0  0  0  0  0
  148.9263  134.5216  159.7886 H   0  0  0  0  0  0  0  0  0  0  0  0
  147.4151  132.7392  158.9821 H   0  0  0  0  0  0  0  0  0  0  0  0
  147.7688  131.5920  156.9166 H   0  0  0  0  0  0  0  0  0  0  0  0
  146.0824  132.0063  156.7053 H   0  0  0  0  0  0  0  0  0  0  0  0
  149.4324  133.1037  154.8444 H   0  0  0  0  0  0  0  0  0  0  0  0
  144.5550  130.4462  150.8701 H   0  0  0  0  0  0  0  0  0  0  0  0
  144.7590  130.3585  152.6130 H   0  0  0  0  0  0  0  0  0  0  0  0
  146.1164  130.0081  151.5517 H   0  0  0  0  0  0  0  0  0  0  0  0
  147.1883  131.8479  150.1634 H   0  0  0  0  0  0  0  0  0  0  0  0
  146.6166  133.5111  150.2873 H   0  0  0  0  0  0  0  0  0  0  0  0
  145.6149  132.2881  149.5248 H   0  0  0  0  0  0  0  0  0  0  0  0
  143.7164  132.8981  151.0416 H   0  0  0  0  0  0  0  0  0  0  0  0
  144.6989  134.0996  151.8719 H   0  0  0  0  0  0  0  0  0  0  0  0
  143.8852  132.8372  152.7886 H   0  0  0  0  0  0  0  0  0  0  0  0
  1  2  1  0  0  0  0
  1 20  1  0  0  0  0
  1 21  1  0  0  0  0
  1 22  1  0  0  0  0
  2  3  1  0  0  0  0
  2 17  1  0  0  0  0
  2 23  1  0  0  0  0
  3  4  1  0  0  0  0
  3 24  1  0  0  0  0
  3 25  1  0  0  0  0
  4  5  1  0  0  0  0
  4 26  1  0  0  0  0
  5  6  2  0  0  0  0
  5  7  1  0  0  0  0
  7  8  1  0  0  0  0
  7 27  1  0  0  0  0
  7 28  1  0  0  0  0
  8 16  1  0  0  0  0
  8  9  2  0  0  0  0
  9 10  1  0  0  0  0
  9 29  1  0  0  0  0
 10 11  1  0  0  0  0
 11 12  1  0  0  0  0
 11 16  2  0  0  0  0
 12 13  1  0  0  0  0
 12 14  1  0  0  0  0
 12 15  1  0  0  0  0
 13 30  1  0  0  0  0
 13 31  1  0  0  0  0
 13 32  1  0  0  0  0
 14 33  1  0  0  0  0
 14 34  1  0  0  0  0
 14 35  1  0  0  0  0
 15 36  1  0  0  0  0
 15 37  1  0  0  0  0
 15 38  1  0  0  0  0
 17 18  2  0  0  0  0
 17 19  1  0  0  0  0
M  CHG  1  19  -1
M  END
> <s_m_source_file>
AV-unprocessed.smi

> <i_m_source_file_index>
2342

> <i_lp_mmshare_version>
43012

> <i_f3d_flags>
0

> <s_epik_input>
Tz1DKFtPSF0pW0NASF0oW0NIM10pW0NIMl1bTkhdQyg9TylbQ0gyXWMxW2NIXXNjKG4xKUMoW0NIM10pKFtDSDNdKVtDSDNd

> <s_epik_cmdline>
J2VwaWtfcHl0aG9uJywgJy1waCcsICc3LjAnLCAnLXRuJywgJzgnLCAnLW1hJywgJzIwMCcsICctbWV0YWxfYmluZGluZycsICctaW1hZScsICc8aW5maWxlLm1hZT4nLCAnLW9tYWUnLCAnPG91dGZpbGUubWFlPic=

> <r_epik_Ionization_Penalty>
0.00120065

> <r_epik_Ionization_Penalty_Charging>
0.00115909

> <r_epik_Ionization_Penalty_Neutral>
4.15663e-05

> <r_epik_State_Penalty>
0.00076313

> <r_epik_Charging_Adjusted_Penalty>
0.00192222

> <i_epik_Tot_Q>
-1

> <i_epik_Tot_abs_Q>
1

> <r_epik_Metal_State_Penalty>
-0

> <b_epik_Metal_Only>
0

> <s_lp_Force_Field>
OPLS_2005

> <r_lp_Energy>
-10.4991

> <b_lp_Chiralities_Consistent>
1

> <s_lp_Variant>
AV-unprocessed.smi:2342-1

> <Gold.Version>
5.8.1

> <Gold.Id.Protein>
6NUR|6NUR_protein|mol2

> <Gold.PLP.Fitness>
37.1764

> <Gold.PLP.PLP>
-25.8658

> <Gold.PLP.part.hbond>
-2.0000

> <Gold.PLP.part.metal>
0.0000

> <Gold.PLP.part.buried>
-3.7789

> <Gold.PLP.part.nonpolar>
-20.4597

> <Gold.PLP.part.repulsive>
0.1532

> <Gold.PLP.ligand.clash>
0.0000

> <Gold.PLP.ligand.torsion>
0.3879

> <Gold.PLP.Chemscore.Hbond>
4.0000

> <Gold.PLP.Chemscore.CHOScore>
0.0000

> <Gold.PLP.Chemscore.Metal>
0.0000

> <Gold.Chemscore.Hbonds>
donor molecule, donor type, donor heavy atom, donor atom, acceptor molecule, acceptor atom, score
      P1  H  6931  6943       L1    18  2.00
      P1  H  6934  6947       L1    19  2.00

> <Gold.PLP.Chemscore.Internal.Correction>
0.0864

> <Gold.Rescore>
     Score         DG    S(hbond)    S(metal)    S(lipo)     H(rot)  DE(clash)    DE(int)     intcor
     12.09     -13.71       1.88        0.00      68.67       2.38       0.02       1.60       ----

> <Gold.Chemscore.Fitness>
12.0862

> <Gold.Chemscore.DG>
-13.7087

> <Gold.Chemscore.ZeroCoef>
-5.4800

> <Gold.Chemscore.Hbond>
1.8833

> <Gold.Chemscore.Metal>
0.0000

> <Gold.Chemscore.Lipo>
68.6688

> <Gold.Chemscore.Internal_Hbond>
0.0000

> <Gold.Chemscore.DEClash>
0.0234

> <Gold.Chemscore.DEInternal>
1.5990

> <Gold.Chemscore.Rot>
2.3812

> <Gold.Chemscore.Internal.Correction>
   9.000000E+99

> <Gold.Chemscore.Hbonds>
donor molecule, donor type, donor heavy atom, donor atom, acceptor molecule, acceptor atom, score
      P1  H  6931  6943       L1    18  0.96
      P1  H  6934  6947       L1    19  0.85

> <Gold.Chemscore.Hbond.Weighted>
-6.2904

> <Gold.Chemscore.Metal.Weighted>
-0.0000

> <Gold.Chemscore.Lipo.Weighted>
-8.0342

> <Gold.Chemscore.Internal_Hbond.Weighted>
0.0000

> <Gold.Chemscore.DEClash.Weighted>
0.0234

> <Gold.Chemscore.DEInternal.Weighted>
1.5990

> <Gold.Chemscore.Rot.Weighted>
6.0959

> <Gold.Chemscore.Internal.Correction.Weighted>
   9.000000E+99

> <Gold.Protein.RotatedTorsions>
[ 6907 6896 6895 6894 ] final  -55.03 input  -60.11 | X-H torsion
[ 7974 7965 7964 7962 ] final   26.81 input  175.53 | X-H torsion
[ 8008 7997 7996 7995 ] final   88.13 input   59.86 | X-H torsion
[ 10167 10162 10161 10158 ] final  -69.41 input  -65.29 | X-H torsion
[ 10718 10713 10712 10709 ] final  -40.35 input   66.30 | X-H torsion
[ 10763 10752 10751 10750 ] final  179.57 input  -60.55 | X-H torsion
[ 11005 11000 10999 10996 ] final   15.81 input  -57.11 | X-H torsion

> <Gold.Protein.ActiveResidues>
 VAL166  LYS551  ARG553  GLY616  TRP617  ASP618  TYR619  PRO620  LYS621  CYS622 
 ASP623  PHE694  ASN695  SER759  ASP760  ASP761  ALA762  ILE779  LEU786  VAL792 
 PHE793  MET794  SER795  GLU796  ALA797  LYS798  CYS799  TRP800  GLU811  SER814 

> <Gold.Protein.RotatedAtoms>
  150.8286  134.7529  159.6834 H   0  0  0  0  0  0  0  0  0  0  0  0  # atno 6907 bound_to 6896
  152.4394  134.5618  159.9906 H   0  0  0  0  0  0  0  0  0  0  0  0  # atno 6908 bound_to 6896
  151.5784  133.3343  159.3039 H   0  0  0  0  0  0  0  0  0  0  0  0  # atno 6909 bound_to 6896
  146.1817  139.7276  142.8895 H   0  0  0  0  0  0  0  0  0  0  0  0  # atno 7974 bound_to 7965
  155.9839  140.3375  155.6689 H   0  0  0  0  0  0  0  0  0  0  0  0  # atno 8008 bound_to 7997
  155.6512  140.0706  157.2604 H   0  0  0  0  0  0  0  0  0  0  0  0  # atno 8009 bound_to 7997
  154.4199  140.1725  156.1663 H   0  0  0  0  0  0  0  0  0  0  0  0  # atno 8010 bound_to 7997
  140.5433  143.2314  151.7049 H   0  0  0  0  0  0  0  0  0  0  0  0  # atno 10167 bound_to 10162
  156.2823  130.4218  149.8324 H   0  0  0  0  0  0  0  0  0  0  0  0  # atno 10718 bound_to 10713
  154.5224  135.2795  155.1251 H   0  0  0  0  0  0  0  0  0  0  0  0  # atno 10763 bound_to 10752
  154.2803  135.6286  153.5348 H   0  0  0  0  0  0  0  0  0  0  0  0  # atno 10764 bound_to 10752
  152.9939  135.5649  154.5716 H   0  0  0  0  0  0  0  0  0  0  0  0  # atno 10765 bound_to 10752
  140.4542  134.1193  155.7706 H   0  0  0  0  0  0  0  0  0  0  0  0  # atno 11005 bound_to 11000
  145.4055  141.0390  143.3046 LP  0  0  0  0  0  0  0  0  0  0  0  0  # atno 17320 bound_to 7965
  144.8327  139.5601  143.6936 LP  0  0  0  0  0  0  0  0  0  0  0  0  # atno 17321 bound_to 7965
  139.4997  144.3934  152.0256 LP  0  0  0  0  0  0  0  0  0  0  0  0  # atno 17342 bound_to 10162
  140.3045  144.3608  150.6051 LP  0  0  0  0  0  0  0  0  0  0  0  0  # atno 17343 bound_to 10162
  156.5767  130.8448  151.3371 LP  0  0  0  0  0  0  0  0  0  0  0  0  # atno 17370 bound_to 10713
  157.7318  130.9705  150.1897 LP  0  0  0  0  0  0  0  0  0  0  0  0  # atno 17371 bound_to 10713
  141.1651  133.8719  157.1739 LP  0  0  0  0  0  0  0  0  0  0  0  0  # atno 17394 bound_to 11000
  139.9987  135.0036  157.0141 LP  0  0  0  0  0  0  0  0  0  0  0  0  # atno 17395 bound_to 11000

$$$$
