AV-unprocessed.smi:1677|AV-procd|sdf|6724|dock2
  -GOLD-   22720 7463D 1   1.00000     0.00000
 Structure written by MMmdl.
 36 37  0  0  0  0  0  0  0  0  1 V2000
  152.4771  139.3181  155.1650 C   0  0  0  0  0  0  0  0  0  0  0  0
  151.0413  139.6005  155.6276 C   0  0  2  0  0  0  0  0  0  0  0  0
  150.1143  139.9042  154.4320 C   0  0  0  0  0  0  0  0  0  0  0  0
  148.7396  139.5058  154.6755 N   0  0  0  0  0  0  0  0  0  0  0  0
  147.9094  138.7946  153.8194 C   0  0  0  0  0  0  0  0  0  0  0  0
  146.7098  138.6379  154.4759 C   0  0  0  0  0  0  0  0  0  0  0  0
  146.7768  139.2457  155.7276 N   0  0  0  0  0  0  0  0  0  0  0  0
  148.0069  139.7402  155.7730 C   0  0  0  0  0  0  0  0  0  0  0  0
  151.0554  140.7195  156.5692 N   0  0  0  0  0  0  0  0  0  0  0  0
  151.9025  140.8648  157.6012 C   0  0  0  0  0  0  0  0  0  0  0  0
  152.8079  140.0686  157.8515 O   0  0  0  0  0  0  0  0  0  0  0  0
  151.6771  142.0841  158.5037 C   0  0  2  0  0  0  0  0  0  0  0  0
  151.5880  143.3876  157.6771 C   0  0  0  0  0  0  0  0  0  0  0  0
  151.6275  144.6258  158.5551 C   0  0  0  0  0  0  0  0  0  0  0  0
  152.0341  144.6111  159.8361 C   0  0  0  0  0  0  0  0  0  0  0  0
  152.5037  143.3556  160.5498 C   0  0  0  0  0  0  0  0  0  0  0  0
  152.7833  142.1986  159.5721 C   0  0  0  0  0  0  0  0  0  0  0  0
  152.5095  138.4662  154.4853 H   0  0  0  0  0  0  0  0  0  0  0  0
  153.1238  139.0862  156.0122 H   0  0  0  0  0  0  0  0  0  0  0  0
  152.9039  140.1758  154.6436 H   0  0  0  0  0  0  0  0  0  0  0  0
  150.6823  138.6984  156.1266 H   0  0  0  0  0  0  0  0  0  0  0  0
  150.1358  140.9677  154.1891 H   0  0  0  0  0  0  0  0  0  0  0  0
  150.4621  139.3742  153.5444 H   0  0  0  0  0  0  0  0  0  0  0  0
  148.2347  138.4620  152.8449 H   0  0  0  0  0  0  0  0  0  0  0  0
  145.8110  138.1382  154.1464 H   0  0  0  0  0  0  0  0  0  0  0  0
  148.3878  140.2766  156.6298 H   0  0  0  0  0  0  0  0  0  0  0  0
  150.3453  141.4260  156.4430 H   0  0  0  0  0  0  0  0  0  0  0  0
  150.7277  141.9507  159.0261 H   0  0  0  0  0  0  0  0  0  0  0  0
  152.4070  143.4604  156.9602 H   0  0  0  0  0  0  0  0  0  0  0  0
  150.6611  143.3977  157.1026 H   0  0  0  0  0  0  0  0  0  0  0  0
  151.3212  145.5559  158.0995 H   0  0  0  0  0  0  0  0  0  0  0  0
  152.0274  145.5249  160.4119 H   0  0  0  0  0  0  0  0  0  0  0  0
  153.4026  143.5819  161.1236 H   0  0  0  0  0  0  0  0  0  0  0  0
  151.7337  143.0662  161.2658 H   0  0  0  0  0  0  0  0  0  0  0  0
  152.8862  141.2649  160.1274 H   0  0  0  0  0  0  0  0  0  0  0  0
  153.7437  142.3706  159.0831 H   0  0  0  0  0  0  0  0  0  0  0  0
  1  2  1  0  0  0  0
  1 18  1  0  0  0  0
  1 19  1  0  0  0  0
  1 20  1  0  0  0  0
  2  3  1  0  0  0  0
  2  9  1  0  0  0  0
  2 21  1  0  0  0  0
  3  4  1  0  0  0  0
  3 22  1  0  0  0  0
  3 23  1  0  0  0  0
  4  8  1  0  0  0  0
  4  5  1  0  0  0  0
  5  6  2  0  0  0  0
  5 24  1  0  0  0  0
  6  7  1  0  0  0  0
  6 25  1  0  0  0  0
  7  8  2  0  0  0  0
  8 26  1  0  0  0  0
  9 10  1  0  0  0  0
  9 27  1  0  0  0  0
 10 11  2  0  0  0  0
 10 12  1  0  0  0  0
 12 17  1  0  0  0  0
 12 13  1  0  0  0  0
 12 28  1  0  0  0  0
 13 14  1  0  0  0  0
 13 29  1  0  0  0  0
 13 30  1  0  0  0  0
 14 15  2  0  0  0  0
 14 31  1  0  0  0  0
 15 16  1  0  0  0  0
 15 32  1  0  0  0  0
 16 17  1  0  0  0  0
 16 33  1  0  0  0  0
 16 34  1  0  0  0  0
 17 35  1  0  0  0  0
 17 36  1  0  0  0  0
M  END
> <s_m_source_file>
AV-unprocessed.smi

> <i_m_source_file_index>
1677

> <i_lp_mmshare_version>
43012

> <i_f3d_flags>
0

> <s_epik_input>
W2NIXTFuW2NIXVtjSF1uMVtDSDJdW0NAQEhdKFtDSDNdKVtOSF1DKD1PKVtDQEBIXTJbQ0gyXVtDSF09W0NIXVtDSDJdW0NIMl0y

> <s_epik_cmdline>
J2VwaWtfcHl0aG9uJywgJy1waCcsICc3LjAnLCAnLXRuJywgJzgnLCAnLW1hJywgJzIwMCcsICctbWV0YWxfYmluZGluZycsICctaW1hZScsICc8aW5maWxlLm1hZT4nLCAnLW9tYWUnLCAnPG91dGZpbGUubWFlPic=

> <r_lp_tautomer_probability>
1

> <r_epik_Ionization_Penalty>
0.640435

> <r_epik_Ionization_Penalty_Charging>
0.640435

> <r_epik_Ionization_Penalty_Neutral>
2.11108e-08

> <r_epik_State_Penalty>
0.658069

> <r_epik_Charging_Adjusted_Penalty>
1.2985

> <i_epik_Tot_Q>
0

> <i_epik_Tot_abs_Q>
0

> <r_epik_Metal_State_Penalty>
0.311689

> <b_epik_Metal_Only>
0

> <s_lp_Force_Field>
OPLS_2005

> <r_lp_Energy>
9.8402

> <b_lp_Chiralities_Consistent>
1

> <s_lp_Variant>
AV-unprocessed.smi:1677-5

> <Gold.Version>
5.8.1

> <Gold.Id.Protein>
6NUR|6NUR_protein|mol2

> <Gold.PLP.Fitness>
41.6343

> <Gold.PLP.PLP>
-34.4610

> <Gold.PLP.part.hbond>
-1.0000

> <Gold.PLP.part.metal>
0.0000

> <Gold.PLP.part.buried>
-0.7688

> <Gold.PLP.part.nonpolar>
-32.5845

> <Gold.PLP.part.repulsive>
0.1189

> <Gold.PLP.ligand.clash>
0.0000

> <Gold.PLP.ligand.torsion>
0.7517

> <Gold.PLP.Chemscore.Hbond>
1.0000

> <Gold.PLP.Chemscore.CHOScore>
1.8742

> <Gold.PLP.Chemscore.Metal>
0.0000

> <Gold.Chemscore.Hbonds>
donor molecule, donor type, donor heavy atom, donor atom, acceptor molecule, acceptor atom, score
      P1  H  7997  8010       L1    11  1.00
      L1  C     5    24       P1  7948  1.00
      L1  C     5    24       P1  7957  0.57

> <Gold.PLP.Chemscore.Internal.Correction>
0.0543

> <Gold.Rescore>
     Score         DG    S(hbond)    S(metal)    S(lipo)     H(rot)  DE(clash)    DE(int)     intcor
     13.63     -15.64       0.98        0.00      97.17       1.75       0.04       1.97       ----

> <Gold.Chemscore.Fitness>
13.6281

> <Gold.Chemscore.DG>
-15.6414

> <Gold.Chemscore.ZeroCoef>
-5.4800

> <Gold.Chemscore.Hbond>
0.9779

> <Gold.Chemscore.Metal>
0.0000

> <Gold.Chemscore.Lipo>
97.1698

> <Gold.Chemscore.Internal_Hbond>
0.0000

> <Gold.Chemscore.DEClash>
0.0446

> <Gold.Chemscore.DEInternal>
1.9686

> <Gold.Chemscore.Rot>
1.7475

> <Gold.Chemscore.Internal.Correction>
   9.000000E+99

> <Gold.Chemscore.Hbonds>
donor molecule, donor type, donor heavy atom, donor atom, acceptor molecule, acceptor atom, score
      P1  H  7997  8010       L1    11  0.93

> <Gold.Chemscore.Hbond.Weighted>
-3.2660

> <Gold.Chemscore.Metal.Weighted>
-0.0000

> <Gold.Chemscore.Lipo.Weighted>
-11.3689

> <Gold.Chemscore.Internal_Hbond.Weighted>
0.0000

> <Gold.Chemscore.DEClash.Weighted>
0.0446

> <Gold.Chemscore.DEInternal.Weighted>
1.9686

> <Gold.Chemscore.Rot.Weighted>
4.4735

> <Gold.Chemscore.Internal.Correction.Weighted>
   9.000000E+99

> <Gold.Protein.RotatedTorsions>
[ 6907 6896 6895 6894 ] final  -10.95 input  -60.11 | X-H torsion
[ 7974 7965 7964 7962 ] final -165.13 input  175.53 | X-H torsion
[ 8008 7997 7996 7995 ] final   52.19 input   59.86 | X-H torsion
[ 10167 10162 10161 10158 ] final   81.70 input  -65.29 | X-H torsion
[ 10718 10713 10712 10709 ] final  -33.72 input   66.30 | X-H torsion
[ 10763 10752 10751 10750 ] final  -18.64 input  -60.55 | X-H torsion
[ 11005 11000 10999 10996 ] final  -84.44 input  -57.11 | X-H torsion

> <Gold.Protein.ActiveResidues>
 VAL166  LYS551  ARG553  GLY616  TRP617  ASP618  TYR619  PRO620  LYS621  CYS622 
 ASP623  PHE694  ASN695  SER759  ASP760  ASP761  ALA762  ILE779  LEU786  VAL792 
 PHE793  MET794  SER795  GLU796  ALA797  LYS798  CYS799  TRP800  GLU811  SER814 

> <Gold.Protein.RotatedAtoms>
  151.3939  135.0960  159.9534 H   0  0  0  0  0  0  0  0  0  0  0  0  # atno 6907 bound_to 6896
  152.5071  133.8953  159.7425 H   0  0  0  0  0  0  0  0  0  0  0  0  # atno 6908 bound_to 6896
  150.9413  133.6598  159.2819 H   0  0  0  0  0  0  0  0  0  0  0  0  # atno 6909 bound_to 6896
  144.7278  140.2859  143.6228 H   0  0  0  0  0  0  0  0  0  0  0  0  # atno 7974 bound_to 7965
  155.4477  140.3457  155.4297 H   0  0  0  0  0  0  0  0  0  0  0  0  # atno 8008 bound_to 7997
  156.1239  140.1495  156.9194 H   0  0  0  0  0  0  0  0  0  0  0  0  # atno 8009 bound_to 7997
  154.4844  140.0860  156.7431 H   0  0  0  0  0  0  0  0  0  0  0  0  # atno 8010 bound_to 7997
  139.9365  144.6118  150.8293 H   0  0  0  0  0  0  0  0  0  0  0  0  # atno 10167 bound_to 10162
  156.3592  130.4321  149.7638 H   0  0  0  0  0  0  0  0  0  0  0  0  # atno 10718 bound_to 10713
  153.5924  135.7002  153.5417 H   0  0  0  0  0  0  0  0  0  0  0  0  # atno 10763 bound_to 10752
  153.3166  135.4086  155.1381 H   0  0  0  0  0  0  0  0  0  0  0  0  # atno 10764 bound_to 10752
  154.8598  135.3685  154.5457 H   0  0  0  0  0  0  0  0  0  0  0  0  # atno 10765 bound_to 10752
  141.1650  133.7346  156.8868 H   0  0  0  0  0  0  0  0  0  0  0  0  # atno 11005 bound_to 11000
  145.7903  139.1924  143.2106 LP  0  0  0  0  0  0  0  0  0  0  0  0  # atno 17320 bound_to 7965
  146.0761  140.7816  142.9664 LP  0  0  0  0  0  0  0  0  0  0  0  0  # atno 17321 bound_to 7965
  140.7623  143.3195  151.2656 LP  0  0  0  0  0  0  0  0  0  0  0  0  # atno 17342 bound_to 10162
  139.6739  143.9971  152.2769 LP  0  0  0  0  0  0  0  0  0  0  0  0  # atno 17343 bound_to 10162
  156.4808  130.8040  151.3054 LP  0  0  0  0  0  0  0  0  0  0  0  0  # atno 17370 bound_to 10713
  157.7471  131.0006  150.2933 LP  0  0  0  0  0  0  0  0  0  0  0  0  # atno 17371 bound_to 10713
  140.1676  134.9122  157.2794 LP  0  0  0  0  0  0  0  0  0  0  0  0  # atno 17394 bound_to 11000
  140.2538  134.3651  155.7432 LP  0  0  0  0  0  0  0  0  0  0  0  0  # atno 17395 bound_to 11000

$$$$
