AV-unprocessed.smi:99|AV-procd|sdf|875|dock1
  -GOLD-   2262017343D 1   1.00000     0.00000
 Structure written by MMmdl.
 53 56  0  0  0  0  0  0  0  0  1 V2000
  152.8705  139.8220  158.2421 O   0  0  0  0  0  0  0  0  0  0  0  0
  151.8607  140.5228  158.1545 C   0  0  0  0  0  0  0  0  0  0  0  0
  150.6427  140.0461  157.8416 O   0  0  0  0  0  0  0  0  0  0  0  0
  150.2899  138.6988  158.1201 C   0  0  0  0  0  0  0  0  0  0  0  0
  150.0436  137.9496  156.8001 C   0  0  2  0  0  0  0  0  0  0  0  0
  149.2173  138.7149  155.9336 O   0  0  0  0  0  0  0  0  0  0  0  0
  148.3787  137.8912  155.1829 C   0  0  2  0  0  0  0  0  0  0  0  0
  146.9565  138.3804  155.4205 N   0  0  0  0  0  0  0  0  0  0  0  0
  146.4136  138.5934  156.6849 C   0  0  0  0  0  0  0  0  0  0  0  0
  145.1898  139.1343  156.8912 C   0  0  0  0  0  0  0  0  0  0  0  0
  144.3648  139.5523  155.7650 C   0  0  0  0  0  0  0  0  0  0  0  0
  143.2446  140.0501  155.8520 O   0  0  0  0  0  0  0  0  0  0  0  0
  144.9547  139.3564  154.5152 N   0  0  0  0  0  0  0  0  0  0  0  0
  146.2186  138.8088  154.2916 C   0  0  0  0  0  0  0  0  0  0  0  0
  146.6479  138.7223  153.1415 O   0  0  0  0  0  0  0  0  0  0  0  0
  148.6540  136.4240  155.5853 C   0  0  1  0  0  0  0  0  0  0  0  0
  149.4484  135.7558  154.6259 O   0  0  0  0  0  0  0  0  0  0  0  0
  149.4275  136.5469  156.8950 C   0  0  2  0  0  0  0  0  0  0  0  0
  148.5555  136.4174  158.0123 O   0  0  0  0  0  0  0  0  0  0  0  0
  148.0976  135.2105  158.4092 C   0  0  0  0  0  0  0  0  0  0  0  0
  148.0007  134.2341  157.6640 O   0  0  0  0  0  0  0  0  0  0  0  0
  147.7264  135.1841  159.8524 C   0  0  0  0  0  0  0  0  0  0  0  0
  147.7555  136.3831  160.6015 C   0  0  0  0  0  0  0  0  0  0  0  0
  147.4030  136.3840  161.9655 C   0  0  0  0  0  0  0  0  0  0  0  0
  147.0215  135.1858  162.5972 C   0  0  0  0  0  0  0  0  0  0  0  0
  146.9967  133.9851  161.8645 C   0  0  0  0  0  0  0  0  0  0  0  0
  147.3487  133.9836  160.5014 C   0  0  0  0  0  0  0  0  0  0  0  0
  151.8486  141.9916  158.4091 C   0  0  0  0  0  0  0  0  0  0  0  0
  152.5695  142.5120  159.5083 C   0  0  0  0  0  0  0  0  0  0  0  0
  152.5546  143.8928  159.7854 C   0  0  0  0  0  0  0  0  0  0  0  0
  151.8221  144.7695  158.9640 C   0  0  0  0  0  0  0  0  0  0  0  0
  151.1071  144.2648  157.8626 C   0  0  0  0  0  0  0  0  0  0  0  0
  151.1209  142.8846  157.5839 C   0  0  0  0  0  0  0  0  0  0  0  0
  144.4284  139.6497  153.7050 H   0  0  0  0  0  0  0  0  0  0  0  0
  151.1087  138.2334  158.6693 H   0  0  0  0  0  0  0  0  0  0  0  0
  149.3993  138.6397  158.7476 H   0  0  0  0  0  0  0  0  0  0  0  0
  151.0002  137.8406  156.2876 H   0  0  0  0  0  0  0  0  0  0  0  0
  148.5535  138.0375  154.1149 H   0  0  0  0  0  0  0  0  0  0  0  0
  146.9557  138.3308  157.5747 H   0  0  0  0  0  0  0  0  0  0  0  0
  144.8225  139.2676  157.8986 H   0  0  0  0  0  0  0  0  0  0  0  0
  147.7426  135.8343  155.6630 H   0  0  0  0  0  0  0  0  0  0  0  0
  149.2146  136.0738  153.7672 H   0  0  0  0  0  0  0  0  0  0  0  0
  150.2242  135.8044  156.9665 H   0  0  0  0  0  0  0  0  0  0  0  0
  148.0423  137.3156  160.1367 H   0  0  0  0  0  0  0  0  0  0  0  0
  147.4244  137.3064  162.5271 H   0  0  0  0  0  0  0  0  0  0  0  0
  146.7501  135.1870  163.6426 H   0  0  0  0  0  0  0  0  0  0  0  0
  146.7074  133.0628  162.3468 H   0  0  0  0  0  0  0  0  0  0  0  0
  147.3266  133.0455  159.9690 H   0  0  0  0  0  0  0  0  0  0  0  0
  153.1328  141.8565  160.1567 H   0  0  0  0  0  0  0  0  0  0  0  0
  153.1041  144.2788  160.6313 H   0  0  0  0  0  0  0  0  0  0  0  0
  151.8101  145.8282  159.1777 H   0  0  0  0  0  0  0  0  0  0  0  0
  150.5463  144.9370  157.2300 H   0  0  0  0  0  0  0  0  0  0  0  0
  150.5615  142.5292  156.7307 H   0  0  0  0  0  0  0  0  0  0  0  0
  1  2  2  0  0  0  0
  2  3  1  0  0  0  0
  2 28  1  0  0  0  0
  3  4  1  0  0  0  0
  4  5  1  0  0  0  0
  4 35  1  0  0  0  0
  4 36  1  0  0  0  0
  5 18  1  0  0  0  0
  5  6  1  0  0  0  0
  5 37  1  0  0  0  0
  6  7  1  0  0  0  0
  7  8  1  0  0  0  0
  7 16  1  0  0  0  0
  7 38  1  0  0  0  0
  8 14  1  0  0  0  0
  8  9  1  0  0  0  0
  9 10  2  0  0  0  0
  9 39  1  0  0  0  0
 10 11  1  0  0  0  0
 10 40  1  0  0  0  0
 11 12  2  0  0  0  0
 11 13  1  0  0  0  0
 13 34  1  0  0  0  0
 13 14  1  0  0  0  0
 14 15  2  0  0  0  0
 16 17  1  0  0  0  0
 16 18  1  0  0  0  0
 16 41  1  0  0  0  0
 17 42  1  0  0  0  0
 18 19  1  0  0  0  0
 18 43  1  0  0  0  0
 19 20  1  0  0  0  0
 20 21  2  0  0  0  0
 20 22  1  0  0  0  0
 22 27  1  0  0  0  0
 22 23  2  0  0  0  0
 23 24  1  0  0  0  0
 23 44  1  0  0  0  0
 24 25  2  0  0  0  0
 24 45  1  0  0  0  0
 25 26  1  0  0  0  0
 25 46  1  0  0  0  0
 26 27  2  0  0  0  0
 26 47  1  0  0  0  0
 27 48  1  0  0  0  0
 28 33  1  0  0  0  0
 28 29  2  0  0  0  0
 29 30  1  0  0  0  0
 29 49  1  0  0  0  0
 30 31  2  0  0  0  0
 30 50  1  0  0  0  0
 31 32  1  0  0  0  0
 31 51  1  0  0  0  0
 32 33  2  0  0  0  0
 32 52  1  0  0  0  0
 33 53  1  0  0  0  0
M  END
> <s_m_source_file>
AV-unprocessed.smi

> <i_m_source_file_index>
99

> <i_lp_mmshare_version>
43012

> <i_f3d_flags>
0

> <s_epik_input>
W2NIXTFbY0hdW2NIXVtjSF1bY0hdYzFDKD1PKU9bQ0gyXVtDQEBIXTJPW0NAQEhdKG4zW2NIXVtjSF1jKD1PKVtuSF1jMz1PKVtDQEBIXShbT0hdKVtDQEhdMk9DKD1PKWM0W2NIXVtjSF1bY0hdW2NIXVtjSF00

> <s_epik_cmdline>
J2VwaWtfcHl0aG9uJywgJy1waCcsICc3LjAnLCAnLXRuJywgJzgnLCAnLW1hJywgJzIwMCcsICctbWV0YWxfYmluZGluZycsICctaW1hZScsICc8aW5maWxlLm1hZT4nLCAnLW9tYWUnLCAnPG91dGZpbGUubWFlPic=

> <r_lp_tautomer_probability>
1

> <r_epik_Ionization_Penalty>
0.00454555

> <r_epik_Ionization_Penalty_Charging>
0.0045191

> <r_epik_Ionization_Penalty_Neutral>
2.64449e-05

> <r_epik_State_Penalty>
-0

> <r_epik_Charging_Adjusted_Penalty>
0.0045191

> <i_epik_Tot_Q>
0

> <i_epik_Tot_abs_Q>
0

> <r_epik_Metal_State_Penalty>
1.27877

> <b_epik_Metal_Only>
0

> <s_epik_Chemistry_Notes>
This compound has an ester and may undergo hydrolysis at high or low pH. This compound contains an acetal/aminal-like group ( X-CH(R)-Y where X, Y are N, S, or O) that may be acid/base labile, releasing an aldehyde.

> <s_lp_Force_Field>
OPLS_2005

> <r_lp_Energy>
29.5489

> <b_lp_Chiralities_Consistent>
1

> <s_lp_Variant>
AV-unprocessed.smi:99-11

> <Gold.Version>
5.8.1

> <Gold.Id.Protein>
6NUR|6NUR_protein|mol2

> <Gold.PLP.Fitness>
53.5061

> <Gold.PLP.PLP>
-48.1678

> <Gold.PLP.part.hbond>
-3.0000

> <Gold.PLP.part.metal>
0.0000

> <Gold.PLP.part.buried>
-7.3680

> <Gold.PLP.part.nonpolar>
-38.4787

> <Gold.PLP.part.repulsive>
0.3177

> <Gold.PLP.ligand.clash>
0.0000

> <Gold.PLP.ligand.torsion>
2.0427

> <Gold.PLP.Chemscore.Hbond>
3.0000

> <Gold.PLP.Chemscore.CHOScore>
0.0000

> <Gold.PLP.Chemscore.Metal>
0.0000

> <Gold.Chemscore.Hbonds>
donor molecule, donor type, donor heavy atom, donor atom, acceptor molecule, acceptor atom, score
      L1  H    13    34       P1 10175  1.00
      L1  H    17    42       P1  7948  1.00
      P1  H  7997  8008       L1     1  0.80

> <Gold.PLP.Chemscore.Internal.Correction>
0.4238

> <Gold.Rescore>
     Score         DG    S(hbond)    S(metal)    S(lipo)     H(rot)  DE(clash)    DE(int)     intcor
     19.72     -21.74       2.89        0.00     126.30       3.19       0.01       2.02       ----

> <Gold.Chemscore.Fitness>
19.7169

> <Gold.Chemscore.DG>
-21.7442

> <Gold.Chemscore.ZeroCoef>
-5.4800

> <Gold.Chemscore.Hbond>
2.8903

> <Gold.Chemscore.Metal>
0.0000

> <Gold.Chemscore.Lipo>
126.3048

> <Gold.Chemscore.Internal_Hbond>
0.0000

> <Gold.Chemscore.DEClash>
0.0119

> <Gold.Chemscore.DEInternal>
2.0154

> <Gold.Chemscore.Rot>
3.1903

> <Gold.Chemscore.Internal.Correction>
   9.000000E+99

> <Gold.Chemscore.Hbonds>
donor molecule, donor type, donor heavy atom, donor atom, acceptor molecule, acceptor atom, score
      L1  H    13    34       P1 10175  1.00
      L1  H    17    42       P1  7948  0.88
      P1  H  7997  8008       L1     1  0.78

> <Gold.Chemscore.Hbond.Weighted>
-9.6536

> <Gold.Chemscore.Metal.Weighted>
-0.0000

> <Gold.Chemscore.Lipo.Weighted>
-14.7777

> <Gold.Chemscore.Internal_Hbond.Weighted>
0.0000

> <Gold.Chemscore.DEClash.Weighted>
0.0119

> <Gold.Chemscore.DEInternal.Weighted>
2.0154

> <Gold.Chemscore.Rot.Weighted>
8.1671

> <Gold.Chemscore.Internal.Correction.Weighted>
   9.000000E+99

> <Gold.Protein.RotatedTorsions>
[ 6907 6896 6895 6894 ] final  163.05 input  -60.11 | X-H torsion
[ 7974 7965 7964 7962 ] final   50.08 input  175.53 | X-H torsion
[ 8008 7997 7996 7995 ] final  -84.29 input   59.86 | X-H torsion
[ 10167 10162 10161 10158 ] final  109.82 input  -65.29 | X-H torsion
[ 10718 10713 10712 10709 ] final  164.79 input   66.30 | X-H torsion
[ 10763 10752 10751 10750 ] final  -31.67 input  -60.55 | X-H torsion
[ 11005 11000 10999 10996 ] final -122.61 input  -57.11 | X-H torsion

> <Gold.Protein.ActiveResidues>
 VAL166  LYS551  ARG553  GLY616  TRP617  ASP618  TYR619  PRO620  LYS621  CYS622 
 ASP623  PHE694  ASN695  SER759  ASP760  ASP761  ALA762  ILE779  LEU786  VAL792 
 PHE793  MET794  SER795  GLU796  ALA797  LYS798  CYS799  TRP800  GLU811  SER814 

> <Gold.Protein.RotatedAtoms>
  151.9311  133.3611  159.3931 H   0  0  0  0  0  0  0  0  0  0  0  0  # atno 6907 bound_to 6896
  150.7017  134.4536  159.5357 H   0  0  0  0  0  0  0  0  0  0  0  0  # atno 6908 bound_to 6896
  152.2177  134.8443  160.0540 H   0  0  0  0  0  0  0  0  0  0  0  0  # atno 6909 bound_to 6896
  146.0047  139.4477  142.9993 H   0  0  0  0  0  0  0  0  0  0  0  0  # atno 7974 bound_to 7965
  154.6283  140.0607  156.9700 H   0  0  0  0  0  0  0  0  0  0  0  0  # atno 8008 bound_to 7997
  155.1707  140.3290  155.4375 H   0  0  0  0  0  0  0  0  0  0  0  0  # atno 8009 bound_to 7997
  156.2469  140.1914  156.6809 H   0  0  0  0  0  0  0  0  0  0  0  0  # atno 8010 bound_to 7997
  139.6737  144.7123  151.1642 H   0  0  0  0  0  0  0  0  0  0  0  0  # atno 10167 bound_to 10162
  157.0894  131.0413  151.2543 H   0  0  0  0  0  0  0  0  0  0  0  0  # atno 10718 bound_to 10713
  153.8012  135.6890  153.4855 H   0  0  0  0  0  0  0  0  0  0  0  0  # atno 10763 bound_to 10752
  153.1687  135.4551  154.9871 H   0  0  0  0  0  0  0  0  0  0  0  0  # atno 10764 bound_to 10752
  154.8006  135.3336  154.7500 H   0  0  0  0  0  0  0  0  0  0  0  0  # atno 10765 bound_to 10752
  140.9982  134.0441  157.3570 H   0  0  0  0  0  0  0  0  0  0  0  0  # atno 11005 bound_to 11000
  145.7434  140.9999  143.1288 LP  0  0  0  0  0  0  0  0  0  0  0  0  # atno 17320 bound_to 7965
  144.6931  139.9127  143.7464 LP  0  0  0  0  0  0  0  0  0  0  0  0  # atno 17321 bound_to 7965
  140.7627  143.5805  150.8900 LP  0  0  0  0  0  0  0  0  0  0  0  0  # atno 17342 bound_to 10162
  139.9472  143.6313  152.3038 LP  0  0  0  0  0  0  0  0  0  0  0  0  # atno 17343 bound_to 10162
  157.4734  130.7722  149.7345 LP  0  0  0  0  0  0  0  0  0  0  0  0  # atno 17370 bound_to 10713
  155.9902  130.3946  150.3039 LP  0  0  0  0  0  0  0  0  0  0  0  0  # atno 17371 bound_to 10713
  139.9025  135.0169  156.7337 LP  0  0  0  0  0  0  0  0  0  0  0  0  # atno 17394 bound_to 11000
  140.6931  133.9372  155.7978 LP  0  0  0  0  0  0  0  0  0  0  0  0  # atno 17395 bound_to 11000

$$$$
