AV-unprocessed.smi:1110|AV-procd|sdf|4790|dock4
  -GOLD-   22720 3333D 1   1.00000     0.00000
 Structure written by MMmdl.
 44 45  0  0  0  0  0  0  0  0  2 V2000
  150.7455  131.7313  155.9935 C   0  0  0  0  0  0  0  0  0  0  0  0
  149.6440  132.0399  154.9705 C   0  0  0  0  0  0  0  0  0  0  0  0
  149.8556  133.3780  154.2172 C   0  0  2  0  0  0  0  0  0  0  0  0
  150.2255  134.5410  155.1700 C   0  0  0  0  0  0  0  0  0  0  0  0
  150.4617  135.7839  154.4394 N   0  0  0  0  0  0  0  0  0  0  0  0
  151.1061  136.8584  154.9197 C   0  0  0  0  0  0  0  0  0  0  0  0
  151.6779  136.8758  156.0096 O   0  0  0  0  0  0  0  0  0  0  0  0
  151.0743  138.1151  154.0413 C   0  0  0  0  0  0  0  0  0  0  0  0
  150.4790  139.2697  154.7364 N   0  0  0  0  0  0  0  0  0  0  0  0
  149.2872  139.7992  154.2024 C   0  0  0  0  0  0  0  0  0  0  0  0
  148.6625  140.8476  154.7618 C   0  0  0  0  0  0  0  0  0  0  0  0
  149.2423  141.4364  155.9456 C   0  0  0  0  0  0  0  0  0  0  0  0
  150.3841  140.9415  156.4630 C   0  0  0  0  0  0  0  0  0  0  0  0
  151.0725  139.7983  155.8531 C   0  0  0  0  0  0  0  0  0  0  0  0
  152.1219  139.3462  156.3146 O   0  0  0  0  0  0  0  0  0  0  0  0
  148.7124  133.7468  153.3304 N   0  3  0  0  0  0  0  0  0  0  0  0
  148.4931  132.8561  152.1676 C   0  0  0  0  0  0  0  0  0  0  0  0
  147.0019  132.9543  151.8542 C   0  0  0  0  0  0  0  0  0  0  0  0
  146.3786  133.1372  153.2331 C   0  0  0  0  0  0  0  0  0  0  0  0
  147.3997  134.0026  153.9753 C   0  0  0  0  0  0  0  0  0  0  0  0
  150.5819  130.7558  156.4519 H   0  0  0  0  0  0  0  0  0  0  0  0
  150.7684  132.4674  156.7967 H   0  0  0  0  0  0  0  0  0  0  0  0
  151.7291  131.7140  155.5234 H   0  0  0  0  0  0  0  0  0  0  0  0
  149.6062  131.2108  154.2649 H   0  0  0  0  0  0  0  0  0  0  0  0
  148.6835  132.0371  155.4852 H   0  0  0  0  0  0  0  0  0  0  0  0
  150.7077  133.2458  153.5479 H   0  0  0  0  0  0  0  0  0  0  0  0
  149.4499  134.6729  155.9263 H   0  0  0  0  0  0  0  0  0  0  0  0
  151.1396  134.3054  155.7144 H   0  0  0  0  0  0  0  0  0  0  0  0
  150.0456  135.8566  153.5217 H   0  0  0  0  0  0  0  0  0  0  0  0
  152.0942  138.3286  153.7190 H   0  0  0  0  0  0  0  0  0  0  0  0
  150.5151  137.9184  153.1243 H   0  0  0  0  0  0  0  0  0  0  0  0
  148.9191  139.3070  153.3141 H   0  0  0  0  0  0  0  0  0  0  0  0
  147.7510  141.2415  154.3366 H   0  0  0  0  0  0  0  0  0  0  0  0
  148.7576  142.2777  156.4192 H   0  0  0  0  0  0  0  0  0  0  0  0
  150.8024  141.3948  157.3499 H   0  0  0  0  0  0  0  0  0  0  0  0
  149.1147  133.1523  151.3222 H   0  0  0  0  0  0  0  0  0  0  0  0
  148.7433  131.8246  152.4156 H   0  0  0  0  0  0  0  0  0  0  0  0
  146.8074  133.8342  151.2390 H   0  0  0  0  0  0  0  0  0  0  0  0
  146.6202  132.0800  151.3266 H   0  0  0  0  0  0  0  0  0  0  0  0
  145.3875  133.5906  153.1949 H   0  0  0  0  0  0  0  0  0  0  0  0
  146.2867  132.1684  153.7265 H   0  0  0  0  0  0  0  0  0  0  0  0
  147.3830  133.8247  155.0496 H   0  0  0  0  0  0  0  0  0  0  0  0
  147.1593  135.0554  153.8256 H   0  0  0  0  0  0  0  0  0  0  0  0
  148.9720  134.6340  152.9222 H   0  0  0  0  0  0  0  0  0  0  0  0
  1  2  1  0  0  0  0
  1 21  1  0  0  0  0
  1 22  1  0  0  0  0
  1 23  1  0  0  0  0
  2  3  1  0  0  0  0
  2 24  1  0  0  0  0
  2 25  1  0  0  0  0
  3  4  1  0  0  0  0
  3 16  1  0  0  0  0
  3 26  1  0  0  0  0
  4  5  1  0  0  0  0
  4 27  1  0  0  0  0
  4 28  1  0  0  0  0
  5  6  1  0  0  0  0
  5 29  1  0  0  0  0
  6  7  2  0  0  0  0
  6  8  1  0  0  0  0
  8  9  1  0  0  0  0
  8 30  1  0  0  0  0
  8 31  1  0  0  0  0
  9 14  1  0  0  0  0
  9 10  1  0  0  0  0
 10 11  2  0  0  0  0
 10 32  1  0  0  0  0
 11 12  1  0  0  0  0
 11 33  1  0  0  0  0
 12 13  2  0  0  0  0
 12 34  1  0  0  0  0
 13 14  1  0  0  0  0
 13 35  1  0  0  0  0
 14 15  2  0  0  0  0
 16 20  1  0  0  0  0
 16 17  1  0  0  0  0
 16 44  1  0  0  0  0
 17 18  1  0  0  0  0
 17 36  1  0  0  0  0
 17 37  1  0  0  0  0
 18 19  1  0  0  0  0
 18 38  1  0  0  0  0
 18 39  1  0  0  0  0
 19 20  1  0  0  0  0
 19 40  1  0  0  0  0
 19 41  1  0  0  0  0
 20 42  1  0  0  0  0
 20 43  1  0  0  0  0
M  CHG  1  16   1
M  END
> <s_m_source_file>
AV-unprocessed.smi

> <i_m_source_file_index>
1110

> <i_lp_mmshare_version>
43012

> <i_f3d_flags>
0

> <s_epik_input>
W0NIMl0xW0NIMl1bQ0gyXVtDSDJdTjFbQ0BIXShbQ0gyXVtDSDNdKVtDSDJdW05IXUMoPU8pW0NIMl1uMltjSF1bY0hdW2NIXVtjSF1jMj1P

> <s_epik_cmdline>
J2VwaWtfcHl0aG9uJywgJy1waCcsICc3LjAnLCAnLXRuJywgJzgnLCAnLW1hJywgJzIwMCcsICctbWV0YWxfYmluZGluZycsICctaW1hZScsICc8aW5maWxlLm1hZT4nLCAnLW9tYWUnLCAnPG91dGZpbGUubWFlPic=

> <r_lp_tautomer_probability>
1

> <r_epik_Ionization_Penalty>
0.00361135

> <r_epik_Ionization_Penalty_Charging>
0.00361127

> <r_epik_Ionization_Penalty_Neutral>
7.8489e-08

> <r_epik_State_Penalty>
0.00256751

> <r_epik_Charging_Adjusted_Penalty>
0.00617878

> <i_epik_Tot_Q>
1

> <i_epik_Tot_abs_Q>
1

> <r_epik_Metal_State_Penalty>
-0

> <b_epik_Metal_Only>
0

> <s_lp_Force_Field>
OPLS_2005

> <r_lp_Energy>
45.664

> <b_lp_Chiralities_Consistent>
1

> <s_lp_Variant>
AV-unprocessed.smi:1110-1

> <Gold.Version>
5.8.1

> <Gold.Id.Protein>
6NUR|6NUR_protein|mol2

> <Gold.PLP.Fitness>
55.2563

> <Gold.PLP.PLP>
-38.5734

> <Gold.PLP.part.hbond>
-5.0000

> <Gold.PLP.part.metal>
0.0000

> <Gold.PLP.part.buried>
0.4828

> <Gold.PLP.part.nonpolar>
-32.6376

> <Gold.PLP.part.repulsive>
0.1185

> <Gold.PLP.ligand.clash>
0.0000

> <Gold.PLP.ligand.torsion>
0.2740

> <Gold.PLP.Chemscore.Hbond>
4.8000

> <Gold.PLP.Chemscore.CHOScore>
0.8615

> <Gold.PLP.Chemscore.Metal>
0.0000

> <Gold.Chemscore.Hbonds>
donor molecule, donor type, donor heavy atom, donor atom, acceptor molecule, acceptor atom, score
      L1  H     5    29       P1  7948  0.40
      L1  H    16    44       P1  7948  1.10
      P1  H  7997  8010       L1    15  0.16
      P1  H 10752 10763       L1     7  0.10
      L1  C    10    32       P1  7957  0.82

> <Gold.PLP.Chemscore.Internal.Correction>
0.2464

> <Gold.Rescore>
     Score         DG    S(hbond)    S(metal)    S(lipo)     H(rot)  DE(clash)    DE(int)     intcor
     18.17     -18.90       3.49        0.00      58.61       1.99       0.04       0.69       ----

> <Gold.Chemscore.Fitness>
18.1665

> <Gold.Chemscore.DG>
-18.9026

> <Gold.Chemscore.ZeroCoef>
-5.4800

> <Gold.Chemscore.Hbond>
3.4905

> <Gold.Chemscore.Metal>
0.0000

> <Gold.Chemscore.Lipo>
58.6075

> <Gold.Chemscore.Internal_Hbond>
0.0000

> <Gold.Chemscore.DEClash>
0.0443

> <Gold.Chemscore.DEInternal>
0.6918

> <Gold.Chemscore.Rot>
1.9893

> <Gold.Chemscore.Internal.Correction>
   9.000000E+99

> <Gold.Chemscore.Hbonds>
donor molecule, donor type, donor heavy atom, donor atom, acceptor molecule, acceptor atom, score
      L1  H     5    29       P1  7948  0.01
      L1  H    16    44       P1  7948  0.03
      P1  H  7997  8010       L1    15  0.18

> <Gold.Chemscore.Hbond.Weighted>
-11.6582

> <Gold.Chemscore.Metal.Weighted>
-0.0000

> <Gold.Chemscore.Lipo.Weighted>
-6.8571

> <Gold.Chemscore.Internal_Hbond.Weighted>
0.0000

> <Gold.Chemscore.DEClash.Weighted>
0.0443

> <Gold.Chemscore.DEInternal.Weighted>
0.6918

> <Gold.Chemscore.Rot.Weighted>
5.0927

> <Gold.Chemscore.Internal.Correction.Weighted>
   9.000000E+99

> <Gold.Protein.RotatedTorsions>
[ 6907 6896 6895 6894 ] final  173.68 input  -60.11 | X-H torsion
[ 7974 7965 7964 7962 ] final -125.05 input  175.53 | X-H torsion
[ 8008 7997 7996 7995 ] final   85.83 input   59.86 | X-H torsion
[ 10167 10162 10161 10158 ] final -137.44 input  -65.29 | X-H torsion
[ 10718 10713 10712 10709 ] final  111.14 input   66.30 | X-H torsion
[ 10763 10752 10751 10750 ] final   87.62 input  -60.55 | X-H torsion
[ 11005 11000 10999 10996 ] final   39.34 input  -57.11 | X-H torsion

> <Gold.Protein.ActiveResidues>
 VAL166  LYS551  ARG553  GLY616  TRP617  ASP618  TYR619  PRO620  LYS621  CYS622 
 ASP623  PHE694  ASN695  SER759  ASP760  ASP761  ALA762  ILE779  LEU786  VAL792 
 PHE793  MET794  SER795  GLU796  ALA797  LYS798  CYS799  TRP800  GLU811  SER814 

> <Gold.Protein.RotatedAtoms>
  151.7644  133.3336  159.3426 H   0  0  0  0  0  0  0  0  0  0  0  0  # atno 6907 bound_to 6896
  150.7485  134.6076  159.6078 H   0  0  0  0  0  0  0  0  0  0  0  0  # atno 6908 bound_to 6896
  152.3383  134.7170  160.0322 H   0  0  0  0  0  0  0  0  0  0  0  0  # atno 6909 bound_to 6896
  145.0016  140.7826  143.4492 H   0  0  0  0  0  0  0  0  0  0  0  0  # atno 7974 bound_to 7965
  155.9550  140.3398  155.6441 H   0  0  0  0  0  0  0  0  0  0  0  0  # atno 8008 bound_to 7997
  155.6871  140.0744  157.2481 H   0  0  0  0  0  0  0  0  0  0  0  0  # atno 8009 bound_to 7997
  154.4130  140.1664  156.2033 H   0  0  0  0  0  0  0  0  0  0  0  0  # atno 8010 bound_to 7997
  139.8577  143.7117  152.2653 H   0  0  0  0  0  0  0  0  0  0  0  0  # atno 10167 bound_to 10162
  157.6460  131.0945  150.6704 H   0  0  0  0  0  0  0  0  0  0  0  0  # atno 10718 bound_to 10713
  153.1686  135.4537  154.9872 H   0  0  0  0  0  0  0  0  0  0  0  0  # atno 10763 bound_to 10752
  154.7950  135.3234  154.7691 H   0  0  0  0  0  0  0  0  0  0  0  0  # atno 10764 bound_to 10752
  153.8170  135.6950  153.4887 H   0  0  0  0  0  0  0  0  0  0  0  0  # atno 10765 bound_to 10752
  140.2038  134.3838  155.8083 H   0  0  0  0  0  0  0  0  0  0  0  0  # atno 11005 bound_to 11000
  145.2145  139.2188  143.5125 LP  0  0  0  0  0  0  0  0  0  0  0  0  # atno 17320 bound_to 7965
  146.3453  140.1990  142.8589 LP  0  0  0  0  0  0  0  0  0  0  0  0  # atno 17321 bound_to 7965
  139.7403  144.7561  151.0662 LP  0  0  0  0  0  0  0  0  0  0  0  0  # atno 17342 bound_to 10162
  140.7779  143.4980  150.9808 LP  0  0  0  0  0  0  0  0  0  0  0  0  # atno 17343 bound_to 10162
  156.7021  130.4626  149.5570 LP  0  0  0  0  0  0  0  0  0  0  0  0  # atno 17370 bound_to 10713
  156.1788  130.6485  151.0926 LP  0  0  0  0  0  0  0  0  0  0  0  0  # atno 17371 bound_to 10713
  141.2227  133.7107  156.8302 LP  0  0  0  0  0  0  0  0  0  0  0  0  # atno 17394 bound_to 11000
  140.2025  134.8886  157.3185 LP  0  0  0  0  0  0  0  0  0  0  0  0  # atno 17395 bound_to 11000

$$$$
