AV-unprocessed.smi:281|AV-procd|sdf|2106|dock1
  -GOLD-   2262021393D 1   1.00000     0.00000
 Structure written by MMmdl.
 55 59  0  0  0  0  0  0  0  0  1 V2000
  152.5114  142.3596  158.8122 C   0  0  0  0  0  0  0  0  0  0  0  0
  151.6254  141.2363  158.2642 C   0  0  1  0  0  0  0  0  0  0  0  0
  150.6581  141.7424  157.1797 C   0  0  0  0  0  0  0  0  0  0  0  0
  149.9175  140.6226  156.6170 N   0  0  0  0  0  0  0  0  0  0  0  0
  148.9232  140.9845  155.7805 C   0  0  0  0  0  0  0  0  0  0  0  0
  149.0188  140.5700  154.4939 N   0  0  0  0  0  0  0  0  0  0  0  0
  148.0668  140.8986  153.6152 C   0  0  0  0  0  0  0  0  0  0  0  0
  146.9607  141.6196  153.8124 N   0  0  0  0  0  0  0  0  0  0  0  0
  146.8659  142.0419  155.1062 C   0  0  0  0  0  0  0  0  0  0  0  0
  147.7941  141.7687  156.1498 C   0  0  0  0  0  0  0  0  0  0  0  0
  147.3629  142.3547  157.3338 N   0  0  0  0  0  0  0  0  0  0  0  0
  146.2428  142.9401  157.0086 C   0  0  0  0  0  0  0  0  0  0  0  0
  145.8738  142.8124  155.6879 N   0  0  0  0  0  0  0  0  0  0  0  0
  144.6820  143.3594  155.0563 C   0  0  0  0  0  0  0  0  0  0  0  0
  143.4017  142.5260  155.3088 C   0  0  1  0  0  0  0  0  0  0  0  0
  143.6363  141.1867  154.9139 O   0  0  0  0  0  0  0  0  0  0  0  0
  142.9765  142.5444  156.7790 C   0  0  0  0  0  0  0  0  0  0  0  0
  141.7167  143.4017  156.7785 C   0  0  0  0  0  0  0  0  0  0  0  0
  141.1201  143.0745  155.5366 O   0  0  0  0  0  0  0  0  0  0  0  0
  142.1588  143.0599  154.5684 C   0  0  0  0  0  0  0  0  0  0  0  0
  150.7909  139.5909  156.0752 C   0  0  0  0  0  0  0  0  0  0  0  0
  151.7912  139.1055  157.1543 C   0  0  1  0  0  0  0  0  0  0  0  0
  151.1289  138.2620  158.2393 C   0  0  0  0  0  0  0  0  0  0  0  0
  151.1054  136.8666  157.6260 C   0  0  0  0  0  0  0  0  0  0  0  0
  152.2465  136.8002  156.7788 O   0  0  0  0  0  0  0  0  0  0  0  0
  152.8314  138.0922  156.6383 C   0  0  1  0  0  0  0  0  0  0  0  0
  153.3587  138.3035  155.2114 C   0  0  0  0  0  0  0  0  0  0  0  0
  152.4770  140.2311  157.7124 O   0  0  0  0  0  0  0  0  0  0  0  0
  151.9100  143.1517  159.2587 H   0  0  0  0  0  0  0  0  0  0  0  0
  153.1185  142.8037  158.0229 H   0  0  0  0  0  0  0  0  0  0  0  0
  153.1874  141.9826  159.5800 H   0  0  0  0  0  0  0  0  0  0  0  0
  151.0552  140.8157  159.0936 H   0  0  0  0  0  0  0  0  0  0  0  0
  149.9640  142.4688  157.6049 H   0  0  0  0  0  0  0  0  0  0  0  0
  151.2163  142.2501  156.3922 H   0  0  0  0  0  0  0  0  0  0  0  0
  148.2126  140.5333  152.6095 H   0  0  0  0  0  0  0  0  0  0  0  0
  145.6531  143.4862  157.7302 H   0  0  0  0  0  0  0  0  0  0  0  0
  144.5442  144.3808  155.4139 H   0  0  0  0  0  0  0  0  0  0  0  0
  144.8722  143.4358  153.9849 H   0  0  0  0  0  0  0  0  0  0  0  0
  143.7861  141.1717  153.9808 H   0  0  0  0  0  0  0  0  0  0  0  0
  142.7220  141.5416  157.1267 H   0  0  0  0  0  0  0  0  0  0  0  0
  143.7427  142.9366  157.4488 H   0  0  0  0  0  0  0  0  0  0  0  0
  141.0556  143.1817  157.6169 H   0  0  0  0  0  0  0  0  0  0  0  0
  141.9648  144.4641  156.8006 H   0  0  0  0  0  0  0  0  0  0  0  0
  142.3093  144.0878  154.2375 H   0  0  0  0  0  0  0  0  0  0  0  0
  141.8820  142.4694  153.6938 H   0  0  0  0  0  0  0  0  0  0  0  0
  150.1978  138.7594  155.6924 H   0  0  0  0  0  0  0  0  0  0  0  0
  151.3324  140.0119  155.2281 H   0  0  0  0  0  0  0  0  0  0  0  0
  151.7536  138.2517  159.1337 H   0  0  0  0  0  0  0  0  0  0  0  0
  150.1374  138.6103  158.5310 H   0  0  0  0  0  0  0  0  0  0  0  0
  151.1244  136.0810  158.3817 H   0  0  0  0  0  0  0  0  0  0  0  0
  150.2103  136.7292  157.0183 H   0  0  0  0  0  0  0  0  0  0  0  0
  153.6827  138.1076  157.3210 H   0  0  0  0  0  0  0  0  0  0  0  0
  153.7785  139.3027  155.0929 H   0  0  0  0  0  0  0  0  0  0  0  0
  152.5727  138.1737  154.4673 H   0  0  0  0  0  0  0  0  0  0  0  0
  154.1453  137.5846  154.9819 H   0  0  0  0  0  0  0  0  0  0  0  0
  1  2  1  0  0  0  0
  1 29  1  0  0  0  0
  1 30  1  0  0  0  0
  1 31  1  0  0  0  0
  2 28  1  0  0  0  0
  2  3  1  0  0  0  0
  2 32  1  0  0  0  0
  3  4  1  0  0  0  0
  3 33  1  0  0  0  0
  3 34  1  0  0  0  0
  4  5  1  0  0  0  0
  4 21  1  0  0  0  0
  5 10  1  0  0  0  0
  5  6  2  0  0  0  0
  6  7  1  0  0  0  0
  7  8  2  0  0  0  0
  7 35  1  0  0  0  0
  8  9  1  0  0  0  0
  9 13  1  0  0  0  0
  9 10  2  0  0  0  0
 10 11  1  0  0  0  0
 11 12  2  0  0  0  0
 12 13  1  0  0  0  0
 12 36  1  0  0  0  0
 13 14  1  0  0  0  0
 14 15  1  0  0  0  0
 14 37  1  0  0  0  0
 14 38  1  0  0  0  0
 15 20  1  0  0  0  0
 15 16  1  0  0  0  0
 15 17  1  0  0  0  0
 16 39  1  0  0  0  0
 17 18  1  0  0  0  0
 17 40  1  0  0  0  0
 17 41  1  0  0  0  0
 18 19  1  0  0  0  0
 18 42  1  0  0  0  0
 18 43  1  0  0  0  0
 19 20  1  0  0  0  0
 20 44  1  0  0  0  0
 20 45  1  0  0  0  0
 21 22  1  0  0  0  0
 21 46  1  0  0  0  0
 21 47  1  0  0  0  0
 22 26  1  0  0  0  0
 22 23  1  0  0  0  0
 22 28  1  0  0  0  0
 23 24  1  0  0  0  0
 23 48  1  0  0  0  0
 23 49  1  0  0  0  0
 24 25  1  0  0  0  0
 24 50  1  0  0  0  0
 24 51  1  0  0  0  0
 25 26  1  0  0  0  0
 26 27  1  0  0  0  0
 26 52  1  0  0  0  0
 27 53  1  0  0  0  0
 27 54  1  0  0  0  0
 27 55  1  0  0  0  0
M  END
> <s_m_source_file>
AV-unprocessed.smi

> <i_m_source_file_index>
281

> <i_lp_mmshare_version>
43012

> <i_f3d_flags>
0

> <s_epik_input>
W0NIM11bQ0BASF0xT1tDSDJdW0NIMl1bQ0BAXTEyW0NIMl1OKFtDSDJdW0NASF0oTzIpW0NIM10pYyhuW2NIXW4zKWMoYzM0KW5bY0hdbjRbQ0gyXVtDQEBdNShbT0hdKVtDSDJdW0NIMl1PW0NIMl01

> <s_epik_cmdline>
J2VwaWtfcHl0aG9uJywgJy1waCcsICc3LjAnLCAnLXRuJywgJzgnLCAnLW1hJywgJzIwMCcsICctbWV0YWxfYmluZGluZycsICctaW1hZScsICc8aW5maWxlLm1hZT4nLCAnLW9tYWUnLCAnPG91dGZpbGUubWFlPic=

> <r_lp_tautomer_probability>
1

> <r_epik_Ionization_Penalty>
0.00571331

> <r_epik_Ionization_Penalty_Charging>
0

> <r_epik_Ionization_Penalty_Neutral>
0.00571331

> <r_epik_State_Penalty>
0.00399586

> <r_epik_Charging_Adjusted_Penalty>
0.00399586

> <i_epik_Tot_Q>
0

> <i_epik_Tot_abs_Q>
0

> <r_epik_Metal_State_Penalty>
-0

> <b_epik_Metal_Only>
0

> <s_lp_Force_Field>
OPLS_2005

> <r_lp_Energy>
56.3854

> <b_lp_Chiralities_Consistent>
1

> <s_lp_Variant>
AV-unprocessed.smi:281-6

> <Gold.Version>
5.8.1

> <Gold.Id.Protein>
6NUR|6NUR_protein|mol2

> <Gold.PLP.Fitness>
43.0090

> <Gold.PLP.PLP>
-31.9237

> <Gold.PLP.part.hbond>
-3.0000

> <Gold.PLP.part.metal>
0.0000

> <Gold.PLP.part.buried>
-6.9180

> <Gold.PLP.part.nonpolar>
-22.0645

> <Gold.PLP.part.repulsive>
0.5323

> <Gold.PLP.ligand.clash>
0.0000

> <Gold.PLP.ligand.torsion>
0.4588

> <Gold.PLP.Chemscore.Hbond>
2.9600

> <Gold.PLP.Chemscore.CHOScore>
1.0000

> <Gold.PLP.Chemscore.Metal>
0.0000

> <Gold.Chemscore.Hbonds>
donor molecule, donor type, donor heavy atom, donor atom, acceptor molecule, acceptor atom, score
      L1  H    16    39       P1 10175  1.00
      P1  H  7997  8008       L1    28  0.67
      P1  H 10752 10765       L1    25  0.13
      L1  C     7    35       P1  7957  1.00

> <Gold.PLP.Chemscore.Internal.Correction>
0.1228

> <Gold.Rescore>
     Score         DG    S(hbond)    S(metal)    S(lipo)     H(rot)  DE(clash)    DE(int)     intcor
     15.04     -15.60       2.28        0.00      67.23       2.09       0.03       0.53       ----

> <Gold.Chemscore.Fitness>
15.0435

> <Gold.Chemscore.DG>
-15.6015

> <Gold.Chemscore.ZeroCoef>
-5.4800

> <Gold.Chemscore.Hbond>
2.2792

> <Gold.Chemscore.Metal>
0.0000

> <Gold.Chemscore.Lipo>
67.2326

> <Gold.Chemscore.Internal_Hbond>
0.0000

> <Gold.Chemscore.DEClash>
0.0310

> <Gold.Chemscore.DEInternal>
0.5270

> <Gold.Chemscore.Rot>
2.0927

> <Gold.Chemscore.Internal.Correction>
   9.000000E+99

> <Gold.Chemscore.Hbonds>
donor molecule, donor type, donor heavy atom, donor atom, acceptor molecule, acceptor atom, score
      L1  H    16    39       P1 10175  0.43
      P1  H  7997  8008       L1    28  0.22
      P1  H 10752 10765       L1    25  0.07

> <Gold.Chemscore.Hbond.Weighted>
-7.6126

> <Gold.Chemscore.Metal.Weighted>
-0.0000

> <Gold.Chemscore.Lipo.Weighted>
-7.8662

> <Gold.Chemscore.Internal_Hbond.Weighted>
0.0000

> <Gold.Chemscore.DEClash.Weighted>
0.0310

> <Gold.Chemscore.DEInternal.Weighted>
0.5270

> <Gold.Chemscore.Rot.Weighted>
5.3573

> <Gold.Chemscore.Internal.Correction.Weighted>
   9.000000E+99

> <Gold.Protein.RotatedTorsions>
[ 6907 6896 6895 6894 ] final  -95.30 input  -60.11 | X-H torsion
[ 7974 7965 7964 7962 ] final  -94.86 input  175.53 | X-H torsion
[ 8008 7997 7996 7995 ] final  -66.78 input   59.86 | X-H torsion
[ 10167 10162 10161 10158 ] final   73.00 input  -65.29 | X-H torsion
[ 10718 10713 10712 10709 ] final -147.09 input   66.30 | X-H torsion
[ 10763 10752 10751 10750 ] final -158.50 input  -60.55 | X-H torsion
[ 11005 11000 10999 10996 ] final   74.12 input  -57.11 | X-H torsion

> <Gold.Protein.ActiveResidues>
 VAL166  LYS551  ARG553  GLY616  TRP617  ASP618  TYR619  PRO620  LYS621  CYS622 
 ASP623  PHE694  ASN695  SER759  ASP760  ASP761  ALA762  ILE779  LEU786  VAL792 
 PHE793  MET794  SER795  GLU796  ALA797  LYS798  CYS799  TRP800  GLU811  SER814 

> <Gold.Protein.RotatedAtoms>
  150.6961  134.1678  159.4200 H   0  0  0  0  0  0  0  0  0  0  0  0  # atno 6907 bound_to 6896
  151.9657  135.0099  160.0559 H   0  0  0  0  0  0  0  0  0  0  0  0  # atno 6908 bound_to 6896
  152.1887  133.4722  159.5033 H   0  0  0  0  0  0  0  0  0  0  0  0  # atno 6909 bound_to 6896
  145.3677  140.9501  143.2465 H   0  0  0  0  0  0  0  0  0  0  0  0  # atno 7974 bound_to 7965
  154.4756  140.0906  156.7254 H   0  0  0  0  0  0  0  0  0  0  0  0  # atno 8008 bound_to 7997
  155.4605  140.3461  155.4294 H   0  0  0  0  0  0  0  0  0  0  0  0  # atno 8009 bound_to 7997
  156.1111  140.1448  156.9325 H   0  0  0  0  0  0  0  0  0  0  0  0  # atno 8010 bound_to 7997
  140.0292  144.5479  150.7520 H   0  0  0  0  0  0  0  0  0  0  0  0  # atno 10167 bound_to 10162
  156.4031  130.7944  151.2156 H   0  0  0  0  0  0  0  0  0  0  0  0  # atno 10718 bound_to 10713
  154.7552  135.3103  154.8484 H   0  0  0  0  0  0  0  0  0  0  0  0  # atno 10763 bound_to 10752
  153.9260  135.6790  153.4750 H   0  0  0  0  0  0  0  0  0  0  0  0  # atno 10764 bound_to 10752
  153.1149  135.4849  154.9027 H   0  0  0  0  0  0  0  0  0  0  0  0  # atno 10765 bound_to 10752
  139.9406  134.7405  156.1109 H   0  0  0  0  0  0  0  0  0  0  0  0  # atno 11005 bound_to 11000
  144.8600  139.5192  143.6817 LP  0  0  0  0  0  0  0  0  0  0  0  0  # atno 17320 bound_to 7965
  146.2899  139.7110  142.9168 LP  0  0  0  0  0  0  0  0  0  0  0  0  # atno 17321 bound_to 7965
  140.7309  143.2688  151.3954 LP  0  0  0  0  0  0  0  0  0  0  0  0  # atno 17342 bound_to 10162
  139.6087  144.1143  152.2276 LP  0  0  0  0  0  0  0  0  0  0  0  0  # atno 17343 bound_to 10162
  157.7504  131.0281  150.4033 LP  0  0  0  0  0  0  0  0  0  0  0  0  # atno 17370 bound_to 10713
  156.4316  130.3973  149.6756 LP  0  0  0  0  0  0  0  0  0  0  0  0  # atno 17371 bound_to 10713
  141.1039  133.6667  156.2819 LP  0  0  0  0  0  0  0  0  0  0  0  0  # atno 17394 bound_to 11000
  140.5961  134.5602  157.5509 LP  0  0  0  0  0  0  0  0  0  0  0  0  # atno 17395 bound_to 11000

$$$$
