AV-unprocessed.smi:669|AV-procd|sdf|3263|dock6
  -GOLD-   22720 0213D 1   1.00000     0.00000
 Structure written by MMmdl.
 37 38  0  0  0  0  0  0  0  0  1 V2000
  146.1753  141.6623  154.8201 C   0  0  0  0  0  0  0  0  0  0  0  0
  147.5483  141.0591  154.8123 C   0  0  0  0  0  0  0  0  0  0  0  0
  147.8536  139.7997  154.1625 C   0  0  0  0  0  0  0  0  0  0  0  0
  149.1221  139.3382  154.1796 C   0  0  0  0  0  0  0  0  0  0  0  0
  150.1982  140.0706  154.8440 C   0  0  0  0  0  0  0  0  0  0  0  0
  151.3693  139.6932  154.8369 O   0  0  0  0  0  0  0  0  0  0  0  0
  149.7838  141.2150  155.4648 N   0  0  0  0  0  0  0  0  0  0  0  0
  150.7265  142.0677  156.2081 C   0  0  0  0  0  0  0  0  0  0  0  0
  150.3186  142.3645  157.6839 C   0  0  1  0  0  0  0  0  0  0  0  0
  148.9350  142.6589  157.6863 O   0  0  0  0  0  0  0  0  0  0  0  0
  150.4581  141.1013  158.5674 C   0  0  0  0  0  0  0  0  0  0  0  0
  151.9200  140.7706  158.9208 C   0  0  0  0  0  0  0  0  0  0  0  0
  152.6302  141.9674  159.5795 C   0  0  1  0  0  0  0  0  0  0  0  0
  154.0907  141.6372  159.9173 C   0  0  0  0  0  0  0  0  0  0  0  0
  152.5254  143.2136  158.6815 C   0  0  0  0  0  0  0  0  0  0  0  0
  151.0594  143.5485  158.3541 C   0  0  0  0  0  0  0  0  0  0  0  0
  148.4887  141.7065  155.4175 N   0  0  0  0  0  0  0  0  0  0  0  0
  145.4884  141.0879  154.1982 H   0  0  0  0  0  0  0  0  0  0  0  0
  146.1964  142.6834  154.4378 H   0  0  0  0  0  0  0  0  0  0  0  0
  145.7699  141.6882  155.8319 H   0  0  0  0  0  0  0  0  0  0  0  0
  147.0698  139.2455  153.6675 H   0  0  0  0  0  0  0  0  0  0  0  0
  149.3495  138.4019  153.6918 H   0  0  0  0  0  0  0  0  0  0  0  0
  151.7328  141.6459  156.1716 H   0  0  0  0  0  0  0  0  0  0  0  0
  150.8143  143.0084  155.6637 H   0  0  0  0  0  0  0  0  0  0  0  0
  148.7599  143.2887  157.0042 H   0  0  0  0  0  0  0  0  0  0  0  0
  149.9124  141.2466  159.5013 H   0  0  0  0  0  0  0  0  0  0  0  0
  149.9930  140.2438  158.0791 H   0  0  0  0  0  0  0  0  0  0  0  0
  151.9412  139.9136  159.5951 H   0  0  0  0  0  0  0  0  0  0  0  0
  152.4633  140.4623  158.0277 H   0  0  0  0  0  0  0  0  0  0  0  0
  152.1188  142.1863  160.5181 H   0  0  0  0  0  0  0  0  0  0  0  0
  154.6630  141.4043  159.0188 H   0  0  0  0  0  0  0  0  0  0  0  0
  154.1535  140.7772  160.5848 H   0  0  0  0  0  0  0  0  0  0  0  0
  154.5780  142.4757  160.4155 H   0  0  0  0  0  0  0  0  0  0  0  0
  152.9891  144.0675  159.1767 H   0  0  0  0  0  0  0  0  0  0  0  0
  153.0877  143.0526  157.7621 H   0  0  0  0  0  0  0  0  0  0  0  0
  151.0049  144.4486  157.7415 H   0  0  0  0  0  0  0  0  0  0  0  0
  150.5560  143.8048  159.2878 H   0  0  0  0  0  0  0  0  0  0  0  0
  1  2  1  0  0  0  0
  1 18  1  0  0  0  0
  1 19  1  0  0  0  0
  1 20  1  0  0  0  0
  2 17  2  0  0  0  0
  2  3  1  0  0  0  0
  3  4  2  0  0  0  0
  3 21  1  0  0  0  0
  4  5  1  0  0  0  0
  4 22  1  0  0  0  0
  5  6  2  0  0  0  0
  5  7  1  0  0  0  0
  7  8  1  0  0  0  0
  7 17  1  0  0  0  0
  8  9  1  0  0  0  0
  8 23  1  0  0  0  0
  8 24  1  0  0  0  0
  9 16  1  0  0  0  0
  9 10  1  0  0  0  0
  9 11  1  0  0  0  0
 10 25  1  0  0  0  0
 11 12  1  0  0  0  0
 11 26  1  0  0  0  0
 11 27  1  0  0  0  0
 12 13  1  0  0  0  0
 12 28  1  0  0  0  0
 12 29  1  0  0  0  0
 13 14  1  0  0  0  0
 13 15  1  0  0  0  0
 13 30  1  0  0  0  0
 14 31  1  0  0  0  0
 14 32  1  0  0  0  0
 14 33  1  0  0  0  0
 15 16  1  0  0  0  0
 15 34  1  0  0  0  0
 15 35  1  0  0  0  0
 16 36  1  0  0  0  0
 16 37  1  0  0  0  0
M  END
> <s_m_source_file>
AV-unprocessed.smi

> <i_m_source_file_index>
669

> <i_lp_mmshare_version>
43012

> <i_f3d_flags>
0

> <s_epik_input>
W0NIM11jMVtjSF1bY0hdYyg9TyluKG4xKVtDSDJdW0NAQF0yKFtPSF0pW0NIMl1bQ0gyXVtDQEBIXShbQ0gzXSlbQ0gyXVtDSDJdMg==

> <s_epik_cmdline>
J2VwaWtfcHl0aG9uJywgJy1waCcsICc3LjAnLCAnLXRuJywgJzgnLCAnLW1hJywgJzIwMCcsICctbWV0YWxfYmluZGluZycsICctaW1hZScsICc8aW5maWxlLm1hZT4nLCAnLW9tYWUnLCAnPG91dGZpbGUubWFlPic=

> <r_lp_tautomer_probability>
1

> <r_epik_Ionization_Penalty>
1.6993e-05

> <r_epik_Ionization_Penalty_Charging>
1.61671e-05

> <r_epik_Ionization_Penalty_Neutral>
8.25878e-07

> <r_epik_State_Penalty>
-0

> <r_epik_Charging_Adjusted_Penalty>
1.61671e-05

> <i_epik_Tot_Q>
0

> <i_epik_Tot_abs_Q>
0

> <r_epik_Metal_State_Penalty>
-0

> <b_epik_Metal_Only>
0

> <s_lp_Force_Field>
OPLS_2005

> <r_lp_Energy>
31.4403

> <b_lp_Chiralities_Consistent>
1

> <s_lp_Variant>
AV-unprocessed.smi:669-1

> <Gold.Version>
5.8.1

> <Gold.Id.Protein>
6NUR|6NUR_protein|mol2

> <Gold.PLP.Fitness>
37.5636

> <Gold.PLP.PLP>
-33.7106

> <Gold.PLP.part.hbond>
-2.0000

> <Gold.PLP.part.metal>
0.0000

> <Gold.PLP.part.buried>
-3.8204

> <Gold.PLP.part.nonpolar>
-30.0108

> <Gold.PLP.part.repulsive>
1.1219

> <Gold.PLP.ligand.clash>
0.0000

> <Gold.PLP.ligand.torsion>
0.1807

> <Gold.PLP.Chemscore.Hbond>
1.4000

> <Gold.PLP.Chemscore.CHOScore>
0.0000

> <Gold.PLP.Chemscore.Metal>
0.0000

> <Gold.Chemscore.Hbonds>
donor molecule, donor type, donor heavy atom, donor atom, acceptor molecule, acceptor atom, score
      L1  H    10    25       P1  8028  1.00
      P1  H  7989  7998       L1     6  0.35

> <Gold.PLP.Chemscore.Internal.Correction>
0.0143

> <Gold.Rescore>
     Score         DG    S(hbond)    S(metal)    S(lipo)     H(rot)  DE(clash)    DE(int)     intcor
     16.35     -18.20       1.84        0.00      91.58       1.62       0.02       1.84       ----

> <Gold.Chemscore.Fitness>
16.3470

> <Gold.Chemscore.DG>
-18.2013

> <Gold.Chemscore.ZeroCoef>
-5.4800

> <Gold.Chemscore.Hbond>
1.8400

> <Gold.Chemscore.Metal>
0.0000

> <Gold.Chemscore.Lipo>
91.5813

> <Gold.Chemscore.Internal_Hbond>
0.0000

> <Gold.Chemscore.DEClash>
0.0177

> <Gold.Chemscore.DEInternal>
1.8366

> <Gold.Chemscore.Rot>
1.6168

> <Gold.Chemscore.Internal.Correction>
   9.000000E+99

> <Gold.Chemscore.Hbonds>
donor molecule, donor type, donor heavy atom, donor atom, acceptor molecule, acceptor atom, score
      L1  H    10    25       P1  8028  0.54
      P1  H  7989  7998       L1     6  0.01

> <Gold.Chemscore.Hbond.Weighted>
-6.1454

> <Gold.Chemscore.Metal.Weighted>
-0.0000

> <Gold.Chemscore.Lipo.Weighted>
-10.7150

> <Gold.Chemscore.Internal_Hbond.Weighted>
0.0000

> <Gold.Chemscore.DEClash.Weighted>
0.0177

> <Gold.Chemscore.DEInternal.Weighted>
1.8366

> <Gold.Chemscore.Rot.Weighted>
4.1391

> <Gold.Chemscore.Internal.Correction.Weighted>
   9.000000E+99

> <Gold.Protein.RotatedTorsions>
[ 6907 6896 6895 6894 ] final -159.30 input  -60.11 | X-H torsion
[ 7974 7965 7964 7962 ] final -106.82 input  175.53 | X-H torsion
[ 8008 7997 7996 7995 ] final  -36.70 input   59.86 | X-H torsion
[ 10167 10162 10161 10158 ] final   38.75 input  -65.29 | X-H torsion
[ 10718 10713 10712 10709 ] final  145.94 input   66.30 | X-H torsion
[ 10763 10752 10751 10750 ] final -103.37 input  -60.55 | X-H torsion
[ 11005 11000 10999 10996 ] final   47.19 input  -57.11 | X-H torsion

> <Gold.Protein.ActiveResidues>
 VAL166  LYS551  ARG553  GLY616  TRP617  ASP618  TYR619  PRO620  LYS621  CYS622 
 ASP623  PHE694  ASN695  SER759  ASP760  ASP761  ALA762  ILE779  LEU786  VAL792 
 PHE793  MET794  SER795  GLU796  ALA797  LYS798  CYS799  TRP800  GLU811  SER814 

> <Gold.Protein.RotatedAtoms>
  151.3315  133.3999  159.2662 H   0  0  0  0  0  0  0  0  0  0  0  0  # atno 6907 bound_to 6896
  150.9952  134.9278  159.7932 H   0  0  0  0  0  0  0  0  0  0  0  0  # atno 6908 bound_to 6896
  152.5259  134.3280  159.9225 H   0  0  0  0  0  0  0  0  0  0  0  0  # atno 6909 bound_to 6896
  145.2130  140.9104  143.3303 H   0  0  0  0  0  0  0  0  0  0  0  0  # atno 7974 bound_to 7965
  154.4068  140.1624  156.2416 H   0  0  0  0  0  0  0  0  0  0  0  0  # atno 8008 bound_to 7997
  155.9196  140.3422  155.6140 H   0  0  0  0  0  0  0  0  0  0  0  0  # atno 8009 bound_to 7997
  155.7238  140.0771  157.2310 H   0  0  0  0  0  0  0  0  0  0  0  0  # atno 8010 bound_to 7997
  140.3907  144.1857  150.6131 H   0  0  0  0  0  0  0  0  0  0  0  0  # atno 10167 bound_to 10162
  157.3392  131.0933  151.1097 H   0  0  0  0  0  0  0  0  0  0  0  0  # atno 10718 bound_to 10713
  154.7802  135.4826  153.9829 H   0  0  0  0  0  0  0  0  0  0  0  0  # atno 10763 bound_to 10752
  153.1484  135.6786  153.8927 H   0  0  0  0  0  0  0  0  0  0  0  0  # atno 10764 bound_to 10752
  153.8579  135.3159  155.3414 H   0  0  0  0  0  0  0  0  0  0  0  0  # atno 10765 bound_to 10752
  140.1301  134.4717  155.8528 H   0  0  0  0  0  0  0  0  0  0  0  0  # atno 11005 bound_to 11000
  144.9837  139.3757  143.6249 LP  0  0  0  0  0  0  0  0  0  0  0  0  # atno 17320 bound_to 7965
  146.3393  139.8989  142.8797 LP  0  0  0  0  0  0  0  0  0  0  0  0  # atno 17321 bound_to 7965
  140.4843  143.2368  151.8910 LP  0  0  0  0  0  0  0  0  0  0  0  0  # atno 17342 bound_to 10162
  139.4789  144.5235  151.8767 LP  0  0  0  0  0  0  0  0  0  0  0  0  # atno 17343 bound_to 10162
  157.2315  130.6527  149.5852 LP  0  0  0  0  0  0  0  0  0  0  0  0  # atno 17370 bound_to 10713
  155.9705  130.4597  150.6046 LP  0  0  0  0  0  0  0  0  0  0  0  0  # atno 17371 bound_to 10713
  141.2168  133.6792  156.7053 LP  0  0  0  0  0  0  0  0  0  0  0  0  # atno 17394 bound_to 11000
  140.2853  134.8284  157.3969 LP  0  0  0  0  0  0  0  0  0  0  0  0  # atno 17395 bound_to 11000

$$$$
