AV-unprocessed.smi:115|AV-procd|sdf|1124|dock6
  -GOLD-   2262018253D 1   1.00000     0.00000
 Structure written by MMmdl.
 55 57  0  0  0  0  0  0  0  0  1 V2000
  147.4539  137.9182  162.8085 C   0  0  0  0  0  0  0  0  0  0  0  0
  146.8674  136.7615  162.2372 O   0  0  0  0  0  0  0  0  0  0  0  0
  147.3486  135.5610  162.8209 C   0  0  0  0  0  0  0  0  0  0  0  0
  146.7279  134.3573  162.0827 C   0  0  1  0  0  0  0  0  0  0  0  0
  145.2252  134.5126  161.7920 C   0  0  0  0  0  0  0  0  0  0  0  0
  147.4808  133.9508  160.8845 N   0  0  0  0  0  0  0  0  0  0  0  0
  147.5678  134.7196  159.7245 C   0  0  0  0  0  0  0  0  0  0  0  0
  146.9099  136.0543  159.5652 C   0  0  0  0  0  0  0  0  0  0  0  0
  148.3241  134.0347  158.8222 C   0  0  0  0  0  0  0  0  0  0  0  0
  148.7468  132.8166  159.4168 C   0  0  0  0  0  0  0  0  0  0  0  0
  149.5588  131.7366  158.7988 C   0  0  0  0  0  0  0  0  0  0  0  0
  149.3708  130.5390  159.0178 O   0  0  0  0  0  0  0  0  0  0  0  0
  150.6661  132.2009  157.8340 C   0  0  0  0  0  0  0  0  0  0  0  0
  150.1568  132.9944  156.7215 N   0  0  0  0  0  0  0  0  0  0  0  0
  150.7783  134.2413  156.4637 C   0  0  0  0  0  0  0  0  0  0  0  0
  151.7282  134.6513  157.1332 O   0  0  0  0  0  0  0  0  0  0  0  0
  150.2017  134.9842  155.3497 C   0  0  0  0  0  0  0  0  0  0  0  0
  150.6706  136.2086  155.0540 F   0  0  0  0  0  0  0  0  0  0  0  0
  149.1900  134.4704  154.6178 C   0  0  0  0  0  0  0  0  0  0  0  0
  148.6483  133.2150  154.8433 N   0  0  0  0  0  0  0  0  0  0  0  0
  147.4552  132.7138  154.0552 C   0  0  2  0  0  0  0  0  0  0  0  0
  147.7600  132.4117  152.5771 C   0  0  0  0  0  0  0  0  0  0  0  0
  147.1064  133.5802  151.8649 C   0  0  0  0  0  0  0  0  0  0  0  0
  145.9421  133.8968  152.7954 C   0  0  0  0  0  0  0  0  0  0  0  0
  146.4757  133.7081  154.0994 O   0  0  0  0  0  0  0  0  0  0  0  0
  149.0937  132.4598  155.9528 C   0  0  0  0  0  0  0  0  0  0  0  0
  148.5819  131.3719  156.2272 O   0  0  0  0  0  0  0  0  0  0  0  0
  148.2521  132.7920  160.7021 C   0  0  0  0  0  0  0  0  0  0  0  0
  148.4373  131.7634  161.7836 C   0  0  0  0  0  0  0  0  0  0  0  0
  147.0562  138.8086  162.3218 H   0  0  0  0  0  0  0  0  0  0  0  0
  148.5368  137.9181  162.6776 H   0  0  0  0  0  0  0  0  0  0  0  0
  147.2295  137.9887  163.8737 H   0  0  0  0  0  0  0  0  0  0  0  0
  148.4364  135.5518  162.7704 H   0  0  0  0  0  0  0  0  0  0  0  0
  147.0647  135.5372  163.8746 H   0  0  0  0  0  0  0  0  0  0  0  0
  146.8065  133.5410  162.7986 H   0  0  0  0  0  0  0  0  0  0  0  0
  144.6705  134.7023  162.7114 H   0  0  0  0  0  0  0  0  0  0  0  0
  144.8201  133.6019  161.3503 H   0  0  0  0  0  0  0  0  0  0  0  0
  145.0101  135.3318  161.1090 H   0  0  0  0  0  0  0  0  0  0  0  0
  147.1920  136.5149  158.6182 H   0  0  0  0  0  0  0  0  0  0  0  0
  147.2055  136.7357  160.3634 H   0  0  0  0  0  0  0  0  0  0  0  0
  145.8238  135.9592  159.5752 H   0  0  0  0  0  0  0  0  0  0  0  0
  148.5461  134.3790  157.8226 H   0  0  0  0  0  0  0  0  0  0  0  0
  151.4196  132.7900  158.3585 H   0  0  0  0  0  0  0  0  0  0  0  0
  151.2056  131.3481  157.4187 H   0  0  0  0  0  0  0  0  0  0  0  0
  148.7962  135.0872  153.8259 H   0  0  0  0  0  0  0  0  0  0  0  0
  147.1118  131.8094  154.5592 H   0  0  0  0  0  0  0  0  0  0  0  0
  148.8223  132.2816  152.3703 H   0  0  0  0  0  0  0  0  0  0  0  0
  147.2508  131.4849  152.3093 H   0  0  0  0  0  0  0  0  0  0  0  0
  147.7856  134.4312  151.8121 H   0  0  0  0  0  0  0  0  0  0  0  0
  146.7869  133.3370  150.8512 H   0  0  0  0  0  0  0  0  0  0  0  0
  145.5567  134.9077  152.6612 H   0  0  0  0  0  0  0  0  0  0  0  0
  145.1225  133.1938  152.6385 H   0  0  0  0  0  0  0  0  0  0  0  0
  149.3965  131.2558  161.6945 H   0  0  0  0  0  0  0  0  0  0  0  0
  147.6523  131.0084  161.7392 H   0  0  0  0  0  0  0  0  0  0  0  0
  148.4386  132.1998  162.7780 H   0  0  0  0  0  0  0  0  0  0  0  0
  1  2  1  0  0  0  0
  1 30  1  0  0  0  0
  1 31  1  0  0  0  0
  1 32  1  0  0  0  0
  2  3  1  0  0  0  0
  3  4  1  0  0  0  0
  3 33  1  0  0  0  0
  3 34  1  0  0  0  0
  4  5  1  0  0  0  0
  4  6  1  0  0  0  0
  4 35  1  0  0  0  0
  5 36  1  0  0  0  0
  5 37  1  0  0  0  0
  5 38  1  0  0  0  0
  6 28  1  0  0  0  0
  6  7  1  0  0  0  0
  7  8  1  0  0  0  0
  7  9  2  0  0  0  0
  8 39  1  0  0  0  0
  8 40  1  0  0  0  0
  8 41  1  0  0  0  0
  9 10  1  0  0  0  0
  9 42  1  0  0  0  0
 10 11  1  0  0  0  0
 10 28  2  0  0  0  0
 11 12  2  0  0  0  0
 11 13  1  0  0  0  0
 13 14  1  0  0  0  0
 13 43  1  0  0  0  0
 13 44  1  0  0  0  0
 14 26  1  0  0  0  0
 14 15  1  0  0  0  0
 15 16  2  0  0  0  0
 15 17  1  0  0  0  0
 17 18  1  0  0  0  0
 17 19  2  0  0  0  0
 19 20  1  0  0  0  0
 19 45  1  0  0  0  0
 20 21  1  0  0  0  0
 20 26  1  0  0  0  0
 21 25  1  0  0  0  0
 21 22  1  0  0  0  0
 21 46  1  0  0  0  0
 22 23  1  0  0  0  0
 22 47  1  0  0  0  0
 22 48  1  0  0  0  0
 23 24  1  0  0  0  0
 23 49  1  0  0  0  0
 23 50  1  0  0  0  0
 24 25  1  0  0  0  0
 24 51  1  0  0  0  0
 24 52  1  0  0  0  0
 26 27  2  0  0  0  0
 28 29  1  0  0  0  0
 29 53  1  0  0  0  0
 29 54  1  0  0  0  0
 29 55  1  0  0  0  0
M  END
> <s_m_source_file>
AV-unprocessed.smi

> <i_m_source_file_index>
115

> <i_lp_mmshare_version>
43012

> <i_f3d_flags>
0

> <s_epik_input>
W0NIM11PW0NIMl1bQ0BIXShbQ0gzXSluMWMoW0NIM10pW2NIXWMoYzFbQ0gzXSlDKD1PKVtDSDJdbjJjKD1PKWMoRilbY0hdbihjMj1PKVtDQEBIXTNbQ0gyXVtDSDJdW0NIMl1PMw==

> <s_epik_cmdline>
J2VwaWtfcHl0aG9uJywgJy1waCcsICc3LjAnLCAnLXRuJywgJzgnLCAnLW1hJywgJzIwMCcsICctbWV0YWxfYmluZGluZycsICctaW1hZScsICc8aW5maWxlLm1hZT4nLCAnLW9tYWUnLCAnPG91dGZpbGUubWFlPic=

> <r_lp_tautomer_probability>
1

> <r_epik_Ionization_Penalty>
5.02611e-09

> <r_epik_Ionization_Penalty_Charging>
5.01743e-09

> <r_epik_Ionization_Penalty_Neutral>
8.68114e-12

> <r_epik_State_Penalty>
-0

> <r_epik_Charging_Adjusted_Penalty>
5.01743e-09

> <i_epik_Tot_Q>
0

> <i_epik_Tot_abs_Q>
0

> <r_epik_Metal_State_Penalty>
-0

> <b_epik_Metal_Only>
0

> <s_epik_Chemistry_Notes>
This compound contains an acetal/aminal-like group ( X-CH(R)-Y where X, Y are N, S, or O) that may be acid/base labile, releasing an aldehyde.

> <s_lp_Force_Field>
OPLS_2005

> <r_lp_Energy>
46.8154

> <b_lp_Chiralities_Consistent>
1

> <s_lp_Variant>
AV-unprocessed.smi:115-2

> <Gold.Version>
5.8.1

> <Gold.Id.Protein>
6NUR|6NUR_protein|mol2

> <Gold.PLP.Fitness>
42.5751

> <Gold.PLP.PLP>
-40.8835

> <Gold.PLP.part.hbond>
-1.0000

> <Gold.PLP.part.metal>
0.0000

> <Gold.PLP.part.buried>
-0.7180

> <Gold.PLP.part.nonpolar>
-38.9036

> <Gold.PLP.part.repulsive>
0.0768

> <Gold.PLP.ligand.clash>
0.0000

> <Gold.PLP.ligand.torsion>
1.0017

> <Gold.PLP.Chemscore.Hbond>
0.0936

> <Gold.PLP.Chemscore.CHOScore>
1.0000

> <Gold.PLP.Chemscore.Metal>
0.0000

> <Gold.Chemscore.Hbonds>
donor molecule, donor type, donor heavy atom, donor atom, acceptor molecule, acceptor atom, score
      L1  C    19    45       P1  7948  1.00

> <Gold.PLP.Chemscore.Internal.Correction>
0.4142

> <Gold.Rescore>
     Score         DG    S(hbond)    S(metal)    S(lipo)     H(rot)  DE(clash)    DE(int)     intcor
      4.54     -10.61       0.10        0.00      89.10       2.19       0.06       6.01       ----

> <Gold.Chemscore.Fitness>
4.5357

> <Gold.Chemscore.DG>
-10.6074

> <Gold.Chemscore.ZeroCoef>
-5.4800

> <Gold.Chemscore.Hbond>
0.0955

> <Gold.Chemscore.Metal>
0.0000

> <Gold.Chemscore.Lipo>
89.0971

> <Gold.Chemscore.Internal_Hbond>
0.0000

> <Gold.Chemscore.DEClash>
0.0576

> <Gold.Chemscore.DEInternal>
6.0142

> <Gold.Chemscore.Rot>
2.1938

> <Gold.Chemscore.Internal.Correction>
   9.000000E+99

> <Gold.Chemscore.Hbond.Weighted>
-0.3190

> <Gold.Chemscore.Metal.Weighted>
-0.0000

> <Gold.Chemscore.Lipo.Weighted>
-10.4244

> <Gold.Chemscore.Internal_Hbond.Weighted>
0.0000

> <Gold.Chemscore.DEClash.Weighted>
0.0576

> <Gold.Chemscore.DEInternal.Weighted>
6.0142

> <Gold.Chemscore.Rot.Weighted>
5.6160

> <Gold.Chemscore.Internal.Correction.Weighted>
   9.000000E+99

> <Gold.Protein.RotatedTorsions>
[ 6907 6896 6895 6894 ] final -155.85 input  -60.11 | X-H torsion
[ 7974 7965 7964 7962 ] final  -93.19 input  175.53 | X-H torsion
[ 8008 7997 7996 7995 ] final  168.21 input   59.86 | X-H torsion
[ 10167 10162 10161 10158 ] final -140.54 input  -65.29 | X-H torsion
[ 10718 10713 10712 10709 ] final  146.38 input   66.30 | X-H torsion
[ 10763 10752 10751 10750 ] final   50.59 input  -60.55 | X-H torsion
[ 11005 11000 10999 10996 ] final   97.98 input  -57.11 | X-H torsion

> <Gold.Protein.ActiveResidues>
 VAL166  LYS551  ARG553  GLY616  TRP617  ASP618  TYR619  PRO620  LYS621  CYS622 
 ASP623  PHE694  ASN695  SER759  ASP760  ASP761  ALA762  ILE779  LEU786  VAL792 
 PHE793  MET794  SER795  GLU796  ALA797  LYS798  CYS799  TRP800  GLU811  SER814 

> <Gold.Protein.RotatedAtoms>
  151.2787  133.4220  159.2625 H   0  0  0  0  0  0  0  0  0  0  0  0  # atno 6907 bound_to 6896
  151.0380  134.9587  159.8157 H   0  0  0  0  0  0  0  0  0  0  0  0  # atno 6908 bound_to 6896
  152.5359  134.2746  159.9037 H   0  0  0  0  0  0  0  0  0  0  0  0  # atno 6909 bound_to 6896
  145.3898  140.9527  143.2346 H   0  0  0  0  0  0  0  0  0  0  0  0  # atno 7974 bound_to 7965
  156.1567  140.1596  156.8681 H   0  0  0  0  0  0  0  0  0  0  0  0  # atno 8008 bound_to 7997
  154.5121  140.0798  156.8047 H   0  0  0  0  0  0  0  0  0  0  0  0  # atno 8009 bound_to 7997
  155.3789  140.3404  155.4248 H   0  0  0  0  0  0  0  0  0  0  0  0  # atno 8010 bound_to 7997
  139.8272  143.7495  152.2666 H   0  0  0  0  0  0  0  0  0  0  0  0  # atno 10167 bound_to 10162
  157.3339  131.0925  151.1139 H   0  0  0  0  0  0  0  0  0  0  0  0  # atno 10718 bound_to 10713
  152.9784  135.5874  154.4278 H   0  0  0  0  0  0  0  0  0  0  0  0  # atno 10763 bound_to 10752
  154.3894  135.2767  155.2165 H   0  0  0  0  0  0  0  0  0  0  0  0  # atno 10764 bound_to 10752
  154.4044  135.6096  153.5970 H   0  0  0  0  0  0  0  0  0  0  0  0  # atno 10765 bound_to 10752
  139.8774  134.9027  156.4388 H   0  0  0  0  0  0  0  0  0  0  0  0  # atno 11005 bound_to 11000
  144.8448  139.5414  143.6884 LP  0  0  0  0  0  0  0  0  0  0  0  0  # atno 17320 bound_to 7965
  146.2803  139.6859  142.9234 LP  0  0  0  0  0  0  0  0  0  0  0  0  # atno 17321 bound_to 7965
  139.7691  144.7482  151.0250 LP  0  0  0  0  0  0  0  0  0  0  0  0  # atno 17342 bound_to 10162
  140.7809  143.4665  151.0206 LP  0  0  0  0  0  0  0  0  0  0  0  0  # atno 17343 bound_to 10162
  157.2377  130.6554  149.5876 LP  0  0  0  0  0  0  0  0  0  0  0  0  # atno 17370 bound_to 10713
  155.9699  130.4578  150.5977 LP  0  0  0  0  0  0  0  0  0  0  0  0  # atno 17371 bound_to 10713
  140.9014  133.7777  155.9685 LP  0  0  0  0  0  0  0  0  0  0  0  0  # atno 17394 bound_to 11000
  140.8647  134.2799  157.5219 LP  0  0  0  0  0  0  0  0  0  0  0  0  # atno 17395 bound_to 11000

$$$$
