AV-unprocessed.smi:79|AV-procd|sdf|781|dock9
  -GOLD-   2262017143D 1   1.00000     0.00000
 Structure written by MMmdl.
 56 59  0  0  0  0  0  0  0  0  2 V2000
  144.0551  132.4055  149.9386 C   0  0  0  0  0  0  0  0  0  0  0  0
  144.6296  133.6006  150.7105 C   0  0  2  0  0  0  0  0  0  0  0  0
  144.3416  134.7715  149.9725 O   0  0  0  0  0  0  0  0  0  0  0  0
  146.1552  133.4754  150.9014 C   0  0  0  0  0  0  0  0  0  0  0  0
  146.5811  133.6385  152.3157 N   0  3  2  0  0  0  0  0  0  0  0  0
  146.1099  134.9182  152.8992 C   0  0  0  0  0  0  0  0  0  0  0  0
  146.4810  135.0131  154.3863 C   0  0  0  0  0  0  0  0  0  0  0  0
  147.9116  134.8016  154.5871 N   0  0  0  0  0  0  0  0  0  0  0  0
  148.2725  135.0358  155.8690 C   0  0  0  0  0  0  0  0  0  0  0  0
  149.1115  136.0640  156.1622 N   0  0  0  0  0  0  0  0  0  0  0  0
  149.4515  136.3026  157.4328 C   0  0  0  0  0  0  0  0  0  0  0  0
  149.0722  135.6515  158.5351 N   0  0  0  0  0  0  0  0  0  0  0  0
  148.2311  134.6191  158.2386 C   0  0  0  0  0  0  0  0  0  0  0  0
  147.7862  134.2441  156.9411 C   0  0  0  0  0  0  0  0  0  0  0  0
  146.9360  133.1497  157.0232 N   0  0  0  0  0  0  0  0  0  0  0  0
  146.8794  132.8911  158.3019 C   0  0  0  0  0  0  0  0  0  0  0  0
  147.6319  133.7205  159.1044 N   0  0  0  0  0  0  0  0  0  0  0  0
  147.7463  133.6657  160.5539 C   0  0  0  0  0  0  0  0  0  0  0  0
  147.0282  134.8176  161.2810 C   0  0  0  0  0  0  0  0  0  0  0  0
  147.6897  136.1484  160.8692 C   0  0  0  0  0  0  0  0  0  0  0  0
  147.1614  137.2557  161.5718 O   0  0  0  0  0  0  0  0  0  0  0  0
  145.4952  134.7687  161.2098 C   0  0  0  0  0  0  0  0  0  0  0  0
  145.3666  134.8604  162.6459 O   0  0  0  0  0  0  0  0  0  0  0  0
  146.7852  134.6244  162.7847 C   0  0  0  0  0  0  0  0  0  0  0  0
  148.4311  133.5570  154.0084 C   0  0  2  0  0  0  0  0  0  0  0  0
  149.9596  133.4178  154.1621 C   0  0  0  0  0  0  0  0  0  0  0  0
  148.0428  133.4611  152.5177 C   0  0  0  0  0  0  0  0  0  0  0  0
  144.2301  131.4729  150.4761 H   0  0  0  0  0  0  0  0  0  0  0  0
  144.5106  132.3108  148.9522 H   0  0  0  0  0  0  0  0  0  0  0  0
  142.9780  132.5065  149.8000 H   0  0  0  0  0  0  0  0  0  0  0  0
  144.1169  133.6632  151.6695 H   0  0  0  0  0  0  0  0  0  0  0  0
  144.9549  134.8444  149.2573 H   0  0  0  0  0  0  0  0  0  0  0  0
  146.5070  132.5101  150.5341 H   0  0  0  0  0  0  0  0  0  0  0  0
  146.6423  134.2295  150.2806 H   0  0  0  0  0  0  0  0  0  0  0  0
  146.5498  135.7522  152.3496 H   0  0  0  0  0  0  0  0  0  0  0  0
  145.0276  135.0006  152.7925 H   0  0  0  0  0  0  0  0  0  0  0  0
  146.1931  135.9910  154.7752 H   0  0  0  0  0  0  0  0  0  0  0  0
  145.9189  134.2674  154.9508 H   0  0  0  0  0  0  0  0  0  0  0  0
  150.1209  137.1357  157.5896 H   0  0  0  0  0  0  0  0  0  0  0  0
  146.2798  132.0835  158.6959 H   0  0  0  0  0  0  0  0  0  0  0  0
  147.3653  132.7023  160.8949 H   0  0  0  0  0  0  0  0  0  0  0  0
  148.8092  133.6635  160.7993 H   0  0  0  0  0  0  0  0  0  0  0  0
  148.7625  136.1304  161.0608 H   0  0  0  0  0  0  0  0  0  0  0  0
  147.5609  136.3324  159.8022 H   0  0  0  0  0  0  0  0  0  0  0  0
  146.5103  136.9428  162.1812 H   0  0  0  0  0  0  0  0  0  0  0  0
  145.0396  135.6127  160.6909 H   0  0  0  0  0  0  0  0  0  0  0  0
  145.0986  133.8258  160.8303 H   0  0  0  0  0  0  0  0  0  0  0  0
  146.9878  133.6151  163.1443 H   0  0  0  0  0  0  0  0  0  0  0  0
  147.2752  135.3663  163.4161 H   0  0  0  0  0  0  0  0  0  0  0  0
  147.9602  132.7236  154.5325 H   0  0  0  0  0  0  0  0  0  0  0  0
  150.3184  132.5076  153.6806 H   0  0  0  0  0  0  0  0  0  0  0  0
  150.2622  133.3624  155.2081 H   0  0  0  0  0  0  0  0  0  0  0  0
  150.4818  134.2605  153.7077 H   0  0  0  0  0  0  0  0  0  0  0  0
  148.3636  132.4959  152.1284 H   0  0  0  0  0  0  0  0  0  0  0  0
  148.5756  134.2234  151.9465 H   0  0  0  0  0  0  0  0  0  0  0  0
  146.1197  132.9089  152.8397 H   0  0  0  0  0  0  0  0  0  0  0  0
  1  2  1  0  0  0  0
  1 28  1  0  0  0  0
  1 29  1  0  0  0  0
  1 30  1  0  0  0  0
  2  3  1  0  0  0  0
  2  4  1  0  0  0  0
  2 31  1  0  0  0  0
  3 32  1  0  0  0  0
  4  5  1  0  0  0  0
  4 33  1  0  0  0  0
  4 34  1  0  0  0  0
  5 27  1  0  0  0  0
  5  6  1  0  0  0  0
  5 56  1  0  0  0  0
  6  7  1  0  0  0  0
  6 35  1  0  0  0  0
  6 36  1  0  0  0  0
  7  8  1  0  0  0  0
  7 37  1  0  0  0  0
  7 38  1  0  0  0  0
  8  9  1  0  0  0  0
  8 25  1  0  0  0  0
  9 14  1  0  0  0  0
  9 10  2  0  0  0  0
 10 11  1  0  0  0  0
 11 12  2  0  0  0  0
 11 39  1  0  0  0  0
 12 13  1  0  0  0  0
 13 17  1  0  0  0  0
 13 14  2  0  0  0  0
 14 15  1  0  0  0  0
 15 16  2  0  0  0  0
 16 17  1  0  0  0  0
 16 40  1  0  0  0  0
 17 18  1  0  0  0  0
 18 19  1  0  0  0  0
 18 41  1  0  0  0  0
 18 42  1  0  0  0  0
 19 24  1  0  0  0  0
 19 20  1  0  0  0  0
 19 22  1  0  0  0  0
 20 21  1  0  0  0  0
 20 43  1  0  0  0  0
 20 44  1  0  0  0  0
 21 45  1  0  0  0  0
 22 23  1  0  0  0  0
 22 46  1  0  0  0  0
 22 47  1  0  0  0  0
 23 24  1  0  0  0  0
 24 48  1  0  0  0  0
 24 49  1  0  0  0  0
 25 26  1  0  0  0  0
 25 27  1  0  0  0  0
 25 50  1  0  0  0  0
 26 51  1  0  0  0  0
 26 52  1  0  0  0  0
 26 53  1  0  0  0  0
 27 54  1  0  0  0  0
 27 55  1  0  0  0  0
M  CHG  1   5   1
M  END
> <s_m_source_file>
AV-unprocessed.smi

> <i_m_source_file_index>
79

> <i_lp_mmshare_version>
43012

> <i_f3d_flags>
0

> <s_epik_input>
W0NIM11bQ0BIXShbT0hdKVtDSDJdTjFbQ0gyXVtDSDJdTihbQ0BASF0oW0NIM10pW0NIMl0xKWMobltjSF1uMiljKGMyMyluW2NIXW4zW0NIMl1DNChbQ0gyXVtPSF0pW0NIMl1PW0NIMl00

> <s_epik_cmdline>
J2VwaWtfcHl0aG9uJywgJy1waCcsICc3LjAnLCAnLXRuJywgJzgnLCAnLW1hJywgJzIwMCcsICctbWV0YWxfYmluZGluZycsICctaW1hZScsICc8aW5maWxlLm1hZT4nLCAnLW9tYWUnLCAnPG91dGZpbGUubWFlPic=

> <r_lp_tautomer_probability>
1

> <r_epik_Ionization_Penalty>
0.00515943

> <r_epik_Ionization_Penalty_Charging>
0.00509693

> <r_epik_Ionization_Penalty_Neutral>
6.25007e-05

> <r_epik_State_Penalty>
-0

> <r_epik_Charging_Adjusted_Penalty>
0.00509693

> <i_epik_Tot_Q>
1

> <i_epik_Tot_abs_Q>
1

> <r_epik_Metal_State_Penalty>
-0

> <b_epik_Metal_Only>
0

> <s_lp_Force_Field>
OPLS_2005

> <r_lp_Energy>
51.6894

> <b_lp_Chiralities_Consistent>
1

> <s_lp_Variant>
AV-unprocessed.smi:79-5

> <Gold.Version>
5.8.1

> <Gold.Id.Protein>
6NUR|6NUR_protein|mol2

> <Gold.PLP.Fitness>
46.3010

> <Gold.PLP.PLP>
-36.3904

> <Gold.PLP.part.hbond>
-4.0000

> <Gold.PLP.part.metal>
0.0000

> <Gold.PLP.part.buried>
-5.6626

> <Gold.PLP.part.nonpolar>
-26.7403

> <Gold.PLP.part.repulsive>
0.1409

> <Gold.PLP.ligand.clash>
0.0000

> <Gold.PLP.ligand.torsion>
1.1092

> <Gold.PLP.Chemscore.Hbond>
3.8240

> <Gold.PLP.Chemscore.CHOScore>
0.0000

> <Gold.PLP.Chemscore.Metal>
0.0000

> <Gold.Chemscore.Hbonds>
donor molecule, donor type, donor heavy atom, donor atom, acceptor molecule, acceptor atom, score
      L1  H     3    32       P1  7921  1.00
      P1  H  6896  6909       L1    12  0.38
      P1  H  6931  6943       L1    21  0.51
      P1  H  6934  6947       L1    21  0.94

> <Gold.PLP.Chemscore.Internal.Correction>
0.6571

> <Gold.Rescore>
     Score         DG    S(hbond)    S(metal)    S(lipo)     H(rot)  DE(clash)    DE(int)     intcor
     13.36     -15.90       3.15        0.00      80.48       3.72       0.04       2.50       ----

> <Gold.Chemscore.Fitness>
13.3578

> <Gold.Chemscore.DG>
-15.8985

> <Gold.Chemscore.ZeroCoef>
-5.4800

> <Gold.Chemscore.Hbond>
3.1535

> <Gold.Chemscore.Metal>
0.0000

> <Gold.Chemscore.Lipo>
80.4767

> <Gold.Chemscore.Internal_Hbond>
0.0000

> <Gold.Chemscore.DEClash>
0.0358

> <Gold.Chemscore.DEInternal>
2.5050

> <Gold.Chemscore.Rot>
3.7226

> <Gold.Chemscore.Internal.Correction>
   9.000000E+99

> <Gold.Chemscore.Hbonds>
donor molecule, donor type, donor heavy atom, donor atom, acceptor molecule, acceptor atom, score
      L1  H     3    32       P1  7921  0.96
      P1  H  6896  6909       L1    12  0.04
      P1  H  6931  6943       L1    21  0.09
      P1  H  6934  6947       L1    21  0.91

> <Gold.Chemscore.Hbond.Weighted>
-10.5325

> <Gold.Chemscore.Metal.Weighted>
-0.0000

> <Gold.Chemscore.Lipo.Weighted>
-9.4158

> <Gold.Chemscore.Internal_Hbond.Weighted>
0.0000

> <Gold.Chemscore.DEClash.Weighted>
0.0358

> <Gold.Chemscore.DEInternal.Weighted>
2.5050

> <Gold.Chemscore.Rot.Weighted>
9.5298

> <Gold.Chemscore.Internal.Correction.Weighted>
   9.000000E+99

> <Gold.Protein.RotatedTorsions>
[ 6907 6896 6895 6894 ] final   33.78 input  -60.11 | X-H torsion
[ 7974 7965 7964 7962 ] final -164.31 input  175.53 | X-H torsion
[ 8008 7997 7996 7995 ] final   -6.81 input   59.86 | X-H torsion
[ 10167 10162 10161 10158 ] final  -94.56 input  -65.29 | X-H torsion
[ 10718 10713 10712 10709 ] final  -94.71 input   66.30 | X-H torsion
[ 10763 10752 10751 10750 ] final -112.14 input  -60.55 | X-H torsion
[ 11005 11000 10999 10996 ] final  -38.99 input  -57.11 | X-H torsion

> <Gold.Protein.ActiveResidues>
 VAL166  LYS551  ARG553  GLY616  TRP617  ASP618  TYR619  PRO620  LYS621  CYS622 
 ASP623  PHE694  ASN695  SER759  ASP760  ASP761  ALA762  ILE779  LEU786  VAL792 
 PHE793  MET794  SER795  GLU796  ALA797  LYS798  CYS799  TRP800  GLU811  SER814 

> <Gold.Protein.RotatedAtoms>
  152.0933  134.9392  160.0571 H   0  0  0  0  0  0  0  0  0  0  0  0  # atno 6907 bound_to 6896
  152.0635  133.4068  159.4436 H   0  0  0  0  0  0  0  0  0  0  0  0  # atno 6908 bound_to 6896
  150.6837  134.3093  159.4783 H   0  0  0  0  0  0  0  0  0  0  0  0  # atno 6909 bound_to 6896
  144.7300  140.2979  143.6209 H   0  0  0  0  0  0  0  0  0  0  0  0  # atno 7974 bound_to 7965
  154.5900  140.2423  155.7933 H   0  0  0  0  0  0  0  0  0  0  0  0  # atno 8008 bound_to 7997
  156.2240  140.2988  155.9977 H   0  0  0  0  0  0  0  0  0  0  0  0  # atno 8009 bound_to 7997
  155.2390  140.0406  157.2963 H   0  0  0  0  0  0  0  0  0  0  0  0  # atno 8010 bound_to 7997
  140.3132  143.3092  152.0126 H   0  0  0  0  0  0  0  0  0  0  0  0  # atno 10167 bound_to 10162
  156.0031  130.5079  150.5967 H   0  0  0  0  0  0  0  0  0  0  0  0  # atno 10718 bound_to 10713
  154.8335  135.4501  154.1148 H   0  0  0  0  0  0  0  0  0  0  0  0  # atno 10763 bound_to 10752
  153.2400  135.6915  153.7800 H   0  0  0  0  0  0  0  0  0  0  0  0  # atno 10764 bound_to 10752
  153.7151  135.3350  155.3230 H   0  0  0  0  0  0  0  0  0  0  0  0  # atno 10765 bound_to 10752
  141.0069  133.6927  156.2127 H   0  0  0  0  0  0  0  0  0  0  0  0  # atno 11005 bound_to 11000
  145.7789  139.1884  143.2169 LP  0  0  0  0  0  0  0  0  0  0  0  0  # atno 17320 bound_to 7965
  146.0850  140.7721  142.9623 LP  0  0  0  0  0  0  0  0  0  0  0  0  # atno 17321 bound_to 7965
  139.4889  144.6368  151.6958 LP  0  0  0  0  0  0  0  0  0  0  0  0  # atno 17342 bound_to 10162
  140.5549  144.0364  150.6143 LP  0  0  0  0  0  0  0  0  0  0  0  0  # atno 17343 bound_to 10162
  157.3823  131.0783  151.1466 LP  0  0  0  0  0  0  0  0  0  0  0  0  # atno 17370 bound_to 10713
  157.2185  130.6470  149.5801 LP  0  0  0  0  0  0  0  0  0  0  0  0  # atno 17371 bound_to 10713
  140.6798  134.4779  157.5589 LP  0  0  0  0  0  0  0  0  0  0  0  0  # atno 17394 bound_to 11000
  139.9068  134.8431  156.1675 LP  0  0  0  0  0  0  0  0  0  0  0  0  # atno 17395 bound_to 11000

$$$$
