AV-unprocessed.smi:1231|AV-procd|sdf|5163|dock4
  -GOLD-   22720 4233D 1   1.00000     0.00000
 Structure written by MMmdl.
 43 44  0  0  0  0  0  0  0  0  2 V2000
  152.2838  138.7850  154.7661 C   0  0  0  0  0  0  0  0  0  0  0  0
  150.8690  138.2907  154.4455 C   0  0  2  0  0  0  0  0  0  0  0  0
  150.0756  139.3137  153.6130 C   0  0  0  0  0  0  0  0  0  0  0  0
  148.6877  138.8432  153.3990 N   0  3  2  0  0  0  0  0  0  0  0  0
  147.9148  139.7464  152.5112 C   0  0  0  0  0  0  0  0  0  0  0  0
  146.6658  139.0630  151.9207 C   0  0  0  0  0  0  0  0  0  0  0  0
  146.8647  137.6277  151.7560 N   0  0  0  0  0  0  0  0  0  0  0  0
  145.8938  136.7488  151.4675 C   0  0  0  0  0  0  0  0  0  0  0  0
  144.7171  137.0730  151.3030 O   0  0  0  0  0  0  0  0  0  0  0  0
  146.3759  135.4961  151.3865 N   0  0  0  0  0  0  0  0  0  0  0  0
  145.6704  134.3035  151.0742 C   0  0  0  0  0  0  0  0  0  0  0  0
  146.4556  133.1284  151.0654 C   0  0  0  0  0  0  0  0  0  0  0  0
  145.8501  131.8930  150.7640 C   0  0  0  0  0  0  0  0  0  0  0  0
  144.4737  131.8649  150.4772 C   0  0  0  0  0  0  0  0  0  0  0  0
  143.7653  133.0801  150.5065 C   0  0  0  0  0  0  0  0  0  0  0  0
  144.3434  134.2652  150.7956 N   0  0  0  0  0  0  0  0  0  0  0  0
  148.0280  138.5846  154.7028 C   0  0  0  0  0  0  0  0  0  0  0  0
  148.8509  137.5989  155.5547 C   0  0  1  0  0  0  0  0  0  0  0  0
  148.7743  136.1453  155.0544 C   0  0  0  0  0  0  0  0  0  0  0  0
  150.1965  138.0592  155.6804 O   0  0  0  0  0  0  0  0  0  0  0  0
  152.8541  138.9638  153.8543 H   0  0  0  0  0  0  0  0  0  0  0  0
  152.8278  138.0497  155.3594 H   0  0  0  0  0  0  0  0  0  0  0  0
  152.2579  139.7162  155.3331 H   0  0  0  0  0  0  0  0  0  0  0  0
  150.9557  137.3554  153.8920 H   0  0  0  0  0  0  0  0  0  0  0  0
  150.0580  140.2827  154.1154 H   0  0  0  0  0  0  0  0  0  0  0  0
  150.5687  139.4610  152.6513 H   0  0  0  0  0  0  0  0  0  0  0  0
  147.6491  140.6525  153.0578 H   0  0  0  0  0  0  0  0  0  0  0  0
  148.5504  140.0621  151.6824 H   0  0  0  0  0  0  0  0  0  0  0  0
  145.8123  139.2132  152.5821 H   0  0  0  0  0  0  0  0  0  0  0  0
  146.3913  139.4932  150.9572 H   0  0  0  0  0  0  0  0  0  0  0  0
  147.8042  137.2786  151.8787 H   0  0  0  0  0  0  0  0  0  0  0  0
  147.3631  135.3818  151.5626 H   0  0  0  0  0  0  0  0  0  0  0  0
  147.5121  133.1683  151.2870 H   0  0  0  0  0  0  0  0  0  0  0  0
  146.4326  130.9835  150.7524 H   0  0  0  0  0  0  0  0  0  0  0  0
  143.9739  130.9371  150.2412 H   0  0  0  0  0  0  0  0  0  0  0  0
  142.7071  133.1023  150.2921 H   0  0  0  0  0  0  0  0  0  0  0  0
  147.9188  139.5283  155.2397 H   0  0  0  0  0  0  0  0  0  0  0  0
  147.0230  138.1888  154.5609 H   0  0  0  0  0  0  0  0  0  0  0  0
  148.4357  137.6056  156.5629 H   0  0  0  0  0  0  0  0  0  0  0  0
  147.7492  135.7766  155.0974 H   0  0  0  0  0  0  0  0  0  0  0  0
  149.3861  135.4886  155.6729 H   0  0  0  0  0  0  0  0  0  0  0  0
  149.1106  136.0430  154.0228 H   0  0  0  0  0  0  0  0  0  0  0  0
  148.7585  137.9572  152.9194 H   0  0  0  0  0  0  0  0  0  0  0  0
  1  2  1  0  0  0  0
  1 21  1  0  0  0  0
  1 22  1  0  0  0  0
  1 23  1  0  0  0  0
  2 20  1  0  0  0  0
  2  3  1  0  0  0  0
  2 24  1  0  0  0  0
  3  4  1  0  0  0  0
  3 25  1  0  0  0  0
  3 26  1  0  0  0  0
  4  5  1  0  0  0  0
  4 17  1  0  0  0  0
  4 43  1  0  0  0  0
  5  6  1  0  0  0  0
  5 27  1  0  0  0  0
  5 28  1  0  0  0  0
  6  7  1  0  0  0  0
  6 29  1  0  0  0  0
  6 30  1  0  0  0  0
  7  8  1  0  0  0  0
  7 31  1  0  0  0  0
  8  9  2  0  0  0  0
  8 10  1  0  0  0  0
 10 11  1  0  0  0  0
 10 32  1  0  0  0  0
 11 16  1  0  0  0  0
 11 12  2  0  0  0  0
 12 13  1  0  0  0  0
 12 33  1  0  0  0  0
 13 14  2  0  0  0  0
 13 34  1  0  0  0  0
 14 15  1  0  0  0  0
 14 35  1  0  0  0  0
 15 16  2  0  0  0  0
 15 36  1  0  0  0  0
 17 18  1  0  0  0  0
 17 37  1  0  0  0  0
 17 38  1  0  0  0  0
 18 19  1  0  0  0  0
 18 20  1  0  0  0  0
 18 39  1  0  0  0  0
 19 40  1  0  0  0  0
 19 41  1  0  0  0  0
 19 42  1  0  0  0  0
M  CHG  1   4   1
M  END
> <s_m_source_file>
AV-unprocessed.smi

> <i_m_source_file_index>
1231

> <i_lp_mmshare_version>
43012

> <i_f3d_flags>
0

> <s_epik_input>
W0NIM11bQ0BASF0xW0NIMl1OKFtDSDJdW0NASF0oTzEpW0NIM10pW0NIMl1bQ0gyXVtOSF1DKD1PKVtOSF1jMltjSF1bY0hdW2NIXVtjSF1uMg==

> <s_epik_cmdline>
J2VwaWtfcHl0aG9uJywgJy1waCcsICc3LjAnLCAnLXRuJywgJzgnLCAnLW1hJywgJzIwMCcsICctbWV0YWxfYmluZGluZycsICctaW1hZScsICc8aW5maWxlLm1hZT4nLCAnLW9tYWUnLCAnPG91dGZpbGUubWFlPic=

> <r_epik_Ionization_Penalty>
0.602565

> <r_epik_Ionization_Penalty_Charging>
0.602531

> <r_epik_Ionization_Penalty_Neutral>
3.43186e-05

> <r_epik_State_Penalty>
0.617039

> <r_epik_Charging_Adjusted_Penalty>
1.21957

> <i_epik_Tot_Q>
1

> <i_epik_Tot_abs_Q>
1

> <r_epik_Metal_State_Penalty>
0.617041

> <b_epik_Metal_Only>
0

> <s_lp_Force_Field>
OPLS_2005

> <r_lp_Energy>
18.1203

> <b_lp_Chiralities_Consistent>
1

> <s_lp_Variant>
AV-unprocessed.smi:1231-4

> <Gold.Version>
5.8.1

> <Gold.Id.Protein>
6NUR|6NUR_protein|mol2

> <Gold.PLP.Fitness>
48.6296

> <Gold.PLP.PLP>
-34.3843

> <Gold.PLP.part.hbond>
-3.0000

> <Gold.PLP.part.metal>
0.0000

> <Gold.PLP.part.buried>
-2.5700

> <Gold.PLP.part.nonpolar>
-29.0350

> <Gold.PLP.part.repulsive>
0.5454

> <Gold.PLP.ligand.clash>
0.0000

> <Gold.PLP.ligand.torsion>
0.3625

> <Gold.PLP.Chemscore.Hbond>
3.9920

> <Gold.PLP.Chemscore.CHOScore>
0.9922

> <Gold.PLP.Chemscore.Metal>
0.0000

> <Gold.Chemscore.Hbonds>
donor molecule, donor type, donor heavy atom, donor atom, acceptor molecule, acceptor atom, score
      L1  H     4    43       P1  7948  2.00
      L1  H     7    31       P1  7948  0.99
      L1  H    10    32       P1  7948  0.93
      L1  C    15    36       P1 10186  1.00

> <Gold.PLP.Chemscore.Internal.Correction>
0.0177

> <Gold.Rescore>
     Score         DG    S(hbond)    S(metal)    S(lipo)     H(rot)  DE(clash)    DE(int)     intcor
     18.94     -20.82       2.81        0.00      84.96       1.55       0.18       1.70       ----

> <Gold.Chemscore.Fitness>
18.9407

> <Gold.Chemscore.DG>
-20.8231

> <Gold.Chemscore.ZeroCoef>
-5.4800

> <Gold.Chemscore.Hbond>
2.8092

> <Gold.Chemscore.Metal>
0.0000

> <Gold.Chemscore.Lipo>
84.9576

> <Gold.Chemscore.Internal_Hbond>
0.0000

> <Gold.Chemscore.DEClash>
0.1835

> <Gold.Chemscore.DEInternal>
1.6989

> <Gold.Chemscore.Rot>
1.5546

> <Gold.Chemscore.Internal.Correction>
   9.000000E+99

> <Gold.Chemscore.Hbonds>
donor molecule, donor type, donor heavy atom, donor atom, acceptor molecule, acceptor atom, score
      L1  H     4    43       P1  7948  0.95
      L1  H     7    31       P1  7948  0.91
      L1  H    10    32       P1  7948  0.86

> <Gold.Chemscore.Hbond.Weighted>
-9.3827

> <Gold.Chemscore.Metal.Weighted>
-0.0000

> <Gold.Chemscore.Lipo.Weighted>
-9.9400

> <Gold.Chemscore.Internal_Hbond.Weighted>
0.0000

> <Gold.Chemscore.DEClash.Weighted>
0.1835

> <Gold.Chemscore.DEInternal.Weighted>
1.6989

> <Gold.Chemscore.Rot.Weighted>
3.9797

> <Gold.Chemscore.Internal.Correction.Weighted>
   9.000000E+99

> <Gold.Protein.RotatedTorsions>
[ 6907 6896 6895 6894 ] final   46.49 input  -60.11 | X-H torsion
[ 7974 7965 7964 7962 ] final  -55.31 input  175.53 | X-H torsion
[ 8008 7997 7996 7995 ] final   67.40 input   59.86 | X-H torsion
[ 10167 10162 10161 10158 ] final -163.69 input  -65.29 | X-H torsion
[ 10718 10713 10712 10709 ] final -115.31 input   66.30 | X-H torsion
[ 10763 10752 10751 10750 ] final  106.86 input  -60.55 | X-H torsion
[ 11005 11000 10999 10996 ] final  -14.01 input  -57.11 | X-H torsion

> <Gold.Protein.ActiveResidues>
 VAL166  LYS551  ARG553  GLY616  TRP617  ASP618  TYR619  PRO620  LYS621  CYS622 
 ASP623  PHE694  ASN695  SER759  ASP760  ASP761  ALA762  ILE779  LEU786  VAL792 
 PHE793  MET794  SER795  GLU796  ALA797  LYS798  CYS799  TRP800  GLU811  SER814 

> <Gold.Protein.RotatedAtoms>
  152.2570  134.8074  160.0436 H   0  0  0  0  0  0  0  0  0  0  0  0  # atno 6907 bound_to 6896
  151.8734  133.3475  159.3750 H   0  0  0  0  0  0  0  0  0  0  0  0  # atno 6908 bound_to 6896
  150.7103  134.5017  159.5609 H   0  0  0  0  0  0  0  0  0  0  0  0  # atno 6909 bound_to 6896
  145.8756  140.8183  142.9866 H   0  0  0  0  0  0  0  0  0  0  0  0  # atno 7974 bound_to 7965
  155.6923  140.3496  155.4899 H   0  0  0  0  0  0  0  0  0  0  0  0  # atno 8008 bound_to 7997
  155.9513  140.1120  157.0997 H   0  0  0  0  0  0  0  0  0  0  0  0  # atno 8009 bound_to 7997
  154.4122  140.1193  156.5042 H   0  0  0  0  0  0  0  0  0  0  0  0  # atno 8010 bound_to 7997
  139.6303  144.0452  152.2010 H   0  0  0  0  0  0  0  0  0  0  0  0  # atno 10167 bound_to 10162
  156.0887  130.6074  150.8889 H   0  0  0  0  0  0  0  0  0  0  0  0  # atno 10718 bound_to 10713
  153.3988  135.3863  155.1973 H   0  0  0  0  0  0  0  0  0  0  0  0  # atno 10763 bound_to 10752
  154.8727  135.3766  154.4645 H   0  0  0  0  0  0  0  0  0  0  0  0  # atno 10764 bound_to 10752
  153.5139  135.7087  153.5828 H   0  0  0  0  0  0  0  0  0  0  0  0  # atno 10765 bound_to 10752
  140.7820  133.8355  155.9301 H   0  0  0  0  0  0  0  0  0  0  0  0  # atno 11005 bound_to 11000
  144.6726  140.1305  143.7444 LP  0  0  0  0  0  0  0  0  0  0  0  0  # atno 17320 bound_to 7965
  145.9085  139.2473  143.1451 LP  0  0  0  0  0  0  0  0  0  0  0  0  # atno 17321 bound_to 7965
  140.0116  144.6219  150.7642 LP  0  0  0  0  0  0  0  0  0  0  0  0  # atno 17342 bound_to 10162
  140.7435  143.2847  151.3497 LP  0  0  0  0  0  0  0  0  0  0  0  0  # atno 17343 bound_to 10162
  157.6030  131.0940  150.8928 LP  0  0  0  0  0  0  0  0  0  0  0  0  # atno 17370 bound_to 10713
  156.9081  130.5271  149.5281 LP  0  0  0  0  0  0  0  0  0  0  0  0  # atno 17371 bound_to 10713
  140.9473  134.1824  157.4754 LP  0  0  0  0  0  0  0  0  0  0  0  0  # atno 17394 bound_to 11000
  139.8741  134.9895  156.5462 LP  0  0  0  0  0  0  0  0  0  0  0  0  # atno 17395 bound_to 11000

$$$$
