AV-unprocessed.smi:107|AV-procd|sdf|1016|dock4
  -GOLD-   2262018 13D 1   1.00000     0.00000
 Structure written by MMmdl.
 31 32  0  0  0  0  0  0  0  0  1 V2000
  151.9454  141.2143  159.3290 C   0  0  0  0  0  0  0  0  0  0  0  0
  152.1951  140.0441  158.3922 C   0  0  0  0  0  0  0  0  0  0  0  0
  151.7142  140.0129  157.1231 C   0  0  0  0  0  0  0  0  0  0  0  0
  151.9219  138.9587  156.2447 N   0  0  0  0  0  0  0  0  0  0  0  0
  151.3547  138.9958  154.8432 C   0  0  1  0  0  0  0  0  0  0  0  0
  150.3610  137.8500  154.6258 C   0  0  0  0  0  0  0  0  0  0  0  0
  149.0246  138.5673  154.6635 C   0  0  2  0  0  0  0  0  0  0  0  0
  148.0696  137.9030  153.8614 O   0  0  0  0  0  0  0  0  0  0  0  0
  149.3800  139.9539  154.1213 C   0  0  1  0  0  0  0  0  0  0  0  0
  148.4048  141.0555  154.5632 C   0  0  0  0  0  0  0  0  0  0  0  0
  148.9046  142.3210  154.1872 O   0  0  0  0  0  0  0  0  0  0  0  0
  150.6696  140.2004  154.6742 O   0  0  0  0  0  0  0  0  0  0  0  0
  152.6652  137.8387  156.6738 C   0  0  0  0  0  0  0  0  0  0  0  0
  152.8757  136.8569  155.9627 O   0  0  0  0  0  0  0  0  0  0  0  0
  153.1632  137.8723  157.9753 N   0  0  0  0  0  0  0  0  0  0  0  0
  152.9830  138.9132  158.8894 C   0  0  0  0  0  0  0  0  0  0  0  0
  153.4734  138.8256  160.0139 O   0  0  0  0  0  0  0  0  0  0  0  0
  153.6979  137.0740  158.2851 H   0  0  0  0  0  0  0  0  0  0  0  0
  151.3618  141.9998  158.8485 H   0  0  0  0  0  0  0  0  0  0  0  0
  152.8900  141.6512  159.6540 H   0  0  0  0  0  0  0  0  0  0  0  0
  151.3982  140.8843  160.2128 H   0  0  0  0  0  0  0  0  0  0  0  0
  151.1366  140.8585  156.7807 H   0  0  0  0  0  0  0  0  0  0  0  0
  152.1902  138.9732  154.1424 H   0  0  0  0  0  0  0  0  0  0  0  0
  150.5506  137.4189  153.6416 H   0  0  0  0  0  0  0  0  0  0  0  0
  150.4603  137.0657  155.3777 H   0  0  0  0  0  0  0  0  0  0  0  0
  148.6633  138.6335  155.6904 H   0  0  0  0  0  0  0  0  0  0  0  0
  148.5251  137.4056  153.1993 H   0  0  0  0  0  0  0  0  0  0  0  0
  149.4638  139.9104  153.0333 H   0  0  0  0  0  0  0  0  0  0  0  0
  147.4417  140.9251  154.0690 H   0  0  0  0  0  0  0  0  0  0  0  0
  148.2253  141.0195  155.6382 H   0  0  0  0  0  0  0  0  0  0  0  0
  148.8392  142.9029  154.9289 H   0  0  0  0  0  0  0  0  0  0  0  0
  1  2  1  0  0  0  0
  1 19  1  0  0  0  0
  1 20  1  0  0  0  0
  1 21  1  0  0  0  0
  2 16  1  0  0  0  0
  2  3  2  0  0  0  0
  3  4  1  0  0  0  0
  3 22  1  0  0  0  0
  4  5  1  0  0  0  0
  4 13  1  0  0  0  0
  5 12  1  0  0  0  0
  5  6  1  0  0  0  0
  5 23  1  0  0  0  0
  6  7  1  0  0  0  0
  6 24  1  0  0  0  0
  6 25  1  0  0  0  0
  7  8  1  0  0  0  0
  7  9  1  0  0  0  0
  7 26  1  0  0  0  0
  8 27  1  0  0  0  0
  9 10  1  0  0  0  0
  9 12  1  0  0  0  0
  9 28  1  0  0  0  0
 10 11  1  0  0  0  0
 10 29  1  0  0  0  0
 10 30  1  0  0  0  0
 11 31  1  0  0  0  0
 13 14  2  0  0  0  0
 13 15  1  0  0  0  0
 15 18  1  0  0  0  0
 15 16  1  0  0  0  0
 16 17  2  0  0  0  0
M  END
> <s_m_source_file>
AV-unprocessed.smi

> <i_m_source_file_index>
107

> <i_lp_mmshare_version>
43012

> <i_f3d_flags>
0

> <s_epik_input>
Tz1jMVtuSF1jKD1PKW4oW2NIXWMxW0NIM10pW0NAQEhdMltDSDJdW0NAQEhdKFtPSF0pW0NASF0oTzIpW0NIMl1bT0hd

> <s_epik_cmdline>
J2VwaWtfcHl0aG9uJywgJy1waCcsICc3LjAnLCAnLXRuJywgJzgnLCAnLW1hJywgJzIwMCcsICctbWV0YWxfYmluZGluZycsICctaW1hZScsICc8aW5maWxlLm1hZT4nLCAnLW9tYWUnLCAnPG91dGZpbGUubWFlPic=

> <r_lp_tautomer_probability>
0.999537

> <r_epik_Ionization_Penalty>
0.00121888

> <r_epik_Ionization_Penalty_Charging>
0.00121876

> <r_epik_Ionization_Penalty_Neutral>
1.19946e-07

> <r_epik_State_Penalty>
0.000805124

> <r_epik_Charging_Adjusted_Penalty>
0.00202389

> <i_epik_Tot_Q>
0

> <i_epik_Tot_abs_Q>
0

> <r_epik_Metal_State_Penalty>
0.662472

> <b_epik_Metal_Only>
0

> <s_epik_Chemistry_Notes>
This compound contains an acetal/aminal-like group ( X-CH(R)-Y where X, Y are N, S, or O) that may be acid/base labile, releasing an aldehyde.

> <s_lp_Force_Field>
OPLS_2005

> <r_lp_Energy>
24.9253

> <b_lp_Chiralities_Consistent>
1

> <s_lp_Variant>
AV-unprocessed.smi:107-4

> <Gold.Version>
5.8.1

> <Gold.Id.Protein>
6NUR|6NUR_protein|mol2

> <Gold.PLP.Fitness>
39.1473

> <Gold.PLP.PLP>
-27.2125

> <Gold.PLP.part.hbond>
-4.9995

> <Gold.PLP.part.metal>
0.0000

> <Gold.PLP.part.buried>
-2.8058

> <Gold.PLP.part.nonpolar>
-19.8184

> <Gold.PLP.part.repulsive>
0.1940

> <Gold.PLP.ligand.clash>
0.0000

> <Gold.PLP.ligand.torsion>
0.0250

> <Gold.PLP.Chemscore.Hbond>
3.9920

> <Gold.PLP.Chemscore.CHOScore>
0.0000

> <Gold.PLP.Chemscore.Metal>
0.0000

> <Gold.Chemscore.Hbonds>
donor molecule, donor type, donor heavy atom, donor atom, acceptor molecule, acceptor atom, score
      L1  H     8    27       P1  7948  1.00
      L1  H    11    31       P1  8028  0.98
      P1  H  7989  7998       L1    12  0.95
      P1  H  8011  8017       L1    11  0.21
      P1  H 10752 10765       L1    14  0.75

> <Gold.PLP.Chemscore.Internal.Correction>
0.0089

> <Gold.Rescore>
     Score         DG    S(hbond)    S(metal)    S(lipo)     H(rot)  DE(clash)    DE(int)     intcor
     14.62     -15.10       3.52        0.00      41.24       2.73       0.38       0.10       ----

> <Gold.Chemscore.Fitness>
14.6173

> <Gold.Chemscore.DG>
-15.0955

> <Gold.Chemscore.ZeroCoef>
-5.4800

> <Gold.Chemscore.Hbond>
3.5233

> <Gold.Chemscore.Metal>
0.0000

> <Gold.Chemscore.Lipo>
41.2354

> <Gold.Chemscore.Internal_Hbond>
0.0000

> <Gold.Chemscore.DEClash>
0.3780

> <Gold.Chemscore.DEInternal>
0.1001

> <Gold.Chemscore.Rot>
2.7253

> <Gold.Chemscore.Internal.Correction>
   9.000000E+99

> <Gold.Chemscore.Hbonds>
donor molecule, donor type, donor heavy atom, donor atom, acceptor molecule, acceptor atom, score
      L1  H     8    27       P1  7948  1.00
      L1  H    11    31       P1  8028  0.93
      P1  H  7989  7998       L1    12  0.14
      P1  H  8011  8017       L1    11  0.19
      P1  H 10752 10765       L1    14  0.74

> <Gold.Chemscore.Hbond.Weighted>
-11.7678

> <Gold.Chemscore.Metal.Weighted>
-0.0000

> <Gold.Chemscore.Lipo.Weighted>
-4.8245

> <Gold.Chemscore.Internal_Hbond.Weighted>
0.0000

> <Gold.Chemscore.DEClash.Weighted>
0.3780

> <Gold.Chemscore.DEInternal.Weighted>
0.1001

> <Gold.Chemscore.Rot.Weighted>
6.9769

> <Gold.Chemscore.Internal.Correction.Weighted>
   9.000000E+99

> <Gold.Protein.RotatedTorsions>
[ 6907 6896 6895 6894 ] final   -6.73 input  -60.11 | X-H torsion
[ 7974 7965 7964 7962 ] final  128.14 input  175.53 | X-H torsion
[ 8008 7997 7996 7995 ] final  135.21 input   59.86 | X-H torsion
[ 10167 10162 10161 10158 ] final   31.68 input  -65.29 | X-H torsion
[ 10718 10713 10712 10709 ] final  -76.18 input   66.30 | X-H torsion
[ 10763 10752 10751 10750 ] final -143.52 input  -60.55 | X-H torsion
[ 11005 11000 10999 10996 ] final   80.48 input  -57.11 | X-H torsion

> <Gold.Protein.ActiveResidues>
 VAL166  LYS551  ARG553  GLY616  TRP617  ASP618  TYR619  PRO620  LYS621  CYS622 
 ASP623  PHE694  ASN695  SER759  ASP760  ASP761  ALA762  ILE779  LEU786  VAL792 
 PHE793  MET794  SER795  GLU796  ALA797  LYS798  CYS799  TRP800  GLU811  SER814 

> <Gold.Protein.RotatedAtoms>
  151.4609  135.1038  159.9724 H   0  0  0  0  0  0  0  0  0  0  0  0  # atno 6907 bound_to 6896
  152.4853  133.8353  159.7135 H   0  0  0  0  0  0  0  0  0  0  0  0  # atno 6908 bound_to 6896
  150.8957  133.7123  159.2919 H   0  0  0  0  0  0  0  0  0  0  0  0  # atno 6909 bound_to 6896
  145.0429  139.3948  143.5093 H   0  0  0  0  0  0  0  0  0  0  0  0  # atno 7974 bound_to 7965
  156.3002  140.2476  156.3543 H   0  0  0  0  0  0  0  0  0  0  0  0  # atno 8008 bound_to 7997
  154.8936  140.0408  157.1872 H   0  0  0  0  0  0  0  0  0  0  0  0  # atno 8009 bound_to 7997
  154.8572  140.2915  155.5565 H   0  0  0  0  0  0  0  0  0  0  0  0  # atno 8010 bound_to 7997
  140.4567  144.0968  150.6203 H   0  0  0  0  0  0  0  0  0  0  0  0  # atno 10167 bound_to 10162
  156.0183  130.4459  150.3155 H   0  0  0  0  0  0  0  0  0  0  0  0  # atno 10718 bound_to 10713
  154.8466  135.3465  154.6201 H   0  0  0  0  0  0  0  0  0  0  0  0  # atno 10763 bound_to 10752
  153.6810  135.6980  153.5122 H   0  0  0  0  0  0  0  0  0  0  0  0  # atno 10764 bound_to 10752
  153.2668  135.4305  155.0905 H   0  0  0  0  0  0  0  0  0  0  0  0  # atno 10765 bound_to 10752
  139.9133  134.7923  156.1915 H   0  0  0  0  0  0  0  0  0  0  0  0  # atno 11005 bound_to 11000
  146.3511  140.0039  142.8673 LP  0  0  0  0  0  0  0  0  0  0  0  0  # atno 17320 bound_to 7965
  145.1625  140.9680  143.4369 LP  0  0  0  0  0  0  0  0  0  0  0  0  # atno 17321 bound_to 7965
  140.4143  143.2642  151.9794 LP  0  0  0  0  0  0  0  0  0  0  0  0  # atno 17342 bound_to 10162
  139.4802  144.5888  151.7808 LP  0  0  0  0  0  0  0  0  0  0  0  0  # atno 17343 bound_to 10162
  157.1256  131.0258  151.2991 LP  0  0  0  0  0  0  0  0  0  0  0  0  # atno 17370 bound_to 10713
  157.4593  130.7643  149.7221 LP  0  0  0  0  0  0  0  0  0  0  0  0  # atno 17371 bound_to 10713
  141.0581  133.6855  156.1899 LP  0  0  0  0  0  0  0  0  0  0  0  0  # atno 17394 bound_to 11000
  140.6705  134.4873  157.5587 LP  0  0  0  0  0  0  0  0  0  0  0  0  # atno 17395 bound_to 11000

$$$$
