AV-unprocessed.smi:891|AV-procd|sdf|4064|dock3
  -GOLD-   22720 1553D 1   1.00000     0.00000
 Structure written by MMmdl.
 38 38  0  0  0  0  0  0  0  0  1 V2000
  151.2196  144.3448  158.2722 C   0  0  0  0  0  0  0  0  0  0  0  0
  151.7526  142.9653  158.5287 C   0  0  0  0  0  0  0  0  0  0  0  0
  151.6830  142.0444  157.5797 N   0  0  0  0  0  0  0  0  0  0  0  0
  152.2460  140.9309  158.1144 N   0  0  0  0  0  0  0  0  0  0  0  0
  152.3319  139.7255  157.3025 C   0  0  0  0  0  0  0  0  0  0  0  0
  151.9000  139.9627  155.8503 C   0  0  0  0  0  0  0  0  0  0  0  0
  152.7176  139.9097  154.9303 O   0  0  0  0  0  0  0  0  0  0  0  0
  150.5965  140.2211  155.6621 N   0  0  0  0  0  0  0  0  0  0  0  0
  149.9554  140.4807  154.3754 C   0  0  0  0  0  0  0  0  0  0  0  0
  148.5343  141.0664  154.5295 C   0  0  1  0  0  0  0  0  0  0  0  0
  148.5961  142.3657  155.3523 C   0  0  0  0  0  0  0  0  0  0  0  0
  147.8395  141.2841  153.1622 C   0  0  0  0  0  0  0  0  0  0  0  0
  147.2123  140.0264  152.5364 C   0  0  0  0  0  0  0  0  0  0  0  0
  148.2155  139.1525  152.0634 O   0  0  0  0  0  0  0  0  0  0  0  0
  152.6745  141.1347  159.4169 C   0  0  0  0  0  0  0  0  0  0  0  0
  153.3314  140.0752  160.2409 C   0  0  0  0  0  0  0  0  0  0  0  0
  152.3638  142.4331  159.6940 C   0  0  0  0  0  0  0  0  0  0  0  0
  152.6595  143.2691  161.1753 Cl  0  0  0  0  0  0  0  0  0  0  0  0
  151.3643  144.9946  159.1352 H   0  0  0  0  0  0  0  0  0  0  0  0
  150.1520  144.3179  158.0537 H   0  0  0  0  0  0  0  0  0  0  0  0
  151.7225  144.8069  157.4226 H   0  0  0  0  0  0  0  0  0  0  0  0
  153.3582  139.3575  157.3344 H   0  0  0  0  0  0  0  0  0  0  0  0
  151.7033  138.9486  157.7404 H   0  0  0  0  0  0  0  0  0  0  0  0
  149.9994  140.2434  156.4763 H   0  0  0  0  0  0  0  0  0  0  0  0
  150.5894  141.1928  153.8461 H   0  0  0  0  0  0  0  0  0  0  0  0
  149.9305  139.5833  153.7548 H   0  0  0  0  0  0  0  0  0  0  0  0
  147.9484  140.3457  155.1015 H   0  0  0  0  0  0  0  0  0  0  0  0
  149.1202  143.1534  154.8105 H   0  0  0  0  0  0  0  0  0  0  0  0
  149.1196  142.2084  156.2957 H   0  0  0  0  0  0  0  0  0  0  0  0
  147.6015  142.7340  155.6022 H   0  0  0  0  0  0  0  0  0  0  0  0
  147.0687  142.0476  153.2730 H   0  0  0  0  0  0  0  0  0  0  0  0
  148.5504  141.6875  152.4427 H   0  0  0  0  0  0  0  0  0  0  0  0
  146.5687  139.5013  153.2413 H   0  0  0  0  0  0  0  0  0  0  0  0
  146.5836  140.3108  151.6924 H   0  0  0  0  0  0  0  0  0  0  0  0
  148.9878  139.6605  151.8669 H   0  0  0  0  0  0  0  0  0  0  0  0
  153.5274  140.4293  161.2529 H   0  0  0  0  0  0  0  0  0  0  0  0
  154.2834  139.7783  159.8014 H   0  0  0  0  0  0  0  0  0  0  0  0
  152.7000  139.1898  160.3143 H   0  0  0  0  0  0  0  0  0  0  0  0
  1  2  1  0  0  0  0
  1 19  1  0  0  0  0
  1 20  1  0  0  0  0
  1 21  1  0  0  0  0
  2 17  1  0  0  0  0
  2  3  2  0  0  0  0
  3  4  1  0  0  0  0
  4  5  1  0  0  0  0
  4 15  1  0  0  0  0
  5  6  1  0  0  0  0
  5 22  1  0  0  0  0
  5 23  1  0  0  0  0
  6  7  2  0  0  0  0
  6  8  1  0  0  0  0
  8  9  1  0  0  0  0
  8 24  1  0  0  0  0
  9 10  1  0  0  0  0
  9 25  1  0  0  0  0
  9 26  1  0  0  0  0
 10 11  1  0  0  0  0
 10 12  1  0  0  0  0
 10 27  1  0  0  0  0
 11 28  1  0  0  0  0
 11 29  1  0  0  0  0
 11 30  1  0  0  0  0
 12 13  1  0  0  0  0
 12 31  1  0  0  0  0
 12 32  1  0  0  0  0
 13 14  1  0  0  0  0
 13 33  1  0  0  0  0
 13 34  1  0  0  0  0
 14 35  1  0  0  0  0
 15 16  1  0  0  0  0
 15 17  2  0  0  0  0
 16 36  1  0  0  0  0
 16 37  1  0  0  0  0
 16 38  1  0  0  0  0
 17 18  1  0  0  0  0
M  END
> <s_m_source_file>
AV-unprocessed.smi

> <i_m_source_file_index>
891

> <i_lp_mmshare_version>
43012

> <i_f3d_flags>
0

> <s_epik_input>
W0NIM11jMW5uKGMoW0NIM10pYzFDbClbQ0gyXUMoPU8pW05IXVtDSDJdW0NASF0oW0NIM10pW0NIMl1bQ0gyXVtPSF0=

> <s_epik_cmdline>
J2VwaWtfcHl0aG9uJywgJy1waCcsICc3LjAnLCAnLXRuJywgJzgnLCAnLW1hJywgJzIwMCcsICctbWV0YWxfYmluZGluZycsICctaW1hZScsICc8aW5maWxlLm1hZT4nLCAnLW9tYWUnLCAnPG91dGZpbGUubWFlPic=

> <r_lp_tautomer_probability>
1

> <r_epik_Ionization_Penalty>
4.9564e-06

> <r_epik_Ionization_Penalty_Charging>
0

> <r_epik_Ionization_Penalty_Neutral>
4.9564e-06

> <r_epik_State_Penalty>
-0

> <r_epik_Charging_Adjusted_Penalty>
0

> <i_epik_Tot_Q>
0

> <i_epik_Tot_abs_Q>
0

> <r_epik_Metal_State_Penalty>
-0

> <b_epik_Metal_Only>
0

> <s_lp_Force_Field>
OPLS_2005

> <r_lp_Energy>
8.21906

> <b_lp_Chiralities_Consistent>
1

> <s_lp_Variant>
AV-unprocessed.smi:891-2

> <Gold.Version>
5.8.1

> <Gold.Id.Protein>
6NUR|6NUR_protein|mol2

> <Gold.PLP.Fitness>
41.9801

> <Gold.PLP.PLP>
-35.4025

> <Gold.PLP.part.hbond>
-3.6886

> <Gold.PLP.part.metal>
0.0000

> <Gold.PLP.part.buried>
1.4972

> <Gold.PLP.part.nonpolar>
-31.8783

> <Gold.PLP.part.repulsive>
0.1264

> <Gold.PLP.ligand.clash>
0.0000

> <Gold.PLP.ligand.torsion>
0.4630

> <Gold.PLP.Chemscore.Hbond>
2.4846

> <Gold.PLP.Chemscore.CHOScore>
0.0000

> <Gold.PLP.Chemscore.Metal>
0.0000

> <Gold.Chemscore.Hbonds>
donor molecule, donor type, donor heavy atom, donor atom, acceptor molecule, acceptor atom, score
      P1  H  7989  7998       L1     7  0.48
      P1  H  7997  8010       L1     7  1.00

> <Gold.PLP.Chemscore.Internal.Correction>
0.0498

> <Gold.Rescore>
     Score         DG    S(hbond)    S(metal)    S(lipo)     H(rot)  DE(clash)    DE(int)     intcor
     14.31     -16.71       1.78        0.00     102.55       2.62       1.92       0.48       ----

> <Gold.Chemscore.Fitness>
14.3088

> <Gold.Chemscore.DG>
-16.7114

> <Gold.Chemscore.ZeroCoef>
-5.4800

> <Gold.Chemscore.Hbond>
1.7820

> <Gold.Chemscore.Metal>
0.0000

> <Gold.Chemscore.Lipo>
102.5519

> <Gold.Chemscore.Internal_Hbond>
0.0000

> <Gold.Chemscore.DEClash>
1.9221

> <Gold.Chemscore.DEInternal>
0.4805

> <Gold.Chemscore.Rot>
2.6247

> <Gold.Chemscore.Internal.Correction>
   9.000000E+99

> <Gold.Chemscore.Hbonds>
donor molecule, donor type, donor heavy atom, donor atom, acceptor molecule, acceptor atom, score
      P1  H  7989  7998       L1     7  0.12
      P1  H  7997  8010       L1     7  0.24

> <Gold.Chemscore.Hbond.Weighted>
-5.9520

> <Gold.Chemscore.Metal.Weighted>
-0.0000

> <Gold.Chemscore.Lipo.Weighted>
-11.9986

> <Gold.Chemscore.Internal_Hbond.Weighted>
0.0000

> <Gold.Chemscore.DEClash.Weighted>
1.9221

> <Gold.Chemscore.DEInternal.Weighted>
0.4805

> <Gold.Chemscore.Rot.Weighted>
6.7192

> <Gold.Chemscore.Internal.Correction.Weighted>
   9.000000E+99

> <Gold.Protein.RotatedTorsions>
[ 6907 6896 6895 6894 ] final  137.95 input  -60.11 | X-H torsion
[ 7974 7965 7964 7962 ] final -104.08 input  175.53 | X-H torsion
[ 8008 7997 7996 7995 ] final   98.53 input   59.86 | X-H torsion
[ 10167 10162 10161 10158 ] final   77.99 input  -65.29 | X-H torsion
[ 10718 10713 10712 10709 ] final   74.95 input   66.30 | X-H torsion
[ 10763 10752 10751 10750 ] final  178.25 input  -60.55 | X-H torsion
[ 11005 11000 10999 10996 ] final   27.59 input  -57.11 | X-H torsion

> <Gold.Protein.ActiveResidues>
 VAL166  LYS551  ARG553  GLY616  TRP617  ASP618  TYR619  PRO620  LYS621  CYS622 
 ASP623  PHE694  ASN695  SER759  ASP760  ASP761  ALA762  ILE779  LEU786  VAL792 
 PHE793  MET794  SER795  GLU796  ALA797  LYS798  CYS799  TRP800  GLU811  SER814 

> <Gold.Protein.RotatedAtoms>
  152.2722  133.5393  159.5446 H   0  0  0  0  0  0  0  0  0  0  0  0  # atno 6907 bound_to 6896
  150.7164  134.0681  159.3864 H   0  0  0  0  0  0  0  0  0  0  0  0  # atno 6908 bound_to 6896
  151.8595  135.0529  160.0518 H   0  0  0  0  0  0  0  0  0  0  0  0  # atno 6909 bound_to 6896
  145.2477  140.9227  143.3113 H   0  0  0  0  0  0  0  0  0  0  0  0  # atno 7974 bound_to 7965
  156.1014  140.3242  155.7946 H   0  0  0  0  0  0  0  0  0  0  0  0  # atno 8008 bound_to 7997
  155.4831  140.0555  157.2981 H   0  0  0  0  0  0  0  0  0  0  0  0  # atno 8009 bound_to 7997
  154.4699  140.2006  156.0037 H   0  0  0  0  0  0  0  0  0  0  0  0  # atno 8010 bound_to 7997
  139.9757  144.5863  150.7945 H   0  0  0  0  0  0  0  0  0  0  0  0  # atno 10167 bound_to 10162
  157.6614  130.9703  150.1284 H   0  0  0  0  0  0  0  0  0  0  0  0  # atno 10718 bound_to 10713
  154.5052  135.2785  155.1388 H   0  0  0  0  0  0  0  0  0  0  0  0  # atno 10763 bound_to 10752
  154.3005  135.6249  153.5426 H   0  0  0  0  0  0  0  0  0  0  0  0  # atno 10764 bound_to 10752
  152.9909  135.5696  154.5504 H   0  0  0  0  0  0  0  0  0  0  0  0  # atno 10765 bound_to 10752
  140.3247  134.2504  155.7711 H   0  0  0  0  0  0  0  0  0  0  0  0  # atno 11005 bound_to 11000
  144.9531  139.4061  143.6392 LP  0  0  0  0  0  0  0  0  0  0  0  0  # atno 17320 bound_to 7965
  146.3311  139.8548  142.8866 LP  0  0  0  0  0  0  0  0  0  0  0  0  # atno 17321 bound_to 7965
  140.7507  143.2959  151.3206 LP  0  0  0  0  0  0  0  0  0  0  0  0  # atno 17342 bound_to 10162
  139.6448  144.0472  152.2582 LP  0  0  0  0  0  0  0  0  0  0  0  0  # atno 17343 bound_to 10162
  156.2137  130.3668  149.8639 LP  0  0  0  0  0  0  0  0  0  0  0  0  # atno 17370 bound_to 10713
  156.6510  130.8743  151.3531 LP  0  0  0  0  0  0  0  0  0  0  0  0  # atno 17371 bound_to 10713
  141.2078  133.7795  157.0097 LP  0  0  0  0  0  0  0  0  0  0  0  0  # atno 17394 bound_to 11000
  140.0912  134.9591  157.1778 LP  0  0  0  0  0  0  0  0  0  0  0  0  # atno 17395 bound_to 11000

$$$$
