AV-unprocessed.smi:1870|AV-procd|sdf|7595|dock10
  -GOLD-   22720 9313D 1   1.00000     0.00000
 Structure written by MMmdl.
 48 50  0  0  0  0  0  0  0  0  2 V2000
  148.0176  131.5713  159.7984 C   0  0  0  0  0  0  0  0  0  0  0  0
  148.0961  133.0558  159.5628 C   0  0  0  0  0  0  0  0  0  0  0  0
  148.4263  133.4378  158.3728 N   0  0  0  0  0  0  0  0  0  0  0  0
  148.5245  134.7771  158.0485 N   0  0  0  0  0  0  0  0  0  0  0  0
  148.9219  135.0266  156.6575 C   0  0  0  0  0  0  0  0  0  0  0  0
  149.0008  133.7213  155.8364 C   0  0  2  0  0  0  0  0  0  0  0  0
  150.0241  132.9068  156.3756 O   0  0  0  0  0  0  0  0  0  0  0  0
  149.3630  134.0014  154.3630 C   0  0  0  0  0  0  0  0  0  0  0  0
  148.1709  134.0948  153.4799 N   0  3  2  0  0  0  0  0  0  0  0  0
  147.0566  134.8417  154.1100 C   0  0  0  0  0  0  0  0  0  0  0  0
  145.9968  135.1974  153.0597 C   0  0  0  0  0  0  0  0  0  0  0  0
  145.5828  133.9967  152.2291 C   0  0  0  0  0  0  0  0  0  0  0  0
  144.3811  134.0346  151.4922 C   0  0  0  0  0  0  0  0  0  0  0  0
  144.0092  132.9399  150.6888 C   0  0  0  0  0  0  0  0  0  0  0  0
  144.8396  131.8056  150.6171 C   0  0  0  0  0  0  0  0  0  0  0  0
  146.0407  131.7642  151.3511 C   0  0  0  0  0  0  0  0  0  0  0  0
  146.4186  132.8563  152.1601 C   0  0  0  0  0  0  0  0  0  0  0  0
  147.7108  132.7767  152.9649 C   0  0  0  0  0  0  0  0  0  0  0  0
  148.2957  135.8049  158.9148 C   0  0  0  0  0  0  0  0  0  0  0  0
  148.4009  136.9868  158.5840 O   0  0  0  0  0  0  0  0  0  0  0  0
  147.9204  135.3651  160.2606 C   0  0  0  0  0  0  0  0  0  0  0  0
  147.6634  136.4102  161.1985 C   0  0  0  0  0  0  0  0  0  0  0  0
  147.4387  137.2636  161.9478 N   0  0  0  0  0  0  0  0  0  0  0  0
  147.8229  134.0534  160.5923 C   0  0  0  0  0  0  0  0  0  0  0  0
  147.4380  133.5462  161.9754 C   0  0  0  0  0  0  0  0  0  0  0  0
  147.0407  131.2917  160.1928 H   0  0  0  0  0  0  0  0  0  0  0  0
  148.7759  131.2535  160.5144 H   0  0  0  0  0  0  0  0  0  0  0  0
  148.1735  131.0043  158.8793 H   0  0  0  0  0  0  0  0  0  0  0  0
  148.1693  135.6822  156.2151 H   0  0  0  0  0  0  0  0  0  0  0  0
  149.8530  135.5926  156.5885 H   0  0  0  0  0  0  0  0  0  0  0  0
  148.0496  133.1937  155.8993 H   0  0  0  0  0  0  0  0  0  0  0  0
  149.8168  132.0010  156.2013 H   0  0  0  0  0  0  0  0  0  0  0  0
  149.9377  134.9253  154.2798 H   0  0  0  0  0  0  0  0  0  0  0  0
  150.0203  133.2039  154.0126 H   0  0  0  0  0  0  0  0  0  0  0  0
  146.6201  134.2363  154.9063 H   0  0  0  0  0  0  0  0  0  0  0  0
  147.4187  135.7611  154.5715 H   0  0  0  0  0  0  0  0  0  0  0  0
  145.1206  135.6275  153.5466 H   0  0  0  0  0  0  0  0  0  0  0  0
  146.3867  135.9582  152.3825 H   0  0  0  0  0  0  0  0  0  0  0  0
  143.7439  134.9060  151.5358 H   0  0  0  0  0  0  0  0  0  0  0  0
  143.0889  132.9719  150.1245 H   0  0  0  0  0  0  0  0  0  0  0  0
  144.5548  130.9664  149.9995 H   0  0  0  0  0  0  0  0  0  0  0  0
  146.6695  130.8876  151.2944 H   0  0  0  0  0  0  0  0  0  0  0  0
  148.4796  132.3345  152.3323 H   0  0  0  0  0  0  0  0  0  0  0  0
  147.5470  132.0926  153.7989 H   0  0  0  0  0  0  0  0  0  0  0  0
  147.3734  134.3521  162.7058 H   0  0  0  0  0  0  0  0  0  0  0  0
  148.1745  132.8328  162.3463 H   0  0  0  0  0  0  0  0  0  0  0  0
  146.4668  133.0517  161.9414 H   0  0  0  0  0  0  0  0  0  0  0  0
  148.4542  134.6425  152.6794 H   0  0  0  0  0  0  0  0  0  0  0  0
  1  2  1  0  0  0  0
  1 26  1  0  0  0  0
  1 27  1  0  0  0  0
  1 28  1  0  0  0  0
  2 24  1  0  0  0  0
  2  3  2  0  0  0  0
  3  4  1  0  0  0  0
  4  5  1  0  0  0  0
  4 19  1  0  0  0  0
  5  6  1  0  0  0  0
  5 29  1  0  0  0  0
  5 30  1  0  0  0  0
  6  7  1  0  0  0  0
  6  8  1  0  0  0  0
  6 31  1  0  0  0  0
  7 32  1  0  0  0  0
  8  9  1  0  0  0  0
  8 33  1  0  0  0  0
  8 34  1  0  0  0  0
  9 18  1  0  0  0  0
  9 10  1  0  0  0  0
  9 48  1  0  0  0  0
 10 11  1  0  0  0  0
 10 35  1  0  0  0  0
 10 36  1  0  0  0  0
 11 12  1  0  0  0  0
 11 37  1  0  0  0  0
 11 38  1  0  0  0  0
 12 17  2  0  0  0  0
 12 13  1  0  0  0  0
 13 14  2  0  0  0  0
 13 39  1  0  0  0  0
 14 15  1  0  0  0  0
 14 40  1  0  0  0  0
 15 16  2  0  0  0  0
 15 41  1  0  0  0  0
 16 17  1  0  0  0  0
 16 42  1  0  0  0  0
 17 18  1  0  0  0  0
 18 43  1  0  0  0  0
 18 44  1  0  0  0  0
 19 20  2  0  0  0  0
 19 21  1  0  0  0  0
 21 22  1  0  0  0  0
 21 24  2  0  0  0  0
 22 23  3  0  0  0  0
 24 25  1  0  0  0  0
 25 45  1  0  0  0  0
 25 46  1  0  0  0  0
 25 47  1  0  0  0  0
M  CHG  1   9   1
M  END
> <s_m_source_file>
AV-unprocessed.smi

> <i_m_source_file_index>
1870

> <i_lp_mmshare_version>
43012

> <i_f3d_flags>
0

> <s_epik_input>
TiNDYyhjMVtDSDNdKWMoPU8pbihuYzFbQ0gzXSlbQ0gyXVtDQEhdKFtPSF0pW0NIMl1OKFtDSDJdW0NIMl0yKVtDSDJdYyhjMjMpW2NIXVtjSF1bY0hdW2NIXTM=

> <s_epik_cmdline>
J2VwaWtfcHl0aG9uJywgJy1waCcsICc3LjAnLCAnLXRuJywgJzgnLCAnLW1hJywgJzIwMCcsICctbWV0YWxfYmluZGluZycsICctaW1hZScsICc8aW5maWxlLm1hZT4nLCAnLW9tYWUnLCAnPG91dGZpbGUubWFlPic=

> <r_epik_Ionization_Penalty>
0.0122865

> <r_epik_Ionization_Penalty_Charging>
0.0122864

> <r_epik_Ionization_Penalty_Neutral>
1.48087e-07

> <r_epik_State_Penalty>
0.00950248

> <r_epik_Charging_Adjusted_Penalty>
0.0217889

> <i_epik_Tot_Q>
1

> <i_epik_Tot_abs_Q>
1

> <r_epik_Metal_State_Penalty>
0.00950248

> <b_epik_Metal_Only>
0

> <s_lp_Force_Field>
OPLS_2005

> <r_lp_Energy>
38.404

> <b_lp_Chiralities_Consistent>
1

> <s_lp_Variant>
AV-unprocessed.smi:1870-3

> <Gold.Version>
5.8.1

> <Gold.Id.Protein>
6NUR|6NUR_protein|mol2

> <Gold.PLP.Fitness>
47.4914

> <Gold.PLP.PLP>
-38.1646

> <Gold.PLP.part.hbond>
-3.0000

> <Gold.PLP.part.metal>
0.0000

> <Gold.PLP.part.buried>
-4.5257

> <Gold.PLP.part.nonpolar>
-30.4455

> <Gold.PLP.part.repulsive>
0.0000

> <Gold.PLP.ligand.clash>
0.0000

> <Gold.PLP.ligand.torsion>
0.7375

> <Gold.PLP.Chemscore.Hbond>
3.5937

> <Gold.PLP.Chemscore.CHOScore>
0.0000

> <Gold.PLP.Chemscore.Metal>
0.0000

> <Gold.Chemscore.Hbonds>
donor molecule, donor type, donor heavy atom, donor atom, acceptor molecule, acceptor atom, score
      L1  H     9    48       P1  7948  1.90
      P1  H  6931  6943       L1    23  0.88
      P1  H  6934  6947       L1    23  0.70

> <Gold.PLP.Chemscore.Internal.Correction>
0.0208

> <Gold.Rescore>
     Score         DG    S(hbond)    S(metal)    S(lipo)     H(rot)  DE(clash)    DE(int)     intcor
     15.31     -16.15       1.68        0.00      90.43       2.16       0.02       0.82       ----

> <Gold.Chemscore.Fitness>
15.3114

> <Gold.Chemscore.DG>
-16.1462

> <Gold.Chemscore.ZeroCoef>
-5.4800

> <Gold.Chemscore.Hbond>
1.6834

> <Gold.Chemscore.Metal>
0.0000

> <Gold.Chemscore.Lipo>
90.4302

> <Gold.Chemscore.Internal_Hbond>
0.0000

> <Gold.Chemscore.DEClash>
0.0189

> <Gold.Chemscore.DEInternal>
0.8159

> <Gold.Chemscore.Rot>
2.1628

> <Gold.Chemscore.Internal.Correction>
   9.000000E+99

> <Gold.Chemscore.Hbonds>
donor molecule, donor type, donor heavy atom, donor atom, acceptor molecule, acceptor atom, score
      L1  H     9    48       P1  7948  0.21
      P1  H  6931  6943       L1    23  0.34
      P1  H  6934  6947       L1    23  0.51

> <Gold.Chemscore.Hbond.Weighted>
-5.6226

> <Gold.Chemscore.Metal.Weighted>
-0.0000

> <Gold.Chemscore.Lipo.Weighted>
-10.5803

> <Gold.Chemscore.Internal_Hbond.Weighted>
0.0000

> <Gold.Chemscore.DEClash.Weighted>
0.0189

> <Gold.Chemscore.DEInternal.Weighted>
0.8159

> <Gold.Chemscore.Rot.Weighted>
5.5367

> <Gold.Chemscore.Internal.Correction.Weighted>
   9.000000E+99

> <Gold.Protein.RotatedTorsions>
[ 6907 6896 6895 6894 ] final  -27.08 input  -60.11 | X-H torsion
[ 7974 7965 7964 7962 ] final  112.92 input  175.53 | X-H torsion
[ 8008 7997 7996 7995 ] final   77.98 input   59.86 | X-H torsion
[ 10167 10162 10161 10158 ] final   -5.56 input  -65.29 | X-H torsion
[ 10718 10713 10712 10709 ] final -156.91 input   66.30 | X-H torsion
[ 10763 10752 10751 10750 ] final  -56.90 input  -60.55 | X-H torsion
[ 11005 11000 10999 10996 ] final -170.62 input  -57.11 | X-H torsion

> <Gold.Protein.ActiveResidues>
 VAL166  LYS551  ARG553  GLY616  TRP617  ASP618  TYR619  PRO620  LYS621  CYS622 
 ASP623  PHE694  ASN695  SER759  ASP760  ASP761  ALA762  ILE779  LEU786  VAL792 
 PHE793  MET794  SER795  GLU796  ALA797  LYS798  CYS799  TRP800  GLU811  SER814 

> <Gold.Protein.RotatedAtoms>
  151.1519  135.0231  159.8671 H   0  0  0  0  0  0  0  0  0  0  0  0  # atno 6907 bound_to 6896
  152.5452  134.1379  159.8476 H   0  0  0  0  0  0  0  0  0  0  0  0  # atno 6908 bound_to 6896
  151.1465  133.4890  159.2628 H   0  0  0  0  0  0  0  0  0  0  0  0  # atno 6909 bound_to 6896
  145.2234  139.2851  143.4206 H   0  0  0  0  0  0  0  0  0  0  0  0  # atno 7974 bound_to 7965
  155.8492  140.3459  155.5682 H   0  0  0  0  0  0  0  0  0  0  0  0  # atno 8008 bound_to 7997
  155.8056  140.0891  157.1952 H   0  0  0  0  0  0  0  0  0  0  0  0  # atno 8009 bound_to 7997
  154.4007  140.1457  156.3313 H   0  0  0  0  0  0  0  0  0  0  0  0  # atno 8010 bound_to 7997
  140.6967  143.6294  150.8537 H   0  0  0  0  0  0  0  0  0  0  0  0  # atno 10167 bound_to 10162
  156.5330  130.8529  151.2723 H   0  0  0  0  0  0  0  0  0  0  0  0  # atno 10718 bound_to 10713
  154.2140  135.6389  153.5124 H   0  0  0  0  0  0  0  0  0  0  0  0  # atno 10763 bound_to 10752
  152.9983  135.5480  154.6185 H   0  0  0  0  0  0  0  0  0  0  0  0  # atno 10764 bound_to 10752
  154.5629  135.2910  155.0876 H   0  0  0  0  0  0  0  0  0  0  0  0  # atno 10765 bound_to 10752
  140.5174  134.5743  157.5037 H   0  0  0  0  0  0  0  0  0  0  0  0  # atno 11005 bound_to 11000
  146.3370  140.2547  142.8600 LP  0  0  0  0  0  0  0  0  0  0  0  0  # atno 17320 bound_to 7965
  144.9744  140.8399  143.5436 LP  0  0  0  0  0  0  0  0  0  0  0  0  # atno 17321 bound_to 7965
  140.0012  143.5742  152.2874 LP  0  0  0  0  0  0  0  0  0  0  0  0  # atno 17342 bound_to 10162
  139.6432  144.7656  151.2297 LP  0  0  0  0  0  0  0  0  0  0  0  0  # atno 17343 bound_to 10162
  157.7418  130.9878  150.2473 LP  0  0  0  0  0  0  0  0  0  0  0  0  # atno 17370 bound_to 10713
  156.3042  130.3762  149.7722 LP  0  0  0  0  0  0  0  0  0  0  0  0  # atno 17371 bound_to 10713
  139.9625  134.7429  156.0207 LP  0  0  0  0  0  0  0  0  0  0  0  0  # atno 17394 bound_to 11000
  141.1353  133.6576  156.3576 LP  0  0  0  0  0  0  0  0  0  0  0  0  # atno 17395 bound_to 11000

$$$$
