AV-unprocessed.smi:454|AV-procd|sdf|2613|dock2
  -GOLD-   2262023 13D 1   1.00000     0.00000
 Structure written by MMmdl.
 44 45  0  0  0  0  0  0  0  0  2 V2000
  151.8668  145.4977  159.6416 C   0  0  0  0  0  0  0  0  0  0  0  0
  151.8566  144.0927  159.4637 O   0  0  0  0  0  0  0  0  0  0  0  0
  153.1229  143.5011  159.7040 C   0  0  0  0  0  0  0  0  0  0  0  0
  153.0163  141.9713  159.6070 C   0  0  0  0  0  0  0  0  0  0  0  0
  152.0857  141.5411  158.5691 N   0  0  0  0  0  0  0  0  0  0  0  0
  151.9389  140.1833  158.2502 C   0  0  0  0  0  0  0  0  0  0  0  0
  150.6673  139.5887  158.4052 C   0  0  0  0  0  0  0  0  0  0  0  0
  150.5042  138.2305  158.0692 C   0  0  0  0  0  0  0  0  0  0  0  0
  151.6247  137.5228  157.5945 C   0  0  0  0  0  0  0  0  0  0  0  0
  151.4871  135.8149  157.0929 S   0  0  0  0  0  0  0  0  0  0  0  0
  152.8341  135.2272  157.1535 O   0  0  0  0  0  0  0  0  0  0  0  0
  150.3699  135.1811  157.8099 O   0  0  0  0  0  0  0  0  0  0  0  0
  151.0431  135.9570  155.4193 N   0  0  0  0  0  0  0  0  0  0  0  0
  149.9491  135.1092  154.9154 C   0  0  0  0  0  0  0  0  0  0  0  0
  148.5917  135.7884  155.1677 C   0  0  0  0  0  0  0  0  0  0  0  0
  148.5533  137.1220  154.5215 N   0  3  0  0  0  0  0  0  0  0  0  0
  147.2291  137.7701  154.6329 C   0  0  0  0  0  0  0  0  0  0  0  0
  149.6513  137.9802  155.0268 C   0  0  0  0  0  0  0  0  0  0  0  0
  151.0207  137.3030  154.8163 C   0  0  0  0  0  0  0  0  0  0  0  0
  152.8591  138.1906  157.4841 C   0  0  0  0  0  0  0  0  0  0  0  0
  153.0166  139.4913  157.8069 N   0  0  0  0  0  0  0  0  0  0  0  0
  150.8728  145.8982  159.4437 H   0  0  0  0  0  0  0  0  0  0  0  0
  152.5660  145.9772  158.9552 H   0  0  0  0  0  0  0  0  0  0  0  0
  152.1396  145.7636  160.6638 H   0  0  0  0  0  0  0  0  0  0  0  0
  153.8269  143.8584  158.9511 H   0  0  0  0  0  0  0  0  0  0  0  0
  153.5138  143.7982  160.6788 H   0  0  0  0  0  0  0  0  0  0  0  0
  153.9994  141.5176  159.4777 H   0  0  0  0  0  0  0  0  0  0  0  0
  152.6312  141.5870  160.5516 H   0  0  0  0  0  0  0  0  0  0  0  0
  151.8055  142.2251  157.8814 H   0  0  0  0  0  0  0  0  0  0  0  0
  149.8266  140.1636  158.7658 H   0  0  0  0  0  0  0  0  0  0  0  0
  149.5400  137.7545  158.1664 H   0  0  0  0  0  0  0  0  0  0  0  0
  150.0919  134.9454  153.8463 H   0  0  0  0  0  0  0  0  0  0  0  0
  149.9834  134.1259  155.3841 H   0  0  0  0  0  0  0  0  0  0  0  0
  147.7932  135.1652  154.7636 H   0  0  0  0  0  0  0  0  0  0  0  0
  148.4074  135.8869  156.2389 H   0  0  0  0  0  0  0  0  0  0  0  0
  146.9686  137.9524  155.6764 H   0  0  0  0  0  0  0  0  0  0  0  0
  146.4552  137.1412  154.1915 H   0  0  0  0  0  0  0  0  0  0  0  0
  147.2225  138.7251  154.1064 H   0  0  0  0  0  0  0  0  0  0  0  0
  149.6360  138.9351  154.5000 H   0  0  0  0  0  0  0  0  0  0  0  0
  149.4869  138.2047  156.0811 H   0  0  0  0  0  0  0  0  0  0  0  0
  151.8187  137.9143  155.2382 H   0  0  0  0  0  0  0  0  0  0  0  0
  151.2305  137.2128  153.7498 H   0  0  0  0  0  0  0  0  0  0  0  0
  153.7358  137.6761  157.1190 H   0  0  0  0  0  0  0  0  0  0  0  0
  148.7252  136.9759  153.5369 H   0  0  0  0  0  0  0  0  0  0  0  0
  1  2  1  0  0  0  0
  1 22  1  0  0  0  0
  1 23  1  0  0  0  0
  1 24  1  0  0  0  0
  2  3  1  0  0  0  0
  3  4  1  0  0  0  0
  3 25  1  0  0  0  0
  3 26  1  0  0  0  0
  4  5  1  0  0  0  0
  4 27  1  0  0  0  0
  4 28  1  0  0  0  0
  5  6  1  0  0  0  0
  5 29  1  0  0  0  0
  6 21  1  0  0  0  0
  6  7  2  0  0  0  0
  7  8  1  0  0  0  0
  7 30  1  0  0  0  0
  8  9  2  0  0  0  0
  8 31  1  0  0  0  0
  9 10  1  0  0  0  0
  9 20  1  0  0  0  0
 10 11  2  0  0  0  0
 10 12  2  0  0  0  0
 10 13  1  0  0  0  0
 13 19  1  0  0  0  0
 13 14  1  0  0  0  0
 14 15  1  0  0  0  0
 14 32  1  0  0  0  0
 14 33  1  0  0  0  0
 15 16  1  0  0  0  0
 15 34  1  0  0  0  0
 15 35  1  0  0  0  0
 16 17  1  0  0  0  0
 16 18  1  0  0  0  0
 16 44  1  0  0  0  0
 17 36  1  0  0  0  0
 17 37  1  0  0  0  0
 17 38  1  0  0  0  0
 18 19  1  0  0  0  0
 18 39  1  0  0  0  0
 18 40  1  0  0  0  0
 19 41  1  0  0  0  0
 19 42  1  0  0  0  0
 20 21  2  0  0  0  0
 20 43  1  0  0  0  0
M  CHG  1  16   1
M  END
> <s_m_source_file>
AV-unprocessed.smi

> <i_m_source_file_index>
454

> <i_lp_mmshare_version>
43012

> <i_f3d_flags>
0

> <s_epik_input>
W0NIM11PW0NIMl1bQ0gyXVtOSF1jMVtjSF1bY0hdYyhbY0hdbjEpUyg9TykoPU8pTjJbQ0gyXVtDSDJdTihbQ0gzXSlbQ0gyXVtDSDJdMg==

> <s_epik_cmdline>
J2VwaWtfcHl0aG9uJywgJy1waCcsICc3LjAnLCAnLXRuJywgJzgnLCAnLW1hJywgJzIwMCcsICctbWV0YWxfYmluZGluZycsICctaW1hZScsICc8aW5maWxlLm1hZT4nLCAnLW9tYWUnLCAnPG91dGZpbGUubWFlPic=

> <r_lp_tautomer_probability>
1

> <r_epik_Ionization_Penalty>
1.23801

> <r_epik_Ionization_Penalty_Charging>
1.23786

> <r_epik_Ionization_Penalty_Neutral>
0.00015121

> <r_epik_State_Penalty>
1.30655

> <r_epik_Charging_Adjusted_Penalty>
2.54442

> <i_epik_Tot_Q>
1

> <i_epik_Tot_abs_Q>
1

> <r_epik_Metal_State_Penalty>
1.30672

> <b_epik_Metal_Only>
0

> <s_lp_Force_Field>
OPLS_2005

> <r_lp_Energy>
1.84277

> <b_lp_Chiralities_Consistent>
1

> <s_lp_Variant>
AV-unprocessed.smi:454-2

> <Gold.Version>
5.8.1

> <Gold.Id.Protein>
6NUR|6NUR_protein|mol2

> <Gold.PLP.Fitness>
44.4901

> <Gold.PLP.PLP>
-32.0947

> <Gold.PLP.part.hbond>
-5.1083

> <Gold.PLP.part.metal>
0.0000

> <Gold.PLP.part.buried>
-5.1925

> <Gold.PLP.part.nonpolar>
-22.4192

> <Gold.PLP.part.repulsive>
0.2222

> <Gold.PLP.ligand.clash>
0.0000

> <Gold.PLP.ligand.torsion>
2.0439

> <Gold.PLP.Chemscore.Hbond>
4.5920

> <Gold.PLP.Chemscore.CHOScore>
0.0000

> <Gold.PLP.Chemscore.Metal>
0.0000

> <Gold.Chemscore.Hbonds>
donor molecule, donor type, donor heavy atom, donor atom, acceptor molecule, acceptor atom, score
      L1  H    16    44       P1  7948  2.00
      P1  H  6896  6909       L1    12  0.62
      P1  H  7997  8009       L1    21  1.00
      P1  H 10752 10763       L1    11  1.00

> <Gold.PLP.Chemscore.Internal.Correction>
2.7071

> <Gold.Rescore>
     Score         DG    S(hbond)    S(metal)    S(lipo)     H(rot)  DE(clash)    DE(int)     intcor
     19.54     -21.63       3.55        0.00      72.75       1.65       0.04       2.06       ----

> <Gold.Chemscore.Fitness>
19.5351

> <Gold.Chemscore.DG>
-21.6332

> <Gold.Chemscore.ZeroCoef>
-5.4800

> <Gold.Chemscore.Hbond>
3.5519

> <Gold.Chemscore.Metal>
0.0000

> <Gold.Chemscore.Lipo>
72.7507

> <Gold.Chemscore.Internal_Hbond>
0.0000

> <Gold.Chemscore.DEClash>
0.0386

> <Gold.Chemscore.DEInternal>
2.0595

> <Gold.Chemscore.Rot>
1.6491

> <Gold.Chemscore.Internal.Correction>
   9.000000E+99

> <Gold.Chemscore.Hbonds>
donor molecule, donor type, donor heavy atom, donor atom, acceptor molecule, acceptor atom, score
      L1  H    16    44       P1  7948  1.00
      P1  H  6896  6909       L1    12  0.61
      P1  H  7997  8009       L1    21  0.50
      P1  H 10752 10763       L1    11  0.60

> <Gold.Chemscore.Hbond.Weighted>
-11.8632

> <Gold.Chemscore.Metal.Weighted>
-0.0000

> <Gold.Chemscore.Lipo.Weighted>
-8.5118

> <Gold.Chemscore.Internal_Hbond.Weighted>
0.0000

> <Gold.Chemscore.DEClash.Weighted>
0.0386

> <Gold.Chemscore.DEInternal.Weighted>
2.0595

> <Gold.Chemscore.Rot.Weighted>
4.2218

> <Gold.Chemscore.Internal.Correction.Weighted>
   9.000000E+99

> <Gold.Protein.RotatedTorsions>
[ 6907 6896 6895 6894 ] final   35.34 input  -60.11 | X-H torsion
[ 7974 7965 7964 7962 ] final   68.75 input  175.53 | X-H torsion
[ 8008 7997 7996 7995 ] final  167.73 input   59.86 | X-H torsion
[ 10167 10162 10161 10158 ] final -155.71 input  -65.29 | X-H torsion
[ 10718 10713 10712 10709 ] final -147.05 input   66.30 | X-H torsion
[ 10763 10752 10751 10750 ] final  120.88 input  -60.55 | X-H torsion
[ 11005 11000 10999 10996 ] final  100.69 input  -57.11 | X-H torsion

> <Gold.Protein.ActiveResidues>
 VAL166  LYS551  ARG553  GLY616  TRP617  ASP618  TYR619  PRO620  LYS621  CYS622 
 ASP623  PHE694  ASN695  SER759  ASP760  ASP761  ALA762  ILE779  LEU786  VAL792 
 PHE793  MET794  SER795  GLU796  ALA797  LYS798  CYS799  TRP800  GLU811  SER814 

> <Gold.Protein.RotatedAtoms>
  152.1148  134.9248  160.0565 H   0  0  0  0  0  0  0  0  0  0  0  0  # atno 6907 bound_to 6896
  152.0412  133.3973  159.4346 H   0  0  0  0  0  0  0  0  0  0  0  0  # atno 6908 bound_to 6896
  150.6845  134.3333  159.4880 H   0  0  0  0  0  0  0  0  0  0  0  0  # atno 6909 bound_to 6896
  145.7988  139.2972  143.1167 H   0  0  0  0  0  0  0  0  0  0  0  0  # atno 7974 bound_to 7965
  156.1608  140.1609  156.8615 H   0  0  0  0  0  0  0  0  0  0  0  0  # atno 8008 bound_to 7997
  154.5159  140.0789  156.8115 H   0  0  0  0  0  0  0  0  0  0  0  0  # atno 8009 bound_to 7997
  155.3711  140.3400  155.4245 H   0  0  0  0  0  0  0  0  0  0  0  0  # atno 8010 bound_to 7997
  139.6909  143.9422  152.2384 H   0  0  0  0  0  0  0  0  0  0  0  0  # atno 10167 bound_to 10162
  156.4026  130.7941  151.2153 H   0  0  0  0  0  0  0  0  0  0  0  0  # atno 10718 bound_to 10713
  153.6053  135.3440  155.2960 H   0  0  0  0  0  0  0  0  0  0  0  0  # atno 10763 bound_to 10752
  154.8628  135.4237  154.2368 H   0  0  0  0  0  0  0  0  0  0  0  0  # atno 10764 bound_to 10752
  153.3206  135.7038  153.7106 H   0  0  0  0  0  0  0  0  0  0  0  0  # atno 10765 bound_to 10752
  139.8771  134.9151  156.4794 H   0  0  0  0  0  0  0  0  0  0  0  0  # atno 11005 bound_to 11000
  145.9899  140.8611  143.0071 LP  0  0  0  0  0  0  0  0  0  0  0  0  # atno 17320 bound_to 7965
  144.6771  140.2201  143.7367 LP  0  0  0  0  0  0  0  0  0  0  0  0  # atno 17321 bound_to 7965
  139.9238  144.6783  150.8434 LP  0  0  0  0  0  0  0  0  0  0  0  0  # atno 17342 bound_to 10162
  140.7682  143.3356  151.2316 LP  0  0  0  0  0  0  0  0  0  0  0  0  # atno 17343 bound_to 10162
  157.7504  131.0282  150.4039 LP  0  0  0  0  0  0  0  0  0  0  0  0  # atno 17370 bound_to 10713
  156.4321  130.3974  149.6753 LP  0  0  0  0  0  0  0  0  0  0  0  0  # atno 17371 bound_to 10713
  140.8738  133.7968  155.9393 LP  0  0  0  0  0  0  0  0  0  0  0  0  # atno 17394 bound_to 11000
  140.8925  134.2477  157.5086 LP  0  0  0  0  0  0  0  0  0  0  0  0  # atno 17395 bound_to 11000

$$$$
