AV-unprocessed.smi:2226|AV-procd|sdf|9003|dock7
  -GOLD-   2272012213D 1   1.00000     0.00000
 Structure written by MMmdl.
 40 42  0  0  0  0  0  0  0  0  2 V2000
  145.9914  141.4362  155.1237 C   0  0  0  0  0  0  0  0  0  0  0  0
  146.0518  140.3701  154.0956 N   0  3  2  0  0  0  0  0  0  0  0  0
  146.2751  139.0034  154.6266 C   0  0  2  0  0  0  0  0  0  0  0  0
  147.7148  138.8412  155.1771 C   0  0  0  0  0  0  0  0  0  0  0  0
  148.8167  139.2716  154.1903 C   0  0  0  0  0  0  0  0  0  0  0  0
  148.4594  140.5648  153.4331 C   0  0  0  0  0  0  0  0  0  0  0  0
  146.9816  140.6391  152.9719 C   0  0  1  0  0  0  0  0  0  0  0  0
  146.6219  139.7064  151.7921 C   0  0  0  0  0  0  0  0  0  0  0  0
  146.5383  138.2060  152.1638 C   0  0  2  0  0  0  0  0  0  0  0  0
  145.7746  137.4975  151.1373 N   0  0  0  0  0  0  0  0  0  0  0  0
  145.6200  136.1677  151.0472 C   0  0  0  0  0  0  0  0  0  0  0  0
  146.1164  135.3671  151.8398 O   0  0  0  0  0  0  0  0  0  0  0  0
  144.8606  135.8371  149.9893 N   0  0  0  0  0  0  0  0  0  0  0  0
  144.4814  134.5359  149.5733 C   0  0  0  0  0  0  0  0  0  0  0  0
  144.7394  133.3922  150.2089 N   0  0  0  0  0  0  0  0  0  0  0  0
  144.1675  132.4121  149.4108 C   0  0  0  0  0  0  0  0  0  0  0  0
  143.5910  133.0251  148.3281 C   0  0  0  0  0  0  0  0  0  0  0  0
  143.7828  134.3777  148.4181 O   0  0  0  0  0  0  0  0  0  0  0  0
  145.8745  137.9752  153.5431 C   0  0  0  0  0  0  0  0  0  0  0  0
  146.9380  141.5592  155.6488 H   0  0  0  0  0  0  0  0  0  0  0  0
  145.2229  141.2075  155.8625 H   0  0  0  0  0  0  0  0  0  0  0  0
  145.7336  142.3912  154.6650 H   0  0  0  0  0  0  0  0  0  0  0  0
  145.5897  138.8544  155.4621 H   0  0  0  0  0  0  0  0  0  0  0  0
  147.8134  139.4382  156.0840 H   0  0  0  0  0  0  0  0  0  0  0  0
  147.8831  137.8105  155.4905 H   0  0  0  0  0  0  0  0  0  0  0  0
  149.7527  139.4145  154.7311 H   0  0  0  0  0  0  0  0  0  0  0  0
  149.0308  138.4697  153.4892 H   0  0  0  0  0  0  0  0  0  0  0  0
  148.6668  141.4135  154.0855 H   0  0  0  0  0  0  0  0  0  0  0  0
  149.1261  140.6878  152.5791 H   0  0  0  0  0  0  0  0  0  0  0  0
  146.8005  141.6579  152.6263 H   0  0  0  0  0  0  0  0  0  0  0  0
  145.6505  140.0250  151.4100 H   0  0  0  0  0  0  0  0  0  0  0  0
  147.3231  139.8489  150.9689 H   0  0  0  0  0  0  0  0  0  0  0  0
  147.5464  137.8017  152.1943 H   0  0  0  0  0  0  0  0  0  0  0  0
  145.3256  138.0681  150.4358 H   0  0  0  0  0  0  0  0  0  0  0  0
  144.5156  136.5947  149.4189 H   0  0  0  0  0  0  0  0  0  0  0  0
  144.2151  131.3656  149.6732 H   0  0  0  0  0  0  0  0  0  0  0  0
  143.0457  132.6683  147.4669 H   0  0  0  0  0  0  0  0  0  0  0  0
  146.0765  136.9611  153.8901 H   0  0  0  0  0  0  0  0  0  0  0  0
  144.7915  138.0349  153.4227 H   0  0  0  0  0  0  0  0  0  0  0  0
  145.1278  140.3569  153.6880 H   0  0  0  0  0  0  0  0  0  0  0  0
  1  2  1  0  0  0  0
  1 20  1  0  0  0  0
  1 21  1  0  0  0  0
  1 22  1  0  0  0  0
  2  7  1  0  0  0  0
  2  3  1  0  0  0  0
  2 40  1  0  0  0  0
  3 19  1  0  0  0  0
  3  4  1  0  0  0  0
  3 23  1  0  0  0  0
  4  5  1  0  0  0  0
  4 24  1  0  0  0  0
  4 25  1  0  0  0  0
  5  6  1  0  0  0  0
  5 26  1  0  0  0  0
  5 27  1  0  0  0  0
  6  7  1  0  0  0  0
  6 28  1  0  0  0  0
  6 29  1  0  0  0  0
  7  8  1  0  0  0  0
  7 30  1  0  0  0  0
  8  9  1  0  0  0  0
  8 31  1  0  0  0  0
  8 32  1  0  0  0  0
  9 10  1  0  0  0  0
  9 19  1  0  0  0  0
  9 33  1  0  0  0  0
 10 11  1  0  0  0  0
 10 34  1  0  0  0  0
 11 12  2  0  0  0  0
 11 13  1  0  0  0  0
 13 14  1  0  0  0  0
 13 35  1  0  0  0  0
 14 18  1  0  0  0  0
 14 15  2  0  0  0  0
 15 16  1  0  0  0  0
 16 17  2  0  0  0  0
 16 36  1  0  0  0  0
 17 18  1  0  0  0  0
 17 37  1  0  0  0  0
 19 38  1  0  0  0  0
 19 39  1  0  0  0  0
M  CHG  1   2   1
M  END
> <s_m_source_file>
AV-unprocessed.smi

> <i_m_source_file_index>
2226

> <i_lp_mmshare_version>
43012

> <i_f3d_flags>
0

> <s_epik_input>
W0NIMl0xW0NIMl1bQ0gyXVtDQEhdKE4oW0NIM10pW0NIXTEyKVtDSDJdW0NASF0oW0NIMl0yKVtOSF1DKD1PKVtOSF1jM25bY0hdW2NIXW8z

> <s_epik_cmdline>
J2VwaWtfcHl0aG9uJywgJy1waCcsICc3LjAnLCAnLXRuJywgJzgnLCAnLW1hJywgJzIwMCcsICctbWV0YWxfYmluZGluZycsICctaW1hZScsICc8aW5maWxlLm1hZT4nLCAnLW9tYWUnLCAnPG91dGZpbGUubWFlPic=

> <r_lp_tautomer_probability>
0.785861

> <r_epik_Ionization_Penalty>
0.000929358

> <r_epik_Ionization_Penalty_Charging>
0.000890041

> <r_epik_Ionization_Penalty_Neutral>
3.93161e-05

> <r_epik_State_Penalty>
0.0312137

> <r_epik_Charging_Adjusted_Penalty>
0.0321037

> <i_epik_Tot_Q>
1

> <i_epik_Tot_abs_Q>
1

> <r_epik_Metal_State_Penalty>
0.0605703

> <b_epik_Metal_Only>
0

> <s_lp_Force_Field>
OPLS_2005

> <r_lp_Energy>
34.3269

> <b_lp_Chiralities_Consistent>
1

> <s_lp_Variant>
AV-unprocessed.smi:2226-3

> <Gold.Version>
5.8.1

> <Gold.Id.Protein>
6NUR|6NUR_protein|mol2

> <Gold.PLP.Fitness>
38.0507

> <Gold.PLP.PLP>
-22.4782

> <Gold.PLP.part.hbond>
-4.4016

> <Gold.PLP.part.metal>
0.0000

> <Gold.PLP.part.buried>
8.3389

> <Gold.PLP.part.nonpolar>
-33.2167

> <Gold.PLP.part.repulsive>
6.4485

> <Gold.PLP.ligand.clash>
0.0000

> <Gold.PLP.ligand.torsion>
0.0435

> <Gold.PLP.Chemscore.Hbond>
4.2179

> <Gold.PLP.Chemscore.CHOScore>
1.0000

> <Gold.PLP.Chemscore.Metal>
0.0000

> <Gold.Chemscore.Hbonds>
donor molecule, donor type, donor heavy atom, donor atom, acceptor molecule, acceptor atom, score
      L1  H     2    40       P1 10175  2.00
      L1  H    10    34       P1 10171  0.94
      L1  H    13    35       P1 10171  0.60
      P1  H 10192 10197       L1    18  0.31
      L1  C    17    37       P1 10195  1.00

> <Gold.PLP.Chemscore.Internal.Correction>
0.0057

> <Gold.Rescore>
     Score         DG    S(hbond)    S(metal)    S(lipo)     H(rot)  DE(clash)    DE(int)     intcor
     14.01     -20.57       2.55        0.00      77.97       1.00       5.28       1.28       ----

> <Gold.Chemscore.Fitness>
14.0096

> <Gold.Chemscore.DG>
-20.5693

> <Gold.Chemscore.ZeroCoef>
-5.4800

> <Gold.Chemscore.Hbond>
2.5530

> <Gold.Chemscore.Metal>
0.0000

> <Gold.Chemscore.Lipo>
77.9673

> <Gold.Chemscore.Internal_Hbond>
0.0000

> <Gold.Chemscore.DEClash>
5.2762

> <Gold.Chemscore.DEInternal>
1.2835

> <Gold.Chemscore.Rot>
1.0000

> <Gold.Chemscore.Internal.Correction>
   9.000000E+99

> <Gold.Chemscore.Hbonds>
donor molecule, donor type, donor heavy atom, donor atom, acceptor molecule, acceptor atom, score
      L1  H     2    40       P1 10175  1.00
      L1  H    10    34       P1 10171  0.91
      L1  H    13    35       P1 10171  0.59
      P1  H 10192 10197       L1    18  0.09

> <Gold.Chemscore.Hbond.Weighted>
-8.5271

> <Gold.Chemscore.Metal.Weighted>
-0.0000

> <Gold.Chemscore.Lipo.Weighted>
-9.1222

> <Gold.Chemscore.Internal_Hbond.Weighted>
0.0000

> <Gold.Chemscore.DEClash.Weighted>
5.2762

> <Gold.Chemscore.DEInternal.Weighted>
1.2835

> <Gold.Chemscore.Rot.Weighted>
2.5600

> <Gold.Chemscore.Internal.Correction.Weighted>
   9.000000E+99

> <Gold.Protein.RotatedTorsions>
[ 6907 6896 6895 6894 ] final  159.60 input  -60.11 | X-H torsion
[ 7974 7965 7964 7962 ] final -137.05 input  175.53 | X-H torsion
[ 8008 7997 7996 7995 ] final   36.99 input   59.86 | X-H torsion
[ 10167 10162 10161 10158 ] final -109.48 input  -65.29 | X-H torsion
[ 10718 10713 10712 10709 ] final   88.69 input   66.30 | X-H torsion
[ 10763 10752 10751 10750 ] final  132.30 input  -60.55 | X-H torsion
[ 11005 11000 10999 10996 ] final   96.79 input  -57.11 | X-H torsion

> <Gold.Protein.ActiveResidues>
 VAL166  LYS551  ARG553  GLY616  TRP617  ASP618  TYR619  PRO620  LYS621  CYS622 
 ASP623  PHE694  ASN695  SER759  ASP760  ASP761  ALA762  ILE779  LEU786  VAL792 
 PHE793  MET794  SER795  GLU796  ALA797  LYS798  CYS799  TRP800  GLU811  SER814 

> <Gold.Protein.RotatedAtoms>
  151.9832  133.3765  159.4115 H   0  0  0  0  0  0  0  0  0  0  0  0  # atno 6907 bound_to 6896
  150.6932  134.4016  159.5131 H   0  0  0  0  0  0  0  0  0  0  0  0  # atno 6908 bound_to 6896
  152.1738  134.8811  160.0583 H   0  0  0  0  0  0  0  0  0  0  0  0  # atno 6909 bound_to 6896
  144.8875  140.6595  143.5167 H   0  0  0  0  0  0  0  0  0  0  0  0  # atno 7974 bound_to 7965
  155.1965  140.3312  155.4350 H   0  0  0  0  0  0  0  0  0  0  0  0  # atno 8008 bound_to 7997
  156.2423  140.1901  156.7004 H   0  0  0  0  0  0  0  0  0  0  0  0  # atno 8009 bound_to 7997
  154.6170  140.0601  156.9553 H   0  0  0  0  0  0  0  0  0  0  0  0  # atno 8010 bound_to 7997
  140.1548  143.4169  152.1468 H   0  0  0  0  0  0  0  0  0  0  0  0  # atno 10167 bound_to 10162
  157.6951  131.0304  150.3312 H   0  0  0  0  0  0  0  0  0  0  0  0  # atno 10718 bound_to 10713
  153.7885  135.3158  155.3375 H   0  0  0  0  0  0  0  0  0  0  0  0  # atno 10763 bound_to 10752
  154.8135  135.4652  154.0582 H   0  0  0  0  0  0  0  0  0  0  0  0  # atno 10764 bound_to 10752
  153.1893  135.6906  153.8460 H   0  0  0  0  0  0  0  0  0  0  0  0  # atno 10765 bound_to 10752
  139.8779  134.8969  156.4212 H   0  0  0  0  0  0  0  0  0  0  0  0  # atno 11005 bound_to 11000
  145.3843  139.1630  143.4263 LP  0  0  0  0  0  0  0  0  0  0  0  0  # atno 17320 bound_to 7965
  146.3033  140.3927  142.8696 LP  0  0  0  0  0  0  0  0  0  0  0  0  # atno 17321 bound_to 7965
  139.5408  144.7255  151.4739 LP  0  0  0  0  0  0  0  0  0  0  0  0  # atno 17342 bound_to 10162
  140.6680  143.8356  150.6965 LP  0  0  0  0  0  0  0  0  0  0  0  0  # atno 17343 bound_to 10162
  156.3786  130.3876  149.7119 LP  0  0  0  0  0  0  0  0  0  0  0  0  # atno 17370 bound_to 10713
  156.4510  130.7906  151.2928 LP  0  0  0  0  0  0  0  0  0  0  0  0  # atno 17371 bound_to 10713
  140.9133  133.7696  155.9817 LP  0  0  0  0  0  0  0  0  0  0  0  0  # atno 17394 bound_to 11000
  140.8522  134.2940  157.5270 LP  0  0  0  0  0  0  0  0  0  0  0  0  # atno 17395 bound_to 11000

$$$$
