AV-unprocessed.smi:3308|AV-procd|sdf|12714|dock8
  -GOLD-   2272019 53D 1   1.00000     0.00000
 Structure written by MMmdl.
 40 41  0  0  0  0  0  0  0  0  1 V2000
  153.4210  138.4232  155.0547 C   0  0  0  0  0  0  0  0  0  0  0  0
  152.1062  139.2239  155.1801 C   0  0  2  0  0  0  0  0  0  0  0  0
  151.7562  139.3406  156.5930 N   0  0  0  0  0  0  0  0  0  0  0  0
  151.7485  140.7280  157.0741 C   0  0  0  0  0  0  0  0  0  0  0  0
  152.2897  140.8246  158.5044 C   0  0  0  0  0  0  0  0  0  0  0  0
  152.6527  139.7930  159.0699 O   0  0  0  0  0  0  0  0  0  0  0  0
  152.3539  142.0348  159.0996 N   0  0  0  0  0  0  0  0  0  0  0  0
  151.9335  143.2741  158.4482 C   0  0  0  0  0  0  0  0  0  0  0  0
  152.3997  144.4045  159.3659 C   0  0  0  0  0  0  0  0  0  0  0  0
  152.4715  143.7594  160.7428 C   0  0  0  0  0  0  0  0  0  0  0  0
  152.8367  142.3030  160.4547 C   0  0  0  0  0  0  0  0  0  0  0  0
  150.9136  138.5588  154.4413 C   0  0  1  0  0  0  0  0  0  0  0  0
  150.5033  137.2126  155.0682 C   0  0  0  0  0  0  0  0  0  0  0  0
  149.7545  139.4408  154.3770 N   0  0  0  0  0  0  0  0  0  0  0  0
  148.4742  139.1531  153.9467 C   0  0  0  0  0  0  0  0  0  0  0  0
  147.7335  140.2927  154.0762 C   0  0  0  0  0  0  0  0  0  0  0  0
  148.6580  141.2383  154.6009 C   0  0  0  0  0  0  0  0  0  0  0  0
  149.8648  140.7264  154.7799 N   0  0  0  0  0  0  0  0  0  0  0  0
  153.7466  138.3448  154.0176 H   0  0  0  0  0  0  0  0  0  0  0  0
  153.3040  137.4096  155.4400 H   0  0  0  0  0  0  0  0  0  0  0  0
  154.2408  138.8907  155.5988 H   0  0  0  0  0  0  0  0  0  0  0  0
  152.2562  140.2179  154.7548 H   0  0  0  0  0  0  0  0  0  0  0  0
  152.3690  138.7533  157.1403 H   0  0  0  0  0  0  0  0  0  0  0  0
  152.3246  141.3741  156.4129 H   0  0  0  0  0  0  0  0  0  0  0  0
  150.7258  141.1089  157.0665 H   0  0  0  0  0  0  0  0  0  0  0  0
  152.3557  143.3770  157.4473 H   0  0  0  0  0  0  0  0  0  0  0  0
  150.8460  143.2763  158.3594 H   0  0  0  0  0  0  0  0  0  0  0  0
  153.3955  144.7326  159.0647 H   0  0  0  0  0  0  0  0  0  0  0  0
  151.7394  145.2717  159.3377 H   0  0  0  0  0  0  0  0  0  0  0  0
  153.1844  144.2516  161.4051 H   0  0  0  0  0  0  0  0  0  0  0  0
  151.4900  143.8031  161.2172 H   0  0  0  0  0  0  0  0  0  0  0  0
  152.3953  141.6363  161.1964 H   0  0  0  0  0  0  0  0  0  0  0  0
  153.9195  142.1715  160.4794 H   0  0  0  0  0  0  0  0  0  0  0  0
  151.2231  138.3590  153.4129 H   0  0  0  0  0  0  0  0  0  0  0  0
  151.3187  136.4899  155.0352 H   0  0  0  0  0  0  0  0  0  0  0  0
  149.6609  136.7730  154.5330 H   0  0  0  0  0  0  0  0  0  0  0  0
  150.2094  137.3305  156.1118 H   0  0  0  0  0  0  0  0  0  0  0  0
  148.2002  138.1714  153.5893 H   0  0  0  0  0  0  0  0  0  0  0  0
  146.6902  140.4303  153.8331 H   0  0  0  0  0  0  0  0  0  0  0  0
  148.4897  142.2743  154.8555 H   0  0  0  0  0  0  0  0  0  0  0  0
  1  2  1  0  0  0  0
  1 19  1  0  0  0  0
  1 20  1  0  0  0  0
  1 21  1  0  0  0  0
  2  3  1  0  0  0  0
  2 12  1  0  0  0  0
  2 22  1  0  0  0  0
  3  4  1  0  0  0  0
  3 23  1  0  0  0  0
  4  5  1  0  0  0  0
  4 24  1  0  0  0  0
  4 25  1  0  0  0  0
  5  6  2  0  0  0  0
  5  7  1  0  0  0  0
  7 11  1  0  0  0  0
  7  8  1  0  0  0  0
  8  9  1  0  0  0  0
  8 26  1  0  0  0  0
  8 27  1  0  0  0  0
  9 10  1  0  0  0  0
  9 28  1  0  0  0  0
  9 29  1  0  0  0  0
 10 11  1  0  0  0  0
 10 30  1  0  0  0  0
 10 31  1  0  0  0  0
 11 32  1  0  0  0  0
 11 33  1  0  0  0  0
 12 13  1  0  0  0  0
 12 14  1  0  0  0  0
 12 34  1  0  0  0  0
 13 35  1  0  0  0  0
 13 36  1  0  0  0  0
 13 37  1  0  0  0  0
 14 18  1  0  0  0  0
 14 15  1  0  0  0  0
 15 16  2  0  0  0  0
 15 38  1  0  0  0  0
 16 17  1  0  0  0  0
 16 39  1  0  0  0  0
 17 18  2  0  0  0  0
 17 40  1  0  0  0  0
M  END
> <s_m_source_file>
AV-unprocessed.smi

> <i_m_source_file_index>
3308

> <i_lp_mmshare_version>
43012

> <i_f3d_flags>
0

> <s_epik_input>
bjFbY0hdW2NIXVtjSF1uMVtDQEBIXShbQ0gzXSlbQ0BIXShbQ0gzXSlbTkhdW0NIMl1DKD1PKU4yW0NIMl1bQ0gyXVtDSDJdW0NIMl0y

> <s_epik_cmdline>
J2VwaWtfcHl0aG9uJywgJy1waCcsICc3LjAnLCAnLXRuJywgJzgnLCAnLW1hJywgJzIwMCcsICctbWV0YWxfYmluZGluZycsICctaW1hZScsICc8aW5maWxlLm1hZT4nLCAnLW9tYWUnLCAnPG91dGZpbGUubWFlPic=

> <r_lp_tautomer_probability>
1

> <r_epik_Ionization_Penalty>
0.918676

> <r_epik_Ionization_Penalty_Charging>
0

> <r_epik_Ionization_Penalty_Neutral>
0.918676

> <r_epik_State_Penalty>
0.958258

> <r_epik_Charging_Adjusted_Penalty>
0.958258

> <i_epik_Tot_Q>
0

> <i_epik_Tot_abs_Q>
0

> <r_epik_Metal_State_Penalty>
0.956879

> <b_epik_Metal_Only>
0

> <s_lp_Force_Field>
OPLS_2005

> <r_lp_Energy>
36.0541

> <b_lp_Chiralities_Consistent>
1

> <s_lp_Variant>
AV-unprocessed.smi:3308-7

> <Gold.Version>
5.8.1

> <Gold.Id.Protein>
6NUR|6NUR_protein|mol2

> <Gold.PLP.Fitness>
44.6946

> <Gold.PLP.PLP>
-41.2945

> <Gold.PLP.part.hbond>
-1.0000

> <Gold.PLP.part.metal>
0.0000

> <Gold.PLP.part.buried>
-0.4017

> <Gold.PLP.part.nonpolar>
-39.1227

> <Gold.PLP.part.repulsive>
0.1163

> <Gold.PLP.ligand.clash>
0.0000

> <Gold.PLP.ligand.torsion>
1.2949

> <Gold.PLP.Chemscore.Hbond>
0.2918

> <Gold.PLP.Chemscore.CHOScore>
1.6823

> <Gold.PLP.Chemscore.Metal>
0.0000

> <Gold.Chemscore.Hbonds>
donor molecule, donor type, donor heavy atom, donor atom, acceptor molecule, acceptor atom, score
      P1  H  7989  7998       L1    18  0.20
      L1  C    15    38       P1  7948  0.60
      L1  C    17    40       P1  8028  0.86

> <Gold.PLP.Chemscore.Internal.Correction>
0.0673

> <Gold.Rescore>
     Score         DG    S(hbond)    S(metal)    S(lipo)     H(rot)  DE(clash)    DE(int)     intcor
     13.96     -15.83       0.84        0.00     102.04       1.72       0.14       1.72       ----

> <Gold.Chemscore.Fitness>
13.9611

> <Gold.Chemscore.DG>
-15.8263

> <Gold.Chemscore.ZeroCoef>
-5.4800

> <Gold.Chemscore.Hbond>
0.8417

> <Gold.Chemscore.Metal>
0.0000

> <Gold.Chemscore.Lipo>
102.0352

> <Gold.Chemscore.Internal_Hbond>
0.0000

> <Gold.Chemscore.DEClash>
0.1440

> <Gold.Chemscore.DEInternal>
1.7212

> <Gold.Chemscore.Rot>
1.7200

> <Gold.Chemscore.Internal.Correction>
   9.000000E+99

> <Gold.Chemscore.Hbonds>
donor molecule, donor type, donor heavy atom, donor atom, acceptor molecule, acceptor atom, score
      P1  H  7989  7998       L1    18  0.01

> <Gold.Chemscore.Hbond.Weighted>
-2.8113

> <Gold.Chemscore.Metal.Weighted>
-0.0000

> <Gold.Chemscore.Lipo.Weighted>
-11.9381

> <Gold.Chemscore.Internal_Hbond.Weighted>
0.0000

> <Gold.Chemscore.DEClash.Weighted>
0.1440

> <Gold.Chemscore.DEInternal.Weighted>
1.7212

> <Gold.Chemscore.Rot.Weighted>
4.4031

> <Gold.Chemscore.Internal.Correction.Weighted>
   9.000000E+99

> <Gold.Protein.RotatedTorsions>
[ 6907 6896 6895 6894 ] final  122.29 input  -60.11 | X-H torsion
[ 7974 7965 7964 7962 ] final   42.06 input  175.53 | X-H torsion
[ 8008 7997 7996 7995 ] final  151.13 input   59.86 | X-H torsion
[ 10167 10162 10161 10158 ] final  156.71 input  -65.29 | X-H torsion
[ 10718 10713 10712 10709 ] final  154.85 input   66.30 | X-H torsion
[ 10763 10752 10751 10750 ] final   93.43 input  -60.55 | X-H torsion
[ 11005 11000 10999 10996 ] final  114.57 input  -57.11 | X-H torsion

> <Gold.Protein.ActiveResidues>
 VAL166  LYS551  ARG553  GLY616  TRP617  ASP618  TYR619  PRO620  LYS621  CYS622 
 ASP623  PHE694  ASN695  SER759  ASP760  ASP761  ALA762  ILE779  LEU786  VAL792 
 PHE793  MET794  SER795  GLU796  ALA797  LYS798  CYS799  TRP800  GLU811  SER814 

> <Gold.Protein.RotatedAtoms>
  152.4255  133.7187  159.6520 H   0  0  0  0  0  0  0  0  0  0  0  0  # atno 6907 bound_to 6896
  150.8131  133.8375  159.3179 H   0  0  0  0  0  0  0  0  0  0  0  0  # atno 6908 bound_to 6896
  151.6079  135.1044  160.0126 H   0  0  0  0  0  0  0  0  0  0  0  0  # atno 6909 bound_to 6896
  146.0772  139.5343  142.9560 H   0  0  0  0  0  0  0  0  0  0  0  0  # atno 7974 bound_to 7965
  156.2687  140.2056  156.6126 H   0  0  0  0  0  0  0  0  0  0  0  0  # atno 8008 bound_to 7997
  154.6819  140.0539  157.0299 H   0  0  0  0  0  0  0  0  0  0  0  0  # atno 8009 bound_to 7997
  155.0988  140.3204  155.4556 H   0  0  0  0  0  0  0  0  0  0  0  0  # atno 8010 bound_to 7997
  139.4821  144.4984  151.8205 H   0  0  0  0  0  0  0  0  0  0  0  0  # atno 10167 bound_to 10162
  157.2262  131.0729  151.1882 H   0  0  0  0  0  0  0  0  0  0  0  0  # atno 10718 bound_to 10713
  153.2302  135.4325  155.0587 H   0  0  0  0  0  0  0  0  0  0  0  0  # atno 10763 bound_to 10752
  154.8293  135.3377  154.6798 H   0  0  0  0  0  0  0  0  0  0  0  0  # atno 10764 bound_to 10752
  153.7226  135.7016  153.5065 H   0  0  0  0  0  0  0  0  0  0  0  0  # atno 10765 bound_to 10752
  139.8984  134.9570  156.6913 H   0  0  0  0  0  0  0  0  0  0  0  0  # atno 11005 bound_to 11000
  145.6285  141.0309  143.1876 LP  0  0  0  0  0  0  0  0  0  0  0  0  # atno 17320 bound_to 7965
  144.7269  139.7847  143.7361 LP  0  0  0  0  0  0  0  0  0  0  0  0  # atno 17321 bound_to 7965
  140.4474  144.1902  150.5895 LP  0  0  0  0  0  0  0  0  0  0  0  0  # atno 17342 bound_to 10162
  140.4620  143.2445  151.9207 LP  0  0  0  0  0  0  0  0  0  0  0  0  # atno 17343 bound_to 10162
  157.3526  130.7090  149.6450 LP  0  0  0  0  0  0  0  0  0  0  0  0  # atno 17370 bound_to 10713
  155.9678  130.4248  150.4626 LP  0  0  0  0  0  0  0  0  0  0  0  0  # atno 17371 bound_to 10713
  140.7223  133.9130  155.8155 LP  0  0  0  0  0  0  0  0  0  0  0  0  # atno 17394 bound_to 11000
  141.0218  134.0879  157.4112 LP  0  0  0  0  0  0  0  0  0  0  0  0  # atno 17395 bound_to 11000

$$$$
