AV-unprocessed.smi:605|AV-procd|sdf|3040|dock6
  -GOLD-   2262023563D 1   1.00000     0.00000
 Structure written by MMmdl.
 34 35  0  0  0  0  0  0  0  0  2 V2000
  152.5006  143.6789  158.6311 C   0  0  0  0  0  0  0  0  0  0  0  0
  152.1779  142.2387  159.0548 C   0  0  0  0  0  0  0  0  0  0  0  0
  153.1415  141.6926  160.1185 C   0  0  0  0  0  0  0  0  0  0  0  0
  152.0568  141.3188  157.8804 C   0  0  0  0  0  0  0  0  0  0  0  0
  152.8022  140.2190  157.7339 N   0  0  0  0  0  0  0  0  0  0  0  0
  152.5003  139.5319  156.5678 N   0  0  0  0  0  0  0  0  0  0  0  0
  151.5255  140.1115  155.8536 C   0  0  0  0  0  0  0  0  0  0  0  0
  151.0751  139.5980  154.6938 N   0  5  0  0  0  0  0  0  0  0  0  0
  149.7535  139.5529  154.3784 C   0  0  0  0  0  0  0  0  0  0  0  0
  149.1306  138.5020  154.2317 O   0  0  0  0  0  0  0  0  0  0  0  0
  149.1035  140.7228  154.2227 N   0  0  0  0  0  0  0  0  0  0  0  0
  147.6934  140.8897  153.8798 C   0  0  0  0  0  0  0  0  0  0  0  0
  147.3287  142.3848  153.7983 C   0  0  0  0  0  0  0  0  0  0  0  0
  146.0626  142.5608  154.6387 C   0  0  0  0  0  0  0  0  0  0  0  0
  146.1575  141.4690  155.6993 C   0  0  0  0  0  0  0  0  0  0  0  0
  146.7753  140.2828  154.9591 C   0  0  0  0  0  0  0  0  0  0  0  0
  150.9146  141.5989  156.5758 S   0  0  0  0  0  0  0  0  0  0  0  0
  151.7495  144.0618  157.9394 H   0  0  0  0  0  0  0  0  0  0  0  0
  153.4703  143.7383  158.1361 H   0  0  0  0  0  0  0  0  0  0  0  0
  152.5264  144.3464  159.4929 H   0  0  0  0  0  0  0  0  0  0  0  0
  151.1929  142.2706  159.5221 H   0  0  0  0  0  0  0  0  0  0  0  0
  152.8328  140.7023  160.4552 H   0  0  0  0  0  0  0  0  0  0  0  0
  153.1728  142.3441  160.9921 H   0  0  0  0  0  0  0  0  0  0  0  0
  154.1567  141.6105  159.7290 H   0  0  0  0  0  0  0  0  0  0  0  0
  149.6372  141.5687  154.3587 H   0  0  0  0  0  0  0  0  0  0  0  0
  147.4916  140.4142  152.9183 H   0  0  0  0  0  0  0  0  0  0  0  0
  148.1244  142.9991  154.2232 H   0  0  0  0  0  0  0  0  0  0  0  0
  147.1830  142.7168  152.7700 H   0  0  0  0  0  0  0  0  0  0  0  0
  145.9798  143.5591  155.0692 H   0  0  0  0  0  0  0  0  0  0  0  0
  145.1824  142.3914  154.0172 H   0  0  0  0  0  0  0  0  0  0  0  0
  146.8260  141.7903  156.4994 H   0  0  0  0  0  0  0  0  0  0  0  0
  145.1920  141.2290  156.1456 H   0  0  0  0  0  0  0  0  0  0  0  0
  145.9839  139.7099  154.4738 H   0  0  0  0  0  0  0  0  0  0  0  0
  147.2913  139.6019  155.6373 H   0  0  0  0  0  0  0  0  0  0  0  0
  1  2  1  0  0  0  0
  1 18  1  0  0  0  0
  1 19  1  0  0  0  0
  1 20  1  0  0  0  0
  2  3  1  0  0  0  0
  2  4  1  0  0  0  0
  2 21  1  0  0  0  0
  3 22  1  0  0  0  0
  3 23  1  0  0  0  0
  3 24  1  0  0  0  0
  4 17  1  0  0  0  0
  4  5  2  0  0  0  0
  5  6  1  0  0  0  0
  6  7  2  0  0  0  0
  7  8  1  0  0  0  0
  7 17  1  0  0  0  0
  8  9  1  0  0  0  0
  9 10  2  0  0  0  0
  9 11  1  0  0  0  0
 11 12  1  0  0  0  0
 11 25  1  0  0  0  0
 12 16  1  0  0  0  0
 12 13  1  0  0  0  0
 12 26  1  0  0  0  0
 13 14  1  0  0  0  0
 13 27  1  0  0  0  0
 13 28  1  0  0  0  0
 14 15  1  0  0  0  0
 14 29  1  0  0  0  0
 14 30  1  0  0  0  0
 15 16  1  0  0  0  0
 15 31  1  0  0  0  0
 15 32  1  0  0  0  0
 16 33  1  0  0  0  0
 16 34  1  0  0  0  0
M  CHG  1   8  -1
M  END
> <s_m_source_file>
AV-unprocessed.smi

> <i_m_source_file_index>
605

> <i_lp_mmshare_version>
43012

> <i_f3d_flags>
0

> <s_epik_input>
W0NIM11bQ0hdKFtDSDNdKWMxbm5jKHMxKVtOSF1DKD1PKVtOSF1bQ0hdMltDSDJdW0NIMl1bQ0gyXVtDSDJdMg==

> <s_epik_cmdline>
J2VwaWtfcHl0aG9uJywgJy1waCcsICc3LjAnLCAnLXRuJywgJzgnLCAnLW1hJywgJzIwMCcsICctbWV0YWxfYmluZGluZycsICctaW1hZScsICc8aW5maWxlLm1hZT4nLCAnLW9tYWUnLCAnPG91dGZpbGUubWFlPic=

> <r_lp_tautomer_probability>
1

> <r_epik_Ionization_Penalty>
4.57432

> <r_epik_Ionization_Penalty_Charging>
4.40687

> <r_epik_Ionization_Penalty_Neutral>
0.167446

> <r_epik_State_Penalty>
4.40652

> <r_epik_Charging_Adjusted_Penalty>
8.8134

> <i_epik_Tot_Q>
-1

> <i_epik_Tot_abs_Q>
1

> <r_epik_Metal_State_Penalty>
0.774635

> <b_epik_Metal_Only>
1

> <s_lp_Force_Field>
OPLS_2005

> <r_lp_Energy>
11.4858

> <b_lp_Chiralities_Consistent>
1

> <s_lp_Variant>
AV-unprocessed.smi:605-2

> <Gold.Version>
5.8.1

> <Gold.Id.Protein>
6NUR|6NUR_protein|mol2

> <Gold.PLP.Fitness>
36.1526

> <Gold.PLP.PLP>
-34.5344

> <Gold.PLP.part.hbond>
-3.5139

> <Gold.PLP.part.metal>
0.0000

> <Gold.PLP.part.buried>
-5.0809

> <Gold.PLP.part.nonpolar>
-26.1799

> <Gold.PLP.part.repulsive>
0.4574

> <Gold.PLP.ligand.clash>
0.0000

> <Gold.PLP.ligand.torsion>
0.9946

> <Gold.PLP.Chemscore.Hbond>
1.1760

> <Gold.PLP.Chemscore.CHOScore>
0.0000

> <Gold.PLP.Chemscore.Metal>
0.0000

> <Gold.Chemscore.Hbonds>
donor molecule, donor type, donor heavy atom, donor atom, acceptor molecule, acceptor atom, score
      P1  H  7989  7998       L1     8  1.00
      P1  H  7997  8008       L1     5  0.18

> <Gold.PLP.Chemscore.Internal.Correction>
0.0795

> <Gold.Rescore>
     Score         DG    S(hbond)    S(metal)    S(lipo)     H(rot)  DE(clash)    DE(int)     intcor
     11.28     -12.50       0.79        0.00      63.44       1.18       0.09       1.13       ----

> <Gold.Chemscore.Fitness>
11.2803

> <Gold.Chemscore.DG>
-12.5022

> <Gold.Chemscore.ZeroCoef>
-5.4800

> <Gold.Chemscore.Hbond>
0.7871

> <Gold.Chemscore.Metal>
0.0000

> <Gold.Chemscore.Lipo>
63.4420

> <Gold.Chemscore.Internal_Hbond>
0.0000

> <Gold.Chemscore.DEClash>
0.0932

> <Gold.Chemscore.DEInternal>
1.1288

> <Gold.Chemscore.Rot>
1.1833

> <Gold.Chemscore.Internal.Correction>
   9.000000E+99

> <Gold.Chemscore.Hbonds>
donor molecule, donor type, donor heavy atom, donor atom, acceptor molecule, acceptor atom, score
      P1  H  7989  7998       L1     8  0.09

> <Gold.Chemscore.Hbond.Weighted>
-2.6289

> <Gold.Chemscore.Metal.Weighted>
-0.0000

> <Gold.Chemscore.Lipo.Weighted>
-7.4227

> <Gold.Chemscore.Internal_Hbond.Weighted>
0.0000

> <Gold.Chemscore.DEClash.Weighted>
0.0932

> <Gold.Chemscore.DEInternal.Weighted>
1.1288

> <Gold.Chemscore.Rot.Weighted>
3.0293

> <Gold.Chemscore.Internal.Correction.Weighted>
   9.000000E+99

> <Gold.Protein.RotatedTorsions>
[ 6907 6896 6895 6894 ] final  102.07 input  -60.11 | X-H torsion
[ 7974 7965 7964 7962 ] final  117.54 input  175.53 | X-H torsion
[ 8008 7997 7996 7995 ] final  -95.20 input   59.86 | X-H torsion
[ 10167 10162 10161 10158 ] final   19.19 input  -65.29 | X-H torsion
[ 10718 10713 10712 10709 ] final  -93.79 input   66.30 | X-H torsion
[ 10763 10752 10751 10750 ] final   50.62 input  -60.55 | X-H torsion
[ 11005 11000 10999 10996 ] final   23.49 input  -57.11 | X-H torsion

> <Gold.Protein.ActiveResidues>
 VAL166  LYS551  ARG553  GLY616  TRP617  ASP618  TYR619  PRO620  LYS621  CYS622 
 ASP623  PHE694  ASN695  SER759  ASP760  ASP761  ALA762  ILE779  LEU786  VAL792 
 PHE793  MET794  SER795  GLU796  ALA797  LYS798  CYS799  TRP800  GLU811  SER814 

> <Gold.Protein.RotatedAtoms>
  152.5333  134.0031  159.7903 H   0  0  0  0  0  0  0  0  0  0  0  0  # atno 6907 bound_to 6896
  151.0246  133.5837  159.2674 H   0  0  0  0  0  0  0  0  0  0  0  0  # atno 6908 bound_to 6896
  151.2864  135.0736  159.9242 H   0  0  0  0  0  0  0  0  0  0  0  0  # atno 6909 bound_to 6896
  145.1661  139.3127  143.4492 H   0  0  0  0  0  0  0  0  0  0  0  0  # atno 7974 bound_to 7965
  154.7583  140.0482  157.0952 H   0  0  0  0  0  0  0  0  0  0  0  0  # atno 8008 bound_to 7997
  154.9969  140.3120  155.4863 H   0  0  0  0  0  0  0  0  0  0  0  0  # atno 8009 bound_to 7997
  156.2899  140.2208  156.5077 H   0  0  0  0  0  0  0  0  0  0  0  0  # atno 8010 bound_to 7997
  140.5597  143.9359  150.6634 H   0  0  0  0  0  0  0  0  0  0  0  0  # atno 10167 bound_to 10162
  156.0018  130.5041  150.5829 H   0  0  0  0  0  0  0  0  0  0  0  0  # atno 10718 bound_to 10713
  152.9784  135.5873  154.4282 H   0  0  0  0  0  0  0  0  0  0  0  0  # atno 10763 bound_to 10752
  154.3899  135.2767  155.2163 H   0  0  0  0  0  0  0  0  0  0  0  0  # atno 10764 bound_to 10752
  154.4040  135.6097  153.5968 H   0  0  0  0  0  0  0  0  0  0  0  0  # atno 10765 bound_to 10752
  140.3691  134.2042  155.7668 H   0  0  0  0  0  0  0  0  0  0  0  0  # atno 11005 bound_to 11000
  146.3475  140.1790  142.8589 LP  0  0  0  0  0  0  0  0  0  0  0  0  # atno 17320 bound_to 7965
  145.0280  140.8848  143.5126 LP  0  0  0  0  0  0  0  0  0  0  0  0  # atno 17321 bound_to 7965
  140.2807  143.3391  152.1154 LP  0  0  0  0  0  0  0  0  0  0  0  0  # atno 17342 bound_to 10162
  139.5064  144.6813  151.6000 LP  0  0  0  0  0  0  0  0  0  0  0  0  # atno 17343 bound_to 10162
  157.3707  131.0765  151.1560 LP  0  0  0  0  0  0  0  0  0  0  0  0  # atno 17370 bound_to 10713
  157.2315  130.6527  149.5851 LP  0  0  0  0  0  0  0  0  0  0  0  0  # atno 17371 bound_to 10713
  141.1960  133.8092  157.0690 LP  0  0  0  0  0  0  0  0  0  0  0  0  # atno 17394 bound_to 11000
  140.0566  134.9777  157.1231 LP  0  0  0  0  0  0  0  0  0  0  0  0  # atno 17395 bound_to 11000

$$$$
