AV-unprocessed.smi:99|AV-procd|sdf|889|dock3
  -GOLD-   2262017373D 1   1.00000     0.00000
 Structure written by MMmdl.
 52 55  0  0  0  0  0  0  0  0  2 V2000
  147.3993  137.1712  161.1722 O   0  0  0  0  0  0  0  0  0  0  0  0
  147.8125  136.2284  160.4936 C   0  0  0  0  0  0  0  0  0  0  0  0
  148.4954  136.3813  159.3423 O   0  0  0  0  0  0  0  0  0  0  0  0
  149.3123  137.5238  159.1494 C   0  0  0  0  0  0  0  0  0  0  0  0
  150.5035  137.1522  158.2437 C   0  0  2  0  0  0  0  0  0  0  0  0
  151.5850  136.7452  159.0709 O   0  0  0  0  0  0  0  0  0  0  0  0
  152.3478  137.8559  159.4371 C   0  0  1  0  0  0  0  0  0  0  0  0
  153.8072  137.4537  159.3969 N   0  0  0  0  0  0  0  0  0  0  0  0
  154.6058  137.6413  160.5119 C   0  0  0  0  0  0  0  0  0  0  0  0
  155.9096  137.2963  160.5089 C   0  0  0  0  0  0  0  0  0  0  0  0
  156.4929  136.7127  159.3042 C   0  0  0  0  0  0  0  0  0  0  0  0
  157.6841  136.4085  159.3070 O   0  0  0  0  0  0  0  0  0  0  0  0
  155.6821  136.5289  158.2220 N   0  5  0  0  0  0  0  0  0  0  0  0
  154.3601  136.8703  158.2241 C   0  0  0  0  0  0  0  0  0  0  0  0
  153.6186  136.6876  157.2586 O   0  0  0  0  0  0  0  0  0  0  0  0
  152.0070  139.0115  158.4683 C   0  0  1  0  0  0  0  0  0  0  0  0
  153.1262  139.5935  157.8253 O   0  0  0  0  0  0  0  0  0  0  0  0
  151.0959  138.3274  157.4556 C   0  0  2  0  0  0  0  0  0  0  0  0
  150.0643  139.1924  156.9950 O   0  0  0  0  0  0  0  0  0  0  0  0
  150.1811  139.8598  155.8288 C   0  0  0  0  0  0  0  0  0  0  0  0
  151.2028  139.8640  155.1397 O   0  0  0  0  0  0  0  0  0  0  0  0
  148.9347  140.5904  155.4582 C   0  0  0  0  0  0  0  0  0  0  0  0
  148.8091  141.1339  154.1582 C   0  0  0  0  0  0  0  0  0  0  0  0
  147.6415  141.8243  153.7792 C   0  0  0  0  0  0  0  0  0  0  0  0
  146.5850  141.9797  154.6952 C   0  0  0  0  0  0  0  0  0  0  0  0
  146.6976  141.4445  155.9917 C   0  0  0  0  0  0  0  0  0  0  0  0
  147.8646  140.7542  156.3729 C   0  0  0  0  0  0  0  0  0  0  0  0
  147.6086  134.7979  160.8624 C   0  0  0  0  0  0  0  0  0  0  0  0
  148.1224  133.7846  160.0196 C   0  0  0  0  0  0  0  0  0  0  0  0
  147.9451  132.4249  160.3419 C   0  0  0  0  0  0  0  0  0  0  0  0
  147.2512  132.0619  161.5109 C   0  0  0  0  0  0  0  0  0  0  0  0
  146.7349  133.0602  162.3574 C   0  0  0  0  0  0  0  0  0  0  0  0
  146.9117  134.4204  162.0370 C   0  0  0  0  0  0  0  0  0  0  0  0
  148.7073  138.2993  158.6782 H   0  0  0  0  0  0  0  0  0  0  0  0
  149.6557  137.9145  160.1083 H   0  0  0  0  0  0  0  0  0  0  0  0
  150.2146  136.3468  157.5676 H   0  0  0  0  0  0  0  0  0  0  0  0
  152.1054  138.0936  160.4732 H   0  0  0  0  0  0  0  0  0  0  0  0
  154.1797  138.0674  161.4082 H   0  0  0  0  0  0  0  0  0  0  0  0
  156.5174  137.4480  161.3889 H   0  0  0  0  0  0  0  0  0  0  0  0
  151.4633  139.7730  159.0292 H   0  0  0  0  0  0  0  0  0  0  0  0
  153.9110  139.2026  158.1783 H   0  0  0  0  0  0  0  0  0  0  0  0
  151.6853  137.9203  156.6320 H   0  0  0  0  0  0  0  0  0  0  0  0
  149.6064  141.0266  153.4370 H   0  0  0  0  0  0  0  0  0  0  0  0
  147.5565  142.2344  152.7836 H   0  0  0  0  0  0  0  0  0  0  0  0
  145.6894  142.5081  154.4041 H   0  0  0  0  0  0  0  0  0  0  0  0
  145.8873  141.5624  156.6958 H   0  0  0  0  0  0  0  0  0  0  0  0
  147.9167  140.3560  157.3756 H   0  0  0  0  0  0  0  0  0  0  0  0
  148.6582  134.0391  159.1163 H   0  0  0  0  0  0  0  0  0  0  0  0
  148.3422  131.6602  159.6907 H   0  0  0  0  0  0  0  0  0  0  0  0
  147.1152  131.0193  161.7574 H   0  0  0  0  0  0  0  0  0  0  0  0
  146.2013  132.7828  163.2546 H   0  0  0  0  0  0  0  0  0  0  0  0
  146.5030  135.1611  162.7089 H   0  0  0  0  0  0  0  0  0  0  0  0
  1  2  2  0  0  0  0
  2  3  1  0  0  0  0
  2 28  1  0  0  0  0
  3  4  1  0  0  0  0
  4  5  1  0  0  0  0
  4 34  1  0  0  0  0
  4 35  1  0  0  0  0
  5 18  1  0  0  0  0
  5  6  1  0  0  0  0
  5 36  1  0  0  0  0
  6  7  1  0  0  0  0
  7  8  1  0  0  0  0
  7 16  1  0  0  0  0
  7 37  1  0  0  0  0
  8 14  1  0  0  0  0
  8  9  1  0  0  0  0
  9 10  2  0  0  0  0
  9 38  1  0  0  0  0
 10 11  1  0  0  0  0
 10 39  1  0  0  0  0
 11 12  2  0  0  0  0
 11 13  1  0  0  0  0
 13 14  1  0  0  0  0
 14 15  2  0  0  0  0
 16 17  1  0  0  0  0
 16 18  1  0  0  0  0
 16 40  1  0  0  0  0
 17 41  1  0  0  0  0
 18 19  1  0  0  0  0
 18 42  1  0  0  0  0
 19 20  1  0  0  0  0
 20 21  2  0  0  0  0
 20 22  1  0  0  0  0
 22 27  1  0  0  0  0
 22 23  2  0  0  0  0
 23 24  1  0  0  0  0
 23 43  1  0  0  0  0
 24 25  2  0  0  0  0
 24 44  1  0  0  0  0
 25 26  1  0  0  0  0
 25 45  1  0  0  0  0
 26 27  2  0  0  0  0
 26 46  1  0  0  0  0
 27 47  1  0  0  0  0
 28 33  1  0  0  0  0
 28 29  2  0  0  0  0
 29 30  1  0  0  0  0
 29 48  1  0  0  0  0
 30 31  2  0  0  0  0
 30 49  1  0  0  0  0
 31 32  1  0  0  0  0
 31 50  1  0  0  0  0
 32 33  2  0  0  0  0
 32 51  1  0  0  0  0
 33 52  1  0  0  0  0
M  CHG  1  13  -1
M  END
> <s_m_source_file>
AV-unprocessed.smi

> <i_m_source_file_index>
99

> <i_lp_mmshare_version>
43012

> <i_f3d_flags>
0

> <s_epik_input>
W2NIXTFbY0hdW2NIXVtjSF1bY0hdYzFDKD1PKU9bQ0gyXVtDQEBIXTJPW0NAQEhdKG4zW2NIXVtjSF1jKD1PKVtuSF1jMz1PKVtDQEBIXShbT0hdKVtDQEhdMk9DKD1PKWM0W2NIXVtjSF1bY0hdW2NIXVtjSF00

> <s_epik_cmdline>
J2VwaWtfcHl0aG9uJywgJy1waCcsICc3LjAnLCAnLXRuJywgJzgnLCAnLW1hJywgJzIwMCcsICctbWV0YWxfYmluZGluZycsICctaW1hZScsICc8aW5maWxlLm1hZT4nLCAnLW9tYWUnLCAnPG91dGZpbGUubWFlPic=

> <r_lp_tautomer_probability>
1

> <r_epik_Ionization_Penalty>
2.89159

> <r_epik_Ionization_Penalty_Charging>
2.1077e-08

> <r_epik_Ionization_Penalty_Neutral>
2.89159

> <r_epik_State_Penalty>
2.88671

> <r_epik_Charging_Adjusted_Penalty>
2.88671

> <i_epik_Tot_Q>
-1

> <i_epik_Tot_abs_Q>
1

> <r_epik_Metal_State_Penalty>
0.0727308

> <b_epik_Metal_Only>
1

> <s_epik_Chemistry_Notes>
This compound has an ester and may undergo hydrolysis at high or low pH. This compound contains an acetal/aminal-like group ( X-CH(R)-Y where X, Y are N, S, or O) that may be acid/base labile, releasing an aldehyde.

> <s_lp_Force_Field>
OPLS_2005

> <r_lp_Energy>
49.6514

> <b_lp_Chiralities_Consistent>
1

> <s_lp_Variant>
AV-unprocessed.smi:99-25

> <Gold.Version>
5.8.1

> <Gold.Id.Protein>
6NUR|6NUR_protein|mol2

> <Gold.PLP.Fitness>
54.1629

> <Gold.PLP.PLP>
-42.3299

> <Gold.PLP.part.hbond>
-6.0000

> <Gold.PLP.part.metal>
0.0000

> <Gold.PLP.part.buried>
-6.5411

> <Gold.PLP.part.nonpolar>
-30.8525

> <Gold.PLP.part.repulsive>
0.0808

> <Gold.PLP.ligand.clash>
0.0000

> <Gold.PLP.ligand.torsion>
1.5566

> <Gold.PLP.Chemscore.Hbond>
4.8200

> <Gold.PLP.Chemscore.CHOScore>
0.0000

> <Gold.PLP.Chemscore.Metal>
0.0000

> <Gold.Chemscore.Hbonds>
donor molecule, donor type, donor heavy atom, donor atom, acceptor molecule, acceptor atom, score
      P1  H  6896  6907       L1     6  0.85
      P1  H  6931  6943       L1     1  0.76
      P1  H  6934  6947       L1     1  1.00
      P1  H  7989  7998       L1    21  1.00
      P1  H  7997  8008       L1    17  0.03
      P1  H 10752 10765       L1    15  0.20

> <Gold.PLP.Chemscore.Internal.Correction>
0.4861

> <Gold.Rescore>
     Score         DG    S(hbond)    S(metal)    S(lipo)     H(rot)  DE(clash)    DE(int)     intcor
     18.96     -22.44       4.40        0.00      88.02       3.13       0.02       3.46       ----

> <Gold.Chemscore.Fitness>
18.9577

> <Gold.Chemscore.DG>
-22.4372

> <Gold.Chemscore.ZeroCoef>
-5.4800

> <Gold.Chemscore.Hbond>
4.3963

> <Gold.Chemscore.Metal>
0.0000

> <Gold.Chemscore.Lipo>
88.0191

> <Gold.Chemscore.Internal_Hbond>
0.0000

> <Gold.Chemscore.DEClash>
0.0188

> <Gold.Chemscore.DEInternal>
3.4607

> <Gold.Chemscore.Rot>
3.1346

> <Gold.Chemscore.Internal.Correction>
   9.000000E+99

> <Gold.Chemscore.Hbonds>
donor molecule, donor type, donor heavy atom, donor atom, acceptor molecule, acceptor atom, score
      P1  H  6896  6907       L1     6  0.62
      P1  H  6931  6943       L1     1  0.51
      P1  H  6934  6947       L1     1  0.95
      P1  H  7989  7998       L1    21  0.98
      P1  H 10752 10765       L1    15  0.21

> <Gold.Chemscore.Hbond.Weighted>
-14.6836

> <Gold.Chemscore.Metal.Weighted>
-0.0000

> <Gold.Chemscore.Lipo.Weighted>
-10.2982

> <Gold.Chemscore.Internal_Hbond.Weighted>
0.0000

> <Gold.Chemscore.DEClash.Weighted>
0.0188

> <Gold.Chemscore.DEInternal.Weighted>
3.4607

> <Gold.Chemscore.Rot.Weighted>
8.0246

> <Gold.Chemscore.Internal.Correction.Weighted>
   9.000000E+99

> <Gold.Protein.RotatedTorsions>
[ 6907 6896 6895 6894 ] final  -23.91 input  -60.11 | X-H torsion
[ 7974 7965 7964 7962 ] final  115.81 input  175.53 | X-H torsion
[ 8008 7997 7996 7995 ] final  -45.86 input   59.86 | X-H torsion
[ 10167 10162 10161 10158 ] final  115.86 input  -65.29 | X-H torsion
[ 10718 10713 10712 10709 ] final  136.82 input   66.30 | X-H torsion
[ 10763 10752 10751 10750 ] final -128.19 input  -60.55 | X-H torsion
[ 11005 11000 10999 10996 ] final   86.67 input  -57.11 | X-H torsion

> <Gold.Protein.ActiveResidues>
 VAL166  LYS551  ARG553  GLY616  TRP617  ASP618  TYR619  PRO620  LYS621  CYS622 
 ASP623  PHE694  ASN695  SER759  ASP760  ASP761  ALA762  ILE779  LEU786  VAL792 
 PHE793  MET794  SER795  GLU796  ALA797  LYS798  CYS799  TRP800  GLU811  SER814 

> <Gold.Protein.RotatedAtoms>
  151.1971  135.0427  159.8856 H   0  0  0  0  0  0  0  0  0  0  0  0  # atno 6907 bound_to 6896
  152.5435  134.0891  159.8279 H   0  0  0  0  0  0  0  0  0  0  0  0  # atno 6908 bound_to 6896
  151.1027  133.5184  159.2641 H   0  0  0  0  0  0  0  0  0  0  0  0  # atno 6909 bound_to 6896
  145.1873  139.3018  143.4386 H   0  0  0  0  0  0  0  0  0  0  0  0  # atno 7974 bound_to 7965
  154.4003  140.1386  156.3916 H   0  0  0  0  0  0  0  0  0  0  0  0  # atno 8008 bound_to 7997
  155.7909  140.3479  155.5328 H   0  0  0  0  0  0  0  0  0  0  0  0  # atno 8009 bound_to 7997
  155.8580  140.0952  157.1622 H   0  0  0  0  0  0  0  0  0  0  0  0  # atno 8010 bound_to 7997
  139.6287  144.7112  151.2478 H   0  0  0  0  0  0  0  0  0  0  0  0  # atno 10167 bound_to 10162
  157.4426  131.1059  151.0125 H   0  0  0  0  0  0  0  0  0  0  0  0  # atno 10718 bound_to 10713
  154.8755  135.3936  154.3717 H   0  0  0  0  0  0  0  0  0  0  0  0  # atno 10763 bound_to 10752
  153.4475  135.7027  153.6135 H   0  0  0  0  0  0  0  0  0  0  0  0  # atno 10764 bound_to 10752
  153.4689  135.3795  155.2348 H   0  0  0  0  0  0  0  0  0  0  0  0  # atno 10765 bound_to 10752
  139.8939  134.8371  156.2753 H   0  0  0  0  0  0  0  0  0  0  0  0  # atno 11005 bound_to 11000
  146.3442  140.2073  142.8589 LP  0  0  0  0  0  0  0  0  0  0  0  0  # atno 17320 bound_to 7965
  145.0076  140.8686  143.5244 LP  0  0  0  0  0  0  0  0  0  0  0  0  # atno 17321 bound_to 7965
  140.7426  143.6520  150.8240 LP  0  0  0  0  0  0  0  0  0  0  0  0  # atno 17342 bound_to 10162
  140.0141  143.5611  152.2827 LP  0  0  0  0  0  0  0  0  0  0  0  0  # atno 17343 bound_to 10162
  157.0983  130.5971  149.5454 LP  0  0  0  0  0  0  0  0  0  0  0  0  # atno 17370 bound_to 10713
  155.9955  130.5021  150.7460 LP  0  0  0  0  0  0  0  0  0  0  0  0  # atno 17371 bound_to 10713
  141.0074  133.7115  156.1057 LP  0  0  0  0  0  0  0  0  0  0  0  0  # atno 17394 bound_to 11000
  140.7414  134.4146  157.5554 LP  0  0  0  0  0  0  0  0  0  0  0  0  # atno 17395 bound_to 11000

$$$$
