AV-unprocessed.smi:2148|AV-procd|sdf|8746|dock4
  -GOLD-   2272011523D 1   1.00000     0.00000
 Structure written by MMmdl.
 44 45  0  0  0  0  0  0  0  0  1 V2000
  148.3045  133.1465  153.1349 C   0  0  0  0  0  0  0  0  0  0  0  0
  148.5468  134.3293  154.4884 S   0  0  0  0  0  0  0  0  0  0  0  0
  150.3440  134.2096  154.7382 C   0  0  2  0  0  0  0  0  0  0  0  0
  150.7189  132.8024  155.2302 C   0  0  0  0  0  0  0  0  0  0  0  0
  150.8635  135.2896  155.6965 C   0  0  0  0  0  0  0  0  0  0  0  0
  151.2554  134.9724  156.8197 O   0  0  0  0  0  0  0  0  0  0  0  0
  150.8231  136.5521  155.2309 N   0  0  0  0  0  0  0  0  0  0  0  0
  151.2279  137.7512  155.8771 C   0  0  0  0  0  0  0  0  0  0  0  0
  151.4826  138.9716  155.2100 C   0  0  0  0  0  0  0  0  0  0  0  0
  151.8580  140.0975  155.9675 C   0  0  0  0  0  0  0  0  0  0  0  0
  151.9617  139.9842  157.3739 C   0  0  0  0  0  0  0  0  0  0  0  0
  152.3346  141.1027  158.1505 N   0  0  0  0  0  0  0  0  0  0  0  0
  151.5238  142.3022  157.9591 C   0  0  0  0  0  0  0  0  0  0  0  0
  152.2068  143.5232  158.6047 C   0  0  1  0  0  0  0  0  0  0  0  0
  151.3280  144.7763  158.5358 C   0  0  0  0  0  0  0  0  0  0  0  0
  152.4760  143.2414  159.9754 O   0  0  0  0  0  0  0  0  0  0  0  0
  153.3606  142.1365  160.1399 C   0  0  1  0  0  0  0  0  0  0  0  0
  153.6623  141.9787  161.6340 C   0  0  0  0  0  0  0  0  0  0  0  0
  152.7072  140.8752  159.5451 C   0  0  0  0  0  0  0  0  0  0  0  0
  151.7105  138.8137  158.0101 N   0  0  0  0  0  0  0  0  0  0  0  0
  151.3494  137.7376  157.2806 C   0  0  0  0  0  0  0  0  0  0  0  0
  147.2437  133.0602  152.9006 H   0  0  0  0  0  0  0  0  0  0  0  0
  148.6767  132.1615  153.4164 H   0  0  0  0  0  0  0  0  0  0  0  0
  148.8267  133.4744  152.2363 H   0  0  0  0  0  0  0  0  0  0  0  0
  150.8142  134.3504  153.7636 H   0  0  0  0  0  0  0  0  0  0  0  0
  151.7928  132.7125  155.3989 H   0  0  0  0  0  0  0  0  0  0  0  0
  150.4400  132.0473  154.4947 H   0  0  0  0  0  0  0  0  0  0  0  0
  150.2118  132.5542  156.1637 H   0  0  0  0  0  0  0  0  0  0  0  0
  150.3952  136.6729  154.3243 H   0  0  0  0  0  0  0  0  0  0  0  0
  151.3875  139.0723  154.1402 H   0  0  0  0  0  0  0  0  0  0  0  0
  152.0703  141.0273  155.4615 H   0  0  0  0  0  0  0  0  0  0  0  0
  151.3538  142.5079  156.9032 H   0  0  0  0  0  0  0  0  0  0  0  0
  150.5447  142.1369  158.4106 H   0  0  0  0  0  0  0  0  0  0  0  0
  153.1471  143.7313  158.0910 H   0  0  0  0  0  0  0  0  0  0  0  0
  151.1046  145.0426  157.5026 H   0  0  0  0  0  0  0  0  0  0  0  0
  151.8271  145.6281  158.9984 H   0  0  0  0  0  0  0  0  0  0  0  0
  150.3812  144.6232  159.0545 H   0  0  0  0  0  0  0  0  0  0  0  0
  154.2961  142.3465  159.6183 H   0  0  0  0  0  0  0  0  0  0  0  0
  154.3496  141.1509  161.8098 H   0  0  0  0  0  0  0  0  0  0  0  0
  152.7519  141.7851  162.2021 H   0  0  0  0  0  0  0  0  0  0  0  0
  154.1207  142.8825  162.0359 H   0  0  0  0  0  0  0  0  0  0  0  0
  151.8169  140.6073  160.1160 H   0  0  0  0  0  0  0  0  0  0  0  0
  153.4047  140.0394  159.6152 H   0  0  0  0  0  0  0  0  0  0  0  0
  151.1555  136.8334  157.8391 H   0  0  0  0  0  0  0  0  0  0  0  0
  1  2  1  0  0  0  0
  1 22  1  0  0  0  0
  1 23  1  0  0  0  0
  1 24  1  0  0  0  0
  2  3  1  0  0  0  0
  3  4  1  0  0  0  0
  3  5  1  0  0  0  0
  3 25  1  0  0  0  0
  4 26  1  0  0  0  0
  4 27  1  0  0  0  0
  4 28  1  0  0  0  0
  5  6  2  0  0  0  0
  5  7  1  0  0  0  0
  7  8  1  0  0  0  0
  7 29  1  0  0  0  0
  8 21  1  0  0  0  0
  8  9  2  0  0  0  0
  9 10  1  0  0  0  0
  9 30  1  0  0  0  0
 10 11  2  0  0  0  0
 10 31  1  0  0  0  0
 11 12  1  0  0  0  0
 11 20  1  0  0  0  0
 12 19  1  0  0  0  0
 12 13  1  0  0  0  0
 13 14  1  0  0  0  0
 13 32  1  0  0  0  0
 13 33  1  0  0  0  0
 14 15  1  0  0  0  0
 14 16  1  0  0  0  0
 14 34  1  0  0  0  0
 15 35  1  0  0  0  0
 15 36  1  0  0  0  0
 15 37  1  0  0  0  0
 16 17  1  0  0  0  0
 17 18  1  0  0  0  0
 17 19  1  0  0  0  0
 17 38  1  0  0  0  0
 18 39  1  0  0  0  0
 18 40  1  0  0  0  0
 18 41  1  0  0  0  0
 19 42  1  0  0  0  0
 19 43  1  0  0  0  0
 20 21  2  0  0  0  0
 21 44  1  0  0  0  0
M  END
> <s_m_source_file>
AV-unprocessed.smi

> <i_m_source_file_index>
2148

> <i_lp_mmshare_version>
43012

> <i_f3d_flags>
0

> <s_epik_input>
W0NIM11TW0NASF0oW0NIM10pQyg9TylbTkhdYzFbY0hdW2NIXWMobltjSF0xKU4yW0NIMl1bQ0BASF0oW0NIM10pT1tDQEBIXShbQ0gzXSlbQ0gyXTI=

> <s_epik_cmdline>
J2VwaWtfcHl0aG9uJywgJy1waCcsICc3LjAnLCAnLXRuJywgJzgnLCAnLW1hJywgJzIwMCcsICctbWV0YWxfYmluZGluZycsICctaW1hZScsICc8aW5maWxlLm1hZT4nLCAnLW9tYWUnLCAnPG91dGZpbGUubWFlPic=

> <r_lp_tautomer_probability>
1

> <r_epik_Ionization_Penalty>
0.000646494

> <r_epik_Ionization_Penalty_Charging>
0

> <r_epik_Ionization_Penalty_Neutral>
0.000646494

> <r_epik_State_Penalty>
0.000408447

> <r_epik_Charging_Adjusted_Penalty>
0.000408447

> <i_epik_Tot_Q>
0

> <i_epik_Tot_abs_Q>
0

> <r_epik_Metal_State_Penalty>
-0

> <b_epik_Metal_Only>
0

> <s_lp_Force_Field>
OPLS_2005

> <r_lp_Energy>
22.6119

> <b_lp_Chiralities_Consistent>
1

> <s_lp_Variant>
AV-unprocessed.smi:2148-1

> <Gold.Version>
5.8.1

> <Gold.Id.Protein>
6NUR|6NUR_protein|mol2

> <Gold.PLP.Fitness>
39.7297

> <Gold.PLP.PLP>
-40.4147

> <Gold.PLP.part.hbond>
-0.6136

> <Gold.PLP.part.metal>
0.0000

> <Gold.PLP.part.buried>
-6.0099

> <Gold.PLP.part.nonpolar>
-34.0146

> <Gold.PLP.part.repulsive>
0.0778

> <Gold.PLP.ligand.clash>
0.0000

> <Gold.PLP.ligand.torsion>
0.5206

> <Gold.PLP.Chemscore.Hbond>
0.0000

> <Gold.PLP.Chemscore.CHOScore>
0.0000

> <Gold.PLP.Chemscore.Metal>
0.0000

> <Gold.PLP.Chemscore.Internal.Correction>
0.3562

> <Gold.Rescore>
     Score         DG    S(hbond)    S(metal)    S(lipo)     H(rot)  DE(clash)    DE(int)     intcor
     13.37     -15.31       0.00        0.00     111.67       1.27       0.12       1.82       ----

> <Gold.Chemscore.Fitness>
13.3659

> <Gold.Chemscore.DG>
-15.3052

> <Gold.Chemscore.ZeroCoef>
-5.4800

> <Gold.Chemscore.Hbond>
0.0000

> <Gold.Chemscore.Metal>
0.0000

> <Gold.Chemscore.Lipo>
111.6729

> <Gold.Chemscore.Internal_Hbond>
0.0000

> <Gold.Chemscore.DEClash>
0.1176

> <Gold.Chemscore.DEInternal>
1.8216

> <Gold.Chemscore.Rot>
1.2659

> <Gold.Chemscore.Internal.Correction>
   9.000000E+99

> <Gold.Chemscore.Hbond.Weighted>
-0.0000

> <Gold.Chemscore.Metal.Weighted>
-0.0000

> <Gold.Chemscore.Lipo.Weighted>
-13.0657

> <Gold.Chemscore.Internal_Hbond.Weighted>
0.0000

> <Gold.Chemscore.DEClash.Weighted>
0.1176

> <Gold.Chemscore.DEInternal.Weighted>
1.8216

> <Gold.Chemscore.Rot.Weighted>
3.2406

> <Gold.Chemscore.Internal.Correction.Weighted>
   9.000000E+99

> <Gold.Protein.RotatedTorsions>
[ 6907 6896 6895 6894 ] final   42.50 input  -60.11 | X-H torsion
[ 7974 7965 7964 7962 ] final  138.36 input  175.53 | X-H torsion
[ 8008 7997 7996 7995 ] final   28.52 input   59.86 | X-H torsion
[ 10167 10162 10161 10158 ] final  -98.60 input  -65.29 | X-H torsion
[ 10718 10713 10712 10709 ] final -115.48 input   66.30 | X-H torsion
[ 10763 10752 10751 10750 ] final   45.14 input  -60.55 | X-H torsion
[ 11005 11000 10999 10996 ] final  -80.15 input  -57.11 | X-H torsion

> <Gold.Protein.ActiveResidues>
 VAL166  LYS551  ARG553  GLY616  TRP617  ASP618  TYR619  PRO620  LYS621  CYS622 
 ASP623  PHE694  ASN695  SER759  ASP760  ASP761  ALA762  ILE779  LEU786  VAL792 
 PHE793  MET794  SER795  GLU796  ALA797  LYS798  CYS799  TRP800  GLU811  SER814 

> <Gold.Protein.RotatedAtoms>
  152.2086  134.8522  160.0499 H   0  0  0  0  0  0  0  0  0  0  0  0  # atno 6907 bound_to 6896
  151.9349  133.3616  159.3952 H   0  0  0  0  0  0  0  0  0  0  0  0  # atno 6908 bound_to 6896
  150.6971  134.4424  159.5342 H   0  0  0  0  0  0  0  0  0  0  0  0  # atno 6909 bound_to 6896
  144.9380  139.4965  143.5585 H   0  0  0  0  0  0  0  0  0  0  0  0  # atno 7974 bound_to 7965
  155.0599  140.3189  155.4664 H   0  0  0  0  0  0  0  0  0  0  0  0  # atno 8008 bound_to 7997
  156.2815  140.2131  156.5670 H   0  0  0  0  0  0  0  0  0  0  0  0  # atno 8009 bound_to 7997
  154.7141  140.0495  157.0565 H   0  0  0  0  0  0  0  0  0  0  0  0  # atno 8010 bound_to 7997
  140.2712  143.3343  152.0532 H   0  0  0  0  0  0  0  0  0  0  0  0  # atno 10167 bound_to 10162
  156.0899  130.6083  150.8912 H   0  0  0  0  0  0  0  0  0  0  0  0  # atno 10718 bound_to 10713
  152.9829  135.6049  154.3389 H   0  0  0  0  0  0  0  0  0  0  0  0  # atno 10763 bound_to 10752
  154.3087  135.2771  155.2578 H   0  0  0  0  0  0  0  0  0  0  0  0  # atno 10764 bound_to 10752
  154.4798  135.5920  153.6437 H   0  0  0  0  0  0  0  0  0  0  0  0  # atno 10765 bound_to 10752
  141.1668  133.7137  156.8230 H   0  0  0  0  0  0  0  0  0  0  0  0  # atno 11005 bound_to 11000
  146.3274  139.8379  142.8896 LP  0  0  0  0  0  0  0  0  0  0  0  0  # atno 17320 bound_to 7965
  145.3036  141.0201  143.3595 LP  0  0  0  0  0  0  0  0  0  0  0  0  # atno 17321 bound_to 7965
  139.4988  144.6655  151.6366 LP  0  0  0  0  0  0  0  0  0  0  0  0  # atno 17342 bound_to 10162
  140.5888  143.9817  150.6312 LP  0  0  0  0  0  0  0  0  0  0  0  0  # atno 17343 bound_to 10162
  157.6045  131.0939  150.8904 LP  0  0  0  0  0  0  0  0  0  0  0  0  # atno 17370 bound_to 10713
  156.9055  130.5262  149.5281 LP  0  0  0  0  0  0  0  0  0  0  0  0  # atno 17371 bound_to 10713
  140.2105  134.8830  157.3270 LP  0  0  0  0  0  0  0  0  0  0  0  0  # atno 17394 bound_to 11000
  140.2091  134.4160  155.7622 LP  0  0  0  0  0  0  0  0  0  0  0  0  # atno 17395 bound_to 11000

$$$$
