AV-unprocessed.smi:3132|AV-procd|sdf|11936|dock10
  -GOLD-   2272017323D 1   1.00000     0.00000
 Structure written by MMmdl.
 33 34  0  0  0  0  0  0  0  0  1 V2000
  151.6350  140.6379  158.0520 C   0  0  0  0  0  0  0  0  0  0  0  0
  150.6434  141.7699  157.7458 C   0  0  1  0  0  0  0  0  0  0  0  0
  151.3683  143.1002  157.4671 C   0  0  0  0  0  0  0  0  0  0  0  0
  151.4592  143.9331  158.6523 N   0  0  0  0  0  0  0  0  0  0  0  0
  152.2135  143.6905  159.7929 C   0  0  0  0  0  0  0  0  0  0  0  0
  151.9929  144.7508  160.6425 C   0  0  0  0  0  0  0  0  0  0  0  0
  151.1093  145.6502  160.0504 N   0  0  0  0  0  0  0  0  0  0  0  0
  150.8372  145.0990  158.8746 C   0  0  0  0  0  0  0  0  0  0  0  0
  149.8148  141.4038  156.5989 N   0  0  0  0  0  0  0  0  0  0  0  0
  150.2407  140.7696  155.4961 C   0  0  0  0  0  0  0  0  0  0  0  0
  151.4130  140.4393  155.3144 O   0  0  0  0  0  0  0  0  0  0  0  0
  149.1677  140.4461  154.4501 C   0  0  1  0  0  0  0  0  0  0  0  0
  147.9475  139.6863  155.0044 C   0  0  0  0  0  0  0  0  0  0  0  0
  146.8337  140.7135  154.9551 C   0  0  0  0  0  0  0  0  0  0  0  0
  147.2572  141.5751  153.7743 C   0  0  0  0  0  0  0  0  0  0  0  0
  148.6626  141.6790  153.9405 O   0  0  0  0  0  0  0  0  0  0  0  0
  152.2536  140.8824  158.9159 H   0  0  0  0  0  0  0  0  0  0  0  0
  152.3004  140.4533  157.2082 H   0  0  0  0  0  0  0  0  0  0  0  0
  151.1127  139.7072  158.2761 H   0  0  0  0  0  0  0  0  0  0  0  0
  150.0121  141.9103  158.6253 H   0  0  0  0  0  0  0  0  0  0  0  0
  152.3816  142.9101  157.1110 H   0  0  0  0  0  0  0  0  0  0  0  0
  150.8605  143.6604  156.6805 H   0  0  0  0  0  0  0  0  0  0  0  0
  152.8311  142.8111  159.9011 H   0  0  0  0  0  0  0  0  0  0  0  0
  152.3988  144.9338  161.6264 H   0  0  0  0  0  0  0  0  0  0  0  0
  150.1720  145.5557  158.1563 H   0  0  0  0  0  0  0  0  0  0  0  0
  148.8323  141.6275  156.6603 H   0  0  0  0  0  0  0  0  0  0  0  0
  149.6081  139.8770  153.6296 H   0  0  0  0  0  0  0  0  0  0  0  0
  147.7097  138.8486  154.3477 H   0  0  0  0  0  0  0  0  0  0  0  0
  148.0872  139.2804  156.0072 H   0  0  0  0  0  0  0  0  0  0  0  0
  145.8459  140.2698  154.8287 H   0  0  0  0  0  0  0  0  0  0  0  0
  146.8299  141.3082  155.8696 H   0  0  0  0  0  0  0  0  0  0  0  0
  147.0362  141.0772  152.8288 H   0  0  0  0  0  0  0  0  0  0  0  0
  146.7787  142.5548  153.7711 H   0  0  0  0  0  0  0  0  0  0  0  0
  1  2  1  0  0  0  0
  1 17  1  0  0  0  0
  1 18  1  0  0  0  0
  1 19  1  0  0  0  0
  2  3  1  0  0  0  0
  2  9  1  0  0  0  0
  2 20  1  0  0  0  0
  3  4  1  0  0  0  0
  3 21  1  0  0  0  0
  3 22  1  0  0  0  0
  4  8  1  0  0  0  0
  4  5  1  0  0  0  0
  5  6  2  0  0  0  0
  5 23  1  0  0  0  0
  6  7  1  0  0  0  0
  6 24  1  0  0  0  0
  7  8  2  0  0  0  0
  8 25  1  0  0  0  0
  9 10  1  0  0  0  0
  9 26  1  0  0  0  0
 10 11  2  0  0  0  0
 10 12  1  0  0  0  0
 12 16  1  0  0  0  0
 12 13  1  0  0  0  0
 12 27  1  0  0  0  0
 13 14  1  0  0  0  0
 13 28  1  0  0  0  0
 13 29  1  0  0  0  0
 14 15  1  0  0  0  0
 14 30  1  0  0  0  0
 14 31  1  0  0  0  0
 15 16  1  0  0  0  0
 15 32  1  0  0  0  0
 15 33  1  0  0  0  0
M  END
> <s_m_source_file>
AV-unprocessed.smi

> <i_m_source_file_index>
3132

> <i_lp_mmshare_version>
43012

> <i_f3d_flags>
0

> <s_epik_input>
W2NIXTFuW2NIXVtjSF1uMVtDSDJdW0NAQEhdKFtDSDNdKVtOSF1DKD1PKVtDQEBIXTJbQ0gyXVtDSDJdW0NIMl1PMg==

> <s_epik_cmdline>
J2VwaWtfcHl0aG9uJywgJy1waCcsICc3LjAnLCAnLXRuJywgJzgnLCAnLW1hJywgJzIwMCcsICctbWV0YWxfYmluZGluZycsICctaW1hZScsICc8aW5maWxlLm1hZT4nLCAnLW9tYWUnLCAnPG91dGZpbGUubWFlPic=

> <r_lp_tautomer_probability>
1

> <r_epik_Ionization_Penalty>
0.630322

> <r_epik_Ionization_Penalty_Charging>
0.630322

> <r_epik_Ionization_Penalty_Neutral>
3.82652e-08

> <r_epik_State_Penalty>
0.647117

> <r_epik_Charging_Adjusted_Penalty>
1.27744

> <i_epik_Tot_Q>
0

> <i_epik_Tot_abs_Q>
0

> <r_epik_Metal_State_Penalty>
0.309095

> <b_epik_Metal_Only>
0

> <s_lp_Force_Field>
OPLS_2005

> <r_lp_Energy>
20.0706

> <b_lp_Chiralities_Consistent>
1

> <s_lp_Variant>
AV-unprocessed.smi:3132-8

> <Gold.Version>
5.8.1

> <Gold.Id.Protein>
6NUR|6NUR_protein|mol2

> <Gold.PLP.Fitness>
40.3939

> <Gold.PLP.PLP>
-34.8350

> <Gold.PLP.part.hbond>
-2.5339

> <Gold.PLP.part.metal>
0.0000

> <Gold.PLP.part.buried>
-7.1046

> <Gold.PLP.part.nonpolar>
-26.7004

> <Gold.PLP.part.repulsive>
0.4568

> <Gold.PLP.ligand.clash>
0.0000

> <Gold.PLP.ligand.torsion>
0.9363

> <Gold.PLP.Chemscore.Hbond>
1.4880

> <Gold.PLP.Chemscore.CHOScore>
0.9838

> <Gold.PLP.Chemscore.Metal>
0.0000

> <Gold.Chemscore.Hbonds>
donor molecule, donor type, donor heavy atom, donor atom, acceptor molecule, acceptor atom, score
      P1  H  7989  7998       L1    11  0.90
      P1  H  8011  8017       L1    16  0.50
      L1  C     8    25       P1  8029  1.00

> <Gold.PLP.Chemscore.Internal.Correction>
0.0160

> <Gold.Rescore>
     Score         DG    S(hbond)    S(metal)    S(lipo)     H(rot)  DE(clash)    DE(int)     intcor
      9.54     -12.25       1.05        0.00      68.72       1.86       0.27       2.45       ----

> <Gold.Chemscore.Fitness>
9.5403

> <Gold.Chemscore.DG>
-12.2537

> <Gold.Chemscore.ZeroCoef>
-5.4800

> <Gold.Chemscore.Hbond>
1.0491

> <Gold.Chemscore.Metal>
0.0000

> <Gold.Chemscore.Lipo>
68.7218

> <Gold.Chemscore.Internal_Hbond>
0.0000

> <Gold.Chemscore.DEClash>
0.2660

> <Gold.Chemscore.DEInternal>
2.4475

> <Gold.Chemscore.Rot>
1.8636

> <Gold.Chemscore.Internal.Correction>
   9.000000E+99

> <Gold.Chemscore.Hbonds>
donor molecule, donor type, donor heavy atom, donor atom, acceptor molecule, acceptor atom, score
      P1  H  7989  7998       L1    11  0.31
      P1  H  8011  8017       L1    16  0.39

> <Gold.Chemscore.Hbond.Weighted>
-3.5042

> <Gold.Chemscore.Metal.Weighted>
-0.0000

> <Gold.Chemscore.Lipo.Weighted>
-8.0405

> <Gold.Chemscore.Internal_Hbond.Weighted>
0.0000

> <Gold.Chemscore.DEClash.Weighted>
0.2660

> <Gold.Chemscore.DEInternal.Weighted>
2.4475

> <Gold.Chemscore.Rot.Weighted>
4.7709

> <Gold.Chemscore.Internal.Correction.Weighted>
   9.000000E+99

> <Gold.Protein.RotatedTorsions>
[ 6907 6896 6895 6894 ] final -173.96 input  -60.11 | X-H torsion
[ 7974 7965 7964 7962 ] final    2.66 input  175.53 | X-H torsion
[ 8008 7997 7996 7995 ] final -113.45 input   59.86 | X-H torsion
[ 10167 10162 10161 10158 ] final  -11.59 input  -65.29 | X-H torsion
[ 10718 10713 10712 10709 ] final -163.25 input   66.30 | X-H torsion
[ 10763 10752 10751 10750 ] final  122.94 input  -60.55 | X-H torsion
[ 11005 11000 10999 10996 ] final -142.84 input  -57.11 | X-H torsion

> <Gold.Protein.ActiveResidues>
 VAL166  LYS551  ARG553  GLY616  TRP617  ASP618  TYR619  PRO620  LYS621  CYS622 
 ASP623  PHE694  ASN695  SER759  ASP760  ASP761  ALA762  ILE779  LEU786  VAL792 
 PHE793  MET794  SER795  GLU796  ALA797  LYS798  CYS799  TRP800  GLU811  SER814 

> <Gold.Protein.RotatedAtoms>
  151.5645  133.3398  159.2977 H   0  0  0  0  0  0  0  0  0  0  0  0  # atno 6907 bound_to 6896
  150.8403  134.7695  159.6938 H   0  0  0  0  0  0  0  0  0  0  0  0  # atno 6908 bound_to 6896
  152.4472  134.5477  159.9909 H   0  0  0  0  0  0  0  0  0  0  0  0  # atno 6909 bound_to 6896
  146.2444  140.0802  142.8357 H   0  0  0  0  0  0  0  0  0  0  0  0  # atno 7974 bound_to 7965
  155.0209  140.0393  157.2437 H   0  0  0  0  0  0  0  0  0  0  0  0  # atno 8008 bound_to 7997
  154.7379  140.2743  155.6375 H   0  0  0  0  0  0  0  0  0  0  0  0  # atno 8009 bound_to 7997
  156.2857  140.2671  156.2098 H   0  0  0  0  0  0  0  0  0  0  0  0  # atno 8010 bound_to 7997
  140.7142  143.5623  150.9182 H   0  0  0  0  0  0  0  0  0  0  0  0  # atno 10167 bound_to 10162
  156.6220  130.8894  151.2959 H   0  0  0  0  0  0  0  0  0  0  0  0  # atno 10718 bound_to 10713
  153.6376  135.3385  155.3061 H   0  0  0  0  0  0  0  0  0  0  0  0  # atno 10763 bound_to 10752
  154.8566  135.4310  154.2039 H   0  0  0  0  0  0  0  0  0  0  0  0  # atno 10764 bound_to 10752
  153.2950  135.7020  153.7331 H   0  0  0  0  0  0  0  0  0  0  0  0  # atno 10765 bound_to 10752
  140.8185  134.2660  157.4910 H   0  0  0  0  0  0  0  0  0  0  0  0  # atno 11005 bound_to 11000
  145.0740  140.9175  143.4865 LP  0  0  0  0  0  0  0  0  0  0  0  0  # atno 17320 bound_to 7965
  145.0941  139.2869  143.5719 LP  0  0  0  0  0  0  0  0  0  0  0  0  # atno 17321 bound_to 7965
  139.9349  143.6450  152.3068 LP  0  0  0  0  0  0  0  0  0  0  0  0  # atno 17342 bound_to 10162
  139.6914  144.7646  151.1432 LP  0  0  0  0  0  0  0  0  0  0  0  0  # atno 17343 bound_to 10162
  157.7225  130.9577  150.1496 LP  0  0  0  0  0  0  0  0  0  0  0  0  # atno 17370 bound_to 10713
  156.2304  130.3681  149.8451 LP  0  0  0  0  0  0  0  0  0  0  0  0  # atno 17371 bound_to 10713
  139.8710  134.9522  156.4108 LP  0  0  0  0  0  0  0  0  0  0  0  0  # atno 17394 bound_to 11000
  140.9124  133.7702  155.9807 LP  0  0  0  0  0  0  0  0  0  0  0  0  # atno 17395 bound_to 11000

$$$$
