AV-unprocessed.smi:527|AV-procd|sdf|2830|dock10
  -GOLD-   2262023313D 1   1.00000     0.00000
 Structure written by MMmdl.
 43 44  0  0  0  0  0  0  0  0  2 V2000
  148.4691  140.4007  154.2571 C   0  0  0  0  0  0  0  0  0  0  0  0
  149.0689  138.9852  154.3353 C   0  0  1  0  0  0  0  0  0  0  0  0
  150.6089  139.0722  154.3662 C   0  0  0  0  0  0  0  0  0  0  0  0
  151.2669  137.6876  154.4315 C   0  0  0  0  0  0  0  0  0  0  0  0
  150.7522  136.8916  155.6391 C   0  0  0  0  0  0  0  0  0  0  0  0
  149.2150  136.7738  155.6336 C   0  0  2  0  0  0  0  0  0  0  0  0
  148.7609  135.9031  154.5481 N   0  0  0  0  0  0  0  0  0  0  0  0
  147.9685  134.8304  154.6851 C   0  0  0  0  0  0  0  0  0  0  0  0
  147.6063  134.3887  155.7775 O   0  0  0  0  0  0  0  0  0  0  0  0
  147.6318  134.3259  153.4829 N   0  0  0  0  0  0  0  0  0  0  0  0
  147.1075  133.1113  153.2197 C   0  0  0  0  0  0  0  0  0  0  0  0
  146.8676  132.2415  154.0590 O   0  0  0  0  0  0  0  0  0  0  0  0
  146.7802  132.8353  151.7520 C   0  0  0  0  0  0  0  0  0  0  0  0
  145.6510  133.6555  151.3037 N   0  0  0  0  0  0  0  0  0  0  0  0
  145.5879  135.0247  151.2463 C   0  0  0  0  0  0  0  0  0  0  0  0
  144.3384  135.3391  150.7770 C   0  0  0  0  0  0  0  0  0  0  0  0
  143.6917  134.1502  150.5691 N   0  3  0  0  0  0  0  0  0  0  0  0
  144.4908  133.1276  150.8907 C   0  0  0  0  0  0  0  0  0  0  0  0
  148.5406  138.1679  155.5481 C   0  0  2  0  0  0  0  0  0  0  0  0
  147.0034  138.0459  155.5720 C   0  0  0  0  0  0  0  0  0  0  0  0
  148.6522  140.9611  155.1745 H   0  0  0  0  0  0  0  0  0  0  0  0
  147.3930  140.3755  154.0870 H   0  0  0  0  0  0  0  0  0  0  0  0
  148.9053  140.9648  153.4321 H   0  0  0  0  0  0  0  0  0  0  0  0
  148.7854  138.4637  153.4200 H   0  0  0  0  0  0  0  0  0  0  0  0
  150.9700  139.6001  153.4829 H   0  0  0  0  0  0  0  0  0  0  0  0
  150.9261  139.6627  155.2268 H   0  0  0  0  0  0  0  0  0  0  0  0
  151.0651  137.1398  153.5103 H   0  0  0  0  0  0  0  0  0  0  0  0
  152.3501  137.7952  154.4942 H   0  0  0  0  0  0  0  0  0  0  0  0
  151.2128  135.9032  155.6595 H   0  0  0  0  0  0  0  0  0  0  0  0
  151.0695  137.3897  156.5561 H   0  0  0  0  0  0  0  0  0  0  0  0
  148.9119  136.3191  156.5788 H   0  0  0  0  0  0  0  0  0  0  0  0
  149.0730  136.1474  153.6198 H   0  0  0  0  0  0  0  0  0  0  0  0
  147.7829  134.9303  152.6890 H   0  0  0  0  0  0  0  0  0  0  0  0
  147.6384  133.0509  151.1137 H   0  0  0  0  0  0  0  0  0  0  0  0
  146.5251  131.7836  151.6120 H   0  0  0  0  0  0  0  0  0  0  0  0
  146.4140  135.6571  151.5375 H   0  0  0  0  0  0  0  0  0  0  0  0
  143.8731  136.2946  150.5821 H   0  0  0  0  0  0  0  0  0  0  0  0
  144.2456  132.0817  150.8329 H   0  0  0  0  0  0  0  0  0  0  0  0
  148.8246  138.7092  156.4519 H   0  0  0  0  0  0  0  0  0  0  0  0
  146.6166  137.6284  154.6418 H   0  0  0  0  0  0  0  0  0  0  0  0
  146.5262  139.0132  155.7259 H   0  0  0  0  0  0  0  0  0  0  0  0
  146.6757  137.4000  156.3872 H   0  0  0  0  0  0  0  0  0  0  0  0
  142.7445  134.0552  150.2239 H   0  0  0  0  0  0  0  0  0  0  0  0
  1  2  1  0  0  0  0
  1 21  1  0  0  0  0
  1 22  1  0  0  0  0
  1 23  1  0  0  0  0
  2 19  1  0  0  0  0
  2  3  1  0  0  0  0
  2 24  1  0  0  0  0
  3  4  1  0  0  0  0
  3 25  1  0  0  0  0
  3 26  1  0  0  0  0
  4  5  1  0  0  0  0
  4 27  1  0  0  0  0
  4 28  1  0  0  0  0
  5  6  1  0  0  0  0
  5 29  1  0  0  0  0
  5 30  1  0  0  0  0
  6  7  1  0  0  0  0
  6 19  1  0  0  0  0
  6 31  1  0  0  0  0
  7  8  1  0  0  0  0
  7 32  1  0  0  0  0
  8  9  2  0  0  0  0
  8 10  1  0  0  0  0
 10 11  1  0  0  0  0
 10 33  1  0  0  0  0
 11 12  2  0  0  0  0
 11 13  1  0  0  0  0
 13 14  1  0  0  0  0
 13 34  1  0  0  0  0
 13 35  1  0  0  0  0
 14 18  1  0  0  0  0
 14 15  1  0  0  0  0
 15 16  2  0  0  0  0
 15 36  1  0  0  0  0
 16 17  1  0  0  0  0
 16 37  1  0  0  0  0
 17 18  2  0  0  0  0
 17 43  1  0  0  0  0
 18 38  1  0  0  0  0
 19 20  1  0  0  0  0
 19 39  1  0  0  0  0
 20 40  1  0  0  0  0
 20 41  1  0  0  0  0
 20 42  1  0  0  0  0
M  CHG  1  17   1
M  END
> <s_m_source_file>
AV-unprocessed.smi

> <i_m_source_file_index>
527

> <i_lp_mmshare_version>
43012

> <i_f3d_flags>
0

> <s_epik_input>
W0NIM11bQ0BASF0xW0NIMl1bQ0gyXVtDSDJdW0NASF0oW0NASF0xW0NIM10pW05IXUMoPU8pW05IXUMoPU8pW0NIMl1uMltjSF1bY0hdbltjSF0y

> <s_epik_cmdline>
J2VwaWtfcHl0aG9uJywgJy1waCcsICc3LjAnLCAnLXRuJywgJzgnLCAnLW1hJywgJzIwMCcsICctbWV0YWxfYmluZGluZycsICctaW1hZScsICc8aW5maWxlLm1hZT4nLCAnLW9tYWUnLCAnPG91dGZpbGUubWFlPic=

> <r_lp_tautomer_probability>
1

> <r_epik_Ionization_Penalty>
0.816441

> <r_epik_Ionization_Penalty_Charging>
0

> <r_epik_Ionization_Penalty_Neutral>
0.816441

> <r_epik_State_Penalty>
0.849034

> <r_epik_Charging_Adjusted_Penalty>
0.849034

> <i_epik_Tot_Q>
1

> <i_epik_Tot_abs_Q>
1

> <r_epik_Metal_State_Penalty>
0.984327

> <b_epik_Metal_Only>
0

> <s_lp_Force_Field>
OPLS_2005

> <r_lp_Energy>
15.9829

> <b_lp_Chiralities_Consistent>
1

> <s_lp_Variant>
AV-unprocessed.smi:527-16

> <Gold.Version>
5.8.1

> <Gold.Id.Protein>
6NUR|6NUR_protein|mol2

> <Gold.PLP.Fitness>
45.5165

> <Gold.PLP.PLP>
-30.9574

> <Gold.PLP.part.hbond>
-3.0000

> <Gold.PLP.part.metal>
0.0000

> <Gold.PLP.part.buried>
-4.1722

> <Gold.PLP.part.nonpolar>
-24.1633

> <Gold.PLP.part.repulsive>
0.1260

> <Gold.PLP.ligand.clash>
0.0000

> <Gold.PLP.ligand.torsion>
0.2207

> <Gold.PLP.Chemscore.Hbond>
3.9920

> <Gold.PLP.Chemscore.CHOScore>
1.0000

> <Gold.PLP.Chemscore.Metal>
0.0000

> <Gold.Chemscore.Hbonds>
donor molecule, donor type, donor heavy atom, donor atom, acceptor molecule, acceptor atom, score
      L1  H     7    32       P1  7948  1.00
      L1  H    10    33       P1  7948  0.93
      L1  H    17    43       P1 10186  2.00
      L1  C    15    36       P1  7948  0.86

> <Gold.PLP.Chemscore.Internal.Correction>
0.0245

> <Gold.Rescore>
     Score         DG    S(hbond)    S(metal)    S(lipo)     H(rot)  DE(clash)    DE(int)     intcor
     15.51     -17.15       2.83        0.00      56.21       1.71       0.02       1.62       ----

> <Gold.Chemscore.Fitness>
15.5146

> <Gold.Chemscore.DG>
-17.1532

> <Gold.Chemscore.ZeroCoef>
-5.4800

> <Gold.Chemscore.Hbond>
2.8330

> <Gold.Chemscore.Metal>
0.0000

> <Gold.Chemscore.Lipo>
56.2061

> <Gold.Chemscore.Internal_Hbond>
0.0000

> <Gold.Chemscore.DEClash>
0.0176

> <Gold.Chemscore.DEInternal>
1.6210

> <Gold.Chemscore.Rot>
1.7052

> <Gold.Chemscore.Internal.Correction>
   9.000000E+99

> <Gold.Chemscore.Hbonds>
donor molecule, donor type, donor heavy atom, donor atom, acceptor molecule, acceptor atom, score
      L1  H     7    32       P1  7948  0.94
      L1  H    10    33       P1  7948  0.86
      L1  H    17    43       P1 10186  0.97

> <Gold.Chemscore.Hbond.Weighted>
-9.4624

> <Gold.Chemscore.Metal.Weighted>
-0.0000

> <Gold.Chemscore.Lipo.Weighted>
-6.5761

> <Gold.Chemscore.Internal_Hbond.Weighted>
0.0000

> <Gold.Chemscore.DEClash.Weighted>
0.0176

> <Gold.Chemscore.DEInternal.Weighted>
1.6210

> <Gold.Chemscore.Rot.Weighted>
4.3653

> <Gold.Chemscore.Internal.Correction.Weighted>
   9.000000E+99

> <Gold.Protein.RotatedTorsions>
[ 6907 6896 6895 6894 ] final -107.36 input  -60.11 | X-H torsion
[ 7974 7965 7964 7962 ] final  -81.09 input  175.53 | X-H torsion
[ 8008 7997 7996 7995 ] final  127.06 input   59.86 | X-H torsion
[ 10167 10162 10161 10158 ] final   61.71 input  -65.29 | X-H torsion
[ 10718 10713 10712 10709 ] final   -6.27 input   66.30 | X-H torsion
[ 10763 10752 10751 10750 ] final -164.43 input  -60.55 | X-H torsion
[ 11005 11000 10999 10996 ] final   23.15 input  -57.11 | X-H torsion

> <Gold.Protein.ActiveResidues>
 VAL166  LYS551  ARG553  GLY616  TRP617  ASP618  TYR619  PRO620  LYS621  CYS622 
 ASP623  PHE694  ASN695  SER759  ASP760  ASP761  ALA762  ILE779  LEU786  VAL792 
 PHE793  MET794  SER795  GLU796  ALA797  LYS798  CYS799  TRP800  GLU811  SER814 

> <Gold.Protein.RotatedAtoms>
  150.7440  133.9838  159.3584 H   0  0  0  0  0  0  0  0  0  0  0  0  # atno 6907 bound_to 6896
  151.7780  135.0767  160.0379 H   0  0  0  0  0  0  0  0  0  0  0  0  # atno 6908 bound_to 6896
  152.3293  133.5904  159.5835 H   0  0  0  0  0  0  0  0  0  0  0  0  # atno 6909 bound_to 6896
  145.5512  140.9496  143.1498 H   0  0  0  0  0  0  0  0  0  0  0  0  # atno 7974 bound_to 7965
  156.2881  140.2678  156.2212 H   0  0  0  0  0  0  0  0  0  0  0  0  # atno 8008 bound_to 7997
  155.0166  140.0387  157.2439 H   0  0  0  0  0  0  0  0  0  0  0  0  # atno 8009 bound_to 7997
  154.7472  140.2736  155.6328 H   0  0  0  0  0  0  0  0  0  0  0  0  # atno 8010 bound_to 7997
  140.1518  144.4455  150.6755 H   0  0  0  0  0  0  0  0  0  0  0  0  # atno 10167 bound_to 10162
  156.7343  130.5190  149.5838 H   0  0  0  0  0  0  0  0  0  0  0  0  # atno 10718 bound_to 10713
  154.7028  135.2991  154.9315 H   0  0  0  0  0  0  0  0  0  0  0  0  # atno 10763 bound_to 10752
  154.0241  135.6678  153.4779 H   0  0  0  0  0  0  0  0  0  0  0  0  # atno 10764 bound_to 10752
  153.0694  135.5069  154.8182 H   0  0  0  0  0  0  0  0  0  0  0  0  # atno 10765 bound_to 10752
  140.3727  134.2005  155.7666 H   0  0  0  0  0  0  0  0  0  0  0  0  # atno 11005 bound_to 11000
  144.7528  139.7149  143.7266 LP  0  0  0  0  0  0  0  0  0  0  0  0  # atno 17320 bound_to 7965
  146.1915  139.5158  142.9802 LP  0  0  0  0  0  0  0  0  0  0  0  0  # atno 17321 bound_to 7965
  140.6697  143.2281  151.5654 LP  0  0  0  0  0  0  0  0  0  0  0  0  # atno 17342 bound_to 10162
  139.5422  144.2617  152.1373 LP  0  0  0  0  0  0  0  0  0  0  0  0  # atno 17343 bound_to 10162
  156.1508  130.6308  151.0592 LP  0  0  0  0  0  0  0  0  0  0  0  0  # atno 17370 bound_to 10713
  157.6846  131.0828  150.7279 LP  0  0  0  0  0  0  0  0  0  0  0  0  # atno 17371 bound_to 10713
  141.1949  133.8117  157.0737 LP  0  0  0  0  0  0  0  0  0  0  0  0  # atno 17394 bound_to 11000
  140.0539  134.9791  157.1186 LP  0  0  0  0  0  0  0  0  0  0  0  0  # atno 17395 bound_to 11000

$$$$
