AV-unprocessed.smi:1475|AV-procd|sdf|5977|dock5
  -GOLD-   22720 6 73D 1   1.00000     0.00000
 Structure written by MMmdl.
 50 51  0  0  0  0  0  0  0  0  2 V2000
  146.6891  129.5802  153.1815 C   0  0  0  0  0  0  0  0  0  0  0  0
  146.1273  130.6394  152.2799 C   0  0  0  0  0  0  0  0  0  0  0  0
  144.9133  130.6123  151.5387 C   0  0  0  0  0  0  0  0  0  0  0  0
  144.8828  131.8174  150.8952 C   0  0  0  0  0  0  0  0  0  0  0  0
  143.8601  132.3873  149.9674 C   0  0  0  0  0  0  0  0  0  0  0  0
  146.0342  132.4946  151.2576 N   0  0  0  0  0  0  0  0  0  0  0  0
  146.4831  133.8202  150.8631 C   0  0  0  0  0  0  0  0  0  0  0  0
  145.6208  134.9046  151.5101 C   0  0  0  0  0  0  0  0  0  0  0  0
  144.3934  134.8271  151.4634 O   0  0  0  0  0  0  0  0  0  0  0  0
  146.2747  135.9078  152.1160 N   0  0  0  0  0  0  0  0  0  0  0  0
  145.6404  137.0110  152.8272 C   0  0  0  0  0  0  0  0  0  0  0  0
  146.4484  138.3175  152.6928 C   0  0  0  0  0  0  0  0  0  0  0  0
  146.0903  139.3199  153.7274 N   0  3  1  0  0  0  0  0  0  0  0  0
  146.3059  138.8000  155.1033 C   0  0  0  0  0  0  0  0  0  0  0  0
  145.7947  139.7837  156.1741 C   0  0  2  0  0  0  0  0  0  0  0  0
  144.2579  139.8268  156.2372 C   0  0  0  0  0  0  0  0  0  0  0  0
  146.4274  141.1737  155.9775 C   0  0  0  0  0  0  0  0  0  0  0  0
  146.2484  141.6824  154.5357 C   0  0  1  0  0  0  0  0  0  0  0  0
  146.9397  143.0381  154.3315 C   0  0  0  0  0  0  0  0  0  0  0  0
  146.7615  140.6328  153.5308 C   0  0  0  0  0  0  0  0  0  0  0  0
  146.7938  131.7693  152.1079 N   0  0  0  0  0  0  0  0  0  0  0  0
  146.0521  128.6956  153.1943 H   0  0  0  0  0  0  0  0  0  0  0  0
  146.7747  129.9420  154.2064 H   0  0  0  0  0  0  0  0  0  0  0  0
  147.6810  129.2696  152.8526 H   0  0  0  0  0  0  0  0  0  0  0  0
  144.1746  129.8262  151.4880 H   0  0  0  0  0  0  0  0  0  0  0  0
  143.0165  131.7066  149.8522 H   0  0  0  0  0  0  0  0  0  0  0  0
  144.2859  132.5620  148.9793 H   0  0  0  0  0  0  0  0  0  0  0  0
  143.4744  133.3343  150.3447 H   0  0  0  0  0  0  0  0  0  0  0  0
  147.5291  133.9484  151.1469 H   0  0  0  0  0  0  0  0  0  0  0  0
  146.4387  133.9071  149.7769 H   0  0  0  0  0  0  0  0  0  0  0  0
  147.2847  135.8837  152.1120 H   0  0  0  0  0  0  0  0  0  0  0  0
  144.6221  137.1242  152.4550 H   0  0  0  0  0  0  0  0  0  0  0  0
  145.5578  136.7317  153.8780 H   0  0  0  0  0  0  0  0  0  0  0  0
  147.5063  138.0675  152.7862 H   0  0  0  0  0  0  0  0  0  0  0  0
  146.3246  138.7609  151.7036 H   0  0  0  0  0  0  0  0  0  0  0  0
  145.8032  137.8396  155.2245 H   0  0  0  0  0  0  0  0  0  0  0  0
  147.3713  138.6140  155.2488 H   0  0  0  0  0  0  0  0  0  0  0  0
  146.1285  139.4119  157.1437 H   0  0  0  0  0  0  0  0  0  0  0  0
  143.8193  140.1539  155.2946 H   0  0  0  0  0  0  0  0  0  0  0  0
  143.9167  140.5085  157.0169 H   0  0  0  0  0  0  0  0  0  0  0  0
  143.8496  138.8415  156.4645 H   0  0  0  0  0  0  0  0  0  0  0  0
  146.0031  141.8844  156.6877 H   0  0  0  0  0  0  0  0  0  0  0  0
  147.4923  141.1146  156.2075 H   0  0  0  0  0  0  0  0  0  0  0  0
  145.1836  141.8335  154.3530 H   0  0  0  0  0  0  0  0  0  0  0  0
  148.0156  142.9641  154.4936 H   0  0  0  0  0  0  0  0  0  0  0  0
  146.5497  143.7856  155.0233 H   0  0  0  0  0  0  0  0  0  0  0  0
  146.7807  143.4124  153.3196 H   0  0  0  0  0  0  0  0  0  0  0  0
  147.8411  140.5071  153.6304 H   0  0  0  0  0  0  0  0  0  0  0  0
  146.5827  141.0002  152.5213 H   0  0  0  0  0  0  0  0  0  0  0  0
  145.0969  139.4794  153.6391 H   0  0  0  0  0  0  0  0  0  0  0  0
  1  2  1  0  0  0  0
  1 22  1  0  0  0  0
  1 23  1  0  0  0  0
  1 24  1  0  0  0  0
  2 21  2  0  0  0  0
  2  3  1  0  0  0  0
  3  4  2  0  0  0  0
  3 25  1  0  0  0  0
  4  5  1  0  0  0  0
  4  6  1  0  0  0  0
  5 26  1  0  0  0  0
  5 27  1  0  0  0  0
  5 28  1  0  0  0  0
  6  7  1  0  0  0  0
  6 21  1  0  0  0  0
  7  8  1  0  0  0  0
  7 29  1  0  0  0  0
  7 30  1  0  0  0  0
  8  9  2  0  0  0  0
  8 10  1  0  0  0  0
 10 11  1  0  0  0  0
 10 31  1  0  0  0  0
 11 12  1  0  0  0  0
 11 32  1  0  0  0  0
 11 33  1  0  0  0  0
 12 13  1  0  0  0  0
 12 34  1  0  0  0  0
 12 35  1  0  0  0  0
 13 20  1  0  0  0  0
 13 14  1  0  0  0  0
 13 50  1  0  0  0  0
 14 15  1  0  0  0  0
 14 36  1  0  0  0  0
 14 37  1  0  0  0  0
 15 16  1  0  0  0  0
 15 17  1  0  0  0  0
 15 38  1  0  0  0  0
 16 39  1  0  0  0  0
 16 40  1  0  0  0  0
 16 41  1  0  0  0  0
 17 18  1  0  0  0  0
 17 42  1  0  0  0  0
 17 43  1  0  0  0  0
 18 19  1  0  0  0  0
 18 20  1  0  0  0  0
 18 44  1  0  0  0  0
 19 45  1  0  0  0  0
 19 46  1  0  0  0  0
 19 47  1  0  0  0  0
 20 48  1  0  0  0  0
 20 49  1  0  0  0  0
M  CHG  1  13   1
M  END
> <s_m_source_file>
AV-unprocessed.smi

> <i_m_source_file_index>
1475

> <i_lp_mmshare_version>
43012

> <i_f3d_flags>
0

> <s_epik_input>
W0NIM11jMVtjSF1jKFtDSDNdKW4objEpW0NIMl1DKD1PKVtOSF1bQ0gyXVtDSDJdTjJbQ0gyXVtDQEBIXShbQ0gzXSlbQ0gyXVtDQEBIXShbQ0gzXSlbQ0gyXTI=

> <s_epik_cmdline>
J2VwaWtfcHl0aG9uJywgJy1waCcsICc3LjAnLCAnLXRuJywgJzgnLCAnLW1hJywgJzIwMCcsICctbWV0YWxfYmluZGluZycsICctaW1hZScsICc8aW5maWxlLm1hZT4nLCAnLW9tYWUnLCAnPG91dGZpbGUubWFlPic=

> <r_lp_tautomer_probability>
1

> <r_epik_Ionization_Penalty>
0.00206431

> <r_epik_Ionization_Penalty_Charging>
0.00187095

> <r_epik_Ionization_Penalty_Neutral>
0.000193364

> <r_epik_State_Penalty>
-0

> <r_epik_Charging_Adjusted_Penalty>
0.00187095

> <i_epik_Tot_Q>
1

> <i_epik_Tot_abs_Q>
1

> <r_epik_Metal_State_Penalty>
-0

> <b_epik_Metal_Only>
0

> <s_lp_Force_Field>
OPLS_2005

> <r_lp_Energy>
16.4698

> <b_lp_Chiralities_Consistent>
1

> <s_lp_Variant>
AV-unprocessed.smi:1475-2

> <Gold.Version>
5.8.1

> <Gold.Id.Protein>
6NUR|6NUR_protein|mol2

> <Gold.PLP.Fitness>
40.6178

> <Gold.PLP.PLP>
-32.5643

> <Gold.PLP.part.hbond>
-2.0000

> <Gold.PLP.part.metal>
0.0000

> <Gold.PLP.part.buried>
-3.3273

> <Gold.PLP.part.nonpolar>
-28.6219

> <Gold.PLP.part.repulsive>
0.9904

> <Gold.PLP.ligand.clash>
0.0000

> <Gold.PLP.ligand.torsion>
0.5043

> <Gold.PLP.Chemscore.Hbond>
3.0000

> <Gold.PLP.Chemscore.CHOScore>
0.0000

> <Gold.PLP.Chemscore.Metal>
0.0000

> <Gold.Chemscore.Hbonds>
donor molecule, donor type, donor heavy atom, donor atom, acceptor molecule, acceptor atom, score
      L1  H    10    31       P1  7948  1.00
      L1  H    13    50       P1 10175  1.46

> <Gold.PLP.Chemscore.Internal.Correction>
0.0622

> <Gold.Rescore>
     Score         DG    S(hbond)    S(metal)    S(lipo)     H(rot)  DE(clash)    DE(int)     intcor
     17.64     -18.57       1.98        0.00      91.19       1.64       0.30       0.63       ----

> <Gold.Chemscore.Fitness>
17.6445

> <Gold.Chemscore.DG>
-18.5735

> <Gold.Chemscore.ZeroCoef>
-5.4800

> <Gold.Chemscore.Hbond>
1.9828

> <Gold.Chemscore.Metal>
0.0000

> <Gold.Chemscore.Lipo>
91.1878

> <Gold.Chemscore.Internal_Hbond>
0.0000

> <Gold.Chemscore.DEClash>
0.2957

> <Gold.Chemscore.DEInternal>
0.6333

> <Gold.Chemscore.Rot>
1.6399

> <Gold.Chemscore.Internal.Correction>
   9.000000E+99

> <Gold.Chemscore.Hbonds>
donor molecule, donor type, donor heavy atom, donor atom, acceptor molecule, acceptor atom, score
      L1  H    10    31       P1  7948  1.00
      L1  H    13    50       P1 10175  0.71

> <Gold.Chemscore.Hbond.Weighted>
-6.6227

> <Gold.Chemscore.Metal.Weighted>
-0.0000

> <Gold.Chemscore.Lipo.Weighted>
-10.6690

> <Gold.Chemscore.Internal_Hbond.Weighted>
0.0000

> <Gold.Chemscore.DEClash.Weighted>
0.2957

> <Gold.Chemscore.DEInternal.Weighted>
0.6333

> <Gold.Chemscore.Rot.Weighted>
4.1982

> <Gold.Chemscore.Internal.Correction.Weighted>
   9.000000E+99

> <Gold.Protein.RotatedTorsions>
[ 6907 6896 6895 6894 ] final  -31.64 input  -60.11 | X-H torsion
[ 7974 7965 7964 7962 ] final  -57.28 input  175.53 | X-H torsion
[ 8008 7997 7996 7995 ] final  143.86 input   59.86 | X-H torsion
[ 10167 10162 10161 10158 ] final  -23.96 input  -65.29 | X-H torsion
[ 10718 10713 10712 10709 ] final  159.00 input   66.30 | X-H torsion
[ 10763 10752 10751 10750 ] final -179.33 input  -60.55 | X-H torsion
[ 11005 11000 10999 10996 ] final   82.54 input  -57.11 | X-H torsion

> <Gold.Protein.ActiveResidues>
 VAL166  LYS551  ARG553  GLY616  TRP617  ASP618  TYR619  PRO620  LYS621  CYS622 
 ASP623  PHE694  ASN695  SER759  ASP760  ASP761  ALA762  ILE779  LEU786  VAL792 
 PHE793  MET794  SER795  GLU796  ALA797  LYS798  CYS799  TRP800  GLU811  SER814 

> <Gold.Protein.RotatedAtoms>
  151.0894  134.9907  159.8394 H   0  0  0  0  0  0  0  0  0  0  0  0  # atno 6907 bound_to 6896
  152.5427  134.2084  159.8750 H   0  0  0  0  0  0  0  0  0  0  0  0  # atno 6908 bound_to 6896
  151.2119  133.4507  159.2632 H   0  0  0  0  0  0  0  0  0  0  0  0  # atno 6909 bound_to 6896
  145.8529  140.8339  142.9976 H   0  0  0  0  0  0  0  0  0  0  0  0  # atno 7974 bound_to 7965
  156.2921  140.2251  156.4959 H   0  0  0  0  0  0  0  0  0  0  0  0  # atno 8008 bound_to 7997
  154.7731  140.0465  157.1089 H   0  0  0  0  0  0  0  0  0  0  0  0  # atno 8009 bound_to 7997
  154.9849  140.3083  155.4934 H   0  0  0  0  0  0  0  0  0  0  0  0  # atno 8010 bound_to 7997
  140.7288  143.4396  151.0677 H   0  0  0  0  0  0  0  0  0  0  0  0  # atno 10167 bound_to 10162
  157.1702  131.0608  151.2186 H   0  0  0  0  0  0  0  0  0  0  0  0  # atno 10718 bound_to 10713
  154.5364  135.2803  155.1134 H   0  0  0  0  0  0  0  0  0  0  0  0  # atno 10763 bound_to 10752
  154.2634  135.6317  153.5287 H   0  0  0  0  0  0  0  0  0  0  0  0  # atno 10764 bound_to 10752
  152.9968  135.5611  154.5892 H   0  0  0  0  0  0  0  0  0  0  0  0  # atno 10765 bound_to 10752
  139.9060  134.8079  156.2188 H   0  0  0  0  0  0  0  0  0  0  0  0  # atno 11005 bound_to 11000
  144.6728  140.0981  143.7462 LP  0  0  0  0  0  0  0  0  0  0  0  0  # atno 17320 bound_to 7965
  145.9336  139.2622  143.1310 LP  0  0  0  0  0  0  0  0  0  0  0  0  # atno 17321 bound_to 7965
  139.8061  143.8015  152.3167 LP  0  0  0  0  0  0  0  0  0  0  0  0  # atno 17342 bound_to 10162
  139.8049  144.7359  150.9775 LP  0  0  0  0  0  0  0  0  0  0  0  0  # atno 17343 bound_to 10162
  157.4050  130.7354  149.6796 LP  0  0  0  0  0  0  0  0  0  0  0  0  # atno 17370 bound_to 10713
  155.9739  130.4110  150.3961 LP  0  0  0  0  0  0  0  0  0  0  0  0  # atno 17371 bound_to 10713
  141.0419  133.6933  156.1613 LP  0  0  0  0  0  0  0  0  0  0  0  0  # atno 17394 bound_to 11000
  140.6943  134.4633  157.5588 LP  0  0  0  0  0  0  0  0  0  0  0  0  # atno 17395 bound_to 11000

$$$$
