AV-unprocessed.smi:543|AV-procd|sdf|2875|dock5
  -GOLD-   2262023363D 1   1.00000     0.00000
 Structure written by MMmdl.
 46 48  0  0  0  0  0  0  0  0  1 V2000
  151.2678  135.2676  156.4949 C   0  0  0  0  0  0  0  0  0  0  0  0
  151.9806  136.4102  156.0577 O   0  0  0  0  0  0  0  0  0  0  0  0
  151.4816  137.6130  156.6202 C   0  0  0  0  0  0  0  0  0  0  0  0
  152.4125  138.7773  156.2544 C   0  0  0  0  0  0  0  0  0  0  0  0
  151.8540  140.0671  156.6578 N   0  0  0  0  0  0  0  0  0  0  0  0
  150.8131  140.7667  156.1203 C   0  0  0  0  0  0  0  0  0  0  0  0
  150.1032  140.3235  154.9972 N   0  0  0  0  0  0  0  0  0  0  0  0
  150.3602  139.0924  154.2598 C   0  0  0  0  0  0  0  0  0  0  0  0
  149.1094  141.1285  154.2859 C   0  0  0  0  0  0  0  0  0  0  0  0
  147.8526  141.4620  155.0744 C   0  0  0  0  0  0  0  0  0  0  0  0
  146.7073  141.9396  154.4029 C   0  0  0  0  0  0  0  0  0  0  0  0
  145.5357  142.2395  155.1247 C   0  0  0  0  0  0  0  0  0  0  0  0
  145.5047  142.0659  156.5217 C   0  0  0  0  0  0  0  0  0  0  0  0
  146.6463  141.5932  157.1969 C   0  0  0  0  0  0  0  0  0  0  0  0
  147.8182  141.2936  156.4756 C   0  0  0  0  0  0  0  0  0  0  0  0
  150.5046  141.8845  156.7851 N   0  0  0  0  0  0  0  0  0  0  0  0
  151.4303  141.9161  157.8131 C   0  0  0  0  0  0  0  0  0  0  0  0
  152.2415  140.8306  157.7619 C   0  0  0  0  0  0  0  0  0  0  0  0
  153.2890  140.5864  158.7637 C   0  0  0  0  0  0  0  0  0  0  0  0
  154.0219  139.5997  158.7537 O   0  0  0  0  0  0  0  0  0  0  0  0
  153.3607  141.5572  159.7067 N   0  0  0  0  0  0  0  0  0  0  0  0
  152.5826  142.6778  159.8076 C   0  0  0  0  0  0  0  0  0  0  0  0
  152.7686  143.4759  160.7259 O   0  0  0  0  0  0  0  0  0  0  0  0
  151.6087  142.8640  158.8604 N   0  0  0  0  0  0  0  0  0  0  0  0
  150.7466  144.0463  158.9174 C   0  0  0  0  0  0  0  0  0  0  0  0
  154.0666  141.4386  160.4184 H   0  0  0  0  0  0  0  0  0  0  0  0
  151.6992  134.3738  156.0444 H   0  0  0  0  0  0  0  0  0  0  0  0
  150.2194  135.3213  156.1992 H   0  0  0  0  0  0  0  0  0  0  0  0
  151.3218  135.1591  157.5789 H   0  0  0  0  0  0  0  0  0  0  0  0
  150.4744  137.8103  156.2499 H   0  0  0  0  0  0  0  0  0  0  0  0
  151.4170  137.5176  157.7049 H   0  0  0  0  0  0  0  0  0  0  0  0
  153.3864  138.6464  156.7235 H   0  0  0  0  0  0  0  0  0  0  0  0
  152.6163  138.7628  155.1888 H   0  0  0  0  0  0  0  0  0  0  0  0
  151.3096  138.6514  154.5643 H   0  0  0  0  0  0  0  0  0  0  0  0
  150.4223  139.2761  153.1865 H   0  0  0  0  0  0  0  0  0  0  0  0
  149.5653  138.3677  154.4380 H   0  0  0  0  0  0  0  0  0  0  0  0
  149.5409  142.0623  153.9216 H   0  0  0  0  0  0  0  0  0  0  0  0
  148.8248  140.5724  153.3920 H   0  0  0  0  0  0  0  0  0  0  0  0
  146.7205  142.0712  153.3310 H   0  0  0  0  0  0  0  0  0  0  0  0
  144.6604  142.6014  154.6058 H   0  0  0  0  0  0  0  0  0  0  0  0
  144.6059  142.2946  157.0750 H   0  0  0  0  0  0  0  0  0  0  0  0
  146.6230  141.4590  158.2682 H   0  0  0  0  0  0  0  0  0  0  0  0
  148.6878  140.9281  157.0011 H   0  0  0  0  0  0  0  0  0  0  0  0
  150.1993  144.0770  159.8604 H   0  0  0  0  0  0  0  0  0  0  0  0
  150.0105  144.0687  158.1140 H   0  0  0  0  0  0  0  0  0  0  0  0
  151.3414  144.9570  158.8389 H   0  0  0  0  0  0  0  0  0  0  0  0
  1  2  1  0  0  0  0
  1 27  1  0  0  0  0
  1 28  1  0  0  0  0
  1 29  1  0  0  0  0
  2  3  1  0  0  0  0
  3  4  1  0  0  0  0
  3 30  1  0  0  0  0
  3 31  1  0  0  0  0
  4  5  1  0  0  0  0
  4 32  1  0  0  0  0
  4 33  1  0  0  0  0
  5 18  1  0  0  0  0
  5  6  1  0  0  0  0
  6  7  1  0  0  0  0
  6 16  2  0  0  0  0
  7  8  1  0  0  0  0
  7  9  1  0  0  0  0
  8 34  1  0  0  0  0
  8 35  1  0  0  0  0
  8 36  1  0  0  0  0
  9 10  1  0  0  0  0
  9 37  1  0  0  0  0
  9 38  1  0  0  0  0
 10 15  1  0  0  0  0
 10 11  2  0  0  0  0
 11 12  1  0  0  0  0
 11 39  1  0  0  0  0
 12 13  2  0  0  0  0
 12 40  1  0  0  0  0
 13 14  1  0  0  0  0
 13 41  1  0  0  0  0
 14 15  2  0  0  0  0
 14 42  1  0  0  0  0
 15 43  1  0  0  0  0
 16 17  1  0  0  0  0
 17 24  1  0  0  0  0
 17 18  2  0  0  0  0
 18 19  1  0  0  0  0
 19 20  2  0  0  0  0
 19 21  1  0  0  0  0
 21 26  1  0  0  0  0
 21 22  1  0  0  0  0
 22 23  2  0  0  0  0
 22 24  1  0  0  0  0
 24 25  1  0  0  0  0
 25 44  1  0  0  0  0
 25 45  1  0  0  0  0
 25 46  1  0  0  0  0
M  END
> <s_m_source_file>
AV-unprocessed.smi

> <i_m_source_file_index>
543

> <i_lp_mmshare_version>
43012

> <i_f3d_flags>
0

> <s_epik_input>
W0NIM11uMWMoPU8pW25IXWMoPU8pYyhjMTIpbihbQ0gyXVtDSDJdT1tDSDNdKWMobjIpTihbQ0gzXSlbQ0gyXWMzW2NIXVtjSF1bY0hdW2NIXVtjSF0z

> <s_epik_cmdline>
J2VwaWtfcHl0aG9uJywgJy1waCcsICc3LjAnLCAnLXRuJywgJzgnLCAnLW1hJywgJzIwMCcsICctbWV0YWxfYmluZGluZycsICctaW1hZScsICc8aW5maWxlLm1hZT4nLCAnLW9tYWUnLCAnPG91dGZpbGUubWFlPic=

> <r_lp_tautomer_probability>
1

> <r_epik_Ionization_Penalty>
3.94324e-05

> <r_epik_Ionization_Penalty_Charging>
1.70393e-05

> <r_epik_Ionization_Penalty_Neutral>
2.23931e-05

> <r_epik_State_Penalty>
-0

> <r_epik_Charging_Adjusted_Penalty>
1.70393e-05

> <i_epik_Tot_Q>
0

> <i_epik_Tot_abs_Q>
0

> <r_epik_Metal_State_Penalty>
0.0163311

> <b_epik_Metal_Only>
0

> <s_lp_Force_Field>
OPLS_2005

> <r_lp_Energy>
32.7304

> <b_lp_Chiralities_Consistent>
1

> <s_lp_Variant>
AV-unprocessed.smi:543-1

> <Gold.Version>
5.8.1

> <Gold.Id.Protein>
6NUR|6NUR_protein|mol2

> <Gold.PLP.Fitness>
47.7380

> <Gold.PLP.PLP>
-42.4678

> <Gold.PLP.part.hbond>
-2.0000

> <Gold.PLP.part.metal>
0.0000

> <Gold.PLP.part.buried>
-3.4264

> <Gold.PLP.part.nonpolar>
-36.6675

> <Gold.PLP.part.repulsive>
0.2654

> <Gold.PLP.ligand.clash>
3.9488

> <Gold.PLP.ligand.torsion>
0.4399

> <Gold.PLP.Chemscore.Hbond>
2.0000

> <Gold.PLP.Chemscore.CHOScore>
0.0000

> <Gold.PLP.Chemscore.Metal>
0.0000

> <Gold.Chemscore.Hbonds>
donor molecule, donor type, donor heavy atom, donor atom, acceptor molecule, acceptor atom, score
      P1  H  7997  8008       L1    20  0.95
      P1  H 10752 10765       L1     2  0.86

> <Gold.PLP.Chemscore.Internal.Correction>
4.0988

> <Gold.Rescore>
     Score         DG    S(hbond)    S(metal)    S(lipo)     H(rot)  DE(clash)    DE(int)     intcor
      7.49     -10.89       0.87        0.00      61.94       1.86       0.07       3.33       ----

> <Gold.Chemscore.Fitness>
7.4856

> <Gold.Chemscore.DG>
-10.8863

> <Gold.Chemscore.ZeroCoef>
-5.4800

> <Gold.Chemscore.Hbond>
0.8730

> <Gold.Chemscore.Metal>
0.0000

> <Gold.Chemscore.Lipo>
61.9396

> <Gold.Chemscore.Internal_Hbond>
0.0000

> <Gold.Chemscore.DEClash>
0.0664

> <Gold.Chemscore.DEInternal>
3.3343

> <Gold.Chemscore.Rot>
1.8580

> <Gold.Chemscore.Internal.Correction>
   9.000000E+99

> <Gold.Chemscore.Hbonds>
donor molecule, donor type, donor heavy atom, donor atom, acceptor molecule, acceptor atom, score
      P1  H  7997  8008       L1    20  0.21
      P1  H 10752 10765       L1     2  0.16

> <Gold.Chemscore.Hbond.Weighted>
-2.9158

> <Gold.Chemscore.Metal.Weighted>
-0.0000

> <Gold.Chemscore.Lipo.Weighted>
-7.2469

> <Gold.Chemscore.Internal_Hbond.Weighted>
0.0000

> <Gold.Chemscore.DEClash.Weighted>
0.0664

> <Gold.Chemscore.DEInternal.Weighted>
3.3343

> <Gold.Chemscore.Rot.Weighted>
4.7564

> <Gold.Chemscore.Internal.Correction.Weighted>
   9.000000E+99

> <Gold.Protein.RotatedTorsions>
[ 6907 6896 6895 6894 ] final -107.67 input  -60.11 | X-H torsion
[ 7974 7965 7964 7962 ] final   76.51 input  175.53 | X-H torsion
[ 8008 7997 7996 7995 ] final -118.93 input   59.86 | X-H torsion
[ 10167 10162 10161 10158 ] final  -51.75 input  -65.29 | X-H torsion
[ 10718 10713 10712 10709 ] final  -25.23 input   66.30 | X-H torsion
[ 10763 10752 10751 10750 ] final -175.82 input  -60.55 | X-H torsion
[ 11005 11000 10999 10996 ] final -177.31 input  -57.11 | X-H torsion

> <Gold.Protein.ActiveResidues>
 VAL166  LYS551  ARG553  GLY616  TRP617  ASP618  TYR619  PRO620  LYS621  CYS622 
 ASP623  PHE694  ASN695  SER759  ASP760  ASP761  ALA762  ILE779  LEU786  VAL792 
 PHE793  MET794  SER795  GLU796  ALA797  LYS798  CYS799  TRP800  GLU811  SER814 

> <Gold.Protein.RotatedAtoms>
  150.7457  133.9792  159.3570 H   0  0  0  0  0  0  0  0  0  0  0  0  # atno 6907 bound_to 6896
  151.7732  135.0779  160.0372 H   0  0  0  0  0  0  0  0  0  0  0  0  # atno 6908 bound_to 6896
  152.3325  133.5937  159.5855 H   0  0  0  0  0  0  0  0  0  0  0  0  # atno 6909 bound_to 6896
  145.7019  139.2585  143.1700 H   0  0  0  0  0  0  0  0  0  0  0  0  # atno 7974 bound_to 7965
  155.1075  140.0397  157.2714 H   0  0  0  0  0  0  0  0  0  0  0  0  # atno 8008 bound_to 7997
  154.6711  140.2612  155.6981 H   0  0  0  0  0  0  0  0  0  0  0  0  # atno 8009 bound_to 7997
  156.2658  140.2797  156.1220 H   0  0  0  0  0  0  0  0  0  0  0  0  # atno 8010 bound_to 7997
  140.6572  143.2608  151.4549 H   0  0  0  0  0  0  0  0  0  0  0  0  # atno 10167 bound_to 10162
  156.4671  130.4516  149.6892 H   0  0  0  0  0  0  0  0  0  0  0  0  # atno 10718 bound_to 10713
  154.5798  135.2835  155.0744 H   0  0  0  0  0  0  0  0  0  0  0  0  # atno 10763 bound_to 10752
  154.2085  135.6412  153.5112 H   0  0  0  0  0  0  0  0  0  0  0  0  # atno 10764 bound_to 10752
  153.0084  135.5486  154.6448 H   0  0  0  0  0  0  0  0  0  0  0  0  # atno 10765 bound_to 10752
  140.4423  134.6420  157.4763 H   0  0  0  0  0  0  0  0  0  0  0  0  # atno 11005 bound_to 11000
  146.0790  140.7785  142.9651 LP  0  0  0  0  0  0  0  0  0  0  0  0  # atno 17320 bound_to 7965
  144.6966  140.3460  143.7190 LP  0  0  0  0  0  0  0  0  0  0  0  0  # atno 17321 bound_to 7965
  139.5798  144.1737  152.1952 LP  0  0  0  0  0  0  0  0  0  0  0  0  # atno 17342 bound_to 10162
  140.1058  144.5500  150.6958 LP  0  0  0  0  0  0  0  0  0  0  0  0  # atno 17343 bound_to 10162
  156.3656  130.7504  151.2481 LP  0  0  0  0  0  0  0  0  0  0  0  0  # atno 17370 bound_to 10713
  157.7494  131.0338  150.4287 LP  0  0  0  0  0  0  0  0  0  0  0  0  # atno 17371 bound_to 10713
  140.0062  134.6761  155.9452 LP  0  0  0  0  0  0  0  0  0  0  0  0  # atno 17394 bound_to 11000
  141.1700  133.6537  156.4617 LP  0  0  0  0  0  0  0  0  0  0  0  0  # atno 17395 bound_to 11000

$$$$
