AV-unprocessed.smi:1867|AV-procd|sdf|7583|dock8
  -GOLD-   22720 9293D 1   1.00000     0.00000
 Structure written by MMmdl.
 52 55  0  0  0  0  0  0  0  0  4 V2000
  152.5839  137.8286  155.4608 O   0  0  0  0  0  0  0  0  0  0  0  0
  152.2107  137.1124  156.3883 C   0  0  0  0  0  0  0  0  0  0  0  0
  152.0530  137.6617  157.6183 N   0  0  0  0  0  0  0  0  0  0  0  0
  152.1739  139.0220  158.0095 C   0  0  0  0  0  0  0  0  0  0  0  0
  152.7332  139.3012  159.2735 C   0  0  0  0  0  0  0  0  0  0  0  0
  152.8502  140.6378  159.7068 C   0  0  0  0  0  0  0  0  0  0  0  0
  152.3899  141.6866  158.8757 C   0  0  0  0  0  0  0  0  0  0  0  0
  152.4803  143.0436  159.2390 N   0  0  0  0  0  0  0  0  0  0  0  0
  152.0484  144.1037  158.3423 C   0  0  0  0  0  0  0  0  0  0  0  0
  152.1713  145.3813  159.1710 C   0  0  0  0  0  0  0  0  0  0  0  0
  151.8616  144.9048  160.5905 C   0  0  0  0  0  0  0  0  0  0  0  0
  152.3925  143.4667  160.6294 C   0  0  0  0  0  0  0  0  0  0  0  0
  151.8465  141.3705  157.6762 N   0  3  0  0  0  0  0  0  0  0  0  0
  151.7179  140.1052  157.2220 C   0  0  0  0  0  0  0  0  0  0  0  0
  151.9811  135.7772  156.2030 N   0  5  0  0  0  0  0  0  0  0  0  0
  150.7026  135.0662  156.0622 C   0  0  1  0  0  0  0  0  0  0  0  0
  149.8670  135.6198  154.8915 C   0  0  0  0  0  0  0  0  0  0  0  0
  149.1799  134.3951  154.2570 C   0  0  0  0  0  0  0  0  0  0  0  0
  149.6277  133.2344  155.0505 N   0  3  1  0  0  0  0  0  0  0  0  0
  149.6643  131.9214  154.3690 C   0  0  0  0  0  0  0  0  0  0  0  0
  150.0509  130.8297  155.3875 C   0  0  0  0  0  0  0  0  0  0  0  0
  151.3567  131.1754  156.1329 C   0  0  0  0  0  0  0  0  0  0  0  0
  151.2900  132.5866  156.7501 C   0  0  0  0  0  0  0  0  0  0  0  0
  150.9190  133.6046  155.6516 C   0  0  2  0  0  0  0  0  0  0  0  0
  151.8688  137.0084  158.3652 H   0  0  0  0  0  0  0  0  0  0  0  0
  153.0804  138.4976  159.9067 H   0  0  0  0  0  0  0  0  0  0  0  0
  153.2962  140.8414  160.6689 H   0  0  0  0  0  0  0  0  0  0  0  0
  152.6620  144.1466  157.4416 H   0  0  0  0  0  0  0  0  0  0  0  0
  151.0117  143.9330  158.0487 H   0  0  0  0  0  0  0  0  0  0  0  0
  153.1948  145.7558  159.1237 H   0  0  0  0  0  0  0  0  0  0  0  0
  151.5051  146.1744  158.8304 H   0  0  0  0  0  0  0  0  0  0  0  0
  152.3044  145.5399  161.3584 H   0  0  0  0  0  0  0  0  0  0  0  0
  150.7815  144.8999  160.7438 H   0  0  0  0  0  0  0  0  0  0  0  0
  151.7347  142.8246  161.2163 H   0  0  0  0  0  0  0  0  0  0  0  0
  153.3888  143.4338  161.0711 H   0  0  0  0  0  0  0  0  0  0  0  0
  151.2457  140.0116  156.2551 H   0  0  0  0  0  0  0  0  0  0  0  0
  150.0993  135.0888  156.9717 H   0  0  0  0  0  0  0  0  0  0  0  0
  149.1441  136.3592  155.2377 H   0  0  0  0  0  0  0  0  0  0  0  0
  150.4964  136.1067  154.1444 H   0  0  0  0  0  0  0  0  0  0  0  0
  148.0923  134.4726  154.2752 H   0  0  0  0  0  0  0  0  0  0  0  0
  149.4919  134.2875  153.2166 H   0  0  0  0  0  0  0  0  0  0  0  0
  148.6865  131.7050  153.9378 H   0  0  0  0  0  0  0  0  0  0  0  0
  150.3817  131.9499  153.5474 H   0  0  0  0  0  0  0  0  0  0  0  0
  149.2449  130.7134  156.1134 H   0  0  0  0  0  0  0  0  0  0  0  0
  150.1515  129.8678  154.8839 H   0  0  0  0  0  0  0  0  0  0  0  0
  151.5535  130.4353  156.9088 H   0  0  0  0  0  0  0  0  0  0  0  0
  152.1950  131.1243  155.4370 H   0  0  0  0  0  0  0  0  0  0  0  0
  150.5537  132.5942  157.5563 H   0  0  0  0  0  0  0  0  0  0  0  0
  152.2525  132.8351  157.2014 H   0  0  0  0  0  0  0  0  0  0  0  0
  151.6775  133.5689  154.8654 H   0  0  0  0  0  0  0  0  0  0  0  0
  148.9797  133.1553  155.8209 H   0  0  0  0  0  0  0  0  0  0  0  0
  151.5118  142.1286  157.0816 H   0  0  0  0  0  0  0  0  0  0  0  0
  1  2  2  0  0  0  0
  2  3  1  0  0  0  0
  2 15  1  0  0  0  0
  3  4  1  0  0  0  0
  3 25  1  0  0  0  0
  4 14  1  0  0  0  0
  4  5  2  0  0  0  0
  5  6  1  0  0  0  0
  5 26  1  0  0  0  0
  6  7  2  0  0  0  0
  6 27  1  0  0  0  0
  7  8  1  0  0  0  0
  7 13  1  0  0  0  0
  8 12  1  0  0  0  0
  8  9  1  0  0  0  0
  9 10  1  0  0  0  0
  9 28  1  0  0  0  0
  9 29  1  0  0  0  0
 10 11  1  0  0  0  0
 10 30  1  0  0  0  0
 10 31  1  0  0  0  0
 11 12  1  0  0  0  0
 11 32  1  0  0  0  0
 11 33  1  0  0  0  0
 12 34  1  0  0  0  0
 12 35  1  0  0  0  0
 13 14  2  0  0  0  0
 13 52  1  0  0  0  0
 14 36  1  0  0  0  0
 15 16  1  0  0  0  0
 16 24  1  0  0  0  0
 16 17  1  0  0  0  0
 16 37  1  0  0  0  0
 17 18  1  0  0  0  0
 17 38  1  0  0  0  0
 17 39  1  0  0  0  0
 18 19  1  0  0  0  0
 18 40  1  0  0  0  0
 18 41  1  0  0  0  0
 19 24  1  0  0  0  0
 19 20  1  0  0  0  0
 19 51  1  0  0  0  0
 20 21  1  0  0  0  0
 20 42  1  0  0  0  0
 20 43  1  0  0  0  0
 21 22  1  0  0  0  0
 21 44  1  0  0  0  0
 21 45  1  0  0  0  0
 22 23  1  0  0  0  0
 22 46  1  0  0  0  0
 22 47  1  0  0  0  0
 23 24  1  0  0  0  0
 23 48  1  0  0  0  0
 23 49  1  0  0  0  0
 24 50  1  0  0  0  0
M  CHG  1  13   1
M  CHG  1  15  -1
M  CHG  1  19   1
M  END
> <s_m_source_file>
AV-unprocessed.smi

> <i_m_source_file_index>
1867

> <i_lp_mmshare_version>
43012

> <i_f3d_flags>
0

> <s_epik_input>
W0NIMl0xW0NIMl1bQ0gyXVtDSDJdW0NASF0oTjEyKVtDQEBIXShbQ0gyXVtDSDJdMilbTkhdQyg9TylbTkhdYzNbY0hdW2NIXWMobltjSF0zKU40W0NIMl1bQ0gyXVtDSDJdW0NIMl00

> <s_epik_cmdline>
J2VwaWtfcHl0aG9uJywgJy1waCcsICc3LjAnLCAnLXRuJywgJzgnLCAnLW1hJywgJzIwMCcsICctbWV0YWxfYmluZGluZycsICctaW1hZScsICc8aW5maWxlLm1hZT4nLCAnLW9tYWUnLCAnPG91dGZpbGUubWFlPic=

> <r_lp_tautomer_probability>
0.999994

> <r_epik_Ionization_Penalty>
8.56137

> <r_epik_Ionization_Penalty_Charging>
8.56136

> <r_epik_Ionization_Penalty_Neutral>
3.91889e-06

> <r_epik_State_Penalty>
8.16255

> <r_epik_Charging_Adjusted_Penalty>
16.7239

> <i_epik_Tot_Q>
1

> <i_epik_Tot_abs_Q>
3

> <r_epik_Metal_State_Penalty>
4.14279

> <b_epik_Metal_Only>
1

> <s_lp_Force_Field>
OPLS_2005

> <r_lp_Energy>
66.3104

> <b_lp_Chiralities_Consistent>
1

> <s_lp_Variant>
AV-unprocessed.smi:1867-24

> <Gold.Version>
5.8.1

> <Gold.Id.Protein>
6NUR|6NUR_protein|mol2

> <Gold.PLP.Fitness>
49.6123

> <Gold.PLP.PLP>
-45.8908

> <Gold.PLP.part.hbond>
-1.6874

> <Gold.PLP.part.metal>
0.0000

> <Gold.PLP.part.buried>
-4.0917

> <Gold.PLP.part.nonpolar>
-39.3162

> <Gold.PLP.part.repulsive>
0.2115

> <Gold.PLP.ligand.clash>
0.0000

> <Gold.PLP.ligand.torsion>
1.2473

> <Gold.PLP.Chemscore.Hbond>
2.0000

> <Gold.PLP.Chemscore.CHOScore>
0.0000

> <Gold.PLP.Chemscore.Metal>
0.0000

> <Gold.Chemscore.Hbonds>
donor molecule, donor type, donor heavy atom, donor atom, acceptor molecule, acceptor atom, score
      P1  H 10752 10764       L1    15  1.90

> <Gold.PLP.Chemscore.Internal.Correction>
0.2161

> <Gold.Rescore>
     Score         DG    S(hbond)    S(metal)    S(lipo)     H(rot)  DE(clash)    DE(int)     intcor
     16.67     -18.97       0.79        0.00     114.77       1.00       0.05       2.26       ----

> <Gold.Chemscore.Fitness>
16.6667

> <Gold.Chemscore.DG>
-18.9736

> <Gold.Chemscore.ZeroCoef>
-5.4800

> <Gold.Chemscore.Hbond>
0.7860

> <Gold.Chemscore.Metal>
0.0000

> <Gold.Chemscore.Lipo>
114.7716

> <Gold.Chemscore.Internal_Hbond>
0.0000

> <Gold.Chemscore.DEClash>
0.0474

> <Gold.Chemscore.DEInternal>
2.2595

> <Gold.Chemscore.Rot>
1.0000

> <Gold.Chemscore.Internal.Correction>
   9.000000E+99

> <Gold.Chemscore.Hbonds>
donor molecule, donor type, donor heavy atom, donor atom, acceptor molecule, acceptor atom, score
      P1  H 10752 10764       L1    15  0.20

> <Gold.Chemscore.Hbond.Weighted>
-2.6253

> <Gold.Chemscore.Metal.Weighted>
-0.0000

> <Gold.Chemscore.Lipo.Weighted>
-13.4283

> <Gold.Chemscore.Internal_Hbond.Weighted>
0.0000

> <Gold.Chemscore.DEClash.Weighted>
0.0474

> <Gold.Chemscore.DEInternal.Weighted>
2.2595

> <Gold.Chemscore.Rot.Weighted>
2.5600

> <Gold.Chemscore.Internal.Correction.Weighted>
   9.000000E+99

> <Gold.Protein.RotatedTorsions>
[ 6907 6896 6895 6894 ] final   37.12 input  -60.11 | X-H torsion
[ 7974 7965 7964 7962 ] final  -26.83 input  175.53 | X-H torsion
[ 8008 7997 7996 7995 ] final  131.27 input   59.86 | X-H torsion
[ 10167 10162 10161 10158 ] final  -21.27 input  -65.29 | X-H torsion
[ 10718 10713 10712 10709 ] final  134.37 input   66.30 | X-H torsion
[ 10763 10752 10751 10750 ] final  -28.78 input  -60.55 | X-H torsion
[ 11005 11000 10999 10996 ] final -123.22 input  -57.11 | X-H torsion

> <Gold.Protein.ActiveResidues>
 VAL166  LYS551  ARG553  GLY616  TRP617  ASP618  TYR619  PRO620  LYS621  CYS622 
 ASP623  PHE694  ASN695  SER759  ASP760  ASP761  ALA762  ILE779  LEU786  VAL792 
 PHE793  MET794  SER795  GLU796  ALA797  LYS798  CYS799  TRP800  GLU811  SER814 

> <Gold.Protein.RotatedAtoms>
  152.1389  134.9077  160.0554 H   0  0  0  0  0  0  0  0  0  0  0  0  # atno 6907 bound_to 6896
  152.0153  133.3872  159.4244 H   0  0  0  0  0  0  0  0  0  0  0  0  # atno 6908 bound_to 6896
  150.6863  134.3607  159.4993 H   0  0  0  0  0  0  0  0  0  0  0  0  # atno 6909 bound_to 6896
  146.1399  140.5071  142.8656 H   0  0  0  0  0  0  0  0  0  0  0  0  # atno 7974 bound_to 7965
  156.2967  140.2575  156.2898 H   0  0  0  0  0  0  0  0  0  0  0  0  # atno 8008 bound_to 7997
  154.9520  140.0394  157.2167 H   0  0  0  0  0  0  0  0  0  0  0  0  # atno 8009 bound_to 7997
  154.8027  140.2831  155.5914 H   0  0  0  0  0  0  0  0  0  0  0  0  # atno 8010 bound_to 7997
  140.7281  143.4644  151.0334 H   0  0  0  0  0  0  0  0  0  0  0  0  # atno 10167 bound_to 10162
  157.4680  131.1078  150.9838 H   0  0  0  0  0  0  0  0  0  0  0  0  # atno 10718 bound_to 10713
  153.7539  135.6924  153.4940 H   0  0  0  0  0  0  0  0  0  0  0  0  # atno 10763 bound_to 10752
  153.1985  135.4445  155.0236 H   0  0  0  0  0  0  0  0  0  0  0  0  # atno 10764 bound_to 10752
  154.8177  135.3407  154.7058 H   0  0  0  0  0  0  0  0  0  0  0  0  # atno 10765 bound_to 10752
  140.9935  134.0505  157.3625 H   0  0  0  0  0  0  0  0  0  0  0  0  # atno 11005 bound_to 11000
  144.7781  140.5782  143.6624 LP  0  0  0  0  0  0  0  0  0  0  0  0  # atno 17320 bound_to 7965
  145.5070  139.1481  143.3625 LP  0  0  0  0  0  0  0  0  0  0  0  0  # atno 17321 bound_to 7965
  139.8331  143.7664  152.3180 LP  0  0  0  0  0  0  0  0  0  0  0  0  # atno 17342 bound_to 10162
  139.7787  144.7452  151.0120 LP  0  0  0  0  0  0  0  0  0  0  0  0  # atno 17343 bound_to 10162
  157.0613  130.5826  149.5386 LP  0  0  0  0  0  0  0  0  0  0  0  0  # atno 17370 bound_to 10713
  156.0059  130.5146  150.7829 LP  0  0  0  0  0  0  0  0  0  0  0  0  # atno 17371 bound_to 10713
  139.9003  135.0162  156.7238 LP  0  0  0  0  0  0  0  0  0  0  0  0  # atno 17394 bound_to 11000
  140.7002  133.9313  155.8020 LP  0  0  0  0  0  0  0  0  0  0  0  0  # atno 17395 bound_to 11000

$$$$
