AV-unprocessed.smi:767|AV-procd|sdf|3661|dock5
  -GOLD-   22720 1 73D 1   1.00000     0.00000
 Structure written by MMmdl.
 47 49  0  0  0  0  0  0  0  0  1 V2000
  150.4238  141.2771  155.7525 C   0  0  0  0  0  0  0  0  0  0  0  0
  150.5404  139.7682  155.6944 C   0  0  0  0  0  0  0  0  0  0  0  0
  150.2234  138.9732  156.8161 C   0  0  0  0  0  0  0  0  0  0  0  0
  150.3518  137.5752  156.7046 C   0  0  0  0  0  0  0  0  0  0  0  0
  150.7907  137.0279  155.4817 C   0  0  0  0  0  0  0  0  0  0  0  0
  150.9384  135.5294  155.3079 C   0  0  0  0  0  0  0  0  0  0  0  0
  149.5887  134.8021  155.4163 C   0  0  0  0  0  0  0  0  0  0  0  0
  148.8129  134.9272  154.1886 N   0  0  0  0  0  0  0  0  0  0  0  0
  147.6385  134.3237  153.9589 C   0  0  0  0  0  0  0  0  0  0  0  0
  147.0711  133.5866  154.7655 O   0  0  0  0  0  0  0  0  0  0  0  0
  147.1541  134.6233  152.7468 N   0  0  0  0  0  0  0  0  0  0  0  0
  145.8966  134.1090  152.2141 C   0  0  2  0  0  0  0  0  0  0  0  0
  146.0155  133.6696  150.7464 C   0  0  1  0  0  0  0  0  0  0  0  0
  145.8506  132.2190  150.3834 C   0  0  0  0  0  0  0  0  0  0  0  0
  144.3738  132.1320  149.9871 C   0  0  0  0  0  0  0  0  0  0  0  0
  143.7635  133.2534  150.6222 O   0  0  0  0  0  0  0  0  0  0  0  0
  144.6720  134.3477  150.5255 C   0  0  1  0  0  0  0  0  0  0  0  0
  144.8731  135.1967  151.7987 C   0  0  0  0  0  0  0  0  0  0  0  0
  143.6483  135.3503  152.7015 C   0  0  0  0  0  0  0  0  0  0  0  0
  145.4082  136.6114  151.5337 C   0  0  0  0  0  0  0  0  0  0  0  0
  151.0809  137.9110  154.4203 C   0  0  0  0  0  0  0  0  0  0  0  0
  150.9606  139.2526  154.5180 N   0  0  0  0  0  0  0  0  0  0  0  0
  150.0666  141.6095  156.7277 H   0  0  0  0  0  0  0  0  0  0  0  0
  149.7252  141.6335  154.9952 H   0  0  0  0  0  0  0  0  0  0  0  0
  151.3944  141.7391  155.5705 H   0  0  0  0  0  0  0  0  0  0  0  0
  149.8891  139.4205  157.7407 H   0  0  0  0  0  0  0  0  0  0  0  0
  150.1152  136.9364  157.5428 H   0  0  0  0  0  0  0  0  0  0  0  0
  151.3998  135.3306  154.3395 H   0  0  0  0  0  0  0  0  0  0  0  0
  151.6302  135.1512  156.0619 H   0  0  0  0  0  0  0  0  0  0  0  0
  149.7524  133.7408  155.6047 H   0  0  0  0  0  0  0  0  0  0  0  0
  149.0146  135.1838  156.2623 H   0  0  0  0  0  0  0  0  0  0  0  0
  149.1987  135.5135  153.4632 H   0  0  0  0  0  0  0  0  0  0  0  0
  147.6901  135.2372  152.1513 H   0  0  0  0  0  0  0  0  0  0  0  0
  145.4436  133.3309  152.8329 H   0  0  0  0  0  0  0  0  0  0  0  0
  146.8169  134.1856  150.2142 H   0  0  0  0  0  0  0  0  0  0  0  0
  146.5043  131.9133  149.5660 H   0  0  0  0  0  0  0  0  0  0  0  0
  146.0620  131.5773  151.2392 H   0  0  0  0  0  0  0  0  0  0  0  0
  144.2605  132.2322  148.9067 H   0  0  0  0  0  0  0  0  0  0  0  0
  143.9095  131.1945  150.2939 H   0  0  0  0  0  0  0  0  0  0  0  0
  144.5982  134.8960  149.5851 H   0  0  0  0  0  0  0  0  0  0  0  0
  142.8611  135.9256  152.2134 H   0  0  0  0  0  0  0  0  0  0  0  0
  143.8997  135.8564  153.6340 H   0  0  0  0  0  0  0  0  0  0  0  0
  143.2218  134.3832  152.9689 H   0  0  0  0  0  0  0  0  0  0  0  0
  144.6607  137.2328  151.0394 H   0  0  0  0  0  0  0  0  0  0  0  0
  146.2873  136.5978  150.8888 H   0  0  0  0  0  0  0  0  0  0  0  0
  145.6915  137.1156  152.4583 H   0  0  0  0  0  0  0  0  0  0  0  0
  151.4165  137.5318  153.4663 H   0  0  0  0  0  0  0  0  0  0  0  0
  1  2  1  0  0  0  0
  1 23  1  0  0  0  0
  1 24  1  0  0  0  0
  1 25  1  0  0  0  0
  2 22  1  0  0  0  0
  2  3  2  0  0  0  0
  3  4  1  0  0  0  0
  3 26  1  0  0  0  0
  4  5  2  0  0  0  0
  4 27  1  0  0  0  0
  5  6  1  0  0  0  0
  5 21  1  0  0  0  0
  6  7  1  0  0  0  0
  6 28  1  0  0  0  0
  6 29  1  0  0  0  0
  7  8  1  0  0  0  0
  7 30  1  0  0  0  0
  7 31  1  0  0  0  0
  8  9  1  0  0  0  0
  8 32  1  0  0  0  0
  9 10  2  0  0  0  0
  9 11  1  0  0  0  0
 11 12  1  0  0  0  0
 11 33  1  0  0  0  0
 12 18  1  0  0  0  0
 12 13  1  0  0  0  0
 12 34  1  0  0  0  0
 13 17  1  0  0  0  0
 13 14  1  0  0  0  0
 13 35  1  0  0  0  0
 14 15  1  0  0  0  0
 14 36  1  0  0  0  0
 14 37  1  0  0  0  0
 15 16  1  0  0  0  0
 15 38  1  0  0  0  0
 15 39  1  0  0  0  0
 16 17  1  0  0  0  0
 17 18  1  0  0  0  0
 17 40  1  0  0  0  0
 18 19  1  0  0  0  0
 18 20  1  0  0  0  0
 19 41  1  0  0  0  0
 19 42  1  0  0  0  0
 19 43  1  0  0  0  0
 20 44  1  0  0  0  0
 20 45  1  0  0  0  0
 20 46  1  0  0  0  0
 21 22  2  0  0  0  0
 21 47  1  0  0  0  0
M  END
> <s_m_source_file>
AV-unprocessed.smi

> <i_m_source_file_index>
767

> <i_lp_mmshare_version>
43012

> <i_f3d_flags>
0

> <s_epik_input>
W0NIM11jMVtjSF1bY0hdYyhbY0hdbjEpW0NIMl1bQ0gyXVtOSF1DKD1PKVtOSF1bQ0BIXTJDKFtDSDNdKShbQ0gzXSlbQ0BIXShbQ0BASF0yMylPW0NIMl1bQ0gyXTM=

> <s_epik_cmdline>
J2VwaWtfcHl0aG9uJywgJy1waCcsICc3LjAnLCAnLXRuJywgJzgnLCAnLW1hJywgJzIwMCcsICctbWV0YWxfYmluZGluZycsICctaW1hZScsICc8aW5maWxlLm1hZT4nLCAnLW9tYWUnLCAnPG91dGZpbGUubWFlPic=

> <r_epik_Ionization_Penalty>
0.0567523

> <r_epik_Ionization_Penalty_Charging>
0

> <r_epik_Ionization_Penalty_Neutral>
0.0567523

> <r_epik_State_Penalty>
0.0489186

> <r_epik_Charging_Adjusted_Penalty>
0.0489186

> <i_epik_Tot_Q>
0

> <i_epik_Tot_abs_Q>
0

> <r_epik_Metal_State_Penalty>
0.044622

> <b_epik_Metal_Only>
0

> <s_lp_Force_Field>
OPLS_2005

> <r_lp_Energy>
31.223

> <b_lp_Chiralities_Consistent>
1

> <s_lp_Variant>
AV-unprocessed.smi:767-5

> <Gold.Version>
5.8.1

> <Gold.Id.Protein>
6NUR|6NUR_protein|mol2

> <Gold.PLP.Fitness>
46.4349

> <Gold.PLP.PLP>
-34.8791

> <Gold.PLP.part.hbond>
-3.0000

> <Gold.PLP.part.metal>
0.0000

> <Gold.PLP.part.buried>
-1.8589

> <Gold.PLP.part.nonpolar>
-29.1292

> <Gold.PLP.part.repulsive>
0.3778

> <Gold.PLP.ligand.clash>
0.0000

> <Gold.PLP.ligand.torsion>
0.2274

> <Gold.PLP.Chemscore.Hbond>
2.9440

> <Gold.PLP.Chemscore.CHOScore>
1.0000

> <Gold.PLP.Chemscore.Metal>
0.0000

> <Gold.Chemscore.Hbonds>
donor molecule, donor type, donor heavy atom, donor atom, acceptor molecule, acceptor atom, score
      L1  H     8    32       P1  7948  0.94
      L1  H    11    33       P1  7948  1.00
      P1  H  7989  7998       L1    22  1.00
      L1  C    21    47       P1  7949  1.00

> <Gold.PLP.Chemscore.Internal.Correction>
0.1786

> <Gold.Rescore>
     Score         DG    S(hbond)    S(metal)    S(lipo)     H(rot)  DE(clash)    DE(int)     intcor
     20.19     -20.82       2.55        0.00      90.18       1.45       0.40       0.24       ----

> <Gold.Chemscore.Fitness>
20.1858

> <Gold.Chemscore.DG>
-20.8249

> <Gold.Chemscore.ZeroCoef>
-5.4800

> <Gold.Chemscore.Hbond>
2.5466

> <Gold.Chemscore.Metal>
0.0000

> <Gold.Chemscore.Lipo>
90.1760

> <Gold.Chemscore.Internal_Hbond>
0.0000

> <Gold.Chemscore.DEClash>
0.3991

> <Gold.Chemscore.DEInternal>
0.2400

> <Gold.Chemscore.Rot>
1.4497

> <Gold.Chemscore.Internal.Correction>
   9.000000E+99

> <Gold.Chemscore.Hbonds>
donor molecule, donor type, donor heavy atom, donor atom, acceptor molecule, acceptor atom, score
      L1  H     8    32       P1  7948  0.41
      L1  H    11    33       P1  7948  0.93
      P1  H  7989  7998       L1    22  0.42

> <Gold.Chemscore.Hbond.Weighted>
-8.5055

> <Gold.Chemscore.Metal.Weighted>
-0.0000

> <Gold.Chemscore.Lipo.Weighted>
-10.5506

> <Gold.Chemscore.Internal_Hbond.Weighted>
0.0000

> <Gold.Chemscore.DEClash.Weighted>
0.3991

> <Gold.Chemscore.DEInternal.Weighted>
0.2400

> <Gold.Chemscore.Rot.Weighted>
3.7112

> <Gold.Chemscore.Internal.Correction.Weighted>
   9.000000E+99

> <Gold.Protein.RotatedTorsions>
[ 6907 6896 6895 6894 ] final  -56.34 input  -60.11 | X-H torsion
[ 7974 7965 7964 7962 ] final  -11.44 input  175.53 | X-H torsion
[ 8008 7997 7996 7995 ] final -112.52 input   59.86 | X-H torsion
[ 10167 10162 10161 10158 ] final  119.41 input  -65.29 | X-H torsion
[ 10718 10713 10712 10709 ] final  -24.38 input   66.30 | X-H torsion
[ 10763 10752 10751 10750 ] final   18.15 input  -60.55 | X-H torsion
[ 11005 11000 10999 10996 ] final   11.65 input  -57.11 | X-H torsion

> <Gold.Protein.ActiveResidues>
 VAL166  LYS551  ARG553  GLY616  TRP617  ASP618  TYR619  PRO620  LYS621  CYS622 
 ASP623  PHE694  ASN695  SER759  ASP760  ASP761  ALA762  ILE779  LEU786  VAL792 
 PHE793  MET794  SER795  GLU796  ALA797  LYS798  CYS799  TRP800  GLU811  SER814 

> <Gold.Protein.RotatedAtoms>
  150.8176  134.7366  159.6743 H   0  0  0  0  0  0  0  0  0  0  0  0  # atno 6907 bound_to 6896
  152.4293  134.5804  159.9956 H   0  0  0  0  0  0  0  0  0  0  0  0  # atno 6908 bound_to 6896
  151.5997  133.3320  159.3081 H   0  0  0  0  0  0  0  0  0  0  0  0  # atno 6909 bound_to 6896
  146.2187  140.2912  142.8368 H   0  0  0  0  0  0  0  0  0  0  0  0  # atno 7974 bound_to 7965
  155.0065  140.0394  157.2382 H   0  0  0  0  0  0  0  0  0  0  0  0  # atno 8008 bound_to 7997
  154.7497  140.2764  155.6280 H   0  0  0  0  0  0  0  0  0  0  0  0  # atno 8009 bound_to 7997
  156.2882  140.2649  156.2247 H   0  0  0  0  0  0  0  0  0  0  0  0  # atno 8010 bound_to 7997
  139.6048  144.7067  151.2979 H   0  0  0  0  0  0  0  0  0  0  0  0  # atno 10167 bound_to 10162
  156.4785  130.4540  149.6826 H   0  0  0  0  0  0  0  0  0  0  0  0  # atno 10718 bound_to 10713
  153.1275  135.6733  153.9233 H   0  0  0  0  0  0  0  0  0  0  0  0  # atno 10763 bound_to 10752
  153.8729  135.3067  155.3444 H   0  0  0  0  0  0  0  0  0  0  0  0  # atno 10764 bound_to 10752
  154.7678  135.4955  153.9669 H   0  0  0  0  0  0  0  0  0  0  0  0  # atno 10765 bound_to 10752
  140.5009  134.0747  155.7793 H   0  0  0  0  0  0  0  0  0  0  0  0  # atno 11005 bound_to 11000
  144.9125  140.7774  143.5798 LP  0  0  0  0  0  0  0  0  0  0  0  0  # atno 17320 bound_to 7965
  145.2843  139.1906  143.4774 LP  0  0  0  0  0  0  0  0  0  0  0  0  # atno 17321 bound_to 7965
  140.7276  143.6957  150.7885 LP  0  0  0  0  0  0  0  0  0  0  0  0  # atno 17342 bound_to 10162
  140.0541  143.5220  152.2660 LP  0  0  0  0  0  0  0  0  0  0  0  0  # atno 17343 bound_to 10162
  156.3546  130.7450  151.2414 LP  0  0  0  0  0  0  0  0  0  0  0  0  # atno 17370 bound_to 10713
  157.7485  131.0367  150.4423 LP  0  0  0  0  0  0  0  0  0  0  0  0  # atno 17371 bound_to 10713
  141.1436  133.9095  157.2268 LP  0  0  0  0  0  0  0  0  0  0  0  0  # atno 17394 bound_to 11000
  139.9714  135.0127  156.9521 LP  0  0  0  0  0  0  0  0  0  0  0  0  # atno 17395 bound_to 11000

$$$$
