AV-unprocessed.smi:1629|AV-procd|sdf|6521|dock10
  -GOLD-   22720 7193D 1   1.00000     0.00000
 Structure written by MMmdl.
 44 45  0  0  0  0  0  0  0  0  1 V2000
  145.8714  137.5332  152.1105 C   0  0  0  0  0  0  0  0  0  0  0  0
  146.1298  136.4844  153.5970 S   0  0  0  0  0  0  0  0  0  0  0  0
  145.1130  136.8251  154.6036 O   0  0  0  0  0  0  0  0  0  0  0  0
  146.3037  135.0913  153.1583 O   0  0  0  0  0  0  0  0  0  0  0  0
  147.6511  137.0487  154.1850 N   0  0  0  0  0  0  0  0  0  0  0  0
  147.7757  138.4323  154.6542 C   0  0  0  0  0  0  0  0  0  0  0  0
  148.7872  139.2133  153.7790 C   0  0  0  0  0  0  0  0  0  0  0  0
  149.1706  140.5621  154.4131 C   0  0  0  0  0  0  0  0  0  0  0  0
  149.6668  140.3104  155.7743 N   0  0  0  0  0  0  0  0  0  0  0  0
  150.9675  140.2255  156.1515 C   0  0  0  0  0  0  0  0  0  0  0  0
  151.8972  140.1797  155.3447 O   0  0  0  0  0  0  0  0  0  0  0  0
  151.1701  140.2295  157.4816 N   0  0  0  0  0  0  0  0  0  0  0  0
  152.4711  140.3280  158.1420 C   0  0  0  0  0  0  0  0  0  0  0  0
  152.3920  141.0984  159.4768 C   0  0  0  0  0  0  0  0  0  0  0  0
  152.1433  142.5900  159.3159 C   0  0  0  0  0  0  0  0  0  0  0  0
  152.2702  143.4630  160.4177 C   0  0  0  0  0  0  0  0  0  0  0  0
  151.9763  144.8273  160.2321 C   0  0  0  0  0  0  0  0  0  0  0  0
  151.5763  145.2659  158.9557 C   0  0  0  0  0  0  0  0  0  0  0  0
  151.4952  144.3179  157.9162 C   0  0  0  0  0  0  0  0  0  0  0  0
  151.7748  143.0073  158.0840 N   0  0  0  0  0  0  0  0  0  0  0  0
  148.5849  139.8226  156.6350 C   0  0  0  0  0  0  0  0  0  0  0  0
  148.1837  138.4193  156.1451 C   0  0  0  0  0  0  0  0  0  0  0  0
  144.9279  137.2634  151.6363 H   0  0  0  0  0  0  0  0  0  0  0  0
  146.6881  137.3743  151.4066 H   0  0  0  0  0  0  0  0  0  0  0  0
  145.8424  138.5822  152.4038 H   0  0  0  0  0  0  0  0  0  0  0  0
  148.4009  136.8174  153.5338 H   0  0  0  0  0  0  0  0  0  0  0  0
  146.8021  138.9172  154.5742 H   0  0  0  0  0  0  0  0  0  0  0  0
  149.6888  138.6195  153.6388 H   0  0  0  0  0  0  0  0  0  0  0  0
  148.3750  139.3818  152.7838 H   0  0  0  0  0  0  0  0  0  0  0  0
  149.8829  141.0911  153.7796 H   0  0  0  0  0  0  0  0  0  0  0  0
  148.2946  141.2104  154.4607 H   0  0  0  0  0  0  0  0  0  0  0  0
  150.3562  140.2523  158.0784 H   0  0  0  0  0  0  0  0  0  0  0  0
  152.8501  139.3213  158.3193 H   0  0  0  0  0  0  0  0  0  0  0  0
  153.1984  140.8100  157.4869 H   0  0  0  0  0  0  0  0  0  0  0  0
  151.5932  140.6755  160.0874 H   0  0  0  0  0  0  0  0  0  0  0  0
  153.3122  140.9505  160.0434 H   0  0  0  0  0  0  0  0  0  0  0  0
  152.5668  143.0950  161.3888 H   0  0  0  0  0  0  0  0  0  0  0  0
  152.0496  145.5224  161.0555 H   0  0  0  0  0  0  0  0  0  0  0  0
  151.3396  146.3040  158.7763 H   0  0  0  0  0  0  0  0  0  0  0  0
  151.1952  144.6198  156.9239 H   0  0  0  0  0  0  0  0  0  0  0  0
  148.8681  139.7892  157.6881 H   0  0  0  0  0  0  0  0  0  0  0  0
  147.7317  140.5003  156.5809 H   0  0  0  0  0  0  0  0  0  0  0  0
  147.3665  138.0309  156.7539 H   0  0  0  0  0  0  0  0  0  0  0  0
  149.0259  137.7406  156.2923 H   0  0  0  0  0  0  0  0  0  0  0  0
  1  2  1  0  0  0  0
  1 23  1  0  0  0  0
  1 24  1  0  0  0  0
  1 25  1  0  0  0  0
  2  3  2  0  0  0  0
  2  4  2  0  0  0  0
  2  5  1  0  0  0  0
  5  6  1  0  0  0  0
  5 26  1  0  0  0  0
  6 22  1  0  0  0  0
  6  7  1  0  0  0  0
  6 27  1  0  0  0  0
  7  8  1  0  0  0  0
  7 28  1  0  0  0  0
  7 29  1  0  0  0  0
  8  9  1  0  0  0  0
  8 30  1  0  0  0  0
  8 31  1  0  0  0  0
  9 10  1  0  0  0  0
  9 21  1  0  0  0  0
 10 11  2  0  0  0  0
 10 12  1  0  0  0  0
 12 13  1  0  0  0  0
 12 32  1  0  0  0  0
 13 14  1  0  0  0  0
 13 33  1  0  0  0  0
 13 34  1  0  0  0  0
 14 15  1  0  0  0  0
 14 35  1  0  0  0  0
 14 36  1  0  0  0  0
 15 20  1  0  0  0  0
 15 16  2  0  0  0  0
 16 17  1  0  0  0  0
 16 37  1  0  0  0  0
 17 18  2  0  0  0  0
 17 38  1  0  0  0  0
 18 19  1  0  0  0  0
 18 39  1  0  0  0  0
 19 20  2  0  0  0  0
 19 40  1  0  0  0  0
 21 22  1  0  0  0  0
 21 41  1  0  0  0  0
 21 42  1  0  0  0  0
 22 43  1  0  0  0  0
 22 44  1  0  0  0  0
M  END
> <s_m_source_file>
AV-unprocessed.smi

> <i_m_source_file_index>
1629

> <i_lp_mmshare_version>
43012

> <i_f3d_flags>
0

> <s_epik_input>
W0NIM11TKD1PKSg9TylbTkhdW0NIXTFbQ0gyXVtDSDJdTihbQ0gyXVtDSDJdMSlDKD1PKVtOSF1bQ0gyXVtDSDJdYzJbY0hdW2NIXVtjSF1bY0hdbjI=

> <s_epik_cmdline>
J2VwaWtfcHl0aG9uJywgJy1waCcsICc3LjAnLCAnLXRuJywgJzgnLCAnLW1hJywgJzIwMCcsICctbWV0YWxfYmluZGluZycsICctaW1hZScsICc8aW5maWxlLm1hZT4nLCAnLW9tYWUnLCAnPG91dGZpbGUubWFlPic=

> <r_epik_Ionization_Penalty>
0.044864

> <r_epik_Ionization_Penalty_Charging>
0

> <r_epik_Ionization_Penalty_Neutral>
0.044864

> <r_epik_State_Penalty>
0.0379889

> <r_epik_Charging_Adjusted_Penalty>
0.0379889

> <i_epik_Tot_Q>
0

> <i_epik_Tot_abs_Q>
0

> <r_epik_Metal_State_Penalty>
0.04187

> <b_epik_Metal_Only>
0

> <s_lp_Force_Field>
OPLS_2005

> <r_lp_Energy>
21.9129

> <b_lp_Chiralities_Consistent>
1

> <s_lp_Variant>
AV-unprocessed.smi:1629-1

> <Gold.Version>
5.8.1

> <Gold.Id.Protein>
6NUR|6NUR_protein|mol2

> <Gold.PLP.Fitness>
42.8079

> <Gold.PLP.PLP>
-36.8446

> <Gold.PLP.part.hbond>
-2.0000

> <Gold.PLP.part.metal>
0.0000

> <Gold.PLP.part.buried>
-2.2680

> <Gold.PLP.part.nonpolar>
-33.0351

> <Gold.PLP.part.repulsive>
0.2418

> <Gold.PLP.ligand.clash>
0.0000

> <Gold.PLP.ligand.torsion>
1.3040

> <Gold.PLP.Chemscore.Hbond>
1.8080

> <Gold.PLP.Chemscore.CHOScore>
0.9958

> <Gold.PLP.Chemscore.Metal>
0.0000

> <Gold.Chemscore.Hbonds>
donor molecule, donor type, donor heavy atom, donor atom, acceptor molecule, acceptor atom, score
      L1  H     5    26       P1  7948  1.00
      P1  H  7989  7998       L1    11  0.82
      L1  C    19    40       P1  8028  0.84

> <Gold.PLP.Chemscore.Internal.Correction>
0.1598

> <Gold.Rescore>
     Score         DG    S(hbond)    S(metal)    S(lipo)     H(rot)  DE(clash)    DE(int)     intcor
     14.94     -17.57       1.81        0.00      96.31       2.03       0.12       2.51       ----

> <Gold.Chemscore.Fitness>
14.9386

> <Gold.Chemscore.DG>
-17.5750

> <Gold.Chemscore.ZeroCoef>
-5.4800

> <Gold.Chemscore.Hbond>
1.8064

> <Gold.Chemscore.Metal>
0.0000

> <Gold.Chemscore.Lipo>
96.3139

> <Gold.Chemscore.Internal_Hbond>
0.0000

> <Gold.Chemscore.DEClash>
0.1227

> <Gold.Chemscore.DEInternal>
2.5138

> <Gold.Chemscore.Rot>
2.0340

> <Gold.Chemscore.Internal.Correction>
   9.000000E+99

> <Gold.Chemscore.Hbonds>
donor molecule, donor type, donor heavy atom, donor atom, acceptor molecule, acceptor atom, score
      L1  H     5    26       P1  7948  0.95
      P1  H  7989  7998       L1    11  0.78

> <Gold.Chemscore.Hbond.Weighted>
-6.0333

> <Gold.Chemscore.Metal.Weighted>
-0.0000

> <Gold.Chemscore.Lipo.Weighted>
-11.2687

> <Gold.Chemscore.Internal_Hbond.Weighted>
0.0000

> <Gold.Chemscore.DEClash.Weighted>
0.1227

> <Gold.Chemscore.DEInternal.Weighted>
2.5138

> <Gold.Chemscore.Rot.Weighted>
5.2071

> <Gold.Chemscore.Internal.Correction.Weighted>
   9.000000E+99

> <Gold.Protein.RotatedTorsions>
[ 6907 6896 6895 6894 ] final   53.92 input  -60.11 | X-H torsion
[ 7974 7965 7964 7962 ] final  -32.17 input  175.53 | X-H torsion
[ 8008 7997 7996 7995 ] final  -56.65 input   59.86 | X-H torsion
[ 10167 10162 10161 10158 ] final -109.37 input  -65.29 | X-H torsion
[ 10718 10713 10712 10709 ] final   -0.72 input   66.30 | X-H torsion
[ 10763 10752 10751 10750 ] final  138.55 input  -60.55 | X-H torsion
[ 11005 11000 10999 10996 ] final -137.04 input  -57.11 | X-H torsion

> <Gold.Protein.ActiveResidues>
 VAL166  LYS551  ARG553  GLY616  TRP617  ASP618  TYR619  PRO620  LYS621  CYS622 
 ASP623  PHE694  ASN695  SER759  ASP760  ASP761  ALA762  ILE779  LEU786  VAL792 
 PHE793  MET794  SER795  GLU796  ALA797  LYS798  CYS799  TRP800  GLU811  SER814 

> <Gold.Protein.RotatedAtoms>
  152.3386  134.7165  160.0269 H   0  0  0  0  0  0  0  0  0  0  0  0  # atno 6907 bound_to 6896
  151.7557  133.3325  159.3412 H   0  0  0  0  0  0  0  0  0  0  0  0  # atno 6908 bound_to 6896
  150.7466  134.6084  159.6117 H   0  0  0  0  0  0  0  0  0  0  0  0  # atno 6909 bound_to 6896
  146.1010  140.5759  142.8821 H   0  0  0  0  0  0  0  0  0  0  0  0  # atno 7974 bound_to 7965
  154.4238  140.1125  156.5671 H   0  0  0  0  0  0  0  0  0  0  0  0  # atno 8008 bound_to 7997
  155.6251  140.3495  155.4645 H   0  0  0  0  0  0  0  0  0  0  0  0  # atno 8009 bound_to 7997
  155.9993  140.1196  157.0552 H   0  0  0  0  0  0  0  0  0  0  0  0  # atno 8010 bound_to 7997
  140.1560  143.4159  152.1460 H   0  0  0  0  0  0  0  0  0  0  0  0  # atno 10167 bound_to 10162
  156.8163  130.5441  149.5702 H   0  0  0  0  0  0  0  0  0  0  0  0  # atno 10718 bound_to 10713
  153.8915  135.3032  155.3447 H   0  0  0  0  0  0  0  0  0  0  0  0  # atno 10763 bound_to 10752
  154.7714  135.4884  153.9660 H   0  0  0  0  0  0  0  0  0  0  0  0  # atno 10764 bound_to 10752
  153.1295  135.6800  153.9300 H   0  0  0  0  0  0  0  0  0  0  0  0  # atno 10765 bound_to 10752
  140.8748  134.2005  157.4628 H   0  0  0  0  0  0  0  0  0  0  0  0  # atno 11005 bound_to 11000
  144.7433  140.5001  143.6854 LP  0  0  0  0  0  0  0  0  0  0  0  0  # atno 17320 bound_to 7965
  145.5854  139.1491  143.3212 LP  0  0  0  0  0  0  0  0  0  0  0  0  # atno 17321 bound_to 7965
  139.5403  144.7250  151.4755 LP  0  0  0  0  0  0  0  0  0  0  0  0  # atno 17342 bound_to 10162
  140.6673  143.8371  150.6957 LP  0  0  0  0  0  0  0  0  0  0  0  0  # atno 17343 bound_to 10162
  156.1015  130.5972  150.9901 LP  0  0  0  0  0  0  0  0  0  0  0  0  # atno 17370 bound_to 10713
  157.6480  131.0901  150.8112 LP  0  0  0  0  0  0  0  0  0  0  0  0  # atno 17371 bound_to 10713
  139.8715  134.9791  156.5022 LP  0  0  0  0  0  0  0  0  0  0  0  0  # atno 17394 bound_to 11000
  140.8531  133.8117  155.9188 LP  0  0  0  0  0  0  0  0  0  0  0  0  # atno 17395 bound_to 11000

$$$$
