AV-unprocessed.smi:260|AV-procd|sdf|1977|dock9
  -GOLD-   2262021143D 1   1.00000     0.00000
 Structure written by MMmdl.
 53 56  0  0  0  0  0  0  0  0  1 V2000
  158.5242  141.3971  159.0696 C   0  0  0  0  0  0  0  0  0  0  0  0
  157.4462  140.7879  159.8335 N   0  0  0  0  0  0  0  0  0  0  0  0
  156.6304  139.8295  159.3656 C   0  0  0  0  0  0  0  0  0  0  0  0
  156.7428  139.3842  158.2220 O   0  0  0  0  0  0  0  0  0  0  0  0
  155.5224  139.2857  160.3105 C   0  0  1  0  0  0  0  0  0  0  0  0
  155.7974  137.8310  160.7578 C   0  0  0  0  0  0  0  0  0  0  0  0
  155.3510  140.2266  161.5209 C   0  0  0  0  0  0  0  0  0  0  0  0
  154.3885  141.3183  161.0469 C   0  0  0  0  0  0  0  0  0  0  0  0
  153.5766  140.6813  160.0249 N   0  0  0  0  0  0  0  0  0  0  0  0
  152.6692  141.3492  159.2656 C   0  0  0  0  0  0  0  0  0  0  0  0
  152.1283  142.4909  159.7681 N   0  0  0  0  0  0  0  0  0  0  0  0
  151.2309  143.1868  159.0654 C   0  0  0  0  0  0  0  0  0  0  0  0
  150.7400  142.9282  157.8531 N   0  0  0  0  0  0  0  0  0  0  0  0
  151.2808  141.7889  157.3355 C   0  0  0  0  0  0  0  0  0  0  0  0
  152.2432  140.9460  157.9641 C   0  0  0  0  0  0  0  0  0  0  0  0
  152.5485  139.8833  157.1189 N   0  0  0  0  0  0  0  0  0  0  0  0
  151.8098  140.0827  156.0624 C   0  0  0  0  0  0  0  0  0  0  0  0
  151.0154  141.2036  156.1101 N   0  0  0  0  0  0  0  0  0  0  0  0
  150.0974  141.6577  155.0803 C   0  0  0  0  0  0  0  0  0  0  0  0
  148.6305  141.3238  155.4140 C   0  0  1  0  0  0  0  0  0  0  0  0
  147.8086  142.4177  155.0536 O   0  0  0  0  0  0  0  0  0  0  0  0
  148.1378  140.0668  154.6739 C   0  0  2  0  0  0  0  0  0  0  0  0
  147.8939  140.2643  153.1766 C   0  0  0  0  0  0  0  0  0  0  0  0
  146.8578  139.2040  152.8360 C   0  0  0  0  0  0  0  0  0  0  0  0
  146.3213  138.7560  154.1980 C   0  0  0  0  0  0  0  0  0  0  0  0
  146.8462  139.6922  155.1286 O   0  0  0  0  0  0  0  0  0  0  0  0
  154.1369  139.3919  159.6322 C   0  0  0  0  0  0  0  0  0  0  0  0
  159.0332  142.1454  159.6770 H   0  0  0  0  0  0  0  0  0  0  0  0
  158.1374  141.8886  158.1760 H   0  0  0  0  0  0  0  0  0  0  0  0
  159.2567  140.6478  158.7666 H   0  0  0  0  0  0  0  0  0  0  0  0
  157.3076  141.1146  160.7789 H   0  0  0  0  0  0  0  0  0  0  0  0
  154.9853  137.4491  161.3776 H   0  0  0  0  0  0  0  0  0  0  0  0
  156.7101  137.7560  161.3504 H   0  0  0  0  0  0  0  0  0  0  0  0
  155.8911  137.1593  159.9033 H   0  0  0  0  0  0  0  0  0  0  0  0
  154.8959  139.6863  162.3520 H   0  0  0  0  0  0  0  0  0  0  0  0
  156.2918  140.6415  161.8860 H   0  0  0  0  0  0  0  0  0  0  0  0
  153.7791  141.6951  161.8687 H   0  0  0  0  0  0  0  0  0  0  0  0
  154.9378  142.1534  160.6106 H   0  0  0  0  0  0  0  0  0  0  0  0
  150.8522  144.0783  159.5430 H   0  0  0  0  0  0  0  0  0  0  0  0
  151.8216  139.4115  155.2159 H   0  0  0  0  0  0  0  0  0  0  0  0
  150.2253  142.7320  154.9417 H   0  0  0  0  0  0  0  0  0  0  0  0
  150.3874  141.1875  154.1399 H   0  0  0  0  0  0  0  0  0  0  0  0
  148.5323  141.1700  156.4895 H   0  0  0  0  0  0  0  0  0  0  0  0
  148.0697  143.1697  155.5635 H   0  0  0  0  0  0  0  0  0  0  0  0
  148.8246  139.2331  154.8336 H   0  0  0  0  0  0  0  0  0  0  0  0
  147.4757  141.2543  152.9893 H   0  0  0  0  0  0  0  0  0  0  0  0
  148.8063  140.1690  152.5871 H   0  0  0  0  0  0  0  0  0  0  0  0
  146.0697  139.6202  152.2077 H   0  0  0  0  0  0  0  0  0  0  0  0
  147.3042  138.3637  152.3031 H   0  0  0  0  0  0  0  0  0  0  0  0
  145.2319  138.7351  154.2338 H   0  0  0  0  0  0  0  0  0  0  0  0
  146.6891  137.7592  154.4459 H   0  0  0  0  0  0  0  0  0  0  0  0
  154.2173  139.2961  158.5480 H   0  0  0  0  0  0  0  0  0  0  0  0
  153.4648  138.6060  159.9781 H   0  0  0  0  0  0  0  0  0  0  0  0
  1  2  1  0  0  0  0
  1 28  1  0  0  0  0
  1 29  1  0  0  0  0
  1 30  1  0  0  0  0
  2  3  1  0  0  0  0
  2 31  1  0  0  0  0
  3  4  2  0  0  0  0
  3  5  1  0  0  0  0
  5 27  1  0  0  0  0
  5  6  1  0  0  0  0
  5  7  1  0  0  0  0
  6 32  1  0  0  0  0
  6 33  1  0  0  0  0
  6 34  1  0  0  0  0
  7  8  1  0  0  0  0
  7 35  1  0  0  0  0
  7 36  1  0  0  0  0
  8  9  1  0  0  0  0
  8 37  1  0  0  0  0
  8 38  1  0  0  0  0
  9 10  1  0  0  0  0
  9 27  1  0  0  0  0
 10 15  1  0  0  0  0
 10 11  2  0  0  0  0
 11 12  1  0  0  0  0
 12 13  2  0  0  0  0
 12 39  1  0  0  0  0
 13 14  1  0  0  0  0
 14 18  1  0  0  0  0
 14 15  2  0  0  0  0
 15 16  1  0  0  0  0
 16 17  2  0  0  0  0
 17 18  1  0  0  0  0
 17 40  1  0  0  0  0
 18 19  1  0  0  0  0
 19 20  1  0  0  0  0
 19 41  1  0  0  0  0
 19 42  1  0  0  0  0
 20 21  1  0  0  0  0
 20 22  1  0  0  0  0
 20 43  1  0  0  0  0
 21 44  1  0  0  0  0
 22 26  1  0  0  0  0
 22 23  1  0  0  0  0
 22 45  1  0  0  0  0
 23 24  1  0  0  0  0
 23 46  1  0  0  0  0
 23 47  1  0  0  0  0
 24 25  1  0  0  0  0
 24 48  1  0  0  0  0
 24 49  1  0  0  0  0
 25 26  1  0  0  0  0
 25 50  1  0  0  0  0
 25 51  1  0  0  0  0
 27 52  1  0  0  0  0
 27 53  1  0  0  0  0
M  END
> <s_m_source_file>
AV-unprocessed.smi

> <i_m_source_file_index>
260

> <i_lp_mmshare_version>
43012

> <i_f3d_flags>
0

> <s_epik_input>
W0NIM11bTkhdQyg9TylbQ0BAXTEoW0NIM10pW0NIMl1bQ0gyXU4oW0NIMl0xKWMobltjSF1uMiljKGMyMyluW2NIXW4zW0NIMl1bQ0BIXShbT0hdKVtDQEBIXTRbQ0gyXVtDSDJdW0NIMl1PNA==

> <s_epik_cmdline>
J2VwaWtfcHl0aG9uJywgJy1waCcsICc3LjAnLCAnLXRuJywgJzgnLCAnLW1hJywgJzIwMCcsICctbWV0YWxfYmluZGluZycsICctaW1hZScsICc8aW5maWxlLm1hZT4nLCAnLW9tYWUnLCAnPG91dGZpbGUubWFlPic=

> <r_lp_tautomer_probability>
1

> <r_epik_Ionization_Penalty>
0.00115068

> <r_epik_Ionization_Penalty_Charging>
0

> <r_epik_Ionization_Penalty_Neutral>
0.00115068

> <r_epik_State_Penalty>
0.000668876

> <r_epik_Charging_Adjusted_Penalty>
0.000668876

> <i_epik_Tot_Q>
0

> <i_epik_Tot_abs_Q>
0

> <r_epik_Metal_State_Penalty>
-0

> <b_epik_Metal_Only>
0

> <s_lp_Force_Field>
OPLS_2005

> <r_lp_Energy>
48.4888

> <b_lp_Chiralities_Consistent>
1

> <s_lp_Variant>
AV-unprocessed.smi:260-3

> <Gold.Version>
5.8.1

> <Gold.Id.Protein>
6NUR|6NUR_protein|mol2

> <Gold.PLP.Fitness>
46.5977

> <Gold.PLP.PLP>
-40.1813

> <Gold.PLP.part.hbond>
-3.5370

> <Gold.PLP.part.metal>
0.0000

> <Gold.PLP.part.buried>
-0.4197

> <Gold.PLP.part.nonpolar>
-35.3427

> <Gold.PLP.part.repulsive>
0.3090

> <Gold.PLP.ligand.clash>
0.0698

> <Gold.PLP.ligand.torsion>
1.3571

> <Gold.PLP.Chemscore.Hbond>
3.0000

> <Gold.PLP.Chemscore.CHOScore>
0.0000

> <Gold.PLP.Chemscore.Metal>
0.0000

> <Gold.Chemscore.Hbonds>
donor molecule, donor type, donor heavy atom, donor atom, acceptor molecule, acceptor atom, score
      L1  H    21    44       P1  8028  0.98
      P1  H  7997  8008       L1    16  1.00
      P1  H  7997  8010       L1     4  0.89

> <Gold.PLP.Chemscore.Internal.Correction>
0.2005

> <Gold.Rescore>
     Score         DG    S(hbond)    S(metal)    S(lipo)     H(rot)  DE(clash)    DE(int)     intcor
     12.56     -15.53       2.05        0.00      82.61       2.53       0.96       2.01       ----

> <Gold.Chemscore.Fitness>
12.5576

> <Gold.Chemscore.DG>
-15.5330

> <Gold.Chemscore.ZeroCoef>
-5.4800

> <Gold.Chemscore.Hbond>
2.0520

> <Gold.Chemscore.Metal>
0.0000

> <Gold.Chemscore.Lipo>
82.6113

> <Gold.Chemscore.Internal_Hbond>
0.0000

> <Gold.Chemscore.DEClash>
0.9618

> <Gold.Chemscore.DEInternal>
2.0136

> <Gold.Chemscore.Rot>
2.5259

> <Gold.Chemscore.Internal.Correction>
   9.000000E+99

> <Gold.Chemscore.Hbonds>
donor molecule, donor type, donor heavy atom, donor atom, acceptor molecule, acceptor atom, score
      L1  H    21    44       P1  8028  0.73
      P1  H  7997  8008       L1    16  0.36
      P1  H  7997  8010       L1     4  0.82

> <Gold.Chemscore.Hbond.Weighted>
-6.8538

> <Gold.Chemscore.Metal.Weighted>
-0.0000

> <Gold.Chemscore.Lipo.Weighted>
-9.6655

> <Gold.Chemscore.Internal_Hbond.Weighted>
0.0000

> <Gold.Chemscore.DEClash.Weighted>
0.9618

> <Gold.Chemscore.DEInternal.Weighted>
2.0136

> <Gold.Chemscore.Rot.Weighted>
6.4663

> <Gold.Chemscore.Internal.Correction.Weighted>
   9.000000E+99

> <Gold.Protein.RotatedTorsions>
[ 6907 6896 6895 6894 ] final    2.89 input  -60.11 | X-H torsion
[ 7974 7965 7964 7962 ] final -173.35 input  175.53 | X-H torsion
[ 8008 7997 7996 7995 ] final  -53.34 input   59.86 | X-H torsion
[ 10167 10162 10161 10158 ] final   77.09 input  -65.29 | X-H torsion
[ 10718 10713 10712 10709 ] final -166.53 input   66.30 | X-H torsion
[ 10763 10752 10751 10750 ] final -156.57 input  -60.55 | X-H torsion
[ 11005 11000 10999 10996 ] final  177.68 input  -57.11 | X-H torsion

> <Gold.Protein.ActiveResidues>
 VAL166  LYS551  ARG553  GLY616  TRP617  ASP618  TYR619  PRO620  LYS621  CYS622 
 ASP623  PHE694  ASN695  SER759  ASP760  ASP761  ALA762  ILE779  LEU786  VAL792 
 PHE793  MET794  SER795  GLU796  ALA797  LYS798  CYS799  TRP800  GLU811  SER814 

> <Gold.Protein.RotatedAtoms>
  151.6161  135.1036  160.0091 H   0  0  0  0  0  0  0  0  0  0  0  0  # atno 6907 bound_to 6896
  152.4182  133.7069  159.6467 H   0  0  0  0  0  0  0  0  0  0  0  0  # atno 6908 bound_to 6896
  150.8070  133.8418  159.3222 H   0  0  0  0  0  0  0  0  0  0  0  0  # atno 6909 bound_to 6896
  144.7138  140.1635  143.6374 H   0  0  0  0  0  0  0  0  0  0  0  0  # atno 7974 bound_to 7965
  154.4130  140.1202  156.5137 H   0  0  0  0  0  0  0  0  0  0  0  0  # atno 8008 bound_to 7997
  155.6773  140.3496  155.4822 H   0  0  0  0  0  0  0  0  0  0  0  0  # atno 8009 bound_to 7997
  155.9582  140.1118  157.0909 H   0  0  0  0  0  0  0  0  0  0  0  0  # atno 8010 bound_to 7997
  139.9853  144.5797  150.7865 H   0  0  0  0  0  0  0  0  0  0  0  0  # atno 10167 bound_to 10162
  156.6693  130.9077  151.3041 H   0  0  0  0  0  0  0  0  0  0  0  0  # atno 10718 bound_to 10713
  154.7703  135.3143  154.8203 H   0  0  0  0  0  0  0  0  0  0  0  0  # atno 10763 bound_to 10752
  153.8941  135.6822  153.4763 H   0  0  0  0  0  0  0  0  0  0  0  0  # atno 10764 bound_to 10752
  153.1315  135.4778  154.9291 H   0  0  0  0  0  0  0  0  0  0  0  0  # atno 10765 bound_to 10752
  140.3867  134.6898  157.4483 H   0  0  0  0  0  0  0  0  0  0  0  0  # atno 11005 bound_to 11000
  145.9009  139.2429  143.1494 LP  0  0  0  0  0  0  0  0  0  0  0  0  # atno 17320 bound_to 7965
  145.9812  140.8681  143.0113 LP  0  0  0  0  0  0  0  0  0  0  0  0  # atno 17321 bound_to 7965
  140.7474  143.2906  151.3340 LP  0  0  0  0  0  0  0  0  0  0  0  0  # atno 17342 bound_to 10162
  139.6380  144.0594  152.2531 LP  0  0  0  0  0  0  0  0  0  0  0  0  # atno 17343 bound_to 10162
  157.7083  130.9410  150.1003 LP  0  0  0  0  0  0  0  0  0  0  0  0  # atno 17370 bound_to 10713
  156.1951  130.3657  149.8859 LP  0  0  0  0  0  0  0  0  0  0  0  0  # atno 17371 bound_to 10713
  140.0437  134.6230  155.8948 LP  0  0  0  0  0  0  0  0  0  0  0  0  # atno 17394 bound_to 11000
  141.1905  133.6568  156.5414 LP  0  0  0  0  0  0  0  0  0  0  0  0  # atno 17395 bound_to 11000

$$$$
