AV-unprocessed.smi:2377|AV-procd|sdf|9445|dock4
  -GOLD-   2272013 73D 1   1.00000     0.00000
 Structure written by MMmdl.
 24 24  0  0  0  0  0  0  0  0  2 V2000
  146.6748  138.7384  151.8510 C   0  0  0  0  0  0  0  0  0  0  0  0
  147.9933  138.6057  152.4976 N   0  3  0  0  0  0  0  0  0  0  0  0
  147.9786  138.8750  153.9495 C   0  0  0  0  0  0  0  0  0  0  0  0
  149.0320  139.9268  154.3402 C   0  0  2  0  0  0  0  0  0  0  0  0
  149.2021  140.8245  153.2600 O   0  0  0  0  0  0  0  0  0  0  0  0
  150.3426  139.2680  154.7392 C   0  0  0  0  0  0  0  0  0  0  0  0
  151.2234  139.8764  155.6604 C   0  0  0  0  0  0  0  0  0  0  0  0
  152.4276  139.2227  155.9848 C   0  0  0  0  0  0  0  0  0  0  0  0
  152.7054  137.9851  155.3714 C   0  0  0  0  0  0  0  0  0  0  0  0
  151.8745  137.3947  154.4859 N   0  0  0  0  0  0  0  0  0  0  0  0
  150.7214  138.0272  154.1813 C   0  0  0  0  0  0  0  0  0  0  0  0
  146.7588  138.5244  150.7855 H   0  0  0  0  0  0  0  0  0  0  0  0
  146.2865  139.7509  151.9667 H   0  0  0  0  0  0  0  0  0  0  0  0
  145.9589  138.0391  152.2842 H   0  0  0  0  0  0  0  0  0  0  0  0
  148.3300  137.6636  152.3554 H   0  0  0  0  0  0  0  0  0  0  0  0
  146.9842  139.2308  154.2236 H   0  0  0  0  0  0  0  0  0  0  0  0
  148.1471  137.9456  154.4959 H   0  0  0  0  0  0  0  0  0  0  0  0
  148.6650  140.5055  155.1892 H   0  0  0  0  0  0  0  0  0  0  0  0
  148.9556  140.3841  152.4603 H   0  0  0  0  0  0  0  0  0  0  0  0
  150.9842  140.8285  156.1110 H   0  0  0  0  0  0  0  0  0  0  0  0
  153.1224  139.6593  156.6871 H   0  0  0  0  0  0  0  0  0  0  0  0
  153.6199  137.4564  155.5965 H   0  0  0  0  0  0  0  0  0  0  0  0
  150.0833  137.5269  153.4678 H   0  0  0  0  0  0  0  0  0  0  0  0
  148.6366  139.2478  152.0571 H   0  0  0  0  0  0  0  0  0  0  0  0
  1  2  1  0  0  0  0
  1 12  1  0  0  0  0
  1 13  1  0  0  0  0
  1 14  1  0  0  0  0
  2  3  1  0  0  0  0
  2 15  1  0  0  0  0
  2 24  1  0  0  0  0
  3  4  1  0  0  0  0
  3 16  1  0  0  0  0
  3 17  1  0  0  0  0
  4  5  1  0  0  0  0
  4  6  1  0  0  0  0
  4 18  1  0  0  0  0
  5 19  1  0  0  0  0
  6 11  1  0  0  0  0
  6  7  2  0  0  0  0
  7  8  1  0  0  0  0
  7 20  1  0  0  0  0
  8  9  2  0  0  0  0
  8 21  1  0  0  0  0
  9 10  1  0  0  0  0
  9 22  1  0  0  0  0
 10 11  2  0  0  0  0
 11 23  1  0  0  0  0
M  CHG  1   2   1
M  END
> <s_m_source_file>
AV-unprocessed.smi

> <i_m_source_file_index>
2377

> <i_lp_mmshare_version>
43012

> <i_f3d_flags>
0

> <s_epik_input>
W0NIM11bTkhdW0NIMl1bQ0BIXShbT0hdKWMxW2NIXVtjSF1bY0hdbltjSF0x

> <s_epik_cmdline>
J2VwaWtfcHl0aG9uJywgJy1waCcsICc3LjAnLCAnLXRuJywgJzgnLCAnLW1hJywgJzIwMCcsICctbWV0YWxfYmluZGluZycsICctaW1hZScsICc8aW5maWxlLm1hZT4nLCAnLW9tYWUnLCAnPG91dGZpbGUubWFlPic=

> <r_epik_Ionization_Penalty>
0.00990913

> <r_epik_Ionization_Penalty_Charging>
0.00939893

> <r_epik_Ionization_Penalty_Neutral>
0.000510194

> <r_epik_State_Penalty>
0.00713549

> <r_epik_Charging_Adjusted_Penalty>
0.0165344

> <i_epik_Tot_Q>
1

> <i_epik_Tot_abs_Q>
1

> <r_epik_Metal_State_Penalty>
0.00716299

> <b_epik_Metal_Only>
0

> <s_lp_Force_Field>
OPLS_2005

> <r_lp_Energy>
6.48909

> <b_lp_Chiralities_Consistent>
1

> <s_lp_Variant>
AV-unprocessed.smi:2377-1

> <Gold.Version>
5.8.1

> <Gold.Id.Protein>
6NUR|6NUR_protein|mol2

> <Gold.PLP.Fitness>
42.4922

> <Gold.PLP.PLP>
-26.9070

> <Gold.PLP.part.hbond>
-5.1998

> <Gold.PLP.part.metal>
0.0000

> <Gold.PLP.part.buried>
-1.3564

> <Gold.PLP.part.nonpolar>
-22.0644

> <Gold.PLP.part.repulsive>
0.2251

> <Gold.PLP.ligand.clash>
0.0000

> <Gold.PLP.ligand.torsion>
1.4913

> <Gold.PLP.Chemscore.Hbond>
5.0943

> <Gold.PLP.Chemscore.CHOScore>
1.0914

> <Gold.PLP.Chemscore.Metal>
0.0000

> <Gold.Chemscore.Hbonds>
donor molecule, donor type, donor heavy atom, donor atom, acceptor molecule, acceptor atom, score
      L1  H     2    15       P1  7948  2.00
      L1  H     2    24       P1  7957  0.98
      L1  H     5    19       P1  7957  0.66
      P1  H  7989  7998       L1     5  0.01
      P1  H  8011  8017       L1     5  0.65
      P1  H 10752 10765       L1    10  0.78
      L1  C    11    23       P1  7948  1.00
      L1  C    11    23       P1  7949  0.05

> <Gold.PLP.Chemscore.Internal.Correction>
0.0105

> <Gold.Rescore>
     Score         DG    S(hbond)    S(metal)    S(lipo)     H(rot)  DE(clash)    DE(int)     intcor
     16.20     -17.74       3.35        0.00      53.76       2.03       0.06       1.48       ----

> <Gold.Chemscore.Fitness>
16.2011

> <Gold.Chemscore.DG>
-17.7445

> <Gold.Chemscore.ZeroCoef>
-5.4800

> <Gold.Chemscore.Hbond>
3.3480

> <Gold.Chemscore.Metal>
0.0000

> <Gold.Chemscore.Lipo>
53.7606

> <Gold.Chemscore.Internal_Hbond>
0.0000

> <Gold.Chemscore.DEClash>
0.0609

> <Gold.Chemscore.DEInternal>
1.4825

> <Gold.Chemscore.Rot>
2.0344

> <Gold.Chemscore.Internal.Correction>
   9.000000E+99

> <Gold.Chemscore.Hbonds>
donor molecule, donor type, donor heavy atom, donor atom, acceptor molecule, acceptor atom, score
      L1  H     2    15       P1  7948  0.99
      L1  H     2    24       P1  7957  0.92
      L1  H     5    19       P1  7957  0.64
      P1  H  8011  8017       L1     5  0.06
      P1  H 10752 10765       L1    10  0.12

> <Gold.Chemscore.Hbond.Weighted>
-11.1824

> <Gold.Chemscore.Metal.Weighted>
-0.0000

> <Gold.Chemscore.Lipo.Weighted>
-6.2900

> <Gold.Chemscore.Internal_Hbond.Weighted>
0.0000

> <Gold.Chemscore.DEClash.Weighted>
0.0609

> <Gold.Chemscore.DEInternal.Weighted>
1.4825

> <Gold.Chemscore.Rot.Weighted>
5.2080

> <Gold.Chemscore.Internal.Correction.Weighted>
   9.000000E+99

> <Gold.Protein.RotatedTorsions>
[ 6907 6896 6895 6894 ] final -144.77 input  -60.11 | X-H torsion
[ 7974 7965 7964 7962 ] final -124.24 input  175.53 | X-H torsion
[ 8008 7997 7996 7995 ] final   69.17 input   59.86 | X-H torsion
[ 10167 10162 10161 10158 ] final   25.39 input  -65.29 | X-H torsion
[ 10718 10713 10712 10709 ] final -114.06 input   66.30 | X-H torsion
[ 10763 10752 10751 10750 ] final  156.23 input  -60.55 | X-H torsion
[ 11005 11000 10999 10996 ] final   14.65 input  -57.11 | X-H torsion

> <Gold.Protein.ActiveResidues>
 VAL166  LYS551  ARG553  GLY616  TRP617  ASP618  TYR619  PRO620  LYS621  CYS622 
 ASP623  PHE694  ASN695  SER759  ASP760  ASP761  ALA762  ILE779  LEU786  VAL792 
 PHE793  MET794  SER795  GLU796  ALA797  LYS798  CYS799  TRP800  GLU811  SER814 

> <Gold.Protein.RotatedAtoms>
  151.1186  133.5120  159.2602 H   0  0  0  0  0  0  0  0  0  0  0  0  # atno 6907 bound_to 6896
  151.1887  135.0392  159.8833 H   0  0  0  0  0  0  0  0  0  0  0  0  # atno 6908 bound_to 6896
  152.5454  134.1029  159.8379 H   0  0  0  0  0  0  0  0  0  0  0  0  # atno 6909 bound_to 6896
  145.0101  140.7898  143.4443 H   0  0  0  0  0  0  0  0  0  0  0  0  # atno 7974 bound_to 7965
  155.7195  140.3493  155.5009 H   0  0  0  0  0  0  0  0  0  0  0  0  # atno 8008 bound_to 7997
  155.9282  140.1079  157.1175 H   0  0  0  0  0  0  0  0  0  0  0  0  # atno 8009 bound_to 7997
  154.4081  140.1236  156.4755 H   0  0  0  0  0  0  0  0  0  0  0  0  # atno 8010 bound_to 7997
  140.5110  144.0160  150.6373 H   0  0  0  0  0  0  0  0  0  0  0  0  # atno 10167 bound_to 10162
  156.0806  130.6007  150.8725 H   0  0  0  0  0  0  0  0  0  0  0  0  # atno 10718 bound_to 10713
  154.1810  135.2799  155.3052 H   0  0  0  0  0  0  0  0  0  0  0  0  # atno 10763 bound_to 10752
  154.6003  135.5532  153.7370 H   0  0  0  0  0  0  0  0  0  0  0  0  # atno 10764 bound_to 10752
  153.0138  135.6390  154.1949 H   0  0  0  0  0  0  0  0  0  0  0  0  # atno 10765 bound_to 10752
  140.4672  134.1068  155.7726 H   0  0  0  0  0  0  0  0  0  0  0  0  # atno 11005 bound_to 11000
  145.2034  139.2240  143.5181 LP  0  0  0  0  0  0  0  0  0  0  0  0  # atno 17320 bound_to 7965
  146.3468  140.1857  142.8589 LP  0  0  0  0  0  0  0  0  0  0  0  0  # atno 17321 bound_to 7965
  140.3482  143.2978  152.0515 LP  0  0  0  0  0  0  0  0  0  0  0  0  # atno 17342 bound_to 10162
  139.4896  144.6393  151.6911 LP  0  0  0  0  0  0  0  0  0  0  0  0  # atno 17343 bound_to 10162
  157.5921  131.0944  150.9101 LP  0  0  0  0  0  0  0  0  0  0  0  0  # atno 17370 bound_to 10713
  156.9275  130.5337  149.5279 LP  0  0  0  0  0  0  0  0  0  0  0  0  # atno 17371 bound_to 10713
  141.1594  133.8821  157.1889 LP  0  0  0  0  0  0  0  0  0  0  0  0  # atno 17394 bound_to 11000
  139.9908  135.0065  156.9970 LP  0  0  0  0  0  0  0  0  0  0  0  0  # atno 17395 bound_to 11000

$$$$
