AV-unprocessed.smi:2853|AV-procd|sdf|10973|dock5
  -GOLD-   2272015423D 1   1.00000     0.00000
 Structure written by MMmdl.
 43 44  0  0  0  0  0  0  0  0  1 V2000
  141.2613  137.0895  150.6838 C   0  0  0  0  0  0  0  0  0  0  0  0
  142.7291  136.9249  150.8819 C   0  0  0  0  0  0  0  0  0  0  0  0
  143.4003  135.8198  150.5616 N   0  0  0  0  0  0  0  0  0  0  0  0
  144.7650  135.9114  150.8509 C   0  0  0  0  0  0  0  0  0  0  0  0
  145.6490  134.7331  150.5469 C   0  0  0  0  0  0  0  0  0  0  0  0
  145.2219  133.4408  151.2732 C   0  0  0  0  0  0  0  0  0  0  0  0
  146.1959  132.2765  151.0227 C   0  0  0  0  0  0  0  0  0  0  0  0
  143.7893  133.0444  150.8864 C   0  0  0  0  0  0  0  0  0  0  0  0
  145.1453  137.1137  151.4077 C   0  0  0  0  0  0  0  0  0  0  0  0
  146.4126  137.4164  151.7966 N   0  0  0  0  0  0  0  0  0  0  0  0
  146.8543  138.4588  152.5213 C   0  0  0  0  0  0  0  0  0  0  0  0
  146.1722  139.4173  152.8826 O   0  0  0  0  0  0  0  0  0  0  0  0
  148.1638  138.3269  152.7931 N   0  0  0  0  0  0  0  0  0  0  0  0
  149.0379  139.2301  153.5544 C   0  0  1  0  0  0  0  0  0  0  0  0
  148.2140  139.7849  154.7313 C   0  0  0  0  0  0  0  0  0  0  0  0
  150.3126  138.5386  154.0689 C   0  0  0  0  0  0  0  0  0  0  0  0
  151.4524  139.2843  153.3775 C   0  0  0  0  0  0  0  0  0  0  0  0
  150.9133  140.5754  153.1530 O   0  0  0  0  0  0  0  0  0  0  0  0
  149.5851  140.3879  152.6909 C   0  0  0  0  0  0  0  0  0  0  0  0
  143.7519  138.1714  151.5720 S   0  0  0  0  0  0  0  0  0  0  0  0
  140.8493  136.2414  150.1361 H   0  0  0  0  0  0  0  0  0  0  0  0
  141.0609  138.0002  150.1193 H   0  0  0  0  0  0  0  0  0  0  0  0
  140.7613  137.1585  151.6499 H   0  0  0  0  0  0  0  0  0  0  0  0
  145.6431  134.5539  149.4708 H   0  0  0  0  0  0  0  0  0  0  0  0
  146.6869  134.9622  150.7915 H   0  0  0  0  0  0  0  0  0  0  0  0
  145.2176  133.6446  152.3451 H   0  0  0  0  0  0  0  0  0  0  0  0
  146.2732  132.0464  149.9595 H   0  0  0  0  0  0  0  0  0  0  0  0
  145.8660  131.3723  151.5352 H   0  0  0  0  0  0  0  0  0  0  0  0
  147.1971  132.5059  151.3877 H   0  0  0  0  0  0  0  0  0  0  0  0
  143.7129  132.8239  149.8211 H   0  0  0  0  0  0  0  0  0  0  0  0
  143.0844  133.8452  151.1122 H   0  0  0  0  0  0  0  0  0  0  0  0
  143.4643  132.1590  151.4337 H   0  0  0  0  0  0  0  0  0  0  0  0
  147.1125  136.7402  151.5288 H   0  0  0  0  0  0  0  0  0  0  0  0
  148.6140  137.4971  152.4359 H   0  0  0  0  0  0  0  0  0  0  0  0
  148.7956  140.4914  155.3250 H   0  0  0  0  0  0  0  0  0  0  0  0
  147.8853  138.9862  155.3973 H   0  0  0  0  0  0  0  0  0  0  0  0
  147.3242  140.3092  154.3804 H   0  0  0  0  0  0  0  0  0  0  0  0
  150.4091  138.6603  155.1485 H   0  0  0  0  0  0  0  0  0  0  0  0
  150.3510  137.4670  153.8704 H   0  0  0  0  0  0  0  0  0  0  0  0
  152.3570  139.3255  153.9846 H   0  0  0  0  0  0  0  0  0  0  0  0
  151.7021  138.8211  152.4219 H   0  0  0  0  0  0  0  0  0  0  0  0
  149.6244  140.1428  151.6292 H   0  0  0  0  0  0  0  0  0  0  0  0
  149.0044  141.3058  152.7878 H   0  0  0  0  0  0  0  0  0  0  0  0
  1  2  1  0  0  0  0
  1 21  1  0  0  0  0
  1 22  1  0  0  0  0
  1 23  1  0  0  0  0
  2 20  1  0  0  0  0
  2  3  2  0  0  0  0
  3  4  1  0  0  0  0
  4  5  1  0  0  0  0
  4  9  2  0  0  0  0
  5  6  1  0  0  0  0
  5 24  1  0  0  0  0
  5 25  1  0  0  0  0
  6  7  1  0  0  0  0
  6  8  1  0  0  0  0
  6 26  1  0  0  0  0
  7 27  1  0  0  0  0
  7 28  1  0  0  0  0
  7 29  1  0  0  0  0
  8 30  1  0  0  0  0
  8 31  1  0  0  0  0
  8 32  1  0  0  0  0
  9 10  1  0  0  0  0
  9 20  1  0  0  0  0
 10 11  1  0  0  0  0
 10 33  1  0  0  0  0
 11 12  2  0  0  0  0
 11 13  1  0  0  0  0
 13 14  1  0  0  0  0
 13 34  1  0  0  0  0
 14 19  1  0  0  0  0
 14 15  1  0  0  0  0
 14 16  1  0  0  0  0
 15 35  1  0  0  0  0
 15 36  1  0  0  0  0
 15 37  1  0  0  0  0
 16 17  1  0  0  0  0
 16 38  1  0  0  0  0
 16 39  1  0  0  0  0
 17 18  1  0  0  0  0
 17 40  1  0  0  0  0
 17 41  1  0  0  0  0
 18 19  1  0  0  0  0
 19 42  1  0  0  0  0
 19 43  1  0  0  0  0
M  END
> <s_m_source_file>
AV-unprocessed.smi

> <i_m_source_file_index>
2853

> <i_lp_mmshare_version>
43012

> <i_f3d_flags>
0

> <s_epik_input>
W0NIM11jMW5jKFtDSDJdW0NIXShbQ0gzXSlbQ0gzXSljKHMxKVtOSF1DKD1PKVtOSF1bQ0BAXTIoW0NIM10pW0NIMl1bQ0gyXU9bQ0gyXTI=

> <s_epik_cmdline>
J2VwaWtfcHl0aG9uJywgJy1waCcsICc3LjAnLCAnLXRuJywgJzgnLCAnLW1hJywgJzIwMCcsICctbWV0YWxfYmluZGluZycsICctaW1hZScsICc8aW5maWxlLm1hZT4nLCAnLW9tYWUnLCAnPG91dGZpbGUubWFlPic=

> <r_epik_Ionization_Penalty>
0.000723394

> <r_epik_Ionization_Penalty_Charging>
0

> <r_epik_Ionization_Penalty_Neutral>
0.000723394

> <r_epik_State_Penalty>
0.000446791

> <r_epik_Charging_Adjusted_Penalty>
0.000446791

> <i_epik_Tot_Q>
0

> <i_epik_Tot_abs_Q>
0

> <r_epik_Metal_State_Penalty>
-0

> <b_epik_Metal_Only>
0

> <s_lp_Force_Field>
OPLS_2005

> <r_lp_Energy>
15.1609

> <b_lp_Chiralities_Consistent>
1

> <s_lp_Variant>
AV-unprocessed.smi:2853-1

> <Gold.Version>
5.8.1

> <Gold.Id.Protein>
6NUR|6NUR_protein|mol2

> <Gold.PLP.Fitness>
38.6456

> <Gold.PLP.PLP>
-30.5991

> <Gold.PLP.part.hbond>
-3.0000

> <Gold.PLP.part.metal>
0.0000

> <Gold.PLP.part.buried>
-7.2344

> <Gold.PLP.part.nonpolar>
-21.5124

> <Gold.PLP.part.repulsive>
0.2812

> <Gold.PLP.ligand.clash>
0.0000

> <Gold.PLP.ligand.torsion>
0.4976

> <Gold.PLP.Chemscore.Hbond>
3.0000

> <Gold.PLP.Chemscore.CHOScore>
0.0000

> <Gold.PLP.Chemscore.Metal>
0.0000

> <Gold.Chemscore.Hbonds>
donor molecule, donor type, donor heavy atom, donor atom, acceptor molecule, acceptor atom, score
      L1  H    10    33       P1  7948  0.86
      L1  H    13    34       P1  7948  0.70

> <Gold.PLP.Chemscore.Internal.Correction>
0.0416

> <Gold.Rescore>
     Score         DG    S(hbond)    S(metal)    S(lipo)     H(rot)  DE(clash)    DE(int)     intcor
     14.56     -17.80       1.97        0.00      77.03       1.28       0.05       3.20       ----

> <Gold.Chemscore.Fitness>
14.5583

> <Gold.Chemscore.DG>
-17.8026

> <Gold.Chemscore.ZeroCoef>
-5.4800

> <Gold.Chemscore.Hbond>
1.9684

> <Gold.Chemscore.Metal>
0.0000

> <Gold.Chemscore.Lipo>
77.0323

> <Gold.Chemscore.Internal_Hbond>
0.0000

> <Gold.Chemscore.DEClash>
0.0456

> <Gold.Chemscore.DEInternal>
3.1987

> <Gold.Chemscore.Rot>
1.2753

> <Gold.Chemscore.Internal.Correction>
   9.000000E+99

> <Gold.Chemscore.Hbonds>
donor molecule, donor type, donor heavy atom, donor atom, acceptor molecule, acceptor atom, score
      L1  H    10    33       P1  7948  0.85
      L1  H    13    34       P1  7948  0.69

> <Gold.Chemscore.Hbond.Weighted>
-6.5745

> <Gold.Chemscore.Metal.Weighted>
-0.0000

> <Gold.Chemscore.Lipo.Weighted>
-9.0128

> <Gold.Chemscore.Internal_Hbond.Weighted>
0.0000

> <Gold.Chemscore.DEClash.Weighted>
0.0456

> <Gold.Chemscore.DEInternal.Weighted>
3.1987

> <Gold.Chemscore.Rot.Weighted>
3.2646

> <Gold.Chemscore.Internal.Correction.Weighted>
   9.000000E+99

> <Gold.Protein.RotatedTorsions>
[ 6907 6896 6895 6894 ] final  -56.07 input  -60.11 | X-H torsion
[ 7974 7965 7964 7962 ] final  104.61 input  175.53 | X-H torsion
[ 8008 7997 7996 7995 ] final   -7.13 input   59.86 | X-H torsion
[ 10167 10162 10161 10158 ] final  154.87 input  -65.29 | X-H torsion
[ 10718 10713 10712 10709 ] final  -69.03 input   66.30 | X-H torsion
[ 10763 10752 10751 10750 ] final  -83.78 input  -60.55 | X-H torsion
[ 11005 11000 10999 10996 ] final  -51.21 input  -57.11 | X-H torsion

> <Gold.Protein.ActiveResidues>
 VAL166  LYS551  ARG553  GLY616  TRP617  ASP618  TYR619  PRO620  LYS621  CYS622 
 ASP623  PHE694  ASN695  SER759  ASP760  ASP761  ALA762  ILE779  LEU786  VAL792 
 PHE793  MET794  SER795  GLU796  ALA797  LYS798  CYS799  TRP800  GLU811  SER814 

> <Gold.Protein.RotatedAtoms>
  150.8198  134.7400  159.6762 H   0  0  0  0  0  0  0  0  0  0  0  0  # atno 6907 bound_to 6896
  152.4315  134.5766  159.9946 H   0  0  0  0  0  0  0  0  0  0  0  0  # atno 6908 bound_to 6896
  151.5953  133.3325  159.3072 H   0  0  0  0  0  0  0  0  0  0  0  0  # atno 6909 bound_to 6896
  145.3305  139.2488  143.3663 H   0  0  0  0  0  0  0  0  0  0  0  0  # atno 7974 bound_to 7965
  154.5868  140.2415  155.7976 H   0  0  0  0  0  0  0  0  0  0  0  0  # atno 8008 bound_to 7997
  156.2219  140.2995  155.9928 H   0  0  0  0  0  0  0  0  0  0  0  0  # atno 8009 bound_to 7997
  155.2444  140.0408  157.2969 H   0  0  0  0  0  0  0  0  0  0  0  0  # atno 8010 bound_to 7997
  139.4822  144.5149  151.7967 H   0  0  0  0  0  0  0  0  0  0  0  0  # atno 10167 bound_to 10162
  156.0475  130.4305  150.2088 H   0  0  0  0  0  0  0  0  0  0  0  0  # atno 10718 bound_to 10713
  154.5918  135.5544  153.7286 H   0  0  0  0  0  0  0  0  0  0  0  0  # atno 10763 bound_to 10752
  153.0120  135.6345  154.1838 H   0  0  0  0  0  0  0  0  0  0  0  0  # atno 10764 bound_to 10752
  154.1779  135.2888  155.3041 H   0  0  0  0  0  0  0  0  0  0  0  0  # atno 10765 bound_to 10752
  141.0859  133.6643  156.3845 H   0  0  0  0  0  0  0  0  0  0  0  0  # atno 11005 bound_to 11000
  146.3047  140.3882  142.8691 LP  0  0  0  0  0  0  0  0  0  0  0  0  # atno 17320 bound_to 7965
  144.8868  140.7472  143.5952 LP  0  0  0  0  0  0  0  0  0  0  0  0  # atno 17321 bound_to 7965
  140.4656  144.1660  150.5911 LP  0  0  0  0  0  0  0  0  0  0  0  0  # atno 17342 bound_to 10162
  140.4438  143.2515  151.9439 LP  0  0  0  0  0  0  0  0  0  0  0  0  # atno 17343 bound_to 10162
  157.0175  130.9969  151.3349 LP  0  0  0  0  0  0  0  0  0  0  0  0  # atno 17370 bound_to 10713
  157.5367  130.8093  149.7980 LP  0  0  0  0  0  0  0  0  0  0  0  0  # atno 17371 bound_to 10713
  140.5364  134.6162  157.5366 LP  0  0  0  0  0  0  0  0  0  0  0  0  # atno 17394 bound_to 11000
  139.9677  134.7345  156.0104 LP  0  0  0  0  0  0  0  0  0  0  0  0  # atno 17395 bound_to 11000

$$$$
