AV-unprocessed.smi:33|AV-procd|sdf|200|dock1
  -GOLD-   2262015473D 1   1.00000     0.00000
 Structure written by MMmdl.
 67 72  0  0  0  0  0  0  0  0  1 V2000
  153.4468  139.7510  158.8729 O   0  0  0  0  0  0  0  0  0  0  0  0
  152.4065  140.2785  158.4745 C   0  0  0  0  0  0  0  0  0  0  0  0
  151.4293  139.6089  157.8324 O   0  0  0  0  0  0  0  0  0  0  0  0
  151.7078  138.3626  157.2159 C   0  0  0  0  0  0  0  0  0  0  0  0
  151.5403  138.5018  155.6940 C   0  0  1  0  0  0  0  0  0  0  0  0
  151.6919  137.2322  155.0624 O   0  0  0  0  0  0  0  0  0  0  0  0
  150.4550  136.5971  154.9040 C   0  0  1  0  0  0  0  0  0  0  0  0
  150.4153  135.3878  155.7901 N   0  0  0  0  0  0  0  0  0  0  0  0
  150.6793  135.2814  157.1401 C   0  0  0  0  0  0  0  0  0  0  0  0
  150.5855  134.0760  157.6347 N   0  0  0  0  0  0  0  0  0  0  0  0
  150.2500  133.2883  156.5409 C   0  0  0  0  0  0  0  0  0  0  0  0
  149.9992  131.9009  156.3557 C   0  0  0  0  0  0  0  0  0  0  0  0
  150.0472  130.9984  157.3657 N   0  0  0  0  0  0  0  0  0  0  0  0
  150.9897  129.8789  157.2205 C   0  0  0  0  0  0  0  0  0  0  0  0
  150.7739  128.8212  157.8154 O   0  0  0  0  0  0  0  0  0  0  0  0
  152.1828  130.0004  156.3153 C   0  0  0  0  0  0  0  0  0  0  0  0
  152.3365  129.1163  155.2249 C   0  0  0  0  0  0  0  0  0  0  0  0
  153.4592  129.2182  154.3806 C   0  0  0  0  0  0  0  0  0  0  0  0
  154.4446  130.1917  154.6324 C   0  0  0  0  0  0  0  0  0  0  0  0
  154.3123  131.0571  155.7348 C   0  0  0  0  0  0  0  0  0  0  0  0
  153.1895  130.9565  156.5789 C   0  0  0  0  0  0  0  0  0  0  0  0
  149.1638  131.2255  158.5205 C   0  0  0  0  0  0  0  0  0  0  0  0
  148.1284  131.8775  158.3738 O   0  0  0  0  0  0  0  0  0  0  0  0
  149.4840  130.6212  159.8590 C   0  0  0  0  0  0  0  0  0  0  0  0
  148.4624  130.4508  160.8192 C   0  0  0  0  0  0  0  0  0  0  0  0
  148.7578  129.8980  162.0806 C   0  0  0  0  0  0  0  0  0  0  0  0
  150.0791  129.5287  162.3966 C   0  0  0  0  0  0  0  0  0  0  0  0
  151.1073  129.7224  161.4547 C   0  0  0  0  0  0  0  0  0  0  0  0
  150.8131  130.2759  160.1937 C   0  0  0  0  0  0  0  0  0  0  0  0
  149.6984  131.4724  155.1015 N   0  0  0  0  0  0  0  0  0  0  0  0
  149.6508  132.3468  154.0920 C   0  0  0  0  0  0  0  0  0  0  0  0
  149.8601  133.6652  154.1179 N   0  0  0  0  0  0  0  0  0  0  0  0
  150.1571  134.0989  155.3772 C   0  0  0  0  0  0  0  0  0  0  0  0
  149.3536  137.6313  155.2356 C   0  0  1  0  0  0  0  0  0  0  0  0
  148.6776  137.4128  156.4622 O   0  0  0  0  0  0  0  0  0  0  0  0
  150.1323  138.9347  155.2866 C   0  0  2  0  0  0  0  0  0  0  0  0
  150.1721  139.4777  154.0686 F   0  0  0  0  0  0  0  0  0  0  0  0
  152.0974  141.7266  158.6524 C   0  0  0  0  0  0  0  0  0  0  0  0
  152.6927  142.4360  159.7215 C   0  0  0  0  0  0  0  0  0  0  0  0
  152.4158  143.8029  159.9181 C   0  0  0  0  0  0  0  0  0  0  0  0
  151.5393  144.4772  159.0482 C   0  0  0  0  0  0  0  0  0  0  0  0
  150.9411  143.7831  157.9806 C   0  0  0  0  0  0  0  0  0  0  0  0
  151.2177  142.4162  157.7817 C   0  0  0  0  0  0  0  0  0  0  0  0
  152.7105  138.0165  157.4679 H   0  0  0  0  0  0  0  0  0  0  0  0
  151.0046  137.6238  157.6021 H   0  0  0  0  0  0  0  0  0  0  0  0
  152.2822  139.2047  155.3128 H   0  0  0  0  0  0  0  0  0  0  0  0
  150.3769  136.1929  153.8939 H   0  0  0  0  0  0  0  0  0  0  0  0
  150.9473  136.1265  157.7570 H   0  0  0  0  0  0  0  0  0  0  0  0
  151.5863  128.3655  155.0219 H   0  0  0  0  0  0  0  0  0  0  0  0
  153.5644  128.5487  153.5398 H   0  0  0  0  0  0  0  0  0  0  0  0
  155.3050  130.2698  153.9843 H   0  0  0  0  0  0  0  0  0  0  0  0
  155.0724  131.7978  155.9344 H   0  0  0  0  0  0  0  0  0  0  0  0
  153.1010  131.6229  157.4250 H   0  0  0  0  0  0  0  0  0  0  0  0
  147.4447  130.7303  160.5877 H   0  0  0  0  0  0  0  0  0  0  0  0
  147.9701  129.7578  162.8061 H   0  0  0  0  0  0  0  0  0  0  0  0
  150.3048  129.1040  163.3636 H   0  0  0  0  0  0  0  0  0  0  0  0
  152.1227  129.4474  161.6997 H   0  0  0  0  0  0  0  0  0  0  0  0
  151.6118  130.4246  159.4813 H   0  0  0  0  0  0  0  0  0  0  0  0
  149.4084  131.9307  153.1254 H   0  0  0  0  0  0  0  0  0  0  0  0
  148.6102  137.6369  154.4377 H   0  0  0  0  0  0  0  0  0  0  0  0
  148.7338  136.4927  156.6725 H   0  0  0  0  0  0  0  0  0  0  0  0
  149.6970  139.6842  155.9491 H   0  0  0  0  0  0  0  0  0  0  0  0
  153.3677  141.9393  160.4035 H   0  0  0  0  0  0  0  0  0  0  0  0
  152.8758  144.3338  160.7385 H   0  0  0  0  0  0  0  0  0  0  0  0
  151.3262  145.5252  159.1997 H   0  0  0  0  0  0  0  0  0  0  0  0
  150.2674  144.2994  157.3127 H   0  0  0  0  0  0  0  0  0  0  0  0
  150.7404  141.9136  156.9533 H   0  0  0  0  0  0  0  0  0  0  0  0
  1  2  2  0  0  0  0
  2  3  1  0  0  0  0
  2 38  1  0  0  0  0
  3  4  1  0  0  0  0
  4  5  1  0  0  0  0
  4 44  1  0  0  0  0
  4 45  1  0  0  0  0
  5 36  1  0  0  0  0
  5  6  1  0  0  0  0
  5 46  1  0  0  0  0
  6  7  1  0  0  0  0
  7  8  1  0  0  0  0
  7 34  1  0  0  0  0
  7 47  1  0  0  0  0
  8 33  1  0  0  0  0
  8  9  1  0  0  0  0
  9 10  2  0  0  0  0
  9 48  1  0  0  0  0
 10 11  1  0  0  0  0
 11 33  2  0  0  0  0
 11 12  1  0  0  0  0
 12 13  1  0  0  0  0
 12 30  2  0  0  0  0
 13 14  1  0  0  0  0
 13 22  1  0  0  0  0
 14 15  2  0  0  0  0
 14 16  1  0  0  0  0
 16 21  1  0  0  0  0
 16 17  2  0  0  0  0
 17 18  1  0  0  0  0
 17 49  1  0  0  0  0
 18 19  2  0  0  0  0
 18 50  1  0  0  0  0
 19 20  1  0  0  0  0
 19 51  1  0  0  0  0
 20 21  2  0  0  0  0
 20 52  1  0  0  0  0
 21 53  1  0  0  0  0
 22 23  2  0  0  0  0
 22 24  1  0  0  0  0
 24 29  1  0  0  0  0
 24 25  2  0  0  0  0
 25 26  1  0  0  0  0
 25 54  1  0  0  0  0
 26 27  2  0  0  0  0
 26 55  1  0  0  0  0
 27 28  1  0  0  0  0
 27 56  1  0  0  0  0
 28 29  2  0  0  0  0
 28 57  1  0  0  0  0
 29 58  1  0  0  0  0
 30 31  1  0  0  0  0
 31 32  2  0  0  0  0
 31 59  1  0  0  0  0
 32 33  1  0  0  0  0
 34 35  1  0  0  0  0
 34 36  1  0  0  0  0
 34 60  1  0  0  0  0
 35 61  1  0  0  0  0
 36 37  1  0  0  0  0
 36 62  1  0  0  0  0
 38 43  1  0  0  0  0
 38 39  2  0  0  0  0
 39 40  1  0  0  0  0
 39 63  1  0  0  0  0
 40 41  2  0  0  0  0
 40 64  1  0  0  0  0
 41 42  1  0  0  0  0
 41 65  1  0  0  0  0
 42 43  2  0  0  0  0
 42 66  1  0  0  0  0
 43 67  1  0  0  0  0
M  END
> <s_m_source_file>
AV-unprocessed.smi

> <i_m_source_file_index>
33

> <i_lp_mmshare_version>
43012

> <i_f3d_flags>
0

> <s_epik_input>
W2NIXTFbY0hdW2NIXVtjSF1bY0hdYzFDKD1PKU9bQ0gyXVtDQEBIXTJPW0NASF0oW0NAQEhdKFtPSF0pW0NAQEhdMkYpbihbY0hdbjMpYyhjMzQpbltjSF1uYzROKEMoPU8pYzVbY0hdW2NIXVtjSF1bY0hdW2NIXTUpQyg9TyljNltjSF1bY0hdW2NIXVtjSF1bY0hdNg==

> <s_epik_cmdline>
J2VwaWtfcHl0aG9uJywgJy1waCcsICc3LjAnLCAnLXRuJywgJzgnLCAnLW1hJywgJzIwMCcsICctbWV0YWxfYmluZGluZycsICctaW1hZScsICc8aW5maWxlLm1hZT4nLCAnLW9tYWUnLCAnPG91dGZpbGUubWFlPic=

> <r_lp_tautomer_probability>
1

> <r_epik_Ionization_Penalty>
0.00067664

> <r_epik_Ionization_Penalty_Charging>
0

> <r_epik_Ionization_Penalty_Neutral>
0.00067664

> <r_epik_State_Penalty>
0.000428095

> <r_epik_Charging_Adjusted_Penalty>
0.000428095

> <i_epik_Tot_Q>
0

> <i_epik_Tot_abs_Q>
0

> <r_epik_Metal_State_Penalty>
-0

> <b_epik_Metal_Only>
0

> <s_epik_Chemistry_Notes>
This compound has an ester and may undergo hydrolysis at high or low pH. This compound contains an acetal/aminal-like group ( X-CH(R)-Y where X, Y are N, S, or O) that may be acid/base labile, releasing an aldehyde.

> <s_lp_Force_Field>
OPLS_2005

> <r_lp_Energy>
73.7321

> <b_lp_Chiralities_Consistent>
1

> <s_lp_Variant>
AV-unprocessed.smi:33-2

> <Gold.Version>
5.8.1

> <Gold.Id.Protein>
6NUR|6NUR_protein|mol2

> <Gold.PLP.Fitness>
60.3232

> <Gold.PLP.PLP>
-55.9248

> <Gold.PLP.part.hbond>
-2.5843

> <Gold.PLP.part.metal>
0.0000

> <Gold.PLP.part.buried>
-2.2759

> <Gold.PLP.part.nonpolar>
-51.9661

> <Gold.PLP.part.repulsive>
0.2480

> <Gold.PLP.ligand.clash>
0.0000

> <Gold.PLP.ligand.torsion>
3.9213

> <Gold.PLP.Chemscore.Hbond>
2.5440

> <Gold.PLP.Chemscore.CHOScore>
0.0000

> <Gold.PLP.Chemscore.Metal>
0.0000

> <Gold.Chemscore.Hbonds>
donor molecule, donor type, donor heavy atom, donor atom, acceptor molecule, acceptor atom, score
      P1  H  6896  6907       L1    10  0.54
      P1  H  7997  8008       L1     1  0.59
      P1  H 10752 10765       L1     6  0.77

> <Gold.PLP.Chemscore.Internal.Correction>
4.6090

> <Gold.Rescore>
     Score         DG    S(hbond)    S(metal)    S(lipo)     H(rot)  DE(clash)    DE(int)     intcor
     16.53     -23.55       2.31        0.00     143.69       2.52       0.68       6.34       ----

> <Gold.Chemscore.Fitness>
16.5317

> <Gold.Chemscore.DG>
-23.5512

> <Gold.Chemscore.ZeroCoef>
-5.4800

> <Gold.Chemscore.Hbond>
2.3122

> <Gold.Chemscore.Metal>
0.0000

> <Gold.Chemscore.Lipo>
143.6881

> <Gold.Chemscore.Internal_Hbond>
0.0000

> <Gold.Chemscore.DEClash>
0.6775

> <Gold.Chemscore.DEInternal>
6.3420

> <Gold.Chemscore.Rot>
2.5247

> <Gold.Chemscore.Internal.Correction>
   9.000000E+99

> <Gold.Chemscore.Hbonds>
donor molecule, donor type, donor heavy atom, donor atom, acceptor molecule, acceptor atom, score
      P1  H  6896  6907       L1    10  0.56
      P1  H  7997  8008       L1     1  0.31
      P1  H 10752 10765       L1     6  0.17

> <Gold.Chemscore.Hbond.Weighted>
-7.7229

> <Gold.Chemscore.Metal.Weighted>
-0.0000

> <Gold.Chemscore.Lipo.Weighted>
-16.8115

> <Gold.Chemscore.Internal_Hbond.Weighted>
0.0000

> <Gold.Chemscore.DEClash.Weighted>
0.6775

> <Gold.Chemscore.DEInternal.Weighted>
6.3420

> <Gold.Chemscore.Rot.Weighted>
6.4633

> <Gold.Chemscore.Internal.Correction.Weighted>
   9.000000E+99

> <Gold.Protein.RotatedTorsions>
[ 6907 6896 6895 6894 ] final -140.25 input  -60.11 | X-H torsion
[ 7974 7965 7964 7962 ] final  -77.33 input  175.53 | X-H torsion
[ 8008 7997 7996 7995 ] final -110.15 input   59.86 | X-H torsion
[ 10167 10162 10161 10158 ] final  -16.40 input  -65.29 | X-H torsion
[ 10718 10713 10712 10709 ] final  -13.06 input   66.30 | X-H torsion
[ 10763 10752 10751 10750 ] final -179.33 input  -60.55 | X-H torsion
[ 11005 11000 10999 10996 ] final -101.46 input  -57.11 | X-H torsion

> <Gold.Protein.ActiveResidues>
 VAL166  LYS551  ARG553  GLY616  TRP617  ASP618  TYR619  PRO620  LYS621  CYS622 
 ASP623  PHE694  ASN695  SER759  ASP760  ASP761  ALA762  ILE779  LEU786  VAL792 
 PHE793  MET794  SER795  GLU796  ALA797  LYS798  CYS799  TRP800  GLU811  SER814 

> <Gold.Protein.RotatedAtoms>
  151.0583  133.5566  159.2636 H   0  0  0  0  0  0  0  0  0  0  0  0  # atno 6907 bound_to 6896
  151.2551  135.0634  159.9086 H   0  0  0  0  0  0  0  0  0  0  0  0  # atno 6908 bound_to 6896
  152.5393  134.0337  159.8090 H   0  0  0  0  0  0  0  0  0  0  0  0  # atno 6909 bound_to 6896
  145.6010  140.9408  143.1240 H   0  0  0  0  0  0  0  0  0  0  0  0  # atno 7974 bound_to 7965
  154.9701  140.0397  157.2230 H   0  0  0  0  0  0  0  0  0  0  0  0  # atno 8008 bound_to 7997
  154.7809  140.2818  155.6042 H   0  0  0  0  0  0  0  0  0  0  0  0  # atno 8009 bound_to 7997
  156.2936  140.2592  156.2634 H   0  0  0  0  0  0  0  0  0  0  0  0  # atno 8010 bound_to 7997
  140.7233  143.5120  150.9738 H   0  0  0  0  0  0  0  0  0  0  0  0  # atno 10167 bound_to 10162
  156.6356  130.4914  149.6113 H   0  0  0  0  0  0  0  0  0  0  0  0  # atno 10718 bound_to 10713
  154.5365  135.2803  155.1134 H   0  0  0  0  0  0  0  0  0  0  0  0  # atno 10763 bound_to 10752
  154.2633  135.6317  153.5286 H   0  0  0  0  0  0  0  0  0  0  0  0  # atno 10764 bound_to 10752
  152.9969  135.5611  154.5892 H   0  0  0  0  0  0  0  0  0  0  0  0  # atno 10765 bound_to 10752
  141.1230  133.8480  157.1235 H   0  0  0  0  0  0  0  0  0  0  0  0  # atno 11005 bound_to 11000
  144.7310  139.7727  143.7347 LP  0  0  0  0  0  0  0  0  0  0  0  0  # atno 17320 bound_to 7965
  146.1576  139.4679  143.0009 LP  0  0  0  0  0  0  0  0  0  0  0  0  # atno 17321 bound_to 7965
  139.8834  143.7043  152.3154 LP  0  0  0  0  0  0  0  0  0  0  0  0  # atno 17342 bound_to 10162
  139.7333  144.7577  151.0767 LP  0  0  0  0  0  0  0  0  0  0  0  0  # atno 17343 bound_to 10162
  156.2200  130.6731  151.1358 LP  0  0  0  0  0  0  0  0  0  0  0  0  # atno 17370 bound_to 10713
  157.7187  131.0695  150.6226 LP  0  0  0  0  0  0  0  0  0  0  0  0  # atno 17371 bound_to 10713
  140.0203  134.9949  157.0577 LP  0  0  0  0  0  0  0  0  0  0  0  0  # atno 17394 bound_to 11000
  140.4452  134.1640  155.7177 LP  0  0  0  0  0  0  0  0  0  0  0  0  # atno 17395 bound_to 11000

$$$$
