AV-unprocessed.smi:114|AV-procd|sdf|1111|dock7
  -GOLD-   2262018233D 1   1.00000     0.00000
 Structure written by MMmdl.
 32 34  0  0  0  0  0  0  0  0  1 V2000
  145.6304  135.6598  149.1098 N   0  0  0  0  0  0  0  0  0  0  0  0
  145.7081  135.7760  150.4428 C   0  0  0  0  0  0  0  0  0  0  0  0
  145.2514  134.7561  151.2065 N   0  0  0  0  0  0  0  0  0  0  0  0
  145.3096  134.8315  152.5422 C   0  0  0  0  0  0  0  0  0  0  0  0
  144.8305  133.7659  153.2256 F   0  0  0  0  0  0  0  0  0  0  0  0
  145.7877  135.8414  153.2777 N   0  0  0  0  0  0  0  0  0  0  0  0
  146.2486  136.8702  152.5092 C   0  0  0  0  0  0  0  0  0  0  0  0
  146.2450  136.9152  151.0903 C   0  0  0  0  0  0  0  0  0  0  0  0
  146.7905  138.1148  150.6536 N   0  0  0  0  0  0  0  0  0  0  0  0
  147.0964  138.7412  151.7587 C   0  0  0  0  0  0  0  0  0  0  0  0
  146.8103  138.0582  152.9228 N   0  0  0  0  0  0  0  0  0  0  0  0
  147.0297  138.4760  154.3447 C   0  0  2  0  0  0  0  0  0  0  0  0
  147.3415  139.8374  154.3357 O   0  0  0  0  0  0  0  0  0  0  0  0
  148.6175  140.0753  154.9289 C   0  0  2  0  0  0  0  0  0  0  0  0
  149.3157  141.2798  154.2737 C   0  0  0  0  0  0  0  0  0  0  0  0
  148.3846  142.3174  154.0546 O   0  0  0  0  0  0  0  0  0  0  0  0
  149.3603  138.7361  154.8181 C   0  0  2  0  0  0  0  0  0  0  0  0
  150.0241  138.6080  153.5713 O   0  0  0  0  0  0  0  0  0  0  0  0
  148.2221  137.7389  154.9830 C   0  0  2  0  0  0  0  0  0  0  0  0
  148.5158  136.4617  154.4439 O   0  0  0  0  0  0  0  0  0  0  0  0
  146.0773  138.2869  154.8411 H   0  0  0  0  0  0  0  0  0  0  0  0
  148.4544  140.2725  155.9903 H   0  0  0  0  0  0  0  0  0  0  0  0
  150.1057  138.6267  155.6064 H   0  0  0  0  0  0  0  0  0  0  0  0
  148.0011  137.6279  156.0453 H   0  0  0  0  0  0  0  0  0  0  0  0
  145.9647  136.4081  148.5196 H   0  0  0  0  0  0  0  0  0  0  0  0
  145.2385  134.8251  148.6984 H   0  0  0  0  0  0  0  0  0  0  0  0
  147.5423  139.7251  151.7516 H   0  0  0  0  0  0  0  0  0  0  0  0
  150.0897  141.6717  154.9344 H   0  0  0  0  0  0  0  0  0  0  0  0
  149.7975  141.0005  153.3363 H   0  0  0  0  0  0  0  0  0  0  0  0
  148.7586  143.1273  154.3665 H   0  0  0  0  0  0  0  0  0  0  0  0
  149.7956  137.7708  153.1965 H   0  0  0  0  0  0  0  0  0  0  0  0
  148.7191  136.5679  153.5269 H   0  0  0  0  0  0  0  0  0  0  0  0
  1  2  1  0  0  0  0
  1 25  1  0  0  0  0
  1 26  1  0  0  0  0
  2  8  1  0  0  0  0
  2  3  2  0  0  0  0
  3  4  1  0  0  0  0
  4  5  1  0  0  0  0
  4  6  2  0  0  0  0
  6  7  1  0  0  0  0
  7 11  1  0  0  0  0
  7  8  2  0  0  0  0
  8  9  1  0  0  0  0
  9 10  2  0  0  0  0
 10 11  1  0  0  0  0
 10 27  1  0  0  0  0
 11 12  1  0  0  0  0
 12 21  1  0  0  0  0
 12 19  1  0  0  0  0
 12 13  1  0  0  0  0
 13 14  1  0  0  0  0
 14 22  1  0  0  0  0
 14 15  1  0  0  0  0
 14 17  1  0  0  0  0
 15 16  1  0  0  0  0
 15 28  1  0  0  0  0
 15 29  1  0  0  0  0
 16 30  1  0  0  0  0
 17 23  1  0  0  0  0
 17 18  1  0  0  0  0
 17 19  1  0  0  0  0
 18 31  1  0  0  0  0
 19 24  1  0  0  0  0
 19 20  1  0  0  0  0
 20 32  1  0  0  0  0
M  END
> <s_m_source_file>
AV-unprocessed.smi

> <i_m_source_file_index>
114

> <i_lp_mmshare_version>
43012

> <i_f3d_flags>
0

> <s_epik_input>
RmMobjEpbmMoW05IMl0pYyhjMTIpbltjSF1uMltDQEBIXTNPW0NASF0oW0NIMl1bT0hdKVtDQEBIXShbT0hdKVtDQEBIXTNbT0hd

> <s_epik_cmdline>
J2VwaWtfcHl0aG9uJywgJy1waCcsICc3LjAnLCAnLXRuJywgJzgnLCAnLW1hJywgJzIwMCcsICctbWV0YWxfYmluZGluZycsICctaW1hZScsICc8aW5maWxlLm1hZT4nLCAnLW9tYWUnLCAnPG91dGZpbGUubWFlPic=

> <r_lp_tautomer_probability>
1

> <r_epik_Ionization_Penalty>
1.13199e-05

> <r_epik_Ionization_Penalty_Charging>
0

> <r_epik_Ionization_Penalty_Neutral>
1.13199e-05

> <r_epik_State_Penalty>
-0

> <r_epik_Charging_Adjusted_Penalty>
0

> <i_epik_Tot_Q>
0

> <i_epik_Tot_abs_Q>
0

> <r_epik_Metal_State_Penalty>
-0

> <b_epik_Metal_Only>
0

> <s_epik_Chemistry_Notes>
This compound contains an acetal/aminal-like group ( X-CH(R)-Y where X, Y are N, S, or O) that may be acid/base labile, releasing an aldehyde.

> <s_lp_Force_Field>
OPLS_2005

> <r_lp_Energy>
42.0109

> <b_lp_Chiralities_Consistent>
1

> <s_lp_Variant>
AV-unprocessed.smi:114-5

> <Gold.Version>
5.8.1

> <Gold.Id.Protein>
6NUR|6NUR_protein|mol2

> <Gold.PLP.Fitness>
35.7768

> <Gold.PLP.PLP>
-22.1974

> <Gold.PLP.part.hbond>
-7.1441

> <Gold.PLP.part.metal>
0.0000

> <Gold.PLP.part.buried>
2.2916

> <Gold.PLP.part.nonpolar>
-21.4213

> <Gold.PLP.part.repulsive>
3.3389

> <Gold.PLP.ligand.clash>
0.0000

> <Gold.PLP.ligand.torsion>
0.4936

> <Gold.PLP.Chemscore.Hbond>
3.9920

> <Gold.PLP.Chemscore.CHOScore>
0.7803

> <Gold.PLP.Chemscore.Metal>
0.0000

> <Gold.Chemscore.Hbonds>
donor molecule, donor type, donor heavy atom, donor atom, acceptor molecule, acceptor atom, score
      L1  H    16    30       P1  8028  1.00
      L1  H    18    31       P1  7948  0.67
      L1  H    20    32       P1  7948  1.00
      P1  H  7954  7966       L1     9  1.00
      L1  C    10    27       P1  7957  0.83

> <Gold.PLP.Chemscore.Internal.Correction>
0.2499

> <Gold.Rescore>
     Score         DG    S(hbond)    S(metal)    S(lipo)     H(rot)  DE(clash)    DE(int)     intcor
      4.93      -7.93       2.92        0.00      25.54       4.03       1.57       1.43       ----

> <Gold.Chemscore.Fitness>
4.9265

> <Gold.Chemscore.DG>
-7.9268

> <Gold.Chemscore.ZeroCoef>
-5.4800

> <Gold.Chemscore.Hbond>
2.9249

> <Gold.Chemscore.Metal>
0.0000

> <Gold.Chemscore.Lipo>
25.5443

> <Gold.Chemscore.Internal_Hbond>
0.0000

> <Gold.Chemscore.DEClash>
1.5709

> <Gold.Chemscore.DEInternal>
1.4294

> <Gold.Chemscore.Rot>
4.0277

> <Gold.Chemscore.Internal.Correction>
   9.000000E+99

> <Gold.Chemscore.Hbonds>
donor molecule, donor type, donor heavy atom, donor atom, acceptor molecule, acceptor atom, score
      L1  H     1    26       P1  7921  0.01
      L1  H    16    30       P1  8028  0.91
      L1  H    18    31       P1  7948  0.40
      L1  H    20    32       P1  7948  1.00
      P1  H  7954  7966       L1     9  0.45

> <Gold.Chemscore.Hbond.Weighted>
-9.7691

> <Gold.Chemscore.Metal.Weighted>
-0.0000

> <Gold.Chemscore.Lipo.Weighted>
-2.9887

> <Gold.Chemscore.Internal_Hbond.Weighted>
0.0000

> <Gold.Chemscore.DEClash.Weighted>
1.5709

> <Gold.Chemscore.DEInternal.Weighted>
1.4294

> <Gold.Chemscore.Rot.Weighted>
10.3110

> <Gold.Chemscore.Internal.Correction.Weighted>
   9.000000E+99

> <Gold.Protein.RotatedTorsions>
[ 6907 6896 6895 6894 ] final  -18.83 input  -60.11 | X-H torsion
[ 7974 7965 7964 7962 ] final   68.91 input  175.53 | X-H torsion
[ 8008 7997 7996 7995 ] final   31.59 input   59.86 | X-H torsion
[ 10167 10162 10161 10158 ] final  102.10 input  -65.29 | X-H torsion
[ 10718 10713 10712 10709 ] final   21.54 input   66.30 | X-H torsion
[ 10763 10752 10751 10750 ] final  -39.56 input  -60.55 | X-H torsion
[ 11005 11000 10999 10996 ] final  -50.18 input  -57.11 | X-H torsion

> <Gold.Protein.ActiveResidues>
 VAL166  LYS551  ARG553  GLY616  TRP617  ASP618  TYR619  PRO620  LYS621  CYS622 
 ASP623  PHE694  ASN695  SER759  ASP760  ASP761  ALA762  ILE779  LEU786  VAL792 
 PHE793  MET794  SER795  GLU796  ALA797  LYS798  CYS799  TRP800  GLU811  SER814 

> <Gold.Protein.RotatedAtoms>
  151.2723  135.0688  159.9138 H   0  0  0  0  0  0  0  0  0  0  0  0  # atno 6907 bound_to 6896
  152.5348  134.0117  159.7952 H   0  0  0  0  0  0  0  0  0  0  0  0  # atno 6908 bound_to 6896
  151.0358  133.5700  159.2687 H   0  0  0  0  0  0  0  0  0  0  0  0  # atno 6909 bound_to 6896
  145.7968  139.2962  143.1178 H   0  0  0  0  0  0  0  0  0  0  0  0  # atno 7974 bound_to 7965
  155.1089  140.3237  155.4527 H   0  0  0  0  0  0  0  0  0  0  0  0  # atno 8008 bound_to 7997
  156.2696  140.2047  156.6161 H   0  0  0  0  0  0  0  0  0  0  0  0  # atno 8009 bound_to 7997
  154.6771  140.0530  157.0214 H   0  0  0  0  0  0  0  0  0  0  0  0  # atno 8010 bound_to 7997
  139.7379  144.7019  151.0620 H   0  0  0  0  0  0  0  0  0  0  0  0  # atno 10167 bound_to 10162
  157.1399  130.6628  149.5977 H   0  0  0  0  0  0  0  0  0  0  0  0  # atno 10718 bound_to 10713
  153.9315  135.6771  153.4745 H   0  0  0  0  0  0  0  0  0  0  0  0  # atno 10763 bound_to 10752
  153.0977  135.4843  154.8807 H   0  0  0  0  0  0  0  0  0  0  0  0  # atno 10764 bound_to 10752
  154.7425  135.3164  154.8660 H   0  0  0  0  0  0  0  0  0  0  0  0  # atno 10765 bound_to 10752
  141.0801  133.6655  156.3694 H   0  0  0  0  0  0  0  0  0  0  0  0  # atno 11005 bound_to 11000
  145.9919  140.8595  143.0062 LP  0  0  0  0  0  0  0  0  0  0  0  0  # atno 17320 bound_to 7965
  144.6774  140.2228  143.7364 LP  0  0  0  0  0  0  0  0  0  0  0  0  # atno 17321 bound_to 7965
  140.7781  143.4960  150.9831 LP  0  0  0  0  0  0  0  0  0  0  0  0  # atno 17342 bound_to 10162
  139.8649  143.7267  152.3171 LP  0  0  0  0  0  0  0  0  0  0  0  0  # atno 17343 bound_to 10162
  155.9791  130.4781  150.6693 LP  0  0  0  0  0  0  0  0  0  0  0  0  # atno 17370 bound_to 10713
  157.4317  131.0850  151.1032 LP  0  0  0  0  0  0  0  0  0  0  0  0  # atno 17371 bound_to 10713
  140.5486  134.6049  157.5401 LP  0  0  0  0  0  0  0  0  0  0  0  0  # atno 17394 bound_to 11000
  139.9615  134.7445  156.0227 LP  0  0  0  0  0  0  0  0  0  0  0  0  # atno 17395 bound_to 11000

$$$$
