AV-unprocessed.smi:670|AV-procd|sdf|3272|dock8
  -GOLD-   22720 0233D 1   1.00000     0.00000
 Structure written by MMmdl.
 45 46  0  0  0  0  0  0  0  0  1 V2000
  153.5092  141.3532  160.6077 C   0  0  0  0  0  0  0  0  0  0  0  0
  152.3555  142.2155  160.0691 C   0  0  1  0  0  0  0  0  0  0  0  0
  152.8226  143.6668  159.8385 C   0  0  0  0  0  0  0  0  0  0  0  0
  151.6924  144.5496  159.2877 C   0  0  0  0  0  0  0  0  0  0  0  0
  151.1114  143.9579  157.9959 C   0  0  0  0  0  0  0  0  0  0  0  0
  150.6294  142.5169  158.2184 C   0  0  0  0  0  0  0  0  0  0  0  0
  151.7571  141.6219  158.7737 C   0  0  2  0  0  0  0  0  0  0  0  0
  151.2370  140.3366  159.0889 O   0  0  0  0  0  0  0  0  0  0  0  0
  150.4557  139.7449  158.0611 C   0  0  0  0  0  0  0  0  0  0  0  0
  150.4544  138.2224  158.2601 C   0  0  0  0  0  0  0  0  0  0  0  0
  149.1527  137.7437  158.7123 N   0  0  0  0  0  0  0  0  0  0  0  0
  148.7576  136.4620  158.7120 C   0  0  0  0  0  0  0  0  0  0  0  0
  149.4536  135.5421  158.2794 O   0  0  0  0  0  0  0  0  0  0  0  0
  147.3554  136.1904  159.2762 C   0  0  0  0  0  0  0  0  0  0  0  0
  147.3636  135.3274  160.4662 N   0  0  0  0  0  0  0  0  0  0  0  0
  146.9767  134.0187  160.2201 N   0  0  0  0  0  0  0  0  0  0  0  0
  146.9572  133.1599  161.1829 C   0  0  0  0  0  0  0  0  0  0  0  0
  146.5702  131.8740  160.8946 O   0  0  0  0  0  0  0  0  0  0  0  0
  147.3303  133.5361  162.5290 C   0  0  0  0  0  0  0  0  0  0  0  0
  147.6998  134.8148  162.7602 C   0  0  0  0  0  0  0  0  0  0  0  0
  147.7320  135.8145  161.6910 C   0  0  0  0  0  0  0  0  0  0  0  0
  148.0604  136.9863  161.8743 O   0  0  0  0  0  0  0  0  0  0  0  0
  146.4122  131.8610  159.9632 H   0  0  0  0  0  0  0  0  0  0  0  0
  154.3244  141.2881  159.8864 H   0  0  0  0  0  0  0  0  0  0  0  0
  153.1799  140.3371  160.8275 H   0  0  0  0  0  0  0  0  0  0  0  0
  153.9139  141.7704  161.5299 H   0  0  0  0  0  0  0  0  0  0  0  0
  151.5717  142.2332  160.8281 H   0  0  0  0  0  0  0  0  0  0  0  0
  153.1930  144.0921  160.7719 H   0  0  0  0  0  0  0  0  0  0  0  0
  153.6619  143.6772  159.1416 H   0  0  0  0  0  0  0  0  0  0  0  0
  150.9039  144.6445  160.0353 H   0  0  0  0  0  0  0  0  0  0  0  0
  152.0648  145.5571  159.1007 H   0  0  0  0  0  0  0  0  0  0  0  0
  150.2862  144.5759  157.6410 H   0  0  0  0  0  0  0  0  0  0  0  0
  151.8697  143.9734  157.2123 H   0  0  0  0  0  0  0  0  0  0  0  0
  149.7887  142.5191  158.9135 H   0  0  0  0  0  0  0  0  0  0  0  0
  150.2505  142.1168  157.2781 H   0  0  0  0  0  0  0  0  0  0  0  0
  152.5562  141.5373  158.0345 H   0  0  0  0  0  0  0  0  0  0  0  0
  149.4336  140.1214  158.0983 H   0  0  0  0  0  0  0  0  0  0  0  0
  150.8588  139.9955  157.0788 H   0  0  0  0  0  0  0  0  0  0  0  0
  150.6984  137.7250  157.3212 H   0  0  0  0  0  0  0  0  0  0  0  0
  151.2266  137.9338  158.9751 H   0  0  0  0  0  0  0  0  0  0  0  0
  148.5181  138.4360  159.0830 H   0  0  0  0  0  0  0  0  0  0  0  0
  146.8659  137.1379  159.5104 H   0  0  0  0  0  0  0  0  0  0  0  0
  146.7548  135.7381  158.4850 H   0  0  0  0  0  0  0  0  0  0  0  0
  147.3103  132.8061  163.3249 H   0  0  0  0  0  0  0  0  0  0  0  0
  147.9802  135.1098  163.7606 H   0  0  0  0  0  0  0  0  0  0  0  0
  1  2  1  0  0  0  0
  1 24  1  0  0  0  0
  1 25  1  0  0  0  0
  1 26  1  0  0  0  0
  2  7  1  0  0  0  0
  2  3  1  0  0  0  0
  2 27  1  0  0  0  0
  3  4  1  0  0  0  0
  3 28  1  0  0  0  0
  3 29  1  0  0  0  0
  4  5  1  0  0  0  0
  4 30  1  0  0  0  0
  4 31  1  0  0  0  0
  5  6  1  0  0  0  0
  5 32  1  0  0  0  0
  5 33  1  0  0  0  0
  6  7  1  0  0  0  0
  6 34  1  0  0  0  0
  6 35  1  0  0  0  0
  7  8  1  0  0  0  0
  7 36  1  0  0  0  0
  8  9  1  0  0  0  0
  9 10  1  0  0  0  0
  9 37  1  0  0  0  0
  9 38  1  0  0  0  0
 10 11  1  0  0  0  0
 10 39  1  0  0  0  0
 10 40  1  0  0  0  0
 11 12  1  0  0  0  0
 11 41  1  0  0  0  0
 12 13  2  0  0  0  0
 12 14  1  0  0  0  0
 14 42  1  0  0  0  0
 14 43  1  0  0  0  0
 14 15  1  0  0  0  0
 15 16  1  0  0  0  0
 15 21  1  0  0  0  0
 16 17  2  0  0  0  0
 17 18  1  0  0  0  0
 17 19  1  0  0  0  0
 18 23  1  0  0  0  0
 19 44  1  0  0  0  0
 19 20  2  0  0  0  0
 20 45  1  0  0  0  0
 20 21  1  0  0  0  0
 21 22  2  0  0  0  0
M  END
> <s_m_source_file>
AV-unprocessed.smi

> <i_m_source_file_index>
670

> <i_lp_mmshare_version>
43012

> <i_f3d_flags>
0

> <s_epik_input>
W0NIM11bQ0BASF0xW0NIMl1bQ0gyXVtDSDJdW0NIMl1bQ0BIXTFPW0NIMl1bQ0gyXVtOSF1DKD1PKVtDSDJdbjJbbkhdYyg9TylbY0hdW2NIXWMyPU8=

> <s_epik_cmdline>
J2VwaWtfcHl0aG9uJywgJy1waCcsICc3LjAnLCAnLXRuJywgJzgnLCAnLW1hJywgJzIwMCcsICctbWV0YWxfYmluZGluZycsICctaW1hZScsICc8aW5maWxlLm1hZT4nLCAnLW9tYWUnLCAnPG91dGZpbGUubWFlPic=

> <r_lp_tautomer_probability>
0.9996

> <r_epik_Ionization_Penalty>
2.12726

> <r_epik_Ionization_Penalty_Charging>
3.83395e-08

> <r_epik_Ionization_Penalty_Neutral>
2.12726

> <r_epik_State_Penalty>
1.70432

> <r_epik_Charging_Adjusted_Penalty>
1.70432

> <i_epik_Tot_Q>
0

> <i_epik_Tot_abs_Q>
0

> <r_epik_Metal_State_Penalty>
1.70432

> <b_epik_Metal_Only>
0

> <s_lp_Force_Field>
OPLS_2005

> <r_lp_Energy>
20.1935

> <b_lp_Chiralities_Consistent>
1

> <s_lp_Variant>
AV-unprocessed.smi:670-8

> <Gold.Version>
5.8.1

> <Gold.Id.Protein>
6NUR|6NUR_protein|mol2

> <Gold.PLP.Fitness>
53.2457

> <Gold.PLP.PLP>
-46.9520

> <Gold.PLP.part.hbond>
-2.7747

> <Gold.PLP.part.metal>
0.0000

> <Gold.PLP.part.buried>
-5.2890

> <Gold.PLP.part.nonpolar>
-39.6294

> <Gold.PLP.part.repulsive>
0.1650

> <Gold.PLP.ligand.clash>
0.0000

> <Gold.PLP.ligand.torsion>
0.8302

> <Gold.PLP.Chemscore.Hbond>
2.6400

> <Gold.PLP.Chemscore.CHOScore>
0.0000

> <Gold.PLP.Chemscore.Metal>
0.0000

> <Gold.Chemscore.Hbonds>
donor molecule, donor type, donor heavy atom, donor atom, acceptor molecule, acceptor atom, score
      P1  H  6896  6909       L1    13  1.00
      P1  H  6931  6943       L1    22  1.00
      P1  H  6934  6947       L1    22  0.05

> <Gold.PLP.Chemscore.Internal.Correction>
0.0341

> <Gold.Rescore>
     Score         DG    S(hbond)    S(metal)    S(lipo)     H(rot)  DE(clash)    DE(int)     intcor
     17.70     -18.43       2.71        0.00     100.82       3.09       0.00       0.72       ----

> <Gold.Chemscore.Fitness>
17.7010

> <Gold.Chemscore.DG>
-18.4284

> <Gold.Chemscore.ZeroCoef>
-5.4800

> <Gold.Chemscore.Hbond>
2.7135

> <Gold.Chemscore.Metal>
0.0000

> <Gold.Chemscore.Lipo>
100.8183

> <Gold.Chemscore.Internal_Hbond>
0.0000

> <Gold.Chemscore.DEClash>
0.0048

> <Gold.Chemscore.DEInternal>
0.7225

> <Gold.Chemscore.Rot>
3.0901

> <Gold.Chemscore.Internal.Correction>
   9.000000E+99

> <Gold.Chemscore.Hbonds>
donor molecule, donor type, donor heavy atom, donor atom, acceptor molecule, acceptor atom, score
      P1  H  6896  6909       L1    13  0.89
      P1  H  6931  6943       L1    22  0.98
      P1  H  6934  6947       L1    22  0.07

> <Gold.Chemscore.Hbond.Weighted>
-9.0632

> <Gold.Chemscore.Metal.Weighted>
-0.0000

> <Gold.Chemscore.Lipo.Weighted>
-11.7957

> <Gold.Chemscore.Internal_Hbond.Weighted>
0.0000

> <Gold.Chemscore.DEClash.Weighted>
0.0048

> <Gold.Chemscore.DEInternal.Weighted>
0.7225

> <Gold.Chemscore.Rot.Weighted>
7.9106

> <Gold.Chemscore.Internal.Correction.Weighted>
   9.000000E+99

> <Gold.Protein.RotatedTorsions>
[ 6907 6896 6895 6894 ] final   56.77 input  -60.11 | X-H torsion
[ 7974 7965 7964 7962 ] final  166.66 input  175.53 | X-H torsion
[ 8008 7997 7996 7995 ] final   50.91 input   59.86 | X-H torsion
[ 10167 10162 10161 10158 ] final  173.28 input  -65.29 | X-H torsion
[ 10718 10713 10712 10709 ] final -113.84 input   66.30 | X-H torsion
[ 10763 10752 10751 10750 ] final -106.53 input  -60.55 | X-H torsion
[ 11005 11000 10999 10996 ] final   64.69 input  -57.11 | X-H torsion

> <Gold.Protein.ActiveResidues>
 VAL166  LYS551  ARG553  GLY616  TRP617  ASP618  TYR619  PRO620  LYS621  CYS622 
 ASP623  PHE694  ASN695  SER759  ASP760  ASP761  ALA762  ILE779  LEU786  VAL792 
 PHE793  MET794  SER795  GLU796  ALA797  LYS798  CYS799  TRP800  GLU811  SER814 

> <Gold.Protein.RotatedAtoms>
  152.3667  134.6793  160.0189 H   0  0  0  0  0  0  0  0  0  0  0  0  # atno 6907 bound_to 6896
  151.7099  133.3306  159.3296 H   0  0  0  0  0  0  0  0  0  0  0  0  # atno 6908 bound_to 6896
  150.7644  134.6476  159.6315 H   0  0  0  0  0  0  0  0  0  0  0  0  # atno 6909 bound_to 6896
  144.7454  139.8647  143.6384 H   0  0  0  0  0  0  0  0  0  0  0  0  # atno 7974 bound_to 7965
  155.4265  140.3449  155.4276 H   0  0  0  0  0  0  0  0  0  0  0  0  # atno 8008 bound_to 7997
  156.1362  140.1528  156.9022 H   0  0  0  0  0  0  0  0  0  0  0  0  # atno 8009 bound_to 7997
  154.4934  140.0835  156.7623 H   0  0  0  0  0  0  0  0  0  0  0  0  # atno 8010 bound_to 7997
  139.5103  144.3279  152.0140 H   0  0  0  0  0  0  0  0  0  0  0  0  # atno 10167 bound_to 10162
  156.0792  130.5994  150.8695 H   0  0  0  0  0  0  0  0  0  0  0  0  # atno 10718 bound_to 10713
  154.8018  135.4708  154.0294 H   0  0  0  0  0  0  0  0  0  0  0  0  # atno 10763 bound_to 10752
  153.1794  135.6838  153.8506 H   0  0  0  0  0  0  0  0  0  0  0  0  # atno 10764 bound_to 10752
  153.8061  135.3223  155.3373 H   0  0  0  0  0  0  0  0  0  0  0  0  # atno 10765 bound_to 10752
  139.9942  134.6543  156.0038 H   0  0  0  0  0  0  0  0  0  0  0  0  # atno 11005 bound_to 11000
  146.1323  139.4361  143.0161 LP  0  0  0  0  0  0  0  0  0  0  0  0  # atno 17320 bound_to 7965
  145.7144  141.0095  143.1436 LP  0  0  0  0  0  0  0  0  0  0  0  0  # atno 17321 bound_to 7965
  140.2719  144.3954  150.6148 LP  0  0  0  0  0  0  0  0  0  0  0  0  # atno 17342 bound_to 10162
  140.6082  143.2168  151.6939 LP  0  0  0  0  0  0  0  0  0  0  0  0  # atno 17343 bound_to 10162
  157.5901  131.0944  150.9133 LP  0  0  0  0  0  0  0  0  0  0  0  0  # atno 17370 bound_to 10713
  156.9311  130.5350  149.5279 LP  0  0  0  0  0  0  0  0  0  0  0  0  # atno 17371 bound_to 10713
  141.1591  133.6540  156.4259 LP  0  0  0  0  0  0  0  0  0  0  0  0  # atno 17394 bound_to 11000
  140.4849  134.6629  157.5187 LP  0  0  0  0  0  0  0  0  0  0  0  0  # atno 17395 bound_to 11000

$$$$
