AV-unprocessed.smi:2997|AV-procd|sdf|11412|dock6
  -GOLD-   2272016333D 1   1.00000     0.00000
 Structure written by MMmdl.
 38 40  0  0  0  0  0  0  0  0  1 V2000
  153.1188  142.9014  161.1932 C   0  0  0  0  0  0  0  0  0  0  0  0
  152.4747  142.5271  159.8701 C   0  0  0  0  0  0  0  0  0  0  0  0
  152.8819  141.3408  159.2190 C   0  0  0  0  0  0  0  0  0  0  0  0
  152.3047  140.9547  157.9893 C   0  0  0  0  0  0  0  0  0  0  0  0
  152.5471  139.8508  157.1896 N   0  0  0  0  0  0  0  0  0  0  0  0
  151.6965  140.0545  156.1873 C   0  0  0  0  0  0  0  0  0  0  0  0
  150.9326  141.1626  156.2427 N   0  0  0  0  0  0  0  0  0  0  0  0
  149.9396  141.5941  155.2756 C   0  0  0  0  0  0  0  0  0  0  0  0
  149.2561  140.4098  154.5671 C   0  0  2  0  0  0  0  0  0  0  0  0
  150.1481  139.8403  153.6269 O   0  0  0  0  0  0  0  0  0  0  0  0
  147.9544  140.8348  153.8618 C   0  0  0  0  0  0  0  0  0  0  0  0
  147.1886  139.6987  153.3792 N   0  0  0  0  0  0  0  0  0  0  0  0
  147.0756  139.2323  152.0865 C   0  0  0  0  0  0  0  0  0  0  0  0
  146.2477  138.1470  152.1168 C   0  0  0  0  0  0  0  0  0  0  0  0
  145.9003  138.0252  153.4913 C   0  0  0  0  0  0  0  0  0  0  0  0
  146.4650  138.9553  154.2443 N   0  0  0  0  0  0  0  0  0  0  0  0
  151.3012  141.7949  157.4246 C   0  0  0  0  0  0  0  0  0  0  0  0
  150.8887  142.9784  158.0619 C   0  0  0  0  0  0  0  0  0  0  0  0
  151.4762  143.3497  159.2894 C   0  0  0  0  0  0  0  0  0  0  0  0
  151.0266  144.6314  159.9685 C   0  0  0  0  0  0  0  0  0  0  0  0
  153.8703  142.1698  161.4915 H   0  0  0  0  0  0  0  0  0  0  0  0
  152.3683  142.9506  161.9826 H   0  0  0  0  0  0  0  0  0  0  0  0
  153.6084  143.8725  161.1197 H   0  0  0  0  0  0  0  0  0  0  0  0
  153.6432  140.7146  159.6605 H   0  0  0  0  0  0  0  0  0  0  0  0
  151.6212  139.3567  155.3659 H   0  0  0  0  0  0  0  0  0  0  0  0
  149.1981  142.1988  155.7988 H   0  0  0  0  0  0  0  0  0  0  0  0
  150.4204  142.2504  154.5487 H   0  0  0  0  0  0  0  0  0  0  0  0
  149.0206  139.6430  155.3065 H   0  0  0  0  0  0  0  0  0  0  0  0
  149.7123  139.7962  152.7891 H   0  0  0  0  0  0  0  0  0  0  0  0
  147.3228  141.3962  154.5513 H   0  0  0  0  0  0  0  0  0  0  0  0
  148.1709  141.5018  153.0255 H   0  0  0  0  0  0  0  0  0  0  0  0
  147.5867  139.7076  151.2621 H   0  0  0  0  0  0  0  0  0  0  0  0
  145.9371  137.5336  151.2840 H   0  0  0  0  0  0  0  0  0  0  0  0
  145.2587  137.2939  153.9604 H   0  0  0  0  0  0  0  0  0  0  0  0
  150.1262  143.5942  157.6083 H   0  0  0  0  0  0  0  0  0  0  0  0
  150.2381  145.1267  159.4011 H   0  0  0  0  0  0  0  0  0  0  0  0
  151.8607  145.3276  160.0594 H   0  0  0  0  0  0  0  0  0  0  0  0
  150.6397  144.4220  160.9658 H   0  0  0  0  0  0  0  0  0  0  0  0
  1  2  1  0  0  0  0
  1 21  1  0  0  0  0
  1 22  1  0  0  0  0
  1 23  1  0  0  0  0
  2 19  1  0  0  0  0
  2  3  2  0  0  0  0
  3  4  1  0  0  0  0
  3 24  1  0  0  0  0
  4 17  2  0  0  0  0
  4  5  1  0  0  0  0
  5  6  2  0  0  0  0
  6  7  1  0  0  0  0
  6 25  1  0  0  0  0
  7  8  1  0  0  0  0
  7 17  1  0  0  0  0
  8  9  1  0  0  0  0
  8 26  1  0  0  0  0
  8 27  1  0  0  0  0
  9 10  1  0  0  0  0
  9 11  1  0  0  0  0
  9 28  1  0  0  0  0
 10 29  1  0  0  0  0
 11 12  1  0  0  0  0
 11 30  1  0  0  0  0
 11 31  1  0  0  0  0
 12 16  1  0  0  0  0
 12 13  1  0  0  0  0
 13 14  2  0  0  0  0
 13 32  1  0  0  0  0
 14 15  1  0  0  0  0
 14 33  1  0  0  0  0
 15 16  2  0  0  0  0
 15 34  1  0  0  0  0
 17 18  1  0  0  0  0
 18 19  2  0  0  0  0
 18 35  1  0  0  0  0
 19 20  1  0  0  0  0
 20 36  1  0  0  0  0
 20 37  1  0  0  0  0
 20 38  1  0  0  0  0
M  END
> <s_m_source_file>
AV-unprocessed.smi

> <i_m_source_file_index>
2997

> <i_lp_mmshare_version>
43012

> <i_f3d_flags>
0

> <s_epik_input>
W0NIM11jKFtjSF0xKWMoW0NIM10pW2NIXWMoYzEyKW4oW2NIXW4yKVtDSDJdW0NASF0oW09IXSlbQ0gyXW4zW2NIXVtjSF1bY0hdbjM=

> <s_epik_cmdline>
J2VwaWtfcHl0aG9uJywgJy1waCcsICc3LjAnLCAnLXRuJywgJzgnLCAnLW1hJywgJzIwMCcsICctbWV0YWxfYmluZGluZycsICctaW1hZScsICc8aW5maWxlLm1hZT4nLCAnLW9tYWUnLCAnPG91dGZpbGUubWFlPic=

> <r_lp_tautomer_probability>
1

> <r_epik_Ionization_Penalty>
0.102113

> <r_epik_Ionization_Penalty_Charging>
0

> <r_epik_Ionization_Penalty_Neutral>
0.102113

> <r_epik_State_Penalty>
0.0920694

> <r_epik_Charging_Adjusted_Penalty>
0.0920694

> <i_epik_Tot_Q>
0

> <i_epik_Tot_abs_Q>
0

> <r_epik_Metal_State_Penalty>
0.0784306

> <b_epik_Metal_Only>
0

> <s_lp_Force_Field>
OPLS_2005

> <r_lp_Energy>
8.0564

> <b_lp_Chiralities_Consistent>
1

> <s_lp_Variant>
AV-unprocessed.smi:2997-1

> <Gold.Version>
5.8.1

> <Gold.Id.Protein>
6NUR|6NUR_protein|mol2

> <Gold.PLP.Fitness>
55.0050

> <Gold.PLP.PLP>
-44.9058

> <Gold.PLP.part.hbond>
-3.0000

> <Gold.PLP.part.metal>
0.0000

> <Gold.PLP.part.buried>
-2.3041

> <Gold.PLP.part.nonpolar>
-40.0275

> <Gold.PLP.part.repulsive>
0.1179

> <Gold.PLP.ligand.clash>
0.0052

> <Gold.PLP.ligand.torsion>
0.7454

> <Gold.PLP.Chemscore.Hbond>
2.8640

> <Gold.PLP.Chemscore.CHOScore>
0.9982

> <Gold.PLP.Chemscore.Metal>
0.0000

> <Gold.Chemscore.Hbonds>
donor molecule, donor type, donor heavy atom, donor atom, acceptor molecule, acceptor atom, score
      L1  H    10    29       P1  7957  1.00
      P1  H  7989  7998       L1    10  0.80
      P1  H  7997  8010       L1     5  1.00
      L1  C    13    32       P1  7957  0.87

> <Gold.PLP.Chemscore.Internal.Correction>
0.0086

> <Gold.Rescore>
     Score         DG    S(hbond)    S(metal)    S(lipo)     H(rot)  DE(clash)    DE(int)     intcor
     19.66     -20.38       2.32        0.00     108.33       2.15       0.04       0.68       ----

> <Gold.Chemscore.Fitness>
19.6596

> <Gold.Chemscore.DG>
-20.3769

> <Gold.Chemscore.ZeroCoef>
-5.4800

> <Gold.Chemscore.Hbond>
2.3158

> <Gold.Chemscore.Metal>
0.0000

> <Gold.Chemscore.Lipo>
108.3336

> <Gold.Chemscore.Internal_Hbond>
0.0000

> <Gold.Chemscore.DEClash>
0.0392

> <Gold.Chemscore.DEInternal>
0.6781

> <Gold.Chemscore.Rot>
2.1534

> <Gold.Chemscore.Internal.Correction>
   9.000000E+99

> <Gold.Chemscore.Hbonds>
donor molecule, donor type, donor heavy atom, donor atom, acceptor molecule, acceptor atom, score
      L1  H    10    29       P1  7957  0.97
      P1  H  7989  7998       L1    10  0.39
      P1  H  7997  8010       L1     5  0.31

> <Gold.Chemscore.Hbond.Weighted>
-7.7346

> <Gold.Chemscore.Metal.Weighted>
-0.0000

> <Gold.Chemscore.Lipo.Weighted>
-12.6750

> <Gold.Chemscore.Internal_Hbond.Weighted>
0.0000

> <Gold.Chemscore.DEClash.Weighted>
0.0392

> <Gold.Chemscore.DEInternal.Weighted>
0.6781

> <Gold.Chemscore.Rot.Weighted>
5.5127

> <Gold.Chemscore.Internal.Correction.Weighted>
   9.000000E+99

> <Gold.Protein.RotatedTorsions>
[ 6907 6896 6895 6894 ] final -119.57 input  -60.11 | X-H torsion
[ 7974 7965 7964 7962 ] final -115.12 input  175.53 | X-H torsion
[ 8008 7997 7996 7995 ] final   65.55 input   59.86 | X-H torsion
[ 10167 10162 10161 10158 ] final   57.82 input  -65.29 | X-H torsion
[ 10718 10713 10712 10709 ] final  124.73 input   66.30 | X-H torsion
[ 10763 10752 10751 10750 ] final  -88.70 input  -60.55 | X-H torsion
[ 11005 11000 10999 10996 ] final  105.45 input  -57.11 | X-H torsion

> <Gold.Protein.ActiveResidues>
 VAL166  LYS551  ARG553  GLY616  TRP617  ASP618  TYR619  PRO620  LYS621  CYS622 
 ASP623  PHE694  ASN695  SER759  ASP760  ASP761  ALA762  ILE779  LEU786  VAL792 
 PHE793  MET794  SER795  GLU796  ALA797  LYS798  CYS799  TRP800  GLU811  SER814 

> <Gold.Protein.RotatedAtoms>
  150.8316  133.8081  159.3095 H   0  0  0  0  0  0  0  0  0  0  0  0  # atno 6907 bound_to 6896
  151.5809  135.1057  160.0026 H   0  0  0  0  0  0  0  0  0  0  0  0  # atno 6908 bound_to 6896
  152.4395  133.7380  159.6681 H   0  0  0  0  0  0  0  0  0  0  0  0  # atno 6909 bound_to 6896
  145.1121  140.8618  143.3864 H   0  0  0  0  0  0  0  0  0  0  0  0  # atno 7974 bound_to 7965
  155.6635  140.3497  155.4791 H   0  0  0  0  0  0  0  0  0  0  0  0  # atno 8008 bound_to 7997
  155.9748  140.1163  157.0803 H   0  0  0  0  0  0  0  0  0  0  0  0  # atno 8009 bound_to 7997
  154.4176  140.1150  156.5342 H   0  0  0  0  0  0  0  0  0  0  0  0  # atno 8010 bound_to 7997
  140.1939  144.4057  150.6559 H   0  0  0  0  0  0  0  0  0  0  0  0  # atno 10167 bound_to 10162
  157.5561  131.1092  150.8619 H   0  0  0  0  0  0  0  0  0  0  0  0  # atno 10718 bound_to 10713
  154.6473  135.5368  153.7860 H   0  0  0  0  0  0  0  0  0  0  0  0  # atno 10763 bound_to 10752
  153.0366  135.6474  154.1069 H   0  0  0  0  0  0  0  0  0  0  0  0  # atno 10764 bound_to 10752
  154.0989  135.2934  155.3236 H   0  0  0  0  0  0  0  0  0  0  0  0  # atno 10765 bound_to 10752
  139.8802  134.9336  156.5516 H   0  0  0  0  0  0  0  0  0  0  0  0  # atno 11005 bound_to 11000
  145.0835  139.2942  143.5771 LP  0  0  0  0  0  0  0  0  0  0  0  0  # atno 17320 bound_to 7965
  146.3525  140.0349  142.8647 LP  0  0  0  0  0  0  0  0  0  0  0  0  # atno 17321 bound_to 7965
  140.6437  143.2209  151.6234 LP  0  0  0  0  0  0  0  0  0  0  0  0  # atno 17342 bound_to 10162
  139.5244  144.3103  152.0998 LP  0  0  0  0  0  0  0  0  0  0  0  0  # atno 17343 bound_to 10162
  156.9130  130.5287  149.5280 LP  0  0  0  0  0  0  0  0  0  0  0  0  # atno 17370 bound_to 10713
  156.0620  130.5671  150.9212 LP  0  0  0  0  0  0  0  0  0  0  0  0  # atno 17371 bound_to 10713
  140.8236  133.8334  155.8918 LP  0  0  0  0  0  0  0  0  0  0  0  0  # atno 17394 bound_to 11000
  140.9395  134.1919  157.4807 LP  0  0  0  0  0  0  0  0  0  0  0  0  # atno 17395 bound_to 11000

$$$$
