AV-unprocessed.smi:1924|AV-procd|sdf|7791|dock3
  -GOLD-   22720 9533D 1   1.00000     0.00000
 Structure written by MMmdl.
 42 43  0  0  0  0  0  0  0  0  1 V2000
  144.1761  135.3418  151.5383 C   0  0  0  0  0  0  0  0  0  0  0  0
  145.6107  135.4680  151.0140 C   0  0  0  0  0  0  0  0  0  0  0  0
  145.9044  136.8563  150.4288 C   0  0  0  0  0  0  0  0  0  0  0  0
  145.9171  137.9564  151.5025 C   0  0  0  0  0  0  0  0  0  0  0  0
  147.2267  138.0718  152.1339 N   0  0  0  0  0  0  0  0  0  0  0  0
  147.5480  138.9578  153.0873 C   0  0  0  0  0  0  0  0  0  0  0  0
  146.7505  139.7728  153.5491 O   0  0  0  0  0  0  0  0  0  0  0  0
  148.8329  138.8207  153.4587 N   0  0  0  0  0  0  0  0  0  0  0  0
  149.5846  139.5678  154.4077 C   0  0  0  0  0  0  0  0  0  0  0  0
  149.0188  140.7670  154.8857 C   0  0  0  0  0  0  0  0  0  0  0  0
  149.7209  141.5309  155.8365 C   0  0  0  0  0  0  0  0  0  0  0  0
  150.9767  141.0643  156.2861 C   0  0  0  0  0  0  0  0  0  0  0  0
  151.7281  141.7733  157.2329 N   0  0  0  0  0  0  0  0  0  0  0  0
  151.2363  143.1247  157.4682 C   0  0  0  0  0  0  0  0  0  0  0  0
  152.1854  143.8714  158.4218 C   0  0  0  0  0  0  0  0  0  0  0  0
  152.3340  143.1273  159.6280 O   0  0  0  0  0  0  0  0  0  0  0  0
  152.8890  141.8358  159.3941 C   0  0  0  0  0  0  0  0  0  0  0  0
  151.9575  141.0345  158.4681 C   0  0  0  0  0  0  0  0  0  0  0  0
  151.5258  139.9151  155.8384 N   0  0  0  0  0  0  0  0  0  0  0  0
  150.8473  139.1866  154.9260 C   0  0  0  0  0  0  0  0  0  0  0  0
  143.9988  134.3472  151.9479 H   0  0  0  0  0  0  0  0  0  0  0  0
  143.4495  135.5084  150.7426 H   0  0  0  0  0  0  0  0  0  0  0  0
  143.9807  136.0669  152.3287 H   0  0  0  0  0  0  0  0  0  0  0  0
  146.3087  135.2584  151.8255 H   0  0  0  0  0  0  0  0  0  0  0  0
  145.7836  134.7055  150.2534 H   0  0  0  0  0  0  0  0  0  0  0  0
  146.8672  136.8376  149.9162 H   0  0  0  0  0  0  0  0  0  0  0  0
  145.1560  137.0923  149.6710 H   0  0  0  0  0  0  0  0  0  0  0  0
  145.6198  138.9148  151.0733 H   0  0  0  0  0  0  0  0  0  0  0  0
  145.1876  137.7254  152.2793 H   0  0  0  0  0  0  0  0  0  0  0  0
  147.9421  137.4349  151.8149 H   0  0  0  0  0  0  0  0  0  0  0  0
  149.3390  138.0712  153.0103 H   0  0  0  0  0  0  0  0  0  0  0  0
  148.0554  141.1017  154.5292 H   0  0  0  0  0  0  0  0  0  0  0  0
  149.3001  142.4529  156.2100 H   0  0  0  0  0  0  0  0  0  0  0  0
  151.1596  143.6599  156.5210 H   0  0  0  0  0  0  0  0  0  0  0  0
  150.2351  143.0851  157.8997 H   0  0  0  0  0  0  0  0  0  0  0  0
  153.1600  144.0288  157.9567 H   0  0  0  0  0  0  0  0  0  0  0  0
  151.7823  144.8560  158.6589 H   0  0  0  0  0  0  0  0  0  0  0  0
  153.8847  141.9301  158.9581 H   0  0  0  0  0  0  0  0  0  0  0  0
  153.0057  141.3206  160.3478 H   0  0  0  0  0  0  0  0  0  0  0  0
  151.0081  140.8483  158.9718 H   0  0  0  0  0  0  0  0  0  0  0  0
  152.3993  140.0635  158.2406 H   0  0  0  0  0  0  0  0  0  0  0  0
  151.3443  138.2766  154.6321 H   0  0  0  0  0  0  0  0  0  0  0  0
  1  2  1  0  0  0  0
  1 21  1  0  0  0  0
  1 22  1  0  0  0  0
  1 23  1  0  0  0  0
  2  3  1  0  0  0  0
  2 24  1  0  0  0  0
  2 25  1  0  0  0  0
  3  4  1  0  0  0  0
  3 26  1  0  0  0  0
  3 27  1  0  0  0  0
  4  5  1  0  0  0  0
  4 28  1  0  0  0  0
  4 29  1  0  0  0  0
  5  6  1  0  0  0  0
  5 30  1  0  0  0  0
  6  7  2  0  0  0  0
  6  8  1  0  0  0  0
  8  9  1  0  0  0  0
  8 31  1  0  0  0  0
  9 20  1  0  0  0  0
  9 10  2  0  0  0  0
 10 11  1  0  0  0  0
 10 32  1  0  0  0  0
 11 12  2  0  0  0  0
 11 33  1  0  0  0  0
 12 13  1  0  0  0  0
 12 19  1  0  0  0  0
 13 18  1  0  0  0  0
 13 14  1  0  0  0  0
 14 15  1  0  0  0  0
 14 34  1  0  0  0  0
 14 35  1  0  0  0  0
 15 16  1  0  0  0  0
 15 36  1  0  0  0  0
 15 37  1  0  0  0  0
 16 17  1  0  0  0  0
 17 18  1  0  0  0  0
 17 38  1  0  0  0  0
 17 39  1  0  0  0  0
 18 40  1  0  0  0  0
 18 41  1  0  0  0  0
 19 20  2  0  0  0  0
 20 42  1  0  0  0  0
M  END
> <s_m_source_file>
AV-unprocessed.smi

> <i_m_source_file_index>
1924

> <i_lp_mmshare_version>
43012

> <i_f3d_flags>
0

> <s_epik_input>
W0NIM11bQ0gyXVtDSDJdW0NIMl1bTkhdQyg9TylbTkhdYzFbY0hdW2NIXWMobltjSF0xKU4yW0NIMl1bQ0gyXU9bQ0gyXVtDSDJdMg==

> <s_epik_cmdline>
J2VwaWtfcHl0aG9uJywgJy1waCcsICc3LjAnLCAnLXRuJywgJzgnLCAnLW1hJywgJzIwMCcsICctbWV0YWxfYmluZGluZycsICctaW1hZScsICc8aW5maWxlLm1hZT4nLCAnLW9tYWUnLCAnPG91dGZpbGUubWFlPic=

> <r_lp_tautomer_probability>
1

> <r_epik_Ionization_Penalty>
0.00209113

> <r_epik_Ionization_Penalty_Charging>
0

> <r_epik_Ionization_Penalty_Neutral>
0.00209113

> <r_epik_State_Penalty>
0.00140385

> <r_epik_Charging_Adjusted_Penalty>
0.00140385

> <i_epik_Tot_Q>
0

> <i_epik_Tot_abs_Q>
0

> <r_epik_Metal_State_Penalty>
-0

> <b_epik_Metal_Only>
0

> <s_lp_Force_Field>
OPLS_2005

> <r_lp_Energy>
21.2234

> <b_lp_Chiralities_Consistent>
1

> <s_lp_Variant>
AV-unprocessed.smi:1924-1

> <Gold.Version>
5.8.1

> <Gold.Id.Protein>
6NUR|6NUR_protein|mol2

> <Gold.PLP.Fitness>
41.3920

> <Gold.PLP.PLP>
-37.5534

> <Gold.PLP.part.hbond>
-3.5374

> <Gold.PLP.part.metal>
0.0000

> <Gold.PLP.part.buried>
3.7665

> <Gold.PLP.part.nonpolar>
-39.4887

> <Gold.PLP.part.repulsive>
0.3799

> <Gold.PLP.ligand.clash>
0.4192

> <Gold.PLP.ligand.torsion>
0.3411

> <Gold.PLP.Chemscore.Hbond>
1.6037

> <Gold.PLP.Chemscore.CHOScore>
0.0000

> <Gold.PLP.Chemscore.Metal>
0.0000

> <Gold.Chemscore.Hbonds>
donor molecule, donor type, donor heavy atom, donor atom, acceptor molecule, acceptor atom, score
      L1  H     5    30       P1  7948  1.00
      L1  H     8    31       P1  7948  0.54

> <Gold.PLP.Chemscore.Internal.Correction>
0.1288

> <Gold.Rescore>
     Score         DG    S(hbond)    S(metal)    S(lipo)     H(rot)  DE(clash)    DE(int)     intcor
     13.58     -19.09       1.79        0.00      98.25       1.51       3.93       1.58       ----

> <Gold.Chemscore.Fitness>
13.5766

> <Gold.Chemscore.DG>
-19.0934

> <Gold.Chemscore.ZeroCoef>
-5.4800

> <Gold.Chemscore.Hbond>
1.7948

> <Gold.Chemscore.Metal>
0.0000

> <Gold.Chemscore.Lipo>
98.2524

> <Gold.Chemscore.Internal_Hbond>
0.0000

> <Gold.Chemscore.DEClash>
3.9333

> <Gold.Chemscore.DEInternal>
1.5836

> <Gold.Chemscore.Rot>
1.5144

> <Gold.Chemscore.Internal.Correction>
   9.000000E+99

> <Gold.Chemscore.Hbonds>
donor molecule, donor type, donor heavy atom, donor atom, acceptor molecule, acceptor atom, score
      L1  H     5    30       P1  7948  0.94
      L1  H     8    31       P1  7948  0.52

> <Gold.Chemscore.Hbond.Weighted>
-5.9947

> <Gold.Chemscore.Metal.Weighted>
-0.0000

> <Gold.Chemscore.Lipo.Weighted>
-11.4955

> <Gold.Chemscore.Internal_Hbond.Weighted>
0.0000

> <Gold.Chemscore.DEClash.Weighted>
3.9333

> <Gold.Chemscore.DEInternal.Weighted>
1.5836

> <Gold.Chemscore.Rot.Weighted>
3.8767

> <Gold.Chemscore.Internal.Correction.Weighted>
   9.000000E+99

> <Gold.Protein.RotatedTorsions>
[ 6907 6896 6895 6894 ] final   36.51 input  -60.11 | X-H torsion
[ 7974 7965 7964 7962 ] final  -99.46 input  175.53 | X-H torsion
[ 8008 7997 7996 7995 ] final -163.66 input   59.86 | X-H torsion
[ 10167 10162 10161 10158 ] final -171.23 input  -65.29 | X-H torsion
[ 10718 10713 10712 10709 ] final   -0.06 input   66.30 | X-H torsion
[ 10763 10752 10751 10750 ] final  -71.90 input  -60.55 | X-H torsion
[ 11005 11000 10999 10996 ] final  134.47 input  -57.11 | X-H torsion

> <Gold.Protein.ActiveResidues>
 VAL166  LYS551  ARG553  GLY616  TRP617  ASP618  TYR619  PRO620  LYS621  CYS622 
 ASP623  PHE694  ASN695  SER759  ASP760  ASP761  ALA762  ILE779  LEU786  VAL792 
 PHE793  MET794  SER795  GLU796  ALA797  LYS798  CYS799  TRP800  GLU811  SER814 

> <Gold.Protein.RotatedAtoms>
  152.1306  134.9137  160.0558 H   0  0  0  0  0  0  0  0  0  0  0  0  # atno 6907 bound_to 6896
  152.0243  133.3906  159.4279 H   0  0  0  0  0  0  0  0  0  0  0  0  # atno 6908 bound_to 6896
  150.6856  134.3513  159.4954 H   0  0  0  0  0  0  0  0  0  0  0  0  # atno 6909 bound_to 6896
  145.3073  140.9392  143.2789 H   0  0  0  0  0  0  0  0  0  0  0  0  # atno 7974 bound_to 7965
  155.8244  140.0924  157.1830 H   0  0  0  0  0  0  0  0  0  0  0  0  # atno 8008 bound_to 7997
  154.3979  140.1430  156.3599 H   0  0  0  0  0  0  0  0  0  0  0  0  # atno 8009 bound_to 7997
  155.8232  140.3445  155.5529 H   0  0  0  0  0  0  0  0  0  0  0  0  # atno 8010 bound_to 7997
  139.5814  144.1414  152.1520 H   0  0  0  0  0  0  0  0  0  0  0  0  # atno 10167 bound_to 10162
  156.8261  130.5472  149.5692 H   0  0  0  0  0  0  0  0  0  0  0  0  # atno 10718 bound_to 10713
  154.4382  135.5947  153.6112 H   0  0  0  0  0  0  0  0  0  0  0  0  # atno 10763 bound_to 10752
  152.9803  135.5991  154.3755 H   0  0  0  0  0  0  0  0  0  0  0  0  # atno 10764 bound_to 10752
  154.3602  135.2841  155.2303 H   0  0  0  0  0  0  0  0  0  0  0  0  # atno 10765 bound_to 10752
  139.9917  134.9512  156.9871 H   0  0  0  0  0  0  0  0  0  0  0  0  # atno 11005 bound_to 11000
  144.9044  139.4608  143.6617 LP  0  0  0  0  0  0  0  0  0  0  0  0  # atno 17320 bound_to 7965
  146.3130  139.7817  142.9005 LP  0  0  0  0  0  0  0  0  0  0  0  0  # atno 17321 bound_to 7965
  140.0968  144.5573  150.7016 LP  0  0  0  0  0  0  0  0  0  0  0  0  # atno 17342 bound_to 10162
  140.7092  143.2491  151.4634 LP  0  0  0  0  0  0  0  0  0  0  0  0  # atno 17343 bound_to 10162
  156.0961  130.5933  150.9816 LP  0  0  0  0  0  0  0  0  0  0  0  0  # atno 17370 bound_to 10713
  157.6431  131.0907  150.8209 LP  0  0  0  0  0  0  0  0  0  0  0  0  # atno 17371 bound_to 10713
  140.4896  134.1206  155.7230 LP  0  0  0  0  0  0  0  0  0  0  0  0  # atno 17394 bound_to 11000
  141.1571  133.8862  157.1948 LP  0  0  0  0  0  0  0  0  0  0  0  0  # atno 17395 bound_to 11000

$$$$
