AV-unprocessed.smi:1734|AV-procd|sdf|6982|dock6
  -GOLD-   22720 8193D 1   1.00000     0.00000
 Structure written by MMmdl.
 50 52  0  0  0  0  0  0  0  0  1 V2000
  147.7717  132.4088  152.7792 C   0  0  0  0  0  0  0  0  0  0  0  0
  146.5541  132.8420  151.9788 C   0  0  0  0  0  0  0  0  0  0  0  0
  145.8541  131.8844  151.2144 C   0  0  0  0  0  0  0  0  0  0  0  0
  144.7285  132.2865  150.4755 C   0  0  0  0  0  0  0  0  0  0  0  0
  144.3472  133.6379  150.5335 C   0  0  0  0  0  0  0  0  0  0  0  0
  145.0108  134.5598  151.2603 N   0  0  0  0  0  0  0  0  0  0  0  0
  146.1005  134.1884  151.9784 C   0  0  0  0  0  0  0  0  0  0  0  0
  146.8565  135.1095  152.7568 N   0  0  0  0  0  0  0  0  0  0  0  0
  146.5801  135.5956  153.9796 C   0  0  0  0  0  0  0  0  0  0  0  0
  145.6323  135.2540  154.6877 O   0  0  0  0  0  0  0  0  0  0  0  0
  147.4764  136.5236  154.3439 N   0  0  0  0  0  0  0  0  0  0  0  0
  147.4377  137.2802  155.5900 C   0  0  0  0  0  0  0  0  0  0  0  0
  148.6941  137.0740  156.4888 C   0  0  2  0  0  0  0  0  0  0  0  0
  148.3817  137.2657  158.0023 C   0  0  1  0  0  0  0  0  0  0  0  0
  147.4400  136.2423  158.6242 C   0  0  0  0  0  0  0  0  0  0  0  0
  147.7917  136.2682  160.1127 C   0  0  0  0  0  0  0  0  0  0  0  0
  149.0489  136.9258  160.2142 O   0  0  0  0  0  0  0  0  0  0  0  0
  149.5975  137.0835  158.9154 C   0  0  0  0  0  0  0  0  0  0  0  0
  149.8530  137.8798  156.0652 N   0  0  0  0  0  0  0  0  0  0  0  0
  149.6766  139.3259  156.1874 C   0  0  0  0  0  0  0  0  0  0  0  0
  150.9714  140.0824  155.8440 C   0  0  0  0  0  0  0  0  0  0  0  0
  151.4113  139.7164  154.5394 O   0  0  0  0  0  0  0  0  0  0  0  0
  151.6430  138.3170  154.4068 C   0  0  0  0  0  0  0  0  0  0  0  0
  150.3515  137.5479  154.7328 C   0  0  0  0  0  0  0  0  0  0  0  0
  147.9556  131.3390  152.6753 H   0  0  0  0  0  0  0  0  0  0  0  0
  147.6272  132.6212  153.8389 H   0  0  0  0  0  0  0  0  0  0  0  0
  148.6618  132.9373  152.4369 H   0  0  0  0  0  0  0  0  0  0  0  0
  146.1739  130.8528  151.1917 H   0  0  0  0  0  0  0  0  0  0  0  0
  144.1719  131.5777  149.8805 H   0  0  0  0  0  0  0  0  0  0  0  0
  143.4880  133.9892  149.9816 H   0  0  0  0  0  0  0  0  0  0  0  0
  147.6896  135.4659  152.3129 H   0  0  0  0  0  0  0  0  0  0  0  0
  148.2263  136.7405  153.7039 H   0  0  0  0  0  0  0  0  0  0  0  0
  147.2941  138.3290  155.3321 H   0  0  0  0  0  0  0  0  0  0  0  0
  146.5395  136.9798  156.1299 H   0  0  0  0  0  0  0  0  0  0  0  0
  148.9978  136.0320  156.3812 H   0  0  0  0  0  0  0  0  0  0  0  0
  147.9670  138.2596  158.1747 H   0  0  0  0  0  0  0  0  0  0  0  0
  146.3880  136.4712  158.4538 H   0  0  0  0  0  0  0  0  0  0  0  0
  147.6398  135.2487  158.2202 H   0  0  0  0  0  0  0  0  0  0  0  0
  147.0519  136.8276  160.6857 H   0  0  0  0  0  0  0  0  0  0  0  0
  147.8490  135.2604  160.5254 H   0  0  0  0  0  0  0  0  0  0  0  0
  150.1525  136.1820  158.6499 H   0  0  0  0  0  0  0  0  0  0  0  0
  150.2847  137.9293  158.8829 H   0  0  0  0  0  0  0  0  0  0  0  0
  148.8833  139.6642  155.5203 H   0  0  0  0  0  0  0  0  0  0  0  0
  149.3715  139.5894  157.1996 H   0  0  0  0  0  0  0  0  0  0  0  0
  150.8013  141.1586  155.8745 H   0  0  0  0  0  0  0  0  0  0  0  0
  151.7519  139.8603  156.5735 H   0  0  0  0  0  0  0  0  0  0  0  0
  151.9644  138.1036  153.3872 H   0  0  0  0  0  0  0  0  0  0  0  0
  152.4539  138.0109  155.0695 H   0  0  0  0  0  0  0  0  0  0  0  0
  150.5409  136.4763  154.6623 H   0  0  0  0  0  0  0  0  0  0  0  0
  149.6065  137.7859  153.9744 H   0  0  0  0  0  0  0  0  0  0  0  0
  1  2  1  0  0  0  0
  1 25  1  0  0  0  0
  1 26  1  0  0  0  0
  1 27  1  0  0  0  0
  2  7  1  0  0  0  0
  2  3  2  0  0  0  0
  3  4  1  0  0  0  0
  3 28  1  0  0  0  0
  4  5  2  0  0  0  0
  4 29  1  0  0  0  0
  5  6  1  0  0  0  0
  5 30  1  0  0  0  0
  6  7  2  0  0  0  0
  7  8  1  0  0  0  0
  8  9  1  0  0  0  0
  8 31  1  0  0  0  0
  9 10  2  0  0  0  0
  9 11  1  0  0  0  0
 11 12  1  0  0  0  0
 11 32  1  0  0  0  0
 12 13  1  0  0  0  0
 12 33  1  0  0  0  0
 12 34  1  0  0  0  0
 13 14  1  0  0  0  0
 13 19  1  0  0  0  0
 13 35  1  0  0  0  0
 14 18  1  0  0  0  0
 14 15  1  0  0  0  0
 14 36  1  0  0  0  0
 15 16  1  0  0  0  0
 15 37  1  0  0  0  0
 15 38  1  0  0  0  0
 16 17  1  0  0  0  0
 16 39  1  0  0  0  0
 16 40  1  0  0  0  0
 17 18  1  0  0  0  0
 18 41  1  0  0  0  0
 18 42  1  0  0  0  0
 19 24  1  0  0  0  0
 19 20  1  0  0  0  0
 20 21  1  0  0  0  0
 20 43  1  0  0  0  0
 20 44  1  0  0  0  0
 21 22  1  0  0  0  0
 21 45  1  0  0  0  0
 21 46  1  0  0  0  0
 22 23  1  0  0  0  0
 23 24  1  0  0  0  0
 23 47  1  0  0  0  0
 23 48  1  0  0  0  0
 24 49  1  0  0  0  0
 24 50  1  0  0  0  0
M  END
> <s_m_source_file>
AV-unprocessed.smi

> <i_m_source_file_index>
1734

> <i_lp_mmshare_version>
43012

> <i_f3d_flags>
0

> <s_epik_input>
W0NIM11jMVtjSF1bY0hdW2NIXW5jMVtOSF1DKD1PKVtOSF1bQ0gyXVtDQEhdKFtDQEBIXTJbQ0gyXVtDSDJdT1tDSDJdMilOM1tDSDJdW0NIMl1PW0NIMl1bQ0gyXTM=

> <s_epik_cmdline>
J2VwaWtfcHl0aG9uJywgJy1waCcsICc3LjAnLCAnLXRuJywgJzgnLCAnLW1hJywgJzIwMCcsICctbWV0YWxfYmluZGluZycsICctaW1hZScsICc8aW5maWxlLm1hZT4nLCAnLW9tYWUnLCAnPG91dGZpbGUubWFlPic=

> <r_epik_Ionization_Penalty>
0.125073

> <r_epik_Ionization_Penalty_Charging>
0

> <r_epik_Ionization_Penalty_Neutral>
0.125073

> <r_epik_State_Penalty>
0.114484

> <r_epik_Charging_Adjusted_Penalty>
0.114484

> <i_epik_Tot_Q>
0

> <i_epik_Tot_abs_Q>
0

> <r_epik_Metal_State_Penalty>
0.114483

> <b_epik_Metal_Only>
0

> <s_lp_Force_Field>
OPLS_2005

> <r_lp_Energy>
51.317

> <b_lp_Chiralities_Consistent>
1

> <s_lp_Variant>
AV-unprocessed.smi:1734-3

> <Gold.Version>
5.8.1

> <Gold.Id.Protein>
6NUR|6NUR_protein|mol2

> <Gold.PLP.Fitness>
44.0051

> <Gold.PLP.PLP>
-32.5325

> <Gold.PLP.part.hbond>
-4.4952

> <Gold.PLP.part.metal>
0.0000

> <Gold.PLP.part.buried>
-5.6583

> <Gold.PLP.part.nonpolar>
-23.2043

> <Gold.PLP.part.repulsive>
0.3282

> <Gold.PLP.ligand.clash>
0.0000

> <Gold.PLP.ligand.torsion>
1.1151

> <Gold.PLP.Chemscore.Hbond>
3.4400

> <Gold.PLP.Chemscore.CHOScore>
1.0000

> <Gold.PLP.Chemscore.Metal>
0.0000

> <Gold.Chemscore.Hbonds>
donor molecule, donor type, donor heavy atom, donor atom, acceptor molecule, acceptor atom, score
      L1  H     8    31       P1  7948  0.98
      L1  H    11    32       P1  7948  0.81
      P1  H  6931  6943       L1    17  0.48
      P1  H  7989  7998       L1    22  1.00
      L1  C     5    30       P1 10186  0.95

> <Gold.PLP.Chemscore.Internal.Correction>
0.3829

> <Gold.Rescore>
     Score         DG    S(hbond)    S(metal)    S(lipo)     H(rot)  DE(clash)    DE(int)     intcor
     19.74     -20.92       3.30        0.00      73.77       1.65       0.02       1.16       ----

> <Gold.Chemscore.Fitness>
19.7375

> <Gold.Chemscore.DG>
-20.9161

> <Gold.Chemscore.ZeroCoef>
-5.4800

> <Gold.Chemscore.Hbond>
3.3005

> <Gold.Chemscore.Metal>
0.0000

> <Gold.Chemscore.Lipo>
73.7702

> <Gold.Chemscore.Internal_Hbond>
0.0000

> <Gold.Chemscore.DEClash>
0.0174

> <Gold.Chemscore.DEInternal>
1.1612

> <Gold.Chemscore.Rot>
1.6480

> <Gold.Chemscore.Internal.Correction>
   9.000000E+99

> <Gold.Chemscore.Hbonds>
donor molecule, donor type, donor heavy atom, donor atom, acceptor molecule, acceptor atom, score
      L1  H     8    31       P1  7948  0.91
      L1  H    11    32       P1  7948  0.76
      P1  H  6931  6943       L1    17  0.36
      P1  H  7989  7998       L1    22  0.93

> <Gold.Chemscore.Hbond.Weighted>
-11.0238

> <Gold.Chemscore.Metal.Weighted>
-0.0000

> <Gold.Chemscore.Lipo.Weighted>
-8.6311

> <Gold.Chemscore.Internal_Hbond.Weighted>
0.0000

> <Gold.Chemscore.DEClash.Weighted>
0.0174

> <Gold.Chemscore.DEInternal.Weighted>
1.1612

> <Gold.Chemscore.Rot.Weighted>
4.2188

> <Gold.Chemscore.Internal.Correction.Weighted>
   9.000000E+99

> <Gold.Protein.RotatedTorsions>
[ 6907 6896 6895 6894 ] final -166.00 input  -60.11 | X-H torsion
[ 7974 7965 7964 7962 ] final   70.43 input  175.53 | X-H torsion
[ 8008 7997 7996 7995 ] final -148.22 input   59.86 | X-H torsion
[ 10167 10162 10161 10158 ] final  -54.99 input  -65.29 | X-H torsion
[ 10718 10713 10712 10709 ] final  -92.80 input   66.30 | X-H torsion
[ 10763 10752 10751 10750 ] final  159.78 input  -60.55 | X-H torsion
[ 11005 11000 10999 10996 ] final  -93.98 input  -57.11 | X-H torsion

> <Gold.Protein.ActiveResidues>
 VAL166  LYS551  ARG553  GLY616  TRP617  ASP618  TYR619  PRO620  LYS621  CYS622 
 ASP623  PHE694  ASN695  SER759  ASP760  ASP761  ALA762  ILE779  LEU786  VAL792 
 PHE793  MET794  SER795  GLU796  ALA797  LYS798  CYS799  TRP800  GLU811  SER814 

> <Gold.Protein.RotatedAtoms>
  151.4366  133.3655  159.2775 H   0  0  0  0  0  0  0  0  0  0  0  0  # atno 6907 bound_to 6896
  150.9187  134.8606  159.7485 H   0  0  0  0  0  0  0  0  0  0  0  0  # atno 6908 bound_to 6896
  152.4970  134.4302  159.9562 H   0  0  0  0  0  0  0  0  0  0  0  0  # atno 6909 bound_to 6896
  145.7782  139.2875  143.1281 H   0  0  0  0  0  0  0  0  0  0  0  0  # atno 7974 bound_to 7965
  155.5882  140.0650  157.2765 H   0  0  0  0  0  0  0  0  0  0  0  0  # atno 8008 bound_to 7997
  154.4313  140.1840  156.1094 H   0  0  0  0  0  0  0  0  0  0  0  0  # atno 8009 bound_to 7997
  156.0253  140.3312  155.7085 H   0  0  0  0  0  0  0  0  0  0  0  0  # atno 8010 bound_to 7997
  140.6400  143.2502  151.5016 H   0  0  0  0  0  0  0  0  0  0  0  0  # atno 10167 bound_to 10162
  156.0006  130.5002  150.5681 H   0  0  0  0  0  0  0  0  0  0  0  0  # atno 10718 bound_to 10713
  154.2371  135.2776  155.2868 H   0  0  0  0  0  0  0  0  0  0  0  0  # atno 10763 bound_to 10752
  154.5575  135.5657  153.6981 H   0  0  0  0  0  0  0  0  0  0  0  0  # atno 10764 bound_to 10752
  153.0007  135.6290  154.2515 H   0  0  0  0  0  0  0  0  0  0  0  0  # atno 10765 bound_to 10752
  141.1483  133.7925  157.0235 H   0  0  0  0  0  0  0  0  0  0  0  0  # atno 11005 bound_to 11000
  146.0101  140.8443  142.9975 LP  0  0  0  0  0  0  0  0  0  0  0  0  # atno 17320 bound_to 7965
  144.6801  140.2477  143.7335 LP  0  0  0  0  0  0  0  0  0  0  0  0  # atno 17321 bound_to 7965
  139.5609  144.2159  152.1689 LP  0  0  0  0  0  0  0  0  0  0  0  0  # atno 17342 bound_to 10162
  140.1427  144.5187  150.6734 LP  0  0  0  0  0  0  0  0  0  0  0  0  # atno 17343 bound_to 10162
  157.3580  131.0745  151.1660 LP  0  0  0  0  0  0  0  0  0  0  0  0  # atno 17370 bound_to 10713
  157.2454  130.6589  149.5908 LP  0  0  0  0  0  0  0  0  0  0  0  0  # atno 17371 bound_to 10713
  140.0800  134.9653  157.1609 LP  0  0  0  0  0  0  0  0  0  0  0  0  # atno 17394 bound_to 11000
  140.3590  134.2515  155.7189 LP  0  0  0  0  0  0  0  0  0  0  0  0  # atno 17395 bound_to 11000

$$$$
