AV-unprocessed.smi:2784|AV-procd|sdf|10745|dock3
  -GOLD-   2272015183D 1   1.00000     0.00000
 Structure written by MMmdl.
 30 31  0  0  0  0  0  0  0  0  2 V2000
  153.2364  140.6188  160.0881 C   0  0  0  0  0  0  0  0  0  0  0  0
  153.0958  141.8737  160.7344 O   0  0  0  0  0  0  0  0  0  0  0  0
  152.1466  142.7330  160.1162 C   0  0  1  0  0  0  0  0  0  0  0  0
  152.2099  144.1568  160.6889 C   0  0  0  0  0  0  0  0  0  0  0  0
  151.8496  145.0605  159.5158 C   0  0  0  0  0  0  0  0  0  0  0  0
  152.5139  144.3833  158.3192 C   0  0  0  0  0  0  0  0  0  0  0  0
  152.4539  142.8702  158.6084 C   0  0  2  0  0  0  0  0  0  0  0  0
  151.4145  142.2217  157.8107 N   0  0  0  0  0  0  0  0  0  0  0  0
  151.5014  141.0140  157.2347 C   0  0  0  0  0  0  0  0  0  0  0  0
  152.5323  140.3481  157.3555 O   0  0  0  0  0  0  0  0  0  0  0  0
  150.3910  140.6559  156.5509 N   0  5  0  0  0  0  0  0  0  0  0  0
  150.4504  139.6566  155.6558 C   0  0  0  0  0  0  0  0  0  0  0  0
  151.4717  139.3831  154.8420 N   0  0  0  0  0  0  0  0  0  0  0  0
  151.0868  138.2694  154.1116 C   0  0  0  0  0  0  0  0  0  0  0  0
  149.8345  137.9073  154.5270 C   0  0  0  0  0  0  0  0  0  0  0  0
  149.4238  138.7726  155.5030 O   0  0  0  0  0  0  0  0  0  0  0  0
  153.9917  140.0269  160.6050 H   0  0  0  0  0  0  0  0  0  0  0  0
  153.5586  140.7418  159.0532 H   0  0  0  0  0  0  0  0  0  0  0  0
  152.3044  140.0529  160.1001 H   0  0  0  0  0  0  0  0  0  0  0  0
  151.1380  142.3359  160.2510 H   0  0  0  0  0  0  0  0  0  0  0  0
  151.5486  144.2963  161.5444 H   0  0  0  0  0  0  0  0  0  0  0  0
  153.2266  144.3817  161.0143 H   0  0  0  0  0  0  0  0  0  0  0  0
  150.7674  145.0746  159.3784 H   0  0  0  0  0  0  0  0  0  0  0  0
  152.1848  146.0883  159.6565 H   0  0  0  0  0  0  0  0  0  0  0  0
  152.0482  144.6679  157.3746 H   0  0  0  0  0  0  0  0  0  0  0  0
  153.5579  144.6947  158.2664 H   0  0  0  0  0  0  0  0  0  0  0  0
  153.4204  142.4171  158.3787 H   0  0  0  0  0  0  0  0  0  0  0  0
  150.5521  142.7315  157.6866 H   0  0  0  0  0  0  0  0  0  0  0  0
  151.7282  137.8260  153.3647 H   0  0  0  0  0  0  0  0  0  0  0  0
  149.1486  137.1198  154.2534 H   0  0  0  0  0  0  0  0  0  0  0  0
  1  2  1  0  0  0  0
  1 17  1  0  0  0  0
  1 18  1  0  0  0  0
  1 19  1  0  0  0  0
  2  3  1  0  0  0  0
  3  7  1  0  0  0  0
  3  4  1  0  0  0  0
  3 20  1  0  0  0  0
  4  5  1  0  0  0  0
  4 21  1  0  0  0  0
  4 22  1  0  0  0  0
  5  6  1  0  0  0  0
  5 23  1  0  0  0  0
  5 24  1  0  0  0  0
  6  7  1  0  0  0  0
  6 25  1  0  0  0  0
  6 26  1  0  0  0  0
  7  8  1  0  0  0  0
  7 27  1  0  0  0  0
  8 28  1  0  0  0  0
  8  9  1  0  0  0  0
  9 11  1  0  0  0  0
  9 10  2  0  0  0  0
 11 12  1  0  0  0  0
 12 16  1  0  0  0  0
 12 13  2  0  0  0  0
 13 14  1  0  0  0  0
 14 29  1  0  0  0  0
 14 15  2  0  0  0  0
 15 30  1  0  0  0  0
 15 16  1  0  0  0  0
M  CHG  1  11  -1
M  END
> <s_m_source_file>
AV-unprocessed.smi

> <i_m_source_file_index>
2784

> <i_lp_mmshare_version>
43012

> <i_f3d_flags>
0

> <s_epik_input>
W0NIM11PW0NAQEhdMVtDSDJdW0NIMl1bQ0gyXVtDQEhdMVtOSF1DKD1PKVtOSF1jMm5bY0hdW2NIXW8y

> <s_epik_cmdline>
J2VwaWtfcHl0aG9uJywgJy1waCcsICc3LjAnLCAnLXRuJywgJzgnLCAnLW1hJywgJzIwMCcsICctbWV0YWxfYmluZGluZycsICctaW1hZScsICc8aW5maWxlLm1hZT4nLCAnLW9tYWUnLCAnPG91dGZpbGUubWFlPic=

> <r_lp_tautomer_probability>
0.107061

> <r_epik_Ionization_Penalty>
10.8857

> <r_epik_Ionization_Penalty_Charging>
7.67908

> <r_epik_Ionization_Penalty_Neutral>
3.20665

> <r_epik_State_Penalty>
5.80296

> <r_epik_Charging_Adjusted_Penalty>
13.482

> <i_epik_Tot_Q>
-1

> <i_epik_Tot_abs_Q>
1

> <r_epik_Metal_State_Penalty>
1.73217

> <b_epik_Metal_Only>
1

> <s_lp_Force_Field>
OPLS_2005

> <r_lp_Energy>
14.4725

> <b_lp_Chiralities_Consistent>
1

> <s_lp_Variant>
AV-unprocessed.smi:2784-20

> <Gold.Version>
5.8.1

> <Gold.Id.Protein>
6NUR|6NUR_protein|mol2

> <Gold.PLP.Fitness>
42.3902

> <Gold.PLP.PLP>
-33.2550

> <Gold.PLP.part.hbond>
-2.0000

> <Gold.PLP.part.metal>
0.0000

> <Gold.PLP.part.buried>
-4.4970

> <Gold.PLP.part.nonpolar>
-27.1113

> <Gold.PLP.part.repulsive>
0.1806

> <Gold.PLP.ligand.clash>
0.0000

> <Gold.PLP.ligand.torsion>
0.6594

> <Gold.PLP.Chemscore.Hbond>
1.9600

> <Gold.PLP.Chemscore.CHOScore>
1.5151

> <Gold.PLP.Chemscore.Metal>
0.0000

> <Gold.Chemscore.Hbonds>
donor molecule, donor type, donor heavy atom, donor atom, acceptor molecule, acceptor atom, score
      P1  H  7989  7998       L1    13  1.00
      P1  H  7997  8008       L1    10  0.96
      L1  C    14    29       P1  7949  0.63
      L1  C    15    30       P1  7948  0.81

> <Gold.PLP.Chemscore.Internal.Correction>
0.0289

> <Gold.Rescore>
     Score         DG    S(hbond)    S(metal)    S(lipo)     H(rot)  DE(clash)    DE(int)     intcor
     16.03     -17.96       1.83        0.00      83.07       1.31       0.14       1.80       ----

> <Gold.Chemscore.Fitness>
16.0253

> <Gold.Chemscore.DG>
-17.9649

> <Gold.Chemscore.ZeroCoef>
-5.4800

> <Gold.Chemscore.Hbond>
1.8327

> <Gold.Chemscore.Metal>
0.0000

> <Gold.Chemscore.Lipo>
83.0666

> <Gold.Chemscore.Internal_Hbond>
0.0000

> <Gold.Chemscore.DEClash>
0.1402

> <Gold.Chemscore.DEInternal>
1.7994

> <Gold.Chemscore.Rot>
1.3106

> <Gold.Chemscore.Internal.Correction>
   9.000000E+99

> <Gold.Chemscore.Hbonds>
donor molecule, donor type, donor heavy atom, donor atom, acceptor molecule, acceptor atom, score
      P1  H  7989  7998       L1    13  0.34
      P1  H  7997  8008       L1    10  0.90

> <Gold.Chemscore.Hbond.Weighted>
-6.1211

> <Gold.Chemscore.Metal.Weighted>
-0.0000

> <Gold.Chemscore.Lipo.Weighted>
-9.7188

> <Gold.Chemscore.Internal_Hbond.Weighted>
0.0000

> <Gold.Chemscore.DEClash.Weighted>
0.1402

> <Gold.Chemscore.DEInternal.Weighted>
1.7994

> <Gold.Chemscore.Rot.Weighted>
3.3550

> <Gold.Chemscore.Internal.Correction.Weighted>
   9.000000E+99

> <Gold.Protein.RotatedTorsions>
[ 6907 6896 6895 6894 ] final   87.76 input  -60.11 | X-H torsion
[ 7974 7965 7964 7962 ] final  171.51 input  175.53 | X-H torsion
[ 8008 7997 7996 7995 ] final  -61.88 input   59.86 | X-H torsion
[ 10167 10162 10161 10158 ] final -125.13 input  -65.29 | X-H torsion
[ 10718 10713 10712 10709 ] final  -50.88 input   66.30 | X-H torsion
[ 10763 10752 10751 10750 ] final   83.92 input  -60.55 | X-H torsion
[ 11005 11000 10999 10996 ] final  -91.80 input  -57.11 | X-H torsion

> <Gold.Protein.ActiveResidues>
 VAL166  LYS551  ARG553  GLY616  TRP617  ASP618  TYR619  PRO620  LYS621  CYS622 
 ASP623  PHE694  ASN695  SER759  ASP760  ASP761  ALA762  ILE779  LEU786  VAL792 
 PHE793  MET794  SER795  GLU796  ALA797  LYS798  CYS799  TRP800  GLU811  SER814 

> <Gold.Protein.RotatedAtoms>
  152.5416  134.2227  159.8793 H   0  0  0  0  0  0  0  0  0  0  0  0  # atno 6907 bound_to 6896
  151.2203  133.4499  159.2608 H   0  0  0  0  0  0  0  0  0  0  0  0  # atno 6908 bound_to 6896
  151.0812  134.9872  159.8412 H   0  0  0  0  0  0  0  0  0  0  0  0  # atno 6909 bound_to 6896
  144.7293  139.9360  143.6426 H   0  0  0  0  0  0  0  0  0  0  0  0  # atno 7974 bound_to 7965
  154.4470  140.1008  156.6500 H   0  0  0  0  0  0  0  0  0  0  0  0  # atno 8008 bound_to 7997
  155.5408  140.3483  155.4428 H   0  0  0  0  0  0  0  0  0  0  0  0  # atno 8009 bound_to 7997
  156.0598  140.1324  156.9943 H   0  0  0  0  0  0  0  0  0  0  0  0  # atno 8010 bound_to 7997
  139.9854  143.5698  152.2362 H   0  0  0  0  0  0  0  0  0  0  0  0  # atno 10167 bound_to 10162
  156.1760  130.4150  149.9577 H   0  0  0  0  0  0  0  0  0  0  0  0  # atno 10718 bound_to 10713
  153.1334  135.4673  154.9385 H   0  0  0  0  0  0  0  0  0  0  0  0  # atno 10763 bound_to 10752
  154.7685  135.3152  154.8241 H   0  0  0  0  0  0  0  0  0  0  0  0  # atno 10764 bound_to 10752
  153.8778  135.6897  153.4823 H   0  0  0  0  0  0  0  0  0  0  0  0  # atno 10765 bound_to 10752
  141.1537  133.7779  156.9930 H   0  0  0  0  0  0  0  0  0  0  0  0  # atno 11005 bound_to 11000
  146.0821  139.3809  143.0458 LP  0  0  0  0  0  0  0  0  0  0  0  0  # atno 17320 bound_to 7965
  145.7827  140.9849  143.1091 LP  0  0  0  0  0  0  0  0  0  0  0  0  # atno 17321 bound_to 7965
  139.6379  144.7652  151.2400 LP  0  0  0  0  0  0  0  0  0  0  0  0  # atno 17342 bound_to 10162
  140.7474  143.6367  150.8372 LP  0  0  0  0  0  0  0  0  0  0  0  0  # atno 17343 bound_to 10162
  156.7362  130.9062  151.3629 LP  0  0  0  0  0  0  0  0  0  0  0  0  # atno 17370 bound_to 10713
  157.6836  130.9163  150.0329 LP  0  0  0  0  0  0  0  0  0  0  0  0  # atno 17371 bound_to 10713
  140.0990  134.9547  157.1894 LP  0  0  0  0  0  0  0  0  0  0  0  0  # atno 17394 bound_to 11000
  140.3343  134.2774  155.7222 LP  0  0  0  0  0  0  0  0  0  0  0  0  # atno 17395 bound_to 11000

$$$$
