AV-unprocessed.smi:2904|AV-procd|sdf|11160|dock1
  -GOLD-   2272016 43D 1   1.00000     0.00000
 Structure written by MMmdl.
 39 40  0  0  0  0  0  0  0  0  1 V2000
  150.7943  140.8788  155.6708 C   0  0  0  0  0  0  0  0  0  0  0  0
  151.3180  141.4704  156.9478 C   0  0  0  0  0  0  0  0  0  0  0  0
  151.2711  142.7802  157.1213 N   0  0  0  0  0  0  0  0  0  0  0  0
  151.7873  142.9862  158.3509 N   0  0  0  0  0  0  0  0  0  0  0  0
  151.9139  144.3430  158.8552 C   0  0  0  0  0  0  0  0  0  0  0  0
  152.6211  145.0791  157.9987 F   0  0  0  0  0  0  0  0  0  0  0  0
  150.7110  144.8897  159.0386 F   0  0  0  0  0  0  0  0  0  0  0  0
  152.1946  141.8035  158.9385 C   0  0  0  0  0  0  0  0  0  0  0  0
  152.8252  141.7631  160.2924 C   0  0  0  0  0  0  0  0  0  0  0  0
  151.8975  140.7946  158.0612 C   0  0  0  0  0  0  0  0  0  0  0  0
  152.1229  139.3091  158.2154 C   0  0  0  0  0  0  0  0  0  0  0  0
  153.2648  139.0033  159.1930 C   0  0  0  0  0  0  0  0  0  0  0  0
  154.4277  139.3230  158.9397 O   0  0  0  0  0  0  0  0  0  0  0  0
  152.9093  138.3728  160.3226 N   0  0  0  0  0  0  0  0  0  0  0  0
  153.8231  137.9849  161.3932 C   0  0  0  0  0  0  0  0  0  0  0  0
  153.0852  137.1152  162.4214 C   0  0  0  0  0  0  0  0  0  0  0  0
  153.9899  136.8169  163.6280 C   0  0  0  0  0  0  0  0  0  0  0  0
  154.4414  138.0350  164.2104 O   0  0  0  0  0  0  0  0  0  0  0  0
  155.2342  138.8148  163.3214 C   0  0  0  0  0  0  0  0  0  0  0  0
  154.4025  139.2248  162.0952 C   0  0  0  0  0  0  0  0  0  0  0  0
  150.3327  139.9071  155.8484 H   0  0  0  0  0  0  0  0  0  0  0  0
  151.5988  140.7378  154.9489 H   0  0  0  0  0  0  0  0  0  0  0  0
  150.0414  141.5200  155.2112 H   0  0  0  0  0  0  0  0  0  0  0  0
  152.4283  144.3488  159.8159 H   0  0  0  0  0  0  0  0  0  0  0  0
  153.1593  140.7571  160.5453 H   0  0  0  0  0  0  0  0  0  0  0  0
  152.1162  142.0799  161.0573 H   0  0  0  0  0  0  0  0  0  0  0  0
  153.6915  142.4234  160.3367 H   0  0  0  0  0  0  0  0  0  0  0  0
  151.2190  138.8159  158.5748 H   0  0  0  0  0  0  0  0  0  0  0  0
  152.3557  138.8433  157.2577 H   0  0  0  0  0  0  0  0  0  0  0  0
  151.9338  138.1463  160.4521 H   0  0  0  0  0  0  0  0  0  0  0  0
  154.6425  137.3966  160.9753 H   0  0  0  0  0  0  0  0  0  0  0  0
  152.1868  137.6287  162.7670 H   0  0  0  0  0  0  0  0  0  0  0  0
  152.7560  136.1827  161.9618 H   0  0  0  0  0  0  0  0  0  0  0  0
  153.4378  136.2511  164.3784 H   0  0  0  0  0  0  0  0  0  0  0  0
  154.8432  136.2045  163.3325 H   0  0  0  0  0  0  0  0  0  0  0  0
  155.5847  139.7020  163.8492 H   0  0  0  0  0  0  0  0  0  0  0  0
  156.1201  138.2540  163.0200 H   0  0  0  0  0  0  0  0  0  0  0  0
  155.0180  139.8023  161.4044 H   0  0  0  0  0  0  0  0  0  0  0  0
  153.5928  139.8818  162.4159 H   0  0  0  0  0  0  0  0  0  0  0  0
  1  2  1  0  0  0  0
  1 21  1  0  0  0  0
  1 22  1  0  0  0  0
  1 23  1  0  0  0  0
  2 10  1  0  0  0  0
  2  3  2  0  0  0  0
  3  4  1  0  0  0  0
  4  5  1  0  0  0  0
  4  8  1  0  0  0  0
  5  6  1  0  0  0  0
  5  7  1  0  0  0  0
  5 24  1  0  0  0  0
  8  9  1  0  0  0  0
  8 10  2  0  0  0  0
  9 25  1  0  0  0  0
  9 26  1  0  0  0  0
  9 27  1  0  0  0  0
 10 11  1  0  0  0  0
 11 12  1  0  0  0  0
 11 28  1  0  0  0  0
 11 29  1  0  0  0  0
 12 13  2  0  0  0  0
 12 14  1  0  0  0  0
 14 15  1  0  0  0  0
 14 30  1  0  0  0  0
 15 20  1  0  0  0  0
 15 16  1  0  0  0  0
 15 31  1  0  0  0  0
 16 17  1  0  0  0  0
 16 32  1  0  0  0  0
 16 33  1  0  0  0  0
 17 18  1  0  0  0  0
 17 34  1  0  0  0  0
 17 35  1  0  0  0  0
 18 19  1  0  0  0  0
 19 20  1  0  0  0  0
 19 36  1  0  0  0  0
 19 37  1  0  0  0  0
 20 38  1  0  0  0  0
 20 39  1  0  0  0  0
M  END
> <s_m_source_file>
AV-unprocessed.smi

> <i_m_source_file_index>
2904

> <i_lp_mmshare_version>
43012

> <i_f3d_flags>
0

> <s_epik_input>
W0NIM11jMW5uKFtDSF0oRilGKWMoW0NIM10pYzFbQ0gyXUMoPU8pW05IXVtDSF0yW0NIMl1bQ0gyXU9bQ0gyXVtDSDJdMg==

> <s_epik_cmdline>
J2VwaWtfcHl0aG9uJywgJy1waCcsICc3LjAnLCAnLXRuJywgJzgnLCAnLW1hJywgJzIwMCcsICctbWV0YWxfYmluZGluZycsICctaW1hZScsICc8aW5maWxlLm1hZT4nLCAnLW9tYWUnLCAnPG91dGZpbGUubWFlPic=

> <r_lp_tautomer_probability>
1

> <r_epik_Ionization_Penalty>
3.9362e-07

> <r_epik_Ionization_Penalty_Charging>
0

> <r_epik_Ionization_Penalty_Neutral>
3.9362e-07

> <r_epik_State_Penalty>
-0

> <r_epik_Charging_Adjusted_Penalty>
0

> <i_epik_Tot_Q>
0

> <i_epik_Tot_abs_Q>
0

> <r_epik_Metal_State_Penalty>
-0

> <b_epik_Metal_Only>
0

> <s_lp_Force_Field>
OPLS_2005

> <r_lp_Energy>
7.93396

> <b_lp_Chiralities_Consistent>
1

> <s_lp_Variant>
AV-unprocessed.smi:2904-1

> <Gold.Version>
5.8.1

> <Gold.Id.Protein>
6NUR|6NUR_protein|mol2

> <Gold.PLP.Fitness>
44.0171

> <Gold.PLP.PLP>
-41.8962

> <Gold.PLP.part.hbond>
-1.0000

> <Gold.PLP.part.metal>
0.0000

> <Gold.PLP.part.buried>
-5.4553

> <Gold.PLP.part.nonpolar>
-35.2870

> <Gold.PLP.part.repulsive>
0.1844

> <Gold.PLP.ligand.clash>
0.0000

> <Gold.PLP.ligand.torsion>
0.4627

> <Gold.PLP.Chemscore.Hbond>
1.0000

> <Gold.PLP.Chemscore.CHOScore>
0.0000

> <Gold.PLP.Chemscore.Metal>
0.0000

> <Gold.Chemscore.Hbonds>
donor molecule, donor type, donor heavy atom, donor atom, acceptor molecule, acceptor atom, score
      P1  H  7997  8009       L1    13  1.00

> <Gold.PLP.Chemscore.Internal.Correction>
0.0463

> <Gold.Rescore>
     Score         DG    S(hbond)    S(metal)    S(lipo)     H(rot)  DE(clash)    DE(int)     intcor
     14.98     -15.20       1.00        0.00      86.12       1.44       0.05       0.18       ----

> <Gold.Chemscore.Fitness>
14.9774

> <Gold.Chemscore.DG>
-15.2043

> <Gold.Chemscore.ZeroCoef>
-5.4800

> <Gold.Chemscore.Hbond>
1.0000

> <Gold.Chemscore.Metal>
0.0000

> <Gold.Chemscore.Lipo>
86.1157

> <Gold.Chemscore.Internal_Hbond>
0.0000

> <Gold.Chemscore.DEClash>
0.0487

> <Gold.Chemscore.DEInternal>
0.1782

> <Gold.Chemscore.Rot>
1.4419

> <Gold.Chemscore.Internal.Correction>
   9.000000E+99

> <Gold.Chemscore.Hbonds>
donor molecule, donor type, donor heavy atom, donor atom, acceptor molecule, acceptor atom, score
      P1  H  7997  8009       L1    13  1.00

> <Gold.Chemscore.Hbond.Weighted>
-3.3400

> <Gold.Chemscore.Metal.Weighted>
-0.0000

> <Gold.Chemscore.Lipo.Weighted>
-10.0755

> <Gold.Chemscore.Internal_Hbond.Weighted>
0.0000

> <Gold.Chemscore.DEClash.Weighted>
0.0487

> <Gold.Chemscore.DEInternal.Weighted>
0.1782

> <Gold.Chemscore.Rot.Weighted>
3.6913

> <Gold.Chemscore.Internal.Correction.Weighted>
   9.000000E+99

> <Gold.Protein.RotatedTorsions>
[ 6907 6896 6895 6894 ] final  -36.06 input  -60.11 | X-H torsion
[ 7974 7965 7964 7962 ] final   20.02 input  175.53 | X-H torsion
[ 8008 7997 7996 7995 ] final  127.52 input   59.86 | X-H torsion
[ 10167 10162 10161 10158 ] final  162.12 input  -65.29 | X-H torsion
[ 10718 10713 10712 10709 ] final   54.59 input   66.30 | X-H torsion
[ 10763 10752 10751 10750 ] final  -43.40 input  -60.55 | X-H torsion
[ 11005 11000 10999 10996 ] final  -59.48 input  -57.11 | X-H torsion

> <Gold.Protein.ActiveResidues>
 VAL166  LYS551  ARG553  GLY616  TRP617  ASP618  TYR619  PRO620  LYS621  CYS622 
 ASP623  PHE694  ASN695  SER759  ASP760  ASP761  ALA762  ILE779  LEU786  VAL792 
 PHE793  MET794  SER795  GLU796  ALA797  LYS798  CYS799  TRP800  GLU811  SER814 

> <Gold.Protein.RotatedAtoms>
  151.0320  134.9546  159.8115 H   0  0  0  0  0  0  0  0  0  0  0  0  # atno 6907 bound_to 6896
  152.5347  134.2768  159.9002 H   0  0  0  0  0  0  0  0  0  0  0  0  # atno 6908 bound_to 6896
  151.2778  133.4182  159.2659 H   0  0  0  0  0  0  0  0  0  0  0  0  # atno 6909 bound_to 6896
  146.2127  139.8229  142.8676 H   0  0  0  0  0  0  0  0  0  0  0  0  # atno 7974 bound_to 7965
  156.2893  140.2667  156.2286 H   0  0  0  0  0  0  0  0  0  0  0  0  # atno 8008 bound_to 7997
  155.0095  140.0387  157.2412 H   0  0  0  0  0  0  0  0  0  0  0  0  # atno 8009 bound_to 7997
  154.7530  140.2746  155.6282 H   0  0  0  0  0  0  0  0  0  0  0  0  # atno 8010 bound_to 7997
  139.4857  144.4468  151.8881 H   0  0  0  0  0  0  0  0  0  0  0  0  # atno 10167 bound_to 10162
  157.5271  130.8604  149.8636 H   0  0  0  0  0  0  0  0  0  0  0  0  # atno 10718 bound_to 10713
  153.9949  135.6700  153.4756 H   0  0  0  0  0  0  0  0  0  0  0  0  # atno 10763 bound_to 10752
  153.0688  135.4986  154.8255 H   0  0  0  0  0  0  0  0  0  0  0  0  # atno 10764 bound_to 10752
  154.7087  135.3093  154.9193 H   0  0  0  0  0  0  0  0  0  0  0  0  # atno 10765 bound_to 10752
  141.1250  133.6616  156.5077 H   0  0  0  0  0  0  0  0  0  0  0  0  # atno 11005 bound_to 11000
  145.3077  141.0211  143.3572 LP  0  0  0  0  0  0  0  0  0  0  0  0  # atno 17320 bound_to 7965
  144.8959  139.4713  143.6656 LP  0  0  0  0  0  0  0  0  0  0  0  0  # atno 17321 bound_to 7965
  140.3923  144.2599  150.5899 LP  0  0  0  0  0  0  0  0  0  0  0  0  # atno 17342 bound_to 10162
  140.5134  143.2284  151.8500 LP  0  0  0  0  0  0  0  0  0  0  0  0  # atno 17343 bound_to 10162
  156.0395  130.3742  150.1473 LP  0  0  0  0  0  0  0  0  0  0  0  0  # atno 17370 bound_to 10713
  156.9659  130.9819  151.3469 LP  0  0  0  0  0  0  0  0  0  0  0  0  # atno 17371 bound_to 10713
  140.4394  134.7029  157.4984 LP  0  0  0  0  0  0  0  0  0  0  0  0  # atno 17394 bound_to 11000
  140.0239  134.6505  155.9200 LP  0  0  0  0  0  0  0  0  0  0  0  0  # atno 17395 bound_to 11000

$$$$
