AV-unprocessed.smi:1839|AV-procd|sdf|7484|dock6
  -GOLD-   22720 9183D 1   1.00000     0.00000
 Structure written by MMmdl.
 46 47  0  0  0  0  0  0  0  0  1 V2000
  144.1476  136.5973  152.4243 C   0  0  0  0  0  0  0  0  0  0  0  0
  144.2703  135.1431  152.3217 N   0  0  0  0  0  0  0  0  0  0  0  0
  142.9863  134.4317  152.3037 C   0  0  0  0  0  0  0  0  0  0  0  0
  145.4666  134.5410  152.5372 C   0  0  0  0  0  0  0  0  0  0  0  0
  146.3626  135.0832  153.1876 O   0  0  0  0  0  0  0  0  0  0  0  0
  145.6052  133.2929  152.0302 N   0  0  0  0  0  0  0  0  0  0  0  0
  145.0984  132.9086  150.7045 C   0  0  0  0  0  0  0  0  0  0  0  0
  144.4788  131.5016  150.7757 C   0  0  0  0  0  0  0  0  0  0  0  0
  145.4898  130.4828  151.3305 C   0  0  0  0  0  0  0  0  0  0  0  0
  146.1048  130.9731  152.6596 C   0  0  1  0  0  0  0  0  0  0  0  0
  147.1906  130.0186  153.1709 C   0  0  0  0  0  0  0  0  0  0  0  0
  147.6038  129.1032  152.4584 O   0  0  0  0  0  0  0  0  0  0  0  0
  147.6636  130.2642  154.4019 N   0  0  0  0  0  0  0  0  0  0  0  0
  148.7828  129.5670  155.0266 C   0  0  0  0  0  0  0  0  0  0  0  0
  150.1457  130.2264  154.7266 C   0  0  0  0  0  0  0  0  0  0  0  0
  150.1349  131.7431  154.8410 C   0  0  0  0  0  0  0  0  0  0  0  0
  150.9442  132.3970  155.7943 C   0  0  0  0  0  0  0  0  0  0  0  0
  150.8791  133.8014  155.8794 C   0  0  0  0  0  0  0  0  0  0  0  0
  150.0103  134.4949  155.0145 C   0  0  0  0  0  0  0  0  0  0  0  0
  149.2436  133.7502  154.0964 C   0  0  0  0  0  0  0  0  0  0  0  0
  149.3008  132.4044  154.0061 N   0  0  0  0  0  0  0  0  0  0  0  0
  146.6730  132.3989  152.4896 C   0  0  0  0  0  0  0  0  0  0  0  0
  145.0048  137.1038  151.9776 H   0  0  0  0  0  0  0  0  0  0  0  0
  144.0773  136.9000  153.4697 H   0  0  0  0  0  0  0  0  0  0  0  0
  143.2578  136.9564  151.9056 H   0  0  0  0  0  0  0  0  0  0  0  0
  143.0296  133.4875  152.8485 H   0  0  0  0  0  0  0  0  0  0  0  0
  142.6759  134.2259  151.2795 H   0  0  0  0  0  0  0  0  0  0  0  0
  142.2006  135.0251  152.7733 H   0  0  0  0  0  0  0  0  0  0  0  0
  144.3705  133.6191  150.3122 H   0  0  0  0  0  0  0  0  0  0  0  0
  145.9267  132.9133  149.9945 H   0  0  0  0  0  0  0  0  0  0  0  0
  143.5934  131.5213  151.4118 H   0  0  0  0  0  0  0  0  0  0  0  0
  144.1411  131.1905  149.7868 H   0  0  0  0  0  0  0  0  0  0  0  0
  145.0029  129.5171  151.4701 H   0  0  0  0  0  0  0  0  0  0  0  0
  146.2755  130.3288  150.5892 H   0  0  0  0  0  0  0  0  0  0  0  0
  145.3069  131.0144  153.4037 H   0  0  0  0  0  0  0  0  0  0  0  0
  147.2639  131.0355  154.9164 H   0  0  0  0  0  0  0  0  0  0  0  0
  148.6082  129.5751  156.1028 H   0  0  0  0  0  0  0  0  0  0  0  0
  148.7922  128.5187  154.7251 H   0  0  0  0  0  0  0  0  0  0  0  0
  150.9019  129.8249  155.4019 H   0  0  0  0  0  0  0  0  0  0  0  0
  150.4704  129.9529  153.7213 H   0  0  0  0  0  0  0  0  0  0  0  0
  151.5952  131.8365  156.4491 H   0  0  0  0  0  0  0  0  0  0  0  0
  151.4822  134.3369  156.5978 H   0  0  0  0  0  0  0  0  0  0  0  0
  149.9328  135.5713  155.0534 H   0  0  0  0  0  0  0  0  0  0  0  0
  148.5656  134.2469  153.4182 H   0  0  0  0  0  0  0  0  0  0  0  0
  147.4945  132.4135  151.7709 H   0  0  0  0  0  0  0  0  0  0  0  0
  147.0873  132.7360  153.4418 H   0  0  0  0  0  0  0  0  0  0  0  0
  1  2  1  0  0  0  0
  1 23  1  0  0  0  0
  1 24  1  0  0  0  0
  1 25  1  0  0  0  0
  2  3  1  0  0  0  0
  2  4  1  0  0  0  0
  3 26  1  0  0  0  0
  3 27  1  0  0  0  0
  3 28  1  0  0  0  0
  4  5  2  0  0  0  0
  4  6  1  0  0  0  0
  6 22  1  0  0  0  0
  6  7  1  0  0  0  0
  7  8  1  0  0  0  0
  7 29  1  0  0  0  0
  7 30  1  0  0  0  0
  8  9  1  0  0  0  0
  8 31  1  0  0  0  0
  8 32  1  0  0  0  0
  9 10  1  0  0  0  0
  9 33  1  0  0  0  0
  9 34  1  0  0  0  0
 10 11  1  0  0  0  0
 10 22  1  0  0  0  0
 10 35  1  0  0  0  0
 11 12  2  0  0  0  0
 11 13  1  0  0  0  0
 13 14  1  0  0  0  0
 13 36  1  0  0  0  0
 14 15  1  0  0  0  0
 14 37  1  0  0  0  0
 14 38  1  0  0  0  0
 15 16  1  0  0  0  0
 15 39  1  0  0  0  0
 15 40  1  0  0  0  0
 16 21  1  0  0  0  0
 16 17  2  0  0  0  0
 17 18  1  0  0  0  0
 17 41  1  0  0  0  0
 18 19  2  0  0  0  0
 18 42  1  0  0  0  0
 19 20  1  0  0  0  0
 19 43  1  0  0  0  0
 20 21  2  0  0  0  0
 20 44  1  0  0  0  0
 22 45  1  0  0  0  0
 22 46  1  0  0  0  0
M  END
> <s_m_source_file>
AV-unprocessed.smi

> <i_m_source_file_index>
1839

> <i_lp_mmshare_version>
43012

> <i_f3d_flags>
0

> <s_epik_input>
W0NIM11OKFtDSDNdKUMoPU8pTjFbQ0gyXVtDSDJdW0NIMl1bQ0BIXShbQ0gyXTEpQyg9TylbTkhdW0NIMl1bQ0gyXWMyW2NIXVtjSF1bY0hdW2NIXW4y

> <s_epik_cmdline>
J2VwaWtfcHl0aG9uJywgJy1waCcsICc3LjAnLCAnLXRuJywgJzgnLCAnLW1hJywgJzIwMCcsICctbWV0YWxfYmluZGluZycsICctaW1hZScsICc8aW5maWxlLm1hZT4nLCAnLW9tYWUnLCAnPG91dGZpbGUubWFlPic=

> <r_epik_Ionization_Penalty>
0.0268631

> <r_epik_Ionization_Penalty_Charging>
0

> <r_epik_Ionization_Penalty_Neutral>
0.0268631

> <r_epik_State_Penalty>
0.0219025

> <r_epik_Charging_Adjusted_Penalty>
0.0219025

> <i_epik_Tot_Q>
0

> <i_epik_Tot_abs_Q>
0

> <r_epik_Metal_State_Penalty>
0.0209511

> <b_epik_Metal_Only>
0

> <s_lp_Force_Field>
OPLS_2005

> <r_lp_Energy>
49.2306

> <b_lp_Chiralities_Consistent>
1

> <s_lp_Variant>
AV-unprocessed.smi:1839-1

> <Gold.Version>
5.8.1

> <Gold.Id.Protein>
6NUR|6NUR_protein|mol2

> <Gold.PLP.Fitness>
38.4223

> <Gold.PLP.PLP>
-36.2983

> <Gold.PLP.part.hbond>
0.0000

> <Gold.PLP.part.metal>
0.0000

> <Gold.PLP.part.buried>
-7.0917

> <Gold.PLP.part.nonpolar>
-30.1513

> <Gold.PLP.part.repulsive>
0.7156

> <Gold.PLP.ligand.clash>
0.0000

> <Gold.PLP.ligand.torsion>
1.0903

> <Gold.PLP.Chemscore.Hbond>
0.0000

> <Gold.PLP.Chemscore.CHOScore>
0.9932

> <Gold.PLP.Chemscore.Metal>
0.0000

> <Gold.Chemscore.Hbonds>
donor molecule, donor type, donor heavy atom, donor atom, acceptor molecule, acceptor atom, score
      L1  C    20    44       P1  7948  0.99

> <Gold.PLP.Chemscore.Internal.Correction>
1.3251

> <Gold.Rescore>
     Score         DG    S(hbond)    S(metal)    S(lipo)     H(rot)  DE(clash)    DE(int)     intcor
      8.66     -11.93       0.00        0.00      88.30       1.52       0.18       3.10       ----

> <Gold.Chemscore.Fitness>
8.6552

> <Gold.Chemscore.DG>
-11.9316

> <Gold.Chemscore.ZeroCoef>
-5.4800

> <Gold.Chemscore.Hbond>
0.0000

> <Gold.Chemscore.Metal>
0.0000

> <Gold.Chemscore.Lipo>
88.3010

> <Gold.Chemscore.Internal_Hbond>
0.0000

> <Gold.Chemscore.DEClash>
0.1779

> <Gold.Chemscore.DEInternal>
3.0985

> <Gold.Chemscore.Rot>
1.5155

> <Gold.Chemscore.Internal.Correction>
   9.000000E+99

> <Gold.Chemscore.Hbond.Weighted>
-0.0000

> <Gold.Chemscore.Metal.Weighted>
-0.0000

> <Gold.Chemscore.Lipo.Weighted>
-10.3312

> <Gold.Chemscore.Internal_Hbond.Weighted>
0.0000

> <Gold.Chemscore.DEClash.Weighted>
0.1779

> <Gold.Chemscore.DEInternal.Weighted>
3.0985

> <Gold.Chemscore.Rot.Weighted>
3.8796

> <Gold.Chemscore.Internal.Correction.Weighted>
   9.000000E+99

> <Gold.Protein.RotatedTorsions>
[ 6907 6896 6895 6894 ] final  114.05 input  -60.11 | X-H torsion
[ 7974 7965 7964 7962 ] final   42.80 input  175.53 | X-H torsion
[ 8008 7997 7996 7995 ] final   30.18 input   59.86 | X-H torsion
[ 10167 10162 10161 10158 ] final  108.62 input  -65.29 | X-H torsion
[ 10718 10713 10712 10709 ] final  -46.38 input   66.30 | X-H torsion
[ 10763 10752 10751 10750 ] final -165.12 input  -60.55 | X-H torsion
[ 11005 11000 10999 10996 ] final   60.79 input  -57.11 | X-H torsion

> <Gold.Protein.ActiveResidues>
 VAL166  LYS551  ARG553  GLY616  TRP617  ASP618  TYR619  PRO620  LYS621  CYS622 
 ASP623  PHE694  ASN695  SER759  ASP760  ASP761  ALA762  ILE779  LEU786  VAL792 
 PHE793  MET794  SER795  GLU796  ALA797  LYS798  CYS799  TRP800  GLU811  SER814 

> <Gold.Protein.RotatedAtoms>
  152.4825  133.8290  159.7092 H   0  0  0  0  0  0  0  0  0  0  0  0  # atno 6907 bound_to 6896
  150.8885  133.7265  159.2918 H   0  0  0  0  0  0  0  0  0  0  0  0  # atno 6908 bound_to 6896
  151.4745  135.1052  159.9813 H   0  0  0  0  0  0  0  0  0  0  0  0  # atno 6909 bound_to 6896
  146.0709  139.5259  142.9598 H   0  0  0  0  0  0  0  0  0  0  0  0  # atno 7974 bound_to 7965
  155.0863  140.3215  155.4586 H   0  0  0  0  0  0  0  0  0  0  0  0  # atno 8008 bound_to 7997
  156.2754  140.2086  156.5937 H   0  0  0  0  0  0  0  0  0  0  0  0  # atno 8009 bound_to 7997
  154.6938  140.0514  157.0377 H   0  0  0  0  0  0  0  0  0  0  0  0  # atno 8010 bound_to 7997
  139.6832  144.7116  151.1479 H   0  0  0  0  0  0  0  0  0  0  0  0  # atno 10167 bound_to 10162
  156.2188  130.4165  149.9019 H   0  0  0  0  0  0  0  0  0  0  0  0  # atno 10718 bound_to 10713
  154.6963  135.2980  154.9407 H   0  0  0  0  0  0  0  0  0  0  0  0  # atno 10763 bound_to 10752
  154.0354  135.6664  153.4788 H   0  0  0  0  0  0  0  0  0  0  0  0  # atno 10764 bound_to 10752
  153.0648  135.5094  154.8082 H   0  0  0  0  0  0  0  0  0  0  0  0  # atno 10765 bound_to 10752
  140.0206  134.6158  155.9645 H   0  0  0  0  0  0  0  0  0  0  0  0  # atno 11005 bound_to 11000
  145.6392  141.0288  143.1821 LP  0  0  0  0  0  0  0  0  0  0  0  0  # atno 17320 bound_to 7965
  144.7231  139.7963  143.7374 LP  0  0  0  0  0  0  0  0  0  0  0  0  # atno 17321 bound_to 7965
  140.7659  143.5668  150.9039 LP  0  0  0  0  0  0  0  0  0  0  0  0  # atno 17342 bound_to 10162
  139.9341  143.6458  152.3069 LP  0  0  0  0  0  0  0  0  0  0  0  0  # atno 17343 bound_to 10162
  156.6672  130.8806  151.3556 LP  0  0  0  0  0  0  0  0  0  0  0  0  # atno 17370 bound_to 10713
  157.7077  130.9404  150.0985 LP  0  0  0  0  0  0  0  0  0  0  0  0  # atno 17371 bound_to 10713
  141.1771  133.6541  156.4873 LP  0  0  0  0  0  0  0  0  0  0  0  0  # atno 17394 bound_to 11000
  140.4393  134.7030  157.4983 LP  0  0  0  0  0  0  0  0  0  0  0  0  # atno 17395 bound_to 11000

$$$$
