AV-unprocessed.smi:1554|AV-procd|sdf|6261|dock4
  -GOLD-   22720 6443D 1   1.00000     0.00000
 Structure written by MMmdl.
 49 51  0  0  0  0  0  0  0  0  3 V2000
  152.4912  143.2678  160.6903 C   0  0  0  0  0  0  0  0  0  0  0  0
  152.2112  142.3544  159.5091 C   0  0  0  0  0  0  0  0  0  0  0  0
  151.3061  142.7938  158.5166 C   0  0  0  0  0  0  0  0  0  0  0  0
  151.0694  141.9357  157.4493 C   0  0  0  0  0  0  0  0  0  0  0  0
  150.2471  142.0719  156.3287 N   0  3  0  0  0  0  0  0  0  0  0  0
  150.3465  140.9568  155.5529 C   0  0  0  0  0  0  0  0  0  0  0  0
  151.2161  140.1078  156.1659 N   0  0  0  0  0  0  0  0  0  0  0  0
  151.6806  138.7737  155.7629 C   0  0  0  0  0  0  0  0  0  0  0  0
  150.8218  138.1533  154.6432 C   0  0  1  0  0  0  0  0  0  0  0  0
  151.3891  136.9164  154.2577 O   0  0  0  0  0  0  0  0  0  0  0  0
  149.3698  137.9162  155.1037 C   0  0  0  0  0  0  0  0  0  0  0  0
  148.3773  138.1501  154.0195 N   0  3  1  0  0  0  0  0  0  0  0  0
  147.0265  137.6200  154.3269 C   0  0  0  0  0  0  0  0  0  0  0  0
  146.2696  138.5523  155.2895 C   0  0  0  0  0  0  0  0  0  0  0  0
  146.1910  139.8538  154.7213 O   0  0  0  0  0  0  0  0  0  0  0  0
  147.4723  140.4381  154.5147 C   0  0  2  0  0  0  0  0  0  0  0  0
  147.2665  141.8533  153.9637 C   0  0  0  0  0  0  0  0  0  0  0  0
  148.2867  139.5550  153.5437 C   0  0  0  0  0  0  0  0  0  0  0  0
  151.6971  140.6792  157.3487 C   0  0  0  0  0  0  0  0  0  0  0  0
  152.5940  140.2317  158.3154 C   0  0  0  0  0  0  0  0  0  0  0  0
  152.8481  141.0901  159.4089 C   0  0  0  0  0  0  0  0  0  0  0  0
  153.8216  140.6295  160.4805 C   0  0  0  0  0  0  0  0  0  0  0  0
  151.9020  144.1836  160.6351 H   0  0  0  0  0  0  0  0  0  0  0  0
  153.5443  143.5494  160.7142 H   0  0  0  0  0  0  0  0  0  0  0  0
  152.2436  142.7700  161.6282 H   0  0  0  0  0  0  0  0  0  0  0  0
  150.8192  143.7558  158.5855 H   0  0  0  0  0  0  0  0  0  0  0  0
  149.8270  140.7784  154.6221 H   0  0  0  0  0  0  0  0  0  0  0  0
  152.7175  138.8716  155.4380 H   0  0  0  0  0  0  0  0  0  0  0  0
  151.6930  138.1342  156.6465 H   0  0  0  0  0  0  0  0  0  0  0  0
  150.8420  138.8166  153.7797 H   0  0  0  0  0  0  0  0  0  0  0  0
  151.1112  136.7200  153.3758 H   0  0  0  0  0  0  0  0  0  0  0  0
  149.2873  136.8874  155.4579 H   0  0  0  0  0  0  0  0  0  0  0  0
  149.1394  138.5466  155.9624 H   0  0  0  0  0  0  0  0  0  0  0  0
  146.4692  137.5386  153.3928 H   0  0  0  0  0  0  0  0  0  0  0  0
  147.0899  136.6096  154.7322 H   0  0  0  0  0  0  0  0  0  0  0  0
  145.2583  138.1797  155.4529 H   0  0  0  0  0  0  0  0  0  0  0  0
  146.7539  138.5930  156.2663 H   0  0  0  0  0  0  0  0  0  0  0  0
  147.9858  140.5194  155.4736 H   0  0  0  0  0  0  0  0  0  0  0  0
  148.2213  142.3536  153.7999 H   0  0  0  0  0  0  0  0  0  0  0  0
  146.6876  142.4622  154.6586 H   0  0  0  0  0  0  0  0  0  0  0  0
  146.7318  141.8336  153.0135 H   0  0  0  0  0  0  0  0  0  0  0  0
  149.2752  139.9802  153.3764 H   0  0  0  0  0  0  0  0  0  0  0  0
  147.7953  139.5448  152.5696 H   0  0  0  0  0  0  0  0  0  0  0  0
  153.0785  139.2696  158.2387 H   0  0  0  0  0  0  0  0  0  0  0  0
  154.2500  139.6562  160.2394 H   0  0  0  0  0  0  0  0  0  0  0  0
  153.3173  140.5422  161.4431 H   0  0  0  0  0  0  0  0  0  0  0  0
  154.6437  141.3381  160.5820 H   0  0  0  0  0  0  0  0  0  0  0  0
  148.7155  137.6020  153.2407 H   0  0  0  0  0  0  0  0  0  0  0  0
  149.6615  142.8669  156.1061 H   0  0  0  0  0  0  0  0  0  0  0  0
  1  2  1  0  0  0  0
  1 23  1  0  0  0  0
  1 24  1  0  0  0  0
  1 25  1  0  0  0  0
  2 21  1  0  0  0  0
  2  3  2  0  0  0  0
  3  4  1  0  0  0  0
  3 26  1  0  0  0  0
  4 19  2  0  0  0  0
  4  5  1  0  0  0  0
  5  6  2  0  0  0  0
  5 49  1  0  0  0  0
  6  7  1  0  0  0  0
  6 27  1  0  0  0  0
  7  8  1  0  0  0  0
  7 19  1  0  0  0  0
  8  9  1  0  0  0  0
  8 28  1  0  0  0  0
  8 29  1  0  0  0  0
  9 10  1  0  0  0  0
  9 11  1  0  0  0  0
  9 30  1  0  0  0  0
 10 31  1  0  0  0  0
 11 12  1  0  0  0  0
 11 32  1  0  0  0  0
 11 33  1  0  0  0  0
 12 18  1  0  0  0  0
 12 13  1  0  0  0  0
 12 48  1  0  0  0  0
 13 14  1  0  0  0  0
 13 34  1  0  0  0  0
 13 35  1  0  0  0  0
 14 15  1  0  0  0  0
 14 36  1  0  0  0  0
 14 37  1  0  0  0  0
 15 16  1  0  0  0  0
 16 17  1  0  0  0  0
 16 18  1  0  0  0  0
 16 38  1  0  0  0  0
 17 39  1  0  0  0  0
 17 40  1  0  0  0  0
 17 41  1  0  0  0  0
 18 42  1  0  0  0  0
 18 43  1  0  0  0  0
 19 20  1  0  0  0  0
 20 21  2  0  0  0  0
 20 44  1  0  0  0  0
 21 22  1  0  0  0  0
 22 45  1  0  0  0  0
 22 46  1  0  0  0  0
 22 47  1  0  0  0  0
M  CHG  1   5   1
M  CHG  1  12   1
M  END
> <s_m_source_file>
AV-unprocessed.smi

> <i_m_source_file_index>
1554

> <i_lp_mmshare_version>
43012

> <i_f3d_flags>
0

> <s_epik_input>
W0NIM11jKFtjSF0xKWMoW0NIM10pW2NIXWMoYzEyKW4oW2NIXW4yKVtDSDJdW0NASF0oW09IXSlbQ0gyXU4zW0NIMl1bQ0gyXU9bQ0BASF0oW0NIM10pW0NIMl0z

> <s_epik_cmdline>
J2VwaWtfcHl0aG9uJywgJy1waCcsICc3LjAnLCAnLXRuJywgJzgnLCAnLW1hJywgJzIwMCcsICctbWV0YWxfYmluZGluZycsICctaW1hZScsICc8aW5maWxlLm1hZT4nLCAnLW9tYWUnLCAnPG91dGZpbGUubWFlPic=

> <r_epik_Ionization_Penalty>
1.8848

> <r_epik_Ionization_Penalty_Charging>
1.88479

> <r_epik_Ionization_Penalty_Neutral>
1.42224e-05

> <r_epik_State_Penalty>
1.94551

> <r_epik_Charging_Adjusted_Penalty>
3.8303

> <i_epik_Tot_Q>
2

> <i_epik_Tot_abs_Q>
2

> <r_epik_Metal_State_Penalty>
5.95849

> <b_epik_Metal_Only>
0

> <s_lp_Force_Field>
OPLS_2005

> <r_lp_Energy>
31.3767

> <b_lp_Chiralities_Consistent>
1

> <s_lp_Variant>
AV-unprocessed.smi:1554-22

> <Gold.Version>
5.8.1

> <Gold.Id.Protein>
6NUR|6NUR_protein|mol2

> <Gold.PLP.Fitness>
58.6103

> <Gold.PLP.PLP>
-42.0116

> <Gold.PLP.part.hbond>
-4.0000

> <Gold.PLP.part.metal>
0.0000

> <Gold.PLP.part.buried>
-1.5721

> <Gold.PLP.part.nonpolar>
-36.3914

> <Gold.PLP.part.repulsive>
0.1740

> <Gold.PLP.ligand.clash>
0.0000

> <Gold.PLP.ligand.torsion>
0.7137

> <Gold.PLP.Chemscore.Hbond>
6.0000

> <Gold.PLP.Chemscore.CHOScore>
0.0000

> <Gold.PLP.Chemscore.Metal>
0.0000

> <Gold.Chemscore.Hbonds>
donor molecule, donor type, donor heavy atom, donor atom, acceptor molecule, acceptor atom, score
      L1  H     5    49       P1  8028  1.85
      L1  H    10    31       P1  7949  1.00
      L1  H    12    48       P1  7948  2.00
      P1  H 10752 10764       L1    10  0.90

> <Gold.PLP.Chemscore.Internal.Correction>
0.0260

> <Gold.Rescore>
     Score         DG    S(hbond)    S(metal)    S(lipo)     H(rot)  DE(clash)    DE(int)     intcor
     21.50     -23.88       3.15        0.00     113.43       2.11       1.88       0.50       ----

> <Gold.Chemscore.Fitness>
21.4992

> <Gold.Chemscore.DG>
-23.8771

> <Gold.Chemscore.ZeroCoef>
-5.4800

> <Gold.Chemscore.Hbond>
3.1535

> <Gold.Chemscore.Metal>
0.0000

> <Gold.Chemscore.Lipo>
113.4329

> <Gold.Chemscore.Internal_Hbond>
0.0000

> <Gold.Chemscore.DEClash>
1.8810

> <Gold.Chemscore.DEInternal>
0.4968

> <Gold.Chemscore.Rot>
2.1122

> <Gold.Chemscore.Internal.Correction>
   9.000000E+99

> <Gold.Chemscore.Hbonds>
donor molecule, donor type, donor heavy atom, donor atom, acceptor molecule, acceptor atom, score
      L1  H     5    49       P1  8028  0.89
      L1  H    10    31       P1  7949  0.37
      L1  H    12    48       P1  7948  0.99
      P1  H 10752 10764       L1    10  0.17

> <Gold.Chemscore.Hbond.Weighted>
-10.5327

> <Gold.Chemscore.Metal.Weighted>
-0.0000

> <Gold.Chemscore.Lipo.Weighted>
-13.2716

> <Gold.Chemscore.Internal_Hbond.Weighted>
0.0000

> <Gold.Chemscore.DEClash.Weighted>
1.8810

> <Gold.Chemscore.DEInternal.Weighted>
0.4968

> <Gold.Chemscore.Rot.Weighted>
5.4073

> <Gold.Chemscore.Internal.Correction.Weighted>
   9.000000E+99

> <Gold.Protein.RotatedTorsions>
[ 6907 6896 6895 6894 ] final  155.50 input  -60.11 | X-H torsion
[ 7974 7965 7964 7962 ] final -113.70 input  175.53 | X-H torsion
[ 8008 7997 7996 7995 ] final   25.86 input   59.86 | X-H torsion
[ 10167 10162 10161 10158 ] final   79.84 input  -65.29 | X-H torsion
[ 10718 10713 10712 10709 ] final  132.82 input   66.30 | X-H torsion
[ 10763 10752 10751 10750 ] final  -73.95 input  -60.55 | X-H torsion
[ 11005 11000 10999 10996 ] final  -72.87 input  -57.11 | X-H torsion

> <Gold.Protein.ActiveResidues>
 VAL166  LYS551  ARG553  GLY616  TRP617  ASP618  TYR619  PRO620  LYS621  CYS622 
 ASP623  PHE694  ASN695  SER759  ASP760  ASP761  ALA762  ILE779  LEU786  VAL792 
 PHE793  MET794  SER795  GLU796  ALA797  LYS798  CYS799  TRP800  GLU811  SER814 

> <Gold.Protein.RotatedAtoms>
  152.0432  133.3986  159.4345 H   0  0  0  0  0  0  0  0  0  0  0  0  # atno 6907 bound_to 6896
  150.6874  134.3391  159.4869 H   0  0  0  0  0  0  0  0  0  0  0  0  # atno 6908 bound_to 6896
  152.1192  134.9217  160.0614 H   0  0  0  0  0  0  0  0  0  0  0  0  # atno 6909 bound_to 6896
  145.1289  140.8713  143.3769 H   0  0  0  0  0  0  0  0  0  0  0  0  # atno 7974 bound_to 7965
  155.0183  140.3144  155.4803 H   0  0  0  0  0  0  0  0  0  0  0  0  # atno 8008 bound_to 7997
  156.2897  140.2202  156.5242 H   0  0  0  0  0  0  0  0  0  0  0  0  # atno 8009 bound_to 7997
  154.7474  140.0469  157.0852 H   0  0  0  0  0  0  0  0  0  0  0  0  # atno 8010 bound_to 7997
  139.9560  144.5993  150.8116 H   0  0  0  0  0  0  0  0  0  0  0  0  # atno 10167 bound_to 10162
  157.4833  131.1087  150.9652 H   0  0  0  0  0  0  0  0  0  0  0  0  # atno 10718 bound_to 10713
  154.4665  135.5880  153.6292 H   0  0  0  0  0  0  0  0  0  0  0  0  # atno 10763 bound_to 10752
  152.9829  135.6056  154.3421 H   0  0  0  0  0  0  0  0  0  0  0  0  # atno 10764 bound_to 10752
  154.3298  135.2842  155.2456 H   0  0  0  0  0  0  0  0  0  0  0  0  # atno 10765 bound_to 10752
  141.1615  133.6860  156.7125 H   0  0  0  0  0  0  0  0  0  0  0  0  # atno 11005 bound_to 11000
  145.0657  139.3070  143.5858 LP  0  0  0  0  0  0  0  0  0  0  0  0  # atno 17320 bound_to 7965
  146.3515  140.0114  142.8667 LP  0  0  0  0  0  0  0  0  0  0  0  0  # atno 17321 bound_to 7965
  140.7568  143.3073  151.2930 LP  0  0  0  0  0  0  0  0  0  0  0  0  # atno 17342 bound_to 10162
  139.6591  144.0223  152.2680 LP  0  0  0  0  0  0  0  0  0  0  0  0  # atno 17343 bound_to 10162
  157.0378  130.5737  149.5352 LP  0  0  0  0  0  0  0  0  0  0  0  0  # atno 17370 bound_to 10713
  156.0133  130.5226  150.8058 LP  0  0  0  0  0  0  0  0  0  0  0  0  # atno 17371 bound_to 10713
  140.2877  134.8266  157.3989 LP  0  0  0  0  0  0  0  0  0  0  0  0  # atno 17394 bound_to 11000
  140.1375  134.5014  155.8057 LP  0  0  0  0  0  0  0  0  0  0  0  0  # atno 17395 bound_to 11000

$$$$
