AV-unprocessed.smi:2193|AV-procd|sdf|8899|dock5
  -GOLD-   2272012113D 1   1.00000     0.00000
 Structure written by MMmdl.
 40 42  0  0  0  0  0  0  0  0  1 V2000
  153.1056  139.0980  156.1709 O   0  0  0  0  0  0  0  0  0  0  0  0
  152.7771  139.1123  157.5456 C   0  0  0  0  0  0  0  0  0  0  0  0
  152.4016  140.4694  158.0712 C   0  0  0  0  0  0  0  0  0  0  0  0
  153.2022  141.1947  158.8563 N   0  0  0  0  0  0  0  0  0  0  0  0
  152.4641  142.3415  159.0720 C   0  0  0  0  0  0  0  0  0  0  0  0
  152.7656  143.4997  159.8239 C   0  0  0  0  0  0  0  0  0  0  0  0
  151.8419  144.5628  159.8989 C   0  0  0  0  0  0  0  0  0  0  0  0
  150.6061  144.4827  159.2250 C   0  0  0  0  0  0  0  0  0  0  0  0
  150.2860  143.3376  158.4704 C   0  0  0  0  0  0  0  0  0  0  0  0
  151.2118  142.2793  158.3983 C   0  0  0  0  0  0  0  0  0  0  0  0
  151.2113  141.0421  157.7600 N   0  0  0  0  0  0  0  0  0  0  0  0
  150.1443  140.4985  156.9296 C   0  0  0  0  0  0  0  0  0  0  0  0
  149.9505  141.2809  155.6140 C   0  0  1  0  0  0  0  0  0  0  0  0
  150.9979  140.9834  154.7120 O   0  0  0  0  0  0  0  0  0  0  0  0
  148.6153  140.9565  154.9287 C   0  0  0  0  0  0  0  0  0  0  0  0
  147.6066  140.8193  155.9209 O   0  0  0  0  0  0  0  0  0  0  0  0
  146.5692  141.7268  155.9268 C   0  0  0  0  0  0  0  0  0  0  0  0
  145.7565  141.7615  157.0790 C   0  0  0  0  0  0  0  0  0  0  0  0
  144.6763  142.6601  157.1727 C   0  0  0  0  0  0  0  0  0  0  0  0
  144.3974  143.5378  156.1090 C   0  0  0  0  0  0  0  0  0  0  0  0
  143.3607  144.4041  156.1977 F   0  0  0  0  0  0  0  0  0  0  0  0
  145.1988  143.5133  154.9528 C   0  0  0  0  0  0  0  0  0  0  0  0
  146.2789  142.6139  154.8588 C   0  0  0  0  0  0  0  0  0  0  0  0
  153.0632  138.2066  155.8608 H   0  0  0  0  0  0  0  0  0  0  0  0
  151.9465  138.4253  157.7089 H   0  0  0  0  0  0  0  0  0  0  0  0
  153.6317  138.7318  158.1041 H   0  0  0  0  0  0  0  0  0  0  0  0
  153.7094  143.5701  160.3440 H   0  0  0  0  0  0  0  0  0  0  0  0
  152.0827  145.4435  160.4764 H   0  0  0  0  0  0  0  0  0  0  0  0
  149.9037  145.3008  159.2883 H   0  0  0  0  0  0  0  0  0  0  0  0
  149.3397  143.2736  157.9546 H   0  0  0  0  0  0  0  0  0  0  0  0
  150.3702  139.4529  156.7171 H   0  0  0  0  0  0  0  0  0  0  0  0
  149.2200  140.4908  157.5076 H   0  0  0  0  0  0  0  0  0  0  0  0
  149.9909  142.3520  155.8124 H   0  0  0  0  0  0  0  0  0  0  0  0
  151.0844  140.0445  154.6500 H   0  0  0  0  0  0  0  0  0  0  0  0
  148.3476  141.7685  154.2503 H   0  0  0  0  0  0  0  0  0  0  0  0
  148.7067  140.0406  154.3420 H   0  0  0  0  0  0  0  0  0  0  0  0
  145.9633  141.0916  157.9009 H   0  0  0  0  0  0  0  0  0  0  0  0
  144.0625  142.6763  158.0611 H   0  0  0  0  0  0  0  0  0  0  0  0
  144.9860  144.1865  154.1355 H   0  0  0  0  0  0  0  0  0  0  0  0
  146.8707  142.6263  153.9565 H   0  0  0  0  0  0  0  0  0  0  0  0
  1  2  1  0  0  0  0
  1 24  1  0  0  0  0
  2  3  1  0  0  0  0
  2 25  1  0  0  0  0
  2 26  1  0  0  0  0
  3 11  1  0  0  0  0
  3  4  2  0  0  0  0
  4  5  1  0  0  0  0
  5 10  2  0  0  0  0
  5  6  1  0  0  0  0
  6  7  2  0  0  0  0
  6 27  1  0  0  0  0
  7  8  1  0  0  0  0
  7 28  1  0  0  0  0
  8  9  2  0  0  0  0
  8 29  1  0  0  0  0
  9 10  1  0  0  0  0
  9 30  1  0  0  0  0
 10 11  1  0  0  0  0
 11 12  1  0  0  0  0
 12 13  1  0  0  0  0
 12 31  1  0  0  0  0
 12 32  1  0  0  0  0
 13 14  1  0  0  0  0
 13 15  1  0  0  0  0
 13 33  1  0  0  0  0
 14 34  1  0  0  0  0
 15 16  1  0  0  0  0
 15 35  1  0  0  0  0
 15 36  1  0  0  0  0
 16 17  1  0  0  0  0
 17 23  1  0  0  0  0
 17 18  2  0  0  0  0
 18 19  1  0  0  0  0
 18 37  1  0  0  0  0
 19 20  2  0  0  0  0
 19 38  1  0  0  0  0
 20 21  1  0  0  0  0
 20 22  1  0  0  0  0
 22 23  2  0  0  0  0
 22 39  1  0  0  0  0
 23 40  1  0  0  0  0
M  END
> <s_m_source_file>
AV-unprocessed.smi

> <i_m_source_file_index>
2193

> <i_lp_mmshare_version>
43012

> <i_f3d_flags>
0

> <s_epik_input>
W2NIXTFbY0hdW2NIXVtjSF1jKGMxMiluKGMobjIpW0NIMl1bT0hdKVtDSDJdW0NASF0oW09IXSlbQ0gyXU9jM1tjSF1bY0hdYyhGKVtjSF1bY0hdMw==

> <s_epik_cmdline>
J2VwaWtfcHl0aG9uJywgJy1waCcsICc3LjAnLCAnLXRuJywgJzgnLCAnLW1hJywgJzIwMCcsICctbWV0YWxfYmluZGluZycsICctaW1hZScsICc8aW5maWxlLm1hZT4nLCAnLW9tYWUnLCAnPG91dGZpbGUubWFlPic=

> <r_lp_tautomer_probability>
1

> <r_epik_Ionization_Penalty>
0.0549747

> <r_epik_Ionization_Penalty_Charging>
0

> <r_epik_Ionization_Penalty_Neutral>
0.0549747

> <r_epik_State_Penalty>
0.0472568

> <r_epik_Charging_Adjusted_Penalty>
0.0472568

> <i_epik_Tot_Q>
0

> <i_epik_Tot_abs_Q>
0

> <r_epik_Metal_State_Penalty>
4.91905e-05

> <b_epik_Metal_Only>
0

> <s_lp_Force_Field>
OPLS_2005

> <r_lp_Energy>
14.6926

> <b_lp_Chiralities_Consistent>
1

> <s_lp_Variant>
AV-unprocessed.smi:2193-2

> <Gold.Version>
5.8.1

> <Gold.Id.Protein>
6NUR|6NUR_protein|mol2

> <Gold.PLP.Fitness>
53.3165

> <Gold.PLP.PLP>
-49.3778

> <Gold.PLP.part.hbond>
-2.0000

> <Gold.PLP.part.metal>
0.0000

> <Gold.PLP.part.buried>
-7.4685

> <Gold.PLP.part.nonpolar>
-40.2134

> <Gold.PLP.part.repulsive>
0.0481

> <Gold.PLP.ligand.clash>
0.0000

> <Gold.PLP.ligand.torsion>
1.0371

> <Gold.PLP.Chemscore.Hbond>
1.9600

> <Gold.PLP.Chemscore.CHOScore>
0.0000

> <Gold.PLP.Chemscore.Metal>
0.0000

> <Gold.Chemscore.Hbonds>
donor molecule, donor type, donor heavy atom, donor atom, acceptor molecule, acceptor atom, score
      P1  H  7989  7998       L1    14  0.02
      P1  H  7997  8010       L1     1  0.30

> <Gold.PLP.Chemscore.Internal.Correction>
0.1329

> <Gold.Rescore>
     Score         DG    S(hbond)    S(metal)    S(lipo)     H(rot)  DE(clash)    DE(int)     intcor
     14.42     -15.67       1.52        0.00     114.25       3.22       0.07       1.19       ----

> <Gold.Chemscore.Fitness>
14.4187

> <Gold.Chemscore.DG>
-15.6714

> <Gold.Chemscore.ZeroCoef>
-5.4800

> <Gold.Chemscore.Hbond>
1.5168

> <Gold.Chemscore.Metal>
0.0000

> <Gold.Chemscore.Lipo>
114.2526

> <Gold.Chemscore.Internal_Hbond>
0.0000

> <Gold.Chemscore.DEClash>
0.0661

> <Gold.Chemscore.DEInternal>
1.1866

> <Gold.Chemscore.Rot>
3.2196

> <Gold.Chemscore.Internal.Correction>
   9.000000E+99

> <Gold.Chemscore.Hbond.Weighted>
-5.0660

> <Gold.Chemscore.Metal.Weighted>
-0.0000

> <Gold.Chemscore.Lipo.Weighted>
-13.3676

> <Gold.Chemscore.Internal_Hbond.Weighted>
0.0000

> <Gold.Chemscore.DEClash.Weighted>
0.0661

> <Gold.Chemscore.DEInternal.Weighted>
1.1866

> <Gold.Chemscore.Rot.Weighted>
8.2422

> <Gold.Chemscore.Internal.Correction.Weighted>
   9.000000E+99

> <Gold.Protein.RotatedTorsions>
[ 6907 6896 6895 6894 ] final  134.02 input  -60.11 | X-H torsion
[ 7974 7965 7964 7962 ] final  -36.86 input  175.53 | X-H torsion
[ 8008 7997 7996 7995 ] final   61.74 input   59.86 | X-H torsion
[ 10167 10162 10161 10158 ] final  153.53 input  -65.29 | X-H torsion
[ 10718 10713 10712 10709 ] final  -27.06 input   66.30 | X-H torsion
[ 10763 10752 10751 10750 ] final  -52.24 input  -60.55 | X-H torsion
[ 11005 11000 10999 10996 ] final   12.34 input  -57.11 | X-H torsion

> <Gold.Protein.ActiveResidues>
 VAL166  LYS551  ARG553  GLY616  TRP617  ASP618  TYR619  PRO620  LYS621  CYS622 
 ASP623  PHE694  ASN695  SER759  ASP760  ASP761  ALA762  ILE779  LEU786  VAL792 
 PHE793  MET794  SER795  GLU796  ALA797  LYS798  CYS799  TRP800  GLU811  SER814 

> <Gold.Protein.RotatedAtoms>
  152.3158  133.5801  159.5710 H   0  0  0  0  0  0  0  0  0  0  0  0  # atno 6907 bound_to 6896
  150.7346  134.0085  159.3670 H   0  0  0  0  0  0  0  0  0  0  0  0  # atno 6908 bound_to 6896
  151.7973  135.0719  160.0446 H   0  0  0  0  0  0  0  0  0  0  0  0  # atno 6909 bound_to 6896
  146.0625  140.6328  142.8990 H   0  0  0  0  0  0  0  0  0  0  0  0  # atno 7974 bound_to 7965
  155.6032  140.3494  155.4600 H   0  0  0  0  0  0  0  0  0  0  0  0  # atno 8008 bound_to 7997
  156.0212  140.1254  157.0380 H   0  0  0  0  0  0  0  0  0  0  0  0  # atno 8009 bound_to 7997
  154.4316  140.1062  156.5952 H   0  0  0  0  0  0  0  0  0  0  0  0  # atno 8010 bound_to 7997
  139.4827  144.5265  151.7792 H   0  0  0  0  0  0  0  0  0  0  0  0  # atno 10167 bound_to 10162
  156.4431  130.4468  149.7040 H   0  0  0  0  0  0  0  0  0  0  0  0  # atno 10718 bound_to 10713
  154.1395  135.6507  153.4939 H   0  0  0  0  0  0  0  0  0  0  0  0  # atno 10763 bound_to 10752
  153.0170  135.5312  154.6919 H   0  0  0  0  0  0  0  0  0  0  0  0  # atno 10764 bound_to 10752
  154.6176  135.2961  155.0333 H   0  0  0  0  0  0  0  0  0  0  0  0  # atno 10765 bound_to 10752
  140.4931  134.0820  155.7776 H   0  0  0  0  0  0  0  0  0  0  0  0  # atno 11005 bound_to 11000
  144.7183  140.4286  143.7027 LP  0  0  0  0  0  0  0  0  0  0  0  0  # atno 17320 bound_to 7965
  145.6535  139.1569  143.2848 LP  0  0  0  0  0  0  0  0  0  0  0  0  # atno 17321 bound_to 7965
  140.4785  144.1483  150.5929 LP  0  0  0  0  0  0  0  0  0  0  0  0  # atno 17342 bound_to 10162
  140.4303  143.2571  151.9603 LP  0  0  0  0  0  0  0  0  0  0  0  0  # atno 17343 bound_to 10162
  156.3896  130.7620  151.2620 LP  0  0  0  0  0  0  0  0  0  0  0  0  # atno 17370 bound_to 10713
  157.7505  131.0271  150.3993 LP  0  0  0  0  0  0  0  0  0  0  0  0  # atno 17371 bound_to 10713
  141.1474  133.9031  157.2183 LP  0  0  0  0  0  0  0  0  0  0  0  0  # atno 17394 bound_to 11000
  139.9757  135.0114  156.9625 LP  0  0  0  0  0  0  0  0  0  0  0  0  # atno 17395 bound_to 11000

$$$$
