AV-unprocessed.smi:3031|AV-procd|sdf|11544|dock1
  -GOLD-   2272016493D 1   1.00000     0.00000
 Structure written by MMmdl.
 47 48  0  0  0  0  0  0  0  0  2 V2000
  151.6668  142.5411  158.8439 C   0  0  0  0  0  0  0  0  0  0  0  0
  151.1483  141.5948  157.7999 C   0  0  0  0  0  0  0  0  0  0  0  0
  151.3419  140.1858  157.7274 C   0  0  0  0  0  0  0  0  0  0  0  0
  150.7582  139.6406  156.6726 N   0  0  0  0  0  0  0  0  0  0  0  0
  150.1708  140.6771  156.0388 N   0  0  0  0  0  0  0  0  0  0  0  0
  149.4349  140.4462  154.8096 C   0  0  0  0  0  0  0  0  0  0  0  0
  149.3931  138.9582  154.3960 C   0  0  1  0  0  0  0  0  0  0  0  0
  148.7172  138.1160  155.4864 C   0  0  0  0  0  0  0  0  0  0  0  0
  148.6667  138.7764  153.1183 N   0  3  0  0  0  0  0  0  0  0  0  0
  147.2163  139.0643  153.1663 C   0  0  0  0  0  0  0  0  0  0  0  0
  146.4508  138.2241  152.1309 C   0  0  1  0  0  0  0  0  0  0  0  0
  147.2923  138.0719  151.0030 O   0  0  0  0  0  0  0  0  0  0  0  0
  146.0940  136.8226  152.6720 C   0  0  0  0  0  0  0  0  0  0  0  0
  145.1823  136.0444  151.8339 N   0  0  0  0  0  0  0  0  0  0  0  0
  144.5267  134.9955  152.6087 C   0  0  0  0  0  0  0  0  0  0  0  0
  143.5589  134.1634  151.7499 C   0  0  0  0  0  0  0  0  0  0  0  0
  144.2630  133.6069  150.6447 O   0  0  0  0  0  0  0  0  0  0  0  0
  144.8806  134.5995  149.8322 C   0  0  0  0  0  0  0  0  0  0  0  0
  145.8501  135.4372  150.6844 C   0  0  0  0  0  0  0  0  0  0  0  0
  150.3828  141.8675  156.7017 C   0  0  0  0  0  0  0  0  0  0  0  0
  151.2883  142.2914  159.8351 H   0  0  0  0  0  0  0  0  0  0  0  0
  151.3764  143.5719  158.6396 H   0  0  0  0  0  0  0  0  0  0  0  0
  152.7553  142.5195  158.9004 H   0  0  0  0  0  0  0  0  0  0  0  0
  151.8900  139.5476  158.4048 H   0  0  0  0  0  0  0  0  0  0  0  0
  148.4215  140.8246  154.9514 H   0  0  0  0  0  0  0  0  0  0  0  0
  149.8810  141.0499  154.0178 H   0  0  0  0  0  0  0  0  0  0  0  0
  150.4116  138.5823  154.2847 H   0  0  0  0  0  0  0  0  0  0  0  0
  149.2484  138.2029  156.4348 H   0  0  0  0  0  0  0  0  0  0  0  0
  148.7020  137.0598  155.2159 H   0  0  0  0  0  0  0  0  0  0  0  0
  147.6868  138.4323  155.6533 H   0  0  0  0  0  0  0  0  0  0  0  0
  149.0722  139.3988  152.4339 H   0  0  0  0  0  0  0  0  0  0  0  0
  146.8130  138.8840  154.1619 H   0  0  0  0  0  0  0  0  0  0  0  0
  147.0805  140.1270  152.9619 H   0  0  0  0  0  0  0  0  0  0  0  0
  145.5433  138.7557  151.8401 H   0  0  0  0  0  0  0  0  0  0  0  0
  147.8826  137.3505  151.1610 H   0  0  0  0  0  0  0  0  0  0  0  0
  146.9995  136.2516  152.8854 H   0  0  0  0  0  0  0  0  0  0  0  0
  145.6081  136.9593  153.6390 H   0  0  0  0  0  0  0  0  0  0  0  0
  145.2769  134.3346  153.0456 H   0  0  0  0  0  0  0  0  0  0  0  0
  143.9781  135.4370  153.4414 H   0  0  0  0  0  0  0  0  0  0  0  0
  143.1261  133.3557  152.3403 H   0  0  0  0  0  0  0  0  0  0  0  0
  142.7319  134.7788  151.3922 H   0  0  0  0  0  0  0  0  0  0  0  0
  145.4160  134.1118  149.0177 H   0  0  0  0  0  0  0  0  0  0  0  0
  144.1178  135.2344  149.3794 H   0  0  0  0  0  0  0  0  0  0  0  0
  146.2899  136.2085  150.0528 H   0  0  0  0  0  0  0  0  0  0  0  0
  146.6712  134.8045  151.0249 H   0  0  0  0  0  0  0  0  0  0  0  0
  149.9842  142.8026  156.3360 H   0  0  0  0  0  0  0  0  0  0  0  0
  148.8030  137.8263  152.8032 H   0  0  0  0  0  0  0  0  0  0  0  0
  1  2  1  0  0  0  0
  1 21  1  0  0  0  0
  1 22  1  0  0  0  0
  1 23  1  0  0  0  0
  2 20  2  0  0  0  0
  2  3  1  0  0  0  0
  3  4  2  0  0  0  0
  3 24  1  0  0  0  0
  4  5  1  0  0  0  0
  5  6  1  0  0  0  0
  5 20  1  0  0  0  0
  6  7  1  0  0  0  0
  6 25  1  0  0  0  0
  6 26  1  0  0  0  0
  7  8  1  0  0  0  0
  7  9  1  0  0  0  0
  7 27  1  0  0  0  0
  8 28  1  0  0  0  0
  8 29  1  0  0  0  0
  8 30  1  0  0  0  0
  9 10  1  0  0  0  0
  9 31  1  0  0  0  0
  9 47  1  0  0  0  0
 10 11  1  0  0  0  0
 10 32  1  0  0  0  0
 10 33  1  0  0  0  0
 11 12  1  0  0  0  0
 11 13  1  0  0  0  0
 11 34  1  0  0  0  0
 12 35  1  0  0  0  0
 13 14  1  0  0  0  0
 13 36  1  0  0  0  0
 13 37  1  0  0  0  0
 14 19  1  0  0  0  0
 14 15  1  0  0  0  0
 15 16  1  0  0  0  0
 15 38  1  0  0  0  0
 15 39  1  0  0  0  0
 16 17  1  0  0  0  0
 16 40  1  0  0  0  0
 16 41  1  0  0  0  0
 17 18  1  0  0  0  0
 18 19  1  0  0  0  0
 18 42  1  0  0  0  0
 18 43  1  0  0  0  0
 19 44  1  0  0  0  0
 19 45  1  0  0  0  0
 20 46  1  0  0  0  0
M  CHG  1   9   1
M  END
> <s_m_source_file>
AV-unprocessed.smi

> <i_m_source_file_index>
3031

> <i_lp_mmshare_version>
43012

> <i_f3d_flags>
0

> <s_epik_input>
W0NIM11jMVtjSF1ubihbY0hdMSlbQ0gyXVtDQEhdKFtDSDNdKVtOSF1bQ0gyXVtDQEhdKFtPSF0pW0NIMl1OMltDSDJdW0NIMl1PW0NIMl1bQ0gyXTI=

> <s_epik_cmdline>
J2VwaWtfcHl0aG9uJywgJy1waCcsICc3LjAnLCAnLXRuJywgJzgnLCAnLW1hJywgJzIwMCcsICctbWV0YWxfYmluZGluZycsICctaW1hZScsICc8aW5maWxlLm1hZT4nLCAnLW9tYWUnLCAnPG91dGZpbGUubWFlPic=

> <r_lp_tautomer_probability>
1

> <r_epik_Ionization_Penalty>
0.108564

> <r_epik_Ionization_Penalty_Charging>
0.01811

> <r_epik_Ionization_Penalty_Neutral>
0.0904541

> <r_epik_State_Penalty>
0.141043

> <r_epik_Charging_Adjusted_Penalty>
0.159153

> <i_epik_Tot_Q>
1

> <i_epik_Tot_abs_Q>
1

> <r_epik_Metal_State_Penalty>
0.141052

> <b_epik_Metal_Only>
0

> <s_lp_Force_Field>
OPLS_2005

> <r_lp_Energy>
31.0841

> <b_lp_Chiralities_Consistent>
1

> <s_lp_Variant>
AV-unprocessed.smi:3031-4

> <Gold.Version>
5.8.1

> <Gold.Id.Protein>
6NUR|6NUR_protein|mol2

> <Gold.PLP.Fitness>
51.7529

> <Gold.PLP.PLP>
-37.8050

> <Gold.PLP.part.hbond>
-4.7734

> <Gold.PLP.part.metal>
0.0000

> <Gold.PLP.part.buried>
-6.2929

> <Gold.PLP.part.nonpolar>
-29.0508

> <Gold.PLP.part.repulsive>
0.4254

> <Gold.PLP.ligand.clash>
0.0000

> <Gold.PLP.ligand.torsion>
0.7202

> <Gold.PLP.Chemscore.Hbond>
3.9913

> <Gold.PLP.Chemscore.CHOScore>
1.0000

> <Gold.PLP.Chemscore.Metal>
0.0000

> <Gold.Chemscore.Hbonds>
donor molecule, donor type, donor heavy atom, donor atom, acceptor molecule, acceptor atom, score
      L1  H     9    31       P1  7957  0.96
      L1  H     9    47       P1  7948  2.00
      L1  H    12    35       P1  7948  1.00
      L1  C    20    46       P1  8028  1.00

> <Gold.PLP.Chemscore.Internal.Correction>
0.4146

> <Gold.Rescore>
     Score         DG    S(hbond)    S(metal)    S(lipo)     H(rot)  DE(clash)    DE(int)     intcor
     17.27     -18.46       2.87        0.00      86.48       2.63       0.02       1.17       ----

> <Gold.Chemscore.Fitness>
17.2735

> <Gold.Chemscore.DG>
-18.4562

> <Gold.Chemscore.ZeroCoef>
-5.4800

> <Gold.Chemscore.Hbond>
2.8691

> <Gold.Chemscore.Metal>
0.0000

> <Gold.Chemscore.Lipo>
86.4843

> <Gold.Chemscore.Internal_Hbond>
0.0000

> <Gold.Chemscore.DEClash>
0.0170

> <Gold.Chemscore.DEInternal>
1.1657

> <Gold.Chemscore.Rot>
2.6270

> <Gold.Chemscore.Internal.Correction>
   9.000000E+99

> <Gold.Chemscore.Hbonds>
donor molecule, donor type, donor heavy atom, donor atom, acceptor molecule, acceptor atom, score
      L1  H     9    31       P1  7957  0.91
      L1  H     9    47       P1  7948  1.00
      L1  H    12    35       P1  7948  0.99

> <Gold.Chemscore.Hbond.Weighted>
-9.5826

> <Gold.Chemscore.Metal.Weighted>
-0.0000

> <Gold.Chemscore.Lipo.Weighted>
-10.1187

> <Gold.Chemscore.Internal_Hbond.Weighted>
0.0000

> <Gold.Chemscore.DEClash.Weighted>
0.0170

> <Gold.Chemscore.DEInternal.Weighted>
1.1657

> <Gold.Chemscore.Rot.Weighted>
6.7251

> <Gold.Chemscore.Internal.Correction.Weighted>
   9.000000E+99

> <Gold.Protein.RotatedTorsions>
[ 6907 6896 6895 6894 ] final  -47.58 input  -60.11 | X-H torsion
[ 7974 7965 7964 7962 ] final  169.55 input  175.53 | X-H torsion
[ 8008 7997 7996 7995 ] final   81.51 input   59.86 | X-H torsion
[ 10167 10162 10161 10158 ] final  130.68 input  -65.29 | X-H torsion
[ 10718 10713 10712 10709 ] final   42.96 input   66.30 | X-H torsion
[ 10763 10752 10751 10750 ] final   22.64 input  -60.55 | X-H torsion
[ 11005 11000 10999 10996 ] final -126.46 input  -57.11 | X-H torsion

> <Gold.Protein.ActiveResidues>
 VAL166  LYS551  ARG553  GLY616  TRP617  ASP618  TYR619  PRO620  LYS621  CYS622 
 ASP623  PHE694  ASN695  SER759  ASP760  ASP761  ALA762  ILE779  LEU786  VAL792 
 PHE793  MET794  SER795  GLU796  ALA797  LYS798  CYS799  TRP800  GLU811  SER814 

> <Gold.Protein.RotatedAtoms>
  150.8993  134.8404  159.7348 H   0  0  0  0  0  0  0  0  0  0  0  0  # atno 6907 bound_to 6896
  152.4883  134.4527  159.9589 H   0  0  0  0  0  0  0  0  0  0  0  0  # atno 6908 bound_to 6896
  151.4581  133.3561  159.2840 H   0  0  0  0  0  0  0  0  0  0  0  0  # atno 6909 bound_to 6896
  144.7351  139.9070  143.6413 H   0  0  0  0  0  0  0  0  0  0  0  0  # atno 7974 bound_to 7965
  155.8981  140.3435  155.6006 H   0  0  0  0  0  0  0  0  0  0  0  0  # atno 8008 bound_to 7997
  155.7532  140.0823  157.2210 H   0  0  0  0  0  0  0  0  0  0  0  0  # atno 8009 bound_to 7997
  154.4040  140.1549  156.2735 H   0  0  0  0  0  0  0  0  0  0  0  0  # atno 8010 bound_to 7997
  139.5419  144.6738  151.4598 H   0  0  0  0  0  0  0  0  0  0  0  0  # atno 10167 bound_to 10162
  157.4106  130.7912  149.7427 H   0  0  0  0  0  0  0  0  0  0  0  0  # atno 10718 bound_to 10713
  153.0900  135.6644  153.9873 H   0  0  0  0  0  0  0  0  0  0  0  0  # atno 10763 bound_to 10752
  153.9472  135.2987  155.3441 H   0  0  0  0  0  0  0  0  0  0  0  0  # atno 10764 bound_to 10752
  154.7313  135.5121  153.9042 H   0  0  0  0  0  0  0  0  0  0  0  0  # atno 10765 bound_to 10752
  140.9679  134.0846  157.3900 H   0  0  0  0  0  0  0  0  0  0  0  0  # atno 11005 bound_to 11000
  146.1029  139.4026  143.0335 LP  0  0  0  0  0  0  0  0  0  0  0  0  # atno 17320 bound_to 7965
  145.7553  140.9956  143.1229 LP  0  0  0  0  0  0  0  0  0  0  0  0  # atno 17321 bound_to 7965
  140.6652  143.8413  150.6933 LP  0  0  0  0  0  0  0  0  0  0  0  0  # atno 17342 bound_to 10162
  140.1820  143.4107  152.1926 LP  0  0  0  0  0  0  0  0  0  0  0  0  # atno 17343 bound_to 10162
  155.9849  130.3987  150.3286 LP  0  0  0  0  0  0  0  0  0  0  0  0  # atno 17370 bound_to 10713
  157.1423  131.0300  151.2922 LP  0  0  0  0  0  0  0  0  0  0  0  0  # atno 17371 bound_to 10713
  139.8901  135.0110  156.6718 LP  0  0  0  0  0  0  0  0  0  0  0  0  # atno 17394 bound_to 11000
  140.7372  133.9009  155.8252 LP  0  0  0  0  0  0  0  0  0  0  0  0  # atno 17395 bound_to 11000

$$$$
