AV-unprocessed.smi:82|AV-procd|sdf|799|dock2
  -GOLD-   2262017183D 1   1.00000     0.00000
 Structure written by MMmdl.
 58 61  0  0  0  0  0  0  0  0  1 V2000
  148.3415  145.2500  160.9657 C   0  0  0  0  0  0  0  0  0  0  0  0
  149.2913  144.3021  160.5106 O   0  0  0  0  0  0  0  0  0  0  0  0
  150.6264  144.7562  160.6566 C   0  0  0  0  0  0  0  0  0  0  0  0
  151.3934  144.4489  159.3599 C   0  0  0  0  0  0  0  0  0  0  0  0
  151.1714  143.1109  158.7948 N   0  0  0  0  0  0  0  0  0  0  0  0
  150.8278  143.2008  157.3698 C   0  0  0  0  0  0  0  0  0  0  0  0
  150.5530  141.8308  156.7344 C   0  0  0  0  0  0  0  0  0  0  0  0
  151.7123  140.9631  156.9156 N   0  0  0  0  0  0  0  0  0  0  0  0
  151.7662  139.8094  156.2023 C   0  0  0  0  0  0  0  0  0  0  0  0
  152.8697  139.5172  155.4624 N   0  0  0  0  0  0  0  0  0  0  0  0
  152.9250  138.3898  154.7474 C   0  0  0  0  0  0  0  0  0  0  0  0
  152.0087  137.4265  154.6365 N   0  0  0  0  0  0  0  0  0  0  0  0
  150.9046  137.7052  155.3870 C   0  0  0  0  0  0  0  0  0  0  0  0
  150.7008  138.8651  156.1873 C   0  0  0  0  0  0  0  0  0  0  0  0
  149.4556  138.8012  156.8018 N   0  0  0  0  0  0  0  0  0  0  0  0
  148.9465  137.6776  156.3764 C   0  0  0  0  0  0  0  0  0  0  0  0
  149.7613  136.9413  155.5465 N   0  0  0  0  0  0  0  0  0  0  0  0
  149.4382  135.6965  154.9135 C   0  0  0  0  0  0  0  0  0  0  0  0
  148.4766  134.7028  155.5681 C   0  0  0  0  0  0  0  0  0  0  0  0
  149.2682  133.5335  154.9390 C   0  0  0  0  0  0  0  0  0  0  0  0
  149.5195  132.3162  155.8457 C   0  0  0  0  0  0  0  0  0  0  0  0
  150.1286  132.6839  157.0661 O   0  0  0  0  0  0  0  0  0  0  0  0
  148.7950  133.0478  153.5524 C   0  0  0  0  0  0  0  0  0  0  0  0
  148.0033  134.0114  152.8887 O   0  0  0  0  0  0  0  0  0  0  0  0
  150.4399  134.5395  154.8813 C   0  0  0  0  0  0  0  0  0  0  0  0
  152.1073  140.8427  158.3157 C   0  0  0  0  0  0  0  0  0  0  0  0
  152.3513  142.2330  158.9470 C   0  0  2  0  0  0  0  0  0  0  0  0
  152.7970  142.0131  160.4067 C   0  0  0  0  0  0  0  0  0  0  0  0
  147.3347  144.8585  160.8217 H   0  0  0  0  0  0  0  0  0  0  0  0
  148.4209  146.1856  160.4108 H   0  0  0  0  0  0  0  0  0  0  0  0
  148.4721  145.4607  162.0280 H   0  0  0  0  0  0  0  0  0  0  0  0
  150.6341  145.8300  160.8509 H   0  0  0  0  0  0  0  0  0  0  0  0
  151.0828  144.2572  161.5119 H   0  0  0  0  0  0  0  0  0  0  0  0
  151.1691  145.2112  158.6124 H   0  0  0  0  0  0  0  0  0  0  0  0
  152.4470  144.5677  159.6058 H   0  0  0  0  0  0  0  0  0  0  0  0
  149.9355  143.8097  157.2324 H   0  0  0  0  0  0  0  0  0  0  0  0
  151.6313  143.6990  156.8246 H   0  0  0  0  0  0  0  0  0  0  0  0
  149.6744  141.3735  157.1915 H   0  0  0  0  0  0  0  0  0  0  0  0
  150.3412  141.9573  155.6718 H   0  0  0  0  0  0  0  0  0  0  0  0
  153.8341  138.2371  154.1846 H   0  0  0  0  0  0  0  0  0  0  0  0
  147.9587  137.3498  156.6665 H   0  0  0  0  0  0  0  0  0  0  0  0
  149.1043  135.9491  153.9056 H   0  0  0  0  0  0  0  0  0  0  0  0
  148.5402  134.7144  156.6580 H   0  0  0  0  0  0  0  0  0  0  0  0
  147.4411  134.7929  155.2387 H   0  0  0  0  0  0  0  0  0  0  0  0
  148.5935  131.7815  156.0584 H   0  0  0  0  0  0  0  0  0  0  0  0
  150.1804  131.5997  155.3569 H   0  0  0  0  0  0  0  0  0  0  0  0
  150.9155  132.1727  157.1763 H   0  0  0  0  0  0  0  0  0  0  0  0
  149.6423  132.8211  152.9051 H   0  0  0  0  0  0  0  0  0  0  0  0
  148.2236  132.1225  153.6342 H   0  0  0  0  0  0  0  0  0  0  0  0
  148.5375  134.7705  152.7124 H   0  0  0  0  0  0  0  0  0  0  0  0
  151.0436  134.4914  153.9744 H   0  0  0  0  0  0  0  0  0  0  0  0
  151.0734  134.5170  155.7701 H   0  0  0  0  0  0  0  0  0  0  0  0
  151.3198  140.3173  158.8585 H   0  0  0  0  0  0  0  0  0  0  0  0
  153.0080  140.2378  158.4132 H   0  0  0  0  0  0  0  0  0  0  0  0
  153.1903  142.6874  158.4173 H   0  0  0  0  0  0  0  0  0  0  0  0
  153.5809  141.2575  160.4665 H   0  0  0  0  0  0  0  0  0  0  0  0
  151.9672  141.6757  161.0285 H   0  0  0  0  0  0  0  0  0  0  0  0
  153.2115  142.9163  160.8532 H   0  0  0  0  0  0  0  0  0  0  0  0
  1  2  1  0  0  0  0
  1 29  1  0  0  0  0
  1 30  1  0  0  0  0
  1 31  1  0  0  0  0
  2  3  1  0  0  0  0
  3  4  1  0  0  0  0
  3 32  1  0  0  0  0
  3 33  1  0  0  0  0
  4  5  1  0  0  0  0
  4 34  1  0  0  0  0
  4 35  1  0  0  0  0
  5 27  1  0  0  0  0
  5  6  1  0  0  0  0
  6  7  1  0  0  0  0
  6 36  1  0  0  0  0
  6 37  1  0  0  0  0
  7  8  1  0  0  0  0
  7 38  1  0  0  0  0
  7 39  1  0  0  0  0
  8  9  1  0  0  0  0
  8 26  1  0  0  0  0
  9 14  1  0  0  0  0
  9 10  2  0  0  0  0
 10 11  1  0  0  0  0
 11 12  2  0  0  0  0
 11 40  1  0  0  0  0
 12 13  1  0  0  0  0
 13 17  1  0  0  0  0
 13 14  2  0  0  0  0
 14 15  1  0  0  0  0
 15 16  2  0  0  0  0
 16 17  1  0  0  0  0
 16 41  1  0  0  0  0
 17 18  1  0  0  0  0
 18 25  1  0  0  0  0
 18 19  1  0  0  0  0
 18 42  1  0  0  0  0
 19 20  1  0  0  0  0
 19 43  1  0  0  0  0
 19 44  1  0  0  0  0
 20 21  1  0  0  0  0
 20 23  1  0  0  0  0
 20 25  1  0  0  0  0
 21 22  1  0  0  0  0
 21 45  1  0  0  0  0
 21 46  1  0  0  0  0
 22 47  1  0  0  0  0
 23 24  1  0  0  0  0
 23 48  1  0  0  0  0
 23 49  1  0  0  0  0
 24 50  1  0  0  0  0
 25 51  1  0  0  0  0
 25 52  1  0  0  0  0
 26 27  1  0  0  0  0
 26 53  1  0  0  0  0
 26 54  1  0  0  0  0
 27 28  1  0  0  0  0
 27 55  1  0  0  0  0
 28 56  1  0  0  0  0
 28 57  1  0  0  0  0
 28 58  1  0  0  0  0
M  END
> <s_m_source_file>
AV-unprocessed.smi

> <i_m_source_file_index>
82

> <i_lp_mmshare_version>
43012

> <i_f3d_flags>
0

> <s_epik_input>
W0NIM11PW0NIMl1bQ0gyXU4xW0NIMl1bQ0gyXU4oW0NIMl1bQ0BIXTFbQ0gzXSljKG5bY0hdbjIpYyhjMjMpbltjSF1uM1tDSF0oW0NIMl00KVtDSDJdQzQoW0NIMl1bT0hdKVtDSDJdW09IXQ==

> <s_epik_cmdline>
J2VwaWtfcHl0aG9uJywgJy1waCcsICc3LjAnLCAnLXRuJywgJzgnLCAnLW1hJywgJzIwMCcsICctbWV0YWxfYmluZGluZycsICctaW1hZScsICc8aW5maWxlLm1hZT4nLCAnLW9tYWUnLCAnPG91dGZpbGUubWFlPic=

> <r_lp_tautomer_probability>
1

> <r_epik_Ionization_Penalty>
0.549054

> <r_epik_Ionization_Penalty_Charging>
0

> <r_epik_Ionization_Penalty_Neutral>
0.549054

> <r_epik_State_Penalty>
0.552556

> <r_epik_Charging_Adjusted_Penalty>
0.552556

> <i_epik_Tot_Q>
0

> <i_epik_Tot_abs_Q>
0

> <r_epik_Metal_State_Penalty>
0.545162

> <b_epik_Metal_Only>
0

> <s_lp_Force_Field>
OPLS_2005

> <r_lp_Energy>
68.3354

> <b_lp_Chiralities_Consistent>
1

> <s_lp_Variant>
AV-unprocessed.smi:82-6

> <Gold.Version>
5.8.1

> <Gold.Id.Protein>
6NUR|6NUR_protein|mol2

> <Gold.PLP.Fitness>
51.0697

> <Gold.PLP.PLP>
-44.9085

> <Gold.PLP.part.hbond>
-4.2922

> <Gold.PLP.part.metal>
0.0000

> <Gold.PLP.part.buried>
-6.0326

> <Gold.PLP.part.nonpolar>
-36.6614

> <Gold.PLP.part.repulsive>
0.3508

> <Gold.PLP.ligand.clash>
0.0081

> <Gold.PLP.ligand.torsion>
2.6200

> <Gold.PLP.Chemscore.Hbond>
3.4364

> <Gold.PLP.Chemscore.CHOScore>
0.0000

> <Gold.PLP.Chemscore.Metal>
0.0000

> <Gold.Chemscore.Hbonds>
donor molecule, donor type, donor heavy atom, donor atom, acceptor molecule, acceptor atom, score
      L1  H    24    50       P1  7948  1.00
      P1  H  6933  6944       L1     2  0.22
      P1  H  7997  8008       L1    10  1.00
      P1  H 10752 10765       L1    12  0.88

> <Gold.PLP.Chemscore.Internal.Correction>
1.0999

> <Gold.Rescore>
     Score         DG    S(hbond)    S(metal)    S(lipo)     H(rot)  DE(clash)    DE(int)     intcor
     11.06     -14.77       2.08        0.00     104.09       3.84       0.08       3.63       ----

> <Gold.Chemscore.Fitness>
11.0640

> <Gold.Chemscore.DG>
-14.7721

> <Gold.Chemscore.ZeroCoef>
-5.4800

> <Gold.Chemscore.Hbond>
2.0815

> <Gold.Chemscore.Metal>
0.0000

> <Gold.Chemscore.Lipo>
104.0933

> <Gold.Chemscore.Internal_Hbond>
0.0000

> <Gold.Chemscore.DEClash>
0.0767

> <Gold.Chemscore.DEInternal>
3.6314

> <Gold.Chemscore.Rot>
3.8434

> <Gold.Chemscore.Internal.Correction>
   9.000000E+99

> <Gold.Chemscore.Hbonds>
donor molecule, donor type, donor heavy atom, donor atom, acceptor molecule, acceptor atom, score
      L1  H    24    50       P1  7948  0.25
      P1  H  6933  6944       L1     2  0.09
      P1  H  7997  8008       L1    10  0.76
      P1  H 10752 10765       L1    12  0.58

> <Gold.Chemscore.Hbond.Weighted>
-6.9523

> <Gold.Chemscore.Metal.Weighted>
-0.0000

> <Gold.Chemscore.Lipo.Weighted>
-12.1789

> <Gold.Chemscore.Internal_Hbond.Weighted>
0.0000

> <Gold.Chemscore.DEClash.Weighted>
0.0767

> <Gold.Chemscore.DEInternal.Weighted>
3.6314

> <Gold.Chemscore.Rot.Weighted>
9.8391

> <Gold.Chemscore.Internal.Correction.Weighted>
   9.000000E+99

> <Gold.Protein.RotatedTorsions>
[ 6907 6896 6895 6894 ] final  106.03 input  -60.11 | X-H torsion
[ 7974 7965 7964 7962 ] final -129.37 input  175.53 | X-H torsion
[ 8008 7997 7996 7995 ] final  -37.98 input   59.86 | X-H torsion
[ 10167 10162 10161 10158 ] final  111.17 input  -65.29 | X-H torsion
[ 10718 10713 10712 10709 ] final -142.90 input   66.30 | X-H torsion
[ 10763 10752 10751 10750 ] final  164.64 input  -60.55 | X-H torsion
[ 11005 11000 10999 10996 ] final -108.43 input  -57.11 | X-H torsion

> <Gold.Protein.ActiveResidues>
 VAL166  LYS551  ARG553  GLY616  TRP617  ASP618  TYR619  PRO620  LYS621  CYS622 
 ASP623  PHE694  ASN695  SER759  ASP760  ASP761  ALA762  ILE779  LEU786  VAL792 
 PHE793  MET794  SER795  GLU796  ALA797  LYS798  CYS799  TRP800  GLU811  SER814 

> <Gold.Protein.RotatedAtoms>
  152.5209  133.9441  159.7640 H   0  0  0  0  0  0  0  0  0  0  0  0  # atno 6907 bound_to 6896
  150.9765  133.6282  159.2736 H   0  0  0  0  0  0  0  0  0  0  0  0  # atno 6908 bound_to 6896
  151.3474  135.0883  159.9444 H   0  0  0  0  0  0  0  0  0  0  0  0  # atno 6909 bound_to 6896
  144.9578  140.7415  143.4747 H   0  0  0  0  0  0  0  0  0  0  0  0  # atno 7974 bound_to 7965
  154.4044  140.1590  156.2626 H   0  0  0  0  0  0  0  0  0  0  0  0  # atno 8008 bound_to 7997
  155.9023  140.3432  155.6013 H   0  0  0  0  0  0  0  0  0  0  0  0  # atno 8009 bound_to 7997
  155.7433  140.0795  157.2226 H   0  0  0  0  0  0  0  0  0  0  0  0  # atno 8010 bound_to 7997
  139.6631  144.7128  151.1827 H   0  0  0  0  0  0  0  0  0  0  0  0  # atno 10167 bound_to 10162
  156.3515  130.7690  151.1844 H   0  0  0  0  0  0  0  0  0  0  0  0  # atno 10718 bound_to 10713
  154.3119  135.2757  155.2561 H   0  0  0  0  0  0  0  0  0  0  0  0  # atno 10763 bound_to 10752
  154.4953  135.5823  153.6493 H   0  0  0  0  0  0  0  0  0  0  0  0  # atno 10764 bound_to 10752
  152.9887  135.6144  154.3297 H   0  0  0  0  0  0  0  0  0  0  0  0  # atno 10765 bound_to 10752
  141.0902  133.9068  157.2093 H   0  0  0  0  0  0  0  0  0  0  0  0  # atno 11005 bound_to 11000
  145.2745  139.1942  143.4824 LP  0  0  0  0  0  0  0  0  0  0  0  0  # atno 17320 bound_to 7965
  146.3343  140.2697  142.8605 LP  0  0  0  0  0  0  0  0  0  0  0  0  # atno 17321 bound_to 7965
  140.7588  143.5962  150.8746 LP  0  0  0  0  0  0  0  0  0  0  0  0  # atno 17342 bound_to 10162
  139.9621  143.6152  152.2999 LP  0  0  0  0  0  0  0  0  0  0  0  0  # atno 17343 bound_to 10162
  157.7462  131.0426  150.4703 LP  0  0  0  0  0  0  0  0  0  0  0  0  # atno 17370 bound_to 10713
  156.4899  130.4093  149.6413 LP  0  0  0  0  0  0  0  0  0  0  0  0  # atno 17371 bound_to 10713
  139.9727  135.0123  156.9552 LP  0  0  0  0  0  0  0  0  0  0  0  0  # atno 17394 bound_to 11000
  140.5269  134.0851  155.7306 LP  0  0  0  0  0  0  0  0  0  0  0  0  # atno 17395 bound_to 11000

$$$$
