AV-unprocessed.smi:885|AV-procd|sdf|4047|dock3
  -GOLD-   22720 1533D 1   1.00000     0.00000
 Structure written by MMmdl.
 39 41  0  0  0  0  0  0  0  0  1 V2000
  151.6853  144.4063  161.0277 C   0  0  0  0  0  0  0  0  0  0  0  0
  152.5576  143.4495  161.8597 C   0  0  0  0  0  0  0  0  0  0  0  0
  153.2273  142.2909  161.0992 C   0  0  0  0  0  0  0  0  0  0  0  0
  152.3621  141.6226  160.0172 C   0  0  0  0  0  0  0  0  0  0  0  0
  152.4461  142.3255  158.6444 C   0  0  0  0  0  0  0  0  0  0  0  0
  151.9729  141.4245  157.5433 C   0  0  0  0  0  0  0  0  0  0  0  0
  152.4760  140.2060  157.3765 N   0  0  0  0  0  0  0  0  0  0  0  0
  151.7698  139.7108  156.2713 O   0  0  0  0  0  0  0  0  0  0  0  0
  150.9316  140.7045  155.8905 C   0  0  0  0  0  0  0  0  0  0  0  0
  149.9976  140.4550  154.7494 C   0  0  1  0  0  0  0  0  0  0  0  0
  149.9576  138.9695  154.3420 C   0  0  0  0  0  0  0  0  0  0  0  0
  148.9706  138.7605  153.2837 N   0  0  0  0  0  0  0  0  0  0  0  0
  147.6544  139.2569  153.6829 C   0  0  0  0  0  0  0  0  0  0  0  0
  147.7469  140.7318  154.1139 C   0  0  0  0  0  0  0  0  0  0  0  0
  148.6967  140.8637  155.1660 O   0  0  0  0  0  0  0  0  0  0  0  0
  151.0006  141.7880  156.6621 N   0  0  0  0  0  0  0  0  0  0  0  0
  151.7560  143.7025  158.5663 C   0  0  0  0  0  0  0  0  0  0  0  0
  152.2147  144.7253  159.6204 C   0  0  0  0  0  0  0  0  0  0  0  0
  151.5816  145.3365  161.5870 H   0  0  0  0  0  0  0  0  0  0  0  0
  150.6739  144.0052  160.9515 H   0  0  0  0  0  0  0  0  0  0  0  0
  153.3404  144.0233  162.3569 H   0  0  0  0  0  0  0  0  0  0  0  0
  151.9421  143.0418  162.6625 H   0  0  0  0  0  0  0  0  0  0  0  0
  154.1630  142.6351  160.6575 H   0  0  0  0  0  0  0  0  0  0  0  0
  153.5198  141.5376  161.8316 H   0  0  0  0  0  0  0  0  0  0  0  0
  152.7402  140.6065  159.8929 H   0  0  0  0  0  0  0  0  0  0  0  0
  151.3280  141.5154  160.3473 H   0  0  0  0  0  0  0  0  0  0  0  0
  153.5053  142.5028  158.4500 H   0  0  0  0  0  0  0  0  0  0  0  0
  150.3200  141.0699  153.9069 H   0  0  0  0  0  0  0  0  0  0  0  0
  150.9422  138.6448  154.0044 H   0  0  0  0  0  0  0  0  0  0  0  0
  149.7050  138.3568  155.2086 H   0  0  0  0  0  0  0  0  0  0  0  0
  148.9093  137.7710  153.0658 H   0  0  0  0  0  0  0  0  0  0  0  0
  146.9481  139.1498  152.8595 H   0  0  0  0  0  0  0  0  0  0  0  0
  147.2668  138.6584  154.5080 H   0  0  0  0  0  0  0  0  0  0  0  0
  148.0241  141.3686  153.2722 H   0  0  0  0  0  0  0  0  0  0  0  0
  146.7769  141.0795  154.4695 H   0  0  0  0  0  0  0  0  0  0  0  0
  151.9471  144.1240  157.5785 H   0  0  0  0  0  0  0  0  0  0  0  0
  150.6738  143.5816  158.6297 H   0  0  0  0  0  0  0  0  0  0  0  0
  151.8200  145.6986  159.3268 H   0  0  0  0  0  0  0  0  0  0  0  0
  153.2998  144.8340  159.6222 H   0  0  0  0  0  0  0  0  0  0  0  0
  1 18  1  0  0  0  0
  1  2  1  0  0  0  0
  1 19  1  0  0  0  0
  1 20  1  0  0  0  0
  2  3  1  0  0  0  0
  2 21  1  0  0  0  0
  2 22  1  0  0  0  0
  3  4  1  0  0  0  0
  3 23  1  0  0  0  0
  3 24  1  0  0  0  0
  4  5  1  0  0  0  0
  4 25  1  0  0  0  0
  4 26  1  0  0  0  0
  5  6  1  0  0  0  0
  5 17  1  0  0  0  0
  5 27  1  0  0  0  0
  6 16  1  0  0  0  0
  6  7  2  0  0  0  0
  7  8  1  0  0  0  0
  8  9  1  0  0  0  0
  9 10  1  0  0  0  0
  9 16  2  0  0  0  0
 10 15  1  0  0  0  0
 10 11  1  0  0  0  0
 10 28  1  0  0  0  0
 11 12  1  0  0  0  0
 11 29  1  0  0  0  0
 11 30  1  0  0  0  0
 12 13  1  0  0  0  0
 12 31  1  0  0  0  0
 13 14  1  0  0  0  0
 13 32  1  0  0  0  0
 13 33  1  0  0  0  0
 14 15  1  0  0  0  0
 14 34  1  0  0  0  0
 14 35  1  0  0  0  0
 17 18  1  0  0  0  0
 17 36  1  0  0  0  0
 17 37  1  0  0  0  0
 18 38  1  0  0  0  0
 18 39  1  0  0  0  0
M  END
> <s_m_source_file>
AV-unprocessed.smi

> <i_m_source_file_index>
885

> <i_lp_mmshare_version>
43012

> <i_f3d_flags>
0

> <s_epik_input>
W0NIMl0xW0NIMl1bQ0gyXVtDSDJdW0NIMl1bQ0gyXVtDSF0xYzJub2MobjIpW0NAQEhdM1tDSDJdW05IXVtDSDJdW0NIMl1PMw==

> <s_epik_cmdline>
J2VwaWtfcHl0aG9uJywgJy1waCcsICc3LjAnLCAnLXRuJywgJzgnLCAnLW1hJywgJzIwMCcsICctbWV0YWxfYmluZGluZycsICctaW1hZScsICc8aW5maWxlLm1hZT4nLCAnLW9tYWUnLCAnPG91dGZpbGUubWFlPic=

> <r_lp_tautomer_probability>
1

> <r_epik_Ionization_Penalty>
0.861744

> <r_epik_Ionization_Penalty_Charging>
0

> <r_epik_Ionization_Penalty_Neutral>
0.861744

> <r_epik_State_Penalty>
0.898282

> <r_epik_Charging_Adjusted_Penalty>
0.898282

> <i_epik_Tot_Q>
0

> <i_epik_Tot_abs_Q>
0

> <r_epik_Metal_State_Penalty>
0.898282

> <b_epik_Metal_Only>
0

> <s_lp_Force_Field>
OPLS_2005

> <r_lp_Energy>
21.0678

> <b_lp_Chiralities_Consistent>
1

> <s_lp_Variant>
AV-unprocessed.smi:885-4

> <Gold.Version>
5.8.1

> <Gold.Id.Protein>
6NUR|6NUR_protein|mol2

> <Gold.PLP.Fitness>
46.4998

> <Gold.PLP.PLP>
-41.0897

> <Gold.PLP.part.hbond>
-3.0000

> <Gold.PLP.part.metal>
0.0000

> <Gold.PLP.part.buried>
-4.3518

> <Gold.PLP.part.nonpolar>
-33.7890

> <Gold.PLP.part.repulsive>
0.1647

> <Gold.PLP.ligand.clash>
0.0000

> <Gold.PLP.ligand.torsion>
0.3527

> <Gold.PLP.Chemscore.Hbond>
2.0000

> <Gold.PLP.Chemscore.CHOScore>
0.0000

> <Gold.PLP.Chemscore.Metal>
0.0000

> <Gold.Chemscore.Hbonds>
donor molecule, donor type, donor heavy atom, donor atom, acceptor molecule, acceptor atom, score
      L1  H    12    31       P1  7948  1.00
      P1  H  7997  8009       L1     7  0.99

> <Gold.PLP.Chemscore.Internal.Correction>
0.1155

> <Gold.Rescore>
     Score         DG    S(hbond)    S(metal)    S(lipo)     H(rot)  DE(clash)    DE(int)     intcor
     19.91     -20.22       1.66        0.00     105.03       1.21       0.21       0.10       ----

> <Gold.Chemscore.Fitness>
19.9072

> <Gold.Chemscore.DG>
-20.2154

> <Gold.Chemscore.ZeroCoef>
-5.4800

> <Gold.Chemscore.Hbond>
1.6592

> <Gold.Chemscore.Metal>
0.0000

> <Gold.Chemscore.Lipo>
105.0278

> <Gold.Chemscore.Internal_Hbond>
0.0000

> <Gold.Chemscore.DEClash>
0.2063

> <Gold.Chemscore.DEInternal>
0.1019

> <Gold.Chemscore.Rot>
1.2088

> <Gold.Chemscore.Internal.Correction>
   9.000000E+99

> <Gold.Chemscore.Hbonds>
donor molecule, donor type, donor heavy atom, donor atom, acceptor molecule, acceptor atom, score
      L1  H    12    31       P1  7948  0.96
      P1  H  7997  8009       L1     7  0.21

> <Gold.Chemscore.Hbond.Weighted>
-5.5418

> <Gold.Chemscore.Metal.Weighted>
-0.0000

> <Gold.Chemscore.Lipo.Weighted>
-12.2883

> <Gold.Chemscore.Internal_Hbond.Weighted>
0.0000

> <Gold.Chemscore.DEClash.Weighted>
0.2063

> <Gold.Chemscore.DEInternal.Weighted>
0.1019

> <Gold.Chemscore.Rot.Weighted>
3.0946

> <Gold.Chemscore.Internal.Correction.Weighted>
   9.000000E+99

> <Gold.Protein.RotatedTorsions>
[ 6907 6896 6895 6894 ] final  -28.50 input  -60.11 | X-H torsion
[ 7974 7965 7964 7962 ] final -135.15 input  175.53 | X-H torsion
[ 8008 7997 7996 7995 ] final  178.76 input   59.86 | X-H torsion
[ 10167 10162 10161 10158 ] final   67.68 input  -65.29 | X-H torsion
[ 10718 10713 10712 10709 ] final -166.83 input   66.30 | X-H torsion
[ 10763 10752 10751 10750 ] final   83.58 input  -60.55 | X-H torsion
[ 11005 11000 10999 10996 ] final   74.02 input  -57.11 | X-H torsion

> <Gold.Protein.ActiveResidues>
 VAL166  LYS551  ARG553  GLY616  TRP617  ASP618  TYR619  PRO620  LYS621  CYS622 
 ASP623  PHE694  ASN695  SER759  ASP760  ASP761  ALA762  ILE779  LEU786  VAL792 
 PHE793  MET794  SER795  GLU796  ALA797  LYS798  CYS799  TRP800  GLU811  SER814 

> <Gold.Protein.RotatedAtoms>
  151.1321  135.0135  159.8586 H   0  0  0  0  0  0  0  0  0  0  0  0  # atno 6907 bound_to 6896
  152.5451  134.1598  159.8563 H   0  0  0  0  0  0  0  0  0  0  0  0  # atno 6908 bound_to 6896
  151.1666  133.4766  159.2627 H   0  0  0  0  0  0  0  0  0  0  0  0  # atno 6909 bound_to 6896
  144.9040  140.6808  143.5067 H   0  0  0  0  0  0  0  0  0  0  0  0  # atno 7974 bound_to 7965
  156.0511  140.1325  157.0049 H   0  0  0  0  0  0  0  0  0  0  0  0  # atno 8008 bound_to 7997
  154.4435  140.1011  156.6448 H   0  0  0  0  0  0  0  0  0  0  0  0  # atno 8009 bound_to 7997
  155.5522  140.3463  155.4473 H   0  0  0  0  0  0  0  0  0  0  0  0  # atno 8010 bound_to 7997
  140.0869  144.5022  150.7125 H   0  0  0  0  0  0  0  0  0  0  0  0  # atno 10167 bound_to 10162
  156.6735  130.9093  151.3047 H   0  0  0  0  0  0  0  0  0  0  0  0  # atno 10718 bound_to 10713
  153.1304  135.4686  154.9339 H   0  0  0  0  0  0  0  0  0  0  0  0  # atno 10763 bound_to 10752
  154.7659  135.3144  154.8290 H   0  0  0  0  0  0  0  0  0  0  0  0  # atno 10764 bound_to 10752
  153.8834  135.6892  153.4819 H   0  0  0  0  0  0  0  0  0  0  0  0  # atno 10765 bound_to 10752
  139.9411  134.7397  156.1097 H   0  0  0  0  0  0  0  0  0  0  0  0  # atno 11005 bound_to 11000
  145.3568  139.1692  143.4405 LP  0  0  0  0  0  0  0  0  0  0  0  0  # atno 17320 bound_to 7965
  146.3123  140.3626  142.8666 LP  0  0  0  0  0  0  0  0  0  0  0  0  # atno 17321 bound_to 7965
  140.7049  143.2461  151.4756 LP  0  0  0  0  0  0  0  0  0  0  0  0  # atno 17342 bound_to 10162
  139.5747  144.1846  152.1886 LP  0  0  0  0  0  0  0  0  0  0  0  0  # atno 17343 bound_to 10162
  157.7069  130.9395  150.0959 LP  0  0  0  0  0  0  0  0  0  0  0  0  # atno 17370 bound_to 10713
  156.1921  130.3655  149.8897 LP  0  0  0  0  0  0  0  0  0  0  0  0  # atno 17371 bound_to 10713
  141.1046  133.6665  156.2833 LP  0  0  0  0  0  0  0  0  0  0  0  0  # atno 17394 bound_to 11000
  140.5949  134.5613  157.5507 LP  0  0  0  0  0  0  0  0  0  0  0  0  # atno 17395 bound_to 11000

$$$$
