AV-unprocessed.smi:2628|AV-procd|sdf|10243|dock7
  -GOLD-   2272014253D 1   1.00000     0.00000
 Structure written by MMmdl.
 38 38  0  0  0  0  0  0  0  0  1 V2000
  151.4926  139.3187  155.4603 C   0  0  0  0  0  0  0  0  0  0  0  0
  150.5076  140.4783  155.6427 C   0  0  0  0  0  0  0  0  0  0  0  0
  149.4649  140.1991  156.7374 C   0  0  0  0  0  0  0  0  0  0  0  0
  148.3824  139.1730  156.3435 C   0  0  0  0  0  0  0  0  0  0  0  0
  147.5784  139.5694  155.2002 N   0  0  0  0  0  0  0  0  0  0  0  0
  147.6692  138.9496  153.9507 C   0  0  0  0  0  0  0  0  0  0  0  0
  148.5789  137.9116  153.8073 N   0  0  0  0  0  0  0  0  0  0  0  0
  146.9081  139.3342  152.8841 C   0  0  0  0  0  0  0  0  0  0  0  0
  147.0359  138.6887  151.6531 N   0  0  0  0  0  0  0  0  0  0  0  0
  146.3536  138.9054  150.3860 C   0  0  0  0  0  0  0  0  0  0  0  0
  145.6227  137.6399  149.9249 C   0  0  0  0  0  0  0  0  0  0  0  0
  145.1047  137.8472  148.6210 O   0  0  0  0  0  0  0  0  0  0  0  0
  143.7050  137.6387  148.5538 C   0  0  0  0  0  0  0  0  0  0  0  0
  145.9524  140.4463  153.0299 C   0  0  0  0  0  0  0  0  0  0  0  0
  145.2103  140.8986  152.1595 O   0  0  0  0  0  0  0  0  0  0  0  0
  145.9148  141.0277  154.2948 N   0  0  0  0  0  0  0  0  0  0  0  0
  146.6834  140.6493  155.3880 C   0  0  0  0  0  0  0  0  0  0  0  0
  146.5617  141.2620  156.4493 O   0  0  0  0  0  0  0  0  0  0  0  0
  145.2748  141.7972  154.4268 H   0  0  0  0  0  0  0  0  0  0  0  0
  152.2180  139.5456  154.6788 H   0  0  0  0  0  0  0  0  0  0  0  0
  150.9739  138.4026  155.1768 H   0  0  0  0  0  0  0  0  0  0  0  0
  152.0444  139.1216  156.3798 H   0  0  0  0  0  0  0  0  0  0  0  0
  151.0609  141.3857  155.8874 H   0  0  0  0  0  0  0  0  0  0  0  0
  150.0077  140.6662  154.6923 H   0  0  0  0  0  0  0  0  0  0  0  0
  149.9739  139.8676  157.6430 H   0  0  0  0  0  0  0  0  0  0  0  0
  148.9701  141.1348  156.9991 H   0  0  0  0  0  0  0  0  0  0  0  0
  148.8346  138.2189  156.0716 H   0  0  0  0  0  0  0  0  0  0  0  0
  147.7249  138.9380  157.1815 H   0  0  0  0  0  0  0  0  0  0  0  0
  149.1615  137.6052  154.5729 H   0  0  0  0  0  0  0  0  0  0  0  0
  148.6323  137.3664  152.9589 H   0  0  0  0  0  0  0  0  0  0  0  0
  147.7066  137.9349  151.6244 H   0  0  0  0  0  0  0  0  0  0  0  0
  145.6240  139.7057  150.5117 H   0  0  0  0  0  0  0  0  0  0  0  0
  147.0684  139.2279  149.6282 H   0  0  0  0  0  0  0  0  0  0  0  0
  146.2967  136.7818  149.9428 H   0  0  0  0  0  0  0  0  0  0  0  0
  144.8011  137.4240  150.6096 H   0  0  0  0  0  0  0  0  0  0  0  0
  143.3579  137.8050  147.5340 H   0  0  0  0  0  0  0  0  0  0  0  0
  143.1720  138.3295  149.2082 H   0  0  0  0  0  0  0  0  0  0  0  0
  143.4447  136.6175  148.8353 H   0  0  0  0  0  0  0  0  0  0  0  0
  1  2  1  0  0  0  0
  1 20  1  0  0  0  0
  1 21  1  0  0  0  0
  1 22  1  0  0  0  0
  2  3  1  0  0  0  0
  2 23  1  0  0  0  0
  2 24  1  0  0  0  0
  3  4  1  0  0  0  0
  3 25  1  0  0  0  0
  3 26  1  0  0  0  0
  4  5  1  0  0  0  0
  4 27  1  0  0  0  0
  4 28  1  0  0  0  0
  5 17  1  0  0  0  0
  5  6  1  0  0  0  0
  6  7  1  0  0  0  0
  6  8  2  0  0  0  0
  7 29  1  0  0  0  0
  7 30  1  0  0  0  0
  8  9  1  0  0  0  0
  8 14  1  0  0  0  0
  9 10  1  0  0  0  0
  9 31  1  0  0  0  0
 10 11  1  0  0  0  0
 10 32  1  0  0  0  0
 10 33  1  0  0  0  0
 11 12  1  0  0  0  0
 11 34  1  0  0  0  0
 11 35  1  0  0  0  0
 12 13  1  0  0  0  0
 13 36  1  0  0  0  0
 13 37  1  0  0  0  0
 13 38  1  0  0  0  0
 14 15  2  0  0  0  0
 14 16  1  0  0  0  0
 16 19  1  0  0  0  0
 16 17  1  0  0  0  0
 17 18  2  0  0  0  0
M  END
> <s_m_source_file>
AV-unprocessed.smi

> <i_m_source_file_index>
2628

> <i_lp_mmshare_version>
43012

> <i_f3d_flags>
0

> <s_epik_input>
W0NIM11bQ0gyXVtDSDJdW0NIMl1uMWMoW05IMl0pYyhjKD1PKVtuSF1jMT1PKVtOSF1bQ0gyXVtDSDJdT1tDSDNd

> <s_epik_cmdline>
J2VwaWtfcHl0aG9uJywgJy1waCcsICc3LjAnLCAnLXRuJywgJzgnLCAnLW1hJywgJzIwMCcsICctbWV0YWxfYmluZGluZycsICctaW1hZScsICc8aW5maWxlLm1hZT4nLCAnLW9tYWUnLCAnPG91dGZpbGUubWFlPic=

> <r_lp_tautomer_probability>
1

> <r_epik_Ionization_Penalty>
1.09794e-05

> <r_epik_Ionization_Penalty_Charging>
2.75876e-06

> <r_epik_Ionization_Penalty_Neutral>
8.2206e-06

> <r_epik_State_Penalty>
-0

> <r_epik_Charging_Adjusted_Penalty>
2.75876e-06

> <i_epik_Tot_Q>
0

> <i_epik_Tot_abs_Q>
0

> <r_epik_Metal_State_Penalty>
-0

> <b_epik_Metal_Only>
0

> <s_epik_Chemistry_Notes>
This compound has an imine and may undergo hydrolysis.

> <s_lp_Force_Field>
OPLS_2005

> <r_lp_Energy>
18.1798

> <b_lp_Chiralities_Consistent>
1

> <s_lp_Variant>
AV-unprocessed.smi:2628-1

> <Gold.Version>
5.8.1

> <Gold.Id.Protein>
6NUR|6NUR_protein|mol2

> <Gold.PLP.Fitness>
37.7400

> <Gold.PLP.PLP>
-29.3343

> <Gold.PLP.part.hbond>
-4.7319

> <Gold.PLP.part.metal>
0.0000

> <Gold.PLP.part.buried>
-1.7670

> <Gold.PLP.part.nonpolar>
-22.7403

> <Gold.PLP.part.repulsive>
0.3117

> <Gold.PLP.ligand.clash>
0.0000

> <Gold.PLP.ligand.torsion>
0.5228

> <Gold.PLP.Chemscore.Hbond>
3.1420

> <Gold.PLP.Chemscore.CHOScore>
0.0000

> <Gold.PLP.Chemscore.Metal>
0.0000

> <Gold.Chemscore.Hbonds>
donor molecule, donor type, donor heavy atom, donor atom, acceptor molecule, acceptor atom, score
      L1  H     7    30       P1  7948  1.00
      L1  H     9    31       P1  7948  0.86

> <Gold.PLP.Chemscore.Internal.Correction>
0.0254

> <Gold.Rescore>
     Score         DG    S(hbond)    S(metal)    S(lipo)     H(rot)  DE(clash)    DE(int)     intcor
     12.03     -14.40       2.81        0.00      47.36       2.35       0.58       1.79       ----

> <Gold.Chemscore.Fitness>
12.0347

> <Gold.Chemscore.DG>
-14.4001

> <Gold.Chemscore.ZeroCoef>
-5.4800

> <Gold.Chemscore.Hbond>
2.8116

> <Gold.Chemscore.Metal>
0.0000

> <Gold.Chemscore.Lipo>
47.3629

> <Gold.Chemscore.Internal_Hbond>
0.0000

> <Gold.Chemscore.DEClash>
0.5788

> <Gold.Chemscore.DEInternal>
1.7866

> <Gold.Chemscore.Rot>
2.3484

> <Gold.Chemscore.Internal.Correction>
   9.000000E+99

> <Gold.Chemscore.Hbonds>
donor molecule, donor type, donor heavy atom, donor atom, acceptor molecule, acceptor atom, score
      L1  H     7    30       P1  7948  0.98
      L1  H     9    31       P1  7948  0.84

> <Gold.Chemscore.Hbond.Weighted>
-9.3907

> <Gold.Chemscore.Metal.Weighted>
-0.0000

> <Gold.Chemscore.Lipo.Weighted>
-5.5415

> <Gold.Chemscore.Internal_Hbond.Weighted>
0.0000

> <Gold.Chemscore.DEClash.Weighted>
0.5788

> <Gold.Chemscore.DEInternal.Weighted>
1.7866

> <Gold.Chemscore.Rot.Weighted>
6.0120

> <Gold.Chemscore.Internal.Correction.Weighted>
   9.000000E+99

> <Gold.Protein.RotatedTorsions>
[ 6907 6896 6895 6894 ] final  -92.90 input  -60.11 | X-H torsion
[ 7974 7965 7964 7962 ] final   34.69 input  175.53 | X-H torsion
[ 8008 7997 7996 7995 ] final  -76.68 input   59.86 | X-H torsion
[ 10167 10162 10161 10158 ] final  -66.61 input  -65.29 | X-H torsion
[ 10718 10713 10712 10709 ] final  147.40 input   66.30 | X-H torsion
[ 10763 10752 10751 10750 ] final   30.26 input  -60.55 | X-H torsion
[ 11005 11000 10999 10996 ] final -127.35 input  -57.11 | X-H torsion

> <Gold.Protein.ActiveResidues>
 VAL166  LYS551  ARG553  GLY616  TRP617  ASP618  TYR619  PRO620  LYS621  CYS622 
 ASP623  PHE694  ASN695  SER759  ASP760  ASP761  ALA762  ILE779  LEU786  VAL792 
 PHE793  MET794  SER795  GLU796  ALA797  LYS798  CYS799  TRP800  GLU811  SER814 

> <Gold.Protein.RotatedAtoms>
  150.6913  134.2050  159.4336 H   0  0  0  0  0  0  0  0  0  0  0  0  # atno 6907 bound_to 6896
  152.0015  134.9923  160.0574 H   0  0  0  0  0  0  0  0  0  0  0  0  # atno 6908 bound_to 6896
  152.1574  133.4525  159.4881 H   0  0  0  0  0  0  0  0  0  0  0  0  # atno 6909 bound_to 6896
  146.1335  139.6237  142.9211 H   0  0  0  0  0  0  0  0  0  0  0  0  # atno 7974 bound_to 7965
  154.5527  140.0723  156.8694 H   0  0  0  0  0  0  0  0  0  0  0  0  # atno 8008 bound_to 7997
  155.2962  140.3381  155.4232 H   0  0  0  0  0  0  0  0  0  0  0  0  # atno 8009 bound_to 7997
  156.1975  140.1709  156.7953 H   0  0  0  0  0  0  0  0  0  0  0  0  # atno 8010 bound_to 7997
  140.5644  143.2314  151.6664 H   0  0  0  0  0  0  0  0  0  0  0  0  # atno 10167 bound_to 10162
  157.3215  131.0905  151.1237 H   0  0  0  0  0  0  0  0  0  0  0  0  # atno 10718 bound_to 10713
  153.0382  135.6468  154.1017 H   0  0  0  0  0  0  0  0  0  0  0  0  # atno 10763 bound_to 10752
  154.0728  135.2879  155.3306 H   0  0  0  0  0  0  0  0  0  0  0  0  # atno 10764 bound_to 10752
  154.6583  135.5401  153.8050 H   0  0  0  0  0  0  0  0  0  0  0  0  # atno 10765 bound_to 10752
  140.9606  134.0941  157.3972 H   0  0  0  0  0  0  0  0  0  0  0  0  # atno 11005 bound_to 11000
  145.5208  141.0432  143.2436 LP  0  0  0  0  0  0  0  0  0  0  0  0  # atno 17320 bound_to 7965
  144.7715  139.6724  143.7192 LP  0  0  0  0  0  0  0  0  0  0  0  0  # atno 17321 bound_to 7965
  139.5086  144.3607  152.0565 LP  0  0  0  0  0  0  0  0  0  0  0  0  # atno 17342 bound_to 10162
  140.2737  144.3936  150.6142 LP  0  0  0  0  0  0  0  0  0  0  0  0  # atno 17343 bound_to 10162
  157.2520  130.6618  149.5935 LP  0  0  0  0  0  0  0  0  0  0  0  0  # atno 17370 bound_to 10713
  155.9686  130.4535  150.5816 LP  0  0  0  0  0  0  0  0  0  0  0  0  # atno 17371 bound_to 10713
  139.8877  135.0092  156.6575 LP  0  0  0  0  0  0  0  0  0  0  0  0  # atno 17394 bound_to 11000
  140.7472  133.8927  155.8321 LP  0  0  0  0  0  0  0  0  0  0  0  0  # atno 17395 bound_to 11000

$$$$
