AV-unprocessed.smi:1824|AV-procd|sdf|7397|dock2
  -GOLD-   22720 9 63D 1   1.00000     0.00000
 Structure written by MMmdl.
 44 46  0  0  0  0  0  0  0  0  1 V2000
  147.3399  138.6073  152.5957 C   0  0  0  0  0  0  0  0  0  0  0  0
  147.5643  139.6297  153.7148 C   0  0  1  0  0  0  0  0  0  0  0  0
  148.9842  139.5424  154.3029 C   0  0  0  0  0  0  0  0  0  0  0  0
  149.2226  140.5705  155.3081 N   0  0  0  0  0  0  0  0  0  0  0  0
  150.5598  140.4408  155.8870 C   0  0  0  0  0  0  0  0  0  0  0  0
  150.7580  141.1456  157.2462 C   0  0  2  0  0  0  0  0  0  0  0  0
  149.5825  140.9995  158.0212 O   0  0  0  0  0  0  0  0  0  0  0  0
  151.0518  142.6496  157.0783 C   0  0  0  0  0  0  0  0  0  0  0  0
  151.2182  143.3294  158.3508 N   0  0  0  0  0  0  0  0  0  0  0  0
  150.6548  144.4916  158.7337 C   0  0  0  0  0  0  0  0  0  0  0  0
  150.9463  144.9376  159.9525 N   0  0  0  0  0  0  0  0  0  0  0  0
  151.7987  143.9498  160.4151 C   0  0  0  0  0  0  0  0  0  0  0  0
  152.4668  143.8209  161.6537 C   0  0  0  0  0  0  0  0  0  0  0  0
  153.2993  142.7101  161.9048 C   0  0  0  0  0  0  0  0  0  0  0  0
  153.9326  142.6023  163.0970 F   0  0  0  0  0  0  0  0  0  0  0  0
  153.4755  141.7127  160.9224 C   0  0  0  0  0  0  0  0  0  0  0  0
  154.2764  140.6494  161.1716 F   0  0  0  0  0  0  0  0  0  0  0  0
  152.8196  141.8194  159.6811 C   0  0  0  0  0  0  0  0  0  0  0  0
  151.9907  142.9294  159.4354 C   0  0  0  0  0  0  0  0  0  0  0  0
  148.9952  141.8831  154.7079 C   0  0  0  0  0  0  0  0  0  0  0  0
  147.5960  142.0142  154.0735 C   0  0  2  0  0  0  0  0  0  0  0  0
  146.4693  142.1534  155.1113 C   0  0  0  0  0  0  0  0  0  0  0  0
  147.3562  140.9323  153.1718 O   0  0  0  0  0  0  0  0  0  0  0  0
  147.4755  137.5891  152.9608 H   0  0  0  0  0  0  0  0  0  0  0  0
  148.0377  138.7637  151.7726 H   0  0  0  0  0  0  0  0  0  0  0  0
  146.3290  138.6847  152.1947 H   0  0  0  0  0  0  0  0  0  0  0  0
  146.8321  139.4433  154.5009 H   0  0  0  0  0  0  0  0  0  0  0  0
  149.1281  138.5550  154.7431 H   0  0  0  0  0  0  0  0  0  0  0  0
  149.7180  139.6350  153.5005 H   0  0  0  0  0  0  0  0  0  0  0  0
  150.7445  139.3770  156.0430 H   0  0  0  0  0  0  0  0  0  0  0  0
  151.3200  140.7623  155.1732 H   0  0  0  0  0  0  0  0  0  0  0  0
  151.5891  140.6853  157.7825 H   0  0  0  0  0  0  0  0  0  0  0  0
  149.8310  140.8761  158.9243 H   0  0  0  0  0  0  0  0  0  0  0  0
  151.9650  142.7928  156.4993 H   0  0  0  0  0  0  0  0  0  0  0  0
  150.2498  143.1368  156.5214 H   0  0  0  0  0  0  0  0  0  0  0  0
  149.9906  145.0405  158.0818 H   0  0  0  0  0  0  0  0  0  0  0  0
  152.3388  144.5779  162.4130 H   0  0  0  0  0  0  0  0  0  0  0  0
  152.9509  141.0567  158.9279 H   0  0  0  0  0  0  0  0  0  0  0  0
  149.1194  142.6692  155.4521 H   0  0  0  0  0  0  0  0  0  0  0  0
  149.7490  142.0643  153.9401 H   0  0  0  0  0  0  0  0  0  0  0  0
  147.5860  142.9225  153.4704 H   0  0  0  0  0  0  0  0  0  0  0  0
  146.6109  143.0474  155.7188 H   0  0  0  0  0  0  0  0  0  0  0  0
  146.4297  141.3023  155.7906 H   0  0  0  0  0  0  0  0  0  0  0  0
  145.4985  142.2369  154.6225 H   0  0  0  0  0  0  0  0  0  0  0  0
  1  2  1  0  0  0  0
  1 24  1  0  0  0  0
  1 25  1  0  0  0  0
  1 26  1  0  0  0  0
  2 23  1  0  0  0  0
  2  3  1  0  0  0  0
  2 27  1  0  0  0  0
  3  4  1  0  0  0  0
  3 28  1  0  0  0  0
  3 29  1  0  0  0  0
  4  5  1  0  0  0  0
  4 20  1  0  0  0  0
  5  6  1  0  0  0  0
  5 30  1  0  0  0  0
  5 31  1  0  0  0  0
  6  7  1  0  0  0  0
  6  8  1  0  0  0  0
  6 32  1  0  0  0  0
  7 33  1  0  0  0  0
  8  9  1  0  0  0  0
  8 34  1  0  0  0  0
  8 35  1  0  0  0  0
  9 19  1  0  0  0  0
  9 10  1  0  0  0  0
 10 11  2  0  0  0  0
 10 36  1  0  0  0  0
 11 12  1  0  0  0  0
 12 19  2  0  0  0  0
 12 13  1  0  0  0  0
 13 14  2  0  0  0  0
 13 37  1  0  0  0  0
 14 15  1  0  0  0  0
 14 16  1  0  0  0  0
 16 17  1  0  0  0  0
 16 18  2  0  0  0  0
 18 19  1  0  0  0  0
 18 38  1  0  0  0  0
 20 21  1  0  0  0  0
 20 39  1  0  0  0  0
 20 40  1  0  0  0  0
 21 22  1  0  0  0  0
 21 23  1  0  0  0  0
 21 41  1  0  0  0  0
 22 42  1  0  0  0  0
 22 43  1  0  0  0  0
 22 44  1  0  0  0  0
M  END
> <s_m_source_file>
AV-unprocessed.smi

> <i_m_source_file_index>
1824

> <i_lp_mmshare_version>
43012

> <i_f3d_flags>
0

> <s_epik_input>
W0NIM11bQ0BASF0xW0NIMl1OKFtDSDJdW0NASF0oTzEpW0NIM10pW0NIMl1bQ0BIXShbT0hdKVtDSDJdbihbY0hdbjIpYyhjMjMpW2NIXWMoRiljKEYpW2NIXTM=

> <s_epik_cmdline>
J2VwaWtfcHl0aG9uJywgJy1waCcsICc3LjAnLCAnLXRuJywgJzgnLCAnLW1hJywgJzIwMCcsICctbWV0YWxfYmluZGluZycsICctaW1hZScsICc8aW5maWxlLm1hZT4nLCAnLW9tYWUnLCAnPG91dGZpbGUubWFlPic=

> <r_epik_Ionization_Penalty>
0.273778

> <r_epik_Ionization_Penalty_Charging>
0

> <r_epik_Ionization_Penalty_Neutral>
0.273778

> <r_epik_State_Penalty>
0.246794

> <r_epik_Charging_Adjusted_Penalty>
0.246794

> <i_epik_Tot_Q>
0

> <i_epik_Tot_abs_Q>
0

> <r_epik_Metal_State_Penalty>
0.238234

> <b_epik_Metal_Only>
0

> <s_lp_Force_Field>
OPLS_2005

> <r_lp_Energy>
30.6075

> <b_lp_Chiralities_Consistent>
1

> <s_lp_Variant>
AV-unprocessed.smi:1824-5

> <Gold.Version>
5.8.1

> <Gold.Id.Protein>
6NUR|6NUR_protein|mol2

> <Gold.PLP.Fitness>
53.8022

> <Gold.PLP.PLP>
-51.8639

> <Gold.PLP.part.hbond>
0.0000

> <Gold.PLP.part.metal>
0.0000

> <Gold.PLP.part.buried>
-2.8919

> <Gold.PLP.part.nonpolar>
-49.1839

> <Gold.PLP.part.repulsive>
0.7577

> <Gold.PLP.ligand.clash>
0.0000

> <Gold.PLP.ligand.torsion>
0.5227

> <Gold.PLP.Chemscore.Hbond>
0.0000

> <Gold.PLP.Chemscore.CHOScore>
0.9845

> <Gold.PLP.Chemscore.Metal>
0.0000

> <Gold.Chemscore.Hbonds>
donor molecule, donor type, donor heavy atom, donor atom, acceptor molecule, acceptor atom, score
      L1  C    10    36       P1  8028  0.21
      L1  C    10    36       P1  8029  0.80

> <Gold.PLP.Chemscore.Internal.Correction>
0.0303

> <Gold.Rescore>
     Score         DG    S(hbond)    S(metal)    S(lipo)     H(rot)  DE(clash)    DE(int)     intcor
     13.79     -14.59       0.00        0.00     127.36       2.26       0.44       0.36       ----

> <Gold.Chemscore.Fitness>
13.7888

> <Gold.Chemscore.DG>
-14.5906

> <Gold.Chemscore.ZeroCoef>
-5.4800

> <Gold.Chemscore.Hbond>
0.0000

> <Gold.Chemscore.Metal>
0.0000

> <Gold.Chemscore.Lipo>
127.3594

> <Gold.Chemscore.Internal_Hbond>
0.0000

> <Gold.Chemscore.DEClash>
0.4427

> <Gold.Chemscore.DEInternal>
0.3592

> <Gold.Chemscore.Rot>
2.2619

> <Gold.Chemscore.Internal.Correction>
   9.000000E+99

> <Gold.Chemscore.Hbond.Weighted>
-0.0000

> <Gold.Chemscore.Metal.Weighted>
-0.0000

> <Gold.Chemscore.Lipo.Weighted>
-14.9011

> <Gold.Chemscore.Internal_Hbond.Weighted>
0.0000

> <Gold.Chemscore.DEClash.Weighted>
0.4427

> <Gold.Chemscore.DEInternal.Weighted>
0.3592

> <Gold.Chemscore.Rot.Weighted>
5.7904

> <Gold.Chemscore.Internal.Correction.Weighted>
   9.000000E+99

> <Gold.Protein.RotatedTorsions>
[ 6907 6896 6895 6894 ] final  -51.20 input  -60.11 | X-H torsion
[ 7974 7965 7964 7962 ] final  -48.04 input  175.53 | X-H torsion
[ 8008 7997 7996 7995 ] final   78.71 input   59.86 | X-H torsion
[ 10167 10162 10161 10158 ] final -102.50 input  -65.29 | X-H torsion
[ 10718 10713 10712 10709 ] final  -30.96 input   66.30 | X-H torsion
[ 10763 10752 10751 10750 ] final  133.07 input  -60.55 | X-H torsion
[ 11005 11000 10999 10996 ] final   24.06 input  -57.11 | X-H torsion

> <Gold.Protein.ActiveResidues>
 VAL166  LYS551  ARG553  GLY616  TRP617  ASP618  TYR619  PRO620  LYS621  CYS622 
 ASP623  PHE694  ASN695  SER759  ASP760  ASP761  ALA762  ILE779  LEU786  VAL792 
 PHE793  MET794  SER795  GLU796  ALA797  LYS798  CYS799  TRP800  GLU811  SER814 

> <Gold.Protein.RotatedAtoms>
  150.8634  134.7992  159.7099 H   0  0  0  0  0  0  0  0  0  0  0  0  # atno 6907 bound_to 6896
  152.4664  134.5063  159.9750 H   0  0  0  0  0  0  0  0  0  0  0  0  # atno 6908 bound_to 6896
  151.5163  133.3437  159.2929 H   0  0  0  0  0  0  0  0  0  0  0  0  # atno 6909 bound_to 6896
  145.9553  140.7532  142.9484 H   0  0  0  0  0  0  0  0  0  0  0  0  # atno 7974 bound_to 7965
  155.8596  140.3454  155.5747 H   0  0  0  0  0  0  0  0  0  0  0  0  # atno 8008 bound_to 7997
  155.7948  140.0877  157.2009 H   0  0  0  0  0  0  0  0  0  0  0  0  # atno 8009 bound_to 7997
  154.4011  140.1476  156.3192 H   0  0  0  0  0  0  0  0  0  0  0  0  # atno 8010 bound_to 7997
  140.2299  143.3614  152.0895 H   0  0  0  0  0  0  0  0  0  0  0  0  # atno 10167 bound_to 10162
  156.3932  130.4376  149.7379 H   0  0  0  0  0  0  0  0  0  0  0  0  # atno 10718 bound_to 10713
  153.8010  135.3142  155.3390 H   0  0  0  0  0  0  0  0  0  0  0  0  # atno 10763 bound_to 10752
  154.8089  135.4680  154.0467 H   0  0  0  0  0  0  0  0  0  0  0  0  # atno 10764 bound_to 10752
  153.1815  135.6894  153.8560 H   0  0  0  0  0  0  0  0  0  0  0  0  # atno 10765 bound_to 10752
  140.3628  134.2107  155.7671 H   0  0  0  0  0  0  0  0  0  0  0  0  # atno 11005 bound_to 11000
  144.6804  140.2502  143.7332 LP  0  0  0  0  0  0  0  0  0  0  0  0  # atno 17320 bound_to 7965
  145.8115  139.2005  143.1990 LP  0  0  0  0  0  0  0  0  0  0  0  0  # atno 17321 bound_to 7965
  139.5113  144.6899  151.5787 LP  0  0  0  0  0  0  0  0  0  0  0  0  # atno 17342 bound_to 10162
  140.6192  143.9290  150.6513 LP  0  0  0  0  0  0  0  0  0  0  0  0  # atno 17343 bound_to 10162
  156.4424  130.7867  151.2888 LP  0  0  0  0  0  0  0  0  0  0  0  0  # atno 17370 bound_to 10713
  157.7500  131.0121  150.3370 LP  0  0  0  0  0  0  0  0  0  0  0  0  # atno 17371 bound_to 10713
  141.1979  133.8048  157.0607 LP  0  0  0  0  0  0  0  0  0  0  0  0  # atno 17394 bound_to 11000
  140.0613  134.9753  157.1310 LP  0  0  0  0  0  0  0  0  0  0  0  0  # atno 17395 bound_to 11000

$$$$
