AV-unprocessed.smi:258|AV-procd|sdf|1967|dock9
  -GOLD-   2262021123D 1   1.00000     0.00000
 Structure written by MMmdl.
 57 60  0  0  0  0  0  0  0  0  1 V2000
  143.0048  132.1749  149.2636 O   0  0  0  0  0  0  0  0  0  0  0  0
  143.6328  132.5234  150.4791 C   0  0  0  0  0  0  0  0  0  0  0  0
  145.0024  131.8413  150.5837 C   0  0  0  0  0  0  0  0  0  0  0  0
  145.5512  132.1039  151.8673 O   0  0  0  0  0  0  0  0  0  0  0  0
  146.7207  131.3570  152.1760 C   0  0  2  0  0  0  0  0  0  0  0  0
  146.3869  129.8739  152.4319 C   0  0  0  0  0  0  0  0  0  0  0  0
  147.6409  129.1234  152.9041 C   0  0  0  0  0  0  0  0  0  0  0  0
  148.2576  129.7962  154.1408 C   0  0  0  0  0  0  0  0  0  0  0  0
  148.4989  131.2197  153.8971 N   0  0  0  0  0  0  0  0  0  0  0  0
  149.3977  131.8204  154.7207 C   0  0  0  0  0  0  0  0  0  0  0  0
  150.1674  131.0113  155.4950 N   0  0  0  0  0  0  0  0  0  0  0  0
  151.0796  131.5279  156.3222 C   0  0  0  0  0  0  0  0  0  0  0  0
  151.3845  132.8090  156.5312 N   0  0  0  0  0  0  0  0  0  0  0  0
  150.6160  133.6316  155.7625 C   0  0  0  0  0  0  0  0  0  0  0  0
  149.6078  133.2286  154.8386 C   0  0  0  0  0  0  0  0  0  0  0  0
  149.0367  134.3570  154.2573 N   0  0  0  0  0  0  0  0  0  0  0  0
  149.6742  135.3600  154.7941 C   0  0  0  0  0  0  0  0  0  0  0  0
  150.6457  135.0143  155.7033 N   0  0  0  0  0  0  0  0  0  0  0  0
  151.5005  135.9282  156.4417 C   0  0  0  0  0  0  0  0  0  0  0  0
  150.7581  137.1964  156.9299 C   0  0  1  0  0  0  0  0  0  0  0  0
  150.4390  137.0920  158.4400 C   0  0  0  0  0  0  0  0  0  0  0  0
  149.6595  135.9441  158.7042 O   0  0  0  0  0  0  0  0  0  0  0  0
  151.4986  138.5069  156.5402 C   0  0  2  0  0  0  0  0  0  0  0  0
  150.7861  139.8082  156.8960 C   0  0  0  0  0  0  0  0  0  0  0  0
  151.3042  140.7650  155.8321 C   0  0  0  0  0  0  0  0  0  0  0  0
  151.3308  139.9512  154.6717 O   0  0  0  0  0  0  0  0  0  0  0  0
  151.8170  138.6659  155.0424 C   0  0  0  0  0  0  0  0  0  0  0  0
  147.3442  131.9875  153.4337 C   0  0  0  0  0  0  0  0  0  0  0  0
  142.4221  132.8761  149.0146 H   0  0  0  0  0  0  0  0  0  0  0  0
  143.7591  133.6063  150.4851 H   0  0  0  0  0  0  0  0  0  0  0  0
  142.9956  132.2677  151.3264 H   0  0  0  0  0  0  0  0  0  0  0  0
  144.9207  130.7734  150.3796 H   0  0  0  0  0  0  0  0  0  0  0  0
  145.6661  132.2649  149.8287 H   0  0  0  0  0  0  0  0  0  0  0  0
  147.4412  131.4382  151.3597 H   0  0  0  0  0  0  0  0  0  0  0  0
  145.6052  129.7964  153.1885 H   0  0  0  0  0  0  0  0  0  0  0  0
  145.9989  129.3988  151.5314 H   0  0  0  0  0  0  0  0  0  0  0  0
  147.3945  128.0854  153.1286 H   0  0  0  0  0  0  0  0  0  0  0  0
  148.3763  129.1008  152.0989 H   0  0  0  0  0  0  0  0  0  0  0  0
  147.5823  129.6991  154.9919 H   0  0  0  0  0  0  0  0  0  0  0  0
  149.1750  129.2716  154.4084 H   0  0  0  0  0  0  0  0  0  0  0  0
  151.6474  130.8121  156.8980 H   0  0  0  0  0  0  0  0  0  0  0  0
  149.4551  136.3864  154.5376 H   0  0  0  0  0  0  0  0  0  0  0  0
  151.9132  135.3783  157.2882 H   0  0  0  0  0  0  0  0  0  0  0  0
  152.3485  136.2041  155.8142 H   0  0  0  0  0  0  0  0  0  0  0  0
  149.8012  137.2295  156.4060 H   0  0  0  0  0  0  0  0  0  0  0  0
  151.3514  137.0380  159.0335 H   0  0  0  0  0  0  0  0  0  0  0  0
  149.8809  137.9575  158.7944 H   0  0  0  0  0  0  0  0  0  0  0  0
  148.9248  136.1970  159.2424 H   0  0  0  0  0  0  0  0  0  0  0  0
  152.4651  138.5232  157.0450 H   0  0  0  0  0  0  0  0  0  0  0  0
  149.7055  139.7172  156.7956 H   0  0  0  0  0  0  0  0  0  0  0  0
  151.0011  140.1495  157.9086 H   0  0  0  0  0  0  0  0  0  0  0  0
  150.6635  141.6369  155.6994 H   0  0  0  0  0  0  0  0  0  0  0  0
  152.3134  141.1066  156.0681 H   0  0  0  0  0  0  0  0  0  0  0  0
  152.8946  138.6276  154.8778 H   0  0  0  0  0  0  0  0  0  0  0  0
  151.3670  137.8983  154.4136 H   0  0  0  0  0  0  0  0  0  0  0  0
  147.6412  133.0123  153.2069 H   0  0  0  0  0  0  0  0  0  0  0  0
  146.6027  132.0305  154.2323 H   0  0  0  0  0  0  0  0  0  0  0  0
  1  2  1  0  0  0  0
  1 29  1  0  0  0  0
  2  3  1  0  0  0  0
  2 30  1  0  0  0  0
  2 31  1  0  0  0  0
  3  4  1  0  0  0  0
  3 32  1  0  0  0  0
  3 33  1  0  0  0  0
  4  5  1  0  0  0  0
  5 28  1  0  0  0  0
  5  6  1  0  0  0  0
  5 34  1  0  0  0  0
  6  7  1  0  0  0  0
  6 35  1  0  0  0  0
  6 36  1  0  0  0  0
  7  8  1  0  0  0  0
  7 37  1  0  0  0  0
  7 38  1  0  0  0  0
  8  9  1  0  0  0  0
  8 39  1  0  0  0  0
  8 40  1  0  0  0  0
  9 10  1  0  0  0  0
  9 28  1  0  0  0  0
 10 15  1  0  0  0  0
 10 11  2  0  0  0  0
 11 12  1  0  0  0  0
 12 13  2  0  0  0  0
 12 41  1  0  0  0  0
 13 14  1  0  0  0  0
 14 18  1  0  0  0  0
 14 15  2  0  0  0  0
 15 16  1  0  0  0  0
 16 17  2  0  0  0  0
 17 18  1  0  0  0  0
 17 42  1  0  0  0  0
 18 19  1  0  0  0  0
 19 20  1  0  0  0  0
 19 43  1  0  0  0  0
 19 44  1  0  0  0  0
 20 21  1  0  0  0  0
 20 23  1  0  0  0  0
 20 45  1  0  0  0  0
 21 22  1  0  0  0  0
 21 46  1  0  0  0  0
 21 47  1  0  0  0  0
 22 48  1  0  0  0  0
 23 27  1  0  0  0  0
 23 24  1  0  0  0  0
 23 49  1  0  0  0  0
 24 25  1  0  0  0  0
 24 50  1  0  0  0  0
 24 51  1  0  0  0  0
 25 26  1  0  0  0  0
 25 52  1  0  0  0  0
 25 53  1  0  0  0  0
 26 27  1  0  0  0  0
 27 54  1  0  0  0  0
 27 55  1  0  0  0  0
 28 56  1  0  0  0  0
 28 57  1  0  0  0  0
M  END
> <s_m_source_file>
AV-unprocessed.smi

> <i_m_source_file_index>
258

> <i_lp_mmshare_version>
43012

> <i_f3d_flags>
0

> <s_epik_input>
W09IXVtDSDJdW0NIMl1PW0NAQEhdMVtDSDJdW0NIMl1bQ0gyXU4oW0NIMl0xKWMobltjSF1uMiljKGMyMyluW2NIXW4zW0NIMl1bQ0BIXShbQ0gyXVtPSF0pW0NAQEhdNFtDSDJdW0NIMl1PW0NIMl00

> <s_epik_cmdline>
J2VwaWtfcHl0aG9uJywgJy1waCcsICc3LjAnLCAnLXRuJywgJzgnLCAnLW1hJywgJzIwMCcsICctbWV0YWxfYmluZGluZycsICctaW1hZScsICc8aW5maWxlLm1hZT4nLCAnLW9tYWUnLCAnPG91dGZpbGUubWFlPic=

> <r_lp_tautomer_probability>
1

> <r_epik_Ionization_Penalty>
0.00349036

> <r_epik_Ionization_Penalty_Charging>
0

> <r_epik_Ionization_Penalty_Neutral>
0.00349036

> <r_epik_State_Penalty>
0.00229798

> <r_epik_Charging_Adjusted_Penalty>
0.00229798

> <i_epik_Tot_Q>
0

> <i_epik_Tot_abs_Q>
0

> <r_epik_Metal_State_Penalty>
-0

> <b_epik_Metal_Only>
0

> <s_lp_Force_Field>
OPLS_2005

> <r_lp_Energy>
47.4534

> <b_lp_Chiralities_Consistent>
1

> <s_lp_Variant>
AV-unprocessed.smi:258-3

> <Gold.Version>
5.8.1

> <Gold.Id.Protein>
6NUR|6NUR_protein|mol2

> <Gold.PLP.Fitness>
54.9163

> <Gold.PLP.PLP>
-45.0131

> <Gold.PLP.part.hbond>
-4.8994

> <Gold.PLP.part.metal>
0.0000

> <Gold.PLP.part.buried>
-6.4175

> <Gold.PLP.part.nonpolar>
-35.0550

> <Gold.PLP.part.repulsive>
1.3379

> <Gold.PLP.ligand.clash>
0.0000

> <Gold.PLP.ligand.torsion>
1.2184

> <Gold.PLP.Chemscore.Hbond>
3.7225

> <Gold.PLP.Chemscore.CHOScore>
0.2059

> <Gold.PLP.Chemscore.Metal>
0.0000

> <Gold.Chemscore.Hbonds>
donor molecule, donor type, donor heavy atom, donor atom, acceptor molecule, acceptor atom, score
      L1  H     1    29       P1 10186  0.70
      P1  H  6896  6907       L1    22  1.00
      P1  H  7989  7998       L1    26  0.98
      P1  H 10785 10796       L1     1  0.81
      L1  C    17    42       P1  7948  0.25

> <Gold.PLP.Chemscore.Internal.Correction>
0.5549

> <Gold.Rescore>
     Score         DG    S(hbond)    S(metal)    S(lipo)     H(rot)  DE(clash)    DE(int)     intcor
     14.66     -16.93       3.45        0.00      85.47       3.94       0.03       2.24       ----

> <Gold.Chemscore.Fitness>
14.6588

> <Gold.Chemscore.DG>
-16.9335

> <Gold.Chemscore.ZeroCoef>
-5.4800

> <Gold.Chemscore.Hbond>
3.4515

> <Gold.Chemscore.Metal>
0.0000

> <Gold.Chemscore.Lipo>
85.4744

> <Gold.Chemscore.Internal_Hbond>
0.0000

> <Gold.Chemscore.DEClash>
0.0308

> <Gold.Chemscore.DEInternal>
2.2440

> <Gold.Chemscore.Rot>
3.9356

> <Gold.Chemscore.Internal.Correction>
   9.000000E+99

> <Gold.Chemscore.Hbonds>
donor molecule, donor type, donor heavy atom, donor atom, acceptor molecule, acceptor atom, score
      L1  H     1    29       P1 10186  0.66
      P1  H  6896  6907       L1    22  0.63
      P1  H  7989  7998       L1    26  0.55
      P1  H 10785 10796       L1     1  0.73

> <Gold.Chemscore.Hbond.Weighted>
-11.5281

> <Gold.Chemscore.Metal.Weighted>
-0.0000

> <Gold.Chemscore.Lipo.Weighted>
-10.0005

> <Gold.Chemscore.Internal_Hbond.Weighted>
0.0000

> <Gold.Chemscore.DEClash.Weighted>
0.0308

> <Gold.Chemscore.DEInternal.Weighted>
2.2440

> <Gold.Chemscore.Rot.Weighted>
10.0751

> <Gold.Chemscore.Internal.Correction.Weighted>
   9.000000E+99

> <Gold.Protein.RotatedTorsions>
[ 6907 6896 6895 6894 ] final  -72.61 input  -60.11 | X-H torsion
[ 7974 7965 7964 7962 ] final  -51.07 input  175.53 | X-H torsion
[ 8008 7997 7996 7995 ] final    4.05 input   59.86 | X-H torsion
[ 10167 10162 10161 10158 ] final   38.37 input  -65.29 | X-H torsion
[ 10718 10713 10712 10709 ] final    4.05 input   66.30 | X-H torsion
[ 10763 10752 10751 10750 ] final  -76.45 input  -60.55 | X-H torsion
[ 11005 11000 10999 10996 ] final   -6.53 input  -57.11 | X-H torsion

> <Gold.Protein.ActiveResidues>
 VAL166  LYS551  ARG553  GLY616  TRP617  ASP618  TYR619  PRO620  LYS621  CYS622 
 ASP623  PHE694  ASN695  SER759  ASP760  ASP761  ALA762  ILE779  LEU786  VAL792 
 PHE793  MET794  SER795  GLU796  ALA797  LYS798  CYS799  TRP800  GLU811  SER814 

> <Gold.Protein.RotatedAtoms>
  150.7163  134.5138  159.5620 H   0  0  0  0  0  0  0  0  0  0  0  0  # atno 6907 bound_to 6896
  152.2709  134.7931  160.0423 H   0  0  0  0  0  0  0  0  0  0  0  0  # atno 6908 bound_to 6896
  151.8611  133.3422  159.3741 H   0  0  0  0  0  0  0  0  0  0  0  0  # atno 6909 bound_to 6896
  145.9230  140.7817  142.9638 H   0  0  0  0  0  0  0  0  0  0  0  0  # atno 7974 bound_to 7965
  154.7111  140.2693  155.6628 H   0  0  0  0  0  0  0  0  0  0  0  0  # atno 8008 bound_to 7997
  156.2796  140.2753  156.1678 H   0  0  0  0  0  0  0  0  0  0  0  0  # atno 8009 bound_to 7997
  155.0633  140.0371  157.2574 H   0  0  0  0  0  0  0  0  0  0  0  0  # atno 8010 bound_to 7997
  140.3943  144.1810  150.6131 H   0  0  0  0  0  0  0  0  0  0  0  0  # atno 10167 bound_to 10162
  156.8869  130.5673  149.5651 H   0  0  0  0  0  0  0  0  0  0  0  0  # atno 10718 bound_to 10713
  154.4999  135.5797  153.6523 H   0  0  0  0  0  0  0  0  0  0  0  0  # atno 10763 bound_to 10752
  152.9877  135.6133  154.3015 H   0  0  0  0  0  0  0  0  0  0  0  0  # atno 10764 bound_to 10752
  154.2922  135.2848  155.2629 H   0  0  0  0  0  0  0  0  0  0  0  0  # atno 10765 bound_to 10752
  140.7030  133.8974  155.8696 H   0  0  0  0  0  0  0  0  0  0  0  0  # atno 11005 bound_to 11000
  144.6755  140.2005  143.7387 LP  0  0  0  0  0  0  0  0  0  0  0  0  # atno 17320 bound_to 7965
  145.8526  139.2183  143.1763 LP  0  0  0  0  0  0  0  0  0  0  0  0  # atno 17321 bound_to 7965
  140.4807  143.2380  151.8959 LP  0  0  0  0  0  0  0  0  0  0  0  0  # atno 17342 bound_to 10162
  139.4787  144.5272  151.8718 LP  0  0  0  0  0  0  0  0  0  0  0  0  # atno 17343 bound_to 10162
  156.0649  130.5694  150.9267 LP  0  0  0  0  0  0  0  0  0  0  0  0  # atno 17370 bound_to 10713
  157.6107  131.0936  150.8800 LP  0  0  0  0  0  0  0  0  0  0  0  0  # atno 17371 bound_to 10713
  141.0148  134.0970  157.4183 LP  0  0  0  0  0  0  0  0  0  0  0  0  # atno 17394 bound_to 11000
  139.8892  135.0103  156.6663 LP  0  0  0  0  0  0  0  0  0  0  0  0  # atno 17395 bound_to 11000

$$$$
