AV-unprocessed.smi:72|AV-procd|sdf|740|dock5
  -GOLD-   2262017 73D 1   1.00000     0.00000
 Structure written by MMmdl.
 28 29  0  0  0  0  0  0  0  0  2 V2000
  148.6973  136.6534  160.7675 N   0  0  0  0  0  0  0  0  0  0  0  0
  148.9288  137.0986  159.6108 C   0  0  0  0  0  0  0  0  0  0  0  0
  148.0181  138.0442  159.0040 N   0  0  0  0  0  0  0  0  0  0  0  0
  148.3159  138.5018  157.8268 C   0  0  0  0  0  0  0  0  0  0  0  0
  149.5340  138.1031  157.1287 N   0  0  0  0  0  0  0  0  0  0  0  0
  149.9008  138.6307  155.7490 C   0  0  1  0  0  0  0  0  0  0  0  0
  148.8843  138.3299  154.8349 O   0  0  0  0  0  0  0  0  0  0  0  0
  148.0368  139.4624  154.6648 C   0  0  2  0  0  0  0  0  0  0  0  0
  147.1873  139.3362  153.3885 C   0  0  0  0  0  0  0  0  0  0  0  0
  147.9974  138.9130  152.3127 O   0  0  0  0  0  0  0  0  0  0  0  0
  149.0438  140.6159  154.6852 C   0  0  2  0  0  0  0  0  0  0  0  0
  149.6561  140.7641  153.4140 O   0  0  0  0  0  0  0  0  0  0  0  0
  150.0298  140.1704  155.7651 C   0  0  2  0  0  0  0  0  0  0  0  0
  151.3466  140.6278  155.5186 O   0  0  0  0  0  0  0  0  0  0  0  0
  150.3828  137.1353  157.7319 C   0  0  0  0  0  0  0  0  0  0  0  0
  151.3802  136.7700  157.1089 O   0  0  0  0  0  0  0  0  0  0  0  0
  150.0605  136.6543  158.9646 N   0  5  0  0  0  0  0  0  0  0  0  0
  150.8120  138.0988  155.4695 H   0  0  0  0  0  0  0  0  0  0  0  0
  147.3866  139.5665  155.5354 H   0  0  0  0  0  0  0  0  0  0  0  0
  148.5689  141.5627  154.9441 H   0  0  0  0  0  0  0  0  0  0  0  0
  149.6952  140.5512  156.7315 H   0  0  0  0  0  0  0  0  0  0  0  0
  149.4008  136.0018  161.0830 H   0  0  0  0  0  0  0  0  0  0  0  0
  147.6729  139.2058  157.2991 H   0  0  0  0  0  0  0  0  0  0  0  0
  146.4089  138.5855  153.5277 H   0  0  0  0  0  0  0  0  0  0  0  0
  146.6941  140.2771  153.1418 H   0  0  0  0  0  0  0  0  0  0  0  0
  148.2643  138.0207  152.4741 H   0  0  0  0  0  0  0  0  0  0  0  0
  149.2276  140.1752  152.8113 H   0  0  0  0  0  0  0  0  0  0  0  0
  151.9452  140.0691  155.9924 H   0  0  0  0  0  0  0  0  0  0  0  0
  1  2  2  0  0  0  0
  1 22  1  0  0  0  0
  2 17  1  0  0  0  0
  2  3  1  0  0  0  0
  3  4  2  0  0  0  0
  4  5  1  0  0  0  0
  4 23  1  0  0  0  0
  5  6  1  0  0  0  0
  5 15  1  0  0  0  0
  6 18  1  0  0  0  0
  6 13  1  0  0  0  0
  6  7  1  0  0  0  0
  7  8  1  0  0  0  0
  8 19  1  0  0  0  0
  8  9  1  0  0  0  0
  8 11  1  0  0  0  0
  9 10  1  0  0  0  0
  9 24  1  0  0  0  0
  9 25  1  0  0  0  0
 10 26  1  0  0  0  0
 11 20  1  0  0  0  0
 11 12  1  0  0  0  0
 11 13  1  0  0  0  0
 12 27  1  0  0  0  0
 13 21  1  0  0  0  0
 13 14  1  0  0  0  0
 14 28  1  0  0  0  0
 15 16  2  0  0  0  0
 15 17  1  0  0  0  0
M  CHG  1  17  -1
M  END
> <s_m_source_file>
AV-unprocessed.smi

> <i_m_source_file_index>
72

> <i_lp_mmshare_version>
43012

> <i_f3d_flags>
0

> <s_epik_input>
W05IMl1jMW5bY0hdbihjKD1PKW4xKVtDQEBIXTJPW0NASF0oW0NIMl1bT0hdKVtDQEBIXShbT0hdKVtDQEhdMltPSF0=

> <s_epik_cmdline>
J2VwaWtfcHl0aG9uJywgJy1waCcsICc3LjAnLCAnLXRuJywgJzgnLCAnLW1hJywgJzIwMCcsICctbWV0YWxfYmluZGluZycsICctaW1hZScsICc8aW5maWxlLm1hZT4nLCAnLW9tYWUnLCAnPG91dGZpbGUubWFlPic=

> <r_lp_tautomer_probability>
7.17554e-07

> <r_epik_Ionization_Penalty>
12.8705

> <r_epik_Ionization_Penalty_Charging>
5.64144

> <r_epik_Ionization_Penalty_Neutral>
7.22905

> <r_epik_State_Penalty>
3.30104

> <r_epik_Charging_Adjusted_Penalty>
8.94249

> <i_epik_Tot_Q>
-1

> <i_epik_Tot_abs_Q>
1

> <r_epik_Metal_State_Penalty>
0.529074

> <b_epik_Metal_Only>
1

> <s_epik_Chemistry_Notes>
This compound contains an acetal/aminal-like group ( X-CH(R)-Y where X, Y are N, S, or O) that may be acid/base labile, releasing an aldehyde.

> <s_lp_Force_Field>
OPLS_2005

> <r_lp_Energy>
36.2844

> <b_lp_Chiralities_Consistent>
1

> <s_lp_Variant>
AV-unprocessed.smi:72-78

> <Gold.Version>
5.8.1

> <Gold.Id.Protein>
6NUR|6NUR_protein|mol2

> <Gold.PLP.Fitness>
38.9491

> <Gold.PLP.PLP>
-19.9087

> <Gold.PLP.part.hbond>
-7.5718

> <Gold.PLP.part.metal>
0.0000

> <Gold.PLP.part.buried>
-4.5350

> <Gold.PLP.part.nonpolar>
-8.6419

> <Gold.PLP.part.repulsive>
0.1335

> <Gold.PLP.ligand.clash>
0.0000

> <Gold.PLP.ligand.torsion>
0.0840

> <Gold.PLP.Chemscore.Hbond>
6.3957

> <Gold.PLP.Chemscore.CHOScore>
0.0000

> <Gold.PLP.Chemscore.Metal>
0.0000

> <Gold.Chemscore.Hbonds>
donor molecule, donor type, donor heavy atom, donor atom, acceptor molecule, acceptor atom, score
      L1  H    10    26       P1  7948  1.00
      L1  H    12    27       P1  7957  0.50
      P1  H  6896  6908       L1    17  1.82
      P1  H  6931  6943       L1     1  0.99
      P1  H  6934  6947       L1     3  0.11
      P1  H  7989  7998       L1    14  0.77
      P1  H  8011  8017       L1    12  1.00

> <Gold.PLP.Chemscore.Internal.Correction>
0.0213

> <Gold.Rescore>
     Score         DG    S(hbond)    S(metal)    S(lipo)     H(rot)  DE(clash)    DE(int)     intcor
     11.28     -11.49       4.07        0.00      23.47       4.04       0.01       0.20       ----

> <Gold.Chemscore.Fitness>
11.2808

> <Gold.Chemscore.DG>
-11.4907

> <Gold.Chemscore.ZeroCoef>
-5.4800

> <Gold.Chemscore.Hbond>
4.0740

> <Gold.Chemscore.Metal>
0.0000

> <Gold.Chemscore.Lipo>
23.4750

> <Gold.Chemscore.Internal_Hbond>
0.0000

> <Gold.Chemscore.DEClash>
0.0054

> <Gold.Chemscore.DEInternal>
0.2044

> <Gold.Chemscore.Rot>
4.0403

> <Gold.Chemscore.Internal.Correction>
   9.000000E+99

> <Gold.Chemscore.Hbonds>
donor molecule, donor type, donor heavy atom, donor atom, acceptor molecule, acceptor atom, score
      L1  H    10    26       P1  7948  0.93
      L1  H    12    27       P1  7957  0.48
      P1  H  6896  6908       L1    17  0.78
      P1  H  6931  6943       L1     1  0.11
      P1  H  6934  6947       L1     3  0.03
      P1  H  7989  7998       L1    14  0.55
      P1  H  8011  8017       L1    12  0.34

> <Gold.Chemscore.Hbond.Weighted>
-13.6072

> <Gold.Chemscore.Metal.Weighted>
-0.0000

> <Gold.Chemscore.Lipo.Weighted>
-2.7466

> <Gold.Chemscore.Internal_Hbond.Weighted>
0.0000

> <Gold.Chemscore.DEClash.Weighted>
0.0054

> <Gold.Chemscore.DEInternal.Weighted>
0.2044

> <Gold.Chemscore.Rot.Weighted>
10.3431

> <Gold.Chemscore.Internal.Correction.Weighted>
   9.000000E+99

> <Gold.Protein.RotatedTorsions>
[ 6907 6896 6895 6894 ] final -165.47 input  -60.11 | X-H torsion
[ 7974 7965 7964 7962 ] final -154.08 input  175.53 | X-H torsion
[ 8008 7997 7996 7995 ] final -152.59 input   59.86 | X-H torsion
[ 10167 10162 10161 10158 ] final -118.92 input  -65.29 | X-H torsion
[ 10718 10713 10712 10709 ] final -131.08 input   66.30 | X-H torsion
[ 10763 10752 10751 10750 ] final -152.36 input  -60.55 | X-H torsion
[ 11005 11000 10999 10996 ] final  -22.76 input  -57.11 | X-H torsion

> <Gold.Protein.ActiveResidues>
 VAL166  LYS551  ARG553  GLY616  TRP617  ASP618  TYR619  PRO620  LYS621  CYS622 
 ASP623  PHE694  ASN695  SER759  ASP760  ASP761  ALA762  ILE779  LEU786  VAL792 
 PHE793  MET794  SER795  GLU796  ALA797  LYS798  CYS799  TRP800  GLU811  SER814 

> <Gold.Protein.RotatedAtoms>
  151.4281  133.3678  159.2764 H   0  0  0  0  0  0  0  0  0  0  0  0  # atno 6907 bound_to 6896
  150.9245  134.8663  159.7521 H   0  0  0  0  0  0  0  0  0  0  0  0  # atno 6908 bound_to 6896
  152.4998  134.4221  159.9536 H   0  0  0  0  0  0  0  0  0  0  0  0  # atno 6909 bound_to 6896
  144.7707  140.4437  143.5909 H   0  0  0  0  0  0  0  0  0  0  0  0  # atno 7974 bound_to 7965
  155.6576  140.0719  157.2565 H   0  0  0  0  0  0  0  0  0  0  0  0  # atno 8008 bound_to 7997
  154.4149  140.1722  156.1792 H   0  0  0  0  0  0  0  0  0  0  0  0  # atno 8009 bound_to 7997
  155.9724  140.3361  155.6591 H   0  0  0  0  0  0  0  0  0  0  0  0  # atno 8010 bound_to 7997
  140.0523  143.5048  152.2075 H   0  0  0  0  0  0  0  0  0  0  0  0  # atno 10167 bound_to 10162
  156.2208  130.6977  151.0753 H   0  0  0  0  0  0  0  0  0  0  0  0  # atno 10718 bound_to 10713
  154.7999  135.3238  154.7576 H   0  0  0  0  0  0  0  0  0  0  0  0  # atno 10763 bound_to 10752
  153.8247  135.6884  153.4827 H   0  0  0  0  0  0  0  0  0  0  0  0  # atno 10764 bound_to 10752
  153.1709  135.4623  154.9845 H   0  0  0  0  0  0  0  0  0  0  0  0  # atno 10765 bound_to 10752
  140.8687  133.7736  156.0161 H   0  0  0  0  0  0  0  0  0  0  0  0  # atno 11005 bound_to 11000
  145.6332  139.1539  143.2957 LP  0  0  0  0  0  0  0  0  0  0  0  0  # atno 17320 bound_to 7965
  146.1852  140.6434  142.9171 LP  0  0  0  0  0  0  0  0  0  0  0  0  # atno 17321 bound_to 7965
  139.5945  144.7562  151.3319 LP  0  0  0  0  0  0  0  0  0  0  0  0  # atno 17342 bound_to 10162
  140.7211  143.7133  150.7752 LP  0  0  0  0  0  0  0  0  0  0  0  0  # atno 17343 bound_to 10162
  157.7086  131.0745  150.6579 LP  0  0  0  0  0  0  0  0  0  0  0  0  # atno 17370 bound_to 10713
  156.6642  130.4521  149.5677 LP  0  0  0  0  0  0  0  0  0  0  0  0  # atno 17371 bound_to 10713
  140.8598  134.2854  157.5239 LP  0  0  0  0  0  0  0  0  0  0  0  0  # atno 17394 bound_to 11000
  139.8711  134.9512  156.4078 LP  0  0  0  0  0  0  0  0  0  0  0  0  # atno 17395 bound_to 11000

$$$$
