AV-unprocessed.smi:3345|AV-procd|sdf|12903|dock5
  -GOLD-   2272019313D 1   1.00000     0.00000
 Structure written by MMmdl.
 41 42  0  0  0  0  0  0  0  0  2 V2000
  146.1285  139.4998  154.2785 C   0  0  0  0  0  0  0  0  0  0  0  0
  146.8425  138.4641  153.4000 C   0  0  2  0  0  0  0  0  0  0  0  0
  146.5085  137.0187  153.8345 C   0  0  0  0  0  0  0  0  0  0  0  0
  146.3793  136.0768  152.6921 N   0  3  0  0  0  0  0  0  0  0  0  0
  146.2612  134.6632  153.1204 C   0  0  0  0  0  0  0  0  0  0  0  0
  146.2045  133.7345  151.8951 C   0  0  0  0  0  0  0  0  0  0  0  0
  145.1316  134.1203  151.0448 O   0  0  0  0  0  0  0  0  0  0  0  0
  145.2816  135.4510  150.5648 C   0  0  0  0  0  0  0  0  0  0  0  0
  145.2854  136.4250  151.7539 C   0  0  0  0  0  0  0  0  0  0  0  0
  148.2858  138.6944  153.4508 N   0  0  0  0  0  0  0  0  0  0  0  0
  149.0723  138.5345  154.5281 C   0  0  0  0  0  0  0  0  0  0  0  0
  148.6687  138.0797  155.5985 O   0  0  0  0  0  0  0  0  0  0  0  0
  150.5240  139.0107  154.3779 C   0  0  2  0  0  0  0  0  0  0  0  0
  151.5434  137.8569  154.4633 C   0  0  0  0  0  0  0  0  0  0  0  0
  150.7951  140.0596  155.3537 N   0  0  0  0  0  0  0  0  0  0  0  0
  150.2037  141.2435  155.5270 C   0  0  0  0  0  0  0  0  0  0  0  0
  150.6652  141.9297  156.5629 N   0  0  0  0  0  0  0  0  0  0  0  0
  151.6087  141.0524  157.0163 C   0  0  0  0  0  0  0  0  0  0  0  0
  151.7100  139.9065  156.3439 N   0  0  0  0  0  0  0  0  0  0  0  0
  145.0472  139.3631  154.2438 H   0  0  0  0  0  0  0  0  0  0  0  0
  146.3419  140.5146  153.9405 H   0  0  0  0  0  0  0  0  0  0  0  0
  146.4405  139.4235  155.3207 H   0  0  0  0  0  0  0  0  0  0  0  0
  146.4791  138.6125  152.3823 H   0  0  0  0  0  0  0  0  0  0  0  0
  147.3143  136.6674  154.4811 H   0  0  0  0  0  0  0  0  0  0  0  0
  145.6011  136.9964  154.4398 H   0  0  0  0  0  0  0  0  0  0  0  0
  147.1132  134.3912  153.7443 H   0  0  0  0  0  0  0  0  0  0  0  0
  145.3632  134.5386  153.7275 H   0  0  0  0  0  0  0  0  0  0  0  0
  147.1451  133.7601  151.3446 H   0  0  0  0  0  0  0  0  0  0  0  0
  146.0507  132.7030  152.2123 H   0  0  0  0  0  0  0  0  0  0  0  0
  146.2006  135.5422  149.9833 H   0  0  0  0  0  0  0  0  0  0  0  0
  144.4545  135.6803  149.8930 H   0  0  0  0  0  0  0  0  0  0  0  0
  144.3272  136.3851  152.2742 H   0  0  0  0  0  0  0  0  0  0  0  0
  145.4050  137.4434  151.3861 H   0  0  0  0  0  0  0  0  0  0  0  0
  148.7126  139.0583  152.6109 H   0  0  0  0  0  0  0  0  0  0  0  0
  150.6221  139.4576  153.3871 H   0  0  0  0  0  0  0  0  0  0  0  0
  151.3445  137.0997  153.7041 H   0  0  0  0  0  0  0  0  0  0  0  0
  151.5248  137.3622  155.4353 H   0  0  0  0  0  0  0  0  0  0  0  0
  152.5573  138.2230  154.3000 H   0  0  0  0  0  0  0  0  0  0  0  0
  149.4124  141.6070  154.8878 H   0  0  0  0  0  0  0  0  0  0  0  0
  152.2238  141.2548  157.8808 H   0  0  0  0  0  0  0  0  0  0  0  0
  147.2421  136.1418  152.1707 H   0  0  0  0  0  0  0  0  0  0  0  0
  1  2  1  0  0  0  0
  1 20  1  0  0  0  0
  1 21  1  0  0  0  0
  1 22  1  0  0  0  0
  2  3  1  0  0  0  0
  2 10  1  0  0  0  0
  2 23  1  0  0  0  0
  3  4  1  0  0  0  0
  3 24  1  0  0  0  0
  3 25  1  0  0  0  0
  4  9  1  0  0  0  0
  4  5  1  0  0  0  0
  4 41  1  0  0  0  0
  5  6  1  0  0  0  0
  5 26  1  0  0  0  0
  5 27  1  0  0  0  0
  6  7  1  0  0  0  0
  6 28  1  0  0  0  0
  6 29  1  0  0  0  0
  7  8  1  0  0  0  0
  8  9  1  0  0  0  0
  8 30  1  0  0  0  0
  8 31  1  0  0  0  0
  9 32  1  0  0  0  0
  9 33  1  0  0  0  0
 10 11  1  0  0  0  0
 10 34  1  0  0  0  0
 11 12  2  0  0  0  0
 11 13  1  0  0  0  0
 13 14  1  0  0  0  0
 13 15  1  0  0  0  0
 13 35  1  0  0  0  0
 14 36  1  0  0  0  0
 14 37  1  0  0  0  0
 14 38  1  0  0  0  0
 15 19  1  0  0  0  0
 15 16  1  0  0  0  0
 16 17  2  0  0  0  0
 16 39  1  0  0  0  0
 17 18  1  0  0  0  0
 18 19  2  0  0  0  0
 18 40  1  0  0  0  0
M  CHG  1   4   1
M  END
> <s_m_source_file>
AV-unprocessed.smi

> <i_m_source_file_index>
3345

> <i_lp_mmshare_version>
43012

> <i_f3d_flags>
0

> <s_epik_input>
W0NIMl0xW0NIMl1PW0NIMl1bQ0gyXU4xW0NIMl1bQ0BASF0oW0NIM10pW05IXUMoPU8pW0NASF0oW0NIM10pbjJbY0hdbltjSF1uMg==

> <s_epik_cmdline>
J2VwaWtfcHl0aG9uJywgJy1waCcsICc3LjAnLCAnLXRuJywgJzgnLCAnLW1hJywgJzIwMCcsICctbWV0YWxfYmluZGluZycsICctaW1hZScsICc8aW5maWxlLm1hZT4nLCAnLW9tYWUnLCAnPG91dGZpbGUubWFlPic=

> <r_lp_tautomer_probability>
1

> <r_epik_Ionization_Penalty>
0.71326

> <r_epik_Ionization_Penalty_Charging>
0.713252

> <r_epik_Ionization_Penalty_Neutral>
8.27671e-06

> <r_epik_State_Penalty>
0.737017

> <r_epik_Charging_Adjusted_Penalty>
1.45027

> <i_epik_Tot_Q>
1

> <i_epik_Tot_abs_Q>
1

> <r_epik_Metal_State_Penalty>
0.73702

> <b_epik_Metal_Only>
0

> <s_lp_Force_Field>
OPLS_2005

> <r_lp_Energy>
25.9312

> <b_lp_Chiralities_Consistent>
1

> <s_lp_Variant>
AV-unprocessed.smi:3345-5

> <Gold.Version>
5.8.1

> <Gold.Id.Protein>
6NUR|6NUR_protein|mol2

> <Gold.PLP.Fitness>
37.0115

> <Gold.PLP.PLP>
-29.1491

> <Gold.PLP.part.hbond>
-3.0000

> <Gold.PLP.part.metal>
0.0000

> <Gold.PLP.part.buried>
-3.2339

> <Gold.PLP.part.nonpolar>
-23.2749

> <Gold.PLP.part.repulsive>
0.3094

> <Gold.PLP.ligand.clash>
0.0000

> <Gold.PLP.ligand.torsion>
0.6436

> <Gold.PLP.Chemscore.Hbond>
3.0000

> <Gold.PLP.Chemscore.CHOScore>
0.0000

> <Gold.PLP.Chemscore.Metal>
0.0000

> <Gold.Chemscore.Hbonds>
donor molecule, donor type, donor heavy atom, donor atom, acceptor molecule, acceptor atom, score
      L1  H     4    41       P1  7948  2.00
      L1  H    10    34       P1  7957  1.00

> <Gold.PLP.Chemscore.Internal.Correction>
0.1495

> <Gold.Rescore>
     Score         DG    S(hbond)    S(metal)    S(lipo)     H(rot)  DE(clash)    DE(int)     intcor
      9.23     -10.58       1.92        0.00      46.01       2.61       0.01       1.34       ----

> <Gold.Chemscore.Fitness>
9.2339

> <Gold.Chemscore.DG>
-10.5848

> <Gold.Chemscore.ZeroCoef>
-5.4800

> <Gold.Chemscore.Hbond>
1.9201

> <Gold.Chemscore.Metal>
0.0000

> <Gold.Chemscore.Lipo>
46.0087

> <Gold.Chemscore.Internal_Hbond>
0.0000

> <Gold.Chemscore.DEClash>
0.0134

> <Gold.Chemscore.DEInternal>
1.3374

> <Gold.Chemscore.Rot>
2.6138

> <Gold.Chemscore.Internal.Correction>
   9.000000E+99

> <Gold.Chemscore.Hbonds>
donor molecule, donor type, donor heavy atom, donor atom, acceptor molecule, acceptor atom, score
      L1  H     4    41       P1  7948  1.00
      L1  H    10    34       P1  7957  0.99

> <Gold.Chemscore.Hbond.Weighted>
-6.4130

> <Gold.Chemscore.Metal.Weighted>
-0.0000

> <Gold.Chemscore.Lipo.Weighted>
-5.3830

> <Gold.Chemscore.Internal_Hbond.Weighted>
0.0000

> <Gold.Chemscore.DEClash.Weighted>
0.0134

> <Gold.Chemscore.DEInternal.Weighted>
1.3374

> <Gold.Chemscore.Rot.Weighted>
6.6912

> <Gold.Chemscore.Internal.Correction.Weighted>
   9.000000E+99

> <Gold.Protein.RotatedTorsions>
[ 6907 6896 6895 6894 ] final  -20.05 input  -60.11 | X-H torsion
[ 7974 7965 7964 7962 ] final  -35.76 input  175.53 | X-H torsion
[ 8008 7997 7996 7995 ] final  -26.73 input   59.86 | X-H torsion
[ 10167 10162 10161 10158 ] final  -49.37 input  -65.29 | X-H torsion
[ 10718 10713 10712 10709 ] final   50.45 input   66.30 | X-H torsion
[ 10763 10752 10751 10750 ] final -170.34 input  -60.55 | X-H torsion
[ 11005 11000 10999 10996 ] final -176.49 input  -57.11 | X-H torsion

> <Gold.Protein.ActiveResidues>
 VAL166  LYS551  ARG553  GLY616  TRP617  ASP618  TYR619  PRO620  LYS621  CYS622 
 ASP623  PHE694  ASN695  SER759  ASP760  ASP761  ALA762  ILE779  LEU786  VAL792 
 PHE793  MET794  SER795  GLU796  ALA797  LYS798  CYS799  TRP800  GLU811  SER814 

> <Gold.Protein.RotatedAtoms>
  151.2540  135.0632  159.9072 H   0  0  0  0  0  0  0  0  0  0  0  0  # atno 6907 bound_to 6896
  152.5376  134.0302  159.8031 H   0  0  0  0  0  0  0  0  0  0  0  0  # atno 6908 bound_to 6896
  151.0514  133.5571  159.2673 H   0  0  0  0  0  0  0  0  0  0  0  0  # atno 6909 bound_to 6896
  146.0719  140.6198  142.8948 H   0  0  0  0  0  0  0  0  0  0  0  0  # atno 7974 bound_to 7965
  154.4411  140.1891  156.0822 H   0  0  0  0  0  0  0  0  0  0  0  0  # atno 8008 bound_to 7997
  156.0430  140.3317  155.7239 H   0  0  0  0  0  0  0  0  0  0  0  0  # atno 8009 bound_to 7997
  155.5671  140.0609  157.2806 H   0  0  0  0  0  0  0  0  0  0  0  0  # atno 8010 bound_to 7997
  140.6688  143.2700  151.4205 H   0  0  0  0  0  0  0  0  0  0  0  0  # atno 10167 bound_to 10162
  157.4886  130.8361  149.8175 H   0  0  0  0  0  0  0  0  0  0  0  0  # atno 10718 bound_to 10713
  154.6426  135.2900  155.0085 H   0  0  0  0  0  0  0  0  0  0  0  0  # atno 10763 bound_to 10752
  154.1206  135.6548  153.4906 H   0  0  0  0  0  0  0  0  0  0  0  0  # atno 10764 bound_to 10752
  153.0334  135.5287  154.7299 H   0  0  0  0  0  0  0  0  0  0  0  0  # atno 10765 bound_to 10752
  140.4515  134.6339  157.4803 H   0  0  0  0  0  0  0  0  0  0  0  0  # atno 11005 bound_to 11000
  144.7237  140.4456  143.6989 LP  0  0  0  0  0  0  0  0  0  0  0  0  # atno 17320 bound_to 7965
  145.6376  139.1545  143.2934 LP  0  0  0  0  0  0  0  0  0  0  0  0  # atno 17321 bound_to 7965
  139.5948  144.1422  152.2130 LP  0  0  0  0  0  0  0  0  0  0  0  0  # atno 17342 bound_to 10162
  140.0787  144.5718  150.7138 LP  0  0  0  0  0  0  0  0  0  0  0  0  # atno 17343 bound_to 10162
  156.0160  130.3813  150.2109 LP  0  0  0  0  0  0  0  0  0  0  0  0  # atno 17370 bound_to 10713
  157.0297  131.0003  151.3316 LP  0  0  0  0  0  0  0  0  0  0  0  0  # atno 17371 bound_to 10713
  140.0004  134.6846  155.9540 LP  0  0  0  0  0  0  0  0  0  0  0  0  # atno 17394 bound_to 11000
  141.1662  133.6537  156.4487 LP  0  0  0  0  0  0  0  0  0  0  0  0  # atno 17395 bound_to 11000

$$$$
