AV-unprocessed.smi:712|AV-procd|sdf|3470|dock8
  -GOLD-   22720 0463D 1   1.00000     0.00000
 Structure written by MMmdl.
 51 52  0  0  0  0  0  0  0  0  2 V2000
  151.4416  145.6635  159.4793 C   0  0  0  0  0  0  0  0  0  0  0  0
  152.2378  144.4141  159.7950 C   0  0  0  0  0  0  0  0  0  0  0  0
  152.3856  143.3617  158.8111 C   0  0  0  0  0  0  0  0  0  0  0  0
  153.1001  142.2697  159.1243 C   0  0  0  0  0  0  0  0  0  0  0  0
  153.7096  142.1158  160.3827 N   0  0  0  0  0  0  0  0  0  0  0  0
  154.4671  140.8754  160.6185 C   0  0  0  0  0  0  0  0  0  0  0  0
  153.9573  139.6957  159.7794 C   0  0  0  0  0  0  0  0  0  0  0  0
  154.5600  139.3399  158.7660 O   0  0  0  0  0  0  0  0  0  0  0  0
  152.8438  139.0926  160.2224 N   0  0  0  0  0  0  0  0  0  0  0  0
  152.1639  137.9896  159.5517 C   0  0  0  0  0  0  0  0  0  0  0  0
  151.3848  138.4749  158.3157 C   0  0  2  0  0  0  0  0  0  0  0  0
  149.9940  137.8091  158.2187 C   0  0  0  0  0  0  0  0  0  0  0  0
  149.2812  138.1954  156.9729 N   0  3  1  0  0  0  0  0  0  0  0  0
  148.6654  139.5505  156.9951 C   0  0  0  0  0  0  0  0  0  0  0  0
  147.8265  139.8566  155.7351 C   0  0  0  0  0  0  0  0  0  0  0  0
  147.3129  141.3062  155.7246 C   0  0  0  0  0  0  0  0  0  0  0  0
  146.6533  138.8723  155.6168 C   0  0  0  0  0  0  0  0  0  0  0  0
  150.1409  137.9548  155.7884 C   0  0  0  0  0  0  0  0  0  0  0  0
  151.5154  138.6261  155.9550 C   0  0  0  0  0  0  0  0  0  0  0  0
  152.1266  138.1463  157.1448 O   0  0  0  0  0  0  0  0  0  0  0  0
  153.6016  143.0677  161.3586 C   0  0  0  0  0  0  0  0  0  0  0  0
  154.1240  142.9331  162.4662 O   0  0  0  0  0  0  0  0  0  0  0  0
  152.8217  144.2592  161.0039 C   0  0  0  0  0  0  0  0  0  0  0  0
  151.1240  145.6758  158.4364 H   0  0  0  0  0  0  0  0  0  0  0  0
  152.0426  146.5549  159.6617 H   0  0  0  0  0  0  0  0  0  0  0  0
  150.5518  145.7138  160.1072 H   0  0  0  0  0  0  0  0  0  0  0  0
  151.9254  143.4486  157.8377 H   0  0  0  0  0  0  0  0  0  0  0  0
  153.2423  141.4470  158.4387 H   0  0  0  0  0  0  0  0  0  0  0  0
  155.5251  141.0181  160.3942 H   0  0  0  0  0  0  0  0  0  0  0  0
  154.4306  140.6175  161.6788 H   0  0  0  0  0  0  0  0  0  0  0  0
  152.4217  139.4421  161.0706 H   0  0  0  0  0  0  0  0  0  0  0  0
  152.8698  137.2023  159.2812 H   0  0  0  0  0  0  0  0  0  0  0  0
  151.4729  137.5483  160.2706 H   0  0  0  0  0  0  0  0  0  0  0  0
  151.2764  139.5586  158.3823 H   0  0  0  0  0  0  0  0  0  0  0  0
  150.1154  136.7248  158.2109 H   0  0  0  0  0  0  0  0  0  0  0  0
  149.3962  138.0371  159.1000 H   0  0  0  0  0  0  0  0  0  0  0  0
  148.0597  139.6709  157.8931 H   0  0  0  0  0  0  0  0  0  0  0  0
  149.4529  140.3024  157.0649 H   0  0  0  0  0  0  0  0  0  0  0  0
  148.4434  139.7138  154.8485 H   0  0  0  0  0  0  0  0  0  0  0  0
  146.6834  141.5106  156.5913 H   0  0  0  0  0  0  0  0  0  0  0  0
  146.7207  141.5051  154.8308 H   0  0  0  0  0  0  0  0  0  0  0  0
  148.1348  142.0226  155.7332 H   0  0  0  0  0  0  0  0  0  0  0  0
  145.9747  138.9578  156.4665 H   0  0  0  0  0  0  0  0  0  0  0  0
  147.0064  137.8414  155.5754 H   0  0  0  0  0  0  0  0  0  0  0  0
  146.0752  139.0563  154.7105 H   0  0  0  0  0  0  0  0  0  0  0  0
  150.2785  136.8783  155.6782 H   0  0  0  0  0  0  0  0  0  0  0  0
  149.6492  138.2938  154.8760 H   0  0  0  0  0  0  0  0  0  0  0  0
  152.1569  138.3815  155.1084 H   0  0  0  0  0  0  0  0  0  0  0  0
  151.4289  139.7131  155.9834 H   0  0  0  0  0  0  0  0  0  0  0  0
  152.7136  145.0400  161.7428 H   0  0  0  0  0  0  0  0  0  0  0  0
  148.5022  137.5590  156.8779 H   0  0  0  0  0  0  0  0  0  0  0  0
  1  2  1  0  0  0  0
  1 24  1  0  0  0  0
  1 25  1  0  0  0  0
  1 26  1  0  0  0  0
  2 23  2  0  0  0  0
  2  3  1  0  0  0  0
  3  4  2  0  0  0  0
  3 27  1  0  0  0  0
  4  5  1  0  0  0  0
  4 28  1  0  0  0  0
  5  6  1  0  0  0  0
  5 21  1  0  0  0  0
  6  7  1  0  0  0  0
  6 29  1  0  0  0  0
  6 30  1  0  0  0  0
  7  8  2  0  0  0  0
  7  9  1  0  0  0  0
  9 10  1  0  0  0  0
  9 31  1  0  0  0  0
 10 11  1  0  0  0  0
 10 32  1  0  0  0  0
 10 33  1  0  0  0  0
 11 20  1  0  0  0  0
 11 12  1  0  0  0  0
 11 34  1  0  0  0  0
 12 13  1  0  0  0  0
 12 35  1  0  0  0  0
 12 36  1  0  0  0  0
 13 14  1  0  0  0  0
 13 18  1  0  0  0  0
 13 51  1  0  0  0  0
 14 15  1  0  0  0  0
 14 37  1  0  0  0  0
 14 38  1  0  0  0  0
 15 16  1  0  0  0  0
 15 17  1  0  0  0  0
 15 39  1  0  0  0  0
 16 40  1  0  0  0  0
 16 41  1  0  0  0  0
 16 42  1  0  0  0  0
 17 43  1  0  0  0  0
 17 44  1  0  0  0  0
 17 45  1  0  0  0  0
 18 19  1  0  0  0  0
 18 46  1  0  0  0  0
 18 47  1  0  0  0  0
 19 20  1  0  0  0  0
 19 48  1  0  0  0  0
 19 49  1  0  0  0  0
 21 22  2  0  0  0  0
 21 23  1  0  0  0  0
 23 50  1  0  0  0  0
M  CHG  1  13   1
M  END
> <s_m_source_file>
AV-unprocessed.smi

> <i_m_source_file_index>
712

> <i_lp_mmshare_version>
43012

> <i_f3d_flags>
0

> <s_epik_input>
W0NIM11jMVtjSF1bY0hdbihjKD1PKVtjSF0xKVtDSDJdQyg9TylbTkhdW0NIMl1bQ0BASF0yW0NIMl1OKFtDSDJdW0NIMl1PMilbQ0gyXVtDSF0oW0NIM10pW0NIM10=

> <s_epik_cmdline>
J2VwaWtfcHl0aG9uJywgJy1waCcsICc3LjAnLCAnLXRuJywgJzgnLCAnLW1hJywgJzIwMCcsICctbWV0YWxfYmluZGluZycsICctaW1hZScsICc8aW5maWxlLm1hZT4nLCAnLW9tYWUnLCAnPG91dGZpbGUubWFlPic=

> <r_lp_tautomer_probability>
1

> <r_epik_Ionization_Penalty>
0.0975935

> <r_epik_Ionization_Penalty_Charging>
0.0975934

> <r_epik_Ionization_Penalty_Neutral>
6.27044e-08

> <r_epik_State_Penalty>
0.0877056

> <r_epik_Charging_Adjusted_Penalty>
0.185299

> <i_epik_Tot_Q>
1

> <i_epik_Tot_abs_Q>
1

> <r_epik_Metal_State_Penalty>
0.0877109

> <b_epik_Metal_Only>
0

> <s_lp_Force_Field>
OPLS_2005

> <r_lp_Energy>
30.0943

> <b_lp_Chiralities_Consistent>
1

> <s_lp_Variant>
AV-unprocessed.smi:712-3

> <Gold.Version>
5.8.1

> <Gold.Id.Protein>
6NUR|6NUR_protein|mol2

> <Gold.PLP.Fitness>
50.3316

> <Gold.PLP.PLP>
-49.9293

> <Gold.PLP.part.hbond>
-2.0000

> <Gold.PLP.part.metal>
0.0000

> <Gold.PLP.part.buried>
-2.7499

> <Gold.PLP.part.nonpolar>
-43.7458

> <Gold.PLP.part.repulsive>
0.1968

> <Gold.PLP.ligand.clash>
0.0000

> <Gold.PLP.ligand.torsion>
1.3304

> <Gold.PLP.Chemscore.Hbond>
1.0000

> <Gold.PLP.Chemscore.CHOScore>
0.0000

> <Gold.PLP.Chemscore.Metal>
0.0000

> <Gold.Chemscore.Hbonds>
donor molecule, donor type, donor heavy atom, donor atom, acceptor molecule, acceptor atom, score
      P1  H  7997  8010       L1     8  1.00

> <Gold.PLP.Chemscore.Internal.Correction>
0.0631

> <Gold.Rescore>
     Score         DG    S(hbond)    S(metal)    S(lipo)     H(rot)  DE(clash)    DE(int)     intcor
     16.60     -17.94       0.99        0.00     119.52       1.89       0.03       1.32       ----

> <Gold.Chemscore.Fitness>
16.5958

> <Gold.Chemscore.DG>
-17.9420

> <Gold.Chemscore.ZeroCoef>
-5.4800

> <Gold.Chemscore.Hbond>
0.9909

> <Gold.Chemscore.Metal>
0.0000

> <Gold.Chemscore.Lipo>
119.5157

> <Gold.Chemscore.Internal_Hbond>
0.0000

> <Gold.Chemscore.DEClash>
0.0295

> <Gold.Chemscore.DEInternal>
1.3166

> <Gold.Chemscore.Rot>
1.8871

> <Gold.Chemscore.Internal.Correction>
   9.000000E+99

> <Gold.Chemscore.Hbonds>
donor molecule, donor type, donor heavy atom, donor atom, acceptor molecule, acceptor atom, score
      P1  H  7997  8010       L1     8  1.00

> <Gold.Chemscore.Hbond.Weighted>
-3.3095

> <Gold.Chemscore.Metal.Weighted>
-0.0000

> <Gold.Chemscore.Lipo.Weighted>
-13.9833

> <Gold.Chemscore.Internal_Hbond.Weighted>
0.0000

> <Gold.Chemscore.DEClash.Weighted>
0.0295

> <Gold.Chemscore.DEInternal.Weighted>
1.3166

> <Gold.Chemscore.Rot.Weighted>
4.8309

> <Gold.Chemscore.Internal.Correction.Weighted>
   9.000000E+99

> <Gold.Protein.RotatedTorsions>
[ 6907 6896 6895 6894 ] final  -13.44 input  -60.11 | X-H torsion
[ 7974 7965 7964 7962 ] final  131.91 input  175.53 | X-H torsion
[ 8008 7997 7996 7995 ] final   11.48 input   59.86 | X-H torsion
[ 10167 10162 10161 10158 ] final  -97.39 input  -65.29 | X-H torsion
[ 10718 10713 10712 10709 ] final  -22.61 input   66.30 | X-H torsion
[ 10763 10752 10751 10750 ] final   25.08 input  -60.55 | X-H torsion
[ 11005 11000 10999 10996 ] final  155.02 input  -57.11 | X-H torsion

> <Gold.Protein.ActiveResidues>
 VAL166  LYS551  ARG553  GLY616  TRP617  ASP618  TYR619  PRO620  LYS621  CYS622 
 ASP623  PHE694  ASN695  SER759  ASP760  ASP761  ALA762  ILE779  LEU786  VAL792 
 PHE793  MET794  SER795  GLU796  ALA797  LYS798  CYS799  TRP800  GLU811  SER814 

> <Gold.Protein.RotatedAtoms>
  151.3549  135.0892  159.9414 H   0  0  0  0  0  0  0  0  0  0  0  0  # atno 6907 bound_to 6896
  152.5177  133.9316  159.7593 H   0  0  0  0  0  0  0  0  0  0  0  0  # atno 6908 bound_to 6896
  150.9699  133.6301  159.2769 H   0  0  0  0  0  0  0  0  0  0  0  0  # atno 6909 bound_to 6896
  145.0023  139.4300  143.5286 H   0  0  0  0  0  0  0  0  0  0  0  0  # atno 7974 bound_to 7965
  154.8075  140.2862  155.5877 H   0  0  0  0  0  0  0  0  0  0  0  0  # atno 8008 bound_to 7997
  156.2984  140.2574  156.2885 H   0  0  0  0  0  0  0  0  0  0  0  0  # atno 8009 bound_to 7997
  154.9486  140.0380  157.2122 H   0  0  0  0  0  0  0  0  0  0  0  0  # atno 8010 bound_to 7997
  140.2840  143.3264  152.0413 H   0  0  0  0  0  0  0  0  0  0  0  0  # atno 10167 bound_to 10162
  156.5022  130.4590  149.6695 H   0  0  0  0  0  0  0  0  0  0  0  0  # atno 10718 bound_to 10713
  153.0717  135.6591  154.0232 H   0  0  0  0  0  0  0  0  0  0  0  0  # atno 10763 bound_to 10752
  153.9876  135.2949  155.3416 H   0  0  0  0  0  0  0  0  0  0  0  0  # atno 10764 bound_to 10752
  154.7094  135.5211  153.8714 H   0  0  0  0  0  0  0  0  0  0  0  0  # atno 10765 bound_to 10752
  140.1543  134.8653  157.2494 H   0  0  0  0  0  0  0  0  0  0  0  0  # atno 11005 bound_to 11000
  146.3454  139.9419  142.8740 LP  0  0  0  0  0  0  0  0  0  0  0  0  # atno 17320 bound_to 7965
  145.2136  140.9906  143.4086 LP  0  0  0  0  0  0  0  0  0  0  0  0  # atno 17321 bound_to 7965
  139.4955  144.6572  151.6546 LP  0  0  0  0  0  0  0  0  0  0  0  0  # atno 17342 bound_to 10162
  140.5788  143.9981  150.6257 LP  0  0  0  0  0  0  0  0  0  0  0  0  # atno 17343 bound_to 10162
  156.3322  130.7337  151.2269 LP  0  0  0  0  0  0  0  0  0  0  0  0  # atno 17370 bound_to 10713
  157.7461  131.0427  150.4706 LP  0  0  0  0  0  0  0  0  0  0  0  0  # atno 17371 bound_to 10713
  140.2567  134.3619  155.7422 LP  0  0  0  0  0  0  0  0  0  0  0  0  # atno 17394 bound_to 11000
  141.2202  133.7346  156.9018 LP  0  0  0  0  0  0  0  0  0  0  0  0  # atno 17395 bound_to 11000

$$$$
