AV-unprocessed.smi:670|AV-procd|sdf|3266|dock7
  -GOLD-   22720 0223D 1   1.00000     0.00000
 Structure written by MMmdl.
 44 45  0  0  0  0  0  0  0  0  2 V2000
  153.6342  141.6752  160.5592 C   0  0  0  0  0  0  0  0  0  0  0  0
  152.6046  142.4441  159.7165 C   0  0  1  0  0  0  0  0  0  0  0  0
  153.2848  143.3364  158.6568 C   0  0  0  0  0  0  0  0  0  0  0  0
  152.2543  144.1323  157.8404 C   0  0  0  0  0  0  0  0  0  0  0  0
  151.2095  143.2042  157.2048 C   0  0  0  0  0  0  0  0  0  0  0  0
  150.5308  142.3201  158.2622 C   0  0  0  0  0  0  0  0  0  0  0  0
  151.5661  141.5026  159.0655 C   0  0  1  0  0  0  0  0  0  0  0  0
  152.2698  140.6001  158.2206 O   0  0  0  0  0  0  0  0  0  0  0  0
  151.4766  139.6238  157.5635 C   0  0  0  0  0  0  0  0  0  0  0  0
  151.3160  138.4100  158.4914 C   0  0  0  0  0  0  0  0  0  0  0  0
  149.9179  138.1858  158.8442 N   0  0  0  0  0  0  0  0  0  0  0  0
  149.2460  137.0384  158.6610 C   0  0  0  0  0  0  0  0  0  0  0  0
  149.7646  136.0164  158.2102 O   0  0  0  0  0  0  0  0  0  0  0  0
  147.7702  137.0383  159.0808 C   0  0  0  0  0  0  0  0  0  0  0  0
  147.5576  136.3838  160.3788 N   0  0  0  0  0  0  0  0  0  0  0  0
  147.9529  137.2102  161.5171 N   0  5  0  0  0  0  0  0  0  0  0  0
  147.7563  136.7409  162.7776 C   0  0  0  0  0  0  0  0  0  0  0  0
  148.0357  137.3916  163.7816 O   0  0  0  0  0  0  0  0  0  0  0  0
  147.1917  135.4107  162.9318 C   0  0  0  0  0  0  0  0  0  0  0  0
  146.8677  134.6563  161.8633 C   0  0  0  0  0  0  0  0  0  0  0  0
  147.0508  135.1225  160.4944 C   0  0  0  0  0  0  0  0  0  0  0  0
  146.7642  134.4326  159.5164 O   0  0  0  0  0  0  0  0  0  0  0  0
  154.2402  141.0116  159.9415 H   0  0  0  0  0  0  0  0  0  0  0  0
  153.1441  141.0675  161.3202 H   0  0  0  0  0  0  0  0  0  0  0  0
  154.3111  142.3604  161.0699 H   0  0  0  0  0  0  0  0  0  0  0  0
  152.0653  143.1018  160.3998 H   0  0  0  0  0  0  0  0  0  0  0  0
  153.9773  144.0269  159.1390 H   0  0  0  0  0  0  0  0  0  0  0  0
  153.8844  142.7227  157.9830 H   0  0  0  0  0  0  0  0  0  0  0  0
  151.7554  144.8554  158.4865 H   0  0  0  0  0  0  0  0  0  0  0  0
  152.7599  144.7074  157.0645 H   0  0  0  0  0  0  0  0  0  0  0  0
  150.4620  143.7932  156.6735 H   0  0  0  0  0  0  0  0  0  0  0  0
  151.6911  142.5715  156.4595 H   0  0  0  0  0  0  0  0  0  0  0  0
  149.9654  142.9532  158.9473 H   0  0  0  0  0  0  0  0  0  0  0  0
  149.7965  141.6717  157.7867 H   0  0  0  0  0  0  0  0  0  0  0  0
  151.0589  140.9419  159.8524 H   0  0  0  0  0  0  0  0  0  0  0  0
  150.4979  140.0487  157.3372 H   0  0  0  0  0  0  0  0  0  0  0  0
  151.9216  139.3103  156.6196 H   0  0  0  0  0  0  0  0  0  0  0  0
  151.7521  137.5177  158.0393 H   0  0  0  0  0  0  0  0  0  0  0  0
  151.8640  138.5867  159.4169 H   0  0  0  0  0  0  0  0  0  0  0  0
  149.4092  138.9722  159.2214 H   0  0  0  0  0  0  0  0  0  0  0  0
  147.4181  138.0704  159.1174 H   0  0  0  0  0  0  0  0  0  0  0  0
  147.1664  136.5568  158.3087 H   0  0  0  0  0  0  0  0  0  0  0  0
  147.0314  135.0179  163.9248 H   0  0  0  0  0  0  0  0  0  0  0  0
  146.4528  133.6725  162.0245 H   0  0  0  0  0  0  0  0  0  0  0  0
  1  2  1  0  0  0  0
  1 23  1  0  0  0  0
  1 24  1  0  0  0  0
  1 25  1  0  0  0  0
  2  7  1  0  0  0  0
  2  3  1  0  0  0  0
  2 26  1  0  0  0  0
  3  4  1  0  0  0  0
  3 27  1  0  0  0  0
  3 28  1  0  0  0  0
  4  5  1  0  0  0  0
  4 29  1  0  0  0  0
  4 30  1  0  0  0  0
  5  6  1  0  0  0  0
  5 31  1  0  0  0  0
  5 32  1  0  0  0  0
  6  7  1  0  0  0  0
  6 33  1  0  0  0  0
  6 34  1  0  0  0  0
  7  8  1  0  0  0  0
  7 35  1  0  0  0  0
  8  9  1  0  0  0  0
  9 10  1  0  0  0  0
  9 36  1  0  0  0  0
  9 37  1  0  0  0  0
 10 11  1  0  0  0  0
 10 38  1  0  0  0  0
 10 39  1  0  0  0  0
 11 12  1  0  0  0  0
 11 40  1  0  0  0  0
 12 13  2  0  0  0  0
 12 14  1  0  0  0  0
 14 41  1  0  0  0  0
 14 42  1  0  0  0  0
 14 15  1  0  0  0  0
 15 16  1  0  0  0  0
 15 21  1  0  0  0  0
 16 17  1  0  0  0  0
 17 18  2  0  0  0  0
 17 19  1  0  0  0  0
 19 43  1  0  0  0  0
 19 20  2  0  0  0  0
 20 44  1  0  0  0  0
 20 21  1  0  0  0  0
 21 22  2  0  0  0  0
M  CHG  1  16  -1
M  END
> <s_m_source_file>
AV-unprocessed.smi

> <i_m_source_file_index>
670

> <i_lp_mmshare_version>
43012

> <i_f3d_flags>
0

> <s_epik_input>
W0NIM11bQ0BASF0xW0NIMl1bQ0gyXVtDSDJdW0NIMl1bQ0BIXTFPW0NIMl1bQ0gyXVtOSF1DKD1PKVtDSDJdbjJbbkhdYyg9TylbY0hdW2NIXWMyPU8=

> <s_epik_cmdline>
J2VwaWtfcHl0aG9uJywgJy1waCcsICc3LjAnLCAnLXRuJywgJzgnLCAnLW1hJywgJzIwMCcsICctbWV0YWxfYmluZGluZycsICctaW1hZScsICc8aW5maWxlLm1hZT4nLCAnLW9tYWUnLCAnPG91dGZpbGUubWFlPic=

> <r_lp_tautomer_probability>
1

> <r_epik_Ionization_Penalty>
0.0975638

> <r_epik_Ionization_Penalty_Charging>
0.0975637

> <r_epik_Ionization_Penalty_Neutral>
2.78599e-08

> <r_epik_State_Penalty>
0.0343507

> <r_epik_Charging_Adjusted_Penalty>
0.131914

> <i_epik_Tot_Q>
-1

> <i_epik_Tot_abs_Q>
1

> <r_epik_Metal_State_Penalty>
0.0343507

> <b_epik_Metal_Only>
0

> <s_lp_Force_Field>
OPLS_2005

> <r_lp_Energy>
24.4617

> <b_lp_Chiralities_Consistent>
1

> <s_lp_Variant>
AV-unprocessed.smi:670-2

> <Gold.Version>
5.8.1

> <Gold.Id.Protein>
6NUR|6NUR_protein|mol2

> <Gold.PLP.Fitness>
57.2576

> <Gold.PLP.PLP>
-46.5114

> <Gold.PLP.part.hbond>
-3.9598

> <Gold.PLP.part.metal>
0.0000

> <Gold.PLP.part.buried>
-3.7119

> <Gold.PLP.part.nonpolar>
-39.9114

> <Gold.PLP.part.repulsive>
0.2764

> <Gold.PLP.ligand.clash>
0.0000

> <Gold.PLP.ligand.torsion>
1.0040

> <Gold.PLP.Chemscore.Hbond>
4.2322

> <Gold.PLP.Chemscore.CHOScore>
0.0000

> <Gold.PLP.Chemscore.Metal>
0.0000

> <Gold.Chemscore.Hbonds>
donor molecule, donor type, donor heavy atom, donor atom, acceptor molecule, acceptor atom, score
      P1  H  6896  6908       L1    13  0.70
      P1  H  6931  6943       L1    16  1.60
      P1  H  6934  6947       L1    16  1.26

> <Gold.PLP.Chemscore.Internal.Correction>
0.0574

> <Gold.Rescore>
     Score         DG    S(hbond)    S(metal)    S(lipo)     H(rot)  DE(clash)    DE(int)     intcor
     15.55     -16.55       1.59        0.00     102.73       2.45       0.09       0.92       ----

> <Gold.Chemscore.Fitness>
15.5485

> <Gold.Chemscore.DG>
-16.5542

> <Gold.Chemscore.ZeroCoef>
-5.4800

> <Gold.Chemscore.Hbond>
1.5941

> <Gold.Chemscore.Metal>
0.0000

> <Gold.Chemscore.Lipo>
102.7274

> <Gold.Chemscore.Internal_Hbond>
0.0000

> <Gold.Chemscore.DEClash>
0.0875

> <Gold.Chemscore.DEInternal>
0.9181

> <Gold.Chemscore.Rot>
2.4490

> <Gold.Chemscore.Internal.Correction>
   9.000000E+99

> <Gold.Chemscore.Hbonds>
donor molecule, donor type, donor heavy atom, donor atom, acceptor molecule, acceptor atom, score
      P1  H  6896  6908       L1    13  0.60
      P1  H  6931  6943       L1    16  0.11
      P1  H  6934  6947       L1    16  0.18

> <Gold.Chemscore.Hbond.Weighted>
-5.3245

> <Gold.Chemscore.Metal.Weighted>
-0.0000

> <Gold.Chemscore.Lipo.Weighted>
-12.0191

> <Gold.Chemscore.Internal_Hbond.Weighted>
0.0000

> <Gold.Chemscore.DEClash.Weighted>
0.0875

> <Gold.Chemscore.DEInternal.Weighted>
0.9181

> <Gold.Chemscore.Rot.Weighted>
6.2694

> <Gold.Chemscore.Internal.Correction.Weighted>
   9.000000E+99

> <Gold.Protein.RotatedTorsions>
[ 6907 6896 6895 6894 ] final -171.63 input  -60.11 | X-H torsion
[ 7974 7965 7964 7962 ] final  -75.75 input  175.53 | X-H torsion
[ 8008 7997 7996 7995 ] final -101.51 input   59.86 | X-H torsion
[ 10167 10162 10161 10158 ] final -170.00 input  -65.29 | X-H torsion
[ 10718 10713 10712 10709 ] final -178.45 input   66.30 | X-H torsion
[ 10763 10752 10751 10750 ] final -175.61 input  -60.55 | X-H torsion
[ 11005 11000 10999 10996 ] final   77.02 input  -57.11 | X-H torsion

> <Gold.Protein.ActiveResidues>
 VAL166  LYS551  ARG553  GLY616  TRP617  ASP618  TYR619  PRO620  LYS621  CYS622 
 ASP623  PHE694  ASN695  SER759  ASP760  ASP761  ALA762  ILE779  LEU786  VAL792 
 PHE793  MET794  SER795  GLU796  ALA797  LYS798  CYS799  TRP800  GLU811  SER814 

> <Gold.Protein.RotatedAtoms>
  151.5269  133.3456  159.2910 H   0  0  0  0  0  0  0  0  0  0  0  0  # atno 6907 bound_to 6896
  150.8618  134.7974  159.7099 H   0  0  0  0  0  0  0  0  0  0  0  0  # atno 6908 bound_to 6896
  152.4635  134.5139  159.9814 H   0  0  0  0  0  0  0  0  0  0  0  0  # atno 6909 bound_to 6896
  145.6219  140.9361  143.1134 H   0  0  0  0  0  0  0  0  0  0  0  0  # atno 7974 bound_to 7965
  154.8436  140.0434  157.1558 H   0  0  0  0  0  0  0  0  0  0  0  0  # atno 8008 bound_to 7997
  154.9020  140.3001  155.5292 H   0  0  0  0  0  0  0  0  0  0  0  0  # atno 8009 bound_to 7997
  156.2993  140.2374  156.4049 H   0  0  0  0  0  0  0  0  0  0  0  0  # atno 8010 bound_to 7997
  139.5888  144.1259  152.1609 H   0  0  0  0  0  0  0  0  0  0  0  0  # atno 10167 bound_to 10162
  156.8444  130.9697  151.3097 H   0  0  0  0  0  0  0  0  0  0  0  0  # atno 10718 bound_to 10713
  154.5823  135.2837  155.0720 H   0  0  0  0  0  0  0  0  0  0  0  0  # atno 10763 bound_to 10752
  154.2051  135.6417  153.5102 H   0  0  0  0  0  0  0  0  0  0  0  0  # atno 10764 bound_to 10752
  153.0092  135.5478  154.6482 H   0  0  0  0  0  0  0  0  0  0  0  0  # atno 10765 bound_to 10752
  139.9273  134.7648  156.1469 H   0  0  0  0  0  0  0  0  0  0  0  0  # atno 11005 bound_to 11000
  144.7228  139.7974  143.7376 LP  0  0  0  0  0  0  0  0  0  0  0  0  # atno 17320 bound_to 7965
  146.1425  139.4485  143.0100 LP  0  0  0  0  0  0  0  0  0  0  0  0  # atno 17321 bound_to 7965
  140.0828  144.5686  150.7110 LP  0  0  0  0  0  0  0  0  0  0  0  0  # atno 17342 bound_to 10162
  140.7155  143.2541  151.4448 LP  0  0  0  0  0  0  0  0  0  0  0  0  # atno 17343 bound_to 10162
  157.6338  130.8750  149.9321 LP  0  0  0  0  0  0  0  0  0  0  0  0  # atno 17370 bound_to 10713
  156.0862  130.3668  150.0482 LP  0  0  0  0  0  0  0  0  0  0  0  0  # atno 17371 bound_to 10713
  141.0839  133.6742  156.2394 LP  0  0  0  0  0  0  0  0  0  0  0  0  # atno 17394 bound_to 11000
  140.6301  134.5273  157.5558 LP  0  0  0  0  0  0  0  0  0  0  0  0  # atno 17395 bound_to 11000

$$$$
