AV-unprocessed.smi:1087|AV-procd|sdf|4726|dock5
  -GOLD-   22720 3253D 1   1.00000     0.00000
 Structure written by MMmdl.
 47 48  0  0  0  0  0  0  0  0  2 V2000
  152.4643  144.3933  158.9119 C   0  0  0  0  0  0  0  0  0  0  0  0
  152.1972  143.1535  158.2801 O   0  0  0  0  0  0  0  0  0  0  0  0
  150.8185  142.9672  158.0072 C   0  0  0  0  0  0  0  0  0  0  0  0
  150.6723  141.9862  156.8339 C   0  0  0  0  0  0  0  0  0  0  0  0
  149.3740  142.1338  156.1279 N   0  3  2  0  0  0  0  0  0  0  0  0
  148.2225  141.7641  156.9901 C   0  0  0  0  0  0  0  0  0  0  0  0
  146.8870  142.0582  156.2859 C   0  0  0  0  0  0  0  0  0  0  0  0
  146.7757  141.3320  154.9287 C   0  0  2  0  0  0  0  0  0  0  0  0
  146.5748  139.8007  155.0299 C   0  0  0  0  0  0  0  0  0  0  0  0
  146.4924  139.1651  153.7184 N   0  0  0  0  0  0  0  0  0  0  0  0
  145.8822  137.9991  153.4559 C   0  0  0  0  0  0  0  0  0  0  0  0
  145.3465  137.3054  154.3211 O   0  0  0  0  0  0  0  0  0  0  0  0
  145.8816  137.5493  151.9891 C   0  0  0  0  0  0  0  0  0  0  0  0
  145.1691  136.2769  151.7907 N   0  0  0  0  0  0  0  0  0  0  0  0
  145.8495  135.2463  151.1208 C   0  0  0  0  0  0  0  0  0  0  0  0
  145.2646  134.0580  150.9119 C   0  0  0  0  0  0  0  0  0  0  0  0
  143.8943  133.9067  151.4181 C   0  0  0  0  0  0  0  0  0  0  0  0
  143.2729  134.8427  152.0330 N   0  0  0  0  0  0  0  0  0  0  0  0
  143.8900  136.0885  152.2535 C   0  0  0  0  0  0  0  0  0  0  0  0
  143.3005  136.9910  152.8487 O   0  0  0  0  0  0  0  0  0  0  0  0
  148.0070  141.6983  154.0788 C   0  0  0  0  0  0  0  0  0  0  0  0
  149.3305  141.4278  154.8194 C   0  0  0  0  0  0  0  0  0  0  0  0
  153.5343  144.4858  159.0983 H   0  0  0  0  0  0  0  0  0  0  0  0
  151.9483  144.4668  159.8702 H   0  0  0  0  0  0  0  0  0  0  0  0
  152.1584  145.2308  158.2837 H   0  0  0  0  0  0  0  0  0  0  0  0
  150.2928  142.6149  158.8947 H   0  0  0  0  0  0  0  0  0  0  0  0
  150.3722  143.9243  157.7330 H   0  0  0  0  0  0  0  0  0  0  0  0
  151.4915  142.1137  156.1247 H   0  0  0  0  0  0  0  0  0  0  0  0
  150.7654  140.9735  157.2291 H   0  0  0  0  0  0  0  0  0  0  0  0
  148.2917  140.7108  157.2644 H   0  0  0  0  0  0  0  0  0  0  0  0
  148.2629  142.3333  157.9194 H   0  0  0  0  0  0  0  0  0  0  0  0
  146.0524  141.8056  156.9390 H   0  0  0  0  0  0  0  0  0  0  0  0
  146.8095  143.1334  156.1196 H   0  0  0  0  0  0  0  0  0  0  0  0
  145.8974  141.7287  154.4172 H   0  0  0  0  0  0  0  0  0  0  0  0
  147.4256  139.3581  155.5491 H   0  0  0  0  0  0  0  0  0  0  0  0
  145.7008  139.5552  155.6338 H   0  0  0  0  0  0  0  0  0  0  0  0
  146.9119  139.6616  152.9453 H   0  0  0  0  0  0  0  0  0  0  0  0
  145.4391  138.3238  151.3595 H   0  0  0  0  0  0  0  0  0  0  0  0
  146.9181  137.4673  151.6592 H   0  0  0  0  0  0  0  0  0  0  0  0
  146.8555  135.4790  150.8032 H   0  0  0  0  0  0  0  0  0  0  0  0
  145.7310  133.2240  150.4089 H   0  0  0  0  0  0  0  0  0  0  0  0
  143.4335  132.9324  151.2357 H   0  0  0  0  0  0  0  0  0  0  0  0
  147.9894  141.1548  153.1335 H   0  0  0  0  0  0  0  0  0  0  0  0
  147.9589  142.7565  153.8177 H   0  0  0  0  0  0  0  0  0  0  0  0
  150.1544  141.7566  154.1874 H   0  0  0  0  0  0  0  0  0  0  0  0
  149.4693  140.3574  154.9758 H   0  0  0  0  0  0  0  0  0  0  0  0
  149.2694  143.1200  155.9347 H   0  0  0  0  0  0  0  0  0  0  0  0
  1  2  1  0  0  0  0
  1 23  1  0  0  0  0
  1 24  1  0  0  0  0
  1 25  1  0  0  0  0
  2  3  1  0  0  0  0
  3  4  1  0  0  0  0
  3 26  1  0  0  0  0
  3 27  1  0  0  0  0
  4  5  1  0  0  0  0
  4 28  1  0  0  0  0
  4 29  1  0  0  0  0
  5 22  1  0  0  0  0
  5  6  1  0  0  0  0
  5 47  1  0  0  0  0
  6  7  1  0  0  0  0
  6 30  1  0  0  0  0
  6 31  1  0  0  0  0
  7  8  1  0  0  0  0
  7 32  1  0  0  0  0
  7 33  1  0  0  0  0
  8  9  1  0  0  0  0
  8 21  1  0  0  0  0
  8 34  1  0  0  0  0
  9 10  1  0  0  0  0
  9 35  1  0  0  0  0
  9 36  1  0  0  0  0
 10 11  1  0  0  0  0
 10 37  1  0  0  0  0
 11 12  2  0  0  0  0
 11 13  1  0  0  0  0
 13 14  1  0  0  0  0
 13 38  1  0  0  0  0
 13 39  1  0  0  0  0
 14 19  1  0  0  0  0
 14 15  1  0  0  0  0
 15 16  2  0  0  0  0
 15 40  1  0  0  0  0
 16 17  1  0  0  0  0
 16 41  1  0  0  0  0
 17 18  2  0  0  0  0
 17 42  1  0  0  0  0
 18 19  1  0  0  0  0
 19 20  2  0  0  0  0
 21 22  1  0  0  0  0
 21 43  1  0  0  0  0
 21 44  1  0  0  0  0
 22 45  1  0  0  0  0
 22 46  1  0  0  0  0
M  CHG  1   5   1
M  END
> <s_m_source_file>
AV-unprocessed.smi

> <i_m_source_file_index>
1087

> <i_lp_mmshare_version>
43012

> <i_f3d_flags>
0

> <s_epik_input>
W0NIM11PW0NIMl1bQ0gyXU4xW0NIMl1bQ0gyXVtDSF0oW0NIMl1bQ0gyXTEpW0NIMl1bTkhdQyg9TylbQ0gyXW4yW2NIXVtjSF1bY0hdbmMyPU8=

> <s_epik_cmdline>
J2VwaWtfcHl0aG9uJywgJy1waCcsICc3LjAnLCAnLXRuJywgJzgnLCAnLW1hJywgJzIwMCcsICctbWV0YWxfYmluZGluZycsICctaW1hZScsICc8aW5maWxlLm1hZT4nLCAnLW9tYWUnLCAnPG91dGZpbGUubWFlPic=

> <r_lp_tautomer_probability>
1

> <r_epik_Ionization_Penalty>
0.00982698

> <r_epik_Ionization_Penalty_Charging>
0.00982062

> <r_epik_Ionization_Penalty_Neutral>
6.35787e-06

> <r_epik_State_Penalty>
0.00747828

> <r_epik_Charging_Adjusted_Penalty>
0.0172989

> <i_epik_Tot_Q>
1

> <i_epik_Tot_abs_Q>
1

> <r_epik_Metal_State_Penalty>
0.00747829

> <b_epik_Metal_Only>
0

> <s_lp_Force_Field>
OPLS_2005

> <r_lp_Energy>
23.2089

> <b_lp_Chiralities_Consistent>
1

> <s_lp_Variant>
AV-unprocessed.smi:1087-2

> <Gold.Version>
5.8.1

> <Gold.Id.Protein>
6NUR|6NUR_protein|mol2

> <Gold.PLP.Fitness>
44.8985

> <Gold.PLP.PLP>
-36.7769

> <Gold.PLP.part.hbond>
-1.0000

> <Gold.PLP.part.metal>
0.0000

> <Gold.PLP.part.buried>
-5.3536

> <Gold.PLP.part.nonpolar>
-31.3527

> <Gold.PLP.part.repulsive>
0.5718

> <Gold.PLP.ligand.clash>
0.0000

> <Gold.PLP.ligand.torsion>
0.5414

> <Gold.PLP.Chemscore.Hbond>
2.0000

> <Gold.PLP.Chemscore.CHOScore>
1.0000

> <Gold.PLP.Chemscore.Metal>
0.0000

> <Gold.Chemscore.Hbonds>
donor molecule, donor type, donor heavy atom, donor atom, acceptor molecule, acceptor atom, score
      L1  H     5    47       P1  8028  2.00
      L1  C    15    40       P1  7948  1.00

> <Gold.PLP.Chemscore.Internal.Correction>
0.2045

> <Gold.Rescore>
     Score         DG    S(hbond)    S(metal)    S(lipo)     H(rot)  DE(clash)    DE(int)     intcor
     11.30     -11.84       0.97        0.00      80.04       2.45       0.01       0.53       ----

> <Gold.Chemscore.Fitness>
11.3007

> <Gold.Chemscore.DG>
-11.8353

> <Gold.Chemscore.ZeroCoef>
-5.4800

> <Gold.Chemscore.Hbond>
0.9734

> <Gold.Chemscore.Metal>
0.0000

> <Gold.Chemscore.Lipo>
80.0387

> <Gold.Chemscore.Internal_Hbond>
0.0000

> <Gold.Chemscore.DEClash>
0.0068

> <Gold.Chemscore.DEInternal>
0.5278

> <Gold.Chemscore.Rot>
2.4454

> <Gold.Chemscore.Internal.Correction>
   9.000000E+99

> <Gold.Chemscore.Hbonds>
donor molecule, donor type, donor heavy atom, donor atom, acceptor molecule, acceptor atom, score
      L1  H     5    47       P1  8028  1.00

> <Gold.Chemscore.Hbond.Weighted>
-3.2511

> <Gold.Chemscore.Metal.Weighted>
-0.0000

> <Gold.Chemscore.Lipo.Weighted>
-9.3645

> <Gold.Chemscore.Internal_Hbond.Weighted>
0.0000

> <Gold.Chemscore.DEClash.Weighted>
0.0068

> <Gold.Chemscore.DEInternal.Weighted>
0.5278

> <Gold.Chemscore.Rot.Weighted>
6.2603

> <Gold.Chemscore.Internal.Correction.Weighted>
   9.000000E+99

> <Gold.Protein.RotatedTorsions>
[ 6907 6896 6895 6894 ] final  161.49 input  -60.11 | X-H torsion
[ 7974 7965 7964 7962 ] final   15.68 input  175.53 | X-H torsion
[ 8008 7997 7996 7995 ] final -115.45 input   59.86 | X-H torsion
[ 10167 10162 10161 10158 ] final  151.64 input  -65.29 | X-H torsion
[ 10718 10713 10712 10709 ] final  -13.86 input   66.30 | X-H torsion
[ 10763 10752 10751 10750 ] final -148.08 input  -60.55 | X-H torsion
[ 11005 11000 10999 10996 ] final  -36.85 input  -57.11 | X-H torsion

> <Gold.Protein.ActiveResidues>
 VAL166  LYS551  ARG553  GLY616  TRP617  ASP618  TYR619  PRO620  LYS621  CYS622 
 ASP623  PHE694  ASN695  SER759  ASP760  ASP761  ALA762  ILE779  LEU786  VAL792 
 PHE793  MET794  SER795  GLU796  ALA797  LYS798  CYS799  TRP800  GLU811  SER814 

> <Gold.Protein.RotatedAtoms>
  151.9548  133.3677  159.4013 H   0  0  0  0  0  0  0  0  0  0  0  0  # atno 6907 bound_to 6896
  150.6974  134.4302  159.5254 H   0  0  0  0  0  0  0  0  0  0  0  0  # atno 6908 bound_to 6896
  152.1981  134.8612  160.0561 H   0  0  0  0  0  0  0  0  0  0  0  0  # atno 6909 bound_to 6896
  146.2271  139.8859  142.8563 H   0  0  0  0  0  0  0  0  0  0  0  0  # atno 7974 bound_to 7965
  155.0522  140.0393  157.2547 H   0  0  0  0  0  0  0  0  0  0  0  0  # atno 8008 bound_to 7997
  154.7128  140.2696  155.6589 H   0  0  0  0  0  0  0  0  0  0  0  0  # atno 8009 bound_to 7997
  156.2794  140.2718  156.1775 H   0  0  0  0  0  0  0  0  0  0  0  0  # atno 8010 bound_to 7997
  139.4839  144.5424  151.7541 H   0  0  0  0  0  0  0  0  0  0  0  0  # atno 10167 bound_to 10162
  156.6243  130.4884  149.6153 H   0  0  0  0  0  0  0  0  0  0  0  0  # atno 10718 bound_to 10713
  154.8252  135.3343  154.6919 H   0  0  0  0  0  0  0  0  0  0  0  0  # atno 10763 bound_to 10752
  153.7546  135.6937  153.4943 H   0  0  0  0  0  0  0  0  0  0  0  0  # atno 10764 bound_to 10752
  153.2153  135.4468  155.0377 H   0  0  0  0  0  0  0  0  0  0  0  0  # atno 10765 bound_to 10752
  140.9907  133.7006  156.1845 H   0  0  0  0  0  0  0  0  0  0  0  0  # atno 11005 bound_to 11000
  145.2466  141.0029  143.3905 LP  0  0  0  0  0  0  0  0  0  0  0  0  # atno 17320 bound_to 7965
  144.9408  139.4191  143.6449 LP  0  0  0  0  0  0  0  0  0  0  0  0  # atno 17321 bound_to 7965
  140.4966  144.1231  150.5961 LP  0  0  0  0  0  0  0  0  0  0  0  0  # atno 17342 bound_to 10162
  140.4110  143.2657  151.9832 LP  0  0  0  0  0  0  0  0  0  0  0  0  # atno 17343 bound_to 10162
  156.2286  130.6781  151.1441 LP  0  0  0  0  0  0  0  0  0  0  0  0  # atno 17370 bound_to 10713
  157.7219  131.0676  150.6101 LP  0  0  0  0  0  0  0  0  0  0  0  0  # atno 17371 bound_to 10713
  140.7044  134.4529  157.5585 LP  0  0  0  0  0  0  0  0  0  0  0  0  # atno 17394 bound_to 11000
  139.8991  134.8599  156.1974 LP  0  0  0  0  0  0  0  0  0  0  0  0  # atno 17395 bound_to 11000

$$$$
