AV-unprocessed.smi:3335|AV-procd|sdf|12851|dock5
  -GOLD-   2272019243D 1   1.00000     0.00000
 Structure written by MMmdl.
 46 47  0  0  0  0  0  0  0  0  1 V2000
  152.4561  144.3385  159.3006 C   0  0  0  0  0  0  0  0  0  0  0  0
  152.0450  143.0515  158.6468 C   0  0  0  0  0  0  0  0  0  0  0  0
  151.4427  142.8694  157.3701 C   0  0  0  0  0  0  0  0  0  0  0  0
  151.1659  141.6028  157.1085 N   0  0  0  0  0  0  0  0  0  0  0  0
  151.6057  140.9258  158.1934 N   0  0  0  0  0  0  0  0  0  0  0  0
  151.4182  139.4808  158.2981 C   0  0  2  0  0  0  0  0  0  0  0  0
  152.2785  138.7460  157.2504 C   0  0  0  0  0  0  0  0  0  0  0  0
  149.9143  139.0874  158.2317 C   0  0  1  0  0  0  0  0  0  0  0  0
  149.2611  139.4460  156.8862 C   0  0  0  0  0  0  0  0  0  0  0  0
  149.7780  137.6387  158.3812 N   0  0  0  0  0  0  0  0  0  0  0  0
  148.5746  137.2294  159.1277 C   0  0  1  0  0  0  0  0  0  0  0  0
  147.3042  137.6389  158.3609 C   0  0  0  0  0  0  0  0  0  0  0  0
  148.5823  135.7082  159.3801 C   0  0  0  0  0  0  0  0  0  0  0  0
  149.2507  134.9807  158.6430 O   0  0  0  0  0  0  0  0  0  0  0  0
  147.8710  135.2061  160.4140 N   0  0  0  0  0  0  0  0  0  0  0  0
  147.8727  133.7883  160.7712 C   0  0  0  0  0  0  0  0  0  0  0  0
  147.1642  133.6979  162.1227 C   0  0  0  0  0  0  0  0  0  0  0  0
  146.2466  134.9111  162.1391 C   0  0  0  0  0  0  0  0  0  0  0  0
  147.0005  135.9575  161.3193 C   0  0  0  0  0  0  0  0  0  0  0  0
  152.1416  141.7801  159.1351 C   0  0  0  0  0  0  0  0  0  0  0  0
  152.0459  145.2056  158.7825 H   0  0  0  0  0  0  0  0  0  0  0  0
  153.5399  144.4537  159.3158 H   0  0  0  0  0  0  0  0  0  0  0  0
  152.1104  144.3913  160.3333 H   0  0  0  0  0  0  0  0  0  0  0  0
  151.1794  143.6195  156.6391 H   0  0  0  0  0  0  0  0  0  0  0  0
  151.7991  139.1913  159.2790 H   0  0  0  0  0  0  0  0  0  0  0  0
  152.3112  137.6734  157.4395 H   0  0  0  0  0  0  0  0  0  0  0  0
  153.3087  139.1032  157.2710 H   0  0  0  0  0  0  0  0  0  0  0  0
  151.8951  138.8935  156.2404 H   0  0  0  0  0  0  0  0  0  0  0  0
  149.3641  139.6134  159.0139 H   0  0  0  0  0  0  0  0  0  0  0  0
  149.2330  140.5239  156.7289 H   0  0  0  0  0  0  0  0  0  0  0  0
  148.2294  139.0947  156.8452 H   0  0  0  0  0  0  0  0  0  0  0  0
  149.7975  138.9994  156.0481 H   0  0  0  0  0  0  0  0  0  0  0  0
  150.6172  137.2841  158.8174 H   0  0  0  0  0  0  0  0  0  0  0  0
  148.5832  137.7327  160.0932 H   0  0  0  0  0  0  0  0  0  0  0  0
  146.4009  137.3253  158.8845 H   0  0  0  0  0  0  0  0  0  0  0  0
  147.2797  137.1934  157.3656 H   0  0  0  0  0  0  0  0  0  0  0  0
  147.2460  138.7205  158.2385 H   0  0  0  0  0  0  0  0  0  0  0  0
  147.3230  133.2302  160.0119 H   0  0  0  0  0  0  0  0  0  0  0  0
  148.8832  133.3804  160.8278 H   0  0  0  0  0  0  0  0  0  0  0  0
  146.6277  132.7583  162.2579 H   0  0  0  0  0  0  0  0  0  0  0  0
  147.8958  133.7842  162.9271 H   0  0  0  0  0  0  0  0  0  0  0  0
  145.3068  134.6643  161.6432 H   0  0  0  0  0  0  0  0  0  0  0  0
  146.0136  135.2524  163.1481 H   0  0  0  0  0  0  0  0  0  0  0  0
  147.6125  136.5748  161.9761 H   0  0  0  0  0  0  0  0  0  0  0  0
  146.3079  136.6090  160.7859 H   0  0  0  0  0  0  0  0  0  0  0  0
  152.5246  141.4174  160.0776 H   0  0  0  0  0  0  0  0  0  0  0  0
  1  2  1  0  0  0  0
  1 21  1  0  0  0  0
  1 22  1  0  0  0  0
  1 23  1  0  0  0  0
  2 20  2  0  0  0  0
  2  3  1  0  0  0  0
  3  4  2  0  0  0  0
  3 24  1  0  0  0  0
  4  5  1  0  0  0  0
  5  6  1  0  0  0  0
  5 20  1  0  0  0  0
  6  7  1  0  0  0  0
  6  8  1  0  0  0  0
  6 25  1  0  0  0  0
  7 26  1  0  0  0  0
  7 27  1  0  0  0  0
  7 28  1  0  0  0  0
  8  9  1  0  0  0  0
  8 10  1  0  0  0  0
  8 29  1  0  0  0  0
  9 30  1  0  0  0  0
  9 31  1  0  0  0  0
  9 32  1  0  0  0  0
 10 11  1  0  0  0  0
 10 33  1  0  0  0  0
 11 12  1  0  0  0  0
 11 13  1  0  0  0  0
 11 34  1  0  0  0  0
 12 35  1  0  0  0  0
 12 36  1  0  0  0  0
 12 37  1  0  0  0  0
 13 14  2  0  0  0  0
 13 15  1  0  0  0  0
 15 19  1  0  0  0  0
 15 16  1  0  0  0  0
 16 17  1  0  0  0  0
 16 38  1  0  0  0  0
 16 39  1  0  0  0  0
 17 18  1  0  0  0  0
 17 40  1  0  0  0  0
 17 41  1  0  0  0  0
 18 19  1  0  0  0  0
 18 42  1  0  0  0  0
 18 43  1  0  0  0  0
 19 44  1  0  0  0  0
 19 45  1  0  0  0  0
 20 46  1  0  0  0  0
M  END
> <s_m_source_file>
AV-unprocessed.smi

> <i_m_source_file_index>
3335

> <i_lp_mmshare_version>
43012

> <i_f3d_flags>
0

> <s_epik_input>
W0NIM11jMVtjSF1ubihbY0hdMSlbQ0BIXShbQ0gzXSlbQ0BIXShbQ0gzXSlbTkhdW0NASF0oW0NIM10pQyg9TylOMltDSDJdW0NIMl1bQ0gyXVtDSDJdMg==

> <s_epik_cmdline>
J2VwaWtfcHl0aG9uJywgJy1waCcsICc3LjAnLCAnLXRuJywgJzgnLCAnLW1hJywgJzIwMCcsICctbWV0YWxfYmluZGluZycsICctaW1hZScsICc8aW5maWxlLm1hZT4nLCAnLW9tYWUnLCAnPG91dGZpbGUubWFlPic=

> <r_lp_tautomer_probability>
1

> <r_epik_Ionization_Penalty>
0.918803

> <r_epik_Ionization_Penalty_Charging>
0

> <r_epik_Ionization_Penalty_Neutral>
0.918803

> <r_epik_State_Penalty>
0.958258

> <r_epik_Charging_Adjusted_Penalty>
0.958258

> <i_epik_Tot_Q>
0

> <i_epik_Tot_abs_Q>
0

> <r_epik_Metal_State_Penalty>
0.956786

> <b_epik_Metal_Only>
0

> <s_lp_Force_Field>
OPLS_2005

> <r_lp_Energy>
36.8756

> <b_lp_Chiralities_Consistent>
1

> <s_lp_Variant>
AV-unprocessed.smi:3335-15

> <Gold.Version>
5.8.1

> <Gold.Id.Protein>
6NUR|6NUR_protein|mol2

> <Gold.PLP.Fitness>
39.8678

> <Gold.PLP.PLP>
-36.0291

> <Gold.PLP.part.hbond>
-1.0000

> <Gold.PLP.part.metal>
0.0000

> <Gold.PLP.part.buried>
-5.4332

> <Gold.PLP.part.nonpolar>
-29.9074

> <Gold.PLP.part.repulsive>
0.0545

> <Gold.PLP.ligand.clash>
0.0000

> <Gold.PLP.ligand.torsion>
1.1508

> <Gold.PLP.Chemscore.Hbond>
1.0000

> <Gold.PLP.Chemscore.CHOScore>
1.0000

> <Gold.PLP.Chemscore.Metal>
0.0000

> <Gold.Chemscore.Hbonds>
donor molecule, donor type, donor heavy atom, donor atom, acceptor molecule, acceptor atom, score
      P1  H  6896  6909       L1    14  1.00
      L1  C     3    24       P1  8028  0.56

> <Gold.PLP.Chemscore.Internal.Correction>
0.1402

> <Gold.Rescore>
     Score         DG    S(hbond)    S(metal)    S(lipo)     H(rot)  DE(clash)    DE(int)     intcor
     13.62     -15.82       0.95        0.00      96.80       1.62       0.10       2.11       ----

> <Gold.Chemscore.Fitness>
13.6151

> <Gold.Chemscore.DG>
-15.8248

> <Gold.Chemscore.ZeroCoef>
-5.4800

> <Gold.Chemscore.Hbond>
0.9482

> <Gold.Chemscore.Metal>
0.0000

> <Gold.Chemscore.Lipo>
96.8039

> <Gold.Chemscore.Internal_Hbond>
0.0000

> <Gold.Chemscore.DEClash>
0.0957

> <Gold.Chemscore.DEInternal>
2.1140

> <Gold.Chemscore.Rot>
1.6204

> <Gold.Chemscore.Internal.Correction>
   9.000000E+99

> <Gold.Chemscore.Hbonds>
donor molecule, donor type, donor heavy atom, donor atom, acceptor molecule, acceptor atom, score
      P1  H  6896  6909       L1    14  0.91

> <Gold.Chemscore.Hbond.Weighted>
-3.1669

> <Gold.Chemscore.Metal.Weighted>
-0.0000

> <Gold.Chemscore.Lipo.Weighted>
-11.3261

> <Gold.Chemscore.Internal_Hbond.Weighted>
0.0000

> <Gold.Chemscore.DEClash.Weighted>
0.0957

> <Gold.Chemscore.DEInternal.Weighted>
2.1140

> <Gold.Chemscore.Rot.Weighted>
4.1482

> <Gold.Chemscore.Internal.Correction.Weighted>
   9.000000E+99

> <Gold.Protein.RotatedTorsions>
[ 6907 6896 6895 6894 ] final   21.26 input  -60.11 | X-H torsion
[ 7974 7965 7964 7962 ] final   62.71 input  175.53 | X-H torsion
[ 8008 7997 7996 7995 ] final   53.32 input   59.86 | X-H torsion
[ 10167 10162 10161 10158 ] final  148.97 input  -65.29 | X-H torsion
[ 10718 10713 10712 10709 ] final  -22.53 input   66.30 | X-H torsion
[ 10763 10752 10751 10750 ] final   50.22 input  -60.55 | X-H torsion
[ 11005 11000 10999 10996 ] final   51.52 input  -57.11 | X-H torsion

> <Gold.Protein.ActiveResidues>
 VAL166  LYS551  ARG553  GLY616  TRP617  ASP618  TYR619  PRO620  LYS621  CYS622 
 ASP623  PHE694  ASN695  SER759  ASP760  ASP761  ALA762  ILE779  LEU786  VAL792 
 PHE793  MET794  SER795  GLU796  ALA797  LYS798  CYS799  TRP800  GLU811  SER814 

> <Gold.Protein.RotatedAtoms>
  151.9090  135.0347  160.0512 H   0  0  0  0  0  0  0  0  0  0  0  0  # atno 6907 bound_to 6896
  152.2295  133.5042  159.5216 H   0  0  0  0  0  0  0  0  0  0  0  0  # atno 6908 bound_to 6896
  150.7021  134.1152  159.4057 H   0  0  0  0  0  0  0  0  0  0  0  0  # atno 6909 bound_to 6896
  145.8702  139.3373  143.0767 H   0  0  0  0  0  0  0  0  0  0  0  0  # atno 7974 bound_to 7965
  155.4664  140.3463  155.4319 H   0  0  0  0  0  0  0  0  0  0  0  0  # atno 8008 bound_to 7997
  156.1128  140.1465  156.9343 H   0  0  0  0  0  0  0  0  0  0  0  0  # atno 8009 bound_to 7997
  154.4768  140.0882  156.7261 H   0  0  0  0  0  0  0  0  0  0  0  0  # atno 8010 bound_to 7997
  139.4867  144.5638  151.7181 H   0  0  0  0  0  0  0  0  0  0  0  0  # atno 10167 bound_to 10162
  156.5033  130.4593  149.6688 H   0  0  0  0  0  0  0  0  0  0  0  0  # atno 10718 bound_to 10713
  152.9785  135.5886  154.4216 H   0  0  0  0  0  0  0  0  0  0  0  0  # atno 10763 bound_to 10752
  154.3840  135.2767  155.2196 H   0  0  0  0  0  0  0  0  0  0  0  0  # atno 10764 bound_to 10752
  154.4098  135.6084  153.6000 H   0  0  0  0  0  0  0  0  0  0  0  0  # atno 10765 bound_to 10752
  140.0926  134.5189  155.8838 H   0  0  0  0  0  0  0  0  0  0  0  0  # atno 11005 bound_to 11000
  145.9145  140.9157  143.0436 LP  0  0  0  0  0  0  0  0  0  0  0  0  # atno 17320 bound_to 7965
  144.6726  140.1205  143.7450 LP  0  0  0  0  0  0  0  0  0  0  0  0  # atno 17321 bound_to 7965
  140.5213  144.0874  150.6023 LP  0  0  0  0  0  0  0  0  0  0  0  0  # atno 17342 bound_to 10162
  140.3833  143.2791  152.0145 LP  0  0  0  0  0  0  0  0  0  0  0  0  # atno 17343 bound_to 10162
  156.3311  130.7332  151.2261 LP  0  0  0  0  0  0  0  0  0  0  0  0  # atno 17370 bound_to 10713
  157.7460  131.0429  150.4720 LP  0  0  0  0  0  0  0  0  0  0  0  0  # atno 17371 bound_to 10713
  141.2082  133.6672  156.6358 LP  0  0  0  0  0  0  0  0  0  0  0  0  # atno 17394 bound_to 11000
  140.3331  134.7912  157.4341 LP  0  0  0  0  0  0  0  0  0  0  0  0  # atno 17395 bound_to 11000

$$$$
