AV-unprocessed.smi:20|AV-procd|sdf|116|dock9
  -GOLD-   2262015283D 1   1.00000     0.00000
 Structure written by MMmdl.
 57 61  0  0  0  0  0  0  0  0  1 V2000
  144.1306  132.8602  147.9846 O   0  0  0  0  0  0  0  0  0  0  0  0
  143.9395  132.7964  149.1966 C   0  0  0  0  0  0  0  0  0  0  0  0
  144.9506  133.2493  150.2359 C   0  0  0  0  0  0  0  0  0  0  0  0
  144.4191  132.6270  151.5497 C   0  0  1  0  0  0  0  0  0  0  0  0
  145.0852  131.2570  151.8499 C   0  0  0  0  0  0  0  0  0  0  0  0
  146.5449  131.4087  152.3137 C   0  0  0  0  0  0  0  0  0  0  0  0
  146.6559  132.3938  153.4862 C   0  0  0  0  0  0  0  0  0  0  0  0
  146.0132  133.6651  153.1545 N   0  0  0  0  0  0  0  0  0  0  0  0
  146.3212  134.7504  153.9093 C   0  0  0  0  0  0  0  0  0  0  0  0
  146.8797  134.5853  155.1386 N   0  0  0  0  0  0  0  0  0  0  0  0
  147.1771  135.6465  155.8940 C   0  0  0  0  0  0  0  0  0  0  0  0
  147.0056  136.9406  155.6190 N   0  0  0  0  0  0  0  0  0  0  0  0
  146.4547  137.1147  154.3840 C   0  0  0  0  0  0  0  0  0  0  0  0
  146.0853  136.0851  153.4725 C   0  0  0  0  0  0  0  0  0  0  0  0
  145.5667  136.6468  152.3114 N   0  0  0  0  0  0  0  0  0  0  0  0
  145.6170  137.9326  152.5284 C   0  0  0  0  0  0  0  0  0  0  0  0
  146.1509  138.3028  153.7420 N   0  0  0  0  0  0  0  0  0  0  0  0
  146.3167  139.6575  154.2403 C   0  0  0  0  0  0  0  0  0  0  0  0
  147.6669  140.3175  153.8586 C   0  0  1  0  0  0  0  0  0  0  0  0
  147.5186  141.8563  153.9055 C   0  0  0  0  0  0  0  0  0  0  0  0
  147.3797  142.3279  155.2307 O   0  0  0  0  0  0  0  0  0  0  0  0
  148.8783  139.8139  154.6962 C   0  0  2  0  0  0  0  0  0  0  0  0
  149.9770  140.8443  154.9049 C   0  0  0  0  0  0  0  0  0  0  0  0
  151.1574  139.9760  155.3137 C   0  0  0  0  0  0  0  0  0  0  0  0
  151.0401  138.8185  154.5009 O   0  0  0  0  0  0  0  0  0  0  0  0
  149.6872  138.6593  154.0824 C   0  0  0  0  0  0  0  0  0  0  0  0
  144.6066  133.5609  152.7666 C   0  0  0  0  0  0  0  0  0  0  0  0
  142.9180  132.4169  151.2382 C   0  0  0  0  0  0  0  0  0  0  0  0
  142.8436  132.3332  149.7926 N   0  0  0  0  0  0  0  0  0  0  0  0
  145.9587  132.9300  149.9741 H   0  0  0  0  0  0  0  0  0  0  0  0
  144.9412  134.3394  150.2737 H   0  0  0  0  0  0  0  0  0  0  0  0
  144.5286  130.7493  152.6388 H   0  0  0  0  0  0  0  0  0  0  0  0
  145.0387  130.6031  150.9783 H   0  0  0  0  0  0  0  0  0  0  0  0
  146.9440  130.4380  152.6084 H   0  0  0  0  0  0  0  0  0  0  0  0
  147.1685  131.7540  151.4893 H   0  0  0  0  0  0  0  0  0  0  0  0
  146.1809  131.9724  154.3734 H   0  0  0  0  0  0  0  0  0  0  0  0
  147.7084  132.5510  153.7261 H   0  0  0  0  0  0  0  0  0  0  0  0
  147.6153  135.4273  156.8566 H   0  0  0  0  0  0  0  0  0  0  0  0
  145.2705  138.6521  151.8009 H   0  0  0  0  0  0  0  0  0  0  0  0
  145.4889  140.2452  153.8420 H   0  0  0  0  0  0  0  0  0  0  0  0
  146.1919  139.6547  155.3236 H   0  0  0  0  0  0  0  0  0  0  0  0
  147.8677  140.0730  152.8147 H   0  0  0  0  0  0  0  0  0  0  0  0
  148.3750  142.3484  153.4448 H   0  0  0  0  0  0  0  0  0  0  0  0
  146.6463  142.1717  153.3323 H   0  0  0  0  0  0  0  0  0  0  0  0
  147.9543  143.0690  155.3487 H   0  0  0  0  0  0  0  0  0  0  0  0
  148.5266  139.4979  155.6798 H   0  0  0  0  0  0  0  0  0  0  0  0
  150.2004  141.3622  153.9709 H   0  0  0  0  0  0  0  0  0  0  0  0
  149.7304  141.5899  155.6617 H   0  0  0  0  0  0  0  0  0  0  0  0
  152.1172  140.4728  155.1708 H   0  0  0  0  0  0  0  0  0  0  0  0
  151.0736  139.6849  156.3617 H   0  0  0  0  0  0  0  0  0  0  0  0
  149.3129  137.6862  154.3979 H   0  0  0  0  0  0  0  0  0  0  0  0
  149.6667  138.6938  152.9927 H   0  0  0  0  0  0  0  0  0  0  0  0
  144.1761  134.5380  152.5498 H   0  0  0  0  0  0  0  0  0  0  0  0
  144.0503  133.1679  153.6187 H   0  0  0  0  0  0  0  0  0  0  0  0
  142.5035  131.5240  151.7072 H   0  0  0  0  0  0  0  0  0  0  0  0
  142.3186  133.2697  151.5607 H   0  0  0  0  0  0  0  0  0  0  0  0
  142.0344  131.9783  149.3038 H   0  0  0  0  0  0  0  0  0  0  0  0
  1  2  2  0  0  0  0
  2 29  1  0  0  0  0
  2  3  1  0  0  0  0
  3  4  1  0  0  0  0
  3 30  1  0  0  0  0
  3 31  1  0  0  0  0
  4 27  1  0  0  0  0
  4  5  1  0  0  0  0
  4 28  1  0  0  0  0
  5  6  1  0  0  0  0
  5 32  1  0  0  0  0
  5 33  1  0  0  0  0
  6  7  1  0  0  0  0
  6 34  1  0  0  0  0
  6 35  1  0  0  0  0
  7  8  1  0  0  0  0
  7 36  1  0  0  0  0
  7 37  1  0  0  0  0
  8  9  1  0  0  0  0
  8 27  1  0  0  0  0
  9 14  1  0  0  0  0
  9 10  2  0  0  0  0
 10 11  1  0  0  0  0
 11 12  2  0  0  0  0
 11 38  1  0  0  0  0
 12 13  1  0  0  0  0
 13 17  1  0  0  0  0
 13 14  2  0  0  0  0
 14 15  1  0  0  0  0
 15 16  2  0  0  0  0
 16 17  1  0  0  0  0
 16 39  1  0  0  0  0
 17 18  1  0  0  0  0
 18 19  1  0  0  0  0
 18 40  1  0  0  0  0
 18 41  1  0  0  0  0
 19 20  1  0  0  0  0
 19 22  1  0  0  0  0
 19 42  1  0  0  0  0
 20 21  1  0  0  0  0
 20 43  1  0  0  0  0
 20 44  1  0  0  0  0
 21 45  1  0  0  0  0
 22 26  1  0  0  0  0
 22 23  1  0  0  0  0
 22 46  1  0  0  0  0
 23 24  1  0  0  0  0
 23 47  1  0  0  0  0
 23 48  1  0  0  0  0
 24 25  1  0  0  0  0
 24 49  1  0  0  0  0
 24 50  1  0  0  0  0
 25 26  1  0  0  0  0
 26 51  1  0  0  0  0
 26 52  1  0  0  0  0
 27 53  1  0  0  0  0
 27 54  1  0  0  0  0
 28 29  1  0  0  0  0
 28 55  1  0  0  0  0
 28 56  1  0  0  0  0
 29 57  1  0  0  0  0
M  END
> <s_m_source_file>
AV-unprocessed.smi

> <i_m_source_file_index>
20

> <i_lp_mmshare_version>
43012

> <i_f3d_flags>
0

> <s_epik_input>
W0NIMl0xW05IXUMoPU8pW0NIMl1bQ0BAXTEyW0NIMl1bQ0gyXVtDSDJdTihbQ0gyXTIpYyhuW2NIXW4zKWMoYzM0KW5bY0hdbjRbQ0gyXVtDQEhdKFtDSDJdW09IXSlbQ0BASF01W0NIMl1bQ0gyXU9bQ0gyXTU=

> <s_epik_cmdline>
J2VwaWtfcHl0aG9uJywgJy1waCcsICc3LjAnLCAnLXRuJywgJzgnLCAnLW1hJywgJzIwMCcsICctbWV0YWxfYmluZGluZycsICctaW1hZScsICc8aW5maWxlLm1hZT4nLCAnLW9tYWUnLCAnPG91dGZpbGUubWFlPic=

> <r_lp_tautomer_probability>
1

> <r_epik_Ionization_Penalty>
0.0019697

> <r_epik_Ionization_Penalty_Charging>
0

> <r_epik_Ionization_Penalty_Neutral>
0.0019697

> <r_epik_State_Penalty>
0.00113613

> <r_epik_Charging_Adjusted_Penalty>
0.00113613

> <i_epik_Tot_Q>
0

> <i_epik_Tot_abs_Q>
0

> <r_epik_Metal_State_Penalty>
-0

> <b_epik_Metal_Only>
0

> <s_lp_Force_Field>
OPLS_2005

> <r_lp_Energy>
60.744

> <b_lp_Chiralities_Consistent>
1

> <s_lp_Variant>
AV-unprocessed.smi:20-4

> <Gold.Version>
5.8.1

> <Gold.Id.Protein>
6NUR|6NUR_protein|mol2

> <Gold.PLP.Fitness>
43.6669

> <Gold.PLP.PLP>
-35.7824

> <Gold.PLP.part.hbond>
-4.0000

> <Gold.PLP.part.metal>
0.0000

> <Gold.PLP.part.buried>
-5.0065

> <Gold.PLP.part.nonpolar>
-32.4010

> <Gold.PLP.part.repulsive>
3.5240

> <Gold.PLP.ligand.clash>
0.0000

> <Gold.PLP.ligand.torsion>
1.7878

> <Gold.PLP.Chemscore.Hbond>
1.8016

> <Gold.PLP.Chemscore.CHOScore>
1.8445

> <Gold.PLP.Chemscore.Metal>
0.0000

> <Gold.Chemscore.Hbonds>
donor molecule, donor type, donor heavy atom, donor atom, acceptor molecule, acceptor atom, score
      L1  H    21    45       P1  8028  1.00
      L1  H    29    57       P1 10952  0.67
      P1  H  7918  7932       L1     1  0.23
      L1  C    16    39       P1 10171  1.00
      L1  C    16    39       P1 10175  0.83

> <Gold.PLP.Chemscore.Internal.Correction>
0.5218

> <Gold.Rescore>
     Score         DG    S(hbond)    S(metal)    S(lipo)     H(rot)  DE(clash)    DE(int)     intcor
     11.19     -14.03       1.58        0.00      88.03       2.74       1.26       1.58       ----

> <Gold.Chemscore.Fitness>
11.1898

> <Gold.Chemscore.DG>
-14.0324

> <Gold.Chemscore.ZeroCoef>
-5.4800

> <Gold.Chemscore.Hbond>
1.5783

> <Gold.Chemscore.Metal>
0.0000

> <Gold.Chemscore.Lipo>
88.0255

> <Gold.Chemscore.Internal_Hbond>
0.0000

> <Gold.Chemscore.DEClash>
1.2611

> <Gold.Chemscore.DEInternal>
1.5814

> <Gold.Chemscore.Rot>
2.7415

> <Gold.Chemscore.Internal.Correction>
   9.000000E+99

> <Gold.Chemscore.Hbonds>
donor molecule, donor type, donor heavy atom, donor atom, acceptor molecule, acceptor atom, score
      L1  H    21    45       P1  8028  0.78
      L1  H    29    57       P1 10952  0.65
      P1  H  7918  7932       L1     1  0.22

> <Gold.Chemscore.Hbond.Weighted>
-5.2716

> <Gold.Chemscore.Metal.Weighted>
-0.0000

> <Gold.Chemscore.Lipo.Weighted>
-10.2990

> <Gold.Chemscore.Internal_Hbond.Weighted>
0.0000

> <Gold.Chemscore.DEClash.Weighted>
1.2611

> <Gold.Chemscore.DEInternal.Weighted>
1.5814

> <Gold.Chemscore.Rot.Weighted>
7.0182

> <Gold.Chemscore.Internal.Correction.Weighted>
   9.000000E+99

> <Gold.Protein.RotatedTorsions>
[ 6907 6896 6895 6894 ] final  -92.43 input  -60.11 | X-H torsion
[ 7974 7965 7964 7962 ] final -142.33 input  175.53 | X-H torsion
[ 8008 7997 7996 7995 ] final   82.35 input   59.86 | X-H torsion
[ 10167 10162 10161 10158 ] final   74.91 input  -65.29 | X-H torsion
[ 10718 10713 10712 10709 ] final -123.12 input   66.30 | X-H torsion
[ 10763 10752 10751 10750 ] final  171.64 input  -60.55 | X-H torsion
[ 11005 11000 10999 10996 ] final    5.70 input  -57.11 | X-H torsion

> <Gold.Protein.ActiveResidues>
 VAL166  LYS551  ARG553  GLY616  TRP617  ASP618  TYR619  PRO620  LYS621  CYS622 
 ASP623  PHE694  ASN695  SER759  ASP760  ASP761  ALA762  ILE779  LEU786  VAL792 
 PHE793  MET794  SER795  GLU796  ALA797  LYS798  CYS799  TRP800  GLU811  SER814 

> <Gold.Protein.RotatedAtoms>
  150.6906  134.2123  159.4363 H   0  0  0  0  0  0  0  0  0  0  0  0  # atno 6907 bound_to 6896
  152.0084  134.9887  160.0576 H   0  0  0  0  0  0  0  0  0  0  0  0  # atno 6908 bound_to 6896
  152.1512  133.4488  159.4851 H   0  0  0  0  0  0  0  0  0  0  0  0  # atno 6909 bound_to 6896
  144.8452  140.5971  143.5426 H   0  0  0  0  0  0  0  0  0  0  0  0  # atno 7974 bound_to 7965
  155.9094  140.3428  155.6087 H   0  0  0  0  0  0  0  0  0  0  0  0  # atno 8008 bound_to 7997
  155.7405  140.0807  157.2266 H   0  0  0  0  0  0  0  0  0  0  0  0  # atno 8009 bound_to 7997
  154.4054  140.1571  156.2598 H   0  0  0  0  0  0  0  0  0  0  0  0  # atno 8010 bound_to 7997
  140.0086  144.5631  150.7677 H   0  0  0  0  0  0  0  0  0  0  0  0  # atno 10167 bound_to 10162
  156.1475  130.6511  150.9865 H   0  0  0  0  0  0  0  0  0  0  0  0  # atno 10718 bound_to 10713
  154.4148  135.2757  155.2014 H   0  0  0  0  0  0  0  0  0  0  0  0  # atno 10763 bound_to 10752
  154.3984  135.6050  153.5887 H   0  0  0  0  0  0  0  0  0  0  0  0  # atno 10764 bound_to 10752
  152.9832  135.5920  154.4435 H   0  0  0  0  0  0  0  0  0  0  0  0  # atno 10765 bound_to 10752
  140.5678  134.0131  155.7996 H   0  0  0  0  0  0  0  0  0  0  0  0  # atno 11005 bound_to 11000
  145.4612  139.1512  143.3865 LP  0  0  0  0  0  0  0  0  0  0  0  0  # atno 17320 bound_to 7965
  146.2737  140.4742  142.8804 LP  0  0  0  0  0  0  0  0  0  0  0  0  # atno 17321 bound_to 7965
  140.7390  143.2786  151.3667 LP  0  0  0  0  0  0  0  0  0  0  0  0  # atno 17342 bound_to 10162
  139.6221  144.0887  152.2400 LP  0  0  0  0  0  0  0  0  0  0  0  0  # atno 17343 bound_to 10162
  157.6629  131.0877  150.7796 LP  0  0  0  0  0  0  0  0  0  0  0  0  # atno 17370 bound_to 10713
  156.7866  130.4876  149.5392 LP  0  0  0  0  0  0  0  0  0  0  0  0  # atno 17371 bound_to 10713
  141.1075  133.9670  157.2970 LP  0  0  0  0  0  0  0  0  0  0  0  0  # atno 17394 bound_to 11000
  139.9376  135.0195  156.8607 LP  0  0  0  0  0  0  0  0  0  0  0  0  # atno 17395 bound_to 11000

$$$$
