AV-unprocessed.smi:2695|AV-procd|sdf|10407|dock2
  -GOLD-   2272014443D 1   1.00000     0.00000
 Structure written by MMmdl.
 41 42  0  0  0  0  0  0  0  0  2 V2000
  149.4457  136.6528  154.3551 C   0  0  0  0  0  0  0  0  0  0  0  0
  150.0644  137.6509  155.3267 C   0  0  0  0  0  0  0  0  0  0  0  0
  151.1364  138.3882  154.9616 C   0  0  0  0  0  0  0  0  0  0  0  0
  151.7025  139.3269  155.8142 C   0  0  0  0  0  0  0  0  0  0  0  0
  152.6966  140.0097  155.4825 O   0  5  0  0  0  0  0  0  0  0  0  0
  151.0934  139.4641  157.0549 C   0  0  0  0  0  0  0  0  0  0  0  0
  149.9328  138.7037  157.5023 C   0  0  0  0  0  0  0  0  0  0  0  0
  149.4234  138.8775  158.6111 O   0  0  0  0  0  0  0  0  0  0  0  0
  149.4638  137.7903  156.6062 N   0  0  0  0  0  0  0  0  0  0  0  0
  148.3190  136.9363  156.9984 C   0  0  0  0  0  0  0  0  0  0  0  0
  148.6150  136.0197  158.1950 C   0  0  0  0  0  0  0  0  0  0  0  0
  149.7334  135.9885  158.7101 O   0  0  0  0  0  0  0  0  0  0  0  0
  147.5825  135.2790  158.6261 N   0  0  0  0  0  0  0  0  0  0  0  0
  147.6112  134.3159  159.7284 C   0  0  2  0  0  0  0  0  0  0  0  0
  147.7413  132.8822  159.1519 C   0  0  0  0  0  0  0  0  0  0  0  0
  148.0715  131.7941  160.1809 C   0  0  0  0  0  0  0  0  0  0  0  0
  148.6214  130.6179  159.3671 C   0  0  0  0  0  0  0  0  0  0  0  0
  149.1347  131.2099  158.0470 C   0  0  0  0  0  0  0  0  0  0  0  0
  148.8675  132.7163  158.1213 C   0  0  0  0  0  0  0  0  0  0  0  0
  146.3577  134.5281  160.6080 C   0  0  0  0  0  0  0  0  0  0  0  0
  146.4629  133.8064  161.7245 F   0  0  0  0  0  0  0  0  0  0  0  0
  146.2277  135.8130  160.9412 F   0  0  0  0  0  0  0  0  0  0  0  0
  145.2553  134.1330  159.9728 F   0  0  0  0  0  0  0  0  0  0  0  0
  149.8425  136.7956  153.3493 H   0  0  0  0  0  0  0  0  0  0  0  0
  148.3643  136.7722  154.2868 H   0  0  0  0  0  0  0  0  0  0  0  0
  149.6755  135.6305  154.6557 H   0  0  0  0  0  0  0  0  0  0  0  0
  151.5609  138.2452  153.9780 H   0  0  0  0  0  0  0  0  0  0  0  0
  151.4998  140.1859  157.7486 H   0  0  0  0  0  0  0  0  0  0  0  0
  147.4223  137.5152  157.2121 H   0  0  0  0  0  0  0  0  0  0  0  0
  148.0157  136.3108  156.1564 H   0  0  0  0  0  0  0  0  0  0  0  0
  146.7012  135.3825  158.1447 H   0  0  0  0  0  0  0  0  0  0  0  0
  148.4838  134.5038  160.3563 H   0  0  0  0  0  0  0  0  0  0  0  0
  146.8037  132.6109  158.6637 H   0  0  0  0  0  0  0  0  0  0  0  0
  148.8415  132.1523  160.8656 H   0  0  0  0  0  0  0  0  0  0  0  0
  147.2075  131.5010  160.7776 H   0  0  0  0  0  0  0  0  0  0  0  0
  149.4051  130.0895  159.9107 H   0  0  0  0  0  0  0  0  0  0  0  0
  147.8264  129.8996  159.1631 H   0  0  0  0  0  0  0  0  0  0  0  0
  150.1935  131.0020  157.8900 H   0  0  0  0  0  0  0  0  0  0  0  0
  148.5888  130.7722  157.2100 H   0  0  0  0  0  0  0  0  0  0  0  0
  148.6122  133.1355  157.1473 H   0  0  0  0  0  0  0  0  0  0  0  0
  149.7665  133.2265  158.4711 H   0  0  0  0  0  0  0  0  0  0  0  0
  1  2  1  0  0  0  0
  1 24  1  0  0  0  0
  1 25  1  0  0  0  0
  1 26  1  0  0  0  0
  2  9  1  0  0  0  0
  2  3  2  0  0  0  0
  3  4  1  0  0  0  0
  3 27  1  0  0  0  0
  4  5  1  0  0  0  0
  4  6  2  0  0  0  0
  6  7  1  0  0  0  0
  6 28  1  0  0  0  0
  7  8  2  0  0  0  0
  7  9  1  0  0  0  0
  9 10  1  0  0  0  0
 10 11  1  0  0  0  0
 10 29  1  0  0  0  0
 10 30  1  0  0  0  0
 11 12  2  0  0  0  0
 11 13  1  0  0  0  0
 13 14  1  0  0  0  0
 13 31  1  0  0  0  0
 14 15  1  0  0  0  0
 14 20  1  0  0  0  0
 14 32  1  0  0  0  0
 15 19  1  0  0  0  0
 15 16  1  0  0  0  0
 15 33  1  0  0  0  0
 16 17  1  0  0  0  0
 16 34  1  0  0  0  0
 16 35  1  0  0  0  0
 17 18  1  0  0  0  0
 17 36  1  0  0  0  0
 17 37  1  0  0  0  0
 18 19  1  0  0  0  0
 18 38  1  0  0  0  0
 18 39  1  0  0  0  0
 19 40  1  0  0  0  0
 19 41  1  0  0  0  0
 20 21  1  0  0  0  0
 20 22  1  0  0  0  0
 20 23  1  0  0  0  0
M  CHG  1   5  -1
M  END
> <s_m_source_file>
AV-unprocessed.smi

> <i_m_source_file_index>
2695

> <i_lp_mmshare_version>
43012

> <i_f3d_flags>
0

> <s_epik_input>
W0NIM11jMVtjSF1jKFtPSF0pW2NIXWMoPU8pbjFbQ0gyXUMoPU8pW05IXVtDQEBIXShDKEYpKEYpRilbQ0hdMltDSDJdW0NIMl1bQ0gyXVtDSDJdMg==

> <s_epik_cmdline>
J2VwaWtfcHl0aG9uJywgJy1waCcsICc3LjAnLCAnLXRuJywgJzgnLCAnLW1hJywgJzIwMCcsICctbWV0YWxfYmluZGluZycsICctaW1hZScsICc8aW5maWxlLm1hZT4nLCAnLW9tYWUnLCAnPG91dGZpbGUubWFlPic=

> <r_lp_tautomer_probability>
1

> <r_epik_Ionization_Penalty>
0.176977

> <r_epik_Ionization_Penalty_Charging>
0.176977

> <r_epik_Ionization_Penalty_Neutral>
1.44272e-07

> <r_epik_State_Penalty>
0.160849

> <r_epik_Charging_Adjusted_Penalty>
0.337826

> <i_epik_Tot_Q>
-1

> <i_epik_Tot_abs_Q>
1

> <r_epik_Metal_State_Penalty>
0.16085

> <b_epik_Metal_Only>
0

> <s_lp_Force_Field>
OPLS_2005

> <r_lp_Energy>
43.1089

> <b_lp_Chiralities_Consistent>
1

> <s_lp_Variant>
AV-unprocessed.smi:2695-1

> <Gold.Version>
5.8.1

> <Gold.Id.Protein>
6NUR|6NUR_protein|mol2

> <Gold.PLP.Fitness>
42.3045

> <Gold.PLP.PLP>
-33.0641

> <Gold.PLP.part.hbond>
-3.7231

> <Gold.PLP.part.metal>
0.0000

> <Gold.PLP.part.buried>
-2.9932

> <Gold.PLP.part.nonpolar>
-26.4577

> <Gold.PLP.part.repulsive>
0.1491

> <Gold.PLP.ligand.clash>
0.0000

> <Gold.PLP.ligand.torsion>
0.4694

> <Gold.PLP.Chemscore.Hbond>
3.2527

> <Gold.PLP.Chemscore.CHOScore>
0.0000

> <Gold.PLP.Chemscore.Metal>
0.0000

> <Gold.Chemscore.Hbonds>
donor molecule, donor type, donor heavy atom, donor atom, acceptor molecule, acceptor atom, score
      P1  H  6896  6909       L1    12  1.00
      P1  H  7989  7998       L1     5  0.05
      P1  H  7997  8010       L1     5  2.00

> <Gold.PLP.Chemscore.Internal.Correction>
0.4211

> <Gold.Rescore>
     Score         DG    S(hbond)    S(metal)    S(lipo)     H(rot)  DE(clash)    DE(int)     intcor
     14.00     -15.31       1.99        0.00      65.59       1.75       0.09       1.21       ----

> <Gold.Chemscore.Fitness>
14.0025

> <Gold.Chemscore.DG>
-15.3056

> <Gold.Chemscore.ZeroCoef>
-5.4800

> <Gold.Chemscore.Hbond>
1.9884

> <Gold.Chemscore.Metal>
0.0000

> <Gold.Chemscore.Lipo>
65.5903

> <Gold.Chemscore.Internal_Hbond>
0.0000

> <Gold.Chemscore.DEClash>
0.0906

> <Gold.Chemscore.DEInternal>
1.2125

> <Gold.Chemscore.Rot>
1.7539

> <Gold.Chemscore.Internal.Correction>
   9.000000E+99

> <Gold.Chemscore.Hbonds>
donor molecule, donor type, donor heavy atom, donor atom, acceptor molecule, acceptor atom, score
      P1  H  6896  6909       L1    12  1.00
      P1  H  7989  7998       L1     5  0.01
      P1  H  7997  8010       L1     5  1.00

> <Gold.Chemscore.Hbond.Weighted>
-6.6414

> <Gold.Chemscore.Metal.Weighted>
-0.0000

> <Gold.Chemscore.Lipo.Weighted>
-7.6741

> <Gold.Chemscore.Internal_Hbond.Weighted>
0.0000

> <Gold.Chemscore.DEClash.Weighted>
0.0906

> <Gold.Chemscore.DEInternal.Weighted>
1.2125

> <Gold.Chemscore.Rot.Weighted>
4.4899

> <Gold.Chemscore.Internal.Correction.Weighted>
   9.000000E+99

> <Gold.Protein.RotatedTorsions>
[ 6907 6896 6895 6894 ] final   64.72 input  -60.11 | X-H torsion
[ 7974 7965 7964 7962 ] final  -43.11 input  175.53 | X-H torsion
[ 8008 7997 7996 7995 ] final   84.12 input   59.86 | X-H torsion
[ 10167 10162 10161 10158 ] final  -93.02 input  -65.29 | X-H torsion
[ 10718 10713 10712 10709 ] final -101.93 input   66.30 | X-H torsion
[ 10763 10752 10751 10750 ] final  127.88 input  -60.55 | X-H torsion
[ 11005 11000 10999 10996 ] final -120.63 input  -57.11 | X-H torsion

> <Gold.Protein.ActiveResidues>
 VAL166  LYS551  ARG553  GLY616  TRP617  ASP618  TYR619  PRO620  LYS621  CYS622 
 ASP623  PHE694  ASN695  SER759  ASP760  ASP761  ALA762  ILE779  LEU786  VAL792 
 PHE793  MET794  SER795  GLU796  ALA797  LYS798  CYS799  TRP800  GLU811  SER814 

> <Gold.Protein.RotatedAtoms>
  152.4353  134.5698  159.9917 H   0  0  0  0  0  0  0  0  0  0  0  0  # atno 6907 bound_to 6896
  151.5811  133.3372  159.3016 H   0  0  0  0  0  0  0  0  0  0  0  0  # atno 6908 bound_to 6896
  150.8250  134.7512  159.6870 H   0  0  0  0  0  0  0  0  0  0  0  0  # atno 6909 bound_to 6896
  146.0050  140.7030  142.9252 H   0  0  0  0  0  0  0  0  0  0  0  0  # atno 7974 bound_to 7965
  155.9329  140.3413  155.6263 H   0  0  0  0  0  0  0  0  0  0  0  0  # atno 8008 bound_to 7997
  155.7136  140.0775  157.2379 H   0  0  0  0  0  0  0  0  0  0  0  0  # atno 8009 bound_to 7997
  154.4088  140.1618  156.2310 H   0  0  0  0  0  0  0  0  0  0  0  0  # atno 8010 bound_to 7997
  140.3289  143.3006  151.9964 H   0  0  0  0  0  0  0  0  0  0  0  0  # atno 10167 bound_to 10162
  156.0211  130.5396  150.7035 H   0  0  0  0  0  0  0  0  0  0  0  0  # atno 10718 bound_to 10713
  153.7166  135.3260  155.3258 H   0  0  0  0  0  0  0  0  0  0  0  0  # atno 10763 bound_to 10752
  154.8369  135.4489  154.1260 H   0  0  0  0  0  0  0  0  0  0  0  0  # atno 10764 bound_to 10752
  153.2368  135.6966  153.7907 H   0  0  0  0  0  0  0  0  0  0  0  0  # atno 10765 bound_to 10752
  141.0130  134.0237  157.3388 H   0  0  0  0  0  0  0  0  0  0  0  0  # atno 11005 bound_to 11000
  144.6932  140.3300  143.7217 LP  0  0  0  0  0  0  0  0  0  0  0  0  # atno 17320 bound_to 7965
  145.7429  139.1770  143.2365 LP  0  0  0  0  0  0  0  0  0  0  0  0  # atno 17321 bound_to 7965
  139.4860  144.6251  151.7180 LP  0  0  0  0  0  0  0  0  0  0  0  0  # atno 17342 bound_to 10162
  140.5415  144.0571  150.6090 LP  0  0  0  0  0  0  0  0  0  0  0  0  # atno 17343 bound_to 10162
  157.4690  131.0891  151.0663 LP  0  0  0  0  0  0  0  0  0  0  0  0  # atno 17370 bound_to 10713
  157.1129  130.6029  149.5486 LP  0  0  0  0  0  0  0  0  0  0  0  0  # atno 17371 bound_to 10713
  139.9100  135.0188  156.7653 LP  0  0  0  0  0  0  0  0  0  0  0  0  # atno 17394 bound_to 11000
  140.6702  133.9566  155.7852 LP  0  0  0  0  0  0  0  0  0  0  0  0  # atno 17395 bound_to 11000

$$$$
