AV-unprocessed.smi:281|AV-procd|sdf|2105|dock5
  -GOLD-   2262021393D 1   1.00000     0.00000
 Structure written by MMmdl.
 55 59  0  0  0  0  0  0  0  0  1 V2000
  147.9556  141.8750  154.1550 C   0  0  0  0  0  0  0  0  0  0  0  0
  148.7130  140.5835  154.4788 C   0  0  2  0  0  0  0  0  0  0  0  0
  147.7946  139.3522  154.4437 C   0  0  0  0  0  0  0  0  0  0  0  0
  148.5325  138.1554  154.8402 N   0  0  0  0  0  0  0  0  0  0  0  0
  147.9291  136.9523  154.6446 C   0  0  0  0  0  0  0  0  0  0  0  0
  148.3871  135.8506  155.2995 N   0  0  0  0  0  0  0  0  0  0  0  0
  147.8119  134.6597  155.1121 C   0  0  0  0  0  0  0  0  0  0  0  0
  146.7776  134.3474  154.3303 N   0  0  0  0  0  0  0  0  0  0  0  0
  146.3037  135.4459  153.6763 C   0  0  0  0  0  0  0  0  0  0  0  0
  146.8167  136.7716  153.7720 C   0  0  0  0  0  0  0  0  0  0  0  0
  146.0710  137.6202  152.9629 N   0  0  0  0  0  0  0  0  0  0  0  0
  145.1787  136.8430  152.4144 C   0  0  0  0  0  0  0  0  0  0  0  0
  145.2384  135.5219  152.7955 N   0  0  0  0  0  0  0  0  0  0  0  0
  144.3683  134.4454  152.3453 C   0  0  0  0  0  0  0  0  0  0  0  0
  144.7343  133.8937  150.9461 C   0  0  1  0  0  0  0  0  0  0  0  0
  144.9373  134.9833  150.0644 O   0  0  0  0  0  0  0  0  0  0  0  0
  145.9983  133.0313  150.9715 C   0  0  0  0  0  0  0  0  0  0  0  0
  145.4720  131.6177  150.7533 C   0  0  0  0  0  0  0  0  0  0  0  0
  144.3857  131.8259  149.8692 O   0  0  0  0  0  0  0  0  0  0  0  0
  143.6673  132.9522  150.3514 C   0  0  0  0  0  0  0  0  0  0  0  0
  149.2145  138.2960  156.1248 C   0  0  0  0  0  0  0  0  0  0  0  0
  150.0627  139.5958  156.1949 C   0  0  1  0  0  0  0  0  0  0  0  0
  150.4862  139.8698  157.6331 C   0  0  0  0  0  0  0  0  0  0  0  0
  151.8311  139.1696  157.7319 C   0  0  0  0  0  0  0  0  0  0  0  0
  152.4433  139.4752  156.4920 O   0  0  0  0  0  0  0  0  0  0  0  0
  151.4453  139.5758  155.4782 C   0  0  1  0  0  0  0  0  0  0  0  0
  151.6924  138.4812  154.4286 C   0  0  0  0  0  0  0  0  0  0  0  0
  149.2642  140.7087  155.7866 O   0  0  0  0  0  0  0  0  0  0  0  0
  147.5214  141.8354  153.1558 H   0  0  0  0  0  0  0  0  0  0  0  0
  148.6225  142.7366  154.1932 H   0  0  0  0  0  0  0  0  0  0  0  0
  147.1469  142.0479  154.8657 H   0  0  0  0  0  0  0  0  0  0  0  0
  149.5144  140.4660  153.7488 H   0  0  0  0  0  0  0  0  0  0  0  0
  146.9484  139.4978  155.1171 H   0  0  0  0  0  0  0  0  0  0  0  0
  147.3938  139.2263  153.4371 H   0  0  0  0  0  0  0  0  0  0  0  0
  148.2426  133.8398  155.6680 H   0  0  0  0  0  0  0  0  0  0  0  0
  144.4428  137.2167  151.7172 H   0  0  0  0  0  0  0  0  0  0  0  0
  144.4023  133.6469  153.0880 H   0  0  0  0  0  0  0  0  0  0  0  0
  143.3414  134.8133  152.3425 H   0  0  0  0  0  0  0  0  0  0  0  0
  145.4676  134.6861  149.3405 H   0  0  0  0  0  0  0  0  0  0  0  0
  146.6673  133.2906  150.1490 H   0  0  0  0  0  0  0  0  0  0  0  0
  146.5692  133.1218  151.8964 H   0  0  0  0  0  0  0  0  0  0  0  0
  146.2199  130.9498  150.3257 H   0  0  0  0  0  0  0  0  0  0  0  0
  145.1109  131.1834  151.6869 H   0  0  0  0  0  0  0  0  0  0  0  0
  142.9813  132.5971  151.1206 H   0  0  0  0  0  0  0  0  0  0  0  0
  143.0684  133.4108  149.5633 H   0  0  0  0  0  0  0  0  0  0  0  0
  148.4431  138.3235  156.8956 H   0  0  0  0  0  0  0  0  0  0  0  0
  149.8370  137.4323  156.3516 H   0  0  0  0  0  0  0  0  0  0  0  0
  150.6314  140.9402  157.7873 H   0  0  0  0  0  0  0  0  0  0  0  0
  149.7695  139.5239  158.3786 H   0  0  0  0  0  0  0  0  0  0  0  0
  152.4307  139.5191  158.5726 H   0  0  0  0  0  0  0  0  0  0  0  0
  151.7057  138.0897  157.8215 H   0  0  0  0  0  0  0  0  0  0  0  0
  151.6082  140.5436  155.0022 H   0  0  0  0  0  0  0  0  0  0  0  0
  150.9578  138.5160  153.6248 H   0  0  0  0  0  0  0  0  0  0  0  0
  151.6670  137.4888  154.8758 H   0  0  0  0  0  0  0  0  0  0  0  0
  152.6755  138.6036  153.9744 H   0  0  0  0  0  0  0  0  0  0  0  0
  1  2  1  0  0  0  0
  1 29  1  0  0  0  0
  1 30  1  0  0  0  0
  1 31  1  0  0  0  0
  2 28  1  0  0  0  0
  2  3  1  0  0  0  0
  2 32  1  0  0  0  0
  3  4  1  0  0  0  0
  3 33  1  0  0  0  0
  3 34  1  0  0  0  0
  4  5  1  0  0  0  0
  4 21  1  0  0  0  0
  5 10  1  0  0  0  0
  5  6  2  0  0  0  0
  6  7  1  0  0  0  0
  7  8  2  0  0  0  0
  7 35  1  0  0  0  0
  8  9  1  0  0  0  0
  9 13  1  0  0  0  0
  9 10  2  0  0  0  0
 10 11  1  0  0  0  0
 11 12  2  0  0  0  0
 12 13  1  0  0  0  0
 12 36  1  0  0  0  0
 13 14  1  0  0  0  0
 14 15  1  0  0  0  0
 14 37  1  0  0  0  0
 14 38  1  0  0  0  0
 15 20  1  0  0  0  0
 15 16  1  0  0  0  0
 15 17  1  0  0  0  0
 16 39  1  0  0  0  0
 17 18  1  0  0  0  0
 17 40  1  0  0  0  0
 17 41  1  0  0  0  0
 18 19  1  0  0  0  0
 18 42  1  0  0  0  0
 18 43  1  0  0  0  0
 19 20  1  0  0  0  0
 20 44  1  0  0  0  0
 20 45  1  0  0  0  0
 21 22  1  0  0  0  0
 21 46  1  0  0  0  0
 21 47  1  0  0  0  0
 22 26  1  0  0  0  0
 22 23  1  0  0  0  0
 22 28  1  0  0  0  0
 23 24  1  0  0  0  0
 23 48  1  0  0  0  0
 23 49  1  0  0  0  0
 24 25  1  0  0  0  0
 24 50  1  0  0  0  0
 24 51  1  0  0  0  0
 25 26  1  0  0  0  0
 26 27  1  0  0  0  0
 26 52  1  0  0  0  0
 27 53  1  0  0  0  0
 27 54  1  0  0  0  0
 27 55  1  0  0  0  0
M  END
> <s_m_source_file>
AV-unprocessed.smi

> <i_m_source_file_index>
281

> <i_lp_mmshare_version>
43012

> <i_f3d_flags>
0

> <s_epik_input>
W0NIM11bQ0BASF0xT1tDSDJdW0NIMl1bQ0BAXTEyW0NIMl1OKFtDSDJdW0NASF0oTzIpW0NIM10pYyhuW2NIXW4zKWMoYzM0KW5bY0hdbjRbQ0gyXVtDQEBdNShbT0hdKVtDSDJdW0NIMl1PW0NIMl01

> <s_epik_cmdline>
J2VwaWtfcHl0aG9uJywgJy1waCcsICc3LjAnLCAnLXRuJywgJzgnLCAnLW1hJywgJzIwMCcsICctbWV0YWxfYmluZGluZycsICctaW1hZScsICc8aW5maWxlLm1hZT4nLCAnLW9tYWUnLCAnPG91dGZpbGUubWFlPic=

> <r_lp_tautomer_probability>
1

> <r_epik_Ionization_Penalty>
0.00571331

> <r_epik_Ionization_Penalty_Charging>
0

> <r_epik_Ionization_Penalty_Neutral>
0.00571331

> <r_epik_State_Penalty>
0.00399586

> <r_epik_Charging_Adjusted_Penalty>
0.00399586

> <i_epik_Tot_Q>
0

> <i_epik_Tot_abs_Q>
0

> <r_epik_Metal_State_Penalty>
-0

> <b_epik_Metal_Only>
0

> <s_lp_Force_Field>
OPLS_2005

> <r_lp_Energy>
53.3416

> <b_lp_Chiralities_Consistent>
1

> <s_lp_Variant>
AV-unprocessed.smi:281-5

> <Gold.Version>
5.8.1

> <Gold.Id.Protein>
6NUR|6NUR_protein|mol2

> <Gold.PLP.Fitness>
41.0968

> <Gold.PLP.PLP>
-33.2137

> <Gold.PLP.part.hbond>
-2.8888

> <Gold.PLP.part.metal>
0.0000

> <Gold.PLP.part.buried>
-2.9211

> <Gold.PLP.part.nonpolar>
-27.8971

> <Gold.PLP.part.repulsive>
0.7304

> <Gold.PLP.ligand.clash>
0.0000

> <Gold.PLP.ligand.torsion>
0.9827

> <Gold.PLP.Chemscore.Hbond>
2.1877

> <Gold.PLP.Chemscore.CHOScore>
1.0000

> <Gold.PLP.Chemscore.Metal>
0.0000

> <Gold.Chemscore.Hbonds>
donor molecule, donor type, donor heavy atom, donor atom, acceptor molecule, acceptor atom, score
      L1  H    16    39       P1  7921  1.00
      P1  H  7997  8010       L1    25  1.00
      P1  H 10785 10796       L1    19  0.13
      L1  C    12    36       P1 10171  1.00

> <Gold.PLP.Chemscore.Internal.Correction>
0.2854

> <Gold.Rescore>
     Score         DG    S(hbond)    S(metal)    S(lipo)     H(rot)  DE(clash)    DE(int)     intcor
     13.98     -16.42       1.96        0.00      83.23       2.09       0.24       2.20       ----

> <Gold.Chemscore.Fitness>
13.9817

> <Gold.Chemscore.DG>
-16.4207

> <Gold.Chemscore.ZeroCoef>
-5.4800

> <Gold.Chemscore.Hbond>
1.9641

> <Gold.Chemscore.Metal>
0.0000

> <Gold.Chemscore.Lipo>
83.2317

> <Gold.Chemscore.Internal_Hbond>
0.0000

> <Gold.Chemscore.DEClash>
0.2350

> <Gold.Chemscore.DEInternal>
2.2040

> <Gold.Chemscore.Rot>
2.0927

> <Gold.Chemscore.Internal.Correction>
   9.000000E+99

> <Gold.Chemscore.Hbonds>
donor molecule, donor type, donor heavy atom, donor atom, acceptor molecule, acceptor atom, score
      L1  H    16    39       P1  7921  0.96
      P1  H  7997  8010       L1    25  0.93
      P1  H 10785 10796       L1    19  0.13

> <Gold.Chemscore.Hbond.Weighted>
-6.5600

> <Gold.Chemscore.Metal.Weighted>
-0.0000

> <Gold.Chemscore.Lipo.Weighted>
-9.7381

> <Gold.Chemscore.Internal_Hbond.Weighted>
0.0000

> <Gold.Chemscore.DEClash.Weighted>
0.2350

> <Gold.Chemscore.DEInternal.Weighted>
2.2040

> <Gold.Chemscore.Rot.Weighted>
5.3573

> <Gold.Chemscore.Internal.Correction.Weighted>
   9.000000E+99

> <Gold.Protein.RotatedTorsions>
[ 6907 6896 6895 6894 ] final  -99.86 input  -60.11 | X-H torsion
[ 7974 7965 7964 7962 ] final   25.19 input  175.53 | X-H torsion
[ 8008 7997 7996 7995 ] final   70.22 input   59.86 | X-H torsion
[ 10167 10162 10161 10158 ] final   16.98 input  -65.29 | X-H torsion
[ 10718 10713 10712 10709 ] final   82.06 input   66.30 | X-H torsion
[ 10763 10752 10751 10750 ] final -140.57 input  -60.55 | X-H torsion
[ 11005 11000 10999 10996 ] final   32.24 input  -57.11 | X-H torsion

> <Gold.Protein.ActiveResidues>
 VAL166  LYS551  ARG553  GLY616  TRP617  ASP618  TYR619  PRO620  LYS621  CYS622 
 ASP623  PHE694  ASN695  SER759  ASP760  ASP761  ALA762  ILE779  LEU786  VAL792 
 PHE793  MET794  SER795  GLU796  ALA797  LYS798  CYS799  TRP800  GLU811  SER814 

> <Gold.Protein.RotatedAtoms>
  150.7095  134.0975  159.3953 H   0  0  0  0  0  0  0  0  0  0  0  0  # atno 6907 bound_to 6896
  151.8961  135.0395  160.0511 H   0  0  0  0  0  0  0  0  0  0  0  0  # atno 6908 bound_to 6896
  152.2452  133.5133  159.5330 H   0  0  0  0  0  0  0  0  0  0  0  0  # atno 6909 bound_to 6896
  146.1901  139.7501  142.8838 H   0  0  0  0  0  0  0  0  0  0  0  0  # atno 7974 bound_to 7965
  155.7356  140.3491  155.5080 H   0  0  0  0  0  0  0  0  0  0  0  0  # atno 8008 bound_to 7997
  155.9142  140.1056  157.1277 H   0  0  0  0  0  0  0  0  0  0  0  0  # atno 8009 bound_to 7997
  154.4060  140.1262  156.4583 H   0  0  0  0  0  0  0  0  0  0  0  0  # atno 8010 bound_to 7997
  140.5759  143.9073  150.6750 H   0  0  0  0  0  0  0  0  0  0  0  0  # atno 10167 bound_to 10162
  157.6848  131.0031  150.2319 H   0  0  0  0  0  0  0  0  0  0  0  0  # atno 10718 bound_to 10713
  154.8574  135.3549  154.5729 H   0  0  0  0  0  0  0  0  0  0  0  0  # atno 10763 bound_to 10752
  153.6341  135.7001  153.5269 H   0  0  0  0  0  0  0  0  0  0  0  0  # atno 10764 bound_to 10752
  153.3025  135.4202  155.1224 H   0  0  0  0  0  0  0  0  0  0  0  0  # atno 10765 bound_to 10752
  140.2755  134.3033  155.7815 H   0  0  0  0  0  0  0  0  0  0  0  0  # atno 11005 bound_to 11000
  145.3819  141.0359  143.3173 LP  0  0  0  0  0  0  0  0  0  0  0  0  # atno 17320 bound_to 7965
  144.8470  139.5381  143.6874 LP  0  0  0  0  0  0  0  0  0  0  0  0  # atno 17321 bound_to 7965
  140.2560  143.3558  152.1364 LP  0  0  0  0  0  0  0  0  0  0  0  0  # atno 17342 bound_to 10162
  139.5142  144.6945  151.5669 LP  0  0  0  0  0  0  0  0  0  0  0  0  # atno 17343 bound_to 10162
  156.2950  130.3751  149.7805 LP  0  0  0  0  0  0  0  0  0  0  0  0  # atno 17370 bound_to 10713
  156.5452  130.8317  151.3282 LP  0  0  0  0  0  0  0  0  0  0  0  0  # atno 17371 bound_to 10713
  141.2171  133.7493  156.9400 LP  0  0  0  0  0  0  0  0  0  0  0  0  # atno 17394 bound_to 11000
  140.1333  134.9342  157.2367 LP  0  0  0  0  0  0  0  0  0  0  0  0  # atno 17395 bound_to 11000

$$$$
