AV-unprocessed.smi:1586|AV-procd|sdf|6373|dock3
  -GOLD-   22720 7 03D 1   1.00000     0.00000
 Structure written by MMmdl.
 47 48  0  0  0  0  0  0  0  0  2 V2000
  145.8980  142.8315  154.2480 C   0  0  0  0  0  0  0  0  0  0  0  0
  146.3439  141.9430  155.4183 C   0  0  0  0  0  0  0  0  0  0  0  0
  147.8167  141.9336  155.6031 N   0  3  0  0  0  0  0  0  0  0  0  0
  148.5572  141.3430  154.4596 C   0  0  0  0  0  0  0  0  0  0  0  0
  150.0771  141.3913  154.7229 C   0  0  0  0  0  0  0  0  0  0  0  0
  150.4474  140.6419  155.9322 N   0  0  0  0  0  0  0  0  0  0  0  0
  150.2433  139.1771  155.8687 C   0  0  2  0  0  0  0  0  0  0  0  0
  150.7381  138.5087  157.1732 C   0  0  0  0  0  0  0  0  0  0  0  0
  150.9540  138.5432  154.6406 C   0  0  0  0  0  0  0  0  0  0  0  0
  150.3408  137.2855  154.2239 N   0  0  0  0  0  0  0  0  0  0  0  0
  150.5721  136.0980  154.8033 C   0  0  0  0  0  0  0  0  0  0  0  0
  151.3458  135.9464  155.7500 O   0  0  0  0  0  0  0  0  0  0  0  0
  149.8590  135.1188  154.2215 N   0  0  0  0  0  0  0  0  0  0  0  0
  149.8393  133.7438  154.5689 C   0  0  0  0  0  0  0  0  0  0  0  0
  149.2654  132.7794  153.6987 C   0  0  0  0  0  0  0  0  0  0  0  0
  149.4401  131.6076  154.3799 C   0  0  0  0  0  0  0  0  0  0  0  0
  149.0812  130.1938  154.0740 C   0  0  0  0  0  0  0  0  0  0  0  0
  150.0679  131.8373  155.5649 O   0  0  0  0  0  0  0  0  0  0  0  0
  150.3224  133.2090  155.6799 N   0  0  0  0  0  0  0  0  0  0  0  0
  149.7558  141.3117  157.0443 C   0  0  0  0  0  0  0  0  0  0  0  0
  148.2201  141.2836  156.8747 C   0  0  0  0  0  0  0  0  0  0  0  0
  144.8102  142.8904  154.2065 H   0  0  0  0  0  0  0  0  0  0  0  0
  146.2349  142.4424  153.2875 H   0  0  0  0  0  0  0  0  0  0  0  0
  146.2792  143.8474  154.3548 H   0  0  0  0  0  0  0  0  0  0  0  0
  145.8764  142.3261  156.3264 H   0  0  0  0  0  0  0  0  0  0  0  0
  145.9767  140.9240  155.2876 H   0  0  0  0  0  0  0  0  0  0  0  0
  148.2198  140.3228  154.2730 H   0  0  0  0  0  0  0  0  0  0  0  0
  148.3462  141.9085  153.5528 H   0  0  0  0  0  0  0  0  0  0  0  0
  150.6332  141.0493  153.8526 H   0  0  0  0  0  0  0  0  0  0  0  0
  150.3843  142.4304  154.8504 H   0  0  0  0  0  0  0  0  0  0  0  0
  149.1789  138.9693  155.7749 H   0  0  0  0  0  0  0  0  0  0  0  0
  150.6993  137.4214  157.1121 H   0  0  0  0  0  0  0  0  0  0  0  0
  150.1235  138.7729  158.0327 H   0  0  0  0  0  0  0  0  0  0  0  0
  151.7695  138.7855  157.3943 H   0  0  0  0  0  0  0  0  0  0  0  0
  150.9341  139.1958  153.7687 H   0  0  0  0  0  0  0  0  0  0  0  0
  152.0046  138.3578  154.8664 H   0  0  0  0  0  0  0  0  0  0  0  0
  149.6926  137.3261  153.4506 H   0  0  0  0  0  0  0  0  0  0  0  0
  149.2600  135.3856  153.4543 H   0  0  0  0  0  0  0  0  0  0  0  0
  148.8001  132.9207  152.7346 H   0  0  0  0  0  0  0  0  0  0  0  0
  148.9678  130.0451  153.0000 H   0  0  0  0  0  0  0  0  0  0  0  0
  148.1416  129.9221  154.5550 H   0  0  0  0  0  0  0  0  0  0  0  0
  149.8534  129.5107  154.4289 H   0  0  0  0  0  0  0  0  0  0  0  0
  150.0421  140.8865  158.0044 H   0  0  0  0  0  0  0  0  0  0  0  0
  150.0923  142.3487  157.0880 H   0  0  0  0  0  0  0  0  0  0  0  0
  147.7626  141.8182  157.7079 H   0  0  0  0  0  0  0  0  0  0  0  0
  147.8348  140.2643  156.9163 H   0  0  0  0  0  0  0  0  0  0  0  0
  148.1097  142.8975  155.6747 H   0  0  0  0  0  0  0  0  0  0  0  0
  1  2  1  0  0  0  0
  1 22  1  0  0  0  0
  1 23  1  0  0  0  0
  1 24  1  0  0  0  0
  2  3  1  0  0  0  0
  2 25  1  0  0  0  0
  2 26  1  0  0  0  0
  3 21  1  0  0  0  0
  3  4  1  0  0  0  0
  3 47  1  0  0  0  0
  4  5  1  0  0  0  0
  4 27  1  0  0  0  0
  4 28  1  0  0  0  0
  5  6  1  0  0  0  0
  5 29  1  0  0  0  0
  5 30  1  0  0  0  0
  6  7  1  0  0  0  0
  6 20  1  0  0  0  0
  7  8  1  0  0  0  0
  7  9  1  0  0  0  0
  7 31  1  0  0  0  0
  8 32  1  0  0  0  0
  8 33  1  0  0  0  0
  8 34  1  0  0  0  0
  9 10  1  0  0  0  0
  9 35  1  0  0  0  0
  9 36  1  0  0  0  0
 10 11  1  0  0  0  0
 10 37  1  0  0  0  0
 11 12  2  0  0  0  0
 11 13  1  0  0  0  0
 13 14  1  0  0  0  0
 13 38  1  0  0  0  0
 14 19  2  0  0  0  0
 14 15  1  0  0  0  0
 15 16  2  0  0  0  0
 15 39  1  0  0  0  0
 16 17  1  0  0  0  0
 16 18  1  0  0  0  0
 17 40  1  0  0  0  0
 17 41  1  0  0  0  0
 17 42  1  0  0  0  0
 18 19  1  0  0  0  0
 20 21  1  0  0  0  0
 20 43  1  0  0  0  0
 20 44  1  0  0  0  0
 21 45  1  0  0  0  0
 21 46  1  0  0  0  0
M  CHG  1   3   1
M  END
> <s_m_source_file>
AV-unprocessed.smi

> <i_m_source_file_index>
1586

> <i_lp_mmshare_version>
43012

> <i_f3d_flags>
0

> <s_epik_input>
W0NIM11bQ0gyXU4xW0NIMl1bQ0gyXU4oW0NIMl1bQ0gyXTEpW0NASF0oW0NIM10pW0NIMl1bTkhdQyg9TylbTkhdYzJbY0hdYyhbQ0gzXSlvbjI=

> <s_epik_cmdline>
J2VwaWtfcHl0aG9uJywgJy1waCcsICc3LjAnLCAnLXRuJywgJzgnLCAnLW1hJywgJzIwMCcsICctbWV0YWxfYmluZGluZycsICctaW1hZScsICc8aW5maWxlLm1hZT4nLCAnLW9tYWUnLCAnPG91dGZpbGUubWFlPic=

> <r_epik_Ionization_Penalty>
0.0459786

> <r_epik_Ionization_Penalty_Charging>
0.0453654

> <r_epik_Ionization_Penalty_Neutral>
0.000613264

> <r_epik_State_Penalty>
0.163057

> <r_epik_Charging_Adjusted_Penalty>
0.208422

> <i_epik_Tot_Q>
1

> <i_epik_Tot_abs_Q>
1

> <r_epik_Metal_State_Penalty>
0.17399

> <b_epik_Metal_Only>
0

> <s_lp_Force_Field>
OPLS_2005

> <r_lp_Energy>
17.9393

> <b_lp_Chiralities_Consistent>
1

> <s_lp_Variant>
AV-unprocessed.smi:1586-1

> <Gold.Version>
5.8.1

> <Gold.Id.Protein>
6NUR|6NUR_protein|mol2

> <Gold.PLP.Fitness>
45.0940

> <Gold.PLP.PLP>
-31.3144

> <Gold.PLP.part.hbond>
-5.0125

> <Gold.PLP.part.metal>
0.0000

> <Gold.PLP.part.buried>
-2.3812

> <Gold.PLP.part.nonpolar>
-24.6570

> <Gold.PLP.part.repulsive>
0.2592

> <Gold.PLP.ligand.clash>
0.0000

> <Gold.PLP.ligand.torsion>
0.4732

> <Gold.PLP.Chemscore.Hbond>
4.8882

> <Gold.PLP.Chemscore.CHOScore>
0.0000

> <Gold.PLP.Chemscore.Metal>
0.0000

> <Gold.Chemscore.Hbonds>
donor molecule, donor type, donor heavy atom, donor atom, acceptor molecule, acceptor atom, score
      L1  H     3    47       P1  8028  2.00
      L1  H    10    37       P1  7948  0.84
      L1  H    13    38       P1  7948  1.00
      P1  H 10752 10765       L1    12  1.00

> <Gold.PLP.Chemscore.Internal.Correction>
0.0616

> <Gold.Rescore>
     Score         DG    S(hbond)    S(metal)    S(lipo)     H(rot)  DE(clash)    DE(int)     intcor
     13.15     -18.75       3.09        0.00      63.86       1.76       2.82       2.78       ----

> <Gold.Chemscore.Fitness>
13.1500

> <Gold.Chemscore.DG>
-18.7501

> <Gold.Chemscore.ZeroCoef>
-5.4800

> <Gold.Chemscore.Hbond>
3.0879

> <Gold.Chemscore.Metal>
0.0000

> <Gold.Chemscore.Lipo>
63.8598

> <Gold.Chemscore.Internal_Hbond>
0.0000

> <Gold.Chemscore.DEClash>
2.8200

> <Gold.Chemscore.DEInternal>
2.7801

> <Gold.Chemscore.Rot>
1.7637

> <Gold.Chemscore.Internal.Correction>
   9.000000E+99

> <Gold.Chemscore.Hbonds>
donor molecule, donor type, donor heavy atom, donor atom, acceptor molecule, acceptor atom, score
      L1  H     3    47       P1  8028  0.87
      L1  H    10    37       P1  7948  0.58
      L1  H    13    38       P1  7948  0.29
      P1  H 10752 10765       L1    12  0.64

> <Gold.Chemscore.Hbond.Weighted>
-10.3135

> <Gold.Chemscore.Metal.Weighted>
-0.0000

> <Gold.Chemscore.Lipo.Weighted>
-7.4716

> <Gold.Chemscore.Internal_Hbond.Weighted>
0.0000

> <Gold.Chemscore.DEClash.Weighted>
2.8200

> <Gold.Chemscore.DEInternal.Weighted>
2.7801

> <Gold.Chemscore.Rot.Weighted>
4.5150

> <Gold.Chemscore.Internal.Correction.Weighted>
   9.000000E+99

> <Gold.Protein.RotatedTorsions>
[ 6907 6896 6895 6894 ] final   16.40 input  -60.11 | X-H torsion
[ 7974 7965 7964 7962 ] final  -96.58 input  175.53 | X-H torsion
[ 8008 7997 7996 7995 ] final  152.26 input   59.86 | X-H torsion
[ 10167 10162 10161 10158 ] final -153.75 input  -65.29 | X-H torsion
[ 10718 10713 10712 10709 ] final  -21.43 input   66.30 | X-H torsion
[ 10763 10752 10751 10750 ] final -152.39 input  -60.55 | X-H torsion
[ 11005 11000 10999 10996 ] final  171.94 input  -57.11 | X-H torsion

> <Gold.Protein.ActiveResidues>
 VAL166  LYS551  ARG553  GLY616  TRP617  ASP618  TYR619  PRO620  LYS621  CYS622 
 ASP623  PHE694  ASN695  SER759  ASP760  ASP761  ALA762  ILE779  LEU786  VAL792 
 PHE793  MET794  SER795  GLU796  ALA797  LYS798  CYS799  TRP800  GLU811  SER814 

> <Gold.Protein.RotatedAtoms>
  151.8333  135.0614  160.0439 H   0  0  0  0  0  0  0  0  0  0  0  0  # atno 6907 bound_to 6896
  152.2864  133.5514  159.5538 H   0  0  0  0  0  0  0  0  0  0  0  0  # atno 6908 bound_to 6896
  150.7211  134.0407  159.3807 H   0  0  0  0  0  0  0  0  0  0  0  0  # atno 6909 bound_to 6896
  145.3450  140.9466  143.2586 H   0  0  0  0  0  0  0  0  0  0  0  0  # atno 7974 bound_to 7965
  156.2637  140.2025  156.6305 H   0  0  0  0  0  0  0  0  0  0  0  0  # atno 8008 bound_to 7997
  154.6686  140.0552  157.0166 H   0  0  0  0  0  0  0  0  0  0  0  0  # atno 8009 bound_to 7997
  155.1169  140.3221  155.4510 H   0  0  0  0  0  0  0  0  0  0  0  0  # atno 8010 bound_to 7997
  139.7071  143.9169  152.2453 H   0  0  0  0  0  0  0  0  0  0  0  0  # atno 10167 bound_to 10162
  156.5183  130.4626  149.6610 H   0  0  0  0  0  0  0  0  0  0  0  0  # atno 10718 bound_to 10713
  154.7997  135.3237  154.7580 H   0  0  0  0  0  0  0  0  0  0  0  0  # atno 10763 bound_to 10752
  153.8251  135.6884  153.4826 H   0  0  0  0  0  0  0  0  0  0  0  0  # atno 10764 bound_to 10752
  153.1707  135.4624  154.9841 H   0  0  0  0  0  0  0  0  0  0  0  0  # atno 10765 bound_to 10752
  140.3243  134.7411  157.4087 H   0  0  0  0  0  0  0  0  0  0  0  0  # atno 11005 bound_to 11000
  144.8761  139.4970  143.6745 LP  0  0  0  0  0  0  0  0  0  0  0  0  # atno 17320 bound_to 7965
  146.2991  139.7371  142.9104 LP  0  0  0  0  0  0  0  0  0  0  0  0  # atno 17321 bound_to 7965
  139.9027  144.6902  150.8647 LP  0  0  0  0  0  0  0  0  0  0  0  0  # atno 17342 bound_to 10162
  140.7724  143.3501  151.2031 LP  0  0  0  0  0  0  0  0  0  0  0  0  # atno 17343 bound_to 10162
  156.3174  130.7262  151.2167 LP  0  0  0  0  0  0  0  0  0  0  0  0  # atno 17370 bound_to 10713
  157.7440  131.0465  150.4896 LP  0  0  0  0  0  0  0  0  0  0  0  0  # atno 17371 bound_to 10713
  140.0915  134.5595  155.8440 LP  0  0  0  0  0  0  0  0  0  0  0  0  # atno 17394 bound_to 11000
  141.2079  133.6668  156.6335 LP  0  0  0  0  0  0  0  0  0  0  0  0  # atno 17395 bound_to 11000

$$$$
