AV-unprocessed.smi:153|AV-procd|sdf|1253|dock4
  -GOLD-   2262018483D 1   1.00000     0.00000
 Structure written by MMmdl.
 60 63  0  0  0  0  0  0  0  0  2 V2000
  152.7037  140.8243  158.2038 C   0  0  0  0  0  0  0  0  0  0  0  0
  151.8001  141.9544  158.7227 C   0  0  1  0  0  0  0  0  0  0  0  0
  152.6718  142.8090  159.4664 O   0  0  0  0  0  0  0  0  0  0  0  0
  152.4755  144.1661  159.1028 C   0  0  0  0  0  0  0  0  0  0  0  0
  152.0242  144.0882  157.6521 C   0  0  0  0  0  0  0  0  0  0  0  0
  151.1298  142.8570  157.6494 C   0  0  2  0  0  0  0  0  0  0  0  0
  149.8641  143.2587  158.1457 O   0  0  0  0  0  0  0  0  0  0  0  0
  150.9224  142.2791  156.2212 C   0  0  0  0  0  0  0  0  0  0  0  0
  150.4760  140.8900  156.1542 N   0  0  0  0  0  0  0  0  0  0  0  0
  149.3654  140.3274  156.7445 C   0  0  0  0  0  0  0  0  0  0  0  0
  149.1834  139.0602  156.4962 N   0  0  0  0  0  0  0  0  0  0  0  0
  150.2326  138.7156  155.6523 C   0  0  0  0  0  0  0  0  0  0  0  0
  150.6345  137.5160  154.9888 C   0  0  0  0  0  0  0  0  0  0  0  0
  149.9926  136.3194  155.0849 N   0  0  0  0  0  0  0  0  0  0  0  0
  150.7175  135.0869  154.8027 C   0  0  0  0  0  0  0  0  0  0  0  0
  148.7177  136.2315  155.8006 C   0  0  0  0  0  0  0  0  0  0  0  0
  147.5307  135.9127  154.8689 C   0  0  2  0  0  0  0  0  0  0  0  0
  146.4237  135.6090  155.6938 O   0  0  0  0  0  0  0  0  0  0  0  0
  147.7926  134.7041  153.9423 C   0  0  0  0  0  0  0  0  0  0  0  0
  147.1433  134.8445  152.6147 N   0  3  0  0  0  0  0  0  0  0  0  0
  147.0247  133.5610  151.8780 C   0  0  0  0  0  0  0  0  0  0  0  0
  146.3728  133.7885  150.5037 C   0  0  0  0  0  0  0  0  0  0  0  0
  145.1028  134.4051  150.6734 O   0  0  0  0  0  0  0  0  0  0  0  0
  145.2091  135.6774  151.2995 C   0  0  0  0  0  0  0  0  0  0  0  0
  145.8234  135.5135  152.7000 C   0  0  0  0  0  0  0  0  0  0  0  0
  151.7285  137.5923  154.1863 N   0  0  0  0  0  0  0  0  0  0  0  0
  152.3937  138.7414  154.0461 C   0  0  0  0  0  0  0  0  0  0  0  0
  152.1382  139.9240  154.6047 N   0  0  0  0  0  0  0  0  0  0  0  0
  151.0385  139.8656  155.4089 C   0  0  0  0  0  0  0  0  0  0  0  0
  152.1268  140.0194  157.7547 H   0  0  0  0  0  0  0  0  0  0  0  0
  153.2705  140.3805  159.0227 H   0  0  0  0  0  0  0  0  0  0  0  0
  153.4204  141.1890  157.4676 H   0  0  0  0  0  0  0  0  0  0  0  0
  151.0557  141.5278  159.3970 H   0  0  0  0  0  0  0  0  0  0  0  0
  151.6969  144.6003  159.7316 H   0  0  0  0  0  0  0  0  0  0  0  0
  153.3859  144.7514  159.2317 H   0  0  0  0  0  0  0  0  0  0  0  0
  151.5251  144.9957  157.3100 H   0  0  0  0  0  0  0  0  0  0  0  0
  152.8943  143.9252  157.0145 H   0  0  0  0  0  0  0  0  0  0  0  0
  149.4616  142.5188  158.5739 H   0  0  0  0  0  0  0  0  0  0  0  0
  150.1974  142.8857  155.6770 H   0  0  0  0  0  0  0  0  0  0  0  0
  151.8532  142.3646  155.6602 H   0  0  0  0  0  0  0  0  0  0  0  0
  148.6785  140.8798  157.3676 H   0  0  0  0  0  0  0  0  0  0  0  0
  151.3311  135.1910  153.9071 H   0  0  0  0  0  0  0  0  0  0  0  0
  150.0233  134.2637  154.6319 H   0  0  0  0  0  0  0  0  0  0  0  0
  151.3600  134.8153  155.6406 H   0  0  0  0  0  0  0  0  0  0  0  0
  148.7556  135.5178  156.6240 H   0  0  0  0  0  0  0  0  0  0  0  0
  148.5501  137.2008  156.2722 H   0  0  0  0  0  0  0  0  0  0  0  0
  147.2818  136.8052  154.2959 H   0  0  0  0  0  0  0  0  0  0  0  0
  146.5328  136.0409  156.5268 H   0  0  0  0  0  0  0  0  0  0  0  0
  148.8591  134.5545  153.7785 H   0  0  0  0  0  0  0  0  0  0  0  0
  147.4383  133.7996  154.4401 H   0  0  0  0  0  0  0  0  0  0  0  0
  148.0043  133.1048  151.7406 H   0  0  0  0  0  0  0  0  0  0  0  0
  146.4259  132.8578  152.4592 H   0  0  0  0  0  0  0  0  0  0  0  0
  147.0096  134.4055  149.8676 H   0  0  0  0  0  0  0  0  0  0  0  0
  146.2372  132.8365  149.9904 H   0  0  0  0  0  0  0  0  0  0  0  0
  145.8103  136.3499  150.6853 H   0  0  0  0  0  0  0  0  0  0  0  0
  144.2150  136.1184  151.3747 H   0  0  0  0  0  0  0  0  0  0  0  0
  145.1562  134.9278  153.3344 H   0  0  0  0  0  0  0  0  0  0  0  0
  145.9341  136.4928  153.1673 H   0  0  0  0  0  0  0  0  0  0  0  0
  153.2544  138.7079  153.3942 H   0  0  0  0  0  0  0  0  0  0  0  0
  147.7327  135.4530  152.0651 H   0  0  0  0  0  0  0  0  0  0  0  0
  1  2  1  0  0  0  0
  1 30  1  0  0  0  0
  1 31  1  0  0  0  0
  1 32  1  0  0  0  0
  2  6  1  0  0  0  0
  2  3  1  0  0  0  0
  2 33  1  0  0  0  0
  3  4  1  0  0  0  0
  4  5  1  0  0  0  0
  4 34  1  0  0  0  0
  4 35  1  0  0  0  0
  5  6  1  0  0  0  0
  5 36  1  0  0  0  0
  5 37  1  0  0  0  0
  6  7  1  0  0  0  0
  6  8  1  0  0  0  0
  7 38  1  0  0  0  0
  8  9  1  0  0  0  0
  8 39  1  0  0  0  0
  8 40  1  0  0  0  0
  9 29  1  0  0  0  0
  9 10  1  0  0  0  0
 10 11  2  0  0  0  0
 10 41  1  0  0  0  0
 11 12  1  0  0  0  0
 12 29  2  0  0  0  0
 12 13  1  0  0  0  0
 13 14  1  0  0  0  0
 13 26  2  0  0  0  0
 14 15  1  0  0  0  0
 14 16  1  0  0  0  0
 15 42  1  0  0  0  0
 15 43  1  0  0  0  0
 15 44  1  0  0  0  0
 16 17  1  0  0  0  0
 16 45  1  0  0  0  0
 16 46  1  0  0  0  0
 17 18  1  0  0  0  0
 17 19  1  0  0  0  0
 17 47  1  0  0  0  0
 18 48  1  0  0  0  0
 19 20  1  0  0  0  0
 19 49  1  0  0  0  0
 19 50  1  0  0  0  0
 20 25  1  0  0  0  0
 20 21  1  0  0  0  0
 20 60  1  0  0  0  0
 21 22  1  0  0  0  0
 21 51  1  0  0  0  0
 21 52  1  0  0  0  0
 22 23  1  0  0  0  0
 22 53  1  0  0  0  0
 22 54  1  0  0  0  0
 23 24  1  0  0  0  0
 24 25  1  0  0  0  0
 24 55  1  0  0  0  0
 24 56  1  0  0  0  0
 25 57  1  0  0  0  0
 25 58  1  0  0  0  0
 26 27  1  0  0  0  0
 27 28  2  0  0  0  0
 27 59  1  0  0  0  0
 28 29  1  0  0  0  0
M  CHG  1  20   1
M  END
> <s_m_source_file>
AV-unprocessed.smi

> <i_m_source_file_index>
153

> <i_lp_mmshare_version>
43012

> <i_f3d_flags>
0

> <s_epik_input>
W0NIMl0xW0NIMl1PW0NAQEhdKFtDSDNdKVtDQEBdMShbT0hdKVtDSDJdbihbY0hdbjIpYyhjMjMpbltjSF1uYzNOKFtDSDNdKVtDSDJdW0NASF0oW09IXSlbQ0gyXU40W0NIMl1bQ0gyXU9bQ0gyXVtDSDJdNA==

> <s_epik_cmdline>
J2VwaWtfcHl0aG9uJywgJy1waCcsICc3LjAnLCAnLXRuJywgJzgnLCAnLW1hJywgJzIwMCcsICctbWV0YWxfYmluZGluZycsICctaW1hZScsICc8aW5maWxlLm1hZT4nLCAnLW9tYWUnLCAnPG91dGZpbGUubWFlPic=

> <r_lp_tautomer_probability>
1

> <r_epik_Ionization_Penalty>
0.403509

> <r_epik_Ionization_Penalty_Charging>
0.40072

> <r_epik_Ionization_Penalty_Neutral>
0.00278876

> <r_epik_State_Penalty>
0.400058

> <r_epik_Charging_Adjusted_Penalty>
0.800778

> <i_epik_Tot_Q>
1

> <i_epik_Tot_abs_Q>
1

> <r_epik_Metal_State_Penalty>
0.400321

> <b_epik_Metal_Only>
0

> <s_lp_Force_Field>
OPLS_2005

> <r_lp_Energy>
47.2205

> <b_lp_Chiralities_Consistent>
1

> <s_lp_Variant>
AV-unprocessed.smi:153-4

> <Gold.Version>
5.8.1

> <Gold.Id.Protein>
6NUR|6NUR_protein|mol2

> <Gold.PLP.Fitness>
56.2877

> <Gold.PLP.PLP>
-47.1156

> <Gold.PLP.part.hbond>
-4.0467

> <Gold.PLP.part.metal>
0.0000

> <Gold.PLP.part.buried>
-8.4193

> <Gold.PLP.part.nonpolar>
-34.7755

> <Gold.PLP.part.repulsive>
0.3266

> <Gold.PLP.ligand.clash>
0.0000

> <Gold.PLP.ligand.torsion>
1.3696

> <Gold.PLP.Chemscore.Hbond>
3.8160

> <Gold.PLP.Chemscore.CHOScore>
0.0000

> <Gold.PLP.Chemscore.Metal>
0.0000

> <Gold.Chemscore.Hbonds>
donor molecule, donor type, donor heavy atom, donor atom, acceptor molecule, acceptor atom, score
      L1  H    20    60       P1  7948  1.50
      P1  H  7989  7998       L1    28  0.75
      P1  H 10752 10765       L1    26  0.34

> <Gold.PLP.Chemscore.Internal.Correction>
0.4634

> <Gold.Rescore>
     Score         DG    S(hbond)    S(metal)    S(lipo)     H(rot)  DE(clash)    DE(int)     intcor
     11.19     -14.81       2.27        0.00      94.03       3.62       0.06       3.56       ----

> <Gold.Chemscore.Fitness>
11.1909

> <Gold.Chemscore.DG>
-14.8052

> <Gold.Chemscore.ZeroCoef>
-5.4800

> <Gold.Chemscore.Hbond>
2.2714

> <Gold.Chemscore.Metal>
0.0000

> <Gold.Chemscore.Lipo>
94.0275

> <Gold.Chemscore.Internal_Hbond>
0.0000

> <Gold.Chemscore.DEClash>
0.0593

> <Gold.Chemscore.DEInternal>
3.5550

> <Gold.Chemscore.Rot>
3.6182

> <Gold.Chemscore.Internal.Correction>
   9.000000E+99

> <Gold.Chemscore.Hbonds>
donor molecule, donor type, donor heavy atom, donor atom, acceptor molecule, acceptor atom, score
      L1  H    20    60       P1  7948  0.72
      P1  H  7989  7998       L1    28  0.14
      P1  H 10752 10765       L1    26  0.23

> <Gold.Chemscore.Hbond.Weighted>
-7.5865

> <Gold.Chemscore.Metal.Weighted>
-0.0000

> <Gold.Chemscore.Lipo.Weighted>
-11.0012

> <Gold.Chemscore.Internal_Hbond.Weighted>
0.0000

> <Gold.Chemscore.DEClash.Weighted>
0.0593

> <Gold.Chemscore.DEInternal.Weighted>
3.5550

> <Gold.Chemscore.Rot.Weighted>
9.2625

> <Gold.Chemscore.Internal.Correction.Weighted>
   9.000000E+99

> <Gold.Protein.RotatedTorsions>
[ 6907 6896 6895 6894 ] final  107.17 input  -60.11 | X-H torsion
[ 7974 7965 7964 7962 ] final  100.63 input  175.53 | X-H torsion
[ 8008 7997 7996 7995 ] final  -29.26 input   59.86 | X-H torsion
[ 10167 10162 10161 10158 ] final -114.02 input  -65.29 | X-H torsion
[ 10718 10713 10712 10709 ] final  136.73 input   66.30 | X-H torsion
[ 10763 10752 10751 10750 ] final  166.92 input  -60.55 | X-H torsion
[ 11005 11000 10999 10996 ] final  -99.69 input  -57.11 | X-H torsion

> <Gold.Protein.ActiveResidues>
 VAL166  LYS551  ARG553  GLY616  TRP617  ASP618  TYR619  PRO620  LYS621  CYS622 
 ASP623  PHE694  ASN695  SER759  ASP760  ASP761  ALA762  ILE779  LEU786  VAL792 
 PHE793  MET794  SER795  GLU796  ALA797  LYS798  CYS799  TRP800  GLU811  SER814 

> <Gold.Protein.RotatedAtoms>
  152.5165  133.9273  159.7563 H   0  0  0  0  0  0  0  0  0  0  0  0  # atno 6907 bound_to 6896
  150.9631  133.6415  159.2758 H   0  0  0  0  0  0  0  0  0  0  0  0  # atno 6908 bound_to 6896
  151.3653  135.0917  159.9500 H   0  0  0  0  0  0  0  0  0  0  0  0  # atno 6909 bound_to 6896
  145.3831  139.2376  143.3393 H   0  0  0  0  0  0  0  0  0  0  0  0  # atno 7974 bound_to 7965
  154.4297  140.1823  156.1219 H   0  0  0  0  0  0  0  0  0  0  0  0  # atno 8008 bound_to 7997
  156.0136  140.3348  155.6941 H   0  0  0  0  0  0  0  0  0  0  0  0  # atno 8009 bound_to 7997
  155.6076  140.0646  157.2706 H   0  0  0  0  0  0  0  0  0  0  0  0  # atno 8010 bound_to 7997
  140.1055  143.4575  152.1786 H   0  0  0  0  0  0  0  0  0  0  0  0  # atno 10167 bound_to 10162
  157.4435  131.1060  151.0115 H   0  0  0  0  0  0  0  0  0  0  0  0  # atno 10718 bound_to 10713
  154.3461  135.2753  155.2397 H   0  0  0  0  0  0  0  0  0  0  0  0  # atno 10763 bound_to 10752
  154.4646  135.5898  153.6282 H   0  0  0  0  0  0  0  0  0  0  0  0  # atno 10764 bound_to 10752
  152.9853  135.6073  154.3667 H   0  0  0  0  0  0  0  0  0  0  0  0  # atno 10765 bound_to 10752
  141.1299  133.8341  157.1005 H   0  0  0  0  0  0  0  0  0  0  0  0  # atno 11005 bound_to 11000
  146.2833  140.4501  142.8768 LP  0  0  0  0  0  0  0  0  0  0  0  0  # atno 17320 bound_to 7965
  144.8493  140.6977  143.6178 LP  0  0  0  0  0  0  0  0  0  0  0  0  # atno 17321 bound_to 7965
  139.5648  144.7428  151.4054 LP  0  0  0  0  0  0  0  0  0  0  0  0  # atno 17342 bound_to 10162
  140.6955  143.7760  150.7319 LP  0  0  0  0  0  0  0  0  0  0  0  0  # atno 17343 bound_to 10162
  157.0970  130.5966  149.5452 LP  0  0  0  0  0  0  0  0  0  0  0  0  # atno 17370 bound_to 10713
  155.9958  130.5026  150.7473 LP  0  0  0  0  0  0  0  0  0  0  0  0  # atno 17371 bound_to 10713
  140.0336  134.9889  157.0828 LP  0  0  0  0  0  0  0  0  0  0  0  0  # atno 17394 bound_to 11000
  140.4246  134.1845  155.7165 LP  0  0  0  0  0  0  0  0  0  0  0  0  # atno 17395 bound_to 11000

$$$$
