AV-unprocessed.smi:1050|AV-procd|sdf|4612|dock7
  -GOLD-   22720 3113D 1   1.00000     0.00000
 Structure written by MMmdl.
 48 49  0  0  0  0  0  0  0  0  1 V2000
  147.4537  136.5741  162.6154 C   0  0  0  0  0  0  0  0  0  0  0  0
  147.7988  137.1479  161.3590 O   0  0  0  0  0  0  0  0  0  0  0  0
  147.7102  136.3560  160.2325 C   0  0  0  0  0  0  0  0  0  0  0  0
  147.0627  135.1113  160.3296 C   0  0  0  0  0  0  0  0  0  0  0  0
  146.9717  134.3038  159.1818 C   0  0  0  0  0  0  0  0  0  0  0  0
  147.5213  134.7681  157.9621 C   0  0  0  0  0  0  0  0  0  0  0  0
  147.5083  133.9995  156.7618 N   0  0  0  0  0  0  0  0  0  0  0  0
  146.8467  132.8602  156.4887 C   0  0  0  0  0  0  0  0  0  0  0  0
  146.1168  132.2667  157.2822 O   0  0  0  0  0  0  0  0  0  0  0  0
  147.0407  132.3065  155.0667 C   0  0  2  0  0  0  0  0  0  0  0  0
  148.5158  131.9853  154.7808 C   0  0  0  0  0  0  0  0  0  0  0  0
  146.6102  133.2588  154.0975 O   0  0  0  0  0  0  0  0  0  0  0  0
  146.8485  132.8977  152.7427 C   0  0  0  0  0  0  0  0  0  0  0  0
  148.1688  136.0321  157.9636 C   0  0  0  0  0  0  0  0  0  0  0  0
  148.7391  136.5447  156.7821 N   0  0  0  0  0  0  0  0  0  0  0  0
  150.1682  136.2971  156.5813 C   0  0  0  0  0  0  0  0  0  0  0  0
  150.5938  136.7214  155.1640 C   0  0  0  0  0  0  0  0  0  0  0  0
  150.2187  138.1273  154.9629 N   0  0  0  0  0  0  0  0  0  0  0  0
  151.0829  139.1640  154.8517 C   0  0  0  0  0  0  0  0  0  0  0  0
  152.5877  138.8866  154.8548 C   0  0  0  0  0  0  0  0  0  0  0  0
  150.7098  140.3324  154.7482 O   0  0  0  0  0  0  0  0  0  0  0  0
  148.7630  138.3062  155.0453 C   0  0  0  0  0  0  0  0  0  0  0  0
  148.2848  137.8960  156.4520 C   0  0  0  0  0  0  0  0  0  0  0  0
  148.2533  136.8016  159.0748 N   0  0  0  0  0  0  0  0  0  0  0  0
  147.5782  137.3206  163.3995 H   0  0  0  0  0  0  0  0  0  0  0  0
  148.0988  135.7284  162.8582 H   0  0  0  0  0  0  0  0  0  0  0  0
  146.4129  136.2468  162.6322 H   0  0  0  0  0  0  0  0  0  0  0  0
  146.6487  134.7776  161.2697 H   0  0  0  0  0  0  0  0  0  0  0  0
  146.4980  133.3387  159.2677 H   0  0  0  0  0  0  0  0  0  0  0  0
  148.0090  134.4104  155.9870 H   0  0  0  0  0  0  0  0  0  0  0  0
  146.4659  131.3856  154.9489 H   0  0  0  0  0  0  0  0  0  0  0  0
  148.9117  131.2684  155.5012 H   0  0  0  0  0  0  0  0  0  0  0  0
  149.1383  132.8802  154.8201 H   0  0  0  0  0  0  0  0  0  0  0  0
  148.6304  131.5505  153.7876 H   0  0  0  0  0  0  0  0  0  0  0  0
  146.5559  133.7225  152.0931 H   0  0  0  0  0  0  0  0  0  0  0  0
  146.2712  132.0228  152.4421 H   0  0  0  0  0  0  0  0  0  0  0  0
  147.9062  132.6961  152.5691 H   0  0  0  0  0  0  0  0  0  0  0  0
  150.7471  136.8533  157.3201 H   0  0  0  0  0  0  0  0  0  0  0  0
  150.3811  135.2383  156.7336 H   0  0  0  0  0  0  0  0  0  0  0  0
  151.6553  136.5241  155.0229 H   0  0  0  0  0  0  0  0  0  0  0  0
  150.0815  136.1070  154.4218 H   0  0  0  0  0  0  0  0  0  0  0  0
  152.8875  138.3847  155.7754 H   0  0  0  0  0  0  0  0  0  0  0  0
  153.1509  139.8180  154.7863 H   0  0  0  0  0  0  0  0  0  0  0  0
  152.8674  138.2654  154.0035 H   0  0  0  0  0  0  0  0  0  0  0  0
  148.4476  139.3284  154.8327 H   0  0  0  0  0  0  0  0  0  0  0  0
  148.2824  137.6827  154.2898 H   0  0  0  0  0  0  0  0  0  0  0  0
  147.1978  137.9589  156.5028 H   0  0  0  0  0  0  0  0  0  0  0  0
  148.6756  138.5920  157.1956 H   0  0  0  0  0  0  0  0  0  0  0  0
  1  2  1  0  0  0  0
  1 25  1  0  0  0  0
  1 26  1  0  0  0  0
  1 27  1  0  0  0  0
  2  3  1  0  0  0  0
  3 24  1  0  0  0  0
  3  4  2  0  0  0  0
  4  5  1  0  0  0  0
  4 28  1  0  0  0  0
  5  6  2  0  0  0  0
  5 29  1  0  0  0  0
  6  7  1  0  0  0  0
  6 14  1  0  0  0  0
  7  8  1  0  0  0  0
  7 30  1  0  0  0  0
  8  9  2  0  0  0  0
  8 10  1  0  0  0  0
 10 11  1  0  0  0  0
 10 12  1  0  0  0  0
 10 31  1  0  0  0  0
 11 32  1  0  0  0  0
 11 33  1  0  0  0  0
 11 34  1  0  0  0  0
 12 13  1  0  0  0  0
 13 35  1  0  0  0  0
 13 36  1  0  0  0  0
 13 37  1  0  0  0  0
 14 15  1  0  0  0  0
 14 24  2  0  0  0  0
 15 23  1  0  0  0  0
 15 16  1  0  0  0  0
 16 17  1  0  0  0  0
 16 38  1  0  0  0  0
 16 39  1  0  0  0  0
 17 18  1  0  0  0  0
 17 40  1  0  0  0  0
 17 41  1  0  0  0  0
 18 19  1  0  0  0  0
 18 22  1  0  0  0  0
 19 20  1  0  0  0  0
 19 21  2  0  0  0  0
 20 42  1  0  0  0  0
 20 43  1  0  0  0  0
 20 44  1  0  0  0  0
 22 23  1  0  0  0  0
 22 45  1  0  0  0  0
 22 46  1  0  0  0  0
 23 47  1  0  0  0  0
 23 48  1  0  0  0  0
M  END
> <s_m_source_file>
AV-unprocessed.smi

> <i_m_source_file_index>
1050

> <i_lp_mmshare_version>
43012

> <i_f3d_flags>
0

> <s_epik_input>
W0NIM11PYzFbY0hdW2NIXWMoW05IXUMoPU8pW0NASF0oW0NIM10pT1tDSDNdKWMobjEpTjJbQ0gyXVtDSDJdTihDKD1PKVtDSDNdKVtDSDJdW0NIMl0y

> <s_epik_cmdline>
J2VwaWtfcHl0aG9uJywgJy1waCcsICc3LjAnLCAnLXRuJywgJzgnLCAnLW1hJywgJzIwMCcsICctbWV0YWxfYmluZGluZycsICctaW1hZScsICc8aW5maWxlLm1hZT4nLCAnLW9tYWUnLCAnPG91dGZpbGUubWFlPic=

> <r_lp_tautomer_probability>
1

> <r_epik_Ionization_Penalty>
0.000150604

> <r_epik_Ionization_Penalty_Charging>
0

> <r_epik_Ionization_Penalty_Neutral>
0.000150604

> <r_epik_State_Penalty>
-0

> <r_epik_Charging_Adjusted_Penalty>
0

> <i_epik_Tot_Q>
0

> <i_epik_Tot_abs_Q>
0

> <r_epik_Metal_State_Penalty>
-0

> <b_epik_Metal_Only>
0

> <s_lp_Force_Field>
OPLS_2005

> <r_lp_Energy>
41.1233

> <b_lp_Chiralities_Consistent>
1

> <s_lp_Variant>
AV-unprocessed.smi:1050-1

> <Gold.Version>
5.8.1

> <Gold.Id.Protein>
6NUR|6NUR_protein|mol2

> <Gold.PLP.Fitness>
34.7419

> <Gold.PLP.PLP>
-27.5543

> <Gold.PLP.part.hbond>
-3.0000

> <Gold.PLP.part.metal>
0.0000

> <Gold.PLP.part.buried>
-5.0893

> <Gold.PLP.part.nonpolar>
-20.4100

> <Gold.PLP.part.repulsive>
0.2028

> <Gold.PLP.ligand.clash>
0.2999

> <Gold.PLP.ligand.torsion>
0.5747

> <Gold.PLP.Chemscore.Hbond>
2.7644

> <Gold.PLP.Chemscore.CHOScore>
0.0000

> <Gold.PLP.Chemscore.Metal>
0.0000

> <Gold.Chemscore.Hbonds>
donor molecule, donor type, donor heavy atom, donor atom, acceptor molecule, acceptor atom, score
      P1  H  6931  6943       L1     2  0.95
      P1  H  6934  6947       L1     2  0.77
      P1  H  7989  7998       L1    21  1.00

> <Gold.PLP.Chemscore.Internal.Correction>
0.3437

> <Gold.Rescore>
     Score         DG    S(hbond)    S(metal)    S(lipo)     H(rot)  DE(clash)    DE(int)     intcor
     12.33     -13.89       2.17        0.00      47.25       1.71       0.03       1.53       ----

> <Gold.Chemscore.Fitness>
12.3257

> <Gold.Chemscore.DG>
-13.8882

> <Gold.Chemscore.ZeroCoef>
-5.4800

> <Gold.Chemscore.Hbond>
2.1732

> <Gold.Chemscore.Metal>
0.0000

> <Gold.Chemscore.Lipo>
47.2531

> <Gold.Chemscore.Internal_Hbond>
0.0000

> <Gold.Chemscore.DEClash>
0.0310

> <Gold.Chemscore.DEInternal>
1.5316

> <Gold.Chemscore.Rot>
1.7106

> <Gold.Chemscore.Internal.Correction>
   9.000000E+99

> <Gold.Chemscore.Hbonds>
donor molecule, donor type, donor heavy atom, donor atom, acceptor molecule, acceptor atom, score
      P1  H  6931  6943       L1     2  0.21
      P1  H  6934  6947       L1     2  0.53
      P1  H  7989  7998       L1    21  0.34

> <Gold.Chemscore.Hbond.Weighted>
-7.2586

> <Gold.Chemscore.Metal.Weighted>
-0.0000

> <Gold.Chemscore.Lipo.Weighted>
-5.5286

> <Gold.Chemscore.Internal_Hbond.Weighted>
0.0000

> <Gold.Chemscore.DEClash.Weighted>
0.0310

> <Gold.Chemscore.DEInternal.Weighted>
1.5316

> <Gold.Chemscore.Rot.Weighted>
4.3790

> <Gold.Chemscore.Internal.Correction.Weighted>
   9.000000E+99

> <Gold.Protein.RotatedTorsions>
[ 6907 6896 6895 6894 ] final   83.40 input  -60.11 | X-H torsion
[ 7974 7965 7964 7962 ] final  -11.93 input  175.53 | X-H torsion
[ 8008 7997 7996 7995 ] final  -55.72 input   59.86 | X-H torsion
[ 10167 10162 10161 10158 ] final  -36.25 input  -65.29 | X-H torsion
[ 10718 10713 10712 10709 ] final   25.64 input   66.30 | X-H torsion
[ 10763 10752 10751 10750 ] final  -36.72 input  -60.55 | X-H torsion
[ 11005 11000 10999 10996 ] final   18.48 input  -57.11 | X-H torsion

> <Gold.Protein.ActiveResidues>
 VAL166  LYS551  ARG553  GLY616  TRP617  ASP618  TYR619  PRO620  LYS621  CYS622 
 ASP623  PHE694  ASN695  SER759  ASP760  ASP761  ALA762  ILE779  LEU786  VAL792 
 PHE793  MET794  SER795  GLU796  ALA797  LYS798  CYS799  TRP800  GLU811  SER814 

> <Gold.Protein.RotatedAtoms>
  152.5326  134.2901  159.9039 H   0  0  0  0  0  0  0  0  0  0  0  0  # atno 6907 bound_to 6896
  151.2853  133.4184  159.2637 H   0  0  0  0  0  0  0  0  0  0  0  0  # atno 6908 bound_to 6896
  151.0248  134.9511  159.8136 H   0  0  0  0  0  0  0  0  0  0  0  0  # atno 6909 bound_to 6896
  146.2170  140.2983  142.8373 H   0  0  0  0  0  0  0  0  0  0  0  0  # atno 7974 bound_to 7965
  154.4205  140.1146  156.5522 H   0  0  0  0  0  0  0  0  0  0  0  0  # atno 8008 bound_to 7997
  155.6398  140.3496  155.4692 H   0  0  0  0  0  0  0  0  0  0  0  0  # atno 8009 bound_to 7997
  155.9880  140.1173  157.0654 H   0  0  0  0  0  0  0  0  0  0  0  0  # atno 8010 bound_to 7997
  140.7147  143.3422  151.2334 H   0  0  0  0  0  0  0  0  0  0  0  0  # atno 10167 bound_to 10162
  157.1961  130.6868  149.6169 H   0  0  0  0  0  0  0  0  0  0  0  0  # atno 10718 bound_to 10713
  153.8845  135.6818  153.4764 H   0  0  0  0  0  0  0  0  0  0  0  0  # atno 10763 bound_to 10752
  153.1215  135.4737  154.9201 H   0  0  0  0  0  0  0  0  0  0  0  0  # atno 10764 bound_to 10752
  154.7653  135.3222  154.8251 H   0  0  0  0  0  0  0  0  0  0  0  0  # atno 10765 bound_to 10752
  140.4243  134.1486  155.7675 H   0  0  0  0  0  0  0  0  0  0  0  0  # atno 11005 bound_to 11000
  144.9076  140.7718  143.5828 LP  0  0  0  0  0  0  0  0  0  0  0  0  # atno 17320 bound_to 7965
  145.2912  139.1883  143.4739 LP  0  0  0  0  0  0  0  0  0  0  0  0  # atno 17321 bound_to 7965
  139.6932  143.9657  152.2869 LP  0  0  0  0  0  0  0  0  0  0  0  0  # atno 17342 bound_to 10162
  139.9326  144.6732  150.8348 LP  0  0  0  0  0  0  0  0  0  0  0  0  # atno 17343 bound_to 10162
  155.9706  130.4598  150.6050 LP  0  0  0  0  0  0  0  0  0  0  0  0  # atno 17370 bound_to 10713
  157.3813  131.0781  151.1474 LP  0  0  0  0  0  0  0  0  0  0  0  0  # atno 17371 bound_to 10713
  141.1771  133.8491  157.1384 LP  0  0  0  0  0  0  0  0  0  0  0  0  # atno 17394 bound_to 11000
  140.0178  134.9959  157.0529 LP  0  0  0  0  0  0  0  0  0  0  0  0  # atno 17395 bound_to 11000

$$$$
