AV-unprocessed.smi:1213|AV-procd|sdf|5084|dock2
  -GOLD-   22720 4133D 1   1.00000     0.00000
 Structure written by MMmdl.
 36 37  0  0  0  0  0  0  0  0  1 V2000
  143.9597  138.2259  153.2144 N   0  0  0  0  0  0  0  0  0  0  0  0
  145.0111  137.4829  152.8606 C   0  0  0  0  0  0  0  0  0  0  0  0
  145.0127  136.2576  152.9591 O   0  0  0  0  0  0  0  0  0  0  0  0
  146.2371  138.2207  152.3091 C   0  0  0  0  0  0  0  0  0  0  0  0
  146.8695  139.1574  153.2654 N   0  0  0  0  0  0  0  0  0  0  0  0
  147.0409  140.4632  152.6199 C   0  0  0  0  0  0  0  0  0  0  0  0
  147.5751  141.4995  153.6235 C   0  0  0  0  0  0  0  0  0  0  0  0
  148.9134  141.0455  154.2280 C   0  0  0  0  0  0  0  0  0  0  0  0
  149.3524  141.9661  155.2724 N   0  0  0  0  0  0  0  0  0  0  0  0
  150.3371  141.7258  156.1503 C   0  0  0  0  0  0  0  0  0  0  0  0
  150.9864  140.6795  156.1737 O   0  0  0  0  0  0  0  0  0  0  0  0
  150.5122  142.7689  156.9804 N   0  0  0  0  0  0  0  0  0  0  0  0
  151.4482  142.9014  158.0393 C   0  0  0  0  0  0  0  0  0  0  0  0
  151.9521  141.8752  158.7351 N   0  0  0  0  0  0  0  0  0  0  0  0
  152.8500  142.2988  159.7181 C   0  0  0  0  0  0  0  0  0  0  0  0
  153.0192  143.6604  159.7572 C   0  0  0  0  0  0  0  0  0  0  0  0
  152.0526  144.4698  158.5530 S   0  0  0  0  0  0  0  0  0  0  0  0
  148.7410  139.6359  154.8113 C   0  0  0  0  0  0  0  0  0  0  0  0
  148.1610  138.6653  153.7672 C   0  0  0  0  0  0  0  0  0  0  0  0
  143.1315  137.7780  153.5794 H   0  0  0  0  0  0  0  0  0  0  0  0
  143.9939  139.2298  153.1139 H   0  0  0  0  0  0  0  0  0  0  0  0
  146.9768  137.4984  151.9580 H   0  0  0  0  0  0  0  0  0  0  0  0
  145.9040  138.7727  151.4291 H   0  0  0  0  0  0  0  0  0  0  0  0
  147.7169  140.3803  151.7668 H   0  0  0  0  0  0  0  0  0  0  0  0
  146.0831  140.8128  152.2318 H   0  0  0  0  0  0  0  0  0  0  0  0
  147.6935  142.4628  153.1260 H   0  0  0  0  0  0  0  0  0  0  0  0
  146.8398  141.6495  154.4157 H   0  0  0  0  0  0  0  0  0  0  0  0
  149.6690  141.0038  153.4408 H   0  0  0  0  0  0  0  0  0  0  0  0
  148.8746  142.8538  155.3244 H   0  0  0  0  0  0  0  0  0  0  0  0
  149.9040  143.5616  156.8388 H   0  0  0  0  0  0  0  0  0  0  0  0
  153.3244  141.5616  160.3489 H   0  0  0  0  0  0  0  0  0  0  0  0
  153.6511  144.2337  160.4190 H   0  0  0  0  0  0  0  0  0  0  0  0
  149.7002  139.2604  155.1695 H   0  0  0  0  0  0  0  0  0  0  0  0
  148.0793  139.6688  155.6784 H   0  0  0  0  0  0  0  0  0  0  0  0
  148.0494  137.6901  154.2408 H   0  0  0  0  0  0  0  0  0  0  0  0
  148.8613  138.5358  152.9400 H   0  0  0  0  0  0  0  0  0  0  0  0
  1  2  1  0  0  0  0
  1 20  1  0  0  0  0
  1 21  1  0  0  0  0
  2  3  2  0  0  0  0
  2  4  1  0  0  0  0
  4  5  1  0  0  0  0
  4 22  1  0  0  0  0
  4 23  1  0  0  0  0
  5 19  1  0  0  0  0
  5  6  1  0  0  0  0
  6  7  1  0  0  0  0
  6 24  1  0  0  0  0
  6 25  1  0  0  0  0
  7  8  1  0  0  0  0
  7 26  1  0  0  0  0
  7 27  1  0  0  0  0
  8  9  1  0  0  0  0
  8 18  1  0  0  0  0
  8 28  1  0  0  0  0
  9 10  1  0  0  0  0
  9 29  1  0  0  0  0
 10 11  2  0  0  0  0
 10 12  1  0  0  0  0
 12 13  1  0  0  0  0
 12 30  1  0  0  0  0
 13 17  1  0  0  0  0
 13 14  2  0  0  0  0
 14 15  1  0  0  0  0
 15 16  2  0  0  0  0
 15 31  1  0  0  0  0
 16 17  1  0  0  0  0
 16 32  1  0  0  0  0
 18 19  1  0  0  0  0
 18 33  1  0  0  0  0
 18 34  1  0  0  0  0
 19 35  1  0  0  0  0
 19 36  1  0  0  0  0
M  END
> <s_m_source_file>
AV-unprocessed.smi

> <i_m_source_file_index>
1213

> <i_lp_mmshare_version>
43012

> <i_f3d_flags>
0

> <s_epik_input>
W05IMl1DKD1PKVtDSDJdTjFbQ0gyXVtDSDJdW0NIXShbQ0gyXVtDSDJdMSlbTkhdQyg9TylbTkhdYzJuW2NIXVtjSF1zMg==

> <s_epik_cmdline>
J2VwaWtfcHl0aG9uJywgJy1waCcsICc3LjAnLCAnLXRuJywgJzgnLCAnLW1hJywgJzIwMCcsICctbWV0YWxfYmluZGluZycsICctaW1hZScsICc8aW5maWxlLm1hZT4nLCAnLW9tYWUnLCAnPG91dGZpbGUubWFlPic=

> <r_lp_tautomer_probability>
0.999

> <r_epik_Ionization_Penalty>
0.157547

> <r_epik_Ionization_Penalty_Charging>
0

> <r_epik_Ionization_Penalty_Neutral>
0.157547

> <r_epik_State_Penalty>
0.146692

> <r_epik_Charging_Adjusted_Penalty>
0.146692

> <i_epik_Tot_Q>
0

> <i_epik_Tot_abs_Q>
0

> <r_epik_Metal_State_Penalty>
0.196238

> <b_epik_Metal_Only>
0

> <s_lp_Force_Field>
OPLS_2005

> <r_lp_Energy>
10.5747

> <b_lp_Chiralities_Consistent>
1

> <s_lp_Variant>
AV-unprocessed.smi:1213-1

> <Gold.Version>
5.8.1

> <Gold.Id.Protein>
6NUR|6NUR_protein|mol2

> <Gold.PLP.Fitness>
42.5820

> <Gold.PLP.PLP>
-35.6472

> <Gold.PLP.part.hbond>
-2.9378

> <Gold.PLP.part.metal>
0.0000

> <Gold.PLP.part.buried>
-3.7052

> <Gold.PLP.part.nonpolar>
-30.3659

> <Gold.PLP.part.repulsive>
0.5784

> <Gold.PLP.ligand.clash>
0.0000

> <Gold.PLP.ligand.torsion>
1.0133

> <Gold.PLP.Chemscore.Hbond>
2.9840

> <Gold.PLP.Chemscore.CHOScore>
0.0000

> <Gold.PLP.Chemscore.Metal>
0.0000

> <Gold.Chemscore.Hbonds>
donor molecule, donor type, donor heavy atom, donor atom, acceptor molecule, acceptor atom, score
      L1  H     1    21       P1 10175  0.71
      L1  H     9    29       P1  8028  1.00
      L1  H    12    30       P1  8028  1.00

> <Gold.PLP.Chemscore.Internal.Correction>
0.0094

> <Gold.Rescore>
     Score         DG    S(hbond)    S(metal)    S(lipo)     H(rot)  DE(clash)    DE(int)     intcor
     15.80     -19.30       2.92        0.00      79.44       2.04       0.08       3.42       ----

> <Gold.Chemscore.Fitness>
15.8007

> <Gold.Chemscore.DG>
-19.2959

> <Gold.Chemscore.ZeroCoef>
-5.4800

> <Gold.Chemscore.Hbond>
2.9157

> <Gold.Chemscore.Metal>
0.0000

> <Gold.Chemscore.Lipo>
79.4353

> <Gold.Chemscore.Internal_Hbond>
0.0000

> <Gold.Chemscore.DEClash>
0.0766

> <Gold.Chemscore.DEInternal>
3.4187

> <Gold.Chemscore.Rot>
2.0377

> <Gold.Chemscore.Internal.Correction>
   9.000000E+99

> <Gold.Chemscore.Hbonds>
donor molecule, donor type, donor heavy atom, donor atom, acceptor molecule, acceptor atom, score
      L1  H     1    21       P1 10175  0.69
      L1  H     9    29       P1  8028  0.95
      L1  H    12    30       P1  8028  0.95

> <Gold.Chemscore.Hbond.Weighted>
-9.7384

> <Gold.Chemscore.Metal.Weighted>
-0.0000

> <Gold.Chemscore.Lipo.Weighted>
-9.2939

> <Gold.Chemscore.Internal_Hbond.Weighted>
0.0000

> <Gold.Chemscore.DEClash.Weighted>
0.0766

> <Gold.Chemscore.DEInternal.Weighted>
3.4187

> <Gold.Chemscore.Rot.Weighted>
5.2164

> <Gold.Chemscore.Internal.Correction.Weighted>
   9.000000E+99

> <Gold.Protein.RotatedTorsions>
[ 6907 6896 6895 6894 ] final    9.97 input  -60.11 | X-H torsion
[ 7974 7965 7964 7962 ] final   58.84 input  175.53 | X-H torsion
[ 8008 7997 7996 7995 ] final -129.32 input   59.86 | X-H torsion
[ 10167 10162 10161 10158 ] final   86.18 input  -65.29 | X-H torsion
[ 10718 10713 10712 10709 ] final  -98.49 input   66.30 | X-H torsion
[ 10763 10752 10751 10750 ] final   99.38 input  -60.55 | X-H torsion
[ 11005 11000 10999 10996 ] final  -99.44 input  -57.11 | X-H torsion

> <Gold.Protein.ActiveResidues>
 VAL166  LYS551  ARG553  GLY616  TRP617  ASP618  TYR619  PRO620  LYS621  CYS622 
 ASP623  PHE694  ASN695  SER759  ASP760  ASP761  ALA762  ILE779  LEU786  VAL792 
 PHE793  MET794  SER795  GLU796  ALA797  LYS798  CYS799  TRP800  GLU811  SER814 

> <Gold.Protein.RotatedAtoms>
  151.7307  135.0875  160.0299 H   0  0  0  0  0  0  0  0  0  0  0  0  # atno 6907 bound_to 6896
  152.3543  133.6213  159.5976 H   0  0  0  0  0  0  0  0  0  0  0  0  # atno 6908 bound_to 6896
  150.7560  133.9441  159.3507 H   0  0  0  0  0  0  0  0  0  0  0  0  # atno 6909 bound_to 6896
  145.9137  139.3674  143.0520 H   0  0  0  0  0  0  0  0  0  0  0  0  # atno 7974 bound_to 7965
  155.2773  140.0442  157.3012 H   0  0  0  0  0  0  0  0  0  0  0  0  # atno 8008 bound_to 7997
  154.5618  140.2348  155.8292 H   0  0  0  0  0  0  0  0  0  0  0  0  # atno 8009 bound_to 7997
  156.2053  140.3014  155.9621 H   0  0  0  0  0  0  0  0  0  0  0  0  # atno 8010 bound_to 7997
  139.8901  144.6390  150.8748 H   0  0  0  0  0  0  0  0  0  0  0  0  # atno 10167 bound_to 10162
  156.0109  130.5240  150.6530 H   0  0  0  0  0  0  0  0  0  0  0  0  # atno 10718 bound_to 10713
  153.3007  135.4115  155.1250 H   0  0  0  0  0  0  0  0  0  0  0  0  # atno 10763 bound_to 10752
  154.8548  135.3540  154.5856 H   0  0  0  0  0  0  0  0  0  0  0  0  # atno 10764 bound_to 10752
  153.6281  135.7062  153.5344 H   0  0  0  0  0  0  0  0  0  0  0  0  # atno 10765 bound_to 10752
  141.1308  133.8322  157.0972 H   0  0  0  0  0  0  0  0  0  0  0  0  # atno 11005 bound_to 11000
  145.8639  140.9459  143.0686 LP  0  0  0  0  0  0  0  0  0  0  0  0  # atno 17320 bound_to 7965
  144.6746  140.0566  143.7477 LP  0  0  0  0  0  0  0  0  0  0  0  0  # atno 17321 bound_to 7965
  140.7728  143.3516  151.2002 LP  0  0  0  0  0  0  0  0  0  0  0  0  # atno 17342 bound_to 10162
  139.7117  143.9366  152.2950 LP  0  0  0  0  0  0  0  0  0  0  0  0  # atno 17343 bound_to 10162
  157.4288  131.0846  151.1059 LP  0  0  0  0  0  0  0  0  0  0  0  0  # atno 17370 bound_to 10713
  157.1639  130.6237  149.5619 LP  0  0  0  0  0  0  0  0  0  0  0  0  # atno 17371 bound_to 10713
  140.0356  134.9880  157.0864 LP  0  0  0  0  0  0  0  0  0  0  0  0  # atno 17394 bound_to 11000
  140.4216  134.1874  155.7164 LP  0  0  0  0  0  0  0  0  0  0  0  0  # atno 17395 bound_to 11000

$$$$
