AV-unprocessed.smi:2026|AV-procd|sdf|8204|dock8
  -GOLD-   2272010463D 1   1.00000     0.00000
 Structure written by MMmdl.
 47 49  0  0  0  0  0  0  0  0  2 V2000
  152.3215  144.0968  161.2527 C   0  0  0  0  0  0  0  0  0  0  0  0
  152.1796  143.1359  160.0848 C   0  0  0  0  0  0  0  0  0  0  0  0
  151.3103  143.4847  159.0268 C   0  0  0  0  0  0  0  0  0  0  0  0
  151.1998  142.5846  157.9736 C   0  0  0  0  0  0  0  0  0  0  0  0
  150.4417  142.6389  156.8022 N   0  3  0  0  0  0  0  0  0  0  0  0
  150.6636  141.5156  156.0653 C   0  0  0  0  0  0  0  0  0  0  0  0
  151.5508  140.7437  156.7495 N   0  0  0  0  0  0  0  0  0  0  0  0
  152.1236  139.4381  156.3910 C   0  0  0  0  0  0  0  0  0  0  0  0
  151.1006  138.2908  156.5019 C   0  0  1  0  0  0  0  0  0  0  0  0
  150.3341  138.4743  157.6765 O   0  0  0  0  0  0  0  0  0  0  0  0
  150.1473  138.2577  155.2899 C   0  0  0  0  0  0  0  0  0  0  0  0
  149.4895  136.9548  155.1483 N   0  0  0  0  0  0  0  0  0  0  0  0
  148.1681  136.7878  154.9636 C   0  0  0  0  0  0  0  0  0  0  0  0
  147.3243  137.6775  154.8659 O   0  0  0  0  0  0  0  0  0  0  0  0
  147.9145  135.4737  154.9065 N   0  0  0  0  0  0  0  0  0  0  0  0
  149.1057  134.6606  155.0630 C   0  0  0  0  0  0  0  0  0  0  0  0
  149.0147  133.7922  156.3306 C   0  0  0  0  0  0  0  0  0  0  0  0
  149.3702  133.8229  153.7991 C   0  0  0  0  0  0  0  0  0  0  0  0
  150.1255  135.7779  155.2222 C   0  0  0  0  0  0  0  0  0  0  0  0
  151.3299  135.5935  155.4000 O   0  0  0  0  0  0  0  0  0  0  0  0
  151.9155  141.3716  157.9467 C   0  0  0  0  0  0  0  0  0  0  0  0
  152.7787  141.0147  158.9807 C   0  0  0  0  0  0  0  0  0  0  0  0
  152.9065  141.9174  160.0605 C   0  0  0  0  0  0  0  0  0  0  0  0
  153.8437  141.5551  161.2001 C   0  0  0  0  0  0  0  0  0  0  0  0
  151.6615  144.9578  161.1433 H   0  0  0  0  0  0  0  0  0  0  0  0
  153.3447  144.4670  161.3207 H   0  0  0  0  0  0  0  0  0  0  0  0
  152.0683  143.6017  162.1904 H   0  0  0  0  0  0  0  0  0  0  0  0
  150.7559  144.4119  159.0367 H   0  0  0  0  0  0  0  0  0  0  0  0
  150.2184  141.2808  155.1092 H   0  0  0  0  0  0  0  0  0  0  0  0
  152.5595  139.4897  155.3931 H   0  0  0  0  0  0  0  0  0  0  0  0
  152.9535  139.2591  157.0759 H   0  0  0  0  0  0  0  0  0  0  0  0
  151.6426  137.3475  156.5839 H   0  0  0  0  0  0  0  0  0  0  0  0
  150.9231  138.5542  158.4111 H   0  0  0  0  0  0  0  0  0  0  0  0
  149.4171  139.0672  155.3466 H   0  0  0  0  0  0  0  0  0  0  0  0
  150.7125  138.4496  154.3760 H   0  0  0  0  0  0  0  0  0  0  0  0
  146.9945  135.0776  154.7789 H   0  0  0  0  0  0  0  0  0  0  0  0
  149.9144  133.1900  156.4621 H   0  0  0  0  0  0  0  0  0  0  0  0
  148.1668  133.1087  156.2770 H   0  0  0  0  0  0  0  0  0  0  0  0
  148.8903  134.3994  157.2285 H   0  0  0  0  0  0  0  0  0  0  0  0
  150.2761  133.2244  153.9039 H   0  0  0  0  0  0  0  0  0  0  0  0
  149.4904  134.4507  152.9150 H   0  0  0  0  0  0  0  0  0  0  0  0
  148.5449  133.1372  153.6044 H   0  0  0  0  0  0  0  0  0  0  0  0
  153.3356  140.0900  158.9639 H   0  0  0  0  0  0  0  0  0  0  0  0
  154.3643  140.6166  161.0063 H   0  0  0  0  0  0  0  0  0  0  0  0
  153.2875  141.4418  162.1311 H   0  0  0  0  0  0  0  0  0  0  0  0
  154.5980  142.3301  161.3382 H   0  0  0  0  0  0  0  0  0  0  0  0
  149.8204  143.3871  156.5227 H   0  0  0  0  0  0  0  0  0  0  0  0
  1  2  1  0  0  0  0
  1 25  1  0  0  0  0
  1 26  1  0  0  0  0
  1 27  1  0  0  0  0
  2 23  1  0  0  0  0
  2  3  2  0  0  0  0
  3  4  1  0  0  0  0
  3 28  1  0  0  0  0
  4 21  2  0  0  0  0
  4  5  1  0  0  0  0
  5  6  2  0  0  0  0
  5 47  1  0  0  0  0
  6  7  1  0  0  0  0
  6 29  1  0  0  0  0
  7  8  1  0  0  0  0
  7 21  1  0  0  0  0
  8  9  1  0  0  0  0
  8 30  1  0  0  0  0
  8 31  1  0  0  0  0
  9 10  1  0  0  0  0
  9 11  1  0  0  0  0
  9 32  1  0  0  0  0
 10 33  1  0  0  0  0
 11 12  1  0  0  0  0
 11 34  1  0  0  0  0
 11 35  1  0  0  0  0
 12 19  1  0  0  0  0
 12 13  1  0  0  0  0
 13 14  2  0  0  0  0
 13 15  1  0  0  0  0
 15 16  1  0  0  0  0
 15 36  1  0  0  0  0
 16 17  1  0  0  0  0
 16 18  1  0  0  0  0
 16 19  1  0  0  0  0
 17 37  1  0  0  0  0
 17 38  1  0  0  0  0
 17 39  1  0  0  0  0
 18 40  1  0  0  0  0
 18 41  1  0  0  0  0
 18 42  1  0  0  0  0
 19 20  2  0  0  0  0
 21 22  1  0  0  0  0
 22 23  2  0  0  0  0
 22 43  1  0  0  0  0
 23 24  1  0  0  0  0
 24 44  1  0  0  0  0
 24 45  1  0  0  0  0
 24 46  1  0  0  0  0
M  CHG  1   5   1
M  END
> <s_m_source_file>
AV-unprocessed.smi

> <i_m_source_file_index>
2026

> <i_lp_mmshare_version>
43012

> <i_f3d_flags>
0

> <s_epik_input>
W0NIM11jKFtjSF0xKWMoW0NIM10pW2NIXWMoYzEyKW4oW2NIXW4yKVtDSDJdW0NASF0oW09IXSlbQ0gyXU4oQzM9TylDKD1PKVtOSF1DMyhbQ0gzXSlbQ0gzXQ==

> <s_epik_cmdline>
J2VwaWtfcHl0aG9uJywgJy1waCcsICc3LjAnLCAnLXRuJywgJzgnLCAnLW1hJywgJzIwMCcsICctbWV0YWxfYmluZGluZycsICctaW1hZScsICc8aW5maWxlLm1hZT4nLCAnLW9tYWUnLCAnPG91dGZpbGUubWFlPic=

> <r_lp_tautomer_probability>
1

> <r_epik_Ionization_Penalty>
1.08255

> <r_epik_Ionization_Penalty_Charging>
1.08249

> <r_epik_Ionization_Penalty_Neutral>
6.65731e-05

> <r_epik_State_Penalty>
1.13805

> <r_epik_Charging_Adjusted_Penalty>
2.22054

> <i_epik_Tot_Q>
1

> <i_epik_Tot_abs_Q>
1

> <r_epik_Metal_State_Penalty>
1.29676

> <b_epik_Metal_Only>
0

> <s_lp_Force_Field>
OPLS_2005

> <r_lp_Energy>
29.7067

> <b_lp_Chiralities_Consistent>
1

> <s_lp_Variant>
AV-unprocessed.smi:2026-4

> <Gold.Version>
5.8.1

> <Gold.Id.Protein>
6NUR|6NUR_protein|mol2

> <Gold.PLP.Fitness>
49.8732

> <Gold.PLP.PLP>
-42.0416

> <Gold.PLP.part.hbond>
-2.0000

> <Gold.PLP.part.metal>
0.0000

> <Gold.PLP.part.buried>
-6.0874

> <Gold.PLP.part.nonpolar>
-34.0609

> <Gold.PLP.part.repulsive>
0.2064

> <Gold.PLP.ligand.clash>
0.0000

> <Gold.PLP.ligand.torsion>
0.5975

> <Gold.PLP.Chemscore.Hbond>
3.0000

> <Gold.PLP.Chemscore.CHOScore>
0.0000

> <Gold.PLP.Chemscore.Metal>
0.0000

> <Gold.Chemscore.Hbonds>
donor molecule, donor type, donor heavy atom, donor atom, acceptor molecule, acceptor atom, score
      L1  H     5    47       P1  8028  2.00
      P1  H 10752 10763       L1    20  1.00

> <Gold.PLP.Chemscore.Internal.Correction>
0.0266

> <Gold.Rescore>
     Score         DG    S(hbond)    S(metal)    S(lipo)     H(rot)  DE(clash)    DE(int)     intcor
     18.17     -18.68       1.97        0.00     111.04       2.49       0.08       0.43       ----

> <Gold.Chemscore.Fitness>
18.1717

> <Gold.Chemscore.DG>
-18.6817

> <Gold.Chemscore.ZeroCoef>
-5.4800

> <Gold.Chemscore.Hbond>
1.9736

> <Gold.Chemscore.Metal>
0.0000

> <Gold.Chemscore.Lipo>
111.0390

> <Gold.Chemscore.Internal_Hbond>
0.0000

> <Gold.Chemscore.DEClash>
0.0826

> <Gold.Chemscore.DEInternal>
0.4274

> <Gold.Chemscore.Rot>
2.4929

> <Gold.Chemscore.Internal.Correction>
   9.000000E+99

> <Gold.Chemscore.Hbonds>
donor molecule, donor type, donor heavy atom, donor atom, acceptor molecule, acceptor atom, score
      L1  H     5    47       P1  8028  1.00
      P1  H 10752 10763       L1    20  0.99

> <Gold.Chemscore.Hbond.Weighted>
-6.5920

> <Gold.Chemscore.Metal.Weighted>
-0.0000

> <Gold.Chemscore.Lipo.Weighted>
-12.9916

> <Gold.Chemscore.Internal_Hbond.Weighted>
0.0000

> <Gold.Chemscore.DEClash.Weighted>
0.0826

> <Gold.Chemscore.DEInternal.Weighted>
0.4274

> <Gold.Chemscore.Rot.Weighted>
6.3819

> <Gold.Chemscore.Internal.Correction.Weighted>
   9.000000E+99

> <Gold.Protein.RotatedTorsions>
[ 6907 6896 6895 6894 ] final -121.09 input  -60.11 | X-H torsion
[ 7974 7965 7964 7962 ] final   61.85 input  175.53 | X-H torsion
[ 8008 7997 7996 7995 ] final  164.28 input   59.86 | X-H torsion
[ 10167 10162 10161 10158 ] final   25.72 input  -65.29 | X-H torsion
[ 10718 10713 10712 10709 ] final -173.61 input   66.30 | X-H torsion
[ 10763 10752 10751 10750 ] final   60.36 input  -60.55 | X-H torsion
[ 11005 11000 10999 10996 ] final  -20.86 input  -57.11 | X-H torsion

> <Gold.Protein.ActiveResidues>
 VAL166  LYS551  ARG553  GLY616  TRP617  ASP618  TYR619  PRO620  LYS621  CYS622 
 ASP623  PHE694  ASN695  SER759  ASP760  ASP761  ALA762  ILE779  LEU786  VAL792 
 PHE793  MET794  SER795  GLU796  ALA797  LYS798  CYS799  TRP800  GLU811  SER814 

> <Gold.Protein.RotatedAtoms>
  150.8452  133.7873  159.3045 H   0  0  0  0  0  0  0  0  0  0  0  0  # atno 6907 bound_to 6896
  151.5562  135.1065  159.9971 H   0  0  0  0  0  0  0  0  0  0  0  0  # atno 6908 bound_to 6896
  152.4507  133.7581  159.6787 H   0  0  0  0  0  0  0  0  0  0  0  0  # atno 6909 bound_to 6896
  145.8800  139.3437  143.0711 H   0  0  0  0  0  0  0  0  0  0  0  0  # atno 7974 bound_to 7965
  156.1892  140.1701  156.8125 H   0  0  0  0  0  0  0  0  0  0  0  0  # atno 8008 bound_to 7997
  154.5451  140.0729  156.8607 H   0  0  0  0  0  0  0  0  0  0  0  0  # atno 8009 bound_to 7997
  155.3138  140.3369  155.4245 H   0  0  0  0  0  0  0  0  0  0  0  0  # atno 8010 bound_to 7997
  140.5083  144.0203  150.6361 H   0  0  0  0  0  0  0  0  0  0  0  0  # atno 10167 bound_to 10162
  156.7728  130.9455  151.3120 H   0  0  0  0  0  0  0  0  0  0  0  0  # atno 10718 bound_to 10713
  152.9919  135.5539  154.5862 H   0  0  0  0  0  0  0  0  0  0  0  0  # atno 10763 bound_to 10752
  154.5233  135.2809  155.1246 H   0  0  0  0  0  0  0  0  0  0  0  0  # atno 10764 bound_to 10752
  154.2590  135.6384  153.5320 H   0  0  0  0  0  0  0  0  0  0  0  0  # atno 10765 bound_to 10752
  140.8505  133.7860  155.9961 H   0  0  0  0  0  0  0  0  0  0  0  0  # atno 11005 bound_to 11000
  145.9035  140.9227  143.0491 LP  0  0  0  0  0  0  0  0  0  0  0  0  # atno 17320 bound_to 7965
  144.6727  140.1064  143.7458 LP  0  0  0  0  0  0  0  0  0  0  0  0  # atno 17321 bound_to 7965
  140.3518  143.2958  152.0479 LP  0  0  0  0  0  0  0  0  0  0  0  0  # atno 17342 bound_to 10162
  139.4889  144.6368  151.6959 LP  0  0  0  0  0  0  0  0  0  0  0  0  # atno 17343 bound_to 10162
  157.6683  130.9027  149.9982 LP  0  0  0  0  0  0  0  0  0  0  0  0  # atno 17370 bound_to 10713
  156.1267  130.3644  149.9798 LP  0  0  0  0  0  0  0  0  0  0  0  0  # atno 17371 bound_to 10713
  140.8795  134.2628  157.5151 LP  0  0  0  0  0  0  0  0  0  0  0  0  # atno 17394 bound_to 11000
  139.8704  134.9608  156.4375 LP  0  0  0  0  0  0  0  0  0  0  0  0  # atno 17395 bound_to 11000

$$$$
