AV-unprocessed.smi:1670|AV-procd|sdf|6695|dock6
  -GOLD-   22720 7433D 1   1.00000     0.00000
 Structure written by MMmdl.
 41 42  0  0  0  0  0  0  0  0  1 V2000
  150.2977  132.8015  155.6206 C   0  0  0  0  0  0  0  0  0  0  0  0
  149.1077  133.1900  154.7325 C   0  0  2  0  0  0  0  0  0  0  0  0
  148.9873  132.2536  153.5104 C   0  0  0  0  0  0  0  0  0  0  0  0
  147.6772  132.3159  152.8847 N   0  0  0  0  0  0  0  0  0  0  0  0
  147.1050  133.3667  152.1992 C   0  0  0  0  0  0  0  0  0  0  0  0
  145.8759  132.9520  151.7726 C   0  0  0  0  0  0  0  0  0  0  0  0
  145.7835  131.6164  152.2546 C   0  0  0  0  0  0  0  0  0  0  0  0
  146.8606  131.2400  152.9244 N   0  0  0  0  0  0  0  0  0  0  0  0
  149.2635  134.5809  154.3076 N   0  0  0  0  0  0  0  0  0  0  0  0
  149.3334  135.6407  155.1265 C   0  0  0  0  0  0  0  0  0  0  0  0
  149.3422  135.5665  156.3556 O   0  0  0  0  0  0  0  0  0  0  0  0
  149.3576  136.7939  154.4446 N   0  0  0  0  0  0  0  0  0  0  0  0
  149.3511  138.1235  155.0464 C   0  0  2  0  0  0  0  0  0  0  0  0
  148.0446  138.8697  154.7027 C   0  0  0  0  0  0  0  0  0  0  0  0
  148.0446  140.2994  155.2711 C   0  0  0  0  0  0  0  0  0  0  0  0
  149.2799  141.1053  154.8271 C   0  0  2  0  0  0  0  0  0  0  0  0
  149.1960  141.4022  153.4472 O   0  0  0  0  0  0  0  0  0  0  0  0
  150.5875  140.3473  155.1252 C   0  0  0  0  0  0  0  0  0  0  0  0
  150.5755  138.9176  154.5562 C   0  0  0  0  0  0  0  0  0  0  0  0
  150.2005  131.7764  155.9794 H   0  0  0  0  0  0  0  0  0  0  0  0
  150.3640  133.4499  156.4949 H   0  0  0  0  0  0  0  0  0  0  0  0
  151.2406  132.8755  155.0777 H   0  0  0  0  0  0  0  0  0  0  0  0
  148.2062  133.0870  155.3392 H   0  0  0  0  0  0  0  0  0  0  0  0
  149.7517  132.4908  152.7682 H   0  0  0  0  0  0  0  0  0  0  0  0
  149.1609  131.2204  153.8138 H   0  0  0  0  0  0  0  0  0  0  0  0
  147.6184  134.3076  152.0664 H   0  0  0  0  0  0  0  0  0  0  0  0
  145.1543  133.5153  151.2001 H   0  0  0  0  0  0  0  0  0  0  0  0
  144.9711  130.9142  152.1390 H   0  0  0  0  0  0  0  0  0  0  0  0
  149.2626  134.7524  153.3127 H   0  0  0  0  0  0  0  0  0  0  0  0
  149.3421  136.7513  153.4362 H   0  0  0  0  0  0  0  0  0  0  0  0
  149.4247  138.0192  156.1307 H   0  0  0  0  0  0  0  0  0  0  0  0
  147.9132  138.9063  153.6204 H   0  0  0  0  0  0  0  0  0  0  0  0
  147.1837  138.3265  155.0948 H   0  0  0  0  0  0  0  0  0  0  0  0
  147.1292  140.8177  154.9828 H   0  0  0  0  0  0  0  0  0  0  0  0
  148.0306  140.2440  156.3603 H   0  0  0  0  0  0  0  0  0  0  0  0
  149.2930  142.0585  155.3565 H   0  0  0  0  0  0  0  0  0  0  0  0
  149.1943  140.5895  152.9649 H   0  0  0  0  0  0  0  0  0  0  0  0
  151.4428  140.8993  154.7339 H   0  0  0  0  0  0  0  0  0  0  0  0
  150.7287  140.2953  156.2055 H   0  0  0  0  0  0  0  0  0  0  0  0
  151.4935  138.4035  154.8435 H   0  0  0  0  0  0  0  0  0  0  0  0
  150.5765  138.9607  153.4661 H   0  0  0  0  0  0  0  0  0  0  0  0
  1  2  1  0  0  0  0
  1 20  1  0  0  0  0
  1 21  1  0  0  0  0
  1 22  1  0  0  0  0
  2  3  1  0  0  0  0
  2  9  1  0  0  0  0
  2 23  1  0  0  0  0
  3  4  1  0  0  0  0
  3 24  1  0  0  0  0
  3 25  1  0  0  0  0
  4  8  1  0  0  0  0
  4  5  1  0  0  0  0
  5  6  2  0  0  0  0
  5 26  1  0  0  0  0
  6  7  1  0  0  0  0
  6 27  1  0  0  0  0
  7  8  2  0  0  0  0
  7 28  1  0  0  0  0
  9 10  1  0  0  0  0
  9 29  1  0  0  0  0
 10 11  2  0  0  0  0
 10 12  1  0  0  0  0
 12 13  1  0  0  0  0
 12 30  1  0  0  0  0
 13 19  1  0  0  0  0
 13 14  1  0  0  0  0
 13 31  1  0  0  0  0
 14 15  1  0  0  0  0
 14 32  1  0  0  0  0
 14 33  1  0  0  0  0
 15 16  1  0  0  0  0
 15 34  1  0  0  0  0
 15 35  1  0  0  0  0
 16 17  1  0  0  0  0
 16 18  1  0  0  0  0
 16 36  1  0  0  0  0
 17 37  1  0  0  0  0
 18 19  1  0  0  0  0
 18 38  1  0  0  0  0
 18 39  1  0  0  0  0
 19 40  1  0  0  0  0
 19 41  1  0  0  0  0
M  END
> <s_m_source_file>
AV-unprocessed.smi

> <i_m_source_file_index>
1670

> <i_lp_mmshare_version>
43012

> <i_f3d_flags>
0

> <s_epik_input>
bjFbY0hdW2NIXVtjSF1uMVtDSDJdW0NAQEhdKFtDSDNdKVtOSF1DKD1PKVtOSF1bQ0BASF0yW0NIMl1bQ0gyXVtDQEBIXShbT0hdKVtDSDJdW0NIMl0y

> <s_epik_cmdline>
J2VwaWtfcHl0aG9uJywgJy1waCcsICc3LjAnLCAnLXRuJywgJzgnLCAnLW1hJywgJzIwMCcsICctbWV0YWxfYmluZGluZycsICctaW1hZScsICc8aW5maWxlLm1hZT4nLCAnLW9tYWUnLCAnPG91dGZpbGUubWFlPic=

> <r_lp_tautomer_probability>
1

> <r_epik_Ionization_Penalty>
7.33369e-05

> <r_epik_Ionization_Penalty_Charging>
0

> <r_epik_Ionization_Penalty_Neutral>
7.33369e-05

> <r_epik_State_Penalty>
-0

> <r_epik_Charging_Adjusted_Penalty>
0

> <i_epik_Tot_Q>
0

> <i_epik_Tot_abs_Q>
0

> <r_epik_Metal_State_Penalty>
-0

> <b_epik_Metal_Only>
0

> <s_lp_Force_Field>
OPLS_2005

> <r_lp_Energy>
7.35879

> <b_lp_Chiralities_Consistent>
1

> <s_lp_Variant>
AV-unprocessed.smi:1670-3

> <Gold.Version>
5.8.1

> <Gold.Id.Protein>
6NUR|6NUR_protein|mol2

> <Gold.PLP.Fitness>
44.2754

> <Gold.PLP.PLP>
-32.2847

> <Gold.PLP.part.hbond>
-4.9661

> <Gold.PLP.part.metal>
0.0000

> <Gold.PLP.part.buried>
-2.3752

> <Gold.PLP.part.nonpolar>
-25.4467

> <Gold.PLP.part.repulsive>
0.1874

> <Gold.PLP.ligand.clash>
0.0000

> <Gold.PLP.ligand.torsion>
0.2199

> <Gold.PLP.Chemscore.Hbond>
3.1365

> <Gold.PLP.Chemscore.CHOScore>
1.0000

> <Gold.PLP.Chemscore.Metal>
0.0000

> <Gold.Chemscore.Hbonds>
donor molecule, donor type, donor heavy atom, donor atom, acceptor molecule, acceptor atom, score
      L1  H     9    29       P1  7948  0.47
      L1  H    12    30       P1  7948  1.00
      L1  H    17    37       P1  7957  0.70
      P1  H  8011  8017       L1    17  0.93
      L1  C     5    26       P1  7948  1.00

> <Gold.PLP.Chemscore.Internal.Correction>
0.0210

> <Gold.Rescore>
     Score         DG    S(hbond)    S(metal)    S(lipo)     H(rot)  DE(clash)    DE(int)     intcor
     14.66     -15.53       2.37        0.00      66.85       2.22       0.63       0.24       ----

> <Gold.Chemscore.Fitness>
14.6585

> <Gold.Chemscore.DG>
-15.5286

> <Gold.Chemscore.ZeroCoef>
-5.4800

> <Gold.Chemscore.Hbond>
2.3701

> <Gold.Chemscore.Metal>
0.0000

> <Gold.Chemscore.Lipo>
66.8515

> <Gold.Chemscore.Internal_Hbond>
0.0000

> <Gold.Chemscore.DEClash>
0.6268

> <Gold.Chemscore.DEInternal>
0.2432

> <Gold.Chemscore.Rot>
2.2224

> <Gold.Chemscore.Internal.Correction>
   9.000000E+99

> <Gold.Chemscore.Hbonds>
donor molecule, donor type, donor heavy atom, donor atom, acceptor molecule, acceptor atom, score
      L1  H     9    29       P1  7948  0.03
      L1  H    12    30       P1  7948  0.92
      L1  H    17    37       P1  7957  0.72
      P1  H  8011  8017       L1    17  0.27

> <Gold.Chemscore.Hbond.Weighted>
-7.9162

> <Gold.Chemscore.Metal.Weighted>
-0.0000

> <Gold.Chemscore.Lipo.Weighted>
-7.8216

> <Gold.Chemscore.Internal_Hbond.Weighted>
0.0000

> <Gold.Chemscore.DEClash.Weighted>
0.6268

> <Gold.Chemscore.DEInternal.Weighted>
0.2432

> <Gold.Chemscore.Rot.Weighted>
5.6893

> <Gold.Chemscore.Internal.Correction.Weighted>
   9.000000E+99

> <Gold.Protein.RotatedTorsions>
[ 6907 6896 6895 6894 ] final  154.74 input  -60.11 | X-H torsion
[ 7974 7965 7964 7962 ] final  138.27 input  175.53 | X-H torsion
[ 8008 7997 7996 7995 ] final   98.07 input   59.86 | X-H torsion
[ 10167 10162 10161 10158 ] final  -21.44 input  -65.29 | X-H torsion
[ 10718 10713 10712 10709 ] final  -79.71 input   66.30 | X-H torsion
[ 10763 10752 10751 10750 ] final    2.94 input  -60.55 | X-H torsion
[ 11005 11000 10999 10996 ] final   -1.94 input  -57.11 | X-H torsion

> <Gold.Protein.ActiveResidues>
 VAL166  LYS551  ARG553  GLY616  TRP617  ASP618  TYR619  PRO620  LYS621  CYS622 
 ASP623  PHE694  ASN695  SER759  ASP760  ASP761  ALA762  ILE779  LEU786  VAL792 
 PHE793  MET794  SER795  GLU796  ALA797  LYS798  CYS799  TRP800  GLU811  SER814 

> <Gold.Protein.RotatedAtoms>
  152.0541  133.4032  159.4389 H   0  0  0  0  0  0  0  0  0  0  0  0  # atno 6907 bound_to 6896
  150.6869  134.3274  159.4822 H   0  0  0  0  0  0  0  0  0  0  0  0  # atno 6908 bound_to 6896
  152.1088  134.9289  160.0618 H   0  0  0  0  0  0  0  0  0  0  0  0  # atno 6909 bound_to 6896
  144.9388  139.4956  143.5582 H   0  0  0  0  0  0  0  0  0  0  0  0  # atno 7974 bound_to 7965
  156.0967  140.3249  155.7887 H   0  0  0  0  0  0  0  0  0  0  0  0  # atno 8008 bound_to 7997
  155.4906  140.0561  157.2971 H   0  0  0  0  0  0  0  0  0  0  0  0  # atno 8009 bound_to 7997
  154.4671  140.1994  156.0106 H   0  0  0  0  0  0  0  0  0  0  0  0  # atno 8010 bound_to 7997
  140.7282  143.4627  151.0357 H   0  0  0  0  0  0  0  0  0  0  0  0  # atno 10167 bound_to 10162
  156.0086  130.4553  150.3690 H   0  0  0  0  0  0  0  0  0  0  0  0  # atno 10718 bound_to 10713
  153.2894  135.6947  153.7307 H   0  0  0  0  0  0  0  0  0  0  0  0  # atno 10763 bound_to 10752
  153.6264  135.3418  155.3028 H   0  0  0  0  0  0  0  0  0  0  0  0  # atno 10764 bound_to 10752
  154.8519  135.4398  154.1972 H   0  0  0  0  0  0  0  0  0  0  0  0  # atno 10765 bound_to 10752
  140.6529  133.9388  155.8390 H   0  0  0  0  0  0  0  0  0  0  0  0  # atno 11005 bound_to 11000
  146.3277  139.8392  142.8893 LP  0  0  0  0  0  0  0  0  0  0  0  0  # atno 17320 bound_to 7965
  145.3024  141.0198  143.3601 LP  0  0  0  0  0  0  0  0  0  0  0  0  # atno 17321 bound_to 7965
  139.8313  143.7687  152.3180 LP  0  0  0  0  0  0  0  0  0  0  0  0  # atno 17342 bound_to 10162
  139.7804  144.7446  151.0097 LP  0  0  0  0  0  0  0  0  0  0  0  0  # atno 17343 bound_to 10162
  157.1775  131.0384  151.2765 LP  0  0  0  0  0  0  0  0  0  0  0  0  # atno 17370 bound_to 10713
  157.4175  130.7419  149.6887 LP  0  0  0  0  0  0  0  0  0  0  0  0  # atno 17371 bound_to 10713
  141.0523  134.0467  157.3767 LP  0  0  0  0  0  0  0  0  0  0  0  0  # atno 17394 bound_to 11000
  139.9039  135.0174  156.7399 LP  0  0  0  0  0  0  0  0  0  0  0  0  # atno 17395 bound_to 11000

$$$$
