AV-unprocessed.smi:1965|AV-procd|sdf|7938|dock2
  -GOLD-   2272010103D 1   1.00000     0.00000
 Structure written by MMmdl.
 37 39  0  0  0  0  0  0  0  0  2 V2000
  144.8892  137.1472  152.5960 O   0  0  0  0  0  0  0  0  0  0  0  0
  146.0715  136.8435  152.4463 C   0  0  0  0  0  0  0  0  0  0  0  0
  146.4274  135.6801  151.8618 N   0  0  0  0  0  0  0  0  0  0  0  0
  145.6399  134.6198  151.3266 C   0  0  0  0  0  0  0  0  0  0  0  0
  144.3011  134.5794  151.3256 N   0  0  0  0  0  0  0  0  0  0  0  0
  143.8082  133.4266  150.7093 C   0  0  0  0  0  0  0  0  0  0  0  0
  144.7916  132.5961  150.2339 C   0  0  0  0  0  0  0  0  0  0  0  0
  146.3844  133.2339  150.5419 S   0  0  0  0  0  0  0  0  0  0  0  0
  147.0784  137.6364  152.8475 N   0  0  0  0  0  0  0  0  0  0  0  0
  146.9201  138.9092  153.5433 C   0  0  2  0  0  0  0  0  0  0  0  0
  146.8982  140.1094  152.6061 C   0  0  0  0  0  0  0  0  0  0  0  0
  147.2193  141.2815  153.5391 C   0  0  0  0  0  0  0  0  0  0  0  0
  148.0120  140.7297  154.6657 N   0  3  2  0  0  0  0  0  0  0  0  0
  149.3257  141.3985  154.8652 C   0  0  0  0  0  0  0  0  0  0  0  0
  150.2459  140.5496  155.7551 C   0  0  0  0  0  0  0  0  0  0  0  0
  150.5521  139.1842  155.1109 C   0  0  0  0  0  0  0  0  0  0  0  0
  149.4720  138.7538  154.1002 C   0  0  0  0  0  0  0  0  0  0  0  0
  148.0642  139.2471  154.5180 C   0  0  2  0  0  0  0  0  0  0  0  0
  147.4215  135.5677  151.7245 H   0  0  0  0  0  0  0  0  0  0  0  0
  142.7401  133.2777  150.6505 H   0  0  0  0  0  0  0  0  0  0  0  0
  144.6764  131.6530  149.7207 H   0  0  0  0  0  0  0  0  0  0  0  0
  148.0225  137.3160  152.6836 H   0  0  0  0  0  0  0  0  0  0  0  0
  145.9773  138.9016  154.0945 H   0  0  0  0  0  0  0  0  0  0  0  0
  147.6792  140.0144  151.8499 H   0  0  0  0  0  0  0  0  0  0  0  0
  145.9446  140.2296  152.0910 H   0  0  0  0  0  0  0  0  0  0  0  0
  147.7277  142.0879  153.0088 H   0  0  0  0  0  0  0  0  0  0  0  0
  146.2978  141.6949  153.9503 H   0  0  0  0  0  0  0  0  0  0  0  0
  149.8136  141.5657  153.9032 H   0  0  0  0  0  0  0  0  0  0  0  0
  149.1600  142.3804  155.3098 H   0  0  0  0  0  0  0  0  0  0  0  0
  151.1758  141.0807  155.9615 H   0  0  0  0  0  0  0  0  0  0  0  0
  149.7617  140.3971  156.7209 H   0  0  0  0  0  0  0  0  0  0  0  0
  151.5173  139.2155  154.6040 H   0  0  0  0  0  0  0  0  0  0  0  0
  150.6480  138.4348  155.8976 H   0  0  0  0  0  0  0  0  0  0  0  0
  149.7173  139.1558  153.1162 H   0  0  0  0  0  0  0  0  0  0  0  0
  149.4970  137.6687  153.9975 H   0  0  0  0  0  0  0  0  0  0  0  0
  147.8374  138.8048  155.4893 H   0  0  0  0  0  0  0  0  0  0  0  0
  147.4715  140.9016  155.5016 H   0  0  0  0  0  0  0  0  0  0  0  0
  1  2  2  0  0  0  0
  2  3  1  0  0  0  0
  2  9  1  0  0  0  0
  3  4  1  0  0  0  0
  3 19  1  0  0  0  0
  4  8  1  0  0  0  0
  4  5  2  0  0  0  0
  5  6  1  0  0  0  0
  6  7  2  0  0  0  0
  6 20  1  0  0  0  0
  7  8  1  0  0  0  0
  7 21  1  0  0  0  0
  9 10  1  0  0  0  0
  9 22  1  0  0  0  0
 10 18  1  0  0  0  0
 10 11  1  0  0  0  0
 10 23  1  0  0  0  0
 11 12  1  0  0  0  0
 11 24  1  0  0  0  0
 11 25  1  0  0  0  0
 12 13  1  0  0  0  0
 12 26  1  0  0  0  0
 12 27  1  0  0  0  0
 13 18  1  0  0  0  0
 13 14  1  0  0  0  0
 13 37  1  0  0  0  0
 14 15  1  0  0  0  0
 14 28  1  0  0  0  0
 14 29  1  0  0  0  0
 15 16  1  0  0  0  0
 15 30  1  0  0  0  0
 15 31  1  0  0  0  0
 16 17  1  0  0  0  0
 16 32  1  0  0  0  0
 16 33  1  0  0  0  0
 17 18  1  0  0  0  0
 17 34  1  0  0  0  0
 17 35  1  0  0  0  0
 18 36  1  0  0  0  0
M  CHG  1  13   1
M  END
> <s_m_source_file>
AV-unprocessed.smi

> <i_m_source_file_index>
1965

> <i_lp_mmshare_version>
43012

> <i_f3d_flags>
0

> <s_epik_input>
czFbY0hdW2NIXW5jMVtOSF1DKD1PKVtOSF1bQ0BIXShbQ0gyXVtDSDJdMilbQ0BASF0oTjIzKVtDSDJdW0NIMl1bQ0gyXVtDSDJdMw==

> <s_epik_cmdline>
J2VwaWtfcHl0aG9uJywgJy1waCcsICc3LjAnLCAnLXRuJywgJzgnLCAnLW1hJywgJzIwMCcsICctbWV0YWxfYmluZGluZycsICctaW1hZScsICc8aW5maWxlLm1hZT4nLCAnLW9tYWUnLCAnPG91dGZpbGUubWFlPic=

> <r_lp_tautomer_probability>
1

> <r_epik_Ionization_Penalty>
0.00125962

> <r_epik_Ionization_Penalty_Charging>
0.00107044

> <r_epik_Ionization_Penalty_Neutral>
0.000189176

> <r_epik_State_Penalty>
-0

> <r_epik_Charging_Adjusted_Penalty>
0.00107044

> <i_epik_Tot_Q>
1

> <i_epik_Tot_abs_Q>
1

> <r_epik_Metal_State_Penalty>
0.0179285

> <b_epik_Metal_Only>
0

> <s_lp_Force_Field>
OPLS_2005

> <r_lp_Energy>
41.6274

> <b_lp_Chiralities_Consistent>
1

> <s_lp_Variant>
AV-unprocessed.smi:1965-7

> <Gold.Version>
5.8.1

> <Gold.Id.Protein>
6NUR|6NUR_protein|mol2

> <Gold.PLP.Fitness>
37.8631

> <Gold.PLP.PLP>
-29.8899

> <Gold.PLP.part.hbond>
-1.9923

> <Gold.PLP.part.metal>
0.0000

> <Gold.PLP.part.buried>
-1.3358

> <Gold.PLP.part.nonpolar>
-27.7136

> <Gold.PLP.part.repulsive>
0.5289

> <Gold.PLP.ligand.clash>
0.0000

> <Gold.PLP.ligand.torsion>
0.3703

> <Gold.PLP.Chemscore.Hbond>
1.9040

> <Gold.PLP.Chemscore.CHOScore>
0.9996

> <Gold.PLP.Chemscore.Metal>
0.0000

> <Gold.Chemscore.Hbonds>
donor molecule, donor type, donor heavy atom, donor atom, acceptor molecule, acceptor atom, score
      L1  H     3    19       P1  7948  0.99
      L1  H     9    22       P1  7948  0.90
      L1  C     6    20       P1 10186  1.00

> <Gold.PLP.Chemscore.Internal.Correction>
0.0030

> <Gold.Rescore>
     Score         DG    S(hbond)    S(metal)    S(lipo)     H(rot)  DE(clash)    DE(int)     intcor
     16.27     -18.38       1.85        0.00      79.27       1.00       0.52       1.59       ----

> <Gold.Chemscore.Fitness>
16.2653

> <Gold.Chemscore.DG>
-18.3756

> <Gold.Chemscore.ZeroCoef>
-5.4800

> <Gold.Chemscore.Hbond>
1.8506

> <Gold.Chemscore.Metal>
0.0000

> <Gold.Chemscore.Lipo>
79.2685

> <Gold.Chemscore.Internal_Hbond>
0.0000

> <Gold.Chemscore.DEClash>
0.5165

> <Gold.Chemscore.DEInternal>
1.5938

> <Gold.Chemscore.Rot>
1.0000

> <Gold.Chemscore.Internal.Correction>
   9.000000E+99

> <Gold.Chemscore.Hbonds>
donor molecule, donor type, donor heavy atom, donor atom, acceptor molecule, acceptor atom, score
      L1  H     3    19       P1  7948  0.92
      L1  H     9    22       P1  7948  0.88

> <Gold.Chemscore.Hbond.Weighted>
-6.1812

> <Gold.Chemscore.Metal.Weighted>
-0.0000

> <Gold.Chemscore.Lipo.Weighted>
-9.2744

> <Gold.Chemscore.Internal_Hbond.Weighted>
0.0000

> <Gold.Chemscore.DEClash.Weighted>
0.5165

> <Gold.Chemscore.DEInternal.Weighted>
1.5938

> <Gold.Chemscore.Rot.Weighted>
2.5600

> <Gold.Chemscore.Internal.Correction.Weighted>
   9.000000E+99

> <Gold.Protein.RotatedTorsions>
[ 6907 6896 6895 6894 ] final   76.64 input  -60.11 | X-H torsion
[ 7974 7965 7964 7962 ] final    8.22 input  175.53 | X-H torsion
[ 8008 7997 7996 7995 ] final  146.09 input   59.86 | X-H torsion
[ 10167 10162 10161 10158 ] final   62.33 input  -65.29 | X-H torsion
[ 10718 10713 10712 10709 ] final  -80.66 input   66.30 | X-H torsion
[ 10763 10752 10751 10750 ] final  110.28 input  -60.55 | X-H torsion
[ 11005 11000 10999 10996 ] final   26.99 input  -57.11 | X-H torsion

> <Gold.Protein.ActiveResidues>
 VAL166  LYS551  ARG553  GLY616  TRP617  ASP618  TYR619  PRO620  LYS621  CYS622 
 ASP623  PHE694  ASN695  SER759  ASP760  ASP761  ALA762  ILE779  LEU786  VAL792 
 PHE793  MET794  SER795  GLU796  ALA797  LYS798  CYS799  TRP800  GLU811  SER814 

> <Gold.Protein.RotatedAtoms>
  152.5082  134.3939  159.9393 H   0  0  0  0  0  0  0  0  0  0  0  0  # atno 6907 bound_to 6896
  151.3900  133.3786  159.2727 H   0  0  0  0  0  0  0  0  0  0  0  0  # atno 6908 bound_to 6896
  150.9440  134.8867  159.7689 H   0  0  0  0  0  0  0  0  0  0  0  0  # atno 6909 bound_to 6896
  146.2418  139.9965  142.8420 H   0  0  0  0  0  0  0  0  0  0  0  0  # atno 7974 bound_to 7965
  156.2865  140.2192  156.5320 H   0  0  0  0  0  0  0  0  0  0  0  0  # atno 8008 bound_to 7997
  154.7441  140.0485  157.0859 H   0  0  0  0  0  0  0  0  0  0  0  0  # atno 8009 bound_to 7997
  155.0193  140.3122  155.4802 H   0  0  0  0  0  0  0  0  0  0  0  0  # atno 8010 bound_to 7997
  140.1451  144.4516  150.6789 H   0  0  0  0  0  0  0  0  0  0  0  0  # atno 10167 bound_to 10162
  156.0066  130.4581  150.3833 H   0  0  0  0  0  0  0  0  0  0  0  0  # atno 10718 bound_to 10713
  153.4467  135.3753  155.2260 H   0  0  0  0  0  0  0  0  0  0  0  0  # atno 10763 bound_to 10752
  154.8755  135.3876  154.4088 H   0  0  0  0  0  0  0  0  0  0  0  0  # atno 10764 bound_to 10752
  153.4641  135.7087  153.6096 H   0  0  0  0  0  0  0  0  0  0  0  0  # atno 10765 bound_to 10752
  140.3310  134.2437  155.7702 H   0  0  0  0  0  0  0  0  0  0  0  0  # atno 11005 bound_to 11000
  145.1455  140.9594  143.4464 LP  0  0  0  0  0  0  0  0  0  0  0  0  # atno 17320 bound_to 7965
  145.0255  139.3386  143.6051 LP  0  0  0  0  0  0  0  0  0  0  0  0  # atno 17321 bound_to 7965
  140.6737  143.2296  151.5562 LP  0  0  0  0  0  0  0  0  0  0  0  0  # atno 17342 bound_to 10162
  139.5453  144.2538  152.1430 LP  0  0  0  0  0  0  0  0  0  0  0  0  # atno 17343 bound_to 10162
  157.1912  131.0415  151.2699 LP  0  0  0  0  0  0  0  0  0  0  0  0  # atno 17370 bound_to 10713
  157.4059  130.7359  149.6802 LP  0  0  0  0  0  0  0  0  0  0  0  0  # atno 17371 bound_to 10713
  141.2063  133.7836  157.0184 LP  0  0  0  0  0  0  0  0  0  0  0  0  # atno 17394 bound_to 11000
  140.0860  134.9620  157.1701 LP  0  0  0  0  0  0  0  0  0  0  0  0  # atno 17395 bound_to 11000

$$$$
