AV-unprocessed.smi:2072|AV-procd|sdf|8446|dock1
  -GOLD-   2272011143D 1   1.00000     0.00000
 Structure written by MMmdl.
 40 42  0  0  0  0  0  0  0  0  2 V2000
  149.7646  134.6798  156.0794 O   0  0  0  0  0  0  0  0  0  0  0  0
  149.4471  135.0285  154.9432 C   0  0  0  0  0  0  0  0  0  0  0  0
  149.7459  136.2086  154.3735 N   0  0  0  0  0  0  0  0  0  0  0  0
  150.4621  137.3094  154.9187 C   0  0  0  0  0  0  0  0  0  0  0  0
  151.3251  137.2341  156.0396 C   0  0  0  0  0  0  0  0  0  0  0  0
  151.9827  138.4021  156.4710 C   0  0  0  0  0  0  0  0  0  0  0  0
  151.7612  139.5998  155.7647 C   0  0  0  0  0  0  0  0  0  0  0  0
  150.9515  139.6844  154.6885 N   0  0  0  0  0  0  0  0  0  0  0  0
  150.3243  138.5608  154.2808 C   0  0  0  0  0  0  0  0  0  0  0  0
  148.7218  134.2623  154.1156 N   0  0  0  0  0  0  0  0  0  0  0  0
  148.2389  132.9159  154.4194 C   0  0  2  0  0  0  0  0  0  0  0  0
  149.3328  131.8397  154.2798 C   0  0  0  0  0  0  0  0  0  0  0  0
  148.6234  130.6477  153.6290 C   0  0  0  0  0  0  0  0  0  0  0  0
  147.6303  131.2915  152.7615 N   0  3  1  0  0  0  0  0  0  0  0  0
  146.5822  130.4536  152.1445 C   0  0  0  0  0  0  0  0  0  0  0  0
  145.7909  131.3216  151.1427 C   0  0  0  0  0  0  0  0  0  0  0  0
  145.2691  132.6272  151.7845 C   0  0  0  0  0  0  0  0  0  0  0  0
  146.3887  133.3913  152.5240 C   0  0  0  0  0  0  0  0  0  0  0  0
  147.0805  132.4340  153.5120 C   0  0  2  0  0  0  0  0  0  0  0  0
  149.3659  136.3619  153.4508 H   0  0  0  0  0  0  0  0  0  0  0  0
  151.5069  136.3130  156.5697 H   0  0  0  0  0  0  0  0  0  0  0  0
  152.6455  138.3792  157.3232 H   0  0  0  0  0  0  0  0  0  0  0  0
  152.2505  140.5129  156.0700 H   0  0  0  0  0  0  0  0  0  0  0  0
  149.6857  138.6668  153.4160 H   0  0  0  0  0  0  0  0  0  0  0  0
  148.5018  134.6306  153.2016 H   0  0  0  0  0  0  0  0  0  0  0  0
  147.8897  132.8990  155.4541 H   0  0  0  0  0  0  0  0  0  0  0  0
  150.1262  132.1894  153.6174 H   0  0  0  0  0  0  0  0  0  0  0  0
  149.7926  131.5803  155.2342 H   0  0  0  0  0  0  0  0  0  0  0  0
  149.3038  130.0074  153.0667 H   0  0  0  0  0  0  0  0  0  0  0  0
  148.1183  130.0418  154.3828 H   0  0  0  0  0  0  0  0  0  0  0  0
  147.0407  129.6086  151.6299 H   0  0  0  0  0  0  0  0  0  0  0  0
  145.9235  130.0475  152.9136 H   0  0  0  0  0  0  0  0  0  0  0  0
  146.4376  131.5744  150.3016 H   0  0  0  0  0  0  0  0  0  0  0  0
  144.9597  130.7504  150.7279 H   0  0  0  0  0  0  0  0  0  0  0  0
  144.8196  133.2658  151.0234 H   0  0  0  0  0  0  0  0  0  0  0  0
  144.4731  132.3853  152.4900 H   0  0  0  0  0  0  0  0  0  0  0  0
  147.1100  133.7862  151.8072 H   0  0  0  0  0  0  0  0  0  0  0  0
  145.9611  134.2450  153.0501 H   0  0  0  0  0  0  0  0  0  0  0  0
  146.3135  132.0428  154.1843 H   0  0  0  0  0  0  0  0  0  0  0  0
  148.1607  131.6905  152.0002 H   0  0  0  0  0  0  0  0  0  0  0  0
  1  2  2  0  0  0  0
  2  3  1  0  0  0  0
  2 10  1  0  0  0  0
  3  4  1  0  0  0  0
  3 20  1  0  0  0  0
  4  9  1  0  0  0  0
  4  5  2  0  0  0  0
  5  6  1  0  0  0  0
  5 21  1  0  0  0  0
  6  7  2  0  0  0  0
  6 22  1  0  0  0  0
  7  8  1  0  0  0  0
  7 23  1  0  0  0  0
  8  9  2  0  0  0  0
  9 24  1  0  0  0  0
 10 11  1  0  0  0  0
 10 25  1  0  0  0  0
 11 19  1  0  0  0  0
 11 12  1  0  0  0  0
 11 26  1  0  0  0  0
 12 13  1  0  0  0  0
 12 27  1  0  0  0  0
 12 28  1  0  0  0  0
 13 14  1  0  0  0  0
 13 29  1  0  0  0  0
 13 30  1  0  0  0  0
 14 19  1  0  0  0  0
 14 15  1  0  0  0  0
 14 40  1  0  0  0  0
 15 16  1  0  0  0  0
 15 31  1  0  0  0  0
 15 32  1  0  0  0  0
 16 17  1  0  0  0  0
 16 33  1  0  0  0  0
 16 34  1  0  0  0  0
 17 18  1  0  0  0  0
 17 35  1  0  0  0  0
 17 36  1  0  0  0  0
 18 19  1  0  0  0  0
 18 37  1  0  0  0  0
 18 38  1  0  0  0  0
 19 39  1  0  0  0  0
M  CHG  1  14   1
M  END
> <s_m_source_file>
AV-unprocessed.smi

> <i_m_source_file_index>
2072

> <i_lp_mmshare_version>
43012

> <i_f3d_flags>
0

> <s_epik_input>
W0NIMl0xW0NIMl1bQ0gyXVtDSDJdW0NASF0oTjEyKVtDQEBIXShbQ0gyXVtDSDJdMilbTkhdQyg9TylbTkhdYzNbY0hdW2NIXVtjSF1uW2NIXTM=

> <s_epik_cmdline>
J2VwaWtfcHl0aG9uJywgJy1waCcsICc3LjAnLCAnLXRuJywgJzgnLCAnLW1hJywgJzIwMCcsICctbWV0YWxfYmluZGluZycsICctaW1hZScsICc8aW5maWxlLm1hZT4nLCAnLW9tYWUnLCAnPG91dGZpbGUubWFlPic=

> <r_lp_tautomer_probability>
1

> <r_epik_Ionization_Penalty>
0.00482425

> <r_epik_Ionization_Penalty_Charging>
0.000974069

> <r_epik_Ionization_Penalty_Neutral>
0.00385018

> <r_epik_State_Penalty>
-0

> <r_epik_Charging_Adjusted_Penalty>
0.000974069

> <i_epik_Tot_Q>
1

> <i_epik_Tot_abs_Q>
1

> <r_epik_Metal_State_Penalty>
-0

> <b_epik_Metal_Only>
0

> <s_lp_Force_Field>
OPLS_2005

> <r_lp_Energy>
44.3747

> <b_lp_Chiralities_Consistent>
1

> <s_lp_Variant>
AV-unprocessed.smi:2072-5

> <Gold.Version>
5.8.1

> <Gold.Id.Protein>
6NUR|6NUR_protein|mol2

> <Gold.PLP.Fitness>
45.1865

> <Gold.PLP.PLP>
-31.7633

> <Gold.PLP.part.hbond>
-4.9929

> <Gold.PLP.part.metal>
0.0000

> <Gold.PLP.part.buried>
-1.4356

> <Gold.PLP.part.nonpolar>
-25.9507

> <Gold.PLP.part.repulsive>
0.1970

> <Gold.PLP.ligand.clash>
0.0000

> <Gold.PLP.ligand.torsion>
0.3218

> <Gold.PLP.Chemscore.Hbond>
3.5308

> <Gold.PLP.Chemscore.CHOScore>
1.1580

> <Gold.PLP.Chemscore.Metal>
0.0000

> <Gold.Chemscore.Hbonds>
donor molecule, donor type, donor heavy atom, donor atom, acceptor molecule, acceptor atom, score
      L1  H     3    20       P1  7948  1.00
      L1  H    10    25       P1  7948  0.72
      L1  H    14    40       P1 10747  0.57
      P1  H  7989  7998       L1     8  1.00
      L1  C     9    24       P1  7957  0.75

> <Gold.PLP.Chemscore.Internal.Correction>
0.0005

> <Gold.Rescore>
     Score         DG    S(hbond)    S(metal)    S(lipo)     H(rot)  DE(clash)    DE(int)     intcor
     19.36     -19.98       2.32        0.00      79.54       1.00       0.18       0.44       ----

> <Gold.Chemscore.Fitness>
19.3601

> <Gold.Chemscore.DG>
-19.9834

> <Gold.Chemscore.ZeroCoef>
-5.4800

> <Gold.Chemscore.Hbond>
2.3225

> <Gold.Chemscore.Metal>
0.0000

> <Gold.Chemscore.Lipo>
79.5393

> <Gold.Chemscore.Internal_Hbond>
0.0000

> <Gold.Chemscore.DEClash>
0.1808

> <Gold.Chemscore.DEInternal>
0.4425

> <Gold.Chemscore.Rot>
1.0000

> <Gold.Chemscore.Internal.Correction>
   9.000000E+99

> <Gold.Chemscore.Hbonds>
donor molecule, donor type, donor heavy atom, donor atom, acceptor molecule, acceptor atom, score
      L1  H     3    20       P1  7948  0.78
      L1  H    10    25       P1  7948  0.31
      L1  H    14    40       P1 10747  0.55
      P1  H  7989  7998       L1     8  0.73

> <Gold.Chemscore.Hbond.Weighted>
-7.7573

> <Gold.Chemscore.Metal.Weighted>
-0.0000

> <Gold.Chemscore.Lipo.Weighted>
-9.3061

> <Gold.Chemscore.Internal_Hbond.Weighted>
0.0000

> <Gold.Chemscore.DEClash.Weighted>
0.1808

> <Gold.Chemscore.DEInternal.Weighted>
0.4425

> <Gold.Chemscore.Rot.Weighted>
2.5600

> <Gold.Chemscore.Internal.Correction.Weighted>
   9.000000E+99

> <Gold.Protein.RotatedTorsions>
[ 6907 6896 6895 6894 ] final  157.30 input  -60.11 | X-H torsion
[ 7974 7965 7964 7962 ] final  -19.24 input  175.53 | X-H torsion
[ 8008 7997 7996 7995 ] final  -56.35 input   59.86 | X-H torsion
[ 10167 10162 10161 10158 ] final  109.45 input  -65.29 | X-H torsion
[ 10718 10713 10712 10709 ] final  110.98 input   66.30 | X-H torsion
[ 10763 10752 10751 10750 ] final  137.55 input  -60.55 | X-H torsion
[ 11005 11000 10999 10996 ] final   12.72 input  -57.11 | X-H torsion

> <Gold.Protein.ActiveResidues>
 VAL166  LYS551  ARG553  GLY616  TRP617  ASP618  TYR619  PRO620  LYS621  CYS622 
 ASP623  PHE694  ASN695  SER759  ASP760  ASP761  ALA762  ILE779  LEU786  VAL792 
 PHE793  MET794  SER795  GLU796  ALA797  LYS798  CYS799  TRP800  GLU811  SER814 

> <Gold.Protein.RotatedAtoms>
  152.0172  133.3884  159.4243 H   0  0  0  0  0  0  0  0  0  0  0  0  # atno 6907 bound_to 6896
  150.6893  134.3666  159.4983 H   0  0  0  0  0  0  0  0  0  0  0  0  # atno 6908 bound_to 6896
  152.1435  134.9044  160.0603 H   0  0  0  0  0  0  0  0  0  0  0  0  # atno 6909 bound_to 6896
  146.1852  140.4033  142.8479 H   0  0  0  0  0  0  0  0  0  0  0  0  # atno 7974 bound_to 7965
  154.4227  140.1132  156.5623 H   0  0  0  0  0  0  0  0  0  0  0  0  # atno 8008 bound_to 7997
  155.6298  140.3495  155.4660 H   0  0  0  0  0  0  0  0  0  0  0  0  # atno 8009 bound_to 7997
  155.9957  140.1188  157.0586 H   0  0  0  0  0  0  0  0  0  0  0  0  # atno 8010 bound_to 7997
  139.6766  144.7122  151.1591 H   0  0  0  0  0  0  0  0  0  0  0  0  # atno 10167 bound_to 10162
  157.6467  131.0942  150.6682 H   0  0  0  0  0  0  0  0  0  0  0  0  # atno 10718 bound_to 10713
  153.8750  135.3051  155.3443 H   0  0  0  0  0  0  0  0  0  0  0  0  # atno 10763 bound_to 10752
  154.7788  135.4847  153.9804 H   0  0  0  0  0  0  0  0  0  0  0  0  # atno 10764 bound_to 10752
  153.1384  135.6819  153.9162 H   0  0  0  0  0  0  0  0  0  0  0  0  # atno 10765 bound_to 10752
  140.4888  134.0861  155.7767 H   0  0  0  0  0  0  0  0  0  0  0  0  # atno 11005 bound_to 11000
  144.8384  140.6818  143.6245 LP  0  0  0  0  0  0  0  0  0  0  0  0  # atno 17320 bound_to 7965
  145.3961  139.1607  143.4203 LP  0  0  0  0  0  0  0  0  0  0  0  0  # atno 17321 bound_to 7965
  140.7637  143.5763  150.8942 LP  0  0  0  0  0  0  0  0  0  0  0  0  # atno 17342 bound_to 10162
  139.9432  143.6358  152.3048 LP  0  0  0  0  0  0  0  0  0  0  0  0  # atno 17343 bound_to 10162
  156.6998  130.4620  149.5576 LP  0  0  0  0  0  0  0  0  0  0  0  0  # atno 17370 bound_to 10713
  156.1803  130.6495  151.0944 LP  0  0  0  0  0  0  0  0  0  0  0  0  # atno 17371 bound_to 10713
  141.1494  133.8996  157.2135 LP  0  0  0  0  0  0  0  0  0  0  0  0  # atno 17394 bound_to 11000
  139.9781  135.0107  156.9682 LP  0  0  0  0  0  0  0  0  0  0  0  0  # atno 17395 bound_to 11000

$$$$
