AV-unprocessed.smi:113|AV-procd|sdf|1095|dock1
  -GOLD-   2262018203D 1   1.00000     0.00000
 Structure written by MMmdl.
 52 55  0  0  0  0  0  0  0  0  1 V2000
  149.6464  138.0642  158.4798 C   0  0  0  0  0  0  0  0  0  0  0  0
  148.8167  136.9864  159.1459 C   0  0  0  0  0  0  0  0  0  0  0  0
  148.2318  135.9582  158.3860 C   0  0  0  0  0  0  0  0  0  0  0  0
  147.4585  134.9740  159.0433 C   0  0  0  0  0  0  0  0  0  0  0  0
  146.7993  133.8317  158.2621 C   0  0  0  0  0  0  0  0  0  0  0  0
  147.2907  133.5882  156.9131 N   0  0  0  0  0  0  0  0  0  0  0  0
  148.6802  133.3723  156.7440 C   0  0  0  0  0  0  0  0  0  0  0  0
  149.4591  133.4028  157.6992 O   0  0  0  0  0  0  0  0  0  0  0  0
  149.1033  133.0917  155.3699 C   0  0  0  0  0  0  0  0  0  0  0  0
  150.5803  132.8370  155.1128 C   0  0  0  0  0  0  0  0  0  0  0  0
  148.1828  133.0563  154.3764 C   0  0  0  0  0  0  0  0  0  0  0  0
  146.8306  133.2815  154.5669 N   0  0  0  0  0  0  0  0  0  0  0  0
  145.8803  133.1569  153.3955 C   0  0  2  0  0  0  0  0  0  0  0  0
  146.4834  132.4137  152.1914 C   0  0  0  0  0  0  0  0  0  0  0  0
  146.4211  133.4495  151.0784 C   0  0  1  0  0  0  0  0  0  0  0  0
  146.0725  132.8438  149.8503 O   0  0  0  0  0  0  0  0  0  0  0  0
  145.3470  134.4279  151.5672 C   0  0  2  0  0  0  0  0  0  0  0  0
  145.4906  135.8602  151.0302 C   0  0  0  0  0  0  0  0  0  0  0  0
  144.8940  135.9737  149.7555 O   0  0  0  0  0  0  0  0  0  0  0  0
  145.5265  134.4378  152.9764 O   0  0  0  0  0  0  0  0  0  0  0  0
  146.3409  133.5250  155.8689 C   0  0  0  0  0  0  0  0  0  0  0  0
  145.1343  133.6576  156.0837 O   0  0  0  0  0  0  0  0  0  0  0  0
  147.3111  135.0762  160.4533 C   0  0  0  0  0  0  0  0  0  0  0  0
  146.5546  134.1315  161.1883 C   0  0  0  0  0  0  0  0  0  0  0  0
  146.4218  134.2501  162.5834 C   0  0  0  0  0  0  0  0  0  0  0  0
  147.0428  135.3139  163.2584 C   0  0  0  0  0  0  0  0  0  0  0  0
  147.7951  136.2571  162.5358 C   0  0  0  0  0  0  0  0  0  0  0  0
  147.9428  136.1578  161.1355 C   0  0  0  0  0  0  0  0  0  0  0  0
  148.6759  137.0858  160.4821 N   0  0  0  0  0  0  0  0  0  0  0  0
  150.0363  137.7202  157.5214 H   0  0  0  0  0  0  0  0  0  0  0  0
  150.4932  138.3466  159.1064 H   0  0  0  0  0  0  0  0  0  0  0  0
  149.0374  138.9514  158.3039 H   0  0  0  0  0  0  0  0  0  0  0  0
  148.3825  135.9393  157.3171 H   0  0  0  0  0  0  0  0  0  0  0  0
  146.8927  132.8953  158.8145 H   0  0  0  0  0  0  0  0  0  0  0  0
  145.7229  133.9960  158.1916 H   0  0  0  0  0  0  0  0  0  0  0  0
  150.7827  132.6473  154.0584 H   0  0  0  0  0  0  0  0  0  0  0  0
  150.9210  131.9692  155.6790 H   0  0  0  0  0  0  0  0  0  0  0  0
  151.1750  133.6993  155.4162 H   0  0  0  0  0  0  0  0  0  0  0  0
  148.5294  132.8386  153.3763 H   0  0  0  0  0  0  0  0  0  0  0  0
  144.9921  132.6501  153.7744 H   0  0  0  0  0  0  0  0  0  0  0  0
  147.4949  132.0545  152.3845 H   0  0  0  0  0  0  0  0  0  0  0  0
  145.8502  131.5514  151.9771 H   0  0  0  0  0  0  0  0  0  0  0  0
  147.3839  133.9516  150.9796 H   0  0  0  0  0  0  0  0  0  0  0  0
  145.9591  133.5246  149.2042 H   0  0  0  0  0  0  0  0  0  0  0  0
  144.3484  134.0354  151.3642 H   0  0  0  0  0  0  0  0  0  0  0  0
  144.9966  136.5623  151.7024 H   0  0  0  0  0  0  0  0  0  0  0  0
  146.5396  136.1531  150.9729 H   0  0  0  0  0  0  0  0  0  0  0  0
  145.5482  135.7859  149.0998 H   0  0  0  0  0  0  0  0  0  0  0  0
  146.0646  133.3026  160.7006 H   0  0  0  0  0  0  0  0  0  0  0  0
  145.8431  133.5241  163.1354 H   0  0  0  0  0  0  0  0  0  0  0  0
  146.9430  135.4076  164.3298 H   0  0  0  0  0  0  0  0  0  0  0  0
  148.2679  137.0709  163.0661 H   0  0  0  0  0  0  0  0  0  0  0  0
  1  2  1  0  0  0  0
  1 30  1  0  0  0  0
  1 31  1  0  0  0  0
  1 32  1  0  0  0  0
  2 29  1  0  0  0  0
  2  3  2  0  0  0  0
  3  4  1  0  0  0  0
  3 33  1  0  0  0  0
  4  5  1  0  0  0  0
  4 23  2  0  0  0  0
  5  6  1  0  0  0  0
  5 34  1  0  0  0  0
  5 35  1  0  0  0  0
  6 21  1  0  0  0  0
  6  7  1  0  0  0  0
  7  8  2  0  0  0  0
  7  9  1  0  0  0  0
  9 10  1  0  0  0  0
  9 11  2  0  0  0  0
 10 36  1  0  0  0  0
 10 37  1  0  0  0  0
 10 38  1  0  0  0  0
 11 12  1  0  0  0  0
 11 39  1  0  0  0  0
 12 13  1  0  0  0  0
 12 21  1  0  0  0  0
 13 20  1  0  0  0  0
 13 14  1  0  0  0  0
 13 40  1  0  0  0  0
 14 15  1  0  0  0  0
 14 41  1  0  0  0  0
 14 42  1  0  0  0  0
 15 16  1  0  0  0  0
 15 17  1  0  0  0  0
 15 43  1  0  0  0  0
 16 44  1  0  0  0  0
 17 18  1  0  0  0  0
 17 20  1  0  0  0  0
 17 45  1  0  0  0  0
 18 19  1  0  0  0  0
 18 46  1  0  0  0  0
 18 47  1  0  0  0  0
 19 48  1  0  0  0  0
 21 22  2  0  0  0  0
 23 28  1  0  0  0  0
 23 24  1  0  0  0  0
 24 25  2  0  0  0  0
 24 49  1  0  0  0  0
 25 26  1  0  0  0  0
 25 50  1  0  0  0  0
 26 27  2  0  0  0  0
 26 51  1  0  0  0  0
 27 28  1  0  0  0  0
 27 52  1  0  0  0  0
 28 29  2  0  0  0  0
M  END
> <s_m_source_file>
AV-unprocessed.smi

> <i_m_source_file_index>
113

> <i_lp_mmshare_version>
43012

> <i_f3d_flags>
0

> <s_epik_input>
W2NIXTFbY0hdW2NIXVtjSF1jKGMxMiluYyhbQ0gzXSlbY0hdYzJbQ0gyXW4zYyg9TyljKFtDSDNdKVtjSF1uKGMzPU8pW0NAQEhdNFtDSDJdW0NAQEhdKFtPSF0pW0NASF0oTzQpW0NIMl1bT0hd

> <s_epik_cmdline>
J2VwaWtfcHl0aG9uJywgJy1waCcsICc3LjAnLCAnLXRuJywgJzgnLCAnLW1hJywgJzIwMCcsICctbWV0YWxfYmluZGluZycsICctaW1hZScsICc8aW5maWxlLm1hZT4nLCAnLW9tYWUnLCAnPG91dGZpbGUubWFlPic=

> <r_lp_tautomer_probability>
1

> <r_epik_Ionization_Penalty>
0.214728

> <r_epik_Ionization_Penalty_Charging>
3.04883e-08

> <r_epik_Ionization_Penalty_Neutral>
0.214728

> <r_epik_State_Penalty>
0.204913

> <r_epik_Charging_Adjusted_Penalty>
0.204913

> <i_epik_Tot_Q>
0

> <i_epik_Tot_abs_Q>
0

> <r_epik_Metal_State_Penalty>
0.000244761

> <b_epik_Metal_Only>
0

> <s_epik_Chemistry_Notes>
This compound contains an acetal/aminal-like group ( X-CH(R)-Y where X, Y are N, S, or O) that may be acid/base labile, releasing an aldehyde.

> <s_lp_Force_Field>
OPLS_2005

> <r_lp_Energy>
32.9041

> <b_lp_Chiralities_Consistent>
1

> <s_lp_Variant>
AV-unprocessed.smi:113-5

> <Gold.Version>
5.8.1

> <Gold.Id.Protein>
6NUR|6NUR_protein|mol2

> <Gold.PLP.Fitness>
50.4274

> <Gold.PLP.PLP>
-41.5849

> <Gold.PLP.part.hbond>
-6.0000

> <Gold.PLP.part.metal>
0.0000

> <Gold.PLP.part.buried>
-6.0732

> <Gold.PLP.part.nonpolar>
-30.6371

> <Gold.PLP.part.repulsive>
0.1859

> <Gold.PLP.ligand.clash>
0.0000

> <Gold.PLP.ligand.torsion>
0.9853

> <Gold.PLP.Chemscore.Hbond>
3.5909

> <Gold.PLP.Chemscore.CHOScore>
0.0000

> <Gold.PLP.Chemscore.Metal>
0.0000

> <Gold.Chemscore.Hbonds>
donor molecule, donor type, donor heavy atom, donor atom, acceptor molecule, acceptor atom, score
      L1  H    16    44       P1  7921  0.60
      L1  H    19    48       P1  7921  1.00
      P1  H  6896  6908       L1     8  0.86
      P1  H  6931  6943       L1    29  0.74

> <Gold.PLP.Chemscore.Internal.Correction>
0.0404

> <Gold.Rescore>
     Score         DG    S(hbond)    S(metal)    S(lipo)     H(rot)  DE(clash)    DE(int)     intcor
     15.14     -19.05       2.80        0.00     100.65       2.95       0.30       3.61       ----

> <Gold.Chemscore.Fitness>
15.1438

> <Gold.Chemscore.DG>
-19.0501

> <Gold.Chemscore.ZeroCoef>
-5.4800

> <Gold.Chemscore.Hbond>
2.7958

> <Gold.Chemscore.Metal>
0.0000

> <Gold.Chemscore.Lipo>
100.6510

> <Gold.Chemscore.Internal_Hbond>
0.0000

> <Gold.Chemscore.DEClash>
0.2974

> <Gold.Chemscore.DEInternal>
3.6089

> <Gold.Chemscore.Rot>
2.9469

> <Gold.Chemscore.Internal.Correction>
   9.000000E+99

> <Gold.Chemscore.Hbonds>
donor molecule, donor type, donor heavy atom, donor atom, acceptor molecule, acceptor atom, score
      L1  H    16    44       P1  7921  0.04
      L1  H    19    48       P1  7921  0.96
      P1  H  6896  6908       L1     8  0.84
      P1  H  6931  6943       L1    29  0.19

> <Gold.Chemscore.Hbond.Weighted>
-9.3379

> <Gold.Chemscore.Metal.Weighted>
-0.0000

> <Gold.Chemscore.Lipo.Weighted>
-11.7762

> <Gold.Chemscore.Internal_Hbond.Weighted>
0.0000

> <Gold.Chemscore.DEClash.Weighted>
0.2974

> <Gold.Chemscore.DEInternal.Weighted>
3.6089

> <Gold.Chemscore.Rot.Weighted>
7.5439

> <Gold.Chemscore.Internal.Correction.Weighted>
   9.000000E+99

> <Gold.Protein.RotatedTorsions>
[ 6907 6896 6895 6894 ] final  123.08 input  -60.11 | X-H torsion
[ 7974 7965 7964 7962 ] final   -9.11 input  175.53 | X-H torsion
[ 8008 7997 7996 7995 ] final -128.24 input   59.86 | X-H torsion
[ 10167 10162 10161 10158 ] final -179.85 input  -65.29 | X-H torsion
[ 10718 10713 10712 10709 ] final   78.83 input   66.30 | X-H torsion
[ 10763 10752 10751 10750 ] final -126.91 input  -60.55 | X-H torsion
[ 11005 11000 10999 10996 ] final -131.91 input  -57.11 | X-H torsion

> <Gold.Protein.ActiveResidues>
 VAL166  LYS551  ARG553  GLY616  TRP617  ASP618  TYR619  PRO620  LYS621  CYS622 
 ASP623  PHE694  ASN695  SER759  ASP760  ASP761  ALA762  ILE779  LEU786  VAL792 
 PHE793  MET794  SER795  GLU796  ALA797  LYS798  CYS799  TRP800  GLU811  SER814 

> <Gold.Protein.RotatedAtoms>
  152.4191  133.7086  159.6465 H   0  0  0  0  0  0  0  0  0  0  0  0  # atno 6907 bound_to 6896
  150.8067  133.8486  159.3208 H   0  0  0  0  0  0  0  0  0  0  0  0  # atno 6908 bound_to 6896
  151.6208  135.1034  160.0152 H   0  0  0  0  0  0  0  0  0  0  0  0  # atno 6909 bound_to 6896
  146.2261  140.2567  142.8350 H   0  0  0  0  0  0  0  0  0  0  0  0  # atno 7974 bound_to 7965
  155.2594  140.0435  157.2995 H   0  0  0  0  0  0  0  0  0  0  0  0  # atno 8008 bound_to 7997
  154.5720  140.2376  155.8147 H   0  0  0  0  0  0  0  0  0  0  0  0  # atno 8009 bound_to 7997
  156.2129  140.2993  155.9782 H   0  0  0  0  0  0  0  0  0  0  0  0  # atno 8010 bound_to 7997
  139.5367  144.2476  152.0810 H   0  0  0  0  0  0  0  0  0  0  0  0  # atno 10167 bound_to 10162
  157.6757  130.9886  150.1843 H   0  0  0  0  0  0  0  0  0  0  0  0  # atno 10718 bound_to 10713
  154.8749  135.3980  154.3507 H   0  0  0  0  0  0  0  0  0  0  0  0  # atno 10763 bound_to 10752
  153.4293  135.7025  153.6246 H   0  0  0  0  0  0  0  0  0  0  0  0  # atno 10764 bound_to 10752
  153.4875  135.3755  155.2444 H   0  0  0  0  0  0  0  0  0  0  0  0  # atno 10765 bound_to 10752
  140.9217  134.1436  157.4309 H   0  0  0  0  0  0  0  0  0  0  0  0  # atno 11005 bound_to 11000
  144.9370  140.8037  143.5654 LP  0  0  0  0  0  0  0  0  0  0  0  0  # atno 17320 bound_to 7965
  145.2516  139.2029  143.4939 LP  0  0  0  0  0  0  0  0  0  0  0  0  # atno 17321 bound_to 7965
  140.1948  144.4716  150.6461 LP  0  0  0  0  0  0  0  0  0  0  0  0  # atno 17342 bound_to 10162
  140.6578  143.2242  151.5928 LP  0  0  0  0  0  0  0  0  0  0  0  0  # atno 17343 bound_to 10162
  156.2569  130.3706  149.8172 LP  0  0  0  0  0  0  0  0  0  0  0  0  # atno 17370 bound_to 10713
  156.5929  130.8514  151.3412 LP  0  0  0  0  0  0  0  0  0  0  0  0  # atno 17371 bound_to 10713
  139.8777  134.9973  156.5842 LP  0  0  0  0  0  0  0  0  0  0  0  0  # atno 17394 bound_to 11000
  140.7979  133.8529  155.8702 LP  0  0  0  0  0  0  0  0  0  0  0  0  # atno 17395 bound_to 11000

$$$$
