AV-unprocessed.smi:2124|AV-procd|sdf|8664|dock5
  -GOLD-   2272011413D 1   1.00000     0.00000
 Structure written by MMmdl.
 47 49  0  0  0  0  0  0  0  0  1 V2000
  149.9439  133.8342  154.7011 C   0  0  0  0  0  0  0  0  0  0  0  0
  149.9924  135.1515  155.4442 C   0  0  0  0  0  0  0  0  0  0  0  0
  149.8641  136.2595  154.6233 N   0  0  0  0  0  0  0  0  0  0  0  0
  149.8770  137.5094  155.2160 C   0  0  0  0  0  0  0  0  0  0  0  0
  149.6946  138.6658  154.2487 C   0  0  0  0  0  0  0  0  0  0  0  0
  150.0283  137.6497  156.5578 C   0  0  0  0  0  0  0  0  0  0  0  0
  150.0063  139.0109  157.2545 C   0  0  0  0  0  0  0  0  0  0  0  0
  151.3375  139.4201  157.8856 C   0  0  0  0  0  0  0  0  0  0  0  0
  152.3617  138.7827  157.6434 O   0  0  0  0  0  0  0  0  0  0  0  0
  151.3070  140.5175  158.6560 N   0  0  0  0  0  0  0  0  0  0  0  0
  152.4690  141.2591  159.1316 C   0  0  2  0  0  0  0  0  0  0  0  0
  153.2395  140.4152  160.1591 C   0  0  0  0  0  0  0  0  0  0  0  0
  152.0002  142.6138  159.7138 C   0  0  1  0  0  0  0  0  0  0  0  0
  153.0999  143.6951  159.8044 C   0  0  0  0  0  0  0  0  0  0  0  0
  152.4392  144.9169  159.1374 C   0  0  1  0  0  0  0  0  0  0  0  0
  152.3787  144.6909  157.6151 C   0  0  0  0  0  0  0  0  0  0  0  0
  151.2778  143.6241  157.4748 C   0  0  0  0  0  0  0  0  0  0  0  0
  150.8778  143.3537  158.9395 C   0  0  2  0  0  0  0  0  0  0  0  0
  150.9776  144.7527  159.5374 C   0  0  0  0  0  0  0  0  0  0  0  0
  150.1780  136.4266  157.3822 C   0  0  0  0  0  0  0  0  0  0  0  0
  150.3155  136.4858  158.6031 O   0  0  0  0  0  0  0  0  0  0  0  0
  150.1434  135.1820  156.7332 N   0  0  0  0  0  0  0  0  0  0  0  0
  149.7456  136.2007  153.6221 H   0  0  0  0  0  0  0  0  0  0  0  0
  149.7811  133.0050  155.3906 H   0  0  0  0  0  0  0  0  0  0  0  0
  150.8831  133.6631  154.1747 H   0  0  0  0  0  0  0  0  0  0  0  0
  149.1322  133.8330  153.9726 H   0  0  0  0  0  0  0  0  0  0  0  0
  148.7956  139.2312  154.4942 H   0  0  0  0  0  0  0  0  0  0  0  0
  149.5983  138.3176  153.2196 H   0  0  0  0  0  0  0  0  0  0  0  0
  150.5501  139.3399  154.2940 H   0  0  0  0  0  0  0  0  0  0  0  0
  149.2446  138.9900  158.0345 H   0  0  0  0  0  0  0  0  0  0  0  0
  149.6864  139.7990  156.5721 H   0  0  0  0  0  0  0  0  0  0  0  0
  150.4075  140.9490  158.8129 H   0  0  0  0  0  0  0  0  0  0  0  0
  153.1384  141.4567  158.2927 H   0  0  0  0  0  0  0  0  0  0  0  0
  154.1253  140.9403  160.5166 H   0  0  0  0  0  0  0  0  0  0  0  0
  153.5723  139.4731  159.7219 H   0  0  0  0  0  0  0  0  0  0  0  0
  152.6205  140.1796  161.0254 H   0  0  0  0  0  0  0  0  0  0  0  0
  151.6226  142.4285  160.7214 H   0  0  0  0  0  0  0  0  0  0  0  0
  153.3453  143.9025  160.8469 H   0  0  0  0  0  0  0  0  0  0  0  0
  154.0235  143.4102  159.2989 H   0  0  0  0  0  0  0  0  0  0  0  0
  152.8923  145.8674  159.4200 H   0  0  0  0  0  0  0  0  0  0  0  0
  152.0933  145.6062  157.0951 H   0  0  0  0  0  0  0  0  0  0  0  0
  153.3340  144.3586  157.2072 H   0  0  0  0  0  0  0  0  0  0  0  0
  150.4294  144.0247  156.9183 H   0  0  0  0  0  0  0  0  0  0  0  0
  151.6177  142.7340  156.9468 H   0  0  0  0  0  0  0  0  0  0  0  0
  149.8953  142.8918  159.0427 H   0  0  0  0  0  0  0  0  0  0  0  0
  150.8182  144.7772  160.6169 H   0  0  0  0  0  0  0  0  0  0  0  0
  150.3133  145.4764  159.0615 H   0  0  0  0  0  0  0  0  0  0  0  0
  1 24  1  0  0  0  0
  1 25  1  0  0  0  0
  1 26  1  0  0  0  0
  1  2  1  0  0  0  0
  2  3  1  0  0  0  0
  2 22  2  0  0  0  0
  3  4  1  0  0  0  0
  3 23  1  0  0  0  0
  4  6  2  0  0  0  0
  4  5  1  0  0  0  0
  5 27  1  0  0  0  0
  5 28  1  0  0  0  0
  5 29  1  0  0  0  0
  6 20  1  0  0  0  0
  6  7  1  0  0  0  0
  7  8  1  0  0  0  0
  7 30  1  0  0  0  0
  7 31  1  0  0  0  0
  8  9  2  0  0  0  0
  8 10  1  0  0  0  0
 10 11  1  0  0  0  0
 10 32  1  0  0  0  0
 11 12  1  0  0  0  0
 11 13  1  0  0  0  0
 11 33  1  0  0  0  0
 12 34  1  0  0  0  0
 12 35  1  0  0  0  0
 12 36  1  0  0  0  0
 13 18  1  0  0  0  0
 13 14  1  0  0  0  0
 13 37  1  0  0  0  0
 14 15  1  0  0  0  0
 14 38  1  0  0  0  0
 14 39  1  0  0  0  0
 15 19  1  0  0  0  0
 15 16  1  0  0  0  0
 15 40  1  0  0  0  0
 16 17  1  0  0  0  0
 16 41  1  0  0  0  0
 16 42  1  0  0  0  0
 17 18  1  0  0  0  0
 17 43  1  0  0  0  0
 17 44  1  0  0  0  0
 18 19  1  0  0  0  0
 18 45  1  0  0  0  0
 19 46  1  0  0  0  0
 19 47  1  0  0  0  0
 20 21  2  0  0  0  0
 20 22  1  0  0  0  0
M  END
> <s_m_source_file>
AV-unprocessed.smi

> <i_m_source_file_index>
2124

> <i_lp_mmshare_version>
43012

> <i_f3d_flags>
0

> <s_epik_input>
W0NIM11jMW5jKFtDSDNdKWMoYyg9TylbbkhdMSlbQ0gyXUMoPU8pW05IXVtDQEhdKFtDSDNdKVtDQEhdKFtDSDJdW0NASF0yMylbQ0BIXShbQ0gyXTMpW0NIMl1bQ0gyXTI=

> <s_epik_cmdline>
J2VwaWtfcHl0aG9uJywgJy1waCcsICc3LjAnLCAnLXRuJywgJzgnLCAnLW1hJywgJzIwMCcsICctbWV0YWxfYmluZGluZycsICctaW1hZScsICc8aW5maWxlLm1hZT4nLCAnLW9tYWUnLCAnPG91dGZpbGUubWFlPic=

> <r_lp_tautomer_probability>
0.156392

> <r_epik_Ionization_Penalty>
0.0139374

> <r_epik_Ionization_Penalty_Charging>
0.0138122

> <r_epik_Ionization_Penalty_Neutral>
0.000125146

> <r_epik_State_Penalty>
1.15342

> <r_epik_Charging_Adjusted_Penalty>
1.16723

> <i_epik_Tot_Q>
0

> <i_epik_Tot_abs_Q>
0

> <r_epik_Metal_State_Penalty>
1.3173

> <b_epik_Metal_Only>
0

> <s_lp_Force_Field>
OPLS_2005

> <r_lp_Energy>
54.2082

> <b_lp_Chiralities_Consistent>
1

> <s_lp_Variant>
AV-unprocessed.smi:2124-15

> <Gold.Version>
5.8.1

> <Gold.Id.Protein>
6NUR|6NUR_protein|mol2

> <Gold.PLP.Fitness>
43.5984

> <Gold.PLP.PLP>
-38.7326

> <Gold.PLP.part.hbond>
-2.0000

> <Gold.PLP.part.metal>
0.0000

> <Gold.PLP.part.buried>
-6.1417

> <Gold.PLP.part.nonpolar>
-31.0807

> <Gold.PLP.part.repulsive>
0.2067

> <Gold.PLP.ligand.clash>
0.0000

> <Gold.PLP.ligand.torsion>
0.5879

> <Gold.PLP.Chemscore.Hbond>
2.0000

> <Gold.PLP.Chemscore.CHOScore>
0.0000

> <Gold.PLP.Chemscore.Metal>
0.0000

> <Gold.Chemscore.Hbonds>
donor molecule, donor type, donor heavy atom, donor atom, acceptor molecule, acceptor atom, score
      L1  H     3    23       P1  7948  1.00
      P1  H  6896  6908       L1    21  0.97

> <Gold.PLP.Chemscore.Internal.Correction>
0.0415

> <Gold.Rescore>
     Score         DG    S(hbond)    S(metal)    S(lipo)     H(rot)  DE(clash)    DE(int)     intcor
     20.39     -21.25       1.83        0.00     118.73       1.65       0.11       0.76       ----

> <Gold.Chemscore.Fitness>
20.3887

> <Gold.Chemscore.DG>
-21.2547

> <Gold.Chemscore.ZeroCoef>
-5.4800

> <Gold.Chemscore.Hbond>
1.8312

> <Gold.Chemscore.Metal>
0.0000

> <Gold.Chemscore.Lipo>
118.7273

> <Gold.Chemscore.Internal_Hbond>
0.0000

> <Gold.Chemscore.DEClash>
0.1057

> <Gold.Chemscore.DEInternal>
0.7603

> <Gold.Chemscore.Rot>
1.6534

> <Gold.Chemscore.Internal.Correction>
   9.000000E+99

> <Gold.Chemscore.Hbonds>
donor molecule, donor type, donor heavy atom, donor atom, acceptor molecule, acceptor atom, score
      L1  H     3    23       P1  7948  0.26
      P1  H  6896  6908       L1    21  0.84

> <Gold.Chemscore.Hbond.Weighted>
-6.1162

> <Gold.Chemscore.Metal.Weighted>
-0.0000

> <Gold.Chemscore.Lipo.Weighted>
-13.8911

> <Gold.Chemscore.Internal_Hbond.Weighted>
0.0000

> <Gold.Chemscore.DEClash.Weighted>
0.1057

> <Gold.Chemscore.DEInternal.Weighted>
0.7603

> <Gold.Chemscore.Rot.Weighted>
4.2326

> <Gold.Chemscore.Internal.Correction.Weighted>
   9.000000E+99

> <Gold.Protein.RotatedTorsions>
[ 6907 6896 6895 6894 ] final -174.12 input  -60.11 | X-H torsion
[ 7974 7965 7964 7962 ] final   91.28 input  175.53 | X-H torsion
[ 8008 7997 7996 7995 ] final  -92.07 input   59.86 | X-H torsion
[ 10167 10162 10161 10158 ] final   94.73 input  -65.29 | X-H torsion
[ 10718 10713 10712 10709 ] final -140.67 input   66.30 | X-H torsion
[ 10763 10752 10751 10750 ] final  101.74 input  -60.55 | X-H torsion
[ 11005 11000 10999 10996 ] final  106.53 input  -57.11 | X-H torsion

> <Gold.Protein.ActiveResidues>
 VAL166  LYS551  ARG553  GLY616  TRP617  ASP618  TYR619  PRO620  LYS621  CYS622 
 ASP623  PHE694  ASN695  SER759  ASP760  ASP761  ALA762  ILE779  LEU786  VAL792 
 PHE793  MET794  SER795  GLU796  ALA797  LYS798  CYS799  TRP800  GLU811  SER814 

> <Gold.Protein.RotatedAtoms>
  151.5671  133.3395  159.2982 H   0  0  0  0  0  0  0  0  0  0  0  0  # atno 6907 bound_to 6896
  150.8389  134.7676  159.6927 H   0  0  0  0  0  0  0  0  0  0  0  0  # atno 6908 bound_to 6896
  152.4460  134.5501  159.9916 H   0  0  0  0  0  0  0  0  0  0  0  0  # atno 6909 bound_to 6896
  145.5078  139.2276  143.2741 H   0  0  0  0  0  0  0  0  0  0  0  0  # atno 7974 bound_to 7965
  154.7186  140.0513  157.0618 H   0  0  0  0  0  0  0  0  0  0  0  0  # atno 8008 bound_to 7997
  155.0458  140.3173  155.4690 H   0  0  0  0  0  0  0  0  0  0  0  0  # atno 8009 bound_to 7997
  156.2810  140.2124  156.5583 H   0  0  0  0  0  0  0  0  0  0  0  0  # atno 8010 bound_to 7997
  139.8055  144.6796  150.9708 H   0  0  0  0  0  0  0  0  0  0  0  0  # atno 10167 bound_to 10162
  156.3251  130.7555  151.1661 H   0  0  0  0  0  0  0  0  0  0  0  0  # atno 10718 bound_to 10713
  153.3306  135.4034  155.1492 H   0  0  0  0  0  0  0  0  0  0  0  0  # atno 10763 bound_to 10752
  154.8622  135.3609  154.5476 H   0  0  0  0  0  0  0  0  0  0  0  0  # atno 10764 bound_to 10752
  153.5914  135.7074  153.5481 H   0  0  0  0  0  0  0  0  0  0  0  0  # atno 10765 bound_to 10752
  139.8815  134.9372  156.5680 H   0  0  0  0  0  0  0  0  0  0  0  0  # atno 11005 bound_to 11000
  146.2186  140.5883  142.9027 LP  0  0  0  0  0  0  0  0  0  0  0  0  # atno 17320 bound_to 7965
  144.7744  140.5708  143.6648 LP  0  0  0  0  0  0  0  0  0  0  0  0  # atno 17321 bound_to 7965
  140.7819  143.4238  151.0801 LP  0  0  0  0  0  0  0  0  0  0  0  0  # atno 17342 bound_to 10162
  139.7907  143.8222  152.3151 LP  0  0  0  0  0  0  0  0  0  0  0  0  # atno 17343 bound_to 10162
  157.7419  131.0497  150.5060 LP  0  0  0  0  0  0  0  0  0  0  0  0  # atno 17370 bound_to 10713
  156.5218  130.4163  149.6247 LP  0  0  0  0  0  0  0  0  0  0  0  0  # atno 17371 bound_to 10713
  140.8120  133.8422  155.8818 LP  0  0  0  0  0  0  0  0  0  0  0  0  # atno 17394 bound_to 11000
  140.9498  134.1794  157.4736 LP  0  0  0  0  0  0  0  0  0  0  0  0  # atno 17395 bound_to 11000

$$$$
