AV-unprocessed.smi:1954|AV-procd|sdf|7895|dock5
  -GOLD-   2272010 53D 1   1.00000     0.00000
 Structure written by MMmdl.
 44 46  0  0  0  0  0  0  0  0  1 V2000
  145.3512  134.6899  154.2058 O   0  0  0  0  0  0  0  0  0  0  0  0
  146.3612  134.9766  153.5626 C   0  0  0  0  0  0  0  0  0  0  0  0
  147.3678  135.7140  154.0530 N   0  0  0  0  0  0  0  0  0  0  0  0
  147.4358  136.2806  155.3997 C   0  0  0  0  0  0  0  0  0  0  0  0
  148.9021  136.4075  155.9320 C   0  0  2  0  0  0  0  0  0  0  0  0
  149.6446  137.4549  155.1646 N   0  0  0  0  0  0  0  0  0  0  0  0
  151.0868  137.5525  155.4323 C   0  0  0  0  0  0  0  0  0  0  0  0
  151.7798  138.5957  154.5396 C   0  0  0  0  0  0  0  0  0  0  0  0
  151.1583  139.8624  154.7084 O   0  0  0  0  0  0  0  0  0  0  0  0
  149.7759  139.8280  154.3823 C   0  0  0  0  0  0  0  0  0  0  0  0
  149.0591  138.7984  155.2718 C   0  0  0  0  0  0  0  0  0  0  0  0
  149.5655  135.0011  155.8590 C   0  0  0  0  0  0  0  0  0  0  0  0
  148.9323  134.0888  156.9147 C   0  0  0  0  0  0  0  0  0  0  0  0
  148.4976  135.1281  158.3287 S   0  0  0  0  0  0  0  0  0  0  0  0
  148.8384  136.6826  157.4565 C   0  0  0  0  0  0  0  0  0  0  0  0
  146.6094  134.6000  152.2960 N   0  0  0  0  0  0  0  0  0  0  0  0
  145.7977  133.8088  151.4402 C   0  0  0  0  0  0  0  0  0  0  0  0
  146.5054  133.0090  150.5144 C   0  0  0  0  0  0  0  0  0  0  0  0
  145.7915  132.1880  149.6200 C   0  0  0  0  0  0  0  0  0  0  0  0
  144.3866  132.1867  149.6753 C   0  0  0  0  0  0  0  0  0  0  0  0
  143.7598  133.0113  150.6278 C   0  0  0  0  0  0  0  0  0  0  0  0
  144.4418  133.7991  151.4856 N   0  0  0  0  0  0  0  0  0  0  0  0
  148.1618  135.8874  153.4541 H   0  0  0  0  0  0  0  0  0  0  0  0
  146.9467  137.2532  155.3691 H   0  0  0  0  0  0  0  0  0  0  0  0
  146.8055  135.7078  156.0796 H   0  0  0  0  0  0  0  0  0  0  0  0
  151.2681  137.8091  156.4753 H   0  0  0  0  0  0  0  0  0  0  0  0
  151.5857  136.6053  155.2418 H   0  0  0  0  0  0  0  0  0  0  0  0
  152.8342  138.6788  154.8038 H   0  0  0  0  0  0  0  0  0  0  0  0
  151.7360  138.2966  153.4911 H   0  0  0  0  0  0  0  0  0  0  0  0
  149.3505  140.8200  154.5340 H   0  0  0  0  0  0  0  0  0  0  0  0
  149.6476  139.5824  153.3270 H   0  0  0  0  0  0  0  0  0  0  0  0
  148.0119  138.7953  154.9782 H   0  0  0  0  0  0  0  0  0  0  0  0
  149.0946  139.1387  156.3073 H   0  0  0  0  0  0  0  0  0  0  0  0
  149.5218  134.5600  154.8635 H   0  0  0  0  0  0  0  0  0  0  0  0
  150.6193  135.0480  156.1243 H   0  0  0  0  0  0  0  0  0  0  0  0
  148.0269  133.6187  156.5309 H   0  0  0  0  0  0  0  0  0  0  0  0
  149.6087  133.2888  157.2166 H   0  0  0  0  0  0  0  0  0  0  0  0
  149.7918  137.0444  157.8381 H   0  0  0  0  0  0  0  0  0  0  0  0
  148.0895  137.4313  157.7163 H   0  0  0  0  0  0  0  0  0  0  0  0
  147.4801  134.9171  151.8965 H   0  0  0  0  0  0  0  0  0  0  0  0
  147.5853  133.0223  150.4851 H   0  0  0  0  0  0  0  0  0  0  0  0
  146.3140  131.5704  148.9045 H   0  0  0  0  0  0  0  0  0  0  0  0
  143.8045  131.5708  149.0060 H   0  0  0  0  0  0  0  0  0  0  0  0
  142.6830  133.0392  150.7039 H   0  0  0  0  0  0  0  0  0  0  0  0
  1  2  2  0  0  0  0
  2  3  1  0  0  0  0
  2 16  1  0  0  0  0
  3  4  1  0  0  0  0
  3 23  1  0  0  0  0
  4  5  1  0  0  0  0
  4 24  1  0  0  0  0
  4 25  1  0  0  0  0
  5 15  1  0  0  0  0
  5  6  1  0  0  0  0
  5 12  1  0  0  0  0
  6 11  1  0  0  0  0
  6  7  1  0  0  0  0
  7  8  1  0  0  0  0
  7 26  1  0  0  0  0
  7 27  1  0  0  0  0
  8  9  1  0  0  0  0
  8 28  1  0  0  0  0
  8 29  1  0  0  0  0
  9 10  1  0  0  0  0
 10 11  1  0  0  0  0
 10 30  1  0  0  0  0
 10 31  1  0  0  0  0
 11 32  1  0  0  0  0
 11 33  1  0  0  0  0
 12 13  1  0  0  0  0
 12 34  1  0  0  0  0
 12 35  1  0  0  0  0
 13 14  1  0  0  0  0
 13 36  1  0  0  0  0
 13 37  1  0  0  0  0
 14 15  1  0  0  0  0
 15 38  1  0  0  0  0
 15 39  1  0  0  0  0
 16 17  1  0  0  0  0
 16 40  1  0  0  0  0
 17 22  1  0  0  0  0
 17 18  2  0  0  0  0
 18 19  1  0  0  0  0
 18 41  1  0  0  0  0
 19 20  2  0  0  0  0
 19 42  1  0  0  0  0
 20 21  1  0  0  0  0
 20 43  1  0  0  0  0
 21 22  2  0  0  0  0
 21 44  1  0  0  0  0
M  END
> <s_m_source_file>
AV-unprocessed.smi

> <i_m_source_file_index>
1954

> <i_lp_mmshare_version>
43012

> <i_f3d_flags>
0

> <s_epik_input>
bjFbY0hdW2NIXVtjSF1bY0hdYzFbTkhdQyg9TylbTkhdW0NIMl1bQ0BdMihbQ0gyXVtDSDJdU1tDSDJdMilOM1tDSDJdW0NIMl1PW0NIMl1bQ0gyXTM=

> <s_epik_cmdline>
J2VwaWtfcHl0aG9uJywgJy1waCcsICc3LjAnLCAnLXRuJywgJzgnLCAnLW1hJywgJzIwMCcsICctbWV0YWxfYmluZGluZycsICctaW1hZScsICc8aW5maWxlLm1hZT4nLCAnLW9tYWUnLCAnPG91dGZpbGUubWFlPic=

> <r_epik_Ionization_Penalty>
0.0195535

> <r_epik_Ionization_Penalty_Charging>
0

> <r_epik_Ionization_Penalty_Neutral>
0.0195535

> <r_epik_State_Penalty>
0.0155843

> <r_epik_Charging_Adjusted_Penalty>
0.0155843

> <i_epik_Tot_Q>
0

> <i_epik_Tot_abs_Q>
0

> <r_epik_Metal_State_Penalty>
0.0155842

> <b_epik_Metal_Only>
0

> <s_lp_Force_Field>
OPLS_2005

> <r_lp_Energy>
55.0934

> <b_lp_Chiralities_Consistent>
1

> <s_lp_Variant>
AV-unprocessed.smi:1954-2

> <Gold.Version>
5.8.1

> <Gold.Id.Protein>
6NUR|6NUR_protein|mol2

> <Gold.PLP.Fitness>
42.5022

> <Gold.PLP.PLP>
-31.4633

> <Gold.PLP.part.hbond>
-3.0000

> <Gold.PLP.part.metal>
0.0000

> <Gold.PLP.part.buried>
-4.8745

> <Gold.PLP.part.nonpolar>
-23.9280

> <Gold.PLP.part.repulsive>
0.4065

> <Gold.PLP.ligand.clash>
0.0000

> <Gold.PLP.ligand.torsion>
0.5149

> <Gold.PLP.Chemscore.Hbond>
3.0000

> <Gold.PLP.Chemscore.CHOScore>
1.0000

> <Gold.PLP.Chemscore.Metal>
0.0000

> <Gold.Chemscore.Hbonds>
donor molecule, donor type, donor heavy atom, donor atom, acceptor molecule, acceptor atom, score
      L1  H     3    23       P1  7948  1.00
      L1  H    16    40       P1  7948  1.00
      P1  H  7989  7998       L1     9  0.90
      L1  C    21    44       P1 10186  1.00

> <Gold.PLP.Chemscore.Internal.Correction>
0.0686

> <Gold.Rescore>
     Score         DG    S(hbond)    S(metal)    S(lipo)     H(rot)  DE(clash)    DE(int)     intcor
     16.32     -17.89       2.12        0.00      78.14       1.49       0.03       1.53       ----

> <Gold.Chemscore.Fitness>
16.3224

> <Gold.Chemscore.DG>
-17.8876

> <Gold.Chemscore.ZeroCoef>
-5.4800

> <Gold.Chemscore.Hbond>
2.1228

> <Gold.Chemscore.Metal>
0.0000

> <Gold.Chemscore.Lipo>
78.1381

> <Gold.Chemscore.Internal_Hbond>
0.0000

> <Gold.Chemscore.DEClash>
0.0330

> <Gold.Chemscore.DEInternal>
1.5322

> <Gold.Chemscore.Rot>
1.4940

> <Gold.Chemscore.Internal.Correction>
   9.000000E+99

> <Gold.Chemscore.Hbonds>
donor molecule, donor type, donor heavy atom, donor atom, acceptor molecule, acceptor atom, score
      L1  H     3    23       P1  7948  0.98
      L1  H    16    40       P1  7948  0.78
      P1  H  7989  7998       L1     9  0.12

> <Gold.Chemscore.Hbond.Weighted>
-7.0900

> <Gold.Chemscore.Metal.Weighted>
-0.0000

> <Gold.Chemscore.Lipo.Weighted>
-9.1422

> <Gold.Chemscore.Internal_Hbond.Weighted>
0.0000

> <Gold.Chemscore.DEClash.Weighted>
0.0330

> <Gold.Chemscore.DEInternal.Weighted>
1.5322

> <Gold.Chemscore.Rot.Weighted>
3.8246

> <Gold.Chemscore.Internal.Correction.Weighted>
   9.000000E+99

> <Gold.Protein.RotatedTorsions>
[ 6907 6896 6895 6894 ] final   89.49 input  -60.11 | X-H torsion
[ 7974 7965 7964 7962 ] final  -45.06 input  175.53 | X-H torsion
[ 8008 7997 7996 7995 ] final -127.88 input   59.86 | X-H torsion
[ 10167 10162 10161 10158 ] final  175.14 input  -65.29 | X-H torsion
[ 10718 10713 10712 10709 ] final -171.62 input   66.30 | X-H torsion
[ 10763 10752 10751 10750 ] final   30.03 input  -60.55 | X-H torsion
[ 11005 11000 10999 10996 ] final    8.55 input  -57.11 | X-H torsion

> <Gold.Protein.ActiveResidues>
 VAL166  LYS551  ARG553  GLY616  TRP617  ASP618  TYR619  PRO620  LYS621  CYS622 
 ASP623  PHE694  ASN695  SER759  ASP760  ASP761  ALA762  ILE779  LEU786  VAL792 
 PHE793  MET794  SER795  GLU796  ALA797  LYS798  CYS799  TRP800  GLU811  SER814 

> <Gold.Protein.RotatedAtoms>
  152.5436  134.1958  159.8691 H   0  0  0  0  0  0  0  0  0  0  0  0  # atno 6907 bound_to 6896
  151.1950  133.4637  159.2603 H   0  0  0  0  0  0  0  0  0  0  0  0  # atno 6908 bound_to 6896
  151.1045  135.0004  159.8520 H   0  0  0  0  0  0  0  0  0  0  0  0  # atno 6909 bound_to 6896
  145.9858  140.7234  142.9341 H   0  0  0  0  0  0  0  0  0  0  0  0  # atno 7974 bound_to 7965
  155.2535  140.0433  157.2989 H   0  0  0  0  0  0  0  0  0  0  0  0  # atno 8008 bound_to 7997
  154.5754  140.2386  155.8099 H   0  0  0  0  0  0  0  0  0  0  0  0  # atno 8009 bound_to 7997
  156.2154  140.2986  155.9836 H   0  0  0  0  0  0  0  0  0  0  0  0  # atno 8010 bound_to 7997
  139.5167  144.3065  152.0330 H   0  0  0  0  0  0  0  0  0  0  0  0  # atno 10167 bound_to 10162
  156.7436  130.9351  151.3111 H   0  0  0  0  0  0  0  0  0  0  0  0  # atno 10718 bound_to 10713
  153.0395  135.6474  154.0982 H   0  0  0  0  0  0  0  0  0  0  0  0  # atno 10763 bound_to 10752
  154.0691  135.2882  155.3313 H   0  0  0  0  0  0  0  0  0  0  0  0  # atno 10764 bound_to 10752
  154.6606  135.5393  153.8078 H   0  0  0  0  0  0  0  0  0  0  0  0  # atno 10765 bound_to 10752
  140.5358  134.0422  155.7888 H   0  0  0  0  0  0  0  0  0  0  0  0  # atno 11005 bound_to 11000
  144.6874  140.2986  143.7267 LP  0  0  0  0  0  0  0  0  0  0  0  0  # atno 17320 bound_to 7965
  145.7703  139.1855  143.2216 LP  0  0  0  0  0  0  0  0  0  0  0  0  # atno 17321 bound_to 7965
  140.2511  144.4168  150.6221 LP  0  0  0  0  0  0  0  0  0  0  0  0  # atno 17342 bound_to 10162
  140.6224  143.2177  151.6667 LP  0  0  0  0  0  0  0  0  0  0  0  0  # atno 17343 bound_to 10162
  157.6808  130.9138  150.0262 LP  0  0  0  0  0  0  0  0  0  0  0  0  # atno 17370 bound_to 10713
  156.1448  130.3642  149.9527 LP  0  0  0  0  0  0  0  0  0  0  0  0  # atno 17371 bound_to 10713
  141.1256  133.9389  157.2643 LP  0  0  0  0  0  0  0  0  0  0  0  0  # atno 17394 bound_to 11000
  139.9530  135.0171  156.9048 LP  0  0  0  0  0  0  0  0  0  0  0  0  # atno 17395 bound_to 11000

$$$$
