AV-unprocessed.smi:1638|AV-procd|sdf|6546|dock6
  -GOLD-   22720 7233D 1   1.00000     0.00000
 Structure written by MMmdl.
 41 42  0  0  0  0  0  0  0  0  2 V2000
  153.4811  137.7184  156.8044 C   0  0  0  0  0  0  0  0  0  0  0  0
  152.5115  138.3880  155.8916 C   0  0  0  0  0  0  0  0  0  0  0  0
  152.4933  139.7125  155.6994 N   0  0  0  0  0  0  0  0  0  0  0  0
  151.5010  140.1016  154.8105 N   0  0  0  0  0  0  0  0  0  0  0  0
  150.7965  139.0550  154.3585 C   0  0  0  0  0  0  0  0  0  0  0  0
  149.7166  139.1678  153.4429 N   0  0  0  0  0  0  0  0  0  0  0  0
  148.4480  138.7489  153.5974 C   0  0  0  0  0  0  0  0  0  0  0  0
  147.9919  138.2099  154.6062 O   0  0  0  0  0  0  0  0  0  0  0  0
  147.7145  138.9962  152.5022 N   0  0  0  0  0  0  0  0  0  0  0  0
  146.3043  138.6538  152.3542 C   0  0  0  0  0  0  0  0  0  0  0  0
  146.0887  137.6352  151.2172 C   0  0  0  0  0  0  0  0  0  0  0  0
  146.2363  136.2241  151.6649 N   0  3  0  0  0  0  0  0  0  0  0  0
  145.5945  135.2613  150.7310 C   0  0  0  0  0  0  0  0  0  0  0  0
  146.4623  134.0025  150.5595 C   0  0  0  0  0  0  0  0  0  0  0  0
  146.3546  132.9914  151.7094 C   0  0  0  0  0  0  0  0  0  0  0  0
  146.6835  133.5707  153.0936 C   0  0  0  0  0  0  0  0  0  0  0  0
  145.6341  134.5897  153.5630 C   0  0  0  0  0  0  0  0  0  0  0  0
  145.8803  136.0407  153.1022 C   0  0  0  0  0  0  0  0  0  0  0  0
  151.2952  137.4939  154.9875 S   0  0  0  0  0  0  0  0  0  0  0  0
  154.3280  138.3733  157.0123 H   0  0  0  0  0  0  0  0  0  0  0  0
  153.8543  136.8017  156.3481 H   0  0  0  0  0  0  0  0  0  0  0  0
  152.9926  137.4680  157.7460 H   0  0  0  0  0  0  0  0  0  0  0  0
  149.9409  139.6089  152.5632 H   0  0  0  0  0  0  0  0  0  0  0  0
  148.1641  139.4405  151.7148 H   0  0  0  0  0  0  0  0  0  0  0  0
  145.9543  138.2368  153.2989 H   0  0  0  0  0  0  0  0  0  0  0  0
  145.7354  139.5692  152.1878 H   0  0  0  0  0  0  0  0  0  0  0  0
  145.1087  137.7657  150.7556 H   0  0  0  0  0  0  0  0  0  0  0  0
  146.8262  137.8511  150.4429 H   0  0  0  0  0  0  0  0  0  0  0  0
  144.5735  135.0244  151.0332 H   0  0  0  0  0  0  0  0  0  0  0  0
  145.5041  135.7127  149.7425 H   0  0  0  0  0  0  0  0  0  0  0  0
  146.1630  133.4966  149.6409 H   0  0  0  0  0  0  0  0  0  0  0  0
  147.5045  134.2892  150.4119 H   0  0  0  0  0  0  0  0  0  0  0  0
  145.3521  132.5617  151.7236 H   0  0  0  0  0  0  0  0  0  0  0  0
  147.0303  132.1600  151.5055 H   0  0  0  0  0  0  0  0  0  0  0  0
  146.7020  132.7441  153.8049 H   0  0  0  0  0  0  0  0  0  0  0  0
  147.6839  134.0051  153.1110 H   0  0  0  0  0  0  0  0  0  0  0  0
  144.6372  134.2607  153.2673 H   0  0  0  0  0  0  0  0  0  0  0  0
  145.6160  134.5916  154.6534 H   0  0  0  0  0  0  0  0  0  0  0  0
  146.6887  136.4562  153.7037 H   0  0  0  0  0  0  0  0  0  0  0  0
  144.9902  136.6275  153.3351 H   0  0  0  0  0  0  0  0  0  0  0  0
  147.2235  136.0230  151.5940 H   0  0  0  0  0  0  0  0  0  0  0  0
  1  2  1  0  0  0  0
  1 20  1  0  0  0  0
  1 21  1  0  0  0  0
  1 22  1  0  0  0  0
  2 19  1  0  0  0  0
  2  3  2  0  0  0  0
  3  4  1  0  0  0  0
  4  5  2  0  0  0  0
  5  6  1  0  0  0  0
  5 19  1  0  0  0  0
  6  7  1  0  0  0  0
  6 23  1  0  0  0  0
  7  8  2  0  0  0  0
  7  9  1  0  0  0  0
  9 10  1  0  0  0  0
  9 24  1  0  0  0  0
 10 11  1  0  0  0  0
 10 25  1  0  0  0  0
 10 26  1  0  0  0  0
 11 12  1  0  0  0  0
 11 27  1  0  0  0  0
 11 28  1  0  0  0  0
 12 18  1  0  0  0  0
 12 13  1  0  0  0  0
 12 41  1  0  0  0  0
 13 14  1  0  0  0  0
 13 29  1  0  0  0  0
 13 30  1  0  0  0  0
 14 15  1  0  0  0  0
 14 31  1  0  0  0  0
 14 32  1  0  0  0  0
 15 16  1  0  0  0  0
 15 33  1  0  0  0  0
 15 34  1  0  0  0  0
 16 17  1  0  0  0  0
 16 35  1  0  0  0  0
 16 36  1  0  0  0  0
 17 18  1  0  0  0  0
 17 37  1  0  0  0  0
 17 38  1  0  0  0  0
 18 39  1  0  0  0  0
 18 40  1  0  0  0  0
M  CHG  1  12   1
M  END
> <s_m_source_file>
AV-unprocessed.smi

> <i_m_source_file_index>
1638

> <i_lp_mmshare_version>
43012

> <i_f3d_flags>
0

> <s_epik_input>
W0NIM11jMW5uYyhzMSlbTkhdQyg9TylbTkhdW0NIMl1bQ0gyXU4yW0NIMl1bQ0gyXVtDSDJdW0NIMl1bQ0gyXVtDSDJdMg==

> <s_epik_cmdline>
J2VwaWtfcHl0aG9uJywgJy1waCcsICc3LjAnLCAnLXRuJywgJzgnLCAnLW1hJywgJzIwMCcsICctbWV0YWxfYmluZGluZycsICctaW1hZScsICc8aW5maWxlLm1hZT4nLCAnLW9tYWUnLCAnPG91dGZpbGUubWFlPic=

> <r_lp_tautomer_probability>
1

> <r_epik_Ionization_Penalty>
0.00683162

> <r_epik_Ionization_Penalty_Charging>
0.00256589

> <r_epik_Ionization_Penalty_Neutral>
0.00426573

> <r_epik_State_Penalty>
0.0020046

> <r_epik_Charging_Adjusted_Penalty>
0.00457048

> <i_epik_Tot_Q>
1

> <i_epik_Tot_abs_Q>
1

> <r_epik_Metal_State_Penalty>
0.375345

> <b_epik_Metal_Only>
0

> <s_lp_Force_Field>
OPLS_2005

> <r_lp_Energy>
20.2813

> <b_lp_Chiralities_Consistent>
1

> <s_lp_Variant>
AV-unprocessed.smi:1638-1

> <Gold.Version>
5.8.1

> <Gold.Id.Protein>
6NUR|6NUR_protein|mol2

> <Gold.PLP.Fitness>
45.3307

> <Gold.PLP.PLP>
-29.2305

> <Gold.PLP.part.hbond>
-5.9077

> <Gold.PLP.part.metal>
0.0000

> <Gold.PLP.part.buried>
0.3269

> <Gold.PLP.part.nonpolar>
-23.7036

> <Gold.PLP.part.repulsive>
0.4136

> <Gold.PLP.ligand.clash>
0.0000

> <Gold.PLP.ligand.torsion>
0.9765

> <Gold.PLP.Chemscore.Hbond>
6.0000

> <Gold.PLP.Chemscore.CHOScore>
0.0000

> <Gold.PLP.Chemscore.Metal>
0.0000

> <Gold.Chemscore.Hbonds>
donor molecule, donor type, donor heavy atom, donor atom, acceptor molecule, acceptor atom, score
      L1  H     6    23       P1  7957  0.91
      L1  H     9    24       P1  7957  0.91
      L1  H    12    41       P1  7948  2.00
      P1  H  7989  7998       L1     4  0.93
      P1  H  7997  8008       L1     3  1.00

> <Gold.PLP.Chemscore.Internal.Correction>
0.0533

> <Gold.Rescore>
     Score         DG    S(hbond)    S(metal)    S(lipo)     H(rot)  DE(clash)    DE(int)     intcor
     20.29     -21.67       4.07        0.00      57.13       1.60       0.52       0.86       ----

> <Gold.Chemscore.Fitness>
20.2894

> <Gold.Chemscore.DG>
-21.6679

> <Gold.Chemscore.ZeroCoef>
-5.4800

> <Gold.Chemscore.Hbond>
4.0698

> <Gold.Chemscore.Metal>
0.0000

> <Gold.Chemscore.Lipo>
57.1303

> <Gold.Chemscore.Internal_Hbond>
0.0000

> <Gold.Chemscore.DEClash>
0.5177

> <Gold.Chemscore.DEInternal>
0.8608

> <Gold.Chemscore.Rot>
1.5975

> <Gold.Chemscore.Internal.Correction>
   9.000000E+99

> <Gold.Chemscore.Hbonds>
donor molecule, donor type, donor heavy atom, donor atom, acceptor molecule, acceptor atom, score
      L1  H     6    23       P1  7957  0.84
      L1  H     9    24       P1  7957  0.89
      L1  H    12    41       P1  7948  0.99
      P1  H  7989  7998       L1     4  0.19
      P1  H  7997  8008       L1     3  0.25

> <Gold.Chemscore.Hbond.Weighted>
-13.5932

> <Gold.Chemscore.Metal.Weighted>
-0.0000

> <Gold.Chemscore.Lipo.Weighted>
-6.6842

> <Gold.Chemscore.Internal_Hbond.Weighted>
0.0000

> <Gold.Chemscore.DEClash.Weighted>
0.5177

> <Gold.Chemscore.DEInternal.Weighted>
0.8608

> <Gold.Chemscore.Rot.Weighted>
4.0896

> <Gold.Chemscore.Internal.Correction.Weighted>
   9.000000E+99

> <Gold.Protein.RotatedTorsions>
[ 6907 6896 6895 6894 ] final   52.89 input  -60.11 | X-H torsion
[ 7974 7965 7964 7962 ] final -114.04 input  175.53 | X-H torsion
[ 8008 7997 7996 7995 ] final  -32.78 input   59.86 | X-H torsion
[ 10167 10162 10161 10158 ] final  -10.47 input  -65.29 | X-H torsion
[ 10718 10713 10712 10709 ] final  -89.40 input   66.30 | X-H torsion
[ 10763 10752 10751 10750 ] final -134.02 input  -60.55 | X-H torsion
[ 11005 11000 10999 10996 ] final -119.89 input  -57.11 | X-H torsion

> <Gold.Protein.ActiveResidues>
 VAL166  LYS551  ARG553  GLY616  TRP617  ASP618  TYR619  PRO620  LYS621  CYS622 
 ASP623  PHE694  ASN695  SER759  ASP760  ASP761  ALA762  ILE779  LEU786  VAL792 
 PHE793  MET794  SER795  GLU796  ALA797  LYS798  CYS799  TRP800  GLU811  SER814 

> <Gold.Protein.RotatedAtoms>
  152.3280  134.7296  160.0296 H   0  0  0  0  0  0  0  0  0  0  0  0  # atno 6907 bound_to 6896
  151.7722  133.3337  159.3456 H   0  0  0  0  0  0  0  0  0  0  0  0  # atno 6908 bound_to 6896
  150.7406  134.5939  159.6046 H   0  0  0  0  0  0  0  0  0  0  0  0  # atno 6909 bound_to 6896
  145.1248  140.8690  143.3792 H   0  0  0  0  0  0  0  0  0  0  0  0  # atno 7974 bound_to 7965
  154.4169  140.1728  156.1782 H   0  0  0  0  0  0  0  0  0  0  0  0  # atno 8008 bound_to 7997
  155.9704  140.3386  155.6547 H   0  0  0  0  0  0  0  0  0  0  0  0  # atno 8009 bound_to 7997
  155.6632  140.0703  157.2537 H   0  0  0  0  0  0  0  0  0  0  0  0  # atno 8010 bound_to 7997
  140.7114  143.5745  150.9057 H   0  0  0  0  0  0  0  0  0  0  0  0  # atno 10167 bound_to 10162
  155.9984  130.4871  150.5165 H   0  0  0  0  0  0  0  0  0  0  0  0  # atno 10718 bound_to 10713
  154.8725  135.3747  154.4668 H   0  0  0  0  0  0  0  0  0  0  0  0  # atno 10763 bound_to 10752
  153.5332  135.7027  153.5678 H   0  0  0  0  0  0  0  0  0  0  0  0  # atno 10764 bound_to 10752
  153.3873  135.3981  155.1864 H   0  0  0  0  0  0  0  0  0  0  0  0  # atno 10765 bound_to 10752
  141.0183  134.0163  157.3319 H   0  0  0  0  0  0  0  0  0  0  0  0  # atno 11005 bound_to 11000
  145.0700  139.3039  143.5837 LP  0  0  0  0  0  0  0  0  0  0  0  0  # atno 17320 bound_to 7965
  146.3518  140.0171  142.8662 LP  0  0  0  0  0  0  0  0  0  0  0  0  # atno 17321 bound_to 7965
  139.9471  143.6315  152.3039 LP  0  0  0  0  0  0  0  0  0  0  0  0  # atno 17342 bound_to 10162
  139.6820  144.7655  151.1591 LP  0  0  0  0  0  0  0  0  0  0  0  0  # atno 17343 bound_to 10162
  157.3132  131.0667  151.1986 LP  0  0  0  0  0  0  0  0  0  0  0  0  # atno 17370 bound_to 10713
  157.2925  130.6803  149.6121 LP  0  0  0  0  0  0  0  0  0  0  0  0  # atno 17371 bound_to 10713
  139.9130  135.0193  156.7769 LP  0  0  0  0  0  0  0  0  0  0  0  0  # atno 17394 bound_to 11000
  140.6617  133.9639  155.7808 LP  0  0  0  0  0  0  0  0  0  0  0  0  # atno 17395 bound_to 11000

$$$$
