AV-unprocessed.smi:1550|AV-procd|sdf|6228|dock9
  -GOLD-   22720 6403D 1   1.00000     0.00000
 Structure written by MMmdl.
 42 43  0  0  0  0  0  0  0  0  2 V2000
  150.4142  138.4951  153.7964 C   0  0  0  0  0  0  0  0  0  0  0  0
  151.1270  138.2624  155.1369 C   0  0  2  0  0  0  0  0  0  0  0  0
  150.3187  137.3762  155.9063 O   0  0  0  0  0  0  0  0  0  0  0  0
  149.8940  136.1976  155.2308 C   0  0  0  0  0  0  0  0  0  0  0  0
  149.2535  135.2482  156.2514 C   0  0  2  0  0  0  0  0  0  0  0  0
  149.0806  133.8257  155.6835 C   0  0  0  0  0  0  0  0  0  0  0  0
  148.3592  132.9263  156.6938 C   0  0  0  0  0  0  0  0  0  0  0  0
  147.0495  133.5895  157.1329 C   0  0  0  0  0  0  0  0  0  0  0  0
  147.3160  135.0223  157.6200 C   0  0  0  0  0  0  0  0  0  0  0  0
  147.9695  135.7657  156.5960 O   0  0  0  0  0  0  0  0  0  0  0  0
  151.3389  139.5822  155.8963 C   0  0  0  0  0  0  0  0  0  0  0  0
  151.0991  140.6483  155.3302 O   0  0  0  0  0  0  0  0  0  0  0  0
  151.7542  139.4505  157.1716 N   0  0  0  0  0  0  0  0  0  0  0  0
  152.0333  140.4332  158.1375 C   0  0  0  0  0  0  0  0  0  0  0  0
  151.9636  141.7779  157.9310 C   0  0  0  0  0  0  0  0  0  0  0  0
  152.2711  142.7451  158.9771 C   0  0  0  0  0  0  0  0  0  0  0  0
  152.2731  144.2483  158.7609 C   0  0  0  0  0  0  0  0  0  0  0  0
  152.5229  144.8971  159.8985 F   0  0  0  0  0  0  0  0  0  0  0  0
  153.1949  144.6008  157.8646 F   0  0  0  0  0  0  0  0  0  0  0  0
  151.0831  144.6431  158.3105 F   0  0  0  0  0  0  0  0  0  0  0  0
  152.6622  142.1380  160.1543 C   0  0  0  0  0  0  0  0  0  0  0  0
  152.7512  140.8213  160.4436 N   0  5  0  0  0  0  0  0  0  0  0  0
  152.4486  139.9256  159.4618 C   0  0  0  0  0  0  0  0  0  0  0  0
  152.5135  138.7111  159.6566 O   0  0  0  0  0  0  0  0  0  0  0  0
  150.9749  139.1854  153.1649 H   0  0  0  0  0  0  0  0  0  0  0  0
  149.4135  138.9052  153.9382 H   0  0  0  0  0  0  0  0  0  0  0  0
  150.3098  137.5589  153.2478 H   0  0  0  0  0  0  0  0  0  0  0  0
  152.0903  137.7905  154.9318 H   0  0  0  0  0  0  0  0  0  0  0  0
  149.1853  136.4408  154.4377 H   0  0  0  0  0  0  0  0  0  0  0  0
  150.7476  135.7030  154.7662 H   0  0  0  0  0  0  0  0  0  0  0  0
  149.8847  135.2069  157.1409 H   0  0  0  0  0  0  0  0  0  0  0  0
  148.5079  133.8659  154.7560 H   0  0  0  0  0  0  0  0  0  0  0  0
  150.0514  133.3970  155.4323 H   0  0  0  0  0  0  0  0  0  0  0  0
  148.1632  131.9450  156.2604 H   0  0  0  0  0  0  0  0  0  0  0  0
  148.9985  132.7653  157.5628 H   0  0  0  0  0  0  0  0  0  0  0  0
  146.3513  133.6145  156.2952 H   0  0  0  0  0  0  0  0  0  0  0  0
  146.5746  133.0038  157.9204 H   0  0  0  0  0  0  0  0  0  0  0  0
  146.3758  135.5152  157.8681 H   0  0  0  0  0  0  0  0  0  0  0  0
  147.9227  135.0198  158.5267 H   0  0  0  0  0  0  0  0  0  0  0  0
  151.8547  138.5038  157.5080 H   0  0  0  0  0  0  0  0  0  0  0  0
  151.6843  142.1805  156.9721 H   0  0  0  0  0  0  0  0  0  0  0  0
  152.9475  142.8120  160.9900 H   0  0  0  0  0  0  0  0  0  0  0  0
  1  2  1  0  0  0  0
  1 25  1  0  0  0  0
  1 26  1  0  0  0  0
  1 27  1  0  0  0  0
  2  3  1  0  0  0  0
  2 11  1  0  0  0  0
  2 28  1  0  0  0  0
  3  4  1  0  0  0  0
  4  5  1  0  0  0  0
  4 29  1  0  0  0  0
  4 30  1  0  0  0  0
  5 10  1  0  0  0  0
  5  6  1  0  0  0  0
  5 31  1  0  0  0  0
  6  7  1  0  0  0  0
  6 32  1  0  0  0  0
  6 33  1  0  0  0  0
  7  8  1  0  0  0  0
  7 34  1  0  0  0  0
  7 35  1  0  0  0  0
  8  9  1  0  0  0  0
  8 36  1  0  0  0  0
  8 37  1  0  0  0  0
  9 10  1  0  0  0  0
  9 38  1  0  0  0  0
  9 39  1  0  0  0  0
 11 12  2  0  0  0  0
 11 13  1  0  0  0  0
 13 14  1  0  0  0  0
 13 40  1  0  0  0  0
 14 23  1  0  0  0  0
 14 15  2  0  0  0  0
 15 16  1  0  0  0  0
 15 41  1  0  0  0  0
 16 17  1  0  0  0  0
 16 21  2  0  0  0  0
 17 18  1  0  0  0  0
 17 19  1  0  0  0  0
 17 20  1  0  0  0  0
 21 22  1  0  0  0  0
 21 42  1  0  0  0  0
 22 23  1  0  0  0  0
 23 24  2  0  0  0  0
M  CHG  1  22  -1
M  END
> <s_m_source_file>
AV-unprocessed.smi

> <i_m_source_file_index>
1550

> <i_lp_mmshare_version>
43012

> <i_f3d_flags>
0

> <s_epik_input>
TzFbQ0gyXVtDSDJdW0NIMl1bQ0gyXVtDQEhdMVtDSDJdT1tDQEBIXShbQ0gzXSlDKD1PKVtOSF1jMltjSF1jKEMoRikoRilGKVtjSF1bbkhdYzI9Tw==

> <s_epik_cmdline>
J2VwaWtfcHl0aG9uJywgJy1waCcsICc3LjAnLCAnLXRuJywgJzgnLCAnLW1hJywgJzIwMCcsICctbWV0YWxfYmluZGluZycsICctaW1hZScsICc8aW5maWxlLm1hZT4nLCAnLW9tYWUnLCAnPG91dGZpbGUubWFlPic=

> <r_epik_Ionization_Penalty>
2.54933

> <r_epik_Ionization_Penalty_Charging>
0.0583423

> <r_epik_Ionization_Penalty_Neutral>
2.49099

> <r_epik_State_Penalty>
2.65532

> <r_epik_Charging_Adjusted_Penalty>
2.71366

> <i_epik_Tot_Q>
-1

> <i_epik_Tot_abs_Q>
1

> <r_epik_Metal_State_Penalty>
0.516364

> <b_epik_Metal_Only>
0

> <s_lp_Force_Field>
OPLS_2005

> <r_lp_Energy>
27.7019

> <b_lp_Chiralities_Consistent>
1

> <s_lp_Variant>
AV-unprocessed.smi:1550-5

> <Gold.Version>
5.8.1

> <Gold.Id.Protein>
6NUR|6NUR_protein|mol2

> <Gold.PLP.Fitness>
46.2359

> <Gold.PLP.PLP>
-44.2972

> <Gold.PLP.part.hbond>
-1.0000

> <Gold.PLP.part.metal>
0.0000

> <Gold.PLP.part.buried>
-6.7794

> <Gold.PLP.part.nonpolar>
-36.3637

> <Gold.PLP.part.repulsive>
0.1835

> <Gold.PLP.ligand.clash>
0.0000

> <Gold.PLP.ligand.torsion>
0.4462

> <Gold.PLP.Chemscore.Hbond>
0.9120

> <Gold.PLP.Chemscore.CHOScore>
0.0000

> <Gold.PLP.Chemscore.Metal>
0.0000

> <Gold.Chemscore.Hbonds>
donor molecule, donor type, donor heavy atom, donor atom, acceptor molecule, acceptor atom, score
      P1  H  7989  7998       L1    12  0.86

> <Gold.PLP.Chemscore.Internal.Correction>
0.0950

> <Gold.Rescore>
     Score         DG    S(hbond)    S(metal)    S(lipo)     H(rot)  DE(clash)    DE(int)     intcor
     12.44     -14.08       0.90        0.00      87.68       1.82       0.03       1.60       ----

> <Gold.Chemscore.Fitness>
12.4447

> <Gold.Chemscore.DG>
-14.0762

> <Gold.Chemscore.ZeroCoef>
-5.4800

> <Gold.Chemscore.Hbond>
0.9002

> <Gold.Chemscore.Metal>
0.0000

> <Gold.Chemscore.Lipo>
87.6753

> <Gold.Chemscore.Internal_Hbond>
0.0000

> <Gold.Chemscore.DEClash>
0.0347

> <Gold.Chemscore.DEInternal>
1.5968

> <Gold.Chemscore.Rot>
1.8236

> <Gold.Chemscore.Internal.Correction>
   9.000000E+99

> <Gold.Chemscore.Hbonds>
donor molecule, donor type, donor heavy atom, donor atom, acceptor molecule, acceptor atom, score
      P1  H  7989  7998       L1    12  0.83

> <Gold.Chemscore.Hbond.Weighted>
-3.0066

> <Gold.Chemscore.Metal.Weighted>
-0.0000

> <Gold.Chemscore.Lipo.Weighted>
-10.2580

> <Gold.Chemscore.Internal_Hbond.Weighted>
0.0000

> <Gold.Chemscore.DEClash.Weighted>
0.0347

> <Gold.Chemscore.DEInternal.Weighted>
1.5968

> <Gold.Chemscore.Rot.Weighted>
4.6684

> <Gold.Chemscore.Internal.Correction.Weighted>
   9.000000E+99

> <Gold.Protein.RotatedTorsions>
[ 6907 6896 6895 6894 ] final  -99.47 input  -60.11 | X-H torsion
[ 7974 7965 7964 7962 ] final  173.43 input  175.53 | X-H torsion
[ 8008 7997 7996 7995 ] final  -29.00 input   59.86 | X-H torsion
[ 10167 10162 10161 10158 ] final -149.50 input  -65.29 | X-H torsion
[ 10718 10713 10712 10709 ] final    9.88 input   66.30 | X-H torsion
[ 10763 10752 10751 10750 ] final  -49.22 input  -60.55 | X-H torsion
[ 11005 11000 10999 10996 ] final -161.80 input  -57.11 | X-H torsion

> <Gold.Protein.ActiveResidues>
 VAL166  LYS551  ARG553  GLY616  TRP617  ASP618  TYR619  PRO620  LYS621  CYS622 
 ASP623  PHE694  ASN695  SER759  ASP760  ASP761  ALA762  ILE779  LEU786  VAL792 
 PHE793  MET794  SER795  GLU796  ALA797  LYS798  CYS799  TRP800  GLU811  SER814 

> <Gold.Protein.RotatedAtoms>
  150.7081  134.1036  159.3974 H   0  0  0  0  0  0  0  0  0  0  0  0  # atno 6907 bound_to 6896
  151.9022  135.0371  160.0516 H   0  0  0  0  0  0  0  0  0  0  0  0  # atno 6908 bound_to 6896
  152.2404  133.5096  159.5304 H   0  0  0  0  0  0  0  0  0  0  0  0  # atno 6909 bound_to 6896
  144.7244  139.9647  143.6435 H   0  0  0  0  0  0  0  0  0  0  0  0  # atno 7974 bound_to 7965
  154.4308  140.1830  156.1179 H   0  0  0  0  0  0  0  0  0  0  0  0  # atno 8008 bound_to 7997
  156.0166  140.3345  155.6970 H   0  0  0  0  0  0  0  0  0  0  0  0  # atno 8009 bound_to 7997
  155.6035  140.0643  157.2717 H   0  0  0  0  0  0  0  0  0  0  0  0  # atno 8010 bound_to 7997
  139.7437  143.8624  152.2569 H   0  0  0  0  0  0  0  0  0  0  0  0  # atno 10167 bound_to 10162
  156.9728  130.5975  149.5670 H   0  0  0  0  0  0  0  0  0  0  0  0  # atno 10718 bound_to 10713
  154.0905  135.6578  153.4852 H   0  0  0  0  0  0  0  0  0  0  0  0  # atno 10763 bound_to 10752
  153.0323  135.5201  154.7385 H   0  0  0  0  0  0  0  0  0  0  0  0  # atno 10764 bound_to 10752
  154.6507  135.3001  154.9958 H   0  0  0  0  0  0  0  0  0  0  0  0  # atno 10765 bound_to 10752
  140.6164  134.4796  157.5220 H   0  0  0  0  0  0  0  0  0  0  0  0  # atno 11005 bound_to 11000
  146.0610  139.3603  143.0581 LP  0  0  0  0  0  0  0  0  0  0  0  0  # atno 17320 bound_to 7965
  145.8093  140.9734  143.0957 LP  0  0  0  0  0  0  0  0  0  0  0  0  # atno 17321 bound_to 7965
  139.8581  144.7131  150.9132 LP  0  0  0  0  0  0  0  0  0  0  0  0  # atno 17342 bound_to 10162
  140.7789  143.3841  151.1425 LP  0  0  0  0  0  0  0  0  0  0  0  0  # atno 17343 bound_to 10162
  156.0276  130.5369  150.8448 LP  0  0  0  0  0  0  0  0  0  0  0  0  # atno 17370 bound_to 10713
  157.5581  131.0945  150.9599 LP  0  0  0  0  0  0  0  0  0  0  0  0  # atno 17371 bound_to 10713
  139.9171  134.8224  156.1330 LP  0  0  0  0  0  0  0  0  0  0  0  0  # atno 17394 bound_to 11000
  141.0773  133.6770  156.2262 LP  0  0  0  0  0  0  0  0  0  0  0  0  # atno 17395 bound_to 11000

$$$$
