AV-unprocessed.smi:271|AV-procd|sdf|2050|dock4
  -GOLD-   2262021283D 1   1.00000     0.00000
 Structure written by MMmdl.
 58 60  0  0  0  0  0  0  0  0  1 V2000
  154.1906  141.1783  160.9790 C   0  0  0  0  0  0  0  0  0  0  0  0
  153.3244  142.3622  160.5220 C   0  0  0  0  0  0  0  0  0  0  0  0
  152.6915  143.0635  161.7360 C   0  0  0  0  0  0  0  0  0  0  0  0
  152.2687  141.9020  159.4976 C   0  0  0  0  0  0  0  0  0  0  0  0
  151.3783  143.0466  158.9697 C   0  0  0  0  0  0  0  0  0  0  0  0
  150.1491  142.5845  158.3249 N   0  0  0  0  0  0  0  0  0  0  0  0
  150.3120  142.1337  156.9444 C   0  0  0  0  0  0  0  0  0  0  0  0
  151.3001  140.9653  156.7976 C   0  0  0  0  0  0  0  0  0  0  0  0
  151.1528  140.2670  155.5123 C   0  0  0  0  0  0  0  0  0  0  0  0
  151.0364  139.7177  154.5009 N   0  0  0  0  0  0  0  0  0  0  0  0
  149.1019  143.4259  158.4820 C   0  0  0  0  0  0  0  0  0  0  0  0
  149.1668  144.3090  159.5086 N   0  0  0  0  0  0  0  0  0  0  0  0
  148.1659  145.1708  159.7107 C   0  0  0  0  0  0  0  0  0  0  0  0
  147.0351  145.3142  159.0163 N   0  0  0  0  0  0  0  0  0  0  0  0
  146.9683  144.4276  157.9816 C   0  0  0  0  0  0  0  0  0  0  0  0
  147.9481  143.4511  157.6487 C   0  0  0  0  0  0  0  0  0  0  0  0
  147.5329  142.7199  156.5432 N   0  0  0  0  0  0  0  0  0  0  0  0
  146.3743  143.2367  156.2383 C   0  0  0  0  0  0  0  0  0  0  0  0
  145.9646  144.2805  157.0384 N   0  0  0  0  0  0  0  0  0  0  0  0
  144.7271  145.0400  156.9232 C   0  0  0  0  0  0  0  0  0  0  0  0
  144.7255  146.0956  155.7827 C   0  0  1  0  0  0  0  0  0  0  0  0
  144.9755  145.4559  154.3963 C   0  0  0  0  0  0  0  0  0  0  0  0
  144.1191  144.3519  154.1909 O   0  0  0  0  0  0  0  0  0  0  0  0
  143.4403  146.9651  155.7810 C   0  0  2  0  0  0  0  0  0  0  0  0
  142.1494  146.2042  155.5258 C   0  0  0  0  0  0  0  0  0  0  0  0
  141.1876  147.3078  155.0938 C   0  0  0  0  0  0  0  0  0  0  0  0
  141.9932  148.3225  154.5042 O   0  0  0  0  0  0  0  0  0  0  0  0
  143.3688  147.9878  154.6420 C   0  0  0  0  0  0  0  0  0  0  0  0
  153.5895  140.4161  161.4757 H   0  0  0  0  0  0  0  0  0  0  0  0
  154.9624  141.5013  161.6785 H   0  0  0  0  0  0  0  0  0  0  0  0
  154.6928  140.7071  160.1334 H   0  0  0  0  0  0  0  0  0  0  0  0
  153.9861  143.0760  160.0294 H   0  0  0  0  0  0  0  0  0  0  0  0
  151.9891  142.4073  162.2511 H   0  0  0  0  0  0  0  0  0  0  0  0
  152.1541  143.9658  161.4460 H   0  0  0  0  0  0  0  0  0  0  0  0
  153.4541  143.3627  162.4558 H   0  0  0  0  0  0  0  0  0  0  0  0
  152.7742  141.4427  158.6470 H   0  0  0  0  0  0  0  0  0  0  0  0
  151.6585  141.1173  159.9470 H   0  0  0  0  0  0  0  0  0  0  0  0
  151.1239  143.7357  159.7747 H   0  0  0  0  0  0  0  0  0  0  0  0
  151.9466  143.6265  158.2415 H   0  0  0  0  0  0  0  0  0  0  0  0
  149.3419  141.8550  156.5307 H   0  0  0  0  0  0  0  0  0  0  0  0
  150.6696  142.9736  156.3479 H   0  0  0  0  0  0  0  0  0  0  0  0
  152.3274  141.3239  156.8656 H   0  0  0  0  0  0  0  0  0  0  0  0
  151.1589  140.2260  157.5863 H   0  0  0  0  0  0  0  0  0  0  0  0
  148.2893  145.8430  160.5471 H   0  0  0  0  0  0  0  0  0  0  0  0
  145.7881  142.8685  155.4098 H   0  0  0  0  0  0  0  0  0  0  0  0
  143.9057  144.3351  156.7949 H   0  0  0  0  0  0  0  0  0  0  0  0
  144.5385  145.5275  157.8804 H   0  0  0  0  0  0  0  0  0  0  0  0
  145.5618  146.7687  155.9780 H   0  0  0  0  0  0  0  0  0  0  0  0
  144.8413  146.1800  153.5926 H   0  0  0  0  0  0  0  0  0  0  0  0
  145.9953  145.0822  154.3142 H   0  0  0  0  0  0  0  0  0  0  0  0
  143.7919  144.3851  153.3051 H   0  0  0  0  0  0  0  0  0  0  0  0
  143.3413  147.4863  156.7342 H   0  0  0  0  0  0  0  0  0  0  0  0
  142.2836  145.4895  154.7125 H   0  0  0  0  0  0  0  0  0  0  0  0
  141.7859  145.6619  156.3990 H   0  0  0  0  0  0  0  0  0  0  0  0
  140.4313  146.9458  154.3972 H   0  0  0  0  0  0  0  0  0  0  0  0
  140.6765  147.7312  155.9592 H   0  0  0  0  0  0  0  0  0  0  0  0
  143.9673  148.8789  154.8276 H   0  0  0  0  0  0  0  0  0  0  0  0
  143.7101  147.5450  153.7050 H   0  0  0  0  0  0  0  0  0  0  0  0
  1  2  1  0  0  0  0
  1 29  1  0  0  0  0
  1 30  1  0  0  0  0
  1 31  1  0  0  0  0
  2  3  1  0  0  0  0
  2  4  1  0  0  0  0
  2 32  1  0  0  0  0
  3 33  1  0  0  0  0
  3 34  1  0  0  0  0
  3 35  1  0  0  0  0
  4  5  1  0  0  0  0
  4 36  1  0  0  0  0
  4 37  1  0  0  0  0
  5  6  1  0  0  0  0
  5 38  1  0  0  0  0
  5 39  1  0  0  0  0
  6  7  1  0  0  0  0
  6 11  1  0  0  0  0
  7  8  1  0  0  0  0
  7 40  1  0  0  0  0
  7 41  1  0  0  0  0
  8  9  1  0  0  0  0
  8 42  1  0  0  0  0
  8 43  1  0  0  0  0
  9 10  3  0  0  0  0
 11 16  1  0  0  0  0
 11 12  2  0  0  0  0
 12 13  1  0  0  0  0
 13 14  2  0  0  0  0
 13 44  1  0  0  0  0
 14 15  1  0  0  0  0
 15 19  1  0  0  0  0
 15 16  2  0  0  0  0
 16 17  1  0  0  0  0
 17 18  2  0  0  0  0
 18 19  1  0  0  0  0
 18 45  1  0  0  0  0
 19 20  1  0  0  0  0
 20 21  1  0  0  0  0
 20 46  1  0  0  0  0
 20 47  1  0  0  0  0
 21 22  1  0  0  0  0
 21 24  1  0  0  0  0
 21 48  1  0  0  0  0
 22 23  1  0  0  0  0
 22 49  1  0  0  0  0
 22 50  1  0  0  0  0
 23 51  1  0  0  0  0
 24 28  1  0  0  0  0
 24 25  1  0  0  0  0
 24 52  1  0  0  0  0
 25 26  1  0  0  0  0
 25 53  1  0  0  0  0
 25 54  1  0  0  0  0
 26 27  1  0  0  0  0
 26 55  1  0  0  0  0
 26 56  1  0  0  0  0
 27 28  1  0  0  0  0
 28 57  1  0  0  0  0
 28 58  1  0  0  0  0
M  END
> <s_m_source_file>
AV-unprocessed.smi

> <i_m_source_file_index>
271

> <i_lp_mmshare_version>
43012

> <i_f3d_flags>
0

> <s_epik_input>
W0NIM11bQ0hdKFtDSDNdKVtDSDJdW0NIMl1OKFtDSDJdW0NIMl1DI04pYyhuW2NIXW4xKWMoYzEyKW5bY0hdbjJbQ0gyXVtDQEhdKFtDSDJdW09IXSlbQ0BASF0zW0NIMl1bQ0gyXU9bQ0gyXTM=

> <s_epik_cmdline>
J2VwaWtfcHl0aG9uJywgJy1waCcsICc3LjAnLCAnLXRuJywgJzgnLCAnLW1hJywgJzIwMCcsICctbWV0YWxfYmluZGluZycsICctaW1hZScsICc8aW5maWxlLm1hZT4nLCAnLW9tYWUnLCAnPG91dGZpbGUubWFlPic=

> <r_lp_tautomer_probability>
1

> <r_epik_Ionization_Penalty>
0.000825874

> <r_epik_Ionization_Penalty_Charging>
0

> <r_epik_Ionization_Penalty_Neutral>
0.000825874

> <r_epik_State_Penalty>
0.000396768

> <r_epik_Charging_Adjusted_Penalty>
0.000396768

> <i_epik_Tot_Q>
0

> <i_epik_Tot_abs_Q>
0

> <r_epik_Metal_State_Penalty>
-0

> <b_epik_Metal_Only>
0

> <s_lp_Force_Field>
OPLS_2005

> <r_lp_Energy>
35.3128

> <b_lp_Chiralities_Consistent>
1

> <s_lp_Variant>
AV-unprocessed.smi:271-2

> <Gold.Version>
5.8.1

> <Gold.Id.Protein>
6NUR|6NUR_protein|mol2

> <Gold.PLP.Fitness>
46.6132

> <Gold.PLP.PLP>
-41.3160

> <Gold.PLP.part.hbond>
-3.0000

> <Gold.PLP.part.metal>
0.0000

> <Gold.PLP.part.buried>
-2.9304

> <Gold.PLP.part.nonpolar>
-35.1782

> <Gold.PLP.part.repulsive>
1.1784

> <Gold.PLP.ligand.clash>
0.0000

> <Gold.PLP.ligand.torsion>
1.4911

> <Gold.PLP.Chemscore.Hbond>
2.4690

> <Gold.PLP.Chemscore.CHOScore>
0.0000

> <Gold.PLP.Chemscore.Metal>
0.0000

> <Gold.Chemscore.Hbonds>
donor molecule, donor type, donor heavy atom, donor atom, acceptor molecule, acceptor atom, score
      P1  H  7989  7998       L1    10  1.00

> <Gold.PLP.Chemscore.Internal.Correction>
0.8722

> <Gold.Rescore>
     Score         DG    S(hbond)    S(metal)    S(lipo)     H(rot)  DE(clash)    DE(int)     intcor
      9.84     -12.85       1.87        0.00      92.16       3.77       0.08       2.94       ----

> <Gold.Chemscore.Fitness>
9.8373

> <Gold.Chemscore.DG>
-12.8537

> <Gold.Chemscore.ZeroCoef>
-5.4800

> <Gold.Chemscore.Hbond>
1.8675

> <Gold.Chemscore.Metal>
0.0000

> <Gold.Chemscore.Lipo>
92.1638

> <Gold.Chemscore.Internal_Hbond>
0.0000

> <Gold.Chemscore.DEClash>
0.0795

> <Gold.Chemscore.DEInternal>
2.9369

> <Gold.Chemscore.Rot>
3.7683

> <Gold.Chemscore.Internal.Correction>
   9.000000E+99

> <Gold.Chemscore.Hbonds>
donor molecule, donor type, donor heavy atom, donor atom, acceptor molecule, acceptor atom, score
      L1  H    23    51       P1 10174  0.01
      P1  H  7989  7998       L1    10  0.25

> <Gold.Chemscore.Hbond.Weighted>
-6.2373

> <Gold.Chemscore.Metal.Weighted>
-0.0000

> <Gold.Chemscore.Lipo.Weighted>
-10.7832

> <Gold.Chemscore.Internal_Hbond.Weighted>
0.0000

> <Gold.Chemscore.DEClash.Weighted>
0.0795

> <Gold.Chemscore.DEInternal.Weighted>
2.9369

> <Gold.Chemscore.Rot.Weighted>
9.6468

> <Gold.Chemscore.Internal.Correction.Weighted>
   9.000000E+99

> <Gold.Protein.RotatedTorsions>
[ 6907 6896 6895 6894 ] final   35.27 input  -60.11 | X-H torsion
[ 7974 7965 7964 7962 ] final -118.00 input  175.53 | X-H torsion
[ 8008 7997 7996 7995 ] final  -63.46 input   59.86 | X-H torsion
[ 10167 10162 10161 10158 ] final    3.18 input  -65.29 | X-H torsion
[ 10718 10713 10712 10709 ] final  -46.98 input   66.30 | X-H torsion
[ 10763 10752 10751 10750 ] final   -0.32 input  -60.55 | X-H torsion
[ 11005 11000 10999 10996 ] final  -14.87 input  -57.11 | X-H torsion

> <Gold.Protein.ActiveResidues>
 VAL166  LYS551  ARG553  GLY616  TRP617  ASP618  TYR619  PRO620  LYS621  CYS622 
 ASP623  PHE694  ASN695  SER759  ASP760  ASP761  ALA762  ILE779  LEU786  VAL792 
 PHE793  MET794  SER795  GLU796  ALA797  LYS798  CYS799  TRP800  GLU811  SER814 

> <Gold.Protein.RotatedAtoms>
  152.1139  134.9254  160.0565 H   0  0  0  0  0  0  0  0  0  0  0  0  # atno 6907 bound_to 6896
  152.0421  133.3977  159.4349 H   0  0  0  0  0  0  0  0  0  0  0  0  # atno 6908 bound_to 6896
  150.6845  134.3323  159.4876 H   0  0  0  0  0  0  0  0  0  0  0  0  # atno 6909 bound_to 6896
  145.0788  140.8411  143.4051 H   0  0  0  0  0  0  0  0  0  0  0  0  # atno 7974 bound_to 7965
  154.4556  140.0974  156.6746 H   0  0  0  0  0  0  0  0  0  0  0  0  # atno 8008 bound_to 7997
  155.5150  140.3477  155.4377 H   0  0  0  0  0  0  0  0  0  0  0  0  # atno 8009 bound_to 7997
  156.0770  140.1363  156.9748 H   0  0  0  0  0  0  0  0  0  0  0  0  # atno 8010 bound_to 7997
  140.6598  143.7333  150.7719 H   0  0  0  0  0  0  0  0  0  0  0  0  # atno 10167 bound_to 10162
  156.2129  130.4161  149.9091 H   0  0  0  0  0  0  0  0  0  0  0  0  # atno 10718 bound_to 10713
  153.3304  135.6975  153.6952 H   0  0  0  0  0  0  0  0  0  0  0  0  # atno 10763 bound_to 10752
  153.5757  135.3507  155.2856 H   0  0  0  0  0  0  0  0  0  0  0  0  # atno 10764 bound_to 10752
  154.8617  135.4283  154.2492 H   0  0  0  0  0  0  0  0  0  0  0  0  # atno 10765 bound_to 10752
  140.7908  133.8289  155.9378 H   0  0  0  0  0  0  0  0  0  0  0  0  # atno 11005 bound_to 11000
  145.1203  139.2698  143.5592 LP  0  0  0  0  0  0  0  0  0  0  0  0  # atno 17320 bound_to 7965
  146.3530  140.0825  142.8617 LP  0  0  0  0  0  0  0  0  0  0  0  0  # atno 17321 bound_to 7965
  140.0999  143.4797  152.2431 LP  0  0  0  0  0  0  0  0  0  0  0  0  # atno 17342 bound_to 10162
  139.5829  144.7518  151.3593 LP  0  0  0  0  0  0  0  0  0  0  0  0  # atno 17343 bound_to 10162
  156.6763  130.8840  151.3569 LP  0  0  0  0  0  0  0  0  0  0  0  0  # atno 17370 bound_to 10713
  157.7048  130.9373  150.0896 LP  0  0  0  0  0  0  0  0  0  0  0  0  # atno 17371 bound_to 10713
  140.9391  134.1924  157.4810 LP  0  0  0  0  0  0  0  0  0  0  0  0  # atno 17394 bound_to 11000
  139.8731  134.9864  156.5324 LP  0  0  0  0  0  0  0  0  0  0  0  0  # atno 17395 bound_to 11000

$$$$
