AV-unprocessed.smi:3244|AV-procd|sdf|12398|dock1
  -GOLD-   2272018273D 1   1.00000     0.00000
 Structure written by MMmdl.
 41 42  0  0  0  0  0  0  0  0  2 V2000
  155.4594  140.3450  160.9057 C   0  0  0  0  0  0  0  0  0  0  0  0
  154.6949  141.4458  160.1522 C   0  0  0  0  0  0  0  0  0  0  0  0
  153.3040  141.0588  159.8717 N   0  0  0  0  0  0  0  0  0  0  0  0
  152.9649  140.0795  158.9952 C   0  0  0  0  0  0  0  0  0  0  0  0
  153.7975  139.3063  158.5178 O   0  0  0  0  0  0  0  0  0  0  0  0
  151.4958  139.9375  158.5616 C   0  0  0  0  0  0  0  0  0  0  0  0
  151.3347  140.0227  157.0937 N   0  3  0  0  0  0  0  0  0  0  0  0
  149.9394  139.9742  156.5999 C   0  0  2  0  0  0  0  0  0  0  0  0
  149.2205  138.7110  157.1021 C   0  0  0  0  0  0  0  0  0  0  0  0
  149.9182  140.0419  155.0601 C   0  0  0  0  0  0  0  0  0  0  0  0
  148.6364  140.4904  154.5446 N   0  0  0  0  0  0  0  0  0  0  0  0
  148.0494  141.7320  154.6686 C   0  0  0  0  0  0  0  0  0  0  0  0
  146.8521  141.6821  154.0139 C   0  0  0  0  0  0  0  0  0  0  0  0
  146.7935  140.3509  153.5151 C   0  0  0  0  0  0  0  0  0  0  0  0
  147.8639  139.6407  153.8330 N   0  0  0  0  0  0  0  0  0  0  0  0
  152.3420  141.9602  160.4514 C   0  0  0  0  0  0  0  0  0  0  0  0
  152.3920  143.4267  160.0772 C   0  0  0  0  0  0  0  0  0  0  0  0
  152.7571  143.0022  161.4761 C   0  0  0  0  0  0  0  0  0  0  0  0
  156.4869  140.6540  161.0983 H   0  0  0  0  0  0  0  0  0  0  0  0
  155.4982  139.4251  160.3215 H   0  0  0  0  0  0  0  0  0  0  0  0
  155.0030  140.1068  161.8654 H   0  0  0  0  0  0  0  0  0  0  0  0
  154.7408  142.3823  160.7080 H   0  0  0  0  0  0  0  0  0  0  0  0
  155.2172  141.6551  159.2178 H   0  0  0  0  0  0  0  0  0  0  0  0
  151.0930  138.9873  158.9068 H   0  0  0  0  0  0  0  0  0  0  0  0
  150.9182  140.7369  159.0271 H   0  0  0  0  0  0  0  0  0  0  0  0
  151.7241  140.9101  156.8060 H   0  0  0  0  0  0  0  0  0  0  0  0
  149.4081  140.8486  156.9790 H   0  0  0  0  0  0  0  0  0  0  0  0
  148.1987  138.6676  156.7242 H   0  0  0  0  0  0  0  0  0  0  0  0
  149.1599  138.6849  158.1899 H   0  0  0  0  0  0  0  0  0  0  0  0
  149.7327  137.8060  156.7739 H   0  0  0  0  0  0  0  0  0  0  0  0
  150.7021  140.7044  154.6892 H   0  0  0  0  0  0  0  0  0  0  0  0
  150.1208  139.0562  154.6386 H   0  0  0  0  0  0  0  0  0  0  0  0
  148.5268  142.5389  155.2050 H   0  0  0  0  0  0  0  0  0  0  0  0
  146.1270  142.4757  153.9085 H   0  0  0  0  0  0  0  0  0  0  0  0
  146.0113  139.8832  152.9350 H   0  0  0  0  0  0  0  0  0  0  0  0
  151.3472  141.5418  160.5923 H   0  0  0  0  0  0  0  0  0  0  0  0
  153.2018  143.7621  159.4319 H   0  0  0  0  0  0  0  0  0  0  0  0
  151.4434  143.9414  159.9388 H   0  0  0  0  0  0  0  0  0  0  0  0
  152.0503  143.2324  162.2708 H   0  0  0  0  0  0  0  0  0  0  0  0
  153.8065  143.0870  161.7509 H   0  0  0  0  0  0  0  0  0  0  0  0
  151.8719  139.2888  156.6546 H   0  0  0  0  0  0  0  0  0  0  0  0
  1  2  1  0  0  0  0
  1 19  1  0  0  0  0
  1 20  1  0  0  0  0
  1 21  1  0  0  0  0
  2  3  1  0  0  0  0
  2 22  1  0  0  0  0
  2 23  1  0  0  0  0
  3  4  1  0  0  0  0
  3 16  1  0  0  0  0
  4  5  2  0  0  0  0
  4  6  1  0  0  0  0
  6  7  1  0  0  0  0
  6 24  1  0  0  0  0
  6 25  1  0  0  0  0
  7  8  1  0  0  0  0
  7 26  1  0  0  0  0
  7 41  1  0  0  0  0
  8  9  1  0  0  0  0
  8 10  1  0  0  0  0
  8 27  1  0  0  0  0
  9 28  1  0  0  0  0
  9 29  1  0  0  0  0
  9 30  1  0  0  0  0
 10 11  1  0  0  0  0
 10 31  1  0  0  0  0
 10 32  1  0  0  0  0
 11 15  1  0  0  0  0
 11 12  1  0  0  0  0
 12 13  2  0  0  0  0
 12 33  1  0  0  0  0
 13 14  1  0  0  0  0
 13 34  1  0  0  0  0
 14 15  2  0  0  0  0
 14 35  1  0  0  0  0
 16 18  1  0  0  0  0
 16 17  1  0  0  0  0
 16 36  1  0  0  0  0
 17 18  1  0  0  0  0
 17 37  1  0  0  0  0
 17 38  1  0  0  0  0
 18 39  1  0  0  0  0
 18 40  1  0  0  0  0
M  CHG  1   7   1
M  END
> <s_m_source_file>
AV-unprocessed.smi

> <i_m_source_file_index>
3244

> <i_lp_mmshare_version>
43012

> <i_f3d_flags>
0

> <s_epik_input>
W0NIMl0xW0NIMl1bQ0hdMU4oW0NIMl1bQ0gzXSlDKD1PKVtDSDJdW05IXVtDQEhdKFtDSDNdKVtDSDJdbjJbY0hdW2NIXVtjSF1uMg==

> <s_epik_cmdline>
J2VwaWtfcHl0aG9uJywgJy1waCcsICc3LjAnLCAnLXRuJywgJzgnLCAnLW1hJywgJzIwMCcsICctbWV0YWxfYmluZGluZycsICctaW1hZScsICc8aW5maWxlLm1hZT4nLCAnLW9tYWUnLCAnPG91dGZpbGUubWFlPic=

> <r_lp_tautomer_probability>
1

> <r_epik_Ionization_Penalty>
0.115625

> <r_epik_Ionization_Penalty_Charging>
0.115622

> <r_epik_Ionization_Penalty_Neutral>
3.43793e-06

> <r_epik_State_Penalty>
0.105255

> <r_epik_Charging_Adjusted_Penalty>
0.220877

> <i_epik_Tot_Q>
1

> <i_epik_Tot_abs_Q>
1

> <r_epik_Metal_State_Penalty>
0.105264

> <b_epik_Metal_Only>
0

> <s_lp_Force_Field>
OPLS_2005

> <r_lp_Energy>
33.3923

> <b_lp_Chiralities_Consistent>
1

> <s_lp_Variant>
AV-unprocessed.smi:3244-1

> <Gold.Version>
5.8.1

> <Gold.Id.Protein>
6NUR|6NUR_protein|mol2

> <Gold.PLP.Fitness>
45.5982

> <Gold.PLP.PLP>
-36.9933

> <Gold.PLP.part.hbond>
-1.0000

> <Gold.PLP.part.metal>
0.0000

> <Gold.PLP.part.buried>
-4.8341

> <Gold.PLP.part.nonpolar>
-33.2603

> <Gold.PLP.part.repulsive>
0.8662

> <Gold.PLP.ligand.clash>
0.0000

> <Gold.PLP.ligand.torsion>
0.4159

> <Gold.PLP.Chemscore.Hbond>
1.0000

> <Gold.PLP.Chemscore.CHOScore>
2.0000

> <Gold.PLP.Chemscore.Metal>
0.0000

> <Gold.Chemscore.Hbonds>
donor molecule, donor type, donor heavy atom, donor atom, acceptor molecule, acceptor atom, score
      P1  H  7997  8009       L1     5  1.00
      L1  C    12    33       P1  8028  1.00
      L1  C    14    35       P1 10175  1.00

> <Gold.PLP.Chemscore.Internal.Correction>
0.4367

> <Gold.Rescore>
     Score         DG    S(hbond)    S(metal)    S(lipo)     H(rot)  DE(clash)    DE(int)     intcor
     13.20     -13.93       0.97        0.00      89.20       2.04       0.02       0.71       ----

> <Gold.Chemscore.Fitness>
13.2027

> <Gold.Chemscore.DG>
-13.9342

> <Gold.Chemscore.ZeroCoef>
-5.4800

> <Gold.Chemscore.Hbond>
0.9730

> <Gold.Chemscore.Metal>
0.0000

> <Gold.Chemscore.Lipo>
89.2042

> <Gold.Chemscore.Internal_Hbond>
0.0000

> <Gold.Chemscore.DEClash>
0.0180

> <Gold.Chemscore.DEInternal>
0.7135

> <Gold.Chemscore.Rot>
2.0440

> <Gold.Chemscore.Internal.Correction>
   9.000000E+99

> <Gold.Chemscore.Hbonds>
donor molecule, donor type, donor heavy atom, donor atom, acceptor molecule, acceptor atom, score
      P1  H  7997  8009       L1     5  0.91

> <Gold.Chemscore.Hbond.Weighted>
-3.2499

> <Gold.Chemscore.Metal.Weighted>
-0.0000

> <Gold.Chemscore.Lipo.Weighted>
-10.4369

> <Gold.Chemscore.Internal_Hbond.Weighted>
0.0000

> <Gold.Chemscore.DEClash.Weighted>
0.0180

> <Gold.Chemscore.DEInternal.Weighted>
0.7135

> <Gold.Chemscore.Rot.Weighted>
5.2325

> <Gold.Chemscore.Internal.Correction.Weighted>
   9.000000E+99

> <Gold.Protein.RotatedTorsions>
[ 6907 6896 6895 6894 ] final  164.00 input  -60.11 | X-H torsion
[ 7974 7965 7964 7962 ] final -138.09 input  175.53 | X-H torsion
[ 8008 7997 7996 7995 ] final  134.96 input   59.86 | X-H torsion
[ 10167 10162 10161 10158 ] final   71.10 input  -65.29 | X-H torsion
[ 10718 10713 10712 10709 ] final  154.09 input   66.30 | X-H torsion
[ 10763 10752 10751 10750 ] final -128.81 input  -60.55 | X-H torsion
[ 11005 11000 10999 10996 ] final   20.63 input  -57.11 | X-H torsion

> <Gold.Protein.ActiveResidues>
 VAL166  LYS551  ARG553  GLY616  TRP617  ASP618  TYR619  PRO620  LYS621  CYS622 
 ASP623  PHE694  ASN695  SER759  ASP760  ASP761  ALA762  ILE779  LEU786  VAL792 
 PHE793  MET794  SER795  GLU796  ALA797  LYS798  CYS799  TRP800  GLU811  SER814 

> <Gold.Protein.RotatedAtoms>
  151.9166  133.3575  159.3882 H   0  0  0  0  0  0  0  0  0  0  0  0  # atno 6907 bound_to 6896
  150.7046  134.4677  159.5420 H   0  0  0  0  0  0  0  0  0  0  0  0  # atno 6908 bound_to 6896
  152.2293  134.8337  160.0526 H   0  0  0  0  0  0  0  0  0  0  0  0  # atno 6909 bound_to 6896
  144.8787  140.6476  143.5220 H   0  0  0  0  0  0  0  0  0  0  0  0  # atno 7974 bound_to 7965
  156.3001  140.2483  156.3502 H   0  0  0  0  0  0  0  0  0  0  0  0  # atno 8008 bound_to 7997
  154.8973  140.0407  157.1892 H   0  0  0  0  0  0  0  0  0  0  0  0  # atno 8009 bound_to 7997
  154.8537  140.2910  155.5586 H   0  0  0  0  0  0  0  0  0  0  0  0  # atno 8010 bound_to 7997
  140.0497  144.5321  150.7372 H   0  0  0  0  0  0  0  0  0  0  0  0  # atno 10167 bound_to 10162
  157.2362  131.0749  151.1821 H   0  0  0  0  0  0  0  0  0  0  0  0  # atno 10718 bound_to 10713
  154.8757  135.3916  154.3817 H   0  0  0  0  0  0  0  0  0  0  0  0  # atno 10763 bound_to 10752
  153.4563  135.7029  153.6083 H   0  0  0  0  0  0  0  0  0  0  0  0  # atno 10764 bound_to 10752
  153.4600  135.3814  155.2301 H   0  0  0  0  0  0  0  0  0  0  0  0  # atno 10765 bound_to 10752
  140.4005  134.1723  155.7664 H   0  0  0  0  0  0  0  0  0  0  0  0  # atno 11005 bound_to 11000
  145.3994  139.1601  143.4186 LP  0  0  0  0  0  0  0  0  0  0  0  0  # atno 17320 bound_to 7965
  146.2980  140.4089  142.8714 LP  0  0  0  0  0  0  0  0  0  0  0  0  # atno 17321 bound_to 7965
  140.7222  143.2600  151.4240 LP  0  0  0  0  0  0  0  0  0  0  0  0  # atno 17342 bound_to 10162
  139.5961  144.1395  152.2145 LP  0  0  0  0  0  0  0  0  0  0  0  0  # atno 17343 bound_to 10162
  157.3426  130.7041  149.6391 LP  0  0  0  0  0  0  0  0  0  0  0  0  # atno 17370 bound_to 10713
  155.9672  130.4275  150.4748 LP  0  0  0  0  0  0  0  0  0  0  0  0  # atno 17371 bound_to 10713
  141.1858  133.8315  157.1090 LP  0  0  0  0  0  0  0  0  0  0  0  0  # atno 17394 bound_to 11000
  140.0340  134.9887  157.0834 LP  0  0  0  0  0  0  0  0  0  0  0  0  # atno 17395 bound_to 11000

$$$$
