AV-unprocessed.smi:1175|AV-procd|sdf|4950|dock2
  -GOLD-   22720 3543D 1   1.00000     0.00000
 Structure written by MMmdl.
 36 37  0  0  0  0  0  0  0  0  1 V2000
  154.7744  139.5018  158.8923 O   0  0  0  0  0  0  0  0  0  0  0  0
  155.0149  140.3487  159.7542 C   0  0  0  0  0  0  0  0  0  0  0  0
  153.9133  140.8537  160.6975 C   0  0  0  0  0  0  0  0  0  0  0  0
  152.8054  141.5265  159.9984 N   0  0  0  0  0  0  0  0  0  0  0  0
  152.2069  140.8304  158.9298 C   0  0  0  0  0  0  0  0  0  0  0  0
  151.1912  141.3350  158.2032 C   0  0  0  0  0  0  0  0  0  0  0  0
  150.5237  140.5338  157.0962 C   0  0  0  0  0  0  0  0  0  0  0  0
  149.5384  141.2294  156.5277 F   0  0  0  0  0  0  0  0  0  0  0  0
  151.4166  140.2330  156.1539 F   0  0  0  0  0  0  0  0  0  0  0  0
  150.0154  139.3934  157.5652 F   0  0  0  0  0  0  0  0  0  0  0  0
  150.7061  142.6438  158.5953 C   0  0  0  0  0  0  0  0  0  0  0  0
  151.2572  143.3166  159.6244 C   0  0  0  0  0  0  0  0  0  0  0  0
  152.3720  142.7605  160.3950 C   0  0  0  0  0  0  0  0  0  0  0  0
  152.8829  143.3647  161.3384 O   0  0  0  0  0  0  0  0  0  0  0  0
  156.2278  140.8949  159.9264 N   0  0  0  0  0  0  0  0  0  0  0  0
  157.4143  140.5626  159.1453 C   0  0  0  0  0  0  0  0  0  0  0  0
  158.5989  141.4906  159.4733 C   0  0  2  0  0  0  0  0  0  0  0  0
  159.2515  142.1397  158.2685 C   0  0  0  0  0  0  0  0  0  0  0  0
  160.6052  142.5559  158.8344 C   0  0  0  0  0  0  0  0  0  0  0  0
  160.9314  141.5778  159.8174 O   0  0  0  0  0  0  0  0  0  0  0  0
  159.7912  140.7735  160.1063 C   0  0  0  0  0  0  0  0  0  0  0  0
  153.5355  140.0159  161.2866 H   0  0  0  0  0  0  0  0  0  0  0  0
  154.3686  141.5286  161.4237 H   0  0  0  0  0  0  0  0  0  0  0  0
  152.6213  139.8497  158.7456 H   0  0  0  0  0  0  0  0  0  0  0  0
  149.8883  143.0947  158.0527 H   0  0  0  0  0  0  0  0  0  0  0  0
  150.8703  144.2901  159.8878 H   0  0  0  0  0  0  0  0  0  0  0  0
  156.3398  141.5855  160.6548 H   0  0  0  0  0  0  0  0  0  0  0  0
  157.6925  139.5209  159.3148 H   0  0  0  0  0  0  0  0  0  0  0  0
  157.1557  140.6423  158.0890 H   0  0  0  0  0  0  0  0  0  0  0  0
  158.2706  142.2769  160.1555 H   0  0  0  0  0  0  0  0  0  0  0  0
  159.3882  141.4108  157.4683 H   0  0  0  0  0  0  0  0  0  0  0  0
  158.6823  142.9809  157.8715 H   0  0  0  0  0  0  0  0  0  0  0  0
  161.3758  142.6233  158.0662 H   0  0  0  0  0  0  0  0  0  0  0  0
  160.5293  143.5272  159.3247 H   0  0  0  0  0  0  0  0  0  0  0  0
  159.6676  140.6297  161.1800 H   0  0  0  0  0  0  0  0  0  0  0  0
  159.9415  139.7938  159.6506 H   0  0  0  0  0  0  0  0  0  0  0  0
  1  2  2  0  0  0  0
  2  3  1  0  0  0  0
  2 15  1  0  0  0  0
  3  4  1  0  0  0  0
  3 22  1  0  0  0  0
  3 23  1  0  0  0  0
  4 13  1  0  0  0  0
  4  5  1  0  0  0  0
  5  6  2  0  0  0  0
  5 24  1  0  0  0  0
  6  7  1  0  0  0  0
  6 11  1  0  0  0  0
  7  8  1  0  0  0  0
  7  9  1  0  0  0  0
  7 10  1  0  0  0  0
 11 12  2  0  0  0  0
 11 25  1  0  0  0  0
 12 13  1  0  0  0  0
 12 26  1  0  0  0  0
 13 14  2  0  0  0  0
 15 16  1  0  0  0  0
 15 27  1  0  0  0  0
 16 17  1  0  0  0  0
 16 28  1  0  0  0  0
 16 29  1  0  0  0  0
 17 21  1  0  0  0  0
 17 18  1  0  0  0  0
 17 30  1  0  0  0  0
 18 19  1  0  0  0  0
 18 31  1  0  0  0  0
 18 32  1  0  0  0  0
 19 20  1  0  0  0  0
 19 33  1  0  0  0  0
 19 34  1  0  0  0  0
 20 21  1  0  0  0  0
 21 35  1  0  0  0  0
 21 36  1  0  0  0  0
M  END
> <s_m_source_file>
AV-unprocessed.smi

> <i_m_source_file_index>
1175

> <i_lp_mmshare_version>
43012

> <i_f3d_flags>
0

> <s_epik_input>
W0NIMl0xT1tDSDJdW0NIMl1bQ0BIXTFbQ0gyXVtOSF1DKD1PKVtDSDJdbjJbY0hdYyhDKEYpKEYpRilbY0hdW2NIXWMyPU8=

> <s_epik_cmdline>
J2VwaWtfcHl0aG9uJywgJy1waCcsICc3LjAnLCAnLXRuJywgJzgnLCAnLW1hJywgJzIwMCcsICctbWV0YWxfYmluZGluZycsICctaW1hZScsICc8aW5maWxlLm1hZT4nLCAnLW9tYWUnLCAnPG91dGZpbGUubWFlPic=

> <r_lp_tautomer_probability>
1

> <r_epik_Ionization_Penalty>
3.67963e-08

> <r_epik_Ionization_Penalty_Charging>
1.809e-08

> <r_epik_Ionization_Penalty_Neutral>
1.87063e-08

> <r_epik_State_Penalty>
-0

> <r_epik_Charging_Adjusted_Penalty>
1.809e-08

> <i_epik_Tot_Q>
0

> <i_epik_Tot_abs_Q>
0

> <r_epik_Metal_State_Penalty>
-0

> <b_epik_Metal_Only>
0

> <s_lp_Force_Field>
OPLS_2005

> <r_lp_Energy>
30.0254

> <b_lp_Chiralities_Consistent>
1

> <s_lp_Variant>
AV-unprocessed.smi:1175-1

> <Gold.Version>
5.8.1

> <Gold.Id.Protein>
6NUR|6NUR_protein|mol2

> <Gold.PLP.Fitness>
42.1348

> <Gold.PLP.PLP>
-40.7677

> <Gold.PLP.part.hbond>
-1.8854

> <Gold.PLP.part.metal>
0.0000

> <Gold.PLP.part.buried>
-4.6255

> <Gold.PLP.part.nonpolar>
-35.5364

> <Gold.PLP.part.repulsive>
0.2699

> <Gold.PLP.ligand.clash>
0.0000

> <Gold.PLP.ligand.torsion>
0.8520

> <Gold.PLP.Chemscore.Hbond>
1.0000

> <Gold.PLP.Chemscore.CHOScore>
0.0000

> <Gold.PLP.Chemscore.Metal>
0.0000

> <Gold.Chemscore.Hbonds>
donor molecule, donor type, donor heavy atom, donor atom, acceptor molecule, acceptor atom, score
      P1  H  7997  8009       L1     1  1.00

> <Gold.PLP.Chemscore.Internal.Correction>
0.0711

> <Gold.Rescore>
     Score         DG    S(hbond)    S(metal)    S(lipo)     H(rot)  DE(clash)    DE(int)     intcor
     11.86     -14.02       0.93        0.00      87.35       1.87       0.12       2.04       ----

> <Gold.Chemscore.Fitness>
11.8580

> <Gold.Chemscore.DG>
-14.0194

> <Gold.Chemscore.ZeroCoef>
-5.4800

> <Gold.Chemscore.Hbond>
0.9288

> <Gold.Chemscore.Metal>
0.0000

> <Gold.Chemscore.Lipo>
87.3456

> <Gold.Chemscore.Internal_Hbond>
0.0000

> <Gold.Chemscore.DEClash>
0.1202

> <Gold.Chemscore.DEInternal>
2.0412

> <Gold.Chemscore.Rot>
1.8681

> <Gold.Chemscore.Internal.Correction>
   9.000000E+99

> <Gold.Chemscore.Hbonds>
donor molecule, donor type, donor heavy atom, donor atom, acceptor molecule, acceptor atom, score
      P1  H  7997  8009       L1     1  0.73

> <Gold.Chemscore.Hbond.Weighted>
-3.1022

> <Gold.Chemscore.Metal.Weighted>
-0.0000

> <Gold.Chemscore.Lipo.Weighted>
-10.2194

> <Gold.Chemscore.Internal_Hbond.Weighted>
0.0000

> <Gold.Chemscore.DEClash.Weighted>
0.1202

> <Gold.Chemscore.DEInternal.Weighted>
2.0412

> <Gold.Chemscore.Rot.Weighted>
4.7822

> <Gold.Chemscore.Internal.Correction.Weighted>
   9.000000E+99

> <Gold.Protein.RotatedTorsions>
[ 6907 6896 6895 6894 ] final  -11.43 input  -60.11 | X-H torsion
[ 7974 7965 7964 7962 ] final  116.53 input  175.53 | X-H torsion
[ 8008 7997 7996 7995 ] final  104.97 input   59.86 | X-H torsion
[ 10167 10162 10161 10158 ] final   70.75 input  -65.29 | X-H torsion
[ 10718 10713 10712 10709 ] final -179.94 input   66.30 | X-H torsion
[ 10763 10752 10751 10750 ] final -119.23 input  -60.55 | X-H torsion
[ 11005 11000 10999 10996 ] final   13.83 input  -57.11 | X-H torsion

> <Gold.Protein.ActiveResidues>
 VAL166  LYS551  ARG553  GLY616  TRP617  ASP618  TYR619  PRO620  LYS621  CYS622 
 ASP623  PHE694  ASN695  SER759  ASP760  ASP761  ALA762  ILE779  LEU786  VAL792 
 PHE793  MET794  SER795  GLU796  ALA797  LYS798  CYS799  TRP800  GLU811  SER814 

> <Gold.Protein.RotatedAtoms>
  151.3863  135.0948  159.9511 H   0  0  0  0  0  0  0  0  0  0  0  0  # atno 6907 bound_to 6896
  152.5093  133.9023  159.7457 H   0  0  0  0  0  0  0  0  0  0  0  0  # atno 6908 bound_to 6896
  150.9467  133.6539  159.2808 H   0  0  0  0  0  0  0  0  0  0  0  0  # atno 6909 bound_to 6896
  145.1784  139.3063  143.4431 H   0  0  0  0  0  0  0  0  0  0  0  0  # atno 7974 bound_to 7965
  156.1619  140.3138  155.8822 H   0  0  0  0  0  0  0  0  0  0  0  0  # atno 8008 bound_to 7997
  155.3765  140.0485  157.3061 H   0  0  0  0  0  0  0  0  0  0  0  0  # atno 8009 bound_to 7997
  154.5155  140.2180  155.9085 H   0  0  0  0  0  0  0  0  0  0  0  0  # atno 8010 bound_to 7997
  140.0536  144.5292  150.7345 H   0  0  0  0  0  0  0  0  0  0  0  0  # atno 10167 bound_to 10162
  156.8665  130.9769  151.3078 H   0  0  0  0  0  0  0  0  0  0  0  0  # atno 10718 bound_to 10713
  154.8611  135.4246  154.2265 H   0  0  0  0  0  0  0  0  0  0  0  0  # atno 10763 bound_to 10752
  153.3259  135.6985  153.6995 H   0  0  0  0  0  0  0  0  0  0  0  0  # atno 10764 bound_to 10752
  153.6032  135.3533  155.2926 H   0  0  0  0  0  0  0  0  0  0  0  0  # atno 10765 bound_to 10752
  140.4763  134.0980  155.7742 H   0  0  0  0  0  0  0  0  0  0  0  0  # atno 11005 bound_to 11000
  146.3457  140.1955  142.8589 LP  0  0  0  0  0  0  0  0  0  0  0  0  # atno 17320 bound_to 7965
  145.0161  140.8755  143.5195 LP  0  0  0  0  0  0  0  0  0  0  0  0  # atno 17321 bound_to 7965
  140.7205  143.2584  151.4293 LP  0  0  0  0  0  0  0  0  0  0  0  0  # atno 17342 bound_to 10162
  139.5938  144.1442  152.2119 LP  0  0  0  0  0  0  0  0  0  0  0  0  # atno 17343 bound_to 10162
  157.6220  130.8662  149.9125 LP  0  0  0  0  0  0  0  0  0  0  0  0  # atno 17370 bound_to 10713
  156.0749  130.3680  150.0699 LP  0  0  0  0  0  0  0  0  0  0  0  0  # atno 17371 bound_to 10713
  141.1552  133.8895  157.1994 LP  0  0  0  0  0  0  0  0  0  0  0  0  # atno 17394 bound_to 11000
  139.9854  135.0084  156.9849 LP  0  0  0  0  0  0  0  0  0  0  0  0  # atno 17395 bound_to 11000

$$$$
