AV-unprocessed.smi:2878|AV-procd|sdf|11045|dock10
  -GOLD-   2272015513D 1   1.00000     0.00000
 Structure written by MMmdl.
 42 43  0  0  0  0  0  0  0  0  1 V2000
  151.0762  145.0501  159.4443 C   0  0  0  0  0  0  0  0  0  0  0  0
  151.6121  143.6917  158.3688 S   0  0  0  0  0  0  0  0  0  0  0  0
  152.1087  142.4417  159.5976 C   0  0  2  0  0  0  0  0  0  0  0  0
  153.0310  143.0928  160.6456 C   0  0  0  0  0  0  0  0  0  0  0  0
  153.5142  142.0794  161.6927 C   0  0  0  0  0  0  0  0  0  0  0  0
  154.2249  140.8970  161.0213 C   0  0  0  0  0  0  0  0  0  0  0  0
  153.3118  140.2221  159.9879 C   0  0  0  0  0  0  0  0  0  0  0  0
  152.7968  141.2230  158.9332 C   0  0  1  0  0  0  0  0  0  0  0  0
  151.8658  140.5334  158.0426 N   0  0  0  0  0  0  0  0  0  0  0  0
  152.1999  139.6286  157.1123 C   0  0  0  0  0  0  0  0  0  0  0  0
  153.3486  139.2374  156.9054 O   0  0  0  0  0  0  0  0  0  0  0  0
  151.1292  139.2068  156.4251 N   0  0  0  0  0  0  0  0  0  0  0  0
  151.1678  138.2436  155.3309 C   0  0  0  0  0  0  0  0  0  0  0  0
  149.7893  138.0831  154.6700 C   0  0  0  0  0  0  0  0  0  0  0  0
  149.0484  139.3747  154.5794 C   0  0  0  0  0  0  0  0  0  0  0  0
  147.7287  139.5479  154.5947 N   0  0  0  0  0  0  0  0  0  0  0  0
  147.6410  140.8957  154.4238 C   0  0  0  0  0  0  0  0  0  0  0  0
  146.3396  141.6208  154.3718 C   0  0  0  0  0  0  0  0  0  0  0  0
  148.7937  141.5403  154.2902 N   0  0  0  0  0  0  0  0  0  0  0  0
  149.7487  140.5177  154.3831 O   0  0  0  0  0  0  0  0  0  0  0  0
  150.7631  145.9014  158.8401 H   0  0  0  0  0  0  0  0  0  0  0  0
  151.8936  145.3699  160.0905 H   0  0  0  0  0  0  0  0  0  0  0  0
  150.2360  144.7480  160.0683 H   0  0  0  0  0  0  0  0  0  0  0  0
  151.2091  142.1057  160.1152 H   0  0  0  0  0  0  0  0  0  0  0  0
  153.8948  143.5376  160.1490 H   0  0  0  0  0  0  0  0  0  0  0  0
  152.5085  143.9102  161.1438 H   0  0  0  0  0  0  0  0  0  0  0  0
  154.1879  142.5663  162.3981 H   0  0  0  0  0  0  0  0  0  0  0  0
  152.6649  141.7176  162.2740 H   0  0  0  0  0  0  0  0  0  0  0  0
  155.1361  141.2446  160.5331 H   0  0  0  0  0  0  0  0  0  0  0  0
  154.5340  140.1718  161.7745 H   0  0  0  0  0  0  0  0  0  0  0  0
  153.8524  139.4109  159.4985 H   0  0  0  0  0  0  0  0  0  0  0  0
  152.4676  139.7618  160.5039 H   0  0  0  0  0  0  0  0  0  0  0  0
  153.6537  141.5923  158.3665 H   0  0  0  0  0  0  0  0  0  0  0  0
  150.8915  140.7822  158.1301 H   0  0  0  0  0  0  0  0  0  0  0  0
  150.2257  139.5850  156.6692 H   0  0  0  0  0  0  0  0  0  0  0  0
  151.9130  138.5455  154.5927 H   0  0  0  0  0  0  0  0  0  0  0  0
  151.4995  137.2858  155.7329 H   0  0  0  0  0  0  0  0  0  0  0  0
  149.8998  137.6733  153.6653 H   0  0  0  0  0  0  0  0  0  0  0  0
  149.1779  137.3750  155.2305 H   0  0  0  0  0  0  0  0  0  0  0  0
  146.4579  142.6516  154.7078 H   0  0  0  0  0  0  0  0  0  0  0  0
  145.6051  141.1336  155.0135 H   0  0  0  0  0  0  0  0  0  0  0  0
  145.9568  141.6305  153.3511 H   0  0  0  0  0  0  0  0  0  0  0  0
  1  2  1  0  0  0  0
  1 21  1  0  0  0  0
  1 22  1  0  0  0  0
  1 23  1  0  0  0  0
  2  3  1  0  0  0  0
  3  8  1  0  0  0  0
  3  4  1  0  0  0  0
  3 24  1  0  0  0  0
  4  5  1  0  0  0  0
  4 25  1  0  0  0  0
  4 26  1  0  0  0  0
  5  6  1  0  0  0  0
  5 27  1  0  0  0  0
  5 28  1  0  0  0  0
  6  7  1  0  0  0  0
  6 29  1  0  0  0  0
  6 30  1  0  0  0  0
  7  8  1  0  0  0  0
  7 31  1  0  0  0  0
  7 32  1  0  0  0  0
  8  9  1  0  0  0  0
  8 33  1  0  0  0  0
  9 10  1  0  0  0  0
  9 34  1  0  0  0  0
 10 11  2  0  0  0  0
 10 12  1  0  0  0  0
 12 13  1  0  0  0  0
 12 35  1  0  0  0  0
 13 14  1  0  0  0  0
 13 36  1  0  0  0  0
 13 37  1  0  0  0  0
 14 15  1  0  0  0  0
 14 38  1  0  0  0  0
 14 39  1  0  0  0  0
 15 20  1  0  0  0  0
 15 16  2  0  0  0  0
 16 17  1  0  0  0  0
 17 18  1  0  0  0  0
 17 19  2  0  0  0  0
 18 40  1  0  0  0  0
 18 41  1  0  0  0  0
 18 42  1  0  0  0  0
 19 20  1  0  0  0  0
M  END
> <s_m_source_file>
AV-unprocessed.smi

> <i_m_source_file_index>
2878

> <i_lp_mmshare_version>
43012

> <i_f3d_flags>
0

> <s_epik_input>
W0NIM11TW0NAQEhdMVtDSDJdW0NIMl1bQ0gyXVtDSDJdW0NASF0xW05IXUMoPU8pW05IXVtDSDJdW0NIMl1jMm5jKFtDSDNdKW5vMg==

> <s_epik_cmdline>
J2VwaWtfcHl0aG9uJywgJy1waCcsICc3LjAnLCAnLXRuJywgJzgnLCAnLW1hJywgJzIwMCcsICctbWV0YWxfYmluZGluZycsICctaW1hZScsICc8aW5maWxlLm1hZT4nLCAnLW9tYWUnLCAnPG91dGZpbGUubWFlPic=

> <r_lp_tautomer_probability>
1

> <r_epik_Ionization_Penalty>
4.9299e-05

> <r_epik_Ionization_Penalty_Charging>
0

> <r_epik_Ionization_Penalty_Neutral>
4.9299e-05

> <r_epik_State_Penalty>
-0

> <r_epik_Charging_Adjusted_Penalty>
0

> <i_epik_Tot_Q>
0

> <i_epik_Tot_abs_Q>
0

> <r_epik_Metal_State_Penalty>
-0

> <b_epik_Metal_Only>
0

> <s_lp_Force_Field>
OPLS_2005

> <r_lp_Energy>
1.6378

> <b_lp_Chiralities_Consistent>
1

> <s_lp_Variant>
AV-unprocessed.smi:2878-1

> <Gold.Version>
5.8.1

> <Gold.Id.Protein>
6NUR|6NUR_protein|mol2

> <Gold.PLP.Fitness>
49.8298

> <Gold.PLP.PLP>
-44.1319

> <Gold.PLP.part.hbond>
-3.7745

> <Gold.PLP.part.metal>
0.0000

> <Gold.PLP.part.buried>
-5.1523

> <Gold.PLP.part.nonpolar>
-34.7039

> <Gold.PLP.part.repulsive>
0.9133

> <Gold.PLP.ligand.clash>
0.0000

> <Gold.PLP.ligand.torsion>
0.7002

> <Gold.PLP.Chemscore.Hbond>
2.3600

> <Gold.PLP.Chemscore.CHOScore>
0.0000

> <Gold.PLP.Chemscore.Metal>
0.0000

> <Gold.Chemscore.Hbonds>
donor molecule, donor type, donor heavy atom, donor atom, acceptor molecule, acceptor atom, score
      P1  H  7989  7998       L1    20  0.64
      P1  H  7997  8009       L1    11  0.67
      P1  H  8011  8017       L1    19  0.06

> <Gold.PLP.Chemscore.Internal.Correction>
0.0183

> <Gold.Rescore>
     Score         DG    S(hbond)    S(metal)    S(lipo)     H(rot)  DE(clash)    DE(int)     intcor
     15.98     -18.53       1.89        0.00     103.47       2.09       0.52       2.03       ----

> <Gold.Chemscore.Fitness>
15.9789

> <Gold.Chemscore.DG>
-18.5265

> <Gold.Chemscore.ZeroCoef>
-5.4800

> <Gold.Chemscore.Hbond>
1.8852

> <Gold.Chemscore.Metal>
0.0000

> <Gold.Chemscore.Lipo>
103.4710

> <Gold.Chemscore.Internal_Hbond>
0.0000

> <Gold.Chemscore.DEClash>
0.5219

> <Gold.Chemscore.DEInternal>
2.0257

> <Gold.Chemscore.Rot>
2.0923

> <Gold.Chemscore.Internal.Correction>
   9.000000E+99

> <Gold.Chemscore.Hbonds>
donor molecule, donor type, donor heavy atom, donor atom, acceptor molecule, acceptor atom, score
      P1  H  7989  7998       L1    20  0.59
      P1  H  7997  8009       L1    11  0.64
      P1  H  8011  8017       L1    19  0.01

> <Gold.Chemscore.Hbond.Weighted>
-6.2966

> <Gold.Chemscore.Metal.Weighted>
-0.0000

> <Gold.Chemscore.Lipo.Weighted>
-12.1061

> <Gold.Chemscore.Internal_Hbond.Weighted>
0.0000

> <Gold.Chemscore.DEClash.Weighted>
0.5219

> <Gold.Chemscore.DEInternal.Weighted>
2.0257

> <Gold.Chemscore.Rot.Weighted>
5.3562

> <Gold.Chemscore.Internal.Correction.Weighted>
   9.000000E+99

> <Gold.Protein.RotatedTorsions>
[ 6907 6896 6895 6894 ] final  126.38 input  -60.11 | X-H torsion
[ 7974 7965 7964 7962 ] final   88.35 input  175.53 | X-H torsion
[ 8008 7997 7996 7995 ] final -167.30 input   59.86 | X-H torsion
[ 10167 10162 10161 10158 ] final -138.04 input  -65.29 | X-H torsion
[ 10718 10713 10712 10709 ] final  147.50 input   66.30 | X-H torsion
[ 10763 10752 10751 10750 ] final  114.41 input  -60.55 | X-H torsion
[ 11005 11000 10999 10996 ] final -133.55 input  -57.11 | X-H torsion

> <Gold.Protein.ActiveResidues>
 VAL166  LYS551  ARG553  GLY616  TRP617  ASP618  TYR619  PRO620  LYS621  CYS622 
 ASP623  PHE694  ASN695  SER759  ASP760  ASP761  ALA762  ILE779  LEU786  VAL792 
 PHE793  MET794  SER795  GLU796  ALA797  LYS798  CYS799  TRP800  GLU811  SER814 

> <Gold.Protein.RotatedAtoms>
  152.3908  133.6677  159.6236 H   0  0  0  0  0  0  0  0  0  0  0  0  # atno 6907 bound_to 6896
  150.7817  133.8957  159.3335 H   0  0  0  0  0  0  0  0  0  0  0  0  # atno 6908 bound_to 6896
  151.6744  135.0973  160.0255 H   0  0  0  0  0  0  0  0  0  0  0  0  # atno 6909 bound_to 6896
  145.5469  139.2292  143.2534 H   0  0  0  0  0  0  0  0  0  0  0  0  # atno 7974 bound_to 7965
  155.8758  140.1001  157.1519 H   0  0  0  0  0  0  0  0  0  0  0  0  # atno 8008 bound_to 7997
  154.4001  140.1338  156.4198 H   0  0  0  0  0  0  0  0  0  0  0  0  # atno 8009 bound_to 7997
  155.7699  140.3461  155.5244 H   0  0  0  0  0  0  0  0  0  0  0  0  # atno 8010 bound_to 7997
  139.8518  143.7189  152.2657 H   0  0  0  0  0  0  0  0  0  0  0  0  # atno 10167 bound_to 10162
  157.3202  131.0903  151.1247 H   0  0  0  0  0  0  0  0  0  0  0  0  # atno 10718 bound_to 10713
  153.5068  135.3626  155.2567 H   0  0  0  0  0  0  0  0  0  0  0  0  # atno 10763 bound_to 10752
  154.8744  135.4013  154.3414 H   0  0  0  0  0  0  0  0  0  0  0  0  # atno 10764 bound_to 10752
  153.4060  135.7076  153.6459 H   0  0  0  0  0  0  0  0  0  0  0  0  # atno 10765 bound_to 10752
  140.9071  134.1616  157.4417 H   0  0  0  0  0  0  0  0  0  0  0  0  # atno 11005 bound_to 11000
  146.1943  140.6291  142.9131 LP  0  0  0  0  0  0  0  0  0  0  0  0  # atno 17320 bound_to 7965
  144.7549  140.5282  143.6776 LP  0  0  0  0  0  0  0  0  0  0  0  0  # atno 17321 bound_to 7965
  139.7458  144.7547  151.0582 LP  0  0  0  0  0  0  0  0  0  0  0  0  # atno 17342 bound_to 10162
  140.7786  143.4918  150.9883 LP  0  0  0  0  0  0  0  0  0  0  0  0  # atno 17343 bound_to 10162
  157.2535  130.6625  149.5942 LP  0  0  0  0  0  0  0  0  0  0  0  0  # atno 17370 bound_to 10713
  155.9685  130.4531  150.5799 LP  0  0  0  0  0  0  0  0  0  0  0  0  # atno 17371 bound_to 10713
  139.8751  134.9921  156.5580 LP  0  0  0  0  0  0  0  0  0  0  0  0  # atno 17394 bound_to 11000
  140.8157  133.8393  155.8850 LP  0  0  0  0  0  0  0  0  0  0  0  0  # atno 17395 bound_to 11000

$$$$
