AV-unprocessed.smi:752|AV-procd|sdf|3598|dock1
  -GOLD-   22720 0593D 1   1.00000     0.00000
 Structure written by MMmdl.
 41 42  0  0  0  0  0  0  0  0  1 V2000
  150.3983  138.8868  154.1053 C   0  0  0  0  0  0  0  0  0  0  0  0
  151.1337  138.3486  155.3372 C   0  0  0  0  0  0  0  0  0  0  0  0
  150.9815  136.8732  155.4966 C   0  0  0  0  0  0  0  0  0  0  0  0
  150.3663  136.0954  154.6023 N   0  0  0  0  0  0  0  0  0  0  0  0
  150.3469  134.7485  154.9812 C   0  0  0  0  0  0  0  0  0  0  0  0
  149.7555  133.7178  154.0622 C   0  0  0  0  0  0  0  0  0  0  0  0
  148.2399  133.6882  154.2581 C   0  0  0  0  0  0  0  0  0  0  0  0
  147.7304  132.8660  155.0191 O   0  0  0  0  0  0  0  0  0  0  0  0
  147.5309  134.5583  153.5224 N   0  0  0  0  0  0  0  0  0  0  0  0
  146.0850  134.5159  153.3424 C   0  0  0  0  0  0  0  0  0  0  0  0
  145.7090  134.0639  151.9144 C   0  0  1  0  0  0  0  0  0  0  0  0
  146.5657  132.8667  151.4613 C   0  0  0  0  0  0  0  0  0  0  0  0
  146.2219  132.4427  150.0247 C   0  0  0  0  0  0  0  0  0  0  0  0
  144.7274  132.1097  149.8788 C   0  0  0  0  0  0  0  0  0  0  0  0
  143.8249  133.2608  150.3605 C   0  0  2  0  0  0  0  0  0  0  0  0
  143.8969  134.3495  149.4604 O   0  0  0  0  0  0  0  0  0  0  0  0
  144.2047  133.7255  151.7787 C   0  0  0  0  0  0  0  0  0  0  0  0
  150.9308  134.5241  156.2039 C   0  0  0  0  0  0  0  0  0  0  0  0
  151.5465  135.9919  156.9107 S   0  0  0  0  0  0  0  0  0  0  0  0
  150.5280  139.9653  154.0151 H   0  0  0  0  0  0  0  0  0  0  0  0
  149.3288  138.6839  154.1666 H   0  0  0  0  0  0  0  0  0  0  0  0
  150.7747  138.4281  153.1907 H   0  0  0  0  0  0  0  0  0  0  0  0
  152.1955  138.5882  155.2716 H   0  0  0  0  0  0  0  0  0  0  0  0
  150.7587  138.8365  156.2371 H   0  0  0  0  0  0  0  0  0  0  0  0
  149.9847  133.9514  153.0218 H   0  0  0  0  0  0  0  0  0  0  0  0
  150.1686  132.7275  154.2594 H   0  0  0  0  0  0  0  0  0  0  0  0
  148.0416  135.2050  152.9384 H   0  0  0  0  0  0  0  0  0  0  0  0
  145.6360  133.8548  154.0856 H   0  0  0  0  0  0  0  0  0  0  0  0
  145.6882  135.5127  153.5360 H   0  0  0  0  0  0  0  0  0  0  0  0
  145.9291  134.8925  151.2391 H   0  0  0  0  0  0  0  0  0  0  0  0
  147.6242  133.1228  151.5201 H   0  0  0  0  0  0  0  0  0  0  0  0
  146.4135  132.0244  152.1377 H   0  0  0  0  0  0  0  0  0  0  0  0
  146.4895  133.2433  149.3338 H   0  0  0  0  0  0  0  0  0  0  0  0
  146.8226  131.5785  149.7399 H   0  0  0  0  0  0  0  0  0  0  0  0
  144.4981  131.8558  148.8432 H   0  0  0  0  0  0  0  0  0  0  0  0
  144.5067  131.2174  150.4660 H   0  0  0  0  0  0  0  0  0  0  0  0
  142.7880  132.9228  150.3637 H   0  0  0  0  0  0  0  0  0  0  0  0
  143.0183  134.6403  149.2693 H   0  0  0  0  0  0  0  0  0  0  0  0
  143.9529  132.9369  152.4889 H   0  0  0  0  0  0  0  0  0  0  0  0
  143.5877  134.5822  152.0501 H   0  0  0  0  0  0  0  0  0  0  0  0
  151.0494  133.5838  156.7219 H   0  0  0  0  0  0  0  0  0  0  0  0
  1  2  1  0  0  0  0
  1 20  1  0  0  0  0
  1 21  1  0  0  0  0
  1 22  1  0  0  0  0
  2  3  1  0  0  0  0
  2 23  1  0  0  0  0
  2 24  1  0  0  0  0
  3 19  1  0  0  0  0
  3  4  2  0  0  0  0
  4  5  1  0  0  0  0
  5  6  1  0  0  0  0
  5 18  2  0  0  0  0
  6  7  1  0  0  0  0
  6 25  1  0  0  0  0
  6 26  1  0  0  0  0
  7  8  2  0  0  0  0
  7  9  1  0  0  0  0
  9 10  1  0  0  0  0
  9 27  1  0  0  0  0
 10 11  1  0  0  0  0
 10 28  1  0  0  0  0
 10 29  1  0  0  0  0
 11 17  1  0  0  0  0
 11 12  1  0  0  0  0
 11 30  1  0  0  0  0
 12 13  1  0  0  0  0
 12 31  1  0  0  0  0
 12 32  1  0  0  0  0
 13 14  1  0  0  0  0
 13 33  1  0  0  0  0
 13 34  1  0  0  0  0
 14 15  1  0  0  0  0
 14 35  1  0  0  0  0
 14 36  1  0  0  0  0
 15 16  1  0  0  0  0
 15 17  1  0  0  0  0
 15 37  1  0  0  0  0
 16 38  1  0  0  0  0
 17 39  1  0  0  0  0
 17 40  1  0  0  0  0
 18 19  1  0  0  0  0
 18 41  1  0  0  0  0
M  END
> <s_m_source_file>
AV-unprocessed.smi

> <i_m_source_file_index>
752

> <i_lp_mmshare_version>
43012

> <i_f3d_flags>
0

> <s_epik_input>
W0NIM11bQ0gyXWMxbmMoW2NIXXMxKVtDSDJdQyg9TylbTkhdW0NIMl1bQ0BASF0yW0NIMl1bQ0gyXVtDSDJdW0NAQEhdKFtPSF0pW0NIMl0y

> <s_epik_cmdline>
J2VwaWtfcHl0aG9uJywgJy1waCcsICc3LjAnLCAnLXRuJywgJzgnLCAnLW1hJywgJzIwMCcsICctbWV0YWxfYmluZGluZycsICctaW1hZScsICc8aW5maWxlLm1hZT4nLCAnLW9tYWUnLCAnPG91dGZpbGUubWFlPic=

> <r_lp_tautomer_probability>
1

> <r_epik_Ionization_Penalty>
5.44903e-05

> <r_epik_Ionization_Penalty_Charging>
0

> <r_epik_Ionization_Penalty_Neutral>
5.44903e-05

> <r_epik_State_Penalty>
-0

> <r_epik_Charging_Adjusted_Penalty>
0

> <i_epik_Tot_Q>
0

> <i_epik_Tot_abs_Q>
0

> <r_epik_Metal_State_Penalty>
-0

> <b_epik_Metal_Only>
0

> <s_lp_Force_Field>
OPLS_2005

> <r_lp_Energy>
4.32924

> <b_lp_Chiralities_Consistent>
1

> <s_lp_Variant>
AV-unprocessed.smi:752-4

> <Gold.Version>
5.8.1

> <Gold.Id.Protein>
6NUR|6NUR_protein|mol2

> <Gold.PLP.Fitness>
37.4822

> <Gold.PLP.PLP>
-33.1564

> <Gold.PLP.part.hbond>
-3.0000

> <Gold.PLP.part.metal>
0.0000

> <Gold.PLP.part.buried>
-4.3905

> <Gold.PLP.part.nonpolar>
-26.5665

> <Gold.PLP.part.repulsive>
0.7009

> <Gold.PLP.ligand.clash>
0.0000

> <Gold.PLP.ligand.torsion>
0.8776

> <Gold.PLP.Chemscore.Hbond>
2.0000

> <Gold.PLP.Chemscore.CHOScore>
0.0000

> <Gold.PLP.Chemscore.Metal>
0.0000

> <Gold.Chemscore.Hbonds>
donor molecule, donor type, donor heavy atom, donor atom, acceptor molecule, acceptor atom, score
      L1  H     9    27       P1  7948  1.00
      L1  H    16    38       P1 10186  0.99

> <Gold.PLP.Chemscore.Internal.Correction>
0.0810

> <Gold.Rescore>
     Score         DG    S(hbond)    S(metal)    S(lipo)     H(rot)  DE(clash)    DE(int)     intcor
     16.06     -17.39       1.99        0.00      90.68       2.08       0.37       0.96       ----

> <Gold.Chemscore.Fitness>
16.0600

> <Gold.Chemscore.DG>
-17.3932

> <Gold.Chemscore.ZeroCoef>
-5.4800

> <Gold.Chemscore.Hbond>
1.9875

> <Gold.Chemscore.Metal>
0.0000

> <Gold.Chemscore.Lipo>
90.6847

> <Gold.Chemscore.Internal_Hbond>
0.0000

> <Gold.Chemscore.DEClash>
0.3721

> <Gold.Chemscore.DEInternal>
0.9612

> <Gold.Chemscore.Rot>
2.0840

> <Gold.Chemscore.Internal.Correction>
   9.000000E+99

> <Gold.Chemscore.Hbonds>
donor molecule, donor type, donor heavy atom, donor atom, acceptor molecule, acceptor atom, score
      L1  H     9    27       P1  7948  0.99
      L1  H    16    38       P1 10186  0.87

> <Gold.Chemscore.Hbond.Weighted>
-6.6381

> <Gold.Chemscore.Metal.Weighted>
-0.0000

> <Gold.Chemscore.Lipo.Weighted>
-10.6101

> <Gold.Chemscore.Internal_Hbond.Weighted>
0.0000

> <Gold.Chemscore.DEClash.Weighted>
0.3721

> <Gold.Chemscore.DEInternal.Weighted>
0.9612

> <Gold.Chemscore.Rot.Weighted>
5.3350

> <Gold.Chemscore.Internal.Correction.Weighted>
   9.000000E+99

> <Gold.Protein.RotatedTorsions>
[ 6907 6896 6895 6894 ] final   -3.44 input  -60.11 | X-H torsion
[ 7974 7965 7964 7962 ] final  101.99 input  175.53 | X-H torsion
[ 8008 7997 7996 7995 ] final  139.36 input   59.86 | X-H torsion
[ 10167 10162 10161 10158 ] final  -66.77 input  -65.29 | X-H torsion
[ 10718 10713 10712 10709 ] final   -3.95 input   66.30 | X-H torsion
[ 10763 10752 10751 10750 ] final  136.17 input  -60.55 | X-H torsion
[ 11005 11000 10999 10996 ] final  133.45 input  -57.11 | X-H torsion

> <Gold.Protein.ActiveResidues>
 VAL166  LYS551  ARG553  GLY616  TRP617  ASP618  TYR619  PRO620  LYS621  CYS622 
 ASP623  PHE694  ASN695  SER759  ASP760  ASP761  ALA762  ILE779  LEU786  VAL792 
 PHE793  MET794  SER795  GLU796  ALA797  LYS798  CYS799  TRP800  GLU811  SER814 

> <Gold.Protein.RotatedAtoms>
  151.5138  135.1065  159.9860 H   0  0  0  0  0  0  0  0  0  0  0  0  # atno 6907 bound_to 6896
  152.4650  133.7899  159.6907 H   0  0  0  0  0  0  0  0  0  0  0  0  # atno 6908 bound_to 6896
  150.8629  133.7552  159.3011 H   0  0  0  0  0  0  0  0  0  0  0  0  # atno 6909 bound_to 6896
  145.3650  139.2410  143.3486 H   0  0  0  0  0  0  0  0  0  0  0  0  # atno 7974 bound_to 7965
  156.2990  140.2369  156.4225 H   0  0  0  0  0  0  0  0  0  0  0  0  # atno 8008 bound_to 7997
  154.8342  140.0431  157.1518 H   0  0  0  0  0  0  0  0  0  0  0  0  # atno 8009 bound_to 7997
  154.9174  140.2999  155.5238 H   0  0  0  0  0  0  0  0  0  0  0  0  # atno 8010 bound_to 7997
  140.5632  143.2313  151.6686 H   0  0  0  0  0  0  0  0  0  0  0  0  # atno 10167 bound_to 10162
  156.7686  130.5292  149.5771 H   0  0  0  0  0  0  0  0  0  0  0  0  # atno 10718 bound_to 10713
  153.8522  135.3078  155.3433 H   0  0  0  0  0  0  0  0  0  0  0  0  # atno 10763 bound_to 10752
  154.7886  135.4795  154.0005 H   0  0  0  0  0  0  0  0  0  0  0  0  # atno 10764 bound_to 10752
  153.1512  135.6843  153.8973 H   0  0  0  0  0  0  0  0  0  0  0  0  # atno 10765 bound_to 10752
  139.9852  134.9534  156.9726 H   0  0  0  0  0  0  0  0  0  0  0  0  # atno 11005 bound_to 11000
  146.2911  140.4290  142.8739 LP  0  0  0  0  0  0  0  0  0  0  0  0  # atno 17320 bound_to 7965
  144.8618  140.7151  143.6102 LP  0  0  0  0  0  0  0  0  0  0  0  0  # atno 17321 bound_to 7965
  139.5080  144.3626  152.0548 LP  0  0  0  0  0  0  0  0  0  0  0  0  # atno 17342 bound_to 10162
  140.2755  144.3918  150.6137 LP  0  0  0  0  0  0  0  0  0  0  0  0  # atno 17343 bound_to 10162
  156.1293  130.6166  151.0309 LP  0  0  0  0  0  0  0  0  0  0  0  0  # atno 17370 bound_to 10713
  157.6702  131.0863  150.7632 LP  0  0  0  0  0  0  0  0  0  0  0  0  # atno 17371 bound_to 10713
  140.5016  134.1092  155.7251 LP  0  0  0  0  0  0  0  0  0  0  0  0  # atno 17394 bound_to 11000
  141.1518  133.8954  157.2077 LP  0  0  0  0  0  0  0  0  0  0  0  0  # atno 17395 bound_to 11000

$$$$
