AV-unprocessed.smi:823|AV-procd|sdf|3844|dock4
  -GOLD-   22720 1293D 1   1.00000     0.00000
 Structure written by MMmdl.
 46 47  0  0  0  0  0  0  0  0  1 V2000
  151.1851  145.2189  159.3519 C   0  0  0  0  0  0  0  0  0  0  0  0
  152.1085  144.0001  159.2516 C   0  0  2  0  0  0  0  0  0  0  0  0
  151.5226  142.9064  158.3375 C   0  0  0  0  0  0  0  0  0  0  0  0
  152.3671  141.7150  158.3575 N   0  0  0  0  0  0  0  0  0  0  0  0
  152.0809  140.7568  157.3618 C   0  0  0  0  0  0  0  0  0  0  0  0
  151.0059  140.9650  156.4663 C   0  0  0  0  0  0  0  0  0  0  0  0
  150.7344  139.9946  155.4832 C   0  0  0  0  0  0  0  0  0  0  0  0
  151.5377  138.8397  155.4143 C   0  0  0  0  0  0  0  0  0  0  0  0
  151.2355  137.7806  154.3600 C   0  0  0  0  0  0  0  0  0  0  0  0
  149.9400  137.1201  154.4880 N   0  0  0  0  0  0  0  0  0  0  0  0
  149.4563  136.5785  155.6162 C   0  0  0  0  0  0  0  0  0  0  0  0
  150.0652  136.5932  156.6873 O   0  0  0  0  0  0  0  0  0  0  0  0
  148.0583  135.9481  155.5170 C   0  0  2  0  0  0  0  0  0  0  0  0
  148.1739  134.4699  155.9250 C   0  0  0  0  0  0  0  0  0  0  0  0
  147.5643  136.0033  154.1420 N   0  0  0  0  0  0  0  0  0  0  0  0
  146.2747  135.9167  153.7841 C   0  0  0  0  0  0  0  0  0  0  0  0
  146.1065  136.0157  152.4653 N   0  0  0  0  0  0  0  0  0  0  0  0
  145.3415  135.7640  154.5700 O   0  0  0  0  0  0  0  0  0  0  0  0
  152.5903  138.7193  156.3493 C   0  0  0  0  0  0  0  0  0  0  0  0
  152.8580  139.6482  157.2912 N   0  0  0  0  0  0  0  0  0  0  0  0
  152.6555  141.2342  159.7068 C   0  0  0  0  0  0  0  0  0  0  0  0
  153.2066  142.3775  160.5743 C   0  0  0  0  0  0  0  0  0  0  0  0
  152.2936  143.4701  160.5615 O   0  0  0  0  0  0  0  0  0  0  0  0
  151.0225  145.6696  158.3725 H   0  0  0  0  0  0  0  0  0  0  0  0
  151.6151  145.9820  160.0011 H   0  0  0  0  0  0  0  0  0  0  0  0
  150.2120  144.9442  159.7597 H   0  0  0  0  0  0  0  0  0  0  0  0
  153.0731  144.3272  158.8596 H   0  0  0  0  0  0  0  0  0  0  0  0
  150.5226  142.6307  158.6752 H   0  0  0  0  0  0  0  0  0  0  0  0
  151.4176  143.3038  157.3287 H   0  0  0  0  0  0  0  0  0  0  0  0
  150.3998  141.8573  156.5144 H   0  0  0  0  0  0  0  0  0  0  0  0
  149.9180  140.1377  154.7906 H   0  0  0  0  0  0  0  0  0  0  0  0
  151.2684  138.2592  153.3811 H   0  0  0  0  0  0  0  0  0  0  0  0
  152.0339  137.0365  154.3616 H   0  0  0  0  0  0  0  0  0  0  0  0
  149.3718  137.0644  153.6551 H   0  0  0  0  0  0  0  0  0  0  0  0
  147.3626  136.4597  156.1854 H   0  0  0  0  0  0  0  0  0  0  0  0
  148.5364  134.3690  156.9489 H   0  0  0  0  0  0  0  0  0  0  0  0
  148.8560  133.9196  155.2749 H   0  0  0  0  0  0  0  0  0  0  0  0
  147.2030  133.9760  155.8763 H   0  0  0  0  0  0  0  0  0  0  0  0
  148.2536  136.1372  153.4171 H   0  0  0  0  0  0  0  0  0  0  0  0
  145.1815  135.9638  152.0646 H   0  0  0  0  0  0  0  0  0  0  0  0
  146.9120  136.1408  151.8695 H   0  0  0  0  0  0  0  0  0  0  0  0
  153.2414  137.8581  156.3565 H   0  0  0  0  0  0  0  0  0  0  0  0
  151.7430  140.8349  160.1521 H   0  0  0  0  0  0  0  0  0  0  0  0
  153.3837  140.4229  159.6702 H   0  0  0  0  0  0  0  0  0  0  0  0
  153.3407  142.0382  161.6014 H   0  0  0  0  0  0  0  0  0  0  0  0
  154.1848  142.7022  160.2160 H   0  0  0  0  0  0  0  0  0  0  0  0
  1  2  1  0  0  0  0
  1 24  1  0  0  0  0
  1 25  1  0  0  0  0
  1 26  1  0  0  0  0
  2 23  1  0  0  0  0
  2  3  1  0  0  0  0
  2 27  1  0  0  0  0
  3  4  1  0  0  0  0
  3 28  1  0  0  0  0
  3 29  1  0  0  0  0
  4  5  1  0  0  0  0
  4 21  1  0  0  0  0
  5 20  1  0  0  0  0
  5  6  2  0  0  0  0
  6  7  1  0  0  0  0
  6 30  1  0  0  0  0
  7  8  2  0  0  0  0
  7 31  1  0  0  0  0
  8  9  1  0  0  0  0
  8 19  1  0  0  0  0
  9 10  1  0  0  0  0
  9 32  1  0  0  0  0
  9 33  1  0  0  0  0
 10 11  1  0  0  0  0
 10 34  1  0  0  0  0
 11 12  2  0  0  0  0
 11 13  1  0  0  0  0
 13 14  1  0  0  0  0
 13 15  1  0  0  0  0
 13 35  1  0  0  0  0
 14 36  1  0  0  0  0
 14 37  1  0  0  0  0
 14 38  1  0  0  0  0
 15 16  1  0  0  0  0
 15 39  1  0  0  0  0
 16 17  1  0  0  0  0
 16 18  2  0  0  0  0
 17 40  1  0  0  0  0
 17 41  1  0  0  0  0
 19 20  2  0  0  0  0
 19 42  1  0  0  0  0
 21 22  1  0  0  0  0
 21 43  1  0  0  0  0
 21 44  1  0  0  0  0
 22 23  1  0  0  0  0
 22 45  1  0  0  0  0
 22 46  1  0  0  0  0
M  END
> <s_m_source_file>
AV-unprocessed.smi

> <i_m_source_file_index>
823

> <i_lp_mmshare_version>
43012

> <i_f3d_flags>
0

> <s_epik_input>
W0NIM11bQ0BASF0xW0NIMl1OKFtDSDJdW0NIMl1PMSljMltjSF1bY0hdYyhbY0hdbjIpW0NIMl1bTkhdQyg9TylbQ0BIXShbQ0gzXSlbTkhdQyg9TylbTkgyXQ==

> <s_epik_cmdline>
J2VwaWtfcHl0aG9uJywgJy1waCcsICc3LjAnLCAnLXRuJywgJzgnLCAnLW1hJywgJzIwMCcsICctbWV0YWxfYmluZGluZycsICctaW1hZScsICc8aW5maWxlLm1hZT4nLCAnLW9tYWUnLCAnPG91dGZpbGUubWFlPic=

> <r_lp_tautomer_probability>
1

> <r_epik_Ionization_Penalty>
0.00555043

> <r_epik_Ionization_Penalty_Charging>
0

> <r_epik_Ionization_Penalty_Neutral>
0.00555043

> <r_epik_State_Penalty>
0.00402575

> <r_epik_Charging_Adjusted_Penalty>
0.00402575

> <i_epik_Tot_Q>
0

> <i_epik_Tot_abs_Q>
0

> <r_epik_Metal_State_Penalty>
-0

> <b_epik_Metal_Only>
0

> <s_lp_Force_Field>
OPLS_2005

> <r_lp_Energy>
10.1488

> <b_lp_Chiralities_Consistent>
1

> <s_lp_Variant>
AV-unprocessed.smi:823-1

> <Gold.Version>
5.8.1

> <Gold.Id.Protein>
6NUR|6NUR_protein|mol2

> <Gold.PLP.Fitness>
48.4453

> <Gold.PLP.PLP>
-38.0256

> <Gold.PLP.part.hbond>
-4.0000

> <Gold.PLP.part.metal>
0.0000

> <Gold.PLP.part.buried>
-4.0070

> <Gold.PLP.part.nonpolar>
-29.9813

> <Gold.PLP.part.repulsive>
0.1507

> <Gold.PLP.ligand.clash>
0.1668

> <Gold.PLP.ligand.torsion>
0.5917

> <Gold.PLP.Chemscore.Hbond>
3.8080

> <Gold.PLP.Chemscore.CHOScore>
0.0000

> <Gold.PLP.Chemscore.Metal>
0.0000

> <Gold.Chemscore.Hbonds>
donor molecule, donor type, donor heavy atom, donor atom, acceptor molecule, acceptor atom, score
      L1  H    10    34       P1  7948  0.99
      L1  H    15    39       P1  7948  1.00
      L1  H    17    41       P1  7948  0.90
      P1  H  7997  8009       L1    20  1.00

> <Gold.PLP.Chemscore.Internal.Correction>
0.3459

> <Gold.Rescore>
     Score         DG    S(hbond)    S(metal)    S(lipo)     H(rot)  DE(clash)    DE(int)     intcor
     18.16     -19.92       3.07        0.00      92.92       2.62       0.06       1.70       ----

> <Gold.Chemscore.Fitness>
18.1600

> <Gold.Chemscore.DG>
-19.9227

> <Gold.Chemscore.ZeroCoef>
-5.4800

> <Gold.Chemscore.Hbond>
3.0744

> <Gold.Chemscore.Metal>
0.0000

> <Gold.Chemscore.Lipo>
92.9232

> <Gold.Chemscore.Internal_Hbond>
0.0000

> <Gold.Chemscore.DEClash>
0.0603

> <Gold.Chemscore.DEInternal>
1.7023

> <Gold.Chemscore.Rot>
2.6163

> <Gold.Chemscore.Internal.Correction>
   9.000000E+99

> <Gold.Chemscore.Hbonds>
donor molecule, donor type, donor heavy atom, donor atom, acceptor molecule, acceptor atom, score
      L1  H    10    34       P1  7948  0.87
      L1  H    15    39       P1  7948  1.00
      L1  H    17    41       P1  7948  0.83
      P1  H  7997  8009       L1    20  0.28

> <Gold.Chemscore.Hbond.Weighted>
-10.2684

> <Gold.Chemscore.Metal.Weighted>
-0.0000

> <Gold.Chemscore.Lipo.Weighted>
-10.8720

> <Gold.Chemscore.Internal_Hbond.Weighted>
0.0000

> <Gold.Chemscore.DEClash.Weighted>
0.0603

> <Gold.Chemscore.DEInternal.Weighted>
1.7023

> <Gold.Chemscore.Rot.Weighted>
6.6978

> <Gold.Chemscore.Internal.Correction.Weighted>
   9.000000E+99

> <Gold.Protein.RotatedTorsions>
[ 6907 6896 6895 6894 ] final  -53.94 input  -60.11 | X-H torsion
[ 7974 7965 7964 7962 ] final -167.02 input  175.53 | X-H torsion
[ 8008 7997 7996 7995 ] final  158.83 input   59.86 | X-H torsion
[ 10167 10162 10161 10158 ] final  -96.42 input  -65.29 | X-H torsion
[ 10718 10713 10712 10709 ] final -168.41 input   66.30 | X-H torsion
[ 10763 10752 10751 10750 ] final  -52.80 input  -60.55 | X-H torsion
[ 11005 11000 10999 10996 ] final  141.02 input  -57.11 | X-H torsion

> <Gold.Protein.ActiveResidues>
 VAL166  LYS551  ARG553  GLY616  TRP617  ASP618  TYR619  PRO620  LYS621  CYS622 
 ASP623  PHE694  ASN695  SER759  ASP760  ASP761  ALA762  ILE779  LEU786  VAL792 
 PHE793  MET794  SER795  GLU796  ALA797  LYS798  CYS799  TRP800  GLU811  SER814 

> <Gold.Protein.RotatedAtoms>
  150.8382  134.7664  159.6910 H   0  0  0  0  0  0  0  0  0  0  0  0  # atno 6907 bound_to 6896
  152.4475  134.5461  159.9863 H   0  0  0  0  0  0  0  0  0  0  0  0  # atno 6908 bound_to 6896
  151.5607  133.3366  159.3006 H   0  0  0  0  0  0  0  0  0  0  0  0  # atno 6909 bound_to 6896
  144.7232  140.2580  143.6269 H   0  0  0  0  0  0  0  0  0  0  0  0  # atno 7974 bound_to 7965
  156.2278  140.1847  156.7320 H   0  0  0  0  0  0  0  0  0  0  0  0  # atno 8008 bound_to 7997
  154.5970  140.0642  156.9345 H   0  0  0  0  0  0  0  0  0  0  0  0  # atno 8009 bound_to 7997
  155.2238  140.3309  155.4314 H   0  0  0  0  0  0  0  0  0  0  0  0  # atno 8010 bound_to 7997
  140.2940  143.3203  152.0316 H   0  0  0  0  0  0  0  0  0  0  0  0  # atno 10167 bound_to 10162
  156.6966  130.9180  151.3075 H   0  0  0  0  0  0  0  0  0  0  0  0  # atno 10718 bound_to 10713
  154.1485  135.6494  153.4958 H   0  0  0  0  0  0  0  0  0  0  0  0  # atno 10763 bound_to 10752
  153.0145  135.5332  154.6832 H   0  0  0  0  0  0  0  0  0  0  0  0  # atno 10764 bound_to 10752
  154.6113  135.2954  155.0400 H   0  0  0  0  0  0  0  0  0  0  0  0  # atno 10765 bound_to 10752
  140.0370  134.9324  157.0772 H   0  0  0  0  0  0  0  0  0  0  0  0  # atno 11005 bound_to 11000
  145.8163  139.2024  143.1963 LP  0  0  0  0  0  0  0  0  0  0  0  0  # atno 17320 bound_to 7965
  146.0552  140.8028  142.9762 LP  0  0  0  0  0  0  0  0  0  0  0  0  # atno 17321 bound_to 7965
  139.4931  144.6504  151.6687 LP  0  0  0  0  0  0  0  0  0  0  0  0  # atno 17342 bound_to 10162
  140.5708  144.0112  150.6216 LP  0  0  0  0  0  0  0  0  0  0  0  0  # atno 17343 bound_to 10162
  157.6989  130.9311  150.0726 LP  0  0  0  0  0  0  0  0  0  0  0  0  # atno 17370 bound_to 10713
  156.1759  130.3648  149.9101 LP  0  0  0  0  0  0  0  0  0  0  0  0  # atno 17371 bound_to 10713
  140.4131  134.1960  155.7163 LP  0  0  0  0  0  0  0  0  0  0  0  0  # atno 17394 bound_to 11000
  141.1863  133.8306  157.1074 LP  0  0  0  0  0  0  0  0  0  0  0  0  # atno 17395 bound_to 11000

$$$$
