AV-unprocessed.smi:1763|AV-procd|sdf|7131|dock3
  -GOLD-   22720 8363D 1   1.00000     0.00000
 Structure written by MMmdl.
 42 43  0  0  0  0  0  0  0  0  3 V2000
  144.1930  146.8429  154.5042 C   0  0  0  0  0  0  0  0  0  0  0  0
  143.8891  145.4254  154.3456 N   0  5  0  0  0  0  0  0  0  0  0  0
  144.3549  144.4594  155.1850 C   0  0  0  0  0  0  0  0  0  0  0  0
  145.0563  144.5420  156.1981 O   0  0  0  0  0  0  0  0  0  0  0  0
  143.8942  143.0678  154.7335 C   0  0  0  0  0  0  0  0  0  0  0  0
  145.0589  142.1990  154.4242 N   0  3  2  0  0  0  0  0  0  0  0  0
  145.6160  141.5448  155.6345 C   0  0  0  0  0  0  0  0  0  0  0  0
  146.7157  140.5326  155.2652 C   0  0  0  0  0  0  0  0  0  0  0  0
  147.8335  141.1713  154.4224 C   0  0  2  0  0  0  0  0  0  0  0  0
  148.6489  142.0661  155.2437 N   0  0  0  0  0  0  0  0  0  0  0  0
  149.4573  141.6794  156.2419 C   0  0  0  0  0  0  0  0  0  0  0  0
  149.6066  140.5036  156.5755 O   0  0  0  0  0  0  0  0  0  0  0  0
  150.0681  142.7338  156.8111 N   0  0  0  0  0  0  0  0  0  0  0  0
  150.9951  142.7347  157.8876 C   0  0  0  0  0  0  0  0  0  0  0  0
  151.6652  143.9610  158.0999 C   0  0  0  0  0  0  0  0  0  0  0  0
  152.6052  144.0648  159.1435 C   0  0  0  0  0  0  0  0  0  0  0  0
  152.8513  142.9386  159.9491 C   0  0  0  0  0  0  0  0  0  0  0  0
  152.1417  141.7560  159.6701 C   0  0  0  0  0  0  0  0  0  0  0  0
  151.2406  141.6542  158.6704 N   0  0  0  0  0  0  0  0  0  0  0  0
  147.2196  141.9041  153.2128 C   0  0  0  0  0  0  0  0  0  0  0  0
  146.1142  142.8877  153.6344 C   0  0  0  0  0  0  0  0  0  0  0  0
  143.6988  147.4497  153.7457 H   0  0  0  0  0  0  0  0  0  0  0  0
  145.2599  147.0502  154.4174 H   0  0  0  0  0  0  0  0  0  0  0  0
  143.8720  147.2333  155.4704 H   0  0  0  0  0  0  0  0  0  0  0  0
  143.2646  142.6028  155.4939 H   0  0  0  0  0  0  0  0  0  0  0  0
  143.2691  143.1953  153.8480 H   0  0  0  0  0  0  0  0  0  0  0  0
  146.0071  142.3050  156.3123 H   0  0  0  0  0  0  0  0  0  0  0  0
  144.8200  141.0243  156.1684 H   0  0  0  0  0  0  0  0  0  0  0  0
  147.1310  140.0831  156.1681 H   0  0  0  0  0  0  0  0  0  0  0  0
  146.2669  139.7147  154.6997 H   0  0  0  0  0  0  0  0  0  0  0  0
  148.4780  140.3696  154.0571 H   0  0  0  0  0  0  0  0  0  0  0  0
  148.5849  143.0533  155.0424 H   0  0  0  0  0  0  0  0  0  0  0  0
  149.8449  143.6415  156.4311 H   0  0  0  0  0  0  0  0  0  0  0  0
  151.4643  144.8170  157.4719 H   0  0  0  0  0  0  0  0  0  0  0  0
  153.1279  144.9929  159.3222 H   0  0  0  0  0  0  0  0  0  0  0  0
  153.5651  142.9795  160.7586 H   0  0  0  0  0  0  0  0  0  0  0  0
  152.3012  140.8684  160.2646 H   0  0  0  0  0  0  0  0  0  0  0  0
  147.9910  142.4279  152.6471 H   0  0  0  0  0  0  0  0  0  0  0  0
  146.7946  141.1682  152.5288 H   0  0  0  0  0  0  0  0  0  0  0  0
  145.6815  143.3374  152.7403 H   0  0  0  0  0  0  0  0  0  0  0  0
  146.5369  143.7042  154.2218 H   0  0  0  0  0  0  0  0  0  0  0  0
  144.6895  141.4594  153.8427 H   0  0  0  0  0  0  0  0  0  0  0  0
  1  2  1  0  0  0  0
  1 22  1  0  0  0  0
  1 23  1  0  0  0  0
  1 24  1  0  0  0  0
  2  3  1  0  0  0  0
  3  4  2  0  0  0  0
  3  5  1  0  0  0  0
  5  6  1  0  0  0  0
  5 25  1  0  0  0  0
  5 26  1  0  0  0  0
  6 21  1  0  0  0  0
  6  7  1  0  0  0  0
  6 42  1  0  0  0  0
  7  8  1  0  0  0  0
  7 27  1  0  0  0  0
  7 28  1  0  0  0  0
  8  9  1  0  0  0  0
  8 29  1  0  0  0  0
  8 30  1  0  0  0  0
  9 10  1  0  0  0  0
  9 20  1  0  0  0  0
  9 31  1  0  0  0  0
 10 11  1  0  0  0  0
 10 32  1  0  0  0  0
 11 12  2  0  0  0  0
 11 13  1  0  0  0  0
 13 14  1  0  0  0  0
 13 33  1  0  0  0  0
 14 19  1  0  0  0  0
 14 15  2  0  0  0  0
 15 16  1  0  0  0  0
 15 34  1  0  0  0  0
 16 17  2  0  0  0  0
 16 35  1  0  0  0  0
 17 18  1  0  0  0  0
 17 36  1  0  0  0  0
 18 19  2  0  0  0  0
 18 37  1  0  0  0  0
 20 21  1  0  0  0  0
 20 38  1  0  0  0  0
 20 39  1  0  0  0  0
 21 40  1  0  0  0  0
 21 41  1  0  0  0  0
M  CHG  1   2  -1
M  CHG  1   6   1
M  END
> <s_m_source_file>
AV-unprocessed.smi

> <i_m_source_file_index>
1763

> <i_lp_mmshare_version>
43012

> <i_f3d_flags>
0

> <s_epik_input>
W0NIM11bTkhdQyg9TylbQ0gyXU4xW0NIMl1bQ0gyXVtDSF0oW0NIMl1bQ0gyXTEpW05IXUMoPU8pW05IXWMyW2NIXVtjSF1bY0hdW2NIXW4y

> <s_epik_cmdline>
J2VwaWtfcHl0aG9uJywgJy1waCcsICc3LjAnLCAnLXRuJywgJzgnLCAnLW1hJywgJzIwMCcsICctbWV0YWxfYmluZGluZycsICctaW1hZScsICc8aW5maWxlLm1hZT4nLCAnLW9tYWUnLCAnPG91dGZpbGUubWFlPic=

> <r_epik_Ionization_Penalty>
6.1395

> <r_epik_Ionization_Penalty_Charging>
6.13946

> <r_epik_Ionization_Penalty_Neutral>
3.77655e-05

> <r_epik_State_Penalty>
6.9595

> <r_epik_Charging_Adjusted_Penalty>
13.099

> <i_epik_Tot_Q>
0

> <i_epik_Tot_abs_Q>
2

> <r_epik_Metal_State_Penalty>
2.8914

> <b_epik_Metal_Only>
1

> <s_lp_Force_Field>
OPLS_2005

> <r_lp_Energy>
12.7162

> <b_lp_Chiralities_Consistent>
1

> <s_lp_Variant>
AV-unprocessed.smi:1763-5

> <Gold.Version>
5.8.1

> <Gold.Id.Protein>
6NUR|6NUR_protein|mol2

> <Gold.PLP.Fitness>
48.2541

> <Gold.PLP.PLP>
-36.8261

> <Gold.PLP.part.hbond>
-3.0000

> <Gold.PLP.part.metal>
0.0000

> <Gold.PLP.part.buried>
-6.2994

> <Gold.PLP.part.nonpolar>
-29.4426

> <Gold.PLP.part.repulsive>
0.4490

> <Gold.PLP.ligand.clash>
0.0000

> <Gold.PLP.ligand.torsion>
0.3009

> <Gold.PLP.Chemscore.Hbond>
3.9920

> <Gold.PLP.Chemscore.CHOScore>
0.0000

> <Gold.PLP.Chemscore.Metal>
0.0000

> <Gold.Chemscore.Hbonds>
donor molecule, donor type, donor heavy atom, donor atom, acceptor molecule, acceptor atom, score
      L1  H     6    42       P1 10175  1.90
      L1  H    10    32       P1  8028  0.94
      L1  H    13    33       P1  8028  1.00

> <Gold.PLP.Chemscore.Internal.Correction>
0.0538

> <Gold.Rescore>
     Score         DG    S(hbond)    S(metal)    S(lipo)     H(rot)  DE(clash)    DE(int)     intcor
     17.53     -20.11       2.71        0.00      84.21       1.67       0.99       1.59       ----

> <Gold.Chemscore.Fitness>
17.5345

> <Gold.Chemscore.DG>
-20.1090

> <Gold.Chemscore.ZeroCoef>
-5.4800

> <Gold.Chemscore.Hbond>
2.7124

> <Gold.Chemscore.Metal>
0.0000

> <Gold.Chemscore.Lipo>
84.2110

> <Gold.Chemscore.Internal_Hbond>
0.0000

> <Gold.Chemscore.DEClash>
0.9892

> <Gold.Chemscore.DEInternal>
1.5853

> <Gold.Chemscore.Rot>
1.6730

> <Gold.Chemscore.Internal.Correction>
   9.000000E+99

> <Gold.Chemscore.Hbonds>
donor molecule, donor type, donor heavy atom, donor atom, acceptor molecule, acceptor atom, score
      L1  H     6    42       P1 10175  0.21
      L1  H    10    32       P1  8028  0.91
      L1  H    13    33       P1  8028  0.97

> <Gold.Chemscore.Hbond.Weighted>
-9.0593

> <Gold.Chemscore.Metal.Weighted>
-0.0000

> <Gold.Chemscore.Lipo.Weighted>
-9.8527

> <Gold.Chemscore.Internal_Hbond.Weighted>
0.0000

> <Gold.Chemscore.DEClash.Weighted>
0.9892

> <Gold.Chemscore.DEInternal.Weighted>
1.5853

> <Gold.Chemscore.Rot.Weighted>
4.2830

> <Gold.Chemscore.Internal.Correction.Weighted>
   9.000000E+99

> <Gold.Protein.RotatedTorsions>
[ 6907 6896 6895 6894 ] final  128.15 input  -60.11 | X-H torsion
[ 7974 7965 7964 7962 ] final   31.39 input  175.53 | X-H torsion
[ 8008 7997 7996 7995 ] final   78.60 input   59.86 | X-H torsion
[ 10167 10162 10161 10158 ] final   99.64 input  -65.29 | X-H torsion
[ 10718 10713 10712 10709 ] final  -54.62 input   66.30 | X-H torsion
[ 10763 10752 10751 10750 ] final  -20.71 input  -60.55 | X-H torsion
[ 11005 11000 10999 10996 ] final -178.84 input  -57.11 | X-H torsion

> <Gold.Protein.ActiveResidues>
 VAL166  LYS551  ARG553  GLY616  TRP617  ASP618  TYR619  PRO620  LYS621  CYS622 
 ASP623  PHE694  ASN695  SER759  ASP760  ASP761  ALA762  ILE779  LEU786  VAL792 
 PHE793  MET794  SER795  GLU796  ALA797  LYS798  CYS799  TRP800  GLU811  SER814 

> <Gold.Protein.RotatedAtoms>
  152.3746  133.6464  159.6113 H   0  0  0  0  0  0  0  0  0  0  0  0  # atno 6907 bound_to 6896
  150.7694  133.9214  159.3408 H   0  0  0  0  0  0  0  0  0  0  0  0  # atno 6908 bound_to 6896
  151.7030  135.0928  160.0305 H   0  0  0  0  0  0  0  0  0  0  0  0  # atno 6909 bound_to 6896
  146.1553  139.6663  142.9071 H   0  0  0  0  0  0  0  0  0  0  0  0  # atno 7974 bound_to 7965
  155.8580  140.3455  155.5737 H   0  0  0  0  0  0  0  0  0  0  0  0  # atno 8008 bound_to 7997
  155.7964  140.0879  157.2000 H   0  0  0  0  0  0  0  0  0  0  0  0  # atno 8009 bound_to 7997
  154.4010  140.1473  156.3211 H   0  0  0  0  0  0  0  0  0  0  0  0  # atno 8010 bound_to 7997
  139.7599  144.6957  151.0307 H   0  0  0  0  0  0  0  0  0  0  0  0  # atno 10167 bound_to 10162
  156.1436  130.4153  150.0062 H   0  0  0  0  0  0  0  0  0  0  0  0  # atno 10718 bound_to 10713
  153.6247  135.6991  153.5297 H   0  0  0  0  0  0  0  0  0  0  0  0  # atno 10763 bound_to 10752
  153.2908  135.4157  155.1165 H   0  0  0  0  0  0  0  0  0  0  0  0  # atno 10764 bound_to 10752
  154.8535  135.3625  154.5789 H   0  0  0  0  0  0  0  0  0  0  0  0  # atno 10765 bound_to 10752
  140.4253  134.6569  157.4684 H   0  0  0  0  0  0  0  0  0  0  0  0  # atno 11005 bound_to 11000
  145.4724  141.0436  143.2691 LP  0  0  0  0  0  0  0  0  0  0  0  0  # atno 17320 bound_to 7965
  144.7955  139.6242  143.7094 LP  0  0  0  0  0  0  0  0  0  0  0  0  # atno 17321 bound_to 7965
  140.7806  143.4709  151.0148 LP  0  0  0  0  0  0  0  0  0  0  0  0  # atno 17342 bound_to 10162
  139.8395  143.7583  152.3180 LP  0  0  0  0  0  0  0  0  0  0  0  0  # atno 17343 bound_to 10162
  156.7940  130.9266  151.3646 LP  0  0  0  0  0  0  0  0  0  0  0  0  # atno 17370 bound_to 10713
  157.6597  130.8955  149.9803 LP  0  0  0  0  0  0  0  0  0  0  0  0  # atno 17371 bound_to 10713
  140.0172  134.6602  155.9293 LP  0  0  0  0  0  0  0  0  0  0  0  0  # atno 17394 bound_to 11000
  141.1768  133.6541  156.4859 LP  0  0  0  0  0  0  0  0  0  0  0  0  # atno 17395 bound_to 11000

$$$$
