AV-unprocessed.smi:2072|AV-procd|sdf|8444|dock3
  -GOLD-   2272011143D 1   1.00000     0.00000
 Structure written by MMmdl.
 40 42  0  0  0  0  0  0  0  0  2 V2000
  145.7742  137.2347  154.5525 O   0  0  0  0  0  0  0  0  0  0  0  0
  146.7467  136.9501  153.8552 C   0  0  0  0  0  0  0  0  0  0  0  0
  147.7524  137.7816  153.5324 N   0  0  0  0  0  0  0  0  0  0  0  0
  147.9530  139.1439  153.8922 C   0  0  0  0  0  0  0  0  0  0  0  0
  149.2097  139.7353  154.1746 C   0  0  0  0  0  0  0  0  0  0  0  0
  149.2582  141.1014  154.5133 C   0  0  0  0  0  0  0  0  0  0  0  0
  148.0534  141.8287  154.5559 C   0  0  0  0  0  0  0  0  0  0  0  0
  146.8502  141.2812  154.2859 N   0  0  0  0  0  0  0  0  0  0  0  0
  146.8112  139.9712  153.9618 C   0  0  0  0  0  0  0  0  0  0  0  0
  146.9261  135.7405  153.3055 N   0  0  0  0  0  0  0  0  0  0  0  0
  146.0185  134.6064  153.4576 C   0  0  2  0  0  0  0  0  0  0  0  0
  146.6399  133.4434  154.2512 C   0  0  0  0  0  0  0  0  0  0  0  0
  146.1040  132.1614  153.5832 C   0  0  0  0  0  0  0  0  0  0  0  0
  145.1778  132.6248  152.5323 N   0  3  2  0  0  0  0  0  0  0  0  0
  144.9436  131.7142  151.3905 C   0  0  0  0  0  0  0  0  0  0  0  0
  143.8865  132.3342  150.4550 C   0  0  0  0  0  0  0  0  0  0  0  0
  144.2679  133.7673  150.0321 C   0  0  0  0  0  0  0  0  0  0  0  0
  144.5908  134.6425  151.2585 C   0  0  0  0  0  0  0  0  0  0  0  0
  145.6620  133.9513  152.1199 C   0  0  1  0  0  0  0  0  0  0  0  0
  148.4652  137.3933  152.9320 H   0  0  0  0  0  0  0  0  0  0  0  0
  150.1357  139.1851  154.1365 H   0  0  0  0  0  0  0  0  0  0  0  0
  150.1998  141.5818  154.7347 H   0  0  0  0  0  0  0  0  0  0  0  0
  148.0568  142.8778  154.8119 H   0  0  0  0  0  0  0  0  0  0  0  0
  145.8307  139.5696  153.7511 H   0  0  0  0  0  0  0  0  0  0  0  0
  147.7543  135.5912  152.7477 H   0  0  0  0  0  0  0  0  0  0  0  0
  145.1030  134.9159  153.9665 H   0  0  0  0  0  0  0  0  0  0  0  0
  147.7292  133.4583  154.1913 H   0  0  0  0  0  0  0  0  0  0  0  0
  146.3702  133.4971  155.3065 H   0  0  0  0  0  0  0  0  0  0  0  0
  146.9268  131.5989  153.1391 H   0  0  0  0  0  0  0  0  0  0  0  0
  145.5893  131.5089  154.2890 H   0  0  0  0  0  0  0  0  0  0  0  0
  145.8773  131.5429  150.8529 H   0  0  0  0  0  0  0  0  0  0  0  0
  144.5996  130.7468  151.7582 H   0  0  0  0  0  0  0  0  0  0  0  0
  143.7535  131.7070  149.5730 H   0  0  0  0  0  0  0  0  0  0  0  0
  142.9224  132.3560  150.9648 H   0  0  0  0  0  0  0  0  0  0  0  0
  145.1371  133.7309  149.3741 H   0  0  0  0  0  0  0  0  0  0  0  0
  143.4605  134.2157  149.4523 H   0  0  0  0  0  0  0  0  0  0  0  0
  144.9389  135.6219  150.9300 H   0  0  0  0  0  0  0  0  0  0  0  0
  143.6865  134.8110  151.8449 H   0  0  0  0  0  0  0  0  0  0  0  0
  146.5730  133.8218  151.5304 H   0  0  0  0  0  0  0  0  0  0  0  0
  144.2865  132.7763  152.9829 H   0  0  0  0  0  0  0  0  0  0  0  0
  1  2  2  0  0  0  0
  2  3  1  0  0  0  0
  2 10  1  0  0  0  0
  3  4  1  0  0  0  0
  3 20  1  0  0  0  0
  4  9  1  0  0  0  0
  4  5  2  0  0  0  0
  5  6  1  0  0  0  0
  5 21  1  0  0  0  0
  6  7  2  0  0  0  0
  6 22  1  0  0  0  0
  7  8  1  0  0  0  0
  7 23  1  0  0  0  0
  8  9  2  0  0  0  0
  9 24  1  0  0  0  0
 10 11  1  0  0  0  0
 10 25  1  0  0  0  0
 11 19  1  0  0  0  0
 11 12  1  0  0  0  0
 11 26  1  0  0  0  0
 12 13  1  0  0  0  0
 12 27  1  0  0  0  0
 12 28  1  0  0  0  0
 13 14  1  0  0  0  0
 13 29  1  0  0  0  0
 13 30  1  0  0  0  0
 14 19  1  0  0  0  0
 14 15  1  0  0  0  0
 14 40  1  0  0  0  0
 15 16  1  0  0  0  0
 15 31  1  0  0  0  0
 15 32  1  0  0  0  0
 16 17  1  0  0  0  0
 16 33  1  0  0  0  0
 16 34  1  0  0  0  0
 17 18  1  0  0  0  0
 17 35  1  0  0  0  0
 17 36  1  0  0  0  0
 18 19  1  0  0  0  0
 18 37  1  0  0  0  0
 18 38  1  0  0  0  0
 19 39  1  0  0  0  0
M  CHG  1  14   1
M  END
> <s_m_source_file>
AV-unprocessed.smi

> <i_m_source_file_index>
2072

> <i_lp_mmshare_version>
43012

> <i_f3d_flags>
0

> <s_epik_input>
W0NIMl0xW0NIMl1bQ0gyXVtDSDJdW0NASF0oTjEyKVtDQEBIXShbQ0gyXVtDSDJdMilbTkhdQyg9TylbTkhdYzNbY0hdW2NIXVtjSF1uW2NIXTM=

> <s_epik_cmdline>
J2VwaWtfcHl0aG9uJywgJy1waCcsICc3LjAnLCAnLXRuJywgJzgnLCAnLW1hJywgJzIwMCcsICctbWV0YWxfYmluZGluZycsICctaW1hZScsICc8aW5maWxlLm1hZT4nLCAnLW9tYWUnLCAnPG91dGZpbGUubWFlPic=

> <r_lp_tautomer_probability>
1

> <r_epik_Ionization_Penalty>
0.00482425

> <r_epik_Ionization_Penalty_Charging>
0.000974069

> <r_epik_Ionization_Penalty_Neutral>
0.00385018

> <r_epik_State_Penalty>
-0

> <r_epik_Charging_Adjusted_Penalty>
0.000974069

> <i_epik_Tot_Q>
1

> <i_epik_Tot_abs_Q>
1

> <r_epik_Metal_State_Penalty>
-0

> <b_epik_Metal_Only>
0

> <s_lp_Force_Field>
OPLS_2005

> <r_lp_Energy>
37.8924

> <b_lp_Chiralities_Consistent>
1

> <s_lp_Variant>
AV-unprocessed.smi:2072-3

> <Gold.Version>
5.8.1

> <Gold.Id.Protein>
6NUR|6NUR_protein|mol2

> <Gold.PLP.Fitness>
39.1653

> <Gold.PLP.PLP>
-27.9619

> <Gold.PLP.part.hbond>
-2.0000

> <Gold.PLP.part.metal>
0.0000

> <Gold.PLP.part.buried>
-0.2493

> <Gold.PLP.part.nonpolar>
-24.8275

> <Gold.PLP.part.repulsive>
0.2711

> <Gold.PLP.ligand.clash>
0.0000

> <Gold.PLP.ligand.torsion>
0.3426

> <Gold.PLP.Chemscore.Hbond>
1.9600

> <Gold.PLP.Chemscore.CHOScore>
2.0000

> <Gold.PLP.Chemscore.Metal>
0.0000

> <Gold.Chemscore.Hbonds>
donor molecule, donor type, donor heavy atom, donor atom, acceptor molecule, acceptor atom, score
      L1  H     3    20       P1  7948  1.00
      L1  H    10    25       P1  7948  0.99
      L1  C     7    23       P1  8028  1.00
      L1  C     9    24       P1 10175  0.68

> <Gold.PLP.Chemscore.Internal.Correction>
0.0086

> <Gold.Rescore>
     Score         DG    S(hbond)    S(metal)    S(lipo)     H(rot)  DE(clash)    DE(int)     intcor
     16.76     -18.51       1.96        0.00      77.41       1.00       0.22       1.52       ----

> <Gold.Chemscore.Fitness>
16.7647

> <Gold.Chemscore.DG>
-18.5091

> <Gold.Chemscore.ZeroCoef>
-5.4800

> <Gold.Chemscore.Hbond>
1.9556

> <Gold.Chemscore.Metal>
0.0000

> <Gold.Chemscore.Lipo>
77.4126

> <Gold.Chemscore.Internal_Hbond>
0.0000

> <Gold.Chemscore.DEClash>
0.2245

> <Gold.Chemscore.DEInternal>
1.5199

> <Gold.Chemscore.Rot>
1.0000

> <Gold.Chemscore.Internal.Correction>
   9.000000E+99

> <Gold.Chemscore.Hbonds>
donor molecule, donor type, donor heavy atom, donor atom, acceptor molecule, acceptor atom, score
      L1  H     3    20       P1  7948  0.95
      L1  H    10    25       P1  7948  0.92

> <Gold.Chemscore.Hbond.Weighted>
-6.5318

> <Gold.Chemscore.Metal.Weighted>
-0.0000

> <Gold.Chemscore.Lipo.Weighted>
-9.0573

> <Gold.Chemscore.Internal_Hbond.Weighted>
0.0000

> <Gold.Chemscore.DEClash.Weighted>
0.2245

> <Gold.Chemscore.DEInternal.Weighted>
1.5199

> <Gold.Chemscore.Rot.Weighted>
2.5600

> <Gold.Chemscore.Internal.Correction.Weighted>
   9.000000E+99

> <Gold.Protein.RotatedTorsions>
[ 6907 6896 6895 6894 ] final   -1.51 input  -60.11 | X-H torsion
[ 7974 7965 7964 7962 ] final  -76.98 input  175.53 | X-H torsion
[ 8008 7997 7996 7995 ] final  -74.47 input   59.86 | X-H torsion
[ 10167 10162 10161 10158 ] final    4.65 input  -65.29 | X-H torsion
[ 10718 10713 10712 10709 ] final  147.86 input   66.30 | X-H torsion
[ 10763 10752 10751 10750 ] final  -46.86 input  -60.55 | X-H torsion
[ 11005 11000 10999 10996 ] final  109.31 input  -57.11 | X-H torsion

> <Gold.Protein.ActiveResidues>
 VAL166  LYS551  ARG553  GLY616  TRP617  ASP618  TYR619  PRO620  LYS621  CYS622 
 ASP623  PHE694  ASN695  SER759  ASP760  ASP761  ALA762  ILE779  LEU786  VAL792 
 PHE793  MET794  SER795  GLU796  ALA797  LYS798  CYS799  TRP800  GLU811  SER814 

> <Gold.Protein.RotatedAtoms>
  151.5449  135.1068  159.9935 H   0  0  0  0  0  0  0  0  0  0  0  0  # atno 6907 bound_to 6896
  152.4518  133.7641  159.6773 H   0  0  0  0  0  0  0  0  0  0  0  0  # atno 6908 bound_to 6896
  150.8449  133.7810  159.3071 H   0  0  0  0  0  0  0  0  0  0  0  0  # atno 6909 bound_to 6896
  145.6057  140.9398  143.1216 H   0  0  0  0  0  0  0  0  0  0  0  0  # atno 7974 bound_to 7965
  154.5333  140.0761  156.8384 H   0  0  0  0  0  0  0  0  0  0  0  0  # atno 8008 bound_to 7997
  155.3329  140.3403  155.4221 H   0  0  0  0  0  0  0  0  0  0  0  0  # atno 8009 bound_to 7997
  156.1803  140.1650  156.8272 H   0  0  0  0  0  0  0  0  0  0  0  0  # atno 8010 bound_to 7997
  140.6524  143.7512  150.7596 H   0  0  0  0  0  0  0  0  0  0  0  0  # atno 10167 bound_to 10162
  157.3158  131.0895  151.1280 H   0  0  0  0  0  0  0  0  0  0  0  0  # atno 10718 bound_to 10713
  154.0519  135.6630  153.4801 H   0  0  0  0  0  0  0  0  0  0  0  0  # atno 10763 bound_to 10752
  153.0460  135.5114  154.7742 H   0  0  0  0  0  0  0  0  0  0  0  0  # atno 10764 bound_to 10752
  154.6751  135.3036  154.9655 H   0  0  0  0  0  0  0  0  0  0  0  0  # atno 10765 bound_to 10752
  139.8860  134.9455  156.6106 H   0  0  0  0  0  0  0  0  0  0  0  0  # atno 11005 bound_to 11000
  144.7291  139.7782  143.7354 LP  0  0  0  0  0  0  0  0  0  0  0  0  # atno 17320 bound_to 7965
  146.1542  139.4635  143.0029 LP  0  0  0  0  0  0  0  0  0  0  0  0  # atno 17321 bound_to 7965
  140.1166  143.4651  152.2338 LP  0  0  0  0  0  0  0  0  0  0  0  0  # atno 17342 bound_to 10162
  139.5741  144.7478  151.3813 LP  0  0  0  0  0  0  0  0  0  0  0  0  # atno 17343 bound_to 10162
  157.2585  130.6647  149.5963 LP  0  0  0  0  0  0  0  0  0  0  0  0  # atno 17370 bound_to 10713
  155.9681  130.4516  150.5742 LP  0  0  0  0  0  0  0  0  0  0  0  0  # atno 17371 bound_to 10713
  140.7814  133.8657  155.8571 LP  0  0  0  0  0  0  0  0  0  0  0  0  # atno 17394 bound_to 11000
  140.9757  134.1472  157.4538 LP  0  0  0  0  0  0  0  0  0  0  0  0  # atno 17395 bound_to 11000

$$$$
