AV-unprocessed.smi:276|AV-procd|sdf|2075|dock6
  -GOLD-   2262021333D 1   1.00000     0.00000
 Structure written by MMmdl.
 57 61  0  0  0  0  0  0  0  0  1 V2000
  143.9999  133.0722  162.7416 C   0  0  0  0  0  0  0  0  0  0  0  0
  144.9013  134.1005  162.3714 O   0  0  0  0  0  0  0  0  0  0  0  0
  146.2130  133.8950  162.8777 C   0  0  1  0  0  0  0  0  0  0  0  0
  147.1030  133.0905  161.9170 C   0  0  0  0  0  0  0  0  0  0  0  0
  147.5590  134.4147  161.2725 C   0  0  1  0  0  0  0  0  0  0  0  0
  146.7556  134.7391  160.0851 N   0  0  0  0  0  0  0  0  0  0  0  0
  146.9848  133.9047  158.9100 C   0  0  0  0  0  0  0  0  0  0  0  0
  146.7460  136.0411  159.7262 C   0  0  0  0  0  0  0  0  0  0  0  0
  145.5618  136.6964  159.8106 N   0  0  0  0  0  0  0  0  0  0  0  0
  145.4893  137.9889  159.4787 C   0  0  0  0  0  0  0  0  0  0  0  0
  146.4585  138.7937  159.0374 N   0  0  0  0  0  0  0  0  0  0  0  0
  147.6456  138.1301  158.9342 C   0  0  0  0  0  0  0  0  0  0  0  0
  147.8783  136.7632  159.2538 C   0  0  0  0  0  0  0  0  0  0  0  0
  149.2095  136.4410  159.0179 N   0  0  0  0  0  0  0  0  0  0  0  0
  149.7336  137.5540  158.5825 C   0  0  0  0  0  0  0  0  0  0  0  0
  148.8631  138.6165  158.4931 N   0  0  0  0  0  0  0  0  0  0  0  0
  149.1728  139.9580  158.0330 C   0  0  0  0  0  0  0  0  0  0  0  0
  150.5266  140.4881  158.5540 C   0  0  1  0  0  0  0  0  0  0  0  0
  151.3434  140.7186  157.4232 O   0  0  0  0  0  0  0  0  0  0  0  0
  150.4383  141.7876  159.3879 C   0  0  2  0  0  0  0  0  0  0  0  0
  149.9954  143.0166  158.5868 C   0  0  0  0  0  0  0  0  0  0  0  0
  150.6128  144.1500  159.3717 C   0  0  0  0  0  0  0  0  0  0  0  0
  151.9553  143.5463  159.7603 C   0  0  0  0  0  0  0  0  0  0  0  0
  151.7148  142.1519  159.9156 O   0  0  0  0  0  0  0  0  0  0  0  0
  147.1229  135.1027  162.5941 C   0  0  0  0  0  0  0  0  0  0  0  0
  148.1888  135.4659  163.6431 C   0  0  0  0  0  0  0  0  0  0  0  0
  147.2585  136.5792  164.1303 C   0  0  0  0  0  0  0  0  0  0  0  0
  146.6167  136.5524  162.7426 C   0  0  0  0  0  0  0  0  0  0  0  0
  143.0160  133.2818  162.3224 H   0  0  0  0  0  0  0  0  0  0  0  0
  143.8977  133.0127  163.8258 H   0  0  0  0  0  0  0  0  0  0  0  0
  144.3245  132.1014  162.3667 H   0  0  0  0  0  0  0  0  0  0  0  0
  146.2356  133.5587  163.9155 H   0  0  0  0  0  0  0  0  0  0  0  0
  147.9180  132.5856  162.4377 H   0  0  0  0  0  0  0  0  0  0  0  0
  146.5700  132.3942  161.2705 H   0  0  0  0  0  0  0  0  0  0  0  0
  148.6354  134.4414  161.1016 H   0  0  0  0  0  0  0  0  0  0  0  0
  146.5735  134.3516  158.0032 H   0  0  0  0  0  0  0  0  0  0  0  0
  146.5090  132.9325  159.0331 H   0  0  0  0  0  0  0  0  0  0  0  0
  148.0522  133.7447  158.7539 H   0  0  0  0  0  0  0  0  0  0  0  0
  144.5147  138.4427  159.5806 H   0  0  0  0  0  0  0  0  0  0  0  0
  150.7744  137.6269  158.3027 H   0  0  0  0  0  0  0  0  0  0  0  0
  149.1669  139.9487  156.9422 H   0  0  0  0  0  0  0  0  0  0  0  0
  148.3643  140.6216  158.3429 H   0  0  0  0  0  0  0  0  0  0  0  0
  151.0119  139.7157  159.1515 H   0  0  0  0  0  0  0  0  0  0  0  0
  150.8881  141.3056  156.8391 H   0  0  0  0  0  0  0  0  0  0  0  0
  149.7590  141.6494  160.2306 H   0  0  0  0  0  0  0  0  0  0  0  0
  150.4166  142.9924  157.5806 H   0  0  0  0  0  0  0  0  0  0  0  0
  148.9117  143.0999  158.5002 H   0  0  0  0  0  0  0  0  0  0  0  0
  150.7092  145.0709  158.7961 H   0  0  0  0  0  0  0  0  0  0  0  0
  150.0191  144.3597  160.2627 H   0  0  0  0  0  0  0  0  0  0  0  0
  152.6820  143.6848  158.9585 H   0  0  0  0  0  0  0  0  0  0  0  0
  152.3648  143.9850  160.6703 H   0  0  0  0  0  0  0  0  0  0  0  0
  148.3980  134.6901  164.3801 H   0  0  0  0  0  0  0  0  0  0  0  0
  149.1067  135.8510  163.1952 H   0  0  0  0  0  0  0  0  0  0  0  0
  146.5776  136.2505  164.9173 H   0  0  0  0  0  0  0  0  0  0  0  0
  147.7568  137.5145  164.3866 H   0  0  0  0  0  0  0  0  0  0  0  0
  147.1010  137.2609  162.0704 H   0  0  0  0  0  0  0  0  0  0  0  0
  145.5331  136.6709  162.7369 H   0  0  0  0  0  0  0  0  0  0  0  0
  1  2  1  0  0  0  0
  1 29  1  0  0  0  0
  1 30  1  0  0  0  0
  1 31  1  0  0  0  0
  2  3  1  0  0  0  0
  3 25  1  0  0  0  0
  3  4  1  0  0  0  0
  3 32  1  0  0  0  0
  4  5  1  0  0  0  0
  4 33  1  0  0  0  0
  4 34  1  0  0  0  0
  5  6  1  0  0  0  0
  5 25  1  0  0  0  0
  5 35  1  0  0  0  0
  6  7  1  0  0  0  0
  6  8  1  0  0  0  0
  7 36  1  0  0  0  0
  7 37  1  0  0  0  0
  7 38  1  0  0  0  0
  8 13  1  0  0  0  0
  8  9  2  0  0  0  0
  9 10  1  0  0  0  0
 10 11  2  0  0  0  0
 10 39  1  0  0  0  0
 11 12  1  0  0  0  0
 12 16  1  0  0  0  0
 12 13  2  0  0  0  0
 13 14  1  0  0  0  0
 14 15  2  0  0  0  0
 15 16  1  0  0  0  0
 15 40  1  0  0  0  0
 16 17  1  0  0  0  0
 17 18  1  0  0  0  0
 17 41  1  0  0  0  0
 17 42  1  0  0  0  0
 18 19  1  0  0  0  0
 18 20  1  0  0  0  0
 18 43  1  0  0  0  0
 19 44  1  0  0  0  0
 20 24  1  0  0  0  0
 20 21  1  0  0  0  0
 20 45  1  0  0  0  0
 21 22  1  0  0  0  0
 21 46  1  0  0  0  0
 21 47  1  0  0  0  0
 22 23  1  0  0  0  0
 22 48  1  0  0  0  0
 22 49  1  0  0  0  0
 23 24  1  0  0  0  0
 23 50  1  0  0  0  0
 23 51  1  0  0  0  0
 25 28  1  0  0  0  0
 25 26  1  0  0  0  0
 26 27  1  0  0  0  0
 26 52  1  0  0  0  0
 26 53  1  0  0  0  0
 27 28  1  0  0  0  0
 27 54  1  0  0  0  0
 27 55  1  0  0  0  0
 28 56  1  0  0  0  0
 28 57  1  0  0  0  0
M  END
> <s_m_source_file>
AV-unprocessed.smi

> <i_m_source_file_index>
276

> <i_lp_mmshare_version>
43012

> <i_f3d_flags>
0

> <s_epik_input>
W0NIMl0xW0NIMl1bQ0gyXUMxMltDQEhdKE9bQ0gzXSlbQ0gyXVtDQEhdMk4oW0NIM10pYyhuW2NIXW4zKWMoYzM0KW5bY0hdbjRbQ0gyXVtDQEhdKFtPSF0pW0NAQEhdNVtDSDJdW0NIMl1bQ0gyXU81

> <s_epik_cmdline>
J2VwaWtfcHl0aG9uJywgJy1waCcsICc3LjAnLCAnLXRuJywgJzgnLCAnLW1hJywgJzIwMCcsICctbWV0YWxfYmluZGluZycsICctaW1hZScsICc8aW5maWxlLm1hZT4nLCAnLW9tYWUnLCAnPG91dGZpbGUubWFlPic=

> <r_lp_tautomer_probability>
1

> <r_epik_Ionization_Penalty>
0.00204117

> <r_epik_Ionization_Penalty_Charging>
0

> <r_epik_Ionization_Penalty_Neutral>
0.00204117

> <r_epik_State_Penalty>
0.00127401

> <r_epik_Charging_Adjusted_Penalty>
0.00127401

> <i_epik_Tot_Q>
0

> <i_epik_Tot_abs_Q>
0

> <r_epik_Metal_State_Penalty>
-0

> <b_epik_Metal_Only>
0

> <s_lp_Force_Field>
OPLS_2005

> <r_lp_Energy>
56.2402

> <b_lp_Chiralities_Consistent>
1

> <s_lp_Variant>
AV-unprocessed.smi:276-6

> <Gold.Version>
5.8.1

> <Gold.Id.Protein>
6NUR|6NUR_protein|mol2

> <Gold.PLP.Fitness>
49.7267

> <Gold.PLP.PLP>
-45.9676

> <Gold.PLP.part.hbond>
-2.4608

> <Gold.PLP.part.metal>
0.0000

> <Gold.PLP.part.buried>
-4.3583

> <Gold.PLP.part.nonpolar>
-37.8394

> <Gold.PLP.part.repulsive>
0.0022

> <Gold.PLP.ligand.clash>
0.0000

> <Gold.PLP.ligand.torsion>
1.4995

> <Gold.PLP.Chemscore.Hbond>
2.0000

> <Gold.PLP.Chemscore.CHOScore>
0.0000

> <Gold.PLP.Chemscore.Metal>
0.0000

> <Gold.Chemscore.Hbonds>
donor molecule, donor type, donor heavy atom, donor atom, acceptor molecule, acceptor atom, score
      P1  H  6896  6907       L1    14  0.10

> <Gold.PLP.Chemscore.Internal.Correction>
0.7580

> <Gold.Rescore>
     Score         DG    S(hbond)    S(metal)    S(lipo)     H(rot)  DE(clash)    DE(int)     intcor
     15.34     -17.64       1.80        0.00     112.03       2.72       1.35       0.95       ----

> <Gold.Chemscore.Fitness>
15.3436

> <Gold.Chemscore.DG>
-17.6418

> <Gold.Chemscore.ZeroCoef>
-5.4800

> <Gold.Chemscore.Hbond>
1.7996

> <Gold.Chemscore.Metal>
0.0000

> <Gold.Chemscore.Lipo>
112.0257

> <Gold.Chemscore.Internal_Hbond>
0.0000

> <Gold.Chemscore.DEClash>
1.3524

> <Gold.Chemscore.DEInternal>
0.9458

> <Gold.Chemscore.Rot>
2.7172

> <Gold.Chemscore.Internal.Correction>
   9.000000E+99

> <Gold.Chemscore.Hbonds>
donor molecule, donor type, donor heavy atom, donor atom, acceptor molecule, acceptor atom, score
      P1  H  6896  6907       L1    14  0.12

> <Gold.Chemscore.Hbond.Weighted>
-6.0108

> <Gold.Chemscore.Metal.Weighted>
-0.0000

> <Gold.Chemscore.Lipo.Weighted>
-13.1070

> <Gold.Chemscore.Internal_Hbond.Weighted>
0.0000

> <Gold.Chemscore.DEClash.Weighted>
1.3524

> <Gold.Chemscore.DEInternal.Weighted>
0.9458

> <Gold.Chemscore.Rot.Weighted>
6.9560

> <Gold.Chemscore.Internal.Correction.Weighted>
   9.000000E+99

> <Gold.Protein.RotatedTorsions>
[ 6907 6896 6895 6894 ] final  -65.25 input  -60.11 | X-H torsion
[ 7974 7965 7964 7962 ] final  177.93 input  175.53 | X-H torsion
[ 8008 7997 7996 7995 ] final  -56.81 input   59.86 | X-H torsion
[ 10167 10162 10161 10158 ] final  156.84 input  -65.29 | X-H torsion
[ 10718 10713 10712 10709 ] final -134.38 input   66.30 | X-H torsion
[ 10763 10752 10751 10750 ] final  -55.82 input  -60.55 | X-H torsion
[ 11005 11000 10999 10996 ] final  -53.25 input  -57.11 | X-H torsion

> <Gold.Protein.ActiveResidues>
 VAL166  LYS551  ARG553  GLY616  TRP617  ASP618  TYR619  PRO620  LYS621  CYS622 
 ASP623  PHE694  ASN695  SER759  ASP760  ASP761  ALA762  ILE779  LEU786  VAL792 
 PHE793  MET794  SER795  GLU796  ALA797  LYS798  CYS799  TRP800  GLU811  SER814 

> <Gold.Protein.RotatedAtoms>
  150.7536  134.6187  159.6123 H   0  0  0  0  0  0  0  0  0  0  0  0  # atno 6907 bound_to 6896
  152.3499  134.7016  160.0248 H   0  0  0  0  0  0  0  0  0  0  0  0  # atno 6908 bound_to 6896
  151.7441  133.3287  159.3410 H   0  0  0  0  0  0  0  0  0  0  0  0  # atno 6909 bound_to 6896
  144.7162  140.0320  143.6439 H   0  0  0  0  0  0  0  0  0  0  0  0  # atno 7974 bound_to 7965
  154.4244  140.1121  156.5697 H   0  0  0  0  0  0  0  0  0  0  0  0  # atno 8008 bound_to 7997
  155.6225  140.3495  155.4637 H   0  0  0  0  0  0  0  0  0  0  0  0  # atno 8009 bound_to 7997
  156.0013  140.1199  157.0534 H   0  0  0  0  0  0  0  0  0  0  0  0  # atno 8010 bound_to 7997
  139.4822  144.4972  151.8222 H   0  0  0  0  0  0  0  0  0  0  0  0  # atno 10167 bound_to 10162
  156.2548  130.7175  151.1087 H   0  0  0  0  0  0  0  0  0  0  0  0  # atno 10718 bound_to 10713
  154.1969  135.6418  153.5076 H   0  0  0  0  0  0  0  0  0  0  0  0  # atno 10763 bound_to 10752
  153.0021  135.5442  154.6356 H   0  0  0  0  0  0  0  0  0  0  0  0  # atno 10764 bound_to 10752
  154.5759  135.2921  155.0754 H   0  0  0  0  0  0  0  0  0  0  0  0  # atno 10765 bound_to 10752
  141.0966  133.6624  156.4144 H   0  0  0  0  0  0  0  0  0  0  0  0  # atno 11005 bound_to 11000
  146.0094  139.3157  143.0879 LP  0  0  0  0  0  0  0  0  0  0  0  0  # atno 17320 bound_to 7965
  145.8699  140.9426  143.0656 LP  0  0  0  0  0  0  0  0  0  0  0  0  # atno 17321 bound_to 7965
  140.4462  144.1918  150.5894 LP  0  0  0  0  0  0  0  0  0  0  0  0  # atno 17342 bound_to 10162
  140.4632  143.2441  151.9191 LP  0  0  0  0  0  0  0  0  0  0  0  0  # atno 17343 bound_to 10162
  157.7228  131.0670  150.6061 LP  0  0  0  0  0  0  0  0  0  0  0  0  # atno 17370 bound_to 10713
  156.6144  130.4389  149.5846 LP  0  0  0  0  0  0  0  0  0  0  0  0  # atno 17371 bound_to 10713
  140.5124  134.6382  157.5289 LP  0  0  0  0  0  0  0  0  0  0  0  0  # atno 17394 bound_to 11000
  139.9805  134.7145  155.9869 LP  0  0  0  0  0  0  0  0  0  0  0  0  # atno 17395 bound_to 11000

$$$$
