AV-unprocessed.smi:1947|AV-procd|sdf|7868|dock3
  -GOLD-   2272010 23D 1   1.00000     0.00000
 Structure written by MMmdl.
 39 40  0  0  0  0  0  0  0  0  1 V2000
  152.5665  138.8535  157.9807 C   0  0  0  0  0  0  0  0  0  0  0  0
  152.0340  140.2370  158.3879 C   0  0  1  0  0  0  0  0  0  0  0  0
  153.0628  140.9791  159.2644 C   0  0  0  0  0  0  0  0  0  0  0  0
  152.5575  142.3672  159.6847 C   0  0  0  0  0  0  0  0  0  0  0  0
  152.1852  143.2117  158.4584 C   0  0  0  0  0  0  0  0  0  0  0  0
  151.1537  142.4866  157.5815 C   0  0  0  0  0  0  0  0  0  0  0  0
  151.6500  141.0879  157.1560 C   0  0  2  0  0  0  0  0  0  0  0  0
  150.6090  140.4081  156.4664 O   0  0  0  0  0  0  0  0  0  0  0  0
  151.0097  139.7951  155.2496 C   0  0  0  0  0  0  0  0  0  0  0  0
  149.7543  139.3671  154.4763 C   0  0  0  0  0  0  0  0  0  0  0  0
  149.7514  137.9323  154.2125 N   0  0  0  0  0  0  0  0  0  0  0  0
  150.1075  136.9862  155.0924 C   0  0  0  0  0  0  0  0  0  0  0  0
  150.4474  137.2303  156.2498 O   0  0  0  0  0  0  0  0  0  0  0  0
  150.0488  135.7637  154.5403 N   0  0  0  0  0  0  0  0  0  0  0  0
  150.3650  134.5201  155.1415 C   0  0  0  0  0  0  0  0  0  0  0  0
  150.8194  134.5281  156.4002 N   0  0  0  0  0  0  0  0  0  0  0  0
  151.0886  133.2465  156.8647 N   0  0  0  0  0  0  0  0  0  0  0  0
  150.8266  132.3213  155.9367 C   0  0  0  0  0  0  0  0  0  0  0  0
  150.2250  132.9223  154.4018 S   0  0  0  0  0  0  0  0  0  0  0  0
  153.4573  138.9395  157.3578 H   0  0  0  0  0  0  0  0  0  0  0  0
  151.8213  138.2904  157.4184 H   0  0  0  0  0  0  0  0  0  0  0  0
  152.8291  138.2610  158.8572 H   0  0  0  0  0  0  0  0  0  0  0  0
  151.1351  140.0830  158.9869 H   0  0  0  0  0  0  0  0  0  0  0  0
  153.2882  140.3901  160.1540 H   0  0  0  0  0  0  0  0  0  0  0  0
  154.0020  141.0857  158.7199 H   0  0  0  0  0  0  0  0  0  0  0  0
  151.6881  142.2600  160.3347 H   0  0  0  0  0  0  0  0  0  0  0  0
  153.3211  142.8790  160.2709 H   0  0  0  0  0  0  0  0  0  0  0  0
  151.7896  144.1764  158.7776 H   0  0  0  0  0  0  0  0  0  0  0  0
  153.0808  143.4224  157.8724 H   0  0  0  0  0  0  0  0  0  0  0  0
  150.2166  142.3885  158.1311 H   0  0  0  0  0  0  0  0  0  0  0  0
  150.9338  143.0999  156.7082 H   0  0  0  0  0  0  0  0  0  0  0  0
  152.5278  141.1868  156.5141 H   0  0  0  0  0  0  0  0  0  0  0  0
  151.6134  140.4709  154.6438 H   0  0  0  0  0  0  0  0  0  0  0  0
  151.6249  138.9211  155.4667 H   0  0  0  0  0  0  0  0  0  0  0  0
  148.8560  139.6451  155.0296 H   0  0  0  0  0  0  0  0  0  0  0  0
  149.7078  139.8938  153.5228 H   0  0  0  0  0  0  0  0  0  0  0  0
  149.4883  137.6439  153.2816 H   0  0  0  0  0  0  0  0  0  0  0  0
  149.7543  135.7172  153.5759 H   0  0  0  0  0  0  0  0  0  0  0  0
  150.9896  131.2769  156.1575 H   0  0  0  0  0  0  0  0  0  0  0  0
  1  2  1  0  0  0  0
  1 20  1  0  0  0  0
  1 21  1  0  0  0  0
  1 22  1  0  0  0  0
  2  7  1  0  0  0  0
  2  3  1  0  0  0  0
  2 23  1  0  0  0  0
  3  4  1  0  0  0  0
  3 24  1  0  0  0  0
  3 25  1  0  0  0  0
  4  5  1  0  0  0  0
  4 26  1  0  0  0  0
  4 27  1  0  0  0  0
  5  6  1  0  0  0  0
  5 28  1  0  0  0  0
  5 29  1  0  0  0  0
  6  7  1  0  0  0  0
  6 30  1  0  0  0  0
  6 31  1  0  0  0  0
  7  8  1  0  0  0  0
  7 32  1  0  0  0  0
  8  9  1  0  0  0  0
  9 10  1  0  0  0  0
  9 33  1  0  0  0  0
  9 34  1  0  0  0  0
 10 11  1  0  0  0  0
 10 35  1  0  0  0  0
 10 36  1  0  0  0  0
 11 12  1  0  0  0  0
 11 37  1  0  0  0  0
 12 13  2  0  0  0  0
 12 14  1  0  0  0  0
 14 15  1  0  0  0  0
 14 38  1  0  0  0  0
 15 19  1  0  0  0  0
 15 16  2  0  0  0  0
 16 17  1  0  0  0  0
 17 18  2  0  0  0  0
 18 19  1  0  0  0  0
 18 39  1  0  0  0  0
M  END
> <s_m_source_file>
AV-unprocessed.smi

> <i_m_source_file_index>
1947

> <i_lp_mmshare_version>
43012

> <i_f3d_flags>
0

> <s_epik_input>
W0NIM11bQ0BASF0xW0NIMl1bQ0gyXVtDSDJdW0NIMl1bQ0BIXTFPW0NIMl1bQ0gyXVtOSF1DKD1PKVtOSF1jMm5uW2NIXXMy

> <s_epik_cmdline>
J2VwaWtfcHl0aG9uJywgJy1waCcsICc3LjAnLCAnLXRuJywgJzgnLCAnLW1hJywgJzIwMCcsICctbWV0YWxfYmluZGluZycsICctaW1hZScsICc8aW5maWxlLm1hZT4nLCAnLW9tYWUnLCAnPG91dGZpbGUubWFlPic=

> <r_lp_tautomer_probability>
1

> <r_epik_Ionization_Penalty>
0.00220897

> <r_epik_Ionization_Penalty_Charging>
0

> <r_epik_Ionization_Penalty_Neutral>
0.00220897

> <r_epik_State_Penalty>
-0

> <r_epik_Charging_Adjusted_Penalty>
0

> <i_epik_Tot_Q>
0

> <i_epik_Tot_abs_Q>
0

> <r_epik_Metal_State_Penalty>
0.345002

> <b_epik_Metal_Only>
0

> <s_lp_Force_Field>
OPLS_2005

> <r_lp_Energy>
7.32574

> <b_lp_Chiralities_Consistent>
1

> <s_lp_Variant>
AV-unprocessed.smi:1947-4

> <Gold.Version>
5.8.1

> <Gold.Id.Protein>
6NUR|6NUR_protein|mol2

> <Gold.PLP.Fitness>
39.8672

> <Gold.PLP.PLP>
-33.4571

> <Gold.PLP.part.hbond>
-3.0000

> <Gold.PLP.part.metal>
0.0000

> <Gold.PLP.part.buried>
-4.4004

> <Gold.PLP.part.nonpolar>
-26.0536

> <Gold.PLP.part.repulsive>
0.1010

> <Gold.PLP.ligand.clash>
0.0000

> <Gold.PLP.ligand.torsion>
1.1965

> <Gold.PLP.Chemscore.Hbond>
2.9199

> <Gold.PLP.Chemscore.CHOScore>
0.0000

> <Gold.PLP.Chemscore.Metal>
0.0000

> <Gold.Chemscore.Hbonds>
donor molecule, donor type, donor heavy atom, donor atom, acceptor molecule, acceptor atom, score
      L1  H    11    37       P1  7948  0.98
      L1  H    14    38       P1  7948  0.70
      P1  H  6896  6908       L1    17  0.15

> <Gold.PLP.Chemscore.Internal.Correction>
0.0436

> <Gold.Rescore>
     Score         DG    S(hbond)    S(metal)    S(lipo)     H(rot)  DE(clash)    DE(int)     intcor
     14.41     -18.60       2.56        0.00      81.38       1.94       0.32       3.88       ----

> <Gold.Chemscore.Fitness>
14.4101

> <Gold.Chemscore.DG>
-18.6042

> <Gold.Chemscore.ZeroCoef>
-5.4800

> <Gold.Chemscore.Hbond>
2.5645

> <Gold.Chemscore.Metal>
0.0000

> <Gold.Chemscore.Lipo>
81.3779

> <Gold.Chemscore.Internal_Hbond>
0.0000

> <Gold.Chemscore.DEClash>
0.3155

> <Gold.Chemscore.DEInternal>
3.8786

> <Gold.Chemscore.Rot>
1.9385

> <Gold.Chemscore.Internal.Correction>
   9.000000E+99

> <Gold.Chemscore.Hbonds>
donor molecule, donor type, donor heavy atom, donor atom, acceptor molecule, acceptor atom, score
      L1  H    11    37       P1  7948  0.81
      L1  H    14    38       P1  7948  0.07
      P1  H  6896  6908       L1    17  0.06

> <Gold.Chemscore.Hbond.Weighted>
-8.5656

> <Gold.Chemscore.Metal.Weighted>
-0.0000

> <Gold.Chemscore.Lipo.Weighted>
-9.5212

> <Gold.Chemscore.Internal_Hbond.Weighted>
0.0000

> <Gold.Chemscore.DEClash.Weighted>
0.3155

> <Gold.Chemscore.DEInternal.Weighted>
3.8786

> <Gold.Chemscore.Rot.Weighted>
4.9625

> <Gold.Chemscore.Internal.Correction.Weighted>
   9.000000E+99

> <Gold.Protein.RotatedTorsions>
[ 6907 6896 6895 6894 ] final   99.83 input  -60.11 | X-H torsion
[ 7974 7965 7964 7962 ] final  111.56 input  175.53 | X-H torsion
[ 8008 7997 7996 7995 ] final   71.34 input   59.86 | X-H torsion
[ 10167 10162 10161 10158 ] final  118.08 input  -65.29 | X-H torsion
[ 10718 10713 10712 10709 ] final   88.25 input   66.30 | X-H torsion
[ 10763 10752 10751 10750 ] final  136.38 input  -60.55 | X-H torsion
[ 11005 11000 10999 10996 ] final   -7.48 input  -57.11 | X-H torsion

> <Gold.Protein.ActiveResidues>
 VAL166  LYS551  ARG553  GLY616  TRP617  ASP618  TYR619  PRO620  LYS621  CYS622 
 ASP623  PHE694  ASN695  SER759  ASP760  ASP761  ALA762  ILE779  LEU786  VAL792 
 PHE793  MET794  SER795  GLU796  ALA797  LYS798  CYS799  TRP800  GLU811  SER814 

> <Gold.Protein.RotatedAtoms>
  152.5384  134.0369  159.8049 H   0  0  0  0  0  0  0  0  0  0  0  0  # atno 6907 bound_to 6896
  151.0531  133.5600  159.2648 H   0  0  0  0  0  0  0  0  0  0  0  0  # atno 6908 bound_to 6896
  151.2526  135.0635  159.9121 H   0  0  0  0  0  0  0  0  0  0  0  0  # atno 6909 bound_to 6896
  145.2406  139.2780  143.4119 H   0  0  0  0  0  0  0  0  0  0  0  0  # atno 7974 bound_to 7965
  155.7524  140.3488  155.5157 H   0  0  0  0  0  0  0  0  0  0  0  0  # atno 8008 bound_to 7997
  155.8991  140.1031  157.1384 H   0  0  0  0  0  0  0  0  0  0  0  0  # atno 8009 bound_to 7997
  154.4042  140.1289  156.4401 H   0  0  0  0  0  0  0  0  0  0  0  0  # atno 8010 bound_to 7997
  139.6135  144.7087  151.2791 H   0  0  0  0  0  0  0  0  0  0  0  0  # atno 10167 bound_to 10162
  157.6947  131.0287  150.3246 H   0  0  0  0  0  0  0  0  0  0  0  0  # atno 10718 bound_to 10713
  153.8556  135.3074  155.3435 H   0  0  0  0  0  0  0  0  0  0  0  0  # atno 10763 bound_to 10752
  154.7872  135.4803  153.9975 H   0  0  0  0  0  0  0  0  0  0  0  0  # atno 10764 bound_to 10752
  153.1492  135.6840  153.9001 H   0  0  0  0  0  0  0  0  0  0  0  0  # atno 10765 bound_to 10752
  140.7132  133.8891  155.8766 H   0  0  0  0  0  0  0  0  0  0  0  0  # atno 11005 bound_to 11000
  146.3329  140.2769  142.8608 LP  0  0  0  0  0  0  0  0  0  0  0  0  # atno 17320 bound_to 7965
  144.9592  140.8258  143.5524 LP  0  0  0  0  0  0  0  0  0  0  0  0  # atno 17321 bound_to 7965
  140.7335  143.6792  150.8015 LP  0  0  0  0  0  0  0  0  0  0  0  0  # atno 17342 bound_to 10162
  140.0391  143.5365  152.2726 LP  0  0  0  0  0  0  0  0  0  0  0  0  # atno 17343 bound_to 10162
  156.3728  130.3866  149.7162 LP  0  0  0  0  0  0  0  0  0  0  0  0  # atno 17370 bound_to 10713
  156.4571  130.7934  151.2955 LP  0  0  0  0  0  0  0  0  0  0  0  0  # atno 17371 bound_to 10713
  141.0067  134.1077  157.4263 LP  0  0  0  0  0  0  0  0  0  0  0  0  # atno 17394 bound_to 11000
  139.8866  135.0083  156.6511 LP  0  0  0  0  0  0  0  0  0  0  0  0  # atno 17395 bound_to 11000

$$$$
