AV-unprocessed.smi:776|AV-procd|sdf|3700|dock7
  -GOLD-   22720 1123D 1   1.00000     0.00000
 Structure written by MMmdl.
 44 45  0  0  0  0  0  0  0  0  1 V2000
  144.9841  142.9833  154.1992 C   0  0  0  0  0  0  0  0  0  0  0  0
  145.3051  141.6456  154.8826 C   0  0  0  0  0  0  0  0  0  0  0  0
  145.0302  141.6615  156.3941 C   0  0  0  0  0  0  0  0  0  0  0  0
  146.6939  141.1781  154.5701 C   0  0  0  0  0  0  0  0  0  0  0  0
  147.5972  141.9896  154.0296 N   0  0  0  0  0  0  0  0  0  0  0  0
  148.7275  141.1720  153.8904 O   0  0  0  0  0  0  0  0  0  0  0  0
  148.3701  139.9613  154.3812 C   0  0  0  0  0  0  0  0  0  0  0  0
  149.3552  138.8424  154.3262 C   0  0  0  0  0  0  0  0  0  0  0  0
  150.7377  139.2532  154.8577 C   0  0  0  0  0  0  0  0  0  0  0  0
  150.6346  139.9748  156.1208 N   0  0  0  0  0  0  0  0  0  0  0  0
  151.6723  140.3338  156.8954 C   0  0  0  0  0  0  0  0  0  0  0  0
  152.8343  140.0430  156.6109 O   0  0  0  0  0  0  0  0  0  0  0  0
  151.2994  140.9212  158.0611 N   0  0  0  0  0  0  0  0  0  0  0  0
  150.2102  141.9148  158.0974 C   0  0  0  0  0  0  0  0  0  0  0  0
  150.8119  143.3272  157.9561 C   0  0  0  0  0  0  0  0  0  0  0  0
  151.8670  143.5937  159.0458 C   0  0  0  0  0  0  0  0  0  0  0  0
  152.8921  142.4481  159.1445 C   0  0  0  0  0  0  0  0  0  0  0  0
  152.1788  141.0835  159.2404 C   0  0  2  0  0  0  0  0  0  0  0  0
  153.1595  139.9206  159.5016 C   0  0  0  0  0  0  0  0  0  0  0  0
  147.1093  139.9019  154.8022 N   0  0  0  0  0  0  0  0  0  0  0  0
  145.1158  142.9122  153.1190 H   0  0  0  0  0  0  0  0  0  0  0  0
  145.6315  143.7818  154.5632 H   0  0  0  0  0  0  0  0  0  0  0  0
  143.9524  143.2816  154.3866 H   0  0  0  0  0  0  0  0  0  0  0  0
  144.6198  140.9119  154.4555 H   0  0  0  0  0  0  0  0  0  0  0  0
  145.1949  140.6772  156.8335 H   0  0  0  0  0  0  0  0  0  0  0  0
  143.9988  141.9474  156.6020 H   0  0  0  0  0  0  0  0  0  0  0  0
  145.6799  142.3701  156.9090 H   0  0  0  0  0  0  0  0  0  0  0  0
  148.9632  138.0057  154.9056 H   0  0  0  0  0  0  0  0  0  0  0  0
  149.4307  138.4994  153.2935 H   0  0  0  0  0  0  0  0  0  0  0  0
  151.3782  138.3774  154.9768 H   0  0  0  0  0  0  0  0  0  0  0  0
  151.2334  139.9049  154.1376 H   0  0  0  0  0  0  0  0  0  0  0  0
  149.7053  140.2085  156.4387 H   0  0  0  0  0  0  0  0  0  0  0  0
  149.4595  141.7620  157.3213 H   0  0  0  0  0  0  0  0  0  0  0  0
  149.6691  141.8304  159.0408 H   0  0  0  0  0  0  0  0  0  0  0  0
  151.2706  143.4314  156.9718 H   0  0  0  0  0  0  0  0  0  0  0  0
  150.0236  144.0786  158.0101 H   0  0  0  0  0  0  0  0  0  0  0  0
  152.3745  144.5402  158.8575 H   0  0  0  0  0  0  0  0  0  0  0  0
  151.3632  143.7016  160.0071 H   0  0  0  0  0  0  0  0  0  0  0  0
  153.5468  142.4633  158.2718 H   0  0  0  0  0  0  0  0  0  0  0  0
  153.5317  142.6034  160.0139 H   0  0  0  0  0  0  0  0  0  0  0  0
  151.5293  141.1084  160.1173 H   0  0  0  0  0  0  0  0  0  0  0  0
  153.6067  140.0160  160.4912 H   0  0  0  0  0  0  0  0  0  0  0  0
  153.9832  139.8987  158.7884 H   0  0  0  0  0  0  0  0  0  0  0  0
  152.6502  138.9570  159.4672 H   0  0  0  0  0  0  0  0  0  0  0  0
  1  2  1  0  0  0  0
  1 21  1  0  0  0  0
  1 22  1  0  0  0  0
  1 23  1  0  0  0  0
  2  3  1  0  0  0  0
  2  4  1  0  0  0  0
  2 24  1  0  0  0  0
  3 25  1  0  0  0  0
  3 26  1  0  0  0  0
  3 27  1  0  0  0  0
  4 20  1  0  0  0  0
  4  5  2  0  0  0  0
  5  6  1  0  0  0  0
  6  7  1  0  0  0  0
  7  8  1  0  0  0  0
  7 20  2  0  0  0  0
  8  9  1  0  0  0  0
  8 28  1  0  0  0  0
  8 29  1  0  0  0  0
  9 10  1  0  0  0  0
  9 30  1  0  0  0  0
  9 31  1  0  0  0  0
 10 11  1  0  0  0  0
 10 32  1  0  0  0  0
 11 12  2  0  0  0  0
 11 13  1  0  0  0  0
 13 18  1  0  0  0  0
 13 14  1  0  0  0  0
 14 15  1  0  0  0  0
 14 33  1  0  0  0  0
 14 34  1  0  0  0  0
 15 16  1  0  0  0  0
 15 35  1  0  0  0  0
 15 36  1  0  0  0  0
 16 17  1  0  0  0  0
 16 37  1  0  0  0  0
 16 38  1  0  0  0  0
 17 18  1  0  0  0  0
 17 39  1  0  0  0  0
 17 40  1  0  0  0  0
 18 19  1  0  0  0  0
 18 41  1  0  0  0  0
 19 42  1  0  0  0  0
 19 43  1  0  0  0  0
 19 44  1  0  0  0  0
M  END
> <s_m_source_file>
AV-unprocessed.smi

> <i_m_source_file_index>
776

> <i_lp_mmshare_version>
43012

> <i_f3d_flags>
0

> <s_epik_input>
W0NIM11bQ0hdKFtDSDNdKWMxbm9jKG4xKVtDSDJdW0NIMl1bTkhdQyg9TylOMltDSDJdW0NIMl1bQ0gyXVtDSDJdW0NASF0yW0NIM10=

> <s_epik_cmdline>
J2VwaWtfcHl0aG9uJywgJy1waCcsICc3LjAnLCAnLXRuJywgJzgnLCAnLW1hJywgJzIwMCcsICctbWV0YWxfYmluZGluZycsICctaW1hZScsICc8aW5maWxlLm1hZT4nLCAnLW9tYWUnLCAnPG91dGZpbGUubWFlPic=

> <r_lp_tautomer_probability>
1

> <r_epik_Ionization_Penalty>
6.23032e-05

> <r_epik_Ionization_Penalty_Charging>
0

> <r_epik_Ionization_Penalty_Neutral>
6.23032e-05

> <r_epik_State_Penalty>
-0

> <r_epik_Charging_Adjusted_Penalty>
0

> <i_epik_Tot_Q>
0

> <i_epik_Tot_abs_Q>
0

> <r_epik_Metal_State_Penalty>
-0

> <b_epik_Metal_Only>
0

> <s_lp_Force_Field>
OPLS_2005

> <r_lp_Energy>
25.3462

> <b_lp_Chiralities_Consistent>
1

> <s_lp_Variant>
AV-unprocessed.smi:776-2

> <Gold.Version>
5.8.1

> <Gold.Id.Protein>
6NUR|6NUR_protein|mol2

> <Gold.PLP.Fitness>
41.7853

> <Gold.PLP.PLP>
-37.2560

> <Gold.PLP.part.hbond>
-4.6283

> <Gold.PLP.part.metal>
0.0000

> <Gold.PLP.part.buried>
-0.0921

> <Gold.PLP.part.nonpolar>
-33.3935

> <Gold.PLP.part.repulsive>
2.4874

> <Gold.PLP.ligand.clash>
0.0000

> <Gold.PLP.ligand.torsion>
0.7986

> <Gold.PLP.Chemscore.Hbond>
1.8778

> <Gold.PLP.Chemscore.CHOScore>
0.0000

> <Gold.PLP.Chemscore.Metal>
0.0000

> <Gold.Chemscore.Hbonds>
donor molecule, donor type, donor heavy atom, donor atom, acceptor molecule, acceptor atom, score
      P1  H  7997  8010       L1    12  0.90
      P1  H  8011  8017       L1     6  0.30

> <Gold.PLP.Chemscore.Internal.Correction>
0.4932

> <Gold.Rescore>
     Score         DG    S(hbond)    S(metal)    S(lipo)     H(rot)  DE(clash)    DE(int)     intcor
     11.40     -13.22       0.99        0.00      74.04       1.65       0.09       1.73       ----

> <Gold.Chemscore.Fitness>
11.3982

> <Gold.Chemscore.DG>
-13.2176

> <Gold.Chemscore.ZeroCoef>
-5.4800

> <Gold.Chemscore.Hbond>
0.9855

> <Gold.Chemscore.Metal>
0.0000

> <Gold.Chemscore.Lipo>
74.0394

> <Gold.Chemscore.Internal_Hbond>
0.0000

> <Gold.Chemscore.DEClash>
0.0905

> <Gold.Chemscore.DEInternal>
1.7289

> <Gold.Chemscore.Rot>
1.6470

> <Gold.Chemscore.Internal.Correction>
   9.000000E+99

> <Gold.Chemscore.Hbonds>
donor molecule, donor type, donor heavy atom, donor atom, acceptor molecule, acceptor atom, score
      P1  H  7997  8010       L1    12  0.87
      P1  H  8011  8017       L1     6  0.05

> <Gold.Chemscore.Hbond.Weighted>
-3.2914

> <Gold.Chemscore.Metal.Weighted>
-0.0000

> <Gold.Chemscore.Lipo.Weighted>
-8.6626

> <Gold.Chemscore.Internal_Hbond.Weighted>
0.0000

> <Gold.Chemscore.DEClash.Weighted>
0.0905

> <Gold.Chemscore.DEInternal.Weighted>
1.7289

> <Gold.Chemscore.Rot.Weighted>
4.2164

> <Gold.Chemscore.Internal.Correction.Weighted>
   9.000000E+99

> <Gold.Protein.RotatedTorsions>
[ 6907 6896 6895 6894 ] final   35.17 input  -60.11 | X-H torsion
[ 7974 7965 7964 7962 ] final   69.62 input  175.53 | X-H torsion
[ 8008 7997 7996 7995 ] final   51.63 input   59.86 | X-H torsion
[ 10167 10162 10161 10158 ] final  -16.19 input  -65.29 | X-H torsion
[ 10718 10713 10712 10709 ] final  -21.97 input   66.30 | X-H torsion
[ 10763 10752 10751 10750 ] final   78.36 input  -60.55 | X-H torsion
[ 11005 11000 10999 10996 ] final  152.45 input  -57.11 | X-H torsion

> <Gold.Protein.ActiveResidues>
 VAL166  LYS551  ARG553  GLY616  TRP617  ASP618  TYR619  PRO620  LYS621  CYS622 
 ASP623  PHE694  ASN695  SER759  ASP760  ASP761  ALA762  ILE779  LEU786  VAL792 
 PHE793  MET794  SER795  GLU796  ALA797  LYS798  CYS799  TRP800  GLU811  SER814 

> <Gold.Protein.RotatedAtoms>
  152.1125  134.9264  160.0565 H   0  0  0  0  0  0  0  0  0  0  0  0  # atno 6907 bound_to 6896
  152.0436  133.3983  159.4355 H   0  0  0  0  0  0  0  0  0  0  0  0  # atno 6908 bound_to 6896
  150.6844  134.3307  159.4869 H   0  0  0  0  0  0  0  0  0  0  0  0  # atno 6909 bound_to 6896
  145.7881  139.2920  143.1226 H   0  0  0  0  0  0  0  0  0  0  0  0  # atno 7974 bound_to 7965
  155.4384  140.3453  155.4287 H   0  0  0  0  0  0  0  0  0  0  0  0  # atno 8008 bound_to 7997
  156.1293  140.1509  156.9119 H   0  0  0  0  0  0  0  0  0  0  0  0  # atno 8009 bound_to 7997
  154.4882  140.0849  156.7516 H   0  0  0  0  0  0  0  0  0  0  0  0  # atno 8010 bound_to 7997
  140.7230  143.5141  150.9713 H   0  0  0  0  0  0  0  0  0  0  0  0  # atno 10167 bound_to 10162
  156.5109  130.4610  149.6649 H   0  0  0  0  0  0  0  0  0  0  0  0  # atno 10718 bound_to 10713
  153.0868  135.4880  154.8612 H   0  0  0  0  0  0  0  0  0  0  0  0  # atno 10763 bound_to 10752
  154.7220  135.3041  154.9033 H   0  0  0  0  0  0  0  0  0  0  0  0  # atno 10764 bound_to 10752
  153.9695  135.6803  153.4800 H   0  0  0  0  0  0  0  0  0  0  0  0  # atno 10765 bound_to 10752
  140.1309  134.8802  157.2202 H   0  0  0  0  0  0  0  0  0  0  0  0  # atno 11005 bound_to 11000
  146.0005  140.8525  143.0021 LP  0  0  0  0  0  0  0  0  0  0  0  0  # atno 17320 bound_to 7965
  144.6786  140.2345  143.7351 LP  0  0  0  0  0  0  0  0  0  0  0  0  # atno 17321 bound_to 7965
  139.8856  143.7017  152.3152 LP  0  0  0  0  0  0  0  0  0  0  0  0  # atno 17342 bound_to 10162
  139.7315  144.7581  151.0795 LP  0  0  0  0  0  0  0  0  0  0  0  0  # atno 17343 bound_to 10162
  156.3241  130.7296  151.2214 LP  0  0  0  0  0  0  0  0  0  0  0  0  # atno 17370 bound_to 10713
  157.7450  131.0447  150.4809 LP  0  0  0  0  0  0  0  0  0  0  0  0  # atno 17371 bound_to 10713
  140.2843  134.3313  155.7333 LP  0  0  0  0  0  0  0  0  0  0  0  0  # atno 17394 bound_to 11000
  141.2170  133.7497  156.9410 LP  0  0  0  0  0  0  0  0  0  0  0  0  # atno 17395 bound_to 11000

$$$$
