AV-unprocessed.smi:798|AV-procd|sdf|3777|dock1
  -GOLD-   22720 1213D 1   1.00000     0.00000
 Structure written by MMmdl.
 33 35  0  0  0  0  0  0  0  0  2 V2000
  149.6663  135.9362  158.9172 O   0  0  0  0  0  0  0  0  0  0  0  0
  149.1322  136.9846  159.2864 C   0  0  0  0  0  0  0  0  0  0  0  0
  148.2517  137.1203  160.3040 N   0  5  0  0  0  0  0  0  0  0  0  0
  147.8009  136.0324  160.9503 C   0  0  0  0  0  0  0  0  0  0  0  0
  147.6520  134.8442  160.3429 N   0  0  0  0  0  0  0  0  0  0  0  0
  147.1695  133.8551  161.1894 N   0  0  0  0  0  0  0  0  0  0  0  0
  146.9587  134.3275  162.4177 C   0  0  0  0  0  0  0  0  0  0  0  0
  147.3256  136.0235  162.6510 S   0  0  0  0  0  0  0  0  0  0  0  0
  149.4198  138.1362  158.6639 N   0  0  0  0  0  0  0  0  0  0  0  0
  150.3532  138.2941  157.5493 C   0  0  2  0  0  0  0  0  0  0  0  0
  151.3568  139.4609  157.7422 C   0  0  2  0  0  0  0  0  0  0  0  0
  150.6342  140.7717  158.1202 C   0  0  0  0  0  0  0  0  0  0  0  0
  149.8996  141.1373  156.8173 C   0  0  0  0  0  0  0  0  0  0  0  0
  150.3295  140.0114  155.8558 C   0  0  1  0  0  0  0  0  0  0  0  0
  151.7639  139.7579  156.3050 C   0  0  0  0  0  0  0  0  0  0  0  0
  149.6124  138.6978  156.2461 C   0  0  1  0  0  0  0  0  0  0  0  0
  149.6890  137.6289  155.1386 C   0  0  0  0  0  0  0  0  0  0  0  0
  149.1087  138.1142  153.9467 O   0  0  0  0  0  0  0  0  0  0  0  0
  146.5810  133.6746  163.1902 H   0  0  0  0  0  0  0  0  0  0  0  0
  148.9572  138.9706  158.9936 H   0  0  0  0  0  0  0  0  0  0  0  0
  150.9001  137.3608  157.4013 H   0  0  0  0  0  0  0  0  0  0  0  0
  152.1854  139.2161  158.4071 H   0  0  0  0  0  0  0  0  0  0  0  0
  149.9597  140.6695  158.9704 H   0  0  0  0  0  0  0  0  0  0  0  0
  151.3596  141.5453  158.3752 H   0  0  0  0  0  0  0  0  0  0  0  0
  148.8179  141.1817  156.9485 H   0  0  0  0  0  0  0  0  0  0  0  0
  150.2314  142.1098  156.4518 H   0  0  0  0  0  0  0  0  0  0  0  0
  150.2172  140.2801  154.8049 H   0  0  0  0  0  0  0  0  0  0  0  0
  152.4089  140.6332  156.2091 H   0  0  0  0  0  0  0  0  0  0  0  0
  152.2395  138.9122  155.8066 H   0  0  0  0  0  0  0  0  0  0  0  0
  148.5587  138.9106  156.4372 H   0  0  0  0  0  0  0  0  0  0  0  0
  150.7286  137.3743  154.9315 H   0  0  0  0  0  0  0  0  0  0  0  0
  149.1853  136.7084  155.4343 H   0  0  0  0  0  0  0  0  0  0  0  0
  149.0980  137.4158  153.3104 H   0  0  0  0  0  0  0  0  0  0  0  0
  1  2  2  0  0  0  0
  2  3  1  0  0  0  0
  2  9  1  0  0  0  0
  3  4  1  0  0  0  0
  4  8  1  0  0  0  0
  4  5  2  0  0  0  0
  5  6  1  0  0  0  0
  6  7  2  0  0  0  0
  7  8  1  0  0  0  0
  7 19  1  0  0  0  0
  9 10  1  0  0  0  0
  9 20  1  0  0  0  0
 10 16  1  0  0  0  0
 10 11  1  0  0  0  0
 10 21  1  0  0  0  0
 11 15  1  0  0  0  0
 11 12  1  0  0  0  0
 11 22  1  0  0  0  0
 12 13  1  0  0  0  0
 12 23  1  0  0  0  0
 12 24  1  0  0  0  0
 13 14  1  0  0  0  0
 13 25  1  0  0  0  0
 13 26  1  0  0  0  0
 14 15  1  0  0  0  0
 14 16  1  0  0  0  0
 14 27  1  0  0  0  0
 15 28  1  0  0  0  0
 15 29  1  0  0  0  0
 16 17  1  0  0  0  0
 16 30  1  0  0  0  0
 17 18  1  0  0  0  0
 17 31  1  0  0  0  0
 17 32  1  0  0  0  0
 18 33  1  0  0  0  0
M  CHG  1   3  -1
M  END
> <s_m_source_file>
AV-unprocessed.smi

> <i_m_source_file_index>
798

> <i_lp_mmshare_version>
43012

> <i_f3d_flags>
0

> <s_epik_input>
W0NIMl0xW0NIMl1bQ0BASF0oW0NIMl0yKVtDQEBIXShbQ0gyXVtPSF0pW0NAQEhdKFtDQEhdMTIpW05IXUMoPU8pW05IXWMzbm5bY0hdczM=

> <s_epik_cmdline>
J2VwaWtfcHl0aG9uJywgJy1waCcsICc3LjAnLCAnLXRuJywgJzgnLCAnLW1hJywgJzIwMCcsICctbWV0YWxfYmluZGluZycsICctaW1hZScsICc8aW5maWxlLm1hZT4nLCAnLW9tYWUnLCAnPG91dGZpbGUubWFlPic=

> <r_lp_tautomer_probability>
1

> <r_epik_Ionization_Penalty>
4.53732

> <r_epik_Ionization_Penalty_Charging>
4.48632

> <r_epik_Ionization_Penalty_Neutral>
0.0510007

> <r_epik_State_Penalty>
4.48602

> <r_epik_Charging_Adjusted_Penalty>
8.97234

> <i_epik_Tot_Q>
-1

> <i_epik_Tot_abs_Q>
1

> <r_epik_Metal_State_Penalty>
0.812492

> <b_epik_Metal_Only>
1

> <s_lp_Force_Field>
OPLS_2005

> <r_lp_Energy>
46.8419

> <b_lp_Chiralities_Consistent>
1

> <s_lp_Variant>
AV-unprocessed.smi:798-9

> <Gold.Version>
5.8.1

> <Gold.Id.Protein>
6NUR|6NUR_protein|mol2

> <Gold.PLP.Fitness>
40.9918

> <Gold.PLP.PLP>
-29.0654

> <Gold.PLP.part.hbond>
-4.0000

> <Gold.PLP.part.metal>
0.0000

> <Gold.PLP.part.buried>
-5.5009

> <Gold.PLP.part.nonpolar>
-20.9051

> <Gold.PLP.part.repulsive>
0.2008

> <Gold.PLP.ligand.clash>
0.0000

> <Gold.PLP.ligand.torsion>
0.2947

> <Gold.PLP.Chemscore.Hbond>
4.1466

> <Gold.PLP.Chemscore.CHOScore>
0.0000

> <Gold.PLP.Chemscore.Metal>
0.0000

> <Gold.Chemscore.Hbonds>
donor molecule, donor type, donor heavy atom, donor atom, acceptor molecule, acceptor atom, score
      L1  H    18    33       P1  7948  1.00
      P1  H  6896  6909       L1     1  1.00
      P1  H  6931  6943       L1     3  1.19
      P1  H  6934  6947       L1     3  0.55

> <Gold.PLP.Chemscore.Internal.Correction>
0.0759

> <Gold.Rescore>
     Score         DG    S(hbond)    S(metal)    S(lipo)     H(rot)  DE(clash)    DE(int)     intcor
     14.20     -16.00       2.92        0.00      48.45       1.92       0.00       1.79       ----

> <Gold.Chemscore.Fitness>
14.2032

> <Gold.Chemscore.DG>
-15.9980

> <Gold.Chemscore.ZeroCoef>
-5.4800

> <Gold.Chemscore.Hbond>
2.9239

> <Gold.Chemscore.Metal>
0.0000

> <Gold.Chemscore.Lipo>
48.4519

> <Gold.Chemscore.Internal_Hbond>
0.0000

> <Gold.Chemscore.DEClash>
0.0029

> <Gold.Chemscore.DEInternal>
1.7919

> <Gold.Chemscore.Rot>
1.9207

> <Gold.Chemscore.Internal.Correction>
   9.000000E+99

> <Gold.Chemscore.Hbonds>
donor molecule, donor type, donor heavy atom, donor atom, acceptor molecule, acceptor atom, score
      L1  H    18    33       P1  7948  1.00
      P1  H  6896  6909       L1     1  0.98
      P1  H  6931  6943       L1     3  0.16
      P1  H  6934  6947       L1     3  0.25

> <Gold.Chemscore.Hbond.Weighted>
-9.7660

> <Gold.Chemscore.Metal.Weighted>
-0.0000

> <Gold.Chemscore.Lipo.Weighted>
-5.6689

> <Gold.Chemscore.Internal_Hbond.Weighted>
0.0000

> <Gold.Chemscore.DEClash.Weighted>
0.0029

> <Gold.Chemscore.DEInternal.Weighted>
1.7919

> <Gold.Chemscore.Rot.Weighted>
4.9169

> <Gold.Chemscore.Internal.Correction.Weighted>
   9.000000E+99

> <Gold.Protein.RotatedTorsions>
[ 6907 6896 6895 6894 ] final   46.78 input  -60.11 | X-H torsion
[ 7974 7965 7964 7962 ] final -135.69 input  175.53 | X-H torsion
[ 8008 7997 7996 7995 ] final   82.63 input   59.86 | X-H torsion
[ 10167 10162 10161 10158 ] final -156.10 input  -65.29 | X-H torsion
[ 10718 10713 10712 10709 ] final -105.94 input   66.30 | X-H torsion
[ 10763 10752 10751 10750 ] final -133.08 input  -60.55 | X-H torsion
[ 11005 11000 10999 10996 ] final -112.88 input  -57.11 | X-H torsion

> <Gold.Protein.ActiveResidues>
 VAL166  LYS551  ARG553  GLY616  TRP617  ASP618  TYR619  PRO620  LYS621  CYS622 
 ASP623  PHE694  ASN695  SER759  ASP760  ASP761  ALA762  ILE779  LEU786  VAL792 
 PHE793  MET794  SER795  GLU796  ALA797  LYS798  CYS799  TRP800  GLU811  SER814 

> <Gold.Protein.RotatedAtoms>
  152.2604  134.8040  160.0431 H   0  0  0  0  0  0  0  0  0  0  0  0  # atno 6907 bound_to 6896
  151.8688  133.3466  159.3736 H   0  0  0  0  0  0  0  0  0  0  0  0  # atno 6908 bound_to 6896
  150.7115  134.5061  159.5629 H   0  0  0  0  0  0  0  0  0  0  0  0  # atno 6909 bound_to 6896
  144.8992  140.6748  143.5096 H   0  0  0  0  0  0  0  0  0  0  0  0  # atno 7974 bound_to 7965
  155.9132  140.3426  155.6115 H   0  0  0  0  0  0  0  0  0  0  0  0  # atno 8008 bound_to 7997
  155.7363  140.0802  157.2285 H   0  0  0  0  0  0  0  0  0  0  0  0  # atno 8009 bound_to 7997
  154.4058  140.1579  156.2552 H   0  0  0  0  0  0  0  0  0  0  0  0  # atno 8010 bound_to 7997
  139.6877  143.9472  152.2369 H   0  0  0  0  0  0  0  0  0  0  0  0  # atno 10167 bound_to 10162
  156.0368  130.5588  150.7611 H   0  0  0  0  0  0  0  0  0  0  0  0  # atno 10718 bound_to 10713
  154.8736  135.3777  154.4514 H   0  0  0  0  0  0  0  0  0  0  0  0  # atno 10763 bound_to 10752
  153.5190  135.7029  153.5746 H   0  0  0  0  0  0  0  0  0  0  0  0  # atno 10764 bound_to 10752
  153.4001  135.3950  155.1948 H   0  0  0  0  0  0  0  0  0  0  0  0  # atno 10765 bound_to 10752
  141.0648  133.9476  157.2599 H   0  0  0  0  0  0  0  0  0  0  0  0  # atno 11005 bound_to 11000
  145.3647  139.1673  143.4364 LP  0  0  0  0  0  0  0  0  0  0  0  0  # atno 17320 bound_to 7965
  146.3098  140.3713  142.8674 LP  0  0  0  0  0  0  0  0  0  0  0  0  # atno 17321 bound_to 7965
  139.9280  144.6759  150.8392 LP  0  0  0  0  0  0  0  0  0  0  0  0  # atno 17342 bound_to 10162
  140.7673  143.3328  151.2373 LP  0  0  0  0  0  0  0  0  0  0  0  0  # atno 17343 bound_to 10162
  157.5130  131.0926  151.0174 LP  0  0  0  0  0  0  0  0  0  0  0  0  # atno 17370 bound_to 10713
  157.0525  130.5793  149.5372 LP  0  0  0  0  0  0  0  0  0  0  0  0  # atno 17371 bound_to 10713
  139.9466  135.0183  156.8870 LP  0  0  0  0  0  0  0  0  0  0  0  0  # atno 17394 bound_to 11000
  140.5795  134.0365  155.7459 LP  0  0  0  0  0  0  0  0  0  0  0  0  # atno 17395 bound_to 11000

$$$$
