AV-unprocessed.smi:1644|AV-procd|sdf|6584|dock2
  -GOLD-   22720 7273D 1   1.00000     0.00000
 Structure written by MMmdl.
 49 51  0  0  0  0  0  0  0  0  1 V2000
  145.3611  144.1308  153.2384 C   0  0  0  0  0  0  0  0  0  0  0  0
  145.2523  143.2105  154.4590 C   0  0  0  0  0  0  0  0  0  0  0  0
  146.5815  142.5133  154.7904 C   0  0  0  0  0  0  0  0  0  0  0  0
  147.0440  141.5318  153.6954 C   0  0  2  0  0  0  0  0  0  0  0  0
  146.2871  140.2956  153.6949 N   0  0  0  0  0  0  0  0  0  0  0  0
  147.0567  139.2205  153.9064 C   0  0  0  0  0  0  0  0  0  0  0  0
  146.6536  138.0594  153.9580 O   0  0  0  0  0  0  0  0  0  0  0  0
  148.3285  139.6323  154.0573 N   0  0  0  0  0  0  0  0  0  0  0  0
  149.4588  138.7406  154.3362 C   0  0  0  0  0  0  0  0  0  0  0  0
  150.5069  139.4064  155.2514 C   0  0  2  0  0  0  0  0  0  0  0  0
  151.7519  139.4196  154.5800 O   0  0  0  0  0  0  0  0  0  0  0  0
  150.6714  138.6393  156.5775 C   0  0  0  0  0  0  0  0  0  0  0  0
  151.6591  139.2461  157.4522 N   0  0  0  0  0  0  0  0  0  0  0  0
  152.8226  138.7033  157.8589 C   0  0  0  0  0  0  0  0  0  0  0  0
  153.5849  139.4327  158.6686 N   0  0  0  0  0  0  0  0  0  0  0  0
  152.8277  140.5840  158.8025 C   0  0  0  0  0  0  0  0  0  0  0  0
  153.0739  141.7627  159.5400 C   0  0  0  0  0  0  0  0  0  0  0  0
  152.1452  142.8279  159.5355 C   0  0  0  0  0  0  0  0  0  0  0  0
  152.4485  144.0760  160.3453 C   0  0  0  0  0  0  0  0  0  0  0  0
  150.9481  142.7234  158.7827 C   0  0  0  0  0  0  0  0  0  0  0  0
  149.9351  143.8545  158.7633 C   0  0  0  0  0  0  0  0  0  0  0  0
  150.6870  141.5533  158.0395 C   0  0  0  0  0  0  0  0  0  0  0  0
  151.6181  140.4999  158.0529 C   0  0  0  0  0  0  0  0  0  0  0  0
  148.4259  140.9647  153.9617 C   0  0  0  0  0  0  0  0  0  0  0  0
  149.4426  141.6504  154.0690 O   0  0  0  0  0  0  0  0  0  0  0  0
  144.4078  144.6182  153.0326 H   0  0  0  0  0  0  0  0  0  0  0  0
  145.6480  143.5720  152.3473 H   0  0  0  0  0  0  0  0  0  0  0  0
  146.1053  144.9113  153.3989 H   0  0  0  0  0  0  0  0  0  0  0  0
  144.9154  143.7954  155.3156 H   0  0  0  0  0  0  0  0  0  0  0  0
  144.4826  142.4601  154.2757 H   0  0  0  0  0  0  0  0  0  0  0  0
  147.3512  143.2727  154.9366 H   0  0  0  0  0  0  0  0  0  0  0  0
  146.4876  141.9896  155.7436 H   0  0  0  0  0  0  0  0  0  0  0  0
  147.0139  141.9917  152.7068 H   0  0  0  0  0  0  0  0  0  0  0  0
  145.2880  140.2639  153.5526 H   0  0  0  0  0  0  0  0  0  0  0  0
  149.0675  137.8450  154.8219 H   0  0  0  0  0  0  0  0  0  0  0  0
  149.9217  138.3860  153.4131 H   0  0  0  0  0  0  0  0  0  0  0  0
  150.2174  140.4347  155.4735 H   0  0  0  0  0  0  0  0  0  0  0  0
  152.4280  139.1834  155.1970 H   0  0  0  0  0  0  0  0  0  0  0  0
  149.7209  138.6058  157.1118 H   0  0  0  0  0  0  0  0  0  0  0  0
  150.9583  137.6036  156.3897 H   0  0  0  0  0  0  0  0  0  0  0  0
  153.1261  137.7156  157.5436 H   0  0  0  0  0  0  0  0  0  0  0  0
  153.9858  141.8415  160.1133 H   0  0  0  0  0  0  0  0  0  0  0  0
  152.5142  144.9474  159.6933 H   0  0  0  0  0  0  0  0  0  0  0  0
  153.3954  143.9846  160.8784 H   0  0  0  0  0  0  0  0  0  0  0  0
  151.6657  144.2528  161.0833 H   0  0  0  0  0  0  0  0  0  0  0  0
  149.0857  143.6169  158.1222 H   0  0  0  0  0  0  0  0  0  0  0  0
  150.3917  144.7706  158.3875 H   0  0  0  0  0  0  0  0  0  0  0  0
  149.5547  144.0429  159.7675 H   0  0  0  0  0  0  0  0  0  0  0  0
  149.7776  141.4584  157.4644 H   0  0  0  0  0  0  0  0  0  0  0  0
  1  2  1  0  0  0  0
  1 26  1  0  0  0  0
  1 27  1  0  0  0  0
  1 28  1  0  0  0  0
  2  3  1  0  0  0  0
  2 29  1  0  0  0  0
  2 30  1  0  0  0  0
  3  4  1  0  0  0  0
  3 31  1  0  0  0  0
  3 32  1  0  0  0  0
  4 24  1  0  0  0  0
  4  5  1  0  0  0  0
  4 33  1  0  0  0  0
  5  6  1  0  0  0  0
  5 34  1  0  0  0  0
  6  7  2  0  0  0  0
  6  8  1  0  0  0  0
  8  9  1  0  0  0  0
  8 24  1  0  0  0  0
  9 10  1  0  0  0  0
  9 35  1  0  0  0  0
  9 36  1  0  0  0  0
 10 11  1  0  0  0  0
 10 12  1  0  0  0  0
 10 37  1  0  0  0  0
 11 38  1  0  0  0  0
 12 13  1  0  0  0  0
 12 39  1  0  0  0  0
 12 40  1  0  0  0  0
 13 23  1  0  0  0  0
 13 14  1  0  0  0  0
 14 15  2  0  0  0  0
 14 41  1  0  0  0  0
 15 16  1  0  0  0  0
 16 23  2  0  0  0  0
 16 17  1  0  0  0  0
 17 18  2  0  0  0  0
 17 42  1  0  0  0  0
 18 19  1  0  0  0  0
 18 20  1  0  0  0  0
 19 43  1  0  0  0  0
 19 44  1  0  0  0  0
 19 45  1  0  0  0  0
 20 21  1  0  0  0  0
 20 22  2  0  0  0  0
 21 46  1  0  0  0  0
 21 47  1  0  0  0  0
 21 48  1  0  0  0  0
 22 23  1  0  0  0  0
 22 49  1  0  0  0  0
 24 25  2  0  0  0  0
M  END
> <s_m_source_file>
AV-unprocessed.smi

> <i_m_source_file_index>
1644

> <i_lp_mmshare_version>
43012

> <i_f3d_flags>
0

> <s_epik_input>
W0NIM11bQ0gyXVtDSDJdW0NAQEhdMVtOSF1DKD1PKU4oQzE9TylbQ0gyXVtDQEhdKFtPSF0pW0NIMl1uKFtjSF1uMiljKGMyMylbY0hdYyhbQ0gzXSljKFtjSF0zKVtDSDNd

> <s_epik_cmdline>
J2VwaWtfcHl0aG9uJywgJy1waCcsICc3LjAnLCAnLXRuJywgJzgnLCAnLW1hJywgJzIwMCcsICctbWV0YWxfYmluZGluZycsICctaW1hZScsICc8aW5maWxlLm1hZT4nLCAnLW9tYWUnLCAnPG91dGZpbGUubWFlPic=

> <r_lp_tautomer_probability>
1

> <r_epik_Ionization_Penalty>
0.10693

> <r_epik_Ionization_Penalty_Charging>
0

> <r_epik_Ionization_Penalty_Neutral>
0.10693

> <r_epik_State_Penalty>
0.096713

> <r_epik_Charging_Adjusted_Penalty>
0.096713

> <i_epik_Tot_Q>
0

> <i_epik_Tot_abs_Q>
0

> <r_epik_Metal_State_Penalty>
0.102757

> <b_epik_Metal_Only>
0

> <s_lp_Force_Field>
OPLS_2005

> <r_lp_Energy>
24.4016

> <b_lp_Chiralities_Consistent>
1

> <s_lp_Variant>
AV-unprocessed.smi:1644-1

> <Gold.Version>
5.8.1

> <Gold.Id.Protein>
6NUR|6NUR_protein|mol2

> <Gold.PLP.Fitness>
55.4753

> <Gold.PLP.PLP>
-47.0817

> <Gold.PLP.part.hbond>
-5.0000

> <Gold.PLP.part.metal>
0.0000

> <Gold.PLP.part.buried>
-4.5557

> <Gold.PLP.part.nonpolar>
-37.8752

> <Gold.PLP.part.repulsive>
0.3462

> <Gold.PLP.ligand.clash>
0.0000

> <Gold.PLP.ligand.torsion>
1.1980

> <Gold.PLP.Chemscore.Hbond>
3.5600

> <Gold.PLP.Chemscore.CHOScore>
0.0000

> <Gold.PLP.Chemscore.Metal>
0.0000

> <Gold.Chemscore.Hbonds>
donor molecule, donor type, donor heavy atom, donor atom, acceptor molecule, acceptor atom, score
      L1  H     5    34       P1 10175  1.00
      P1  H  7989  7998       L1    11  1.00
      P1  H  7997  8010       L1    15  0.85
      P1  H  8011  8017       L1    25  0.58

> <Gold.PLP.Chemscore.Internal.Correction>
0.1095

> <Gold.Rescore>
     Score         DG    S(hbond)    S(metal)    S(lipo)     H(rot)  DE(clash)    DE(int)     intcor
     14.55     -16.50       1.70        0.00     105.18       2.72       0.15       1.79       ----

> <Gold.Chemscore.Fitness>
14.5529

> <Gold.Chemscore.DG>
-16.5005

> <Gold.Chemscore.ZeroCoef>
-5.4800

> <Gold.Chemscore.Hbond>
1.7007

> <Gold.Chemscore.Metal>
0.0000

> <Gold.Chemscore.Lipo>
105.1840

> <Gold.Chemscore.Internal_Hbond>
0.0000

> <Gold.Chemscore.DEClash>
0.1540

> <Gold.Chemscore.DEInternal>
1.7937

> <Gold.Chemscore.Rot>
2.7212

> <Gold.Chemscore.Internal.Correction>
   9.000000E+99

> <Gold.Chemscore.Hbonds>
donor molecule, donor type, donor heavy atom, donor atom, acceptor molecule, acceptor atom, score
      L1  H     5    34       P1 10175  0.96
      P1  H  7989  7998       L1    11  0.48
      P1  H  7997  8010       L1    15  0.05
      P1  H  8011  8017       L1    25  0.38

> <Gold.Chemscore.Hbond.Weighted>
-5.6803

> <Gold.Chemscore.Metal.Weighted>
-0.0000

> <Gold.Chemscore.Lipo.Weighted>
-12.3065

> <Gold.Chemscore.Internal_Hbond.Weighted>
0.0000

> <Gold.Chemscore.DEClash.Weighted>
0.1540

> <Gold.Chemscore.DEInternal.Weighted>
1.7937

> <Gold.Chemscore.Rot.Weighted>
6.9663

> <Gold.Chemscore.Internal.Correction.Weighted>
   9.000000E+99

> <Gold.Protein.RotatedTorsions>
[ 6907 6896 6895 6894 ] final  134.96 input  -60.11 | X-H torsion
[ 7974 7965 7964 7962 ] final   82.18 input  175.53 | X-H torsion
[ 8008 7997 7996 7995 ] final    4.93 input   59.86 | X-H torsion
[ 10167 10162 10161 10158 ] final -133.24 input  -65.29 | X-H torsion
[ 10718 10713 10712 10709 ] final  -93.81 input   66.30 | X-H torsion
[ 10763 10752 10751 10750 ] final  -91.28 input  -60.55 | X-H torsion
[ 11005 11000 10999 10996 ] final  -75.34 input  -57.11 | X-H torsion

> <Gold.Protein.ActiveResidues>
 VAL166  LYS551  ARG553  GLY616  TRP617  ASP618  TYR619  PRO620  LYS621  CYS622 
 ASP623  PHE694  ASN695  SER759  ASP760  ASP761  ALA762  ILE779  LEU786  VAL792 
 PHE793  MET794  SER795  GLU796  ALA797  LYS798  CYS799  TRP800  GLU811  SER814 

> <Gold.Protein.RotatedAtoms>
  152.3056  133.5700  159.5646 H   0  0  0  0  0  0  0  0  0  0  0  0  # atno 6907 bound_to 6896
  150.7298  134.0228  159.3716 H   0  0  0  0  0  0  0  0  0  0  0  0  # atno 6908 bound_to 6896
  151.8124  135.0677  160.0465 H   0  0  0  0  0  0  0  0  0  0  0  0  # atno 6909 bound_to 6896
  145.6284  139.2400  143.2098 H   0  0  0  0  0  0  0  0  0  0  0  0  # atno 7974 bound_to 7965
  154.7220  140.2713  155.6533 H   0  0  0  0  0  0  0  0  0  0  0  0  # atno 8008 bound_to 7997
  156.2826  140.2732  156.1819 H   0  0  0  0  0  0  0  0  0  0  0  0  # atno 8009 bound_to 7997
  155.0494  140.0371  157.2528 H   0  0  0  0  0  0  0  0  0  0  0  0  # atno 8010 bound_to 7997
  139.9002  143.6616  152.2596 H   0  0  0  0  0  0  0  0  0  0  0  0  # atno 10167 bound_to 10162
  156.0018  130.5042  150.5832 H   0  0  0  0  0  0  0  0  0  0  0  0  # atno 10718 bound_to 10713
  154.6744  135.5274  153.8180 H   0  0  0  0  0  0  0  0  0  0  0  0  # atno 10763 bound_to 10752
  153.0522  135.6537  154.0674 H   0  0  0  0  0  0  0  0  0  0  0  0  # atno 10764 bound_to 10752
  154.0569  135.2965  155.3311 H   0  0  0  0  0  0  0  0  0  0  0  0  # atno 10765 bound_to 10752
  141.1644  133.6943  156.7502 H   0  0  0  0  0  0  0  0  0  0  0  0  # atno 11005 bound_to 11000
  146.1376  140.7102  142.9382 LP  0  0  0  0  0  0  0  0  0  0  0  0  # atno 17320 bound_to 7965
  144.7203  140.4350  143.7013 LP  0  0  0  0  0  0  0  0  0  0  0  0  # atno 17321 bound_to 7965
  139.7032  144.7632  151.1238 LP  0  0  0  0  0  0  0  0  0  0  0  0  # atno 17342 bound_to 10162
  140.7708  143.5430  150.9291 LP  0  0  0  0  0  0  0  0  0  0  0  0  # atno 17343 bound_to 10162
  157.3709  131.0765  151.1559 LP  0  0  0  0  0  0  0  0  0  0  0  0  # atno 17370 bound_to 10713
  157.2313  130.6526  149.5851 LP  0  0  0  0  0  0  0  0  0  0  0  0  # atno 17371 bound_to 10713
  140.2610  134.8467  157.3758 LP  0  0  0  0  0  0  0  0  0  0  0  0  # atno 17394 bound_to 11000
  140.1611  134.4727  155.7894 LP  0  0  0  0  0  0  0  0  0  0  0  0  # atno 17395 bound_to 11000

$$$$
