AV-unprocessed.smi:1626|AV-procd|sdf|6510|dock4
  -GOLD-   22720 7183D 1   1.00000     0.00000
 Structure written by MMmdl.
 49 51  0  0  0  0  0  0  0  0  3 V2000
  152.6041  144.1322  161.9016 C   0  0  0  0  0  0  0  0  0  0  0  0
  152.2276  143.4820  160.5812 C   0  0  0  0  0  0  0  0  0  0  0  0
  152.4957  142.1053  160.4066 C   0  0  0  0  0  0  0  0  0  0  0  0
  152.1364  141.5384  159.1898 C   0  0  0  0  0  0  0  0  0  0  0  0
  152.2586  140.2297  158.7173 N   0  3  0  0  0  0  0  0  0  0  0  0
  151.7554  140.1534  157.4539 C   0  0  0  0  0  0  0  0  0  0  0  0
  151.3252  141.3979  157.1083 N   0  0  0  0  0  0  0  0  0  0  0  0
  150.6949  141.8712  155.8689 C   0  0  0  0  0  0  0  0  0  0  0  0
  149.7031  140.8582  155.2604 C   0  0  2  0  0  0  0  0  0  0  0  0
  150.4678  139.8090  154.7027 O   0  0  0  0  0  0  0  0  0  0  0  0
  148.8014  141.4664  154.1629 C   0  0  0  0  0  0  0  0  0  0  0  0
  147.6538  142.2293  154.7186 N   0  3  2  0  0  0  0  0  0  0  0  0
  147.1575  141.6489  155.9935 C   0  0  0  0  0  0  0  0  0  0  0  0
  146.0691  142.5355  156.6216 C   0  0  0  0  0  0  0  0  0  0  0  0
  144.9101  142.7590  155.6392 C   0  0  1  0  0  0  0  0  0  0  0  0
  143.9776  143.6564  156.2027 O   0  0  0  0  0  0  0  0  0  0  0  0
  145.4485  143.3296  154.3190 C   0  0  0  0  0  0  0  0  0  0  0  0
  146.5491  142.4240  153.7405 C   0  0  0  0  0  0  0  0  0  0  0  0
  151.5326  142.2915  158.1643 C   0  0  0  0  0  0  0  0  0  0  0  0
  151.2593  143.6481  158.3200 C   0  0  0  0  0  0  0  0  0  0  0  0
  151.6185  144.2436  159.5503 C   0  0  0  0  0  0  0  0  0  0  0  0
  151.3354  145.7231  159.7484 C   0  0  0  0  0  0  0  0  0  0  0  0
  153.0182  143.4051  162.6008 H   0  0  0  0  0  0  0  0  0  0  0  0
  151.7292  144.5825  162.3712 H   0  0  0  0  0  0  0  0  0  0  0  0
  153.3525  144.9093  161.7455 H   0  0  0  0  0  0  0  0  0  0  0  0
  152.9571  141.5191  161.1880 H   0  0  0  0  0  0  0  0  0  0  0  0
  151.7077  139.2662  156.8386 H   0  0  0  0  0  0  0  0  0  0  0  0
  150.1839  142.8066  156.1025 H   0  0  0  0  0  0  0  0  0  0  0  0
  151.4861  142.1196  155.1597 H   0  0  0  0  0  0  0  0  0  0  0  0
  149.0987  140.4380  156.0629 H   0  0  0  0  0  0  0  0  0  0  0  0
  151.0496  139.4645  155.3627 H   0  0  0  0  0  0  0  0  0  0  0  0
  149.3704  142.1271  153.5077 H   0  0  0  0  0  0  0  0  0  0  0  0
  148.4384  140.6555  153.5293 H   0  0  0  0  0  0  0  0  0  0  0  0
  146.7692  140.6452  155.8125 H   0  0  0  0  0  0  0  0  0  0  0  0
  147.9834  141.5476  156.6989 H   0  0  0  0  0  0  0  0  0  0  0  0
  145.7006  142.0758  157.5395 H   0  0  0  0  0  0  0  0  0  0  0  0
  146.5047  143.4942  156.9081 H   0  0  0  0  0  0  0  0  0  0  0  0
  144.4020  141.8123  155.4502 H   0  0  0  0  0  0  0  0  0  0  0  0
  144.0197  143.5870  157.1446 H   0  0  0  0  0  0  0  0  0  0  0  0
  144.6377  143.4355  153.5970 H   0  0  0  0  0  0  0  0  0  0  0  0
  145.8519  144.3303  154.4820 H   0  0  0  0  0  0  0  0  0  0  0  0
  146.9259  142.8715  152.8216 H   0  0  0  0  0  0  0  0  0  0  0  0
  146.1291  141.4546  153.4673 H   0  0  0  0  0  0  0  0  0  0  0  0
  150.7896  144.2264  157.5380 H   0  0  0  0  0  0  0  0  0  0  0  0
  150.9043  146.1703  158.8523 H   0  0  0  0  0  0  0  0  0  0  0  0
  152.2540  146.2629  159.9794 H   0  0  0  0  0  0  0  0  0  0  0  0
  150.6304  145.8709  160.5668 H   0  0  0  0  0  0  0  0  0  0  0  0
  148.0082  143.1458  154.9522 H   0  0  0  0  0  0  0  0  0  0  0  0
  152.6473  139.4431  159.2220 H   0  0  0  0  0  0  0  0  0  0  0  0
  1  2  1  0  0  0  0
  1 23  1  0  0  0  0
  1 24  1  0  0  0  0
  1 25  1  0  0  0  0
  2 21  1  0  0  0  0
  2  3  2  0  0  0  0
  3  4  1  0  0  0  0
  3 26  1  0  0  0  0
  4 19  2  0  0  0  0
  4  5  1  0  0  0  0
  5  6  2  0  0  0  0
  5 49  1  0  0  0  0
  6  7  1  0  0  0  0
  6 27  1  0  0  0  0
  7  8  1  0  0  0  0
  7 19  1  0  0  0  0
  8  9  1  0  0  0  0
  8 28  1  0  0  0  0
  8 29  1  0  0  0  0
  9 10  1  0  0  0  0
  9 11  1  0  0  0  0
  9 30  1  0  0  0  0
 10 31  1  0  0  0  0
 11 12  1  0  0  0  0
 11 32  1  0  0  0  0
 11 33  1  0  0  0  0
 12 18  1  0  0  0  0
 12 13  1  0  0  0  0
 12 48  1  0  0  0  0
 13 14  1  0  0  0  0
 13 34  1  0  0  0  0
 13 35  1  0  0  0  0
 14 15  1  0  0  0  0
 14 36  1  0  0  0  0
 14 37  1  0  0  0  0
 15 16  1  0  0  0  0
 15 17  1  0  0  0  0
 15 38  1  0  0  0  0
 16 39  1  0  0  0  0
 17 18  1  0  0  0  0
 17 40  1  0  0  0  0
 17 41  1  0  0  0  0
 18 42  1  0  0  0  0
 18 43  1  0  0  0  0
 19 20  1  0  0  0  0
 20 21  2  0  0  0  0
 20 44  1  0  0  0  0
 21 22  1  0  0  0  0
 22 45  1  0  0  0  0
 22 46  1  0  0  0  0
 22 47  1  0  0  0  0
M  CHG  1   5   1
M  CHG  1  12   1
M  END
> <s_m_source_file>
AV-unprocessed.smi

> <i_m_source_file_index>
1626

> <i_lp_mmshare_version>
43012

> <i_f3d_flags>
0

> <s_epik_input>
W0NIM11jKFtjSF0xKWMoW0NIM10pW2NIXWMoYzEyKW4oW2NIXW4yKVtDSDJdW0NASF0oW09IXSlbQ0gyXU4zW0NIMl1bQ0gyXVtDSF0oW09IXSlbQ0gyXVtDSDJdMw==

> <s_epik_cmdline>
J2VwaWtfcHl0aG9uJywgJy1waCcsICc3LjAnLCAnLXRuJywgJzgnLCAnLW1hJywgJzIwMCcsICctbWV0YWxfYmluZGluZycsICctaW1hZScsICc8aW5maWxlLm1hZT4nLCAnLW9tYWUnLCAnPG91dGZpbGUubWFlPic=

> <r_epik_Ionization_Penalty>
1.19369

> <r_epik_Ionization_Penalty_Charging>
1.19369

> <r_epik_Ionization_Penalty_Neutral>
1.68219e-06

> <r_epik_State_Penalty>
1.27429

> <r_epik_Charging_Adjusted_Penalty>
2.46798

> <i_epik_Tot_Q>
2

> <i_epik_Tot_abs_Q>
2

> <r_epik_Metal_State_Penalty>
5.29157

> <b_epik_Metal_Only>
0

> <s_lp_Force_Field>
OPLS_2005

> <r_lp_Energy>
33.2617

> <b_lp_Chiralities_Consistent>
1

> <s_lp_Variant>
AV-unprocessed.smi:1626-5

> <Gold.Version>
5.8.1

> <Gold.Id.Protein>
6NUR|6NUR_protein|mol2

> <Gold.PLP.Fitness>
57.2359

> <Gold.PLP.PLP>
-49.8566

> <Gold.PLP.part.hbond>
-2.0000

> <Gold.PLP.part.metal>
0.0000

> <Gold.PLP.part.buried>
-7.5358

> <Gold.PLP.part.nonpolar>
-39.9002

> <Gold.PLP.part.repulsive>
0.2356

> <Gold.PLP.ligand.clash>
0.0000

> <Gold.PLP.ligand.torsion>
0.8230

> <Gold.PLP.Chemscore.Hbond>
3.0000

> <Gold.PLP.Chemscore.CHOScore>
0.0000

> <Gold.PLP.Chemscore.Metal>
0.0000

> <Gold.Chemscore.Hbonds>
donor molecule, donor type, donor heavy atom, donor atom, acceptor molecule, acceptor atom, score
      L1  H    12    48       P1  8028  2.00
      P1  H  7989  7998       L1    10  0.95

> <Gold.PLP.Chemscore.Internal.Correction>
0.0253

> <Gold.Rescore>
     Score         DG    S(hbond)    S(metal)    S(lipo)     H(rot)  DE(clash)    DE(int)     intcor
     15.10     -16.75       0.99        0.00     127.95       2.74       0.44       1.21       ----

> <Gold.Chemscore.Fitness>
15.0972

> <Gold.Chemscore.DG>
-16.7490

> <Gold.Chemscore.ZeroCoef>
-5.4800

> <Gold.Chemscore.Hbond>
0.9907

> <Gold.Chemscore.Metal>
0.0000

> <Gold.Chemscore.Lipo>
127.9515

> <Gold.Chemscore.Internal_Hbond>
0.0000

> <Gold.Chemscore.DEClash>
0.4439

> <Gold.Chemscore.DEInternal>
1.2078

> <Gold.Chemscore.Rot>
2.7384

> <Gold.Chemscore.Internal.Correction>
   9.000000E+99

> <Gold.Chemscore.Hbonds>
donor molecule, donor type, donor heavy atom, donor atom, acceptor molecule, acceptor atom, score
      L1  H    12    48       P1  8028  0.88
      P1  H  7989  7998       L1    10  0.10

> <Gold.Chemscore.Hbond.Weighted>
-3.3090

> <Gold.Chemscore.Metal.Weighted>
-0.0000

> <Gold.Chemscore.Lipo.Weighted>
-14.9703

> <Gold.Chemscore.Internal_Hbond.Weighted>
0.0000

> <Gold.Chemscore.DEClash.Weighted>
0.4439

> <Gold.Chemscore.DEInternal.Weighted>
1.2078

> <Gold.Chemscore.Rot.Weighted>
7.0103

> <Gold.Chemscore.Internal.Correction.Weighted>
   9.000000E+99

> <Gold.Protein.RotatedTorsions>
[ 6907 6896 6895 6894 ] final    8.31 input  -60.11 | X-H torsion
[ 7974 7965 7964 7962 ] final -147.16 input  175.53 | X-H torsion
[ 8008 7997 7996 7995 ] final   30.41 input   59.86 | X-H torsion
[ 10167 10162 10161 10158 ] final  166.92 input  -65.29 | X-H torsion
[ 10718 10713 10712 10709 ] final   99.49 input   66.30 | X-H torsion
[ 10763 10752 10751 10750 ] final  -68.39 input  -60.55 | X-H torsion
[ 11005 11000 10999 10996 ] final  135.26 input  -57.11 | X-H torsion

> <Gold.Protein.ActiveResidues>
 VAL166  LYS551  ARG553  GLY616  TRP617  ASP618  TYR619  PRO620  LYS621  CYS622 
 ASP623  PHE694  ASN695  SER759  ASP760  ASP761  ALA762  ILE779  LEU786  VAL792 
 PHE793  MET794  SER795  GLU796  ALA797  LYS798  CYS799  TRP800  GLU811  SER814 

> <Gold.Protein.RotatedAtoms>
  151.7039  135.0925  160.0255 H   0  0  0  0  0  0  0  0  0  0  0  0  # atno 6907 bound_to 6896
  152.3703  133.6406  159.6090 H   0  0  0  0  0  0  0  0  0  0  0  0  # atno 6908 bound_to 6896
  150.7668  133.9197  159.3435 H   0  0  0  0  0  0  0  0  0  0  0  0  # atno 6909 bound_to 6896
  144.8111  140.5362  143.5641 H   0  0  0  0  0  0  0  0  0  0  0  0  # atno 7974 bound_to 7965
  155.0900  140.3219  155.4576 H   0  0  0  0  0  0  0  0  0  0  0  0  # atno 8008 bound_to 7997
  156.2745  140.2079  156.5974 H   0  0  0  0  0  0  0  0  0  0  0  0  # atno 8009 bound_to 7997
  154.6911  140.0516  157.0351 H   0  0  0  0  0  0  0  0  0  0  0  0  # atno 8010 bound_to 7997
  139.4934  144.3977  151.9446 H   0  0  0  0  0  0  0  0  0  0  0  0  # atno 10167 bound_to 10162
  157.6875  131.0671  150.4956 H   0  0  0  0  0  0  0  0  0  0  0  0  # atno 10718 bound_to 10713
  154.3883  135.6058  153.5829 H   0  0  0  0  0  0  0  0  0  0  0  0  # atno 10763 bound_to 10752
  152.9787  135.5877  154.4327 H   0  0  0  0  0  0  0  0  0  0  0  0  # atno 10764 bound_to 10752
  154.4108  135.2844  155.2016 H   0  0  0  0  0  0  0  0  0  0  0  0  # atno 10765 bound_to 10752
  139.9968  134.9494  156.9983 H   0  0  0  0  0  0  0  0  0  0  0  0  # atno 11005 bound_to 11000
  145.5321  139.1475  143.3494 LP  0  0  0  0  0  0  0  0  0  0  0  0  # atno 17320 bound_to 7965
  146.2410  140.5461  142.8934 LP  0  0  0  0  0  0  0  0  0  0  0  0  # atno 17321 bound_to 7965
  140.3415  144.3197  150.5966 LP  0  0  0  0  0  0  0  0  0  0  0  0  # atno 17342 bound_to 10162
  140.5562  143.2199  151.7844 LP  0  0  0  0  0  0  0  0  0  0  0  0  # atno 17343 bound_to 10162
  156.5280  130.4178  149.6216 LP  0  0  0  0  0  0  0  0  0  0  0  0  # atno 17370 bound_to 10713
  156.3095  130.7221  151.2110 LP  0  0  0  0  0  0  0  0  0  0  0  0  # atno 17371 bound_to 10713
  140.4803  134.1297  155.7216 LP  0  0  0  0  0  0  0  0  0  0  0  0  # atno 17394 bound_to 11000
  141.1611  133.8791  157.1846 LP  0  0  0  0  0  0  0  0  0  0  0  0  # atno 17395 bound_to 11000

$$$$
