AV-unprocessed.smi:751|AV-procd|sdf|3594|dock6
  -GOLD-   22720 0583D 1   1.00000     0.00000
 Structure written by MMmdl.
 32 33  0  0  0  0  0  0  0  0  1 V2000
  152.5473  137.4441  158.4262 N   0  0  0  0  0  0  0  0  0  0  0  0
  152.4279  138.5892  158.5408 C   0  0  0  0  0  0  0  0  0  0  0  0
  152.2773  140.0314  158.6853 C   0  0  0  0  0  0  0  0  0  0  0  0
  152.9182  140.6711  159.7661 C   0  0  0  0  0  0  0  0  0  0  0  0
  152.7822  142.0602  159.9203 C   0  0  0  0  0  0  0  0  0  0  0  0
  152.0024  142.7573  158.9779 C   0  0  0  0  0  0  0  0  0  0  0  0
  151.8000  144.2636  159.0637 C   0  0  0  0  0  0  0  0  0  0  0  0
  152.0493  144.7266  160.2892 F   0  0  0  0  0  0  0  0  0  0  0  0
  152.6182  144.8752  158.2068 F   0  0  0  0  0  0  0  0  0  0  0  0
  150.5410  144.5666  158.7464 F   0  0  0  0  0  0  0  0  0  0  0  0
  151.3901  142.1393  157.9445 N   0  0  0  0  0  0  0  0  0  0  0  0
  151.5046  140.7964  157.7687 C   0  0  0  0  0  0  0  0  0  0  0  0
  150.8340  140.1926  156.6628 N   0  0  0  0  0  0  0  0  0  0  0  0
  149.5312  140.7699  156.3479 C   0  0  0  0  0  0  0  0  0  0  0  0
  149.9027  140.5721  154.8802 C   0  0  0  0  0  0  0  0  0  0  0  0
  149.5833  141.7062  154.0923 O   0  0  0  0  0  0  0  0  0  0  0  0
  148.2938  142.2273  154.3747 C   0  0  0  0  0  0  0  0  0  0  0  0
  147.2454  141.3913  153.6420 C   0  0  0  0  0  0  0  0  0  0  0  0
  145.9680  141.7573  153.7792 N   0  0  0  0  0  0  0  0  0  0  0  0
  147.5846  140.4356  152.9477 O   0  0  0  0  0  0  0  0  0  0  0  0
  151.3598  140.5260  155.3419 C   0  0  0  0  0  0  0  0  0  0  0  0
  153.5097  140.1067  160.4730 H   0  0  0  0  0  0  0  0  0  0  0  0
  153.2660  142.5676  160.7417 H   0  0  0  0  0  0  0  0  0  0  0  0
  148.6904  140.1621  156.6825 H   0  0  0  0  0  0  0  0  0  0  0  0
  149.4219  141.8189  156.6277 H   0  0  0  0  0  0  0  0  0  0  0  0
  149.5366  139.6256  154.4761 H   0  0  0  0  0  0  0  0  0  0  0  0
  148.0866  142.1941  155.4453 H   0  0  0  0  0  0  0  0  0  0  0  0
  148.2296  143.2680  154.0529 H   0  0  0  0  0  0  0  0  0  0  0  0
  145.2436  141.2357  153.3064 H   0  0  0  0  0  0  0  0  0  0  0  0
  145.7324  142.5568  154.3488 H   0  0  0  0  0  0  0  0  0  0  0  0
  151.8613  141.4926  155.2752 H   0  0  0  0  0  0  0  0  0  0  0  0
  151.9448  139.7253  154.8892 H   0  0  0  0  0  0  0  0  0  0  0  0
  1  2  3  0  0  0  0
  2  3  1  0  0  0  0
  3 12  1  0  0  0  0
  3  4  2  0  0  0  0
  4  5  1  0  0  0  0
  4 22  1  0  0  0  0
  5  6  2  0  0  0  0
  5 23  1  0  0  0  0
  6  7  1  0  0  0  0
  6 11  1  0  0  0  0
  7  8  1  0  0  0  0
  7  9  1  0  0  0  0
  7 10  1  0  0  0  0
 11 12  2  0  0  0  0
 12 13  1  0  0  0  0
 13 21  1  0  0  0  0
 13 14  1  0  0  0  0
 14 15  1  0  0  0  0
 14 24  1  0  0  0  0
 14 25  1  0  0  0  0
 15 16  1  0  0  0  0
 15 21  1  0  0  0  0
 15 26  1  0  0  0  0
 16 17  1  0  0  0  0
 17 18  1  0  0  0  0
 17 27  1  0  0  0  0
 17 28  1  0  0  0  0
 18 19  1  0  0  0  0
 18 20  2  0  0  0  0
 19 29  1  0  0  0  0
 19 30  1  0  0  0  0
 21 31  1  0  0  0  0
 21 32  1  0  0  0  0
M  END
> <s_m_source_file>
AV-unprocessed.smi

> <i_m_source_file_index>
751

> <i_lp_mmshare_version>
43012

> <i_f3d_flags>
0

> <s_epik_input>
TiNDYzFbY0hdW2NIXWMoQyhGKShGKUYpbmMxTjJbQ0gyXVtDSF0oW0NIMl0yKU9bQ0gyXUMoPU8pW05IMl0=

> <s_epik_cmdline>
J2VwaWtfcHl0aG9uJywgJy1waCcsICc3LjAnLCAnLXRuJywgJzgnLCAnLW1hJywgJzIwMCcsICctbWV0YWxfYmluZGluZycsICctaW1hZScsICc8aW5maWxlLm1hZT4nLCAnLW9tYWUnLCAnPG91dGZpbGUubWFlPic=

> <r_lp_tautomer_probability>
1

> <r_epik_Ionization_Penalty>
6.47511e-08

> <r_epik_Ionization_Penalty_Charging>
0

> <r_epik_Ionization_Penalty_Neutral>
6.47511e-08

> <r_epik_State_Penalty>
-0

> <r_epik_Charging_Adjusted_Penalty>
0

> <i_epik_Tot_Q>
0

> <i_epik_Tot_abs_Q>
0

> <r_epik_Metal_State_Penalty>
-0

> <b_epik_Metal_Only>
0

> <s_lp_Force_Field>
OPLS_2005

> <r_lp_Energy>
25.0077

> <b_lp_Chiralities_Consistent>
1

> <s_lp_Variant>
AV-unprocessed.smi:751-1

> <Gold.Version>
5.8.1

> <Gold.Id.Protein>
6NUR|6NUR_protein|mol2

> <Gold.PLP.Fitness>
45.4114

> <Gold.PLP.PLP>
-44.4174

> <Gold.PLP.part.hbond>
-3.0000

> <Gold.PLP.part.metal>
0.0000

> <Gold.PLP.part.buried>
-3.7763

> <Gold.PLP.part.nonpolar>
-37.7818

> <Gold.PLP.part.repulsive>
1.2578

> <Gold.PLP.ligand.clash>
0.0917

> <Gold.PLP.ligand.torsion>
1.6783

> <Gold.PLP.Chemscore.Hbond>
1.3560

> <Gold.PLP.Chemscore.CHOScore>
0.0000

> <Gold.PLP.Chemscore.Metal>
0.0000

> <Gold.Chemscore.Hbonds>
donor molecule, donor type, donor heavy atom, donor atom, acceptor molecule, acceptor atom, score
      L1  H    19    29       P1 10175  0.95
      P1  H  8011  8017       L1    16  0.52

> <Gold.PLP.Chemscore.Internal.Correction>
0.3744

> <Gold.Rescore>
     Score         DG    S(hbond)    S(metal)    S(lipo)     H(rot)  DE(clash)    DE(int)     intcor
      8.84     -10.64       0.93        0.00      74.30       2.59       0.31       1.49       ----

> <Gold.Chemscore.Fitness>
8.8369

> <Gold.Chemscore.DG>
-10.6446

> <Gold.Chemscore.ZeroCoef>
-5.4800

> <Gold.Chemscore.Hbond>
0.9277

> <Gold.Chemscore.Metal>
0.0000

> <Gold.Chemscore.Lipo>
74.3025

> <Gold.Chemscore.Internal_Hbond>
0.0000

> <Gold.Chemscore.DEClash>
0.3145

> <Gold.Chemscore.DEInternal>
1.4933

> <Gold.Chemscore.Rot>
2.5888

> <Gold.Chemscore.Internal.Correction>
   9.000000E+99

> <Gold.Chemscore.Hbonds>
donor molecule, donor type, donor heavy atom, donor atom, acceptor molecule, acceptor atom, score
      L1  H    19    29       P1 10175  0.21
      P1  H  8011  8017       L1    16  0.12

> <Gold.Chemscore.Hbond.Weighted>
-3.0985

> <Gold.Chemscore.Metal.Weighted>
-0.0000

> <Gold.Chemscore.Lipo.Weighted>
-8.6934

> <Gold.Chemscore.Internal_Hbond.Weighted>
0.0000

> <Gold.Chemscore.DEClash.Weighted>
0.3145

> <Gold.Chemscore.DEInternal.Weighted>
1.4933

> <Gold.Chemscore.Rot.Weighted>
6.6272

> <Gold.Chemscore.Internal.Correction.Weighted>
   9.000000E+99

> <Gold.Protein.RotatedTorsions>
[ 6907 6896 6895 6894 ] final   -5.01 input  -60.11 | X-H torsion
[ 7974 7965 7964 7962 ] final  -47.22 input  175.53 | X-H torsion
[ 8008 7997 7996 7995 ] final   94.57 input   59.86 | X-H torsion
[ 10167 10162 10161 10158 ] final -153.42 input  -65.29 | X-H torsion
[ 10718 10713 10712 10709 ] final -173.56 input   66.30 | X-H torsion
[ 10763 10752 10751 10750 ] final  -71.50 input  -60.55 | X-H torsion
[ 11005 11000 10999 10996 ] final -152.68 input  -57.11 | X-H torsion

> <Gold.Protein.ActiveResidues>
 VAL166  LYS551  ARG553  GLY616  TRP617  ASP618  TYR619  PRO620  LYS621  CYS622 
 ASP623  PHE694  ASN695  SER759  ASP760  ASP761  ALA762  ILE779  LEU786  VAL792 
 PHE793  MET794  SER795  GLU796  ALA797  LYS798  CYS799  TRP800  GLU811  SER814 

> <Gold.Protein.RotatedAtoms>
  151.4884  135.1056  159.9796 H   0  0  0  0  0  0  0  0  0  0  0  0  # atno 6907 bound_to 6896
  152.4751  133.8115  159.7016 H   0  0  0  0  0  0  0  0  0  0  0  0  # atno 6908 bound_to 6896
  150.8784  133.7345  159.2966 H   0  0  0  0  0  0  0  0  0  0  0  0  # atno 6909 bound_to 6896
  145.9639  140.7452  142.9444 H   0  0  0  0  0  0  0  0  0  0  0  0  # atno 7974 bound_to 7965
  156.0594  140.3298  155.7443 H   0  0  0  0  0  0  0  0  0  0  0  0  # atno 8008 bound_to 7997
  155.5479  140.0607  157.2874 H   0  0  0  0  0  0  0  0  0  0  0  0  # atno 8009 bound_to 7997
  154.4474  140.1899  156.0645 H   0  0  0  0  0  0  0  0  0  0  0  0  # atno 8010 bound_to 7997
  139.7098  143.9127  152.2463 H   0  0  0  0  0  0  0  0  0  0  0  0  # atno 10167 bound_to 10162
  156.7722  130.9453  151.3120 H   0  0  0  0  0  0  0  0  0  0  0  0  # atno 10718 bound_to 10713
  154.4326  135.5960  153.6078 H   0  0  0  0  0  0  0  0  0  0  0  0  # atno 10763 bound_to 10752
  152.9800  135.5979  154.3820 H   0  0  0  0  0  0  0  0  0  0  0  0  # atno 10764 bound_to 10752
  154.3660  135.2841  155.2272 H   0  0  0  0  0  0  0  0  0  0  0  0  # atno 10765 bound_to 10752
  140.7163  134.3776  157.5190 H   0  0  0  0  0  0  0  0  0  0  0  0  # atno 11005 bound_to 11000
  144.6821  140.2636  143.7315 LP  0  0  0  0  0  0  0  0  0  0  0  0  # atno 17320 bound_to 7965
  145.8001  139.1961  143.2053 LP  0  0  0  0  0  0  0  0  0  0  0  0  # atno 17321 bound_to 7965
  139.8993  144.6921  150.8683 LP  0  0  0  0  0  0  0  0  0  0  0  0  # atno 17342 bound_to 10162
  140.7730  143.3526  151.1984 LP  0  0  0  0  0  0  0  0  0  0  0  0  # atno 17343 bound_to 10162
  157.6686  130.9030  149.9987 LP  0  0  0  0  0  0  0  0  0  0  0  0  # atno 17370 bound_to 10713
  156.1271  130.3644  149.9792 LP  0  0  0  0  0  0  0  0  0  0  0  0  # atno 17371 bound_to 10713
  139.8859  134.8925  156.2616 LP  0  0  0  0  0  0  0  0  0  0  0  0  # atno 17394 bound_to 11000
  141.0041  133.7134  156.1007 LP  0  0  0  0  0  0  0  0  0  0  0  0  # atno 17395 bound_to 11000

$$$$
