AV-unprocessed.smi:1211|AV-procd|sdf|5080|dock2
  -GOLD-   22720 4133D 1   1.00000     0.00000
 Structure written by MMmdl.
 48 50  0  0  0  0  0  0  0  0  2 V2000
  147.4717  132.7600  151.7522 C   0  0  0  0  0  0  0  0  0  0  0  0
  146.0122  132.9515  151.3729 C   0  0  0  0  0  0  0  0  0  0  0  0
  145.2841  131.8576  150.8581 C   0  0  0  0  0  0  0  0  0  0  0  0
  143.9353  132.0360  150.5063 C   0  0  0  0  0  0  0  0  0  0  0  0
  143.3681  133.3091  150.6850 C   0  0  0  0  0  0  0  0  0  0  0  0
  144.0564  134.3601  151.1756 N   0  0  0  0  0  0  0  0  0  0  0  0
  145.3588  134.2042  151.5221 C   0  0  0  0  0  0  0  0  0  0  0  0
  146.1453  135.2673  152.0496 N   0  0  0  0  0  0  0  0  0  0  0  0
  145.7777  136.2311  152.9125 C   0  0  0  0  0  0  0  0  0  0  0  0
  144.6604  136.3521  153.4145 O   0  0  0  0  0  0  0  0  0  0  0  0
  146.7938  137.0693  153.1635 N   0  0  0  0  0  0  0  0  0  0  0  0
  146.7419  138.2194  154.0663 C   0  0  0  0  0  0  0  0  0  0  0  0
  148.0494  139.0756  154.0628 C   0  0  1  0  0  0  0  0  0  0  0  0
  149.2358  138.1478  154.1744 N   0  3  0  0  0  0  0  0  0  0  0  0
  150.5876  138.7740  154.1998 C   0  0  0  0  0  0  0  0  0  0  0  0
  151.6942  137.7041  154.2045 C   0  0  0  0  0  0  0  0  0  0  0  0
  151.5102  136.8107  155.2923 O   0  0  0  0  0  0  0  0  0  0  0  0
  150.2730  136.1218  155.1947 C   0  0  0  0  0  0  0  0  0  0  0  0
  149.1231  137.1376  155.2644 C   0  0  0  0  0  0  0  0  0  0  0  0
  148.0888  139.9797  152.7982 C   0  0  0  0  0  0  0  0  0  0  0  0
  147.0202  141.0675  152.9429 C   0  0  0  0  0  0  0  0  0  0  0  0
  146.9366  141.4911  154.7000 S   0  0  0  0  0  0  0  0  0  0  0  0
  147.9964  140.1099  155.2120 C   0  0  0  0  0  0  0  0  0  0  0  0
  147.7973  131.7348  151.5726 H   0  0  0  0  0  0  0  0  0  0  0  0
  147.6232  132.9787  152.8096 H   0  0  0  0  0  0  0  0  0  0  0  0
  148.1089  133.4217  151.1646 H   0  0  0  0  0  0  0  0  0  0  0  0
  145.7509  130.8916  150.7324 H   0  0  0  0  0  0  0  0  0  0  0  0
  143.3511  131.2187  150.1100 H   0  0  0  0  0  0  0  0  0  0  0  0
  142.3350  133.4894  150.4275 H   0  0  0  0  0  0  0  0  0  0  0  0
  147.1008  135.2940  151.7267 H   0  0  0  0  0  0  0  0  0  0  0  0
  147.6798  136.8817  152.7180 H   0  0  0  0  0  0  0  0  0  0  0  0
  145.8583  138.8220  153.8567 H   0  0  0  0  0  0  0  0  0  0  0  0
  146.5545  137.8227  155.0634 H   0  0  0  0  0  0  0  0  0  0  0  0
  150.7529  139.3857  153.3142 H   0  0  0  0  0  0  0  0  0  0  0  0
  150.6842  139.4186  155.0740 H   0  0  0  0  0  0  0  0  0  0  0  0
  151.7016  137.1504  153.2641 H   0  0  0  0  0  0  0  0  0  0  0  0
  152.6717  138.1772  154.2992 H   0  0  0  0  0  0  0  0  0  0  0  0
  150.2298  135.5404  154.2722 H   0  0  0  0  0  0  0  0  0  0  0  0
  150.1986  135.4147  156.0211 H   0  0  0  0  0  0  0  0  0  0  0  0
  149.1450  137.6299  156.2371 H   0  0  0  0  0  0  0  0  0  0  0  0
  148.1801  136.5973  155.2028 H   0  0  0  0  0  0  0  0  0  0  0  0
  149.0319  140.5206  152.7340 H   0  0  0  0  0  0  0  0  0  0  0  0
  147.9837  139.4231  151.8677 H   0  0  0  0  0  0  0  0  0  0  0  0
  147.2540  141.9482  152.3440 H   0  0  0  0  0  0  0  0  0  0  0  0
  146.0451  140.7038  152.6182 H   0  0  0  0  0  0  0  0  0  0  0  0
  147.6373  139.6861  156.1503 H   0  0  0  0  0  0  0  0  0  0  0  0
  148.9873  140.5233  155.4022 H   0  0  0  0  0  0  0  0  0  0  0  0
  149.2217  137.6210  153.3129 H   0  0  0  0  0  0  0  0  0  0  0  0
  1  2  1  0  0  0  0
  1 24  1  0  0  0  0
  1 25  1  0  0  0  0
  1 26  1  0  0  0  0
  2  7  1  0  0  0  0
  2  3  2  0  0  0  0
  3  4  1  0  0  0  0
  3 27  1  0  0  0  0
  4  5  2  0  0  0  0
  4 28  1  0  0  0  0
  5  6  1  0  0  0  0
  5 29  1  0  0  0  0
  6  7  2  0  0  0  0
  7  8  1  0  0  0  0
  8  9  1  0  0  0  0
  8 30  1  0  0  0  0
  9 10  2  0  0  0  0
  9 11  1  0  0  0  0
 11 12  1  0  0  0  0
 11 31  1  0  0  0  0
 12 13  1  0  0  0  0
 12 32  1  0  0  0  0
 12 33  1  0  0  0  0
 13 23  1  0  0  0  0
 13 14  1  0  0  0  0
 13 20  1  0  0  0  0
 14 19  1  0  0  0  0
 14 15  1  0  0  0  0
 14 48  1  0  0  0  0
 15 16  1  0  0  0  0
 15 34  1  0  0  0  0
 15 35  1  0  0  0  0
 16 17  1  0  0  0  0
 16 36  1  0  0  0  0
 16 37  1  0  0  0  0
 17 18  1  0  0  0  0
 18 19  1  0  0  0  0
 18 38  1  0  0  0  0
 18 39  1  0  0  0  0
 19 40  1  0  0  0  0
 19 41  1  0  0  0  0
 20 21  1  0  0  0  0
 20 42  1  0  0  0  0
 20 43  1  0  0  0  0
 21 22  1  0  0  0  0
 21 44  1  0  0  0  0
 21 45  1  0  0  0  0
 22 23  1  0  0  0  0
 23 46  1  0  0  0  0
 23 47  1  0  0  0  0
M  CHG  1  14   1
M  END
> <s_m_source_file>
AV-unprocessed.smi

> <i_m_source_file_index>
1211

> <i_lp_mmshare_version>
43012

> <i_f3d_flags>
0

> <s_epik_input>
W0NIM11jMVtjSF1bY0hdW2NIXW5jMVtOSF1DKD1PKVtOSF1bQ0gyXVtDQF0yKFtDSDJdW0NIMl1TW0NIMl0yKU4zW0NIMl1bQ0gyXU9bQ0gyXVtDSDJdMw==

> <s_epik_cmdline>
J2VwaWtfcHl0aG9uJywgJy1waCcsICc3LjAnLCAnLXRuJywgJzgnLCAnLW1hJywgJzIwMCcsICctbWV0YWxfYmluZGluZycsICctaW1hZScsICc8aW5maWxlLm1hZT4nLCAnLW9tYWUnLCAnPG91dGZpbGUubWFlPic=

> <r_epik_Ionization_Penalty>
2.03223

> <r_epik_Ionization_Penalty_Charging>
2.03219

> <r_epik_Ionization_Penalty_Neutral>
4.05816e-05

> <r_epik_State_Penalty>
2.16328

> <r_epik_Charging_Adjusted_Penalty>
4.19546

> <i_epik_Tot_Q>
1

> <i_epik_Tot_abs_Q>
1

> <r_epik_Metal_State_Penalty>
2.16328

> <b_epik_Metal_Only>
0

> <s_lp_Force_Field>
OPLS_2005

> <r_lp_Energy>
45.8952

> <b_lp_Chiralities_Consistent>
1

> <s_lp_Variant>
AV-unprocessed.smi:1211-3

> <Gold.Version>
5.8.1

> <Gold.Id.Protein>
6NUR|6NUR_protein|mol2

> <Gold.PLP.Fitness>
47.5679

> <Gold.PLP.PLP>
-30.5709

> <Gold.PLP.part.hbond>
-4.0000

> <Gold.PLP.part.metal>
0.0000

> <Gold.PLP.part.buried>
2.0497

> <Gold.PLP.part.nonpolar>
-29.3673

> <Gold.PLP.part.repulsive>
0.3190

> <Gold.PLP.ligand.clash>
0.0000

> <Gold.PLP.ligand.torsion>
0.5372

> <Gold.PLP.Chemscore.Hbond>
4.9760

> <Gold.PLP.Chemscore.CHOScore>
1.0000

> <Gold.PLP.Chemscore.Metal>
0.0000

> <Gold.Chemscore.Hbonds>
donor molecule, donor type, donor heavy atom, donor atom, acceptor molecule, acceptor atom, score
      L1  H     8    30       P1  7948  0.94
      L1  H    11    31       P1  7948  1.00
      L1  H    14    48       P1  7948  2.00
      P1  H 10752 10763       L1    17  0.85
      L1  C     5    29       P1 10186  0.53

> <Gold.PLP.Chemscore.Internal.Correction>
0.1435

> <Gold.Rescore>
     Score         DG    S(hbond)    S(metal)    S(lipo)     H(rot)  DE(clash)    DE(int)     intcor
     19.58     -23.10       2.99        0.00      97.67       1.48       2.94       0.58       ----

> <Gold.Chemscore.Fitness>
19.5829

> <Gold.Chemscore.DG>
-23.1036

> <Gold.Chemscore.ZeroCoef>
-5.4800

> <Gold.Chemscore.Hbond>
2.9910

> <Gold.Chemscore.Metal>
0.0000

> <Gold.Chemscore.Lipo>
97.6706

> <Gold.Chemscore.Internal_Hbond>
0.0000

> <Gold.Chemscore.DEClash>
2.9380

> <Gold.Chemscore.DEInternal>
0.5827

> <Gold.Chemscore.Rot>
1.4820

> <Gold.Chemscore.Internal.Correction>
   9.000000E+99

> <Gold.Chemscore.Hbonds>
donor molecule, donor type, donor heavy atom, donor atom, acceptor molecule, acceptor atom, score
      L1  H     8    30       P1  7948  0.84
      L1  H    11    31       P1  7948  1.00
      L1  H    14    48       P1  7948  0.95
      P1  H 10752 10763       L1    17  0.10

> <Gold.Chemscore.Hbond.Weighted>
-9.9900

> <Gold.Chemscore.Metal.Weighted>
-0.0000

> <Gold.Chemscore.Lipo.Weighted>
-11.4275

> <Gold.Chemscore.Internal_Hbond.Weighted>
0.0000

> <Gold.Chemscore.DEClash.Weighted>
2.9380

> <Gold.Chemscore.DEInternal.Weighted>
0.5827

> <Gold.Chemscore.Rot.Weighted>
3.7939

> <Gold.Chemscore.Internal.Correction.Weighted>
   9.000000E+99

> <Gold.Protein.RotatedTorsions>
[ 6907 6896 6895 6894 ] final -156.19 input  -60.11 | X-H torsion
[ 7974 7965 7964 7962 ] final  161.19 input  175.53 | X-H torsion
[ 8008 7997 7996 7995 ] final   13.74 input   59.86 | X-H torsion
[ 10167 10162 10161 10158 ] final  105.47 input  -65.29 | X-H torsion
[ 10718 10713 10712 10709 ] final   95.75 input   66.30 | X-H torsion
[ 10763 10752 10751 10750 ] final   75.95 input  -60.55 | X-H torsion
[ 11005 11000 10999 10996 ] final   21.33 input  -57.11 | X-H torsion

> <Gold.Protein.ActiveResidues>
 VAL166  LYS551  ARG553  GLY616  TRP617  ASP618  TYR619  PRO620  LYS621  CYS622 
 ASP623  PHE694  ASN695  SER759  ASP760  ASP761  ALA762  ILE779  LEU786  VAL792 
 PHE793  MET794  SER795  GLU796  ALA797  LYS798  CYS799  TRP800  GLU811  SER814 

> <Gold.Protein.RotatedAtoms>
  151.2838  133.4197  159.2628 H   0  0  0  0  0  0  0  0  0  0  0  0  # atno 6907 bound_to 6896
  151.0337  134.9558  159.8135 H   0  0  0  0  0  0  0  0  0  0  0  0  # atno 6908 bound_to 6896
  152.5351  134.2798  159.9056 H   0  0  0  0  0  0  0  0  0  0  0  0  # atno 6909 bound_to 6896
  144.7698  139.7863  143.6301 H   0  0  0  0  0  0  0  0  0  0  0  0  # atno 7974 bound_to 7965
  154.8387  140.2911  155.5673 H   0  0  0  0  0  0  0  0  0  0  0  0  # atno 8008 bound_to 7997
  156.3010  140.2518  156.3257 H   0  0  0  0  0  0  0  0  0  0  0  0  # atno 8009 bound_to 7997
  154.9149  140.0387  157.1956 H   0  0  0  0  0  0  0  0  0  0  0  0  # atno 8010 bound_to 7997
  139.7090  144.7081  151.1059 H   0  0  0  0  0  0  0  0  0  0  0  0  # atno 10167 bound_to 10162
  157.6935  131.0556  150.4387 H   0  0  0  0  0  0  0  0  0  0  0  0  # atno 10718 bound_to 10713
  153.0690  135.4969  154.8264 H   0  0  0  0  0  0  0  0  0  0  0  0  # atno 10763 bound_to 10752
  154.6996  135.2999  154.9363 H   0  0  0  0  0  0  0  0  0  0  0  0  # atno 10764 bound_to 10752
  154.0091  135.6756  153.4817 H   0  0  0  0  0  0  0  0  0  0  0  0  # atno 10765 bound_to 10752
  140.3928  134.1801  155.7663 H   0  0  0  0  0  0  0  0  0  0  0  0  # atno 11005 bound_to 11000
  146.1836  139.5040  142.9851 LP  0  0  0  0  0  0  0  0  0  0  0  0  # atno 17320 bound_to 7965
  145.6358  141.0294  143.1838 LP  0  0  0  0  0  0  0  0  0  0  0  0  # atno 17321 bound_to 7965
  140.7728  143.5319  150.9413 LP  0  0  0  0  0  0  0  0  0  0  0  0  # atno 17342 bound_to 10162
  139.9004  143.6843  152.3132 LP  0  0  0  0  0  0  0  0  0  0  0  0  # atno 17343 bound_to 10162
  156.4747  130.4060  149.6497 LP  0  0  0  0  0  0  0  0  0  0  0  0  # atno 17370 bound_to 10713
  156.3564  130.7459  151.2425 LP  0  0  0  0  0  0  0  0  0  0  0  0  # atno 17371 bound_to 10713
  141.1885  133.8259  157.0993 LP  0  0  0  0  0  0  0  0  0  0  0  0  # atno 17394 bound_to 11000
  140.0394  134.9862  157.0933 LP  0  0  0  0  0  0  0  0  0  0  0  0  # atno 17395 bound_to 11000

$$$$
