AV-unprocessed.smi:189|AV-procd|sdf|1488|dock5
  -GOLD-   2262019303D 1   1.00000     0.00000
 Structure written by MMmdl.
 53 57  0  0  0  0  0  0  0  0  1 V2000
  149.4935  141.4276  156.5188 C   0  0  0  0  0  0  0  0  0  0  0  0
  150.8817  142.0376  156.8055 C   0  0  1  0  0  0  0  0  0  0  0  0
  150.8151  143.0208  158.0001 C   0  0  0  0  0  0  0  0  0  0  0  0
  152.0438  142.6629  158.8306 C   0  0  1  0  0  0  0  0  0  0  0  0
  152.0346  142.9728  160.3322 C   0  0  0  0  0  0  0  0  0  0  0  0
  153.3441  142.4512  160.9606 C   0  0  0  0  0  0  0  0  0  0  0  0
  153.6026  140.9624  160.6339 C   0  0  0  0  0  0  0  0  0  0  0  0
  153.5132  140.6634  159.1223 C   0  0  0  0  0  0  0  0  0  0  0  0
  152.1565  141.1645  158.5925 C   0  0  2  0  0  0  0  0  0  0  0  0
  151.9130  141.0522  157.1626 N   0  0  0  0  0  0  0  0  0  0  0  0
  151.9499  139.8631  156.5094 C   0  0  0  0  0  0  0  0  0  0  0  0
  152.6322  139.7523  155.3394 N   0  0  0  0  0  0  0  0  0  0  0  0
  152.6846  138.5813  154.6982 C   0  0  0  0  0  0  0  0  0  0  0  0
  152.1409  137.4137  155.0473 N   0  0  0  0  0  0  0  0  0  0  0  0
  151.4602  137.5174  156.2246 C   0  0  0  0  0  0  0  0  0  0  0  0
  151.3141  138.6940  157.0119 C   0  0  0  0  0  0  0  0  0  0  0  0
  150.5485  138.4187  158.1383 N   0  0  0  0  0  0  0  0  0  0  0  0
  150.2651  137.1498  158.0276 C   0  0  0  0  0  0  0  0  0  0  0  0
  150.7782  136.5283  156.9115 N   0  0  0  0  0  0  0  0  0  0  0  0
  150.6198  135.1291  156.5464 C   0  0  0  0  0  0  0  0  0  0  0  0
  149.7434  134.9198  155.2895 C   0  0  2  0  0  0  0  0  0  0  0  0
  150.3281  135.6140  154.2008 O   0  0  0  0  0  0  0  0  0  0  0  0
  148.3004  135.3916  155.4466 C   0  0  0  0  0  0  0  0  0  0  0  0
  147.5303  134.4298  154.5525 C   0  0  0  0  0  0  0  0  0  0  0  0
  148.1854  133.1957  154.7912 O   0  0  0  0  0  0  0  0  0  0  0  0
  149.5851  133.4381  154.8937 C   0  0  0  0  0  0  0  0  0  0  0  0
  148.7575  142.2115  156.3381 H   0  0  0  0  0  0  0  0  0  0  0  0
  149.1413  140.8292  157.3597 H   0  0  0  0  0  0  0  0  0  0  0  0
  149.5022  140.7896  155.6353 H   0  0  0  0  0  0  0  0  0  0  0  0
  151.2310  142.5777  155.9249 H   0  0  0  0  0  0  0  0  0  0  0  0
  150.8158  144.0640  157.6832 H   0  0  0  0  0  0  0  0  0  0  0  0
  149.9130  142.8544  158.5907 H   0  0  0  0  0  0  0  0  0  0  0  0
  152.9037  143.1612  158.3778 H   0  0  0  0  0  0  0  0  0  0  0  0
  151.9369  144.0459  160.4981 H   0  0  0  0  0  0  0  0  0  0  0  0
  151.1764  142.4984  160.8100 H   0  0  0  0  0  0  0  0  0  0  0  0
  154.1796  143.0464  160.5901 H   0  0  0  0  0  0  0  0  0  0  0  0
  153.3219  142.5962  162.0409 H   0  0  0  0  0  0  0  0  0  0  0  0
  154.5803  140.6641  161.0133 H   0  0  0  0  0  0  0  0  0  0  0  0
  152.8707  140.3496  161.1615 H   0  0  0  0  0  0  0  0  0  0  0  0
  154.3301  141.1571  158.5946 H   0  0  0  0  0  0  0  0  0  0  0  0
  153.6366  139.5940  158.9563 H   0  0  0  0  0  0  0  0  0  0  0  0
  151.3503  140.6452  159.1147 H   0  0  0  0  0  0  0  0  0  0  0  0
  153.2444  138.5796  153.7745 H   0  0  0  0  0  0  0  0  0  0  0  0
  149.6740  136.6259  158.7647 H   0  0  0  0  0  0  0  0  0  0  0  0
  151.6110  134.7006  156.3919 H   0  0  0  0  0  0  0  0  0  0  0  0
  150.1894  134.6006  157.3980 H   0  0  0  0  0  0  0  0  0  0  0  0
  149.6366  135.9072  153.6269 H   0  0  0  0  0  0  0  0  0  0  0  0
  147.9667  135.2503  156.4751 H   0  0  0  0  0  0  0  0  0  0  0  0
  148.1469  136.4404  155.1886 H   0  0  0  0  0  0  0  0  0  0  0  0
  146.4701  134.3782  154.8007 H   0  0  0  0  0  0  0  0  0  0  0  0
  147.6284  134.7041  153.5010 H   0  0  0  0  0  0  0  0  0  0  0  0
  150.0661  133.2135  153.9401 H   0  0  0  0  0  0  0  0  0  0  0  0
  150.0081  132.7625  155.6381 H   0  0  0  0  0  0  0  0  0  0  0  0
  1  2  1  0  0  0  0
  1 27  1  0  0  0  0
  1 28  1  0  0  0  0
  1 29  1  0  0  0  0
  2 10  1  0  0  0  0
  2  3  1  0  0  0  0
  2 30  1  0  0  0  0
  3  4  1  0  0  0  0
  3 31  1  0  0  0  0
  3 32  1  0  0  0  0
  4  9  1  0  0  0  0
  4  5  1  0  0  0  0
  4 33  1  0  0  0  0
  5  6  1  0  0  0  0
  5 34  1  0  0  0  0
  5 35  1  0  0  0  0
  6  7  1  0  0  0  0
  6 36  1  0  0  0  0
  6 37  1  0  0  0  0
  7  8  1  0  0  0  0
  7 38  1  0  0  0  0
  7 39  1  0  0  0  0
  8  9  1  0  0  0  0
  8 40  1  0  0  0  0
  8 41  1  0  0  0  0
  9 10  1  0  0  0  0
  9 42  1  0  0  0  0
 10 11  1  0  0  0  0
 11 16  1  0  0  0  0
 11 12  2  0  0  0  0
 12 13  1  0  0  0  0
 13 14  2  0  0  0  0
 13 43  1  0  0  0  0
 14 15  1  0  0  0  0
 15 19  1  0  0  0  0
 15 16  2  0  0  0  0
 16 17  1  0  0  0  0
 17 18  2  0  0  0  0
 18 19  1  0  0  0  0
 18 44  1  0  0  0  0
 19 20  1  0  0  0  0
 20 21  1  0  0  0  0
 20 45  1  0  0  0  0
 20 46  1  0  0  0  0
 21 26  1  0  0  0  0
 21 22  1  0  0  0  0
 21 23  1  0  0  0  0
 22 47  1  0  0  0  0
 23 24  1  0  0  0  0
 23 48  1  0  0  0  0
 23 49  1  0  0  0  0
 24 25  1  0  0  0  0
 24 50  1  0  0  0  0
 24 51  1  0  0  0  0
 25 26  1  0  0  0  0
 26 52  1  0  0  0  0
 26 53  1  0  0  0  0
M  END
> <s_m_source_file>
AV-unprocessed.smi

> <i_m_source_file_index>
189

> <i_lp_mmshare_version>
43012

> <i_f3d_flags>
0

> <s_epik_input>
W0NIMl0xW0NIMl1bQ0gyXVtDSDJdW0NASF0oW0NASF0xMilOKFtDQEhdKFtDSDNdKVtDSDJdMiljKG5bY0hdbjMpYyhjMzQpbltjSF1uNFtDSDJdW0NAQF01KFtPSF0pW0NIMl1bQ0gyXU9bQ0gyXTU=

> <s_epik_cmdline>
J2VwaWtfcHl0aG9uJywgJy1waCcsICc3LjAnLCAnLXRuJywgJzgnLCAnLW1hJywgJzIwMCcsICctbWV0YWxfYmluZGluZycsICctaW1hZScsICc8aW5maWxlLm1hZT4nLCAnLW9tYWUnLCAnPG91dGZpbGUubWFlPic=

> <r_lp_tautomer_probability>
1

> <r_epik_Ionization_Penalty>
0.00594261

> <r_epik_Ionization_Penalty_Charging>
0

> <r_epik_Ionization_Penalty_Neutral>
0.00594261

> <r_epik_State_Penalty>
0.00429776

> <r_epik_Charging_Adjusted_Penalty>
0.00429776

> <i_epik_Tot_Q>
0

> <i_epik_Tot_abs_Q>
0

> <r_epik_Metal_State_Penalty>
-0

> <b_epik_Metal_Only>
0

> <s_lp_Force_Field>
OPLS_2005

> <r_lp_Energy>
58.0948

> <b_lp_Chiralities_Consistent>
1

> <s_lp_Variant>
AV-unprocessed.smi:189-14

> <Gold.Version>
5.8.1

> <Gold.Id.Protein>
6NUR|6NUR_protein|mol2

> <Gold.PLP.Fitness>
48.3048

> <Gold.PLP.PLP>
-40.4761

> <Gold.PLP.part.hbond>
-4.7640

> <Gold.PLP.part.metal>
0.0000

> <Gold.PLP.part.buried>
-2.9532

> <Gold.PLP.part.nonpolar>
-33.1863

> <Gold.PLP.part.repulsive>
0.1117

> <Gold.PLP.ligand.clash>
0.0000

> <Gold.PLP.ligand.torsion>
0.5869

> <Gold.PLP.Chemscore.Hbond>
2.8691

> <Gold.PLP.Chemscore.CHOScore>
0.0000

> <Gold.PLP.Chemscore.Metal>
0.0000

> <Gold.Chemscore.Hbonds>
donor molecule, donor type, donor heavy atom, donor atom, acceptor molecule, acceptor atom, score
      L1  H    22    47       P1  7948  0.98
      P1  H  7989  7998       L1    12  0.08
      P1  H  7997  8008       L1    12  1.00
      P1  H 10752 10765       L1    14  0.80

> <Gold.PLP.Chemscore.Internal.Correction>
0.3955

> <Gold.Rescore>
     Score         DG    S(hbond)    S(metal)    S(lipo)     H(rot)  DE(clash)    DE(int)     intcor
     17.07     -17.87       1.76        0.00     100.00       2.03       0.02       0.78       ----

> <Gold.Chemscore.Fitness>
17.0685

> <Gold.Chemscore.DG>
-17.8703

> <Gold.Chemscore.ZeroCoef>
-5.4800

> <Gold.Chemscore.Hbond>
1.7623

> <Gold.Chemscore.Metal>
0.0000

> <Gold.Chemscore.Lipo>
100.0014

> <Gold.Chemscore.Internal_Hbond>
0.0000

> <Gold.Chemscore.DEClash>
0.0174

> <Gold.Chemscore.DEInternal>
0.7843

> <Gold.Chemscore.Rot>
2.0297

> <Gold.Chemscore.Internal.Correction>
   9.000000E+99

> <Gold.Chemscore.Hbonds>
donor molecule, donor type, donor heavy atom, donor atom, acceptor molecule, acceptor atom, score
      L1  H    22    47       P1  7948  0.24
      P1  H  7989  7998       L1    12  0.01
      P1  H  7997  8008       L1    12  0.19
      P1  H 10752 10765       L1    14  0.72

> <Gold.Chemscore.Hbond.Weighted>
-5.8861

> <Gold.Chemscore.Metal.Weighted>
-0.0000

> <Gold.Chemscore.Lipo.Weighted>
-11.7002

> <Gold.Chemscore.Internal_Hbond.Weighted>
0.0000

> <Gold.Chemscore.DEClash.Weighted>
0.0174

> <Gold.Chemscore.DEInternal.Weighted>
0.7843

> <Gold.Chemscore.Rot.Weighted>
5.1960

> <Gold.Chemscore.Internal.Correction.Weighted>
   9.000000E+99

> <Gold.Protein.RotatedTorsions>
[ 6907 6896 6895 6894 ] final -175.82 input  -60.11 | X-H torsion
[ 7974 7965 7964 7962 ] final -169.47 input  175.53 | X-H torsion
[ 8008 7997 7996 7995 ] final  -17.16 input   59.86 | X-H torsion
[ 10167 10162 10161 10158 ] final   75.09 input  -65.29 | X-H torsion
[ 10718 10713 10712 10709 ] final   45.38 input   66.30 | X-H torsion
[ 10763 10752 10751 10750 ] final  173.31 input  -60.55 | X-H torsion
[ 11005 11000 10999 10996 ] final -168.12 input  -57.11 | X-H torsion

> <Gold.Protein.ActiveResidues>
 VAL166  LYS551  ARG553  GLY616  TRP617  ASP618  TYR619  PRO620  LYS621  CYS622 
 ASP623  PHE694  ASN695  SER759  ASP760  ASP761  ALA762  ILE779  LEU786  VAL792 
 PHE793  MET794  SER795  GLU796  ALA797  LYS798  CYS799  TRP800  GLU811  SER814 

> <Gold.Protein.RotatedAtoms>
  151.5948  133.3362  159.3034 H   0  0  0  0  0  0  0  0  0  0  0  0  # atno 6907 bound_to 6896
  150.8240  134.7465  159.6808 H   0  0  0  0  0  0  0  0  0  0  0  0  # atno 6908 bound_to 6896
  152.4331  134.5745  159.9982 H   0  0  0  0  0  0  0  0  0  0  0  0  # atno 6909 bound_to 6896
  144.7185  140.2216  143.6315 H   0  0  0  0  0  0  0  0  0  0  0  0  # atno 7974 bound_to 7965
  154.4999  140.2150  155.9369 H   0  0  0  0  0  0  0  0  0  0  0  0  # atno 8008 bound_to 7997
  156.1420  140.3178  155.8477 H   0  0  0  0  0  0  0  0  0  0  0  0  # atno 8009 bound_to 7997
  155.4103  140.0490  157.3023 H   0  0  0  0  0  0  0  0  0  0  0  0  # atno 8010 bound_to 7997
  140.0067  144.5645  150.7692 H   0  0  0  0  0  0  0  0  0  0  0  0  # atno 10167 bound_to 10162
  157.4370  130.8058  149.7657 H   0  0  0  0  0  0  0  0  0  0  0  0  # atno 10718 bound_to 10713
  154.4383  135.2761  155.1865 H   0  0  0  0  0  0  0  0  0  0  0  0  # atno 10763 bound_to 10752
  154.3742  135.6102  153.5760 H   0  0  0  0  0  0  0  0  0  0  0  0  # atno 10764 bound_to 10752
  152.9839  135.5865  154.4706 H   0  0  0  0  0  0  0  0  0  0  0  0  # atno 10765 bound_to 10752
  140.5456  134.5479  157.5110 H   0  0  0  0  0  0  0  0  0  0  0  0  # atno 11005 bound_to 11000
  145.8496  139.2169  143.1780 LP  0  0  0  0  0  0  0  0  0  0  0  0  # atno 17320 bound_to 7965
  146.0273  140.8291  142.9893 LP  0  0  0  0  0  0  0  0  0  0  0  0  # atno 17321 bound_to 7965
  140.7397  143.2795  151.3640 LP  0  0  0  0  0  0  0  0  0  0  0  0  # atno 17342 bound_to 10162
  139.6233  144.0863  152.2412 LP  0  0  0  0  0  0  0  0  0  0  0  0  # atno 17343 bound_to 10162
  155.9934  130.3924  150.2902 LP  0  0  0  0  0  0  0  0  0  0  0  0  # atno 17370 bound_to 10713
  157.1063  131.0209  151.3066 LP  0  0  0  0  0  0  0  0  0  0  0  0  # atno 17371 bound_to 10713
  139.9481  134.7665  156.0513 LP  0  0  0  0  0  0  0  0  0  0  0  0  # atno 17394 bound_to 11000
  141.1201  133.6615  156.3194 LP  0  0  0  0  0  0  0  0  0  0  0  0  # atno 17395 bound_to 11000

$$$$
