AV-unprocessed.smi:287|AV-procd|sdf|2178|dock10
  -GOLD-   2262021543D 1   1.00000     0.00000
 Structure written by MMmdl.
 55 58  0  0  0  0  0  0  0  0  1 V2000
  141.2710  134.8390  163.7903 C   0  0  0  0  0  0  0  0  0  0  0  0
  142.6187  135.0569  163.1928 C   0  0  0  0  0  0  0  0  0  0  0  0
  143.3141  136.1670  162.8112 C   0  0  0  0  0  0  0  0  0  0  0  0
  144.5762  135.7285  162.3099 C   0  0  0  0  0  0  0  0  0  0  0  0
  145.6848  136.6207  161.7680 C   0  0  2  0  0  0  0  0  0  0  0  0
  146.1598  137.5841  162.8679 C   0  0  0  0  0  0  0  0  0  0  0  0
  145.2525  137.4469  160.7042 O   0  0  0  0  0  0  0  0  0  0  0  0
  146.8811  135.8108  161.2170 C   0  0  0  0  0  0  0  0  0  0  0  0
  148.0445  136.6431  160.9270 N   0  0  0  0  0  0  0  0  0  0  0  0
  148.2088  137.1786  159.6995 C   0  0  0  0  0  0  0  0  0  0  0  0
  147.1421  137.5944  158.9673 N   0  0  0  0  0  0  0  0  0  0  0  0
  147.3303  138.1247  157.7546 C   0  0  0  0  0  0  0  0  0  0  0  0
  148.4763  138.3243  157.0986 N   0  0  0  0  0  0  0  0  0  0  0  0
  149.5478  137.9042  157.8315 C   0  0  0  0  0  0  0  0  0  0  0  0
  149.4996  137.3285  159.1307 C   0  0  0  0  0  0  0  0  0  0  0  0
  150.7864  137.0340  159.5624 N   0  0  0  0  0  0  0  0  0  0  0  0
  151.5472  137.4139  158.5706 C   0  0  0  0  0  0  0  0  0  0  0  0
  150.8804  137.9462  157.4873 N   0  0  0  0  0  0  0  0  0  0  0  0
  151.4329  138.4763  156.2048 C   0  0  2  0  0  0  0  0  0  0  0  0
  150.9661  139.7851  156.0499 O   0  0  0  0  0  0  0  0  0  0  0  0
  150.2088  139.9185  154.8480 C   0  0  2  0  0  0  0  0  0  0  0  0
  149.0777  140.9377  155.0534 C   0  0  0  0  0  0  0  0  0  0  0  0
  149.3972  142.1524  154.4100 O   0  0  0  0  0  0  0  0  0  0  0  0
  149.7109  138.4972  154.5838 C   0  0  1  0  0  0  0  0  0  0  0  0
  149.3533  138.2666  153.2348 O   0  0  0  0  0  0  0  0  0  0  0  0
  150.8890  137.6467  155.0356 C   0  0  1  0  0  0  0  0  0  0  0  0
  151.8747  137.4824  154.0318 O   0  0  0  0  0  0  0  0  0  0  0  0
  144.5374  134.3586  162.4142 C   0  0  0  0  0  0  0  0  0  0  0  0
  145.4923  133.2648  162.0655 C   0  0  0  0  0  0  0  0  0  0  0  0
  143.3565  133.9441  162.9527 O   0  0  0  0  0  0  0  0  0  0  0  0
  152.5161  138.4390  156.3289 H   0  0  0  0  0  0  0  0  0  0  0  0
  150.8777  140.2255  154.0415 H   0  0  0  0  0  0  0  0  0  0  0  0
  148.8498  138.2862  155.2200 H   0  0  0  0  0  0  0  0  0  0  0  0
  150.5745  136.6559  155.3673 H   0  0  0  0  0  0  0  0  0  0  0  0
  140.8115  135.7872  164.0704 H   0  0  0  0  0  0  0  0  0  0  0  0
  141.3394  134.2203  164.6854 H   0  0  0  0  0  0  0  0  0  0  0  0
  140.6105  134.3394  163.0815 H   0  0  0  0  0  0  0  0  0  0  0  0
  142.9599  137.1843  162.8886 H   0  0  0  0  0  0  0  0  0  0  0  0
  146.5498  137.0394  163.7285 H   0  0  0  0  0  0  0  0  0  0  0  0
  145.3433  138.2149  163.2221 H   0  0  0  0  0  0  0  0  0  0  0  0
  146.9537  138.2411  162.5100 H   0  0  0  0  0  0  0  0  0  0  0  0
  145.8294  137.3132  159.9677 H   0  0  0  0  0  0  0  0  0  0  0  0
  147.1520  135.0035  161.8993 H   0  0  0  0  0  0  0  0  0  0  0  0
  146.5799  135.3393  160.2803 H   0  0  0  0  0  0  0  0  0  0  0  0
  148.6870  136.7912  161.6924 H   0  0  0  0  0  0  0  0  0  0  0  0
  146.4346  138.4331  157.2359 H   0  0  0  0  0  0  0  0  0  0  0  0
  152.6220  137.3139  158.6063 H   0  0  0  0  0  0  0  0  0  0  0  0
  148.1533  140.5669  154.6095 H   0  0  0  0  0  0  0  0  0  0  0  0
  148.8819  141.1090  156.1121 H   0  0  0  0  0  0  0  0  0  0  0  0
  149.0162  142.8630  154.9029 H   0  0  0  0  0  0  0  0  0  0  0  0
  149.4439  139.0801  152.7616 H   0  0  0  0  0  0  0  0  0  0  0  0
  151.6565  138.0450  153.3043 H   0  0  0  0  0  0  0  0  0  0  0  0
  145.7989  133.3382  161.0219 H   0  0  0  0  0  0  0  0  0  0  0  0
  145.0406  132.2837  162.2138 H   0  0  0  0  0  0  0  0  0  0  0  0
  146.3860  133.3198  162.6869 H   0  0  0  0  0  0  0  0  0  0  0  0
  1  2  1  0  0  0  0
  1 35  1  0  0  0  0
  1 36  1  0  0  0  0
  1 37  1  0  0  0  0
  2 30  1  0  0  0  0
  2  3  2  0  0  0  0
  3  4  1  0  0  0  0
  3 38  1  0  0  0  0
  4  5  1  0  0  0  0
  4 28  2  0  0  0  0
  5  6  1  0  0  0  0
  5  7  1  0  0  0  0
  5  8  1  0  0  0  0
  6 39  1  0  0  0  0
  6 40  1  0  0  0  0
  6 41  1  0  0  0  0
  7 42  1  0  0  0  0
  8  9  1  0  0  0  0
  8 43  1  0  0  0  0
  8 44  1  0  0  0  0
  9 10  1  0  0  0  0
  9 45  1  0  0  0  0
 10 15  1  0  0  0  0
 10 11  2  0  0  0  0
 11 12  1  0  0  0  0
 12 13  2  0  0  0  0
 12 46  1  0  0  0  0
 13 14  1  0  0  0  0
 14 18  1  0  0  0  0
 14 15  2  0  0  0  0
 15 16  1  0  0  0  0
 16 17  2  0  0  0  0
 17 18  1  0  0  0  0
 17 47  1  0  0  0  0
 18 19  1  0  0  0  0
 19 31  1  0  0  0  0
 19 26  1  0  0  0  0
 19 20  1  0  0  0  0
 20 21  1  0  0  0  0
 21 32  1  0  0  0  0
 21 22  1  0  0  0  0
 21 24  1  0  0  0  0
 22 23  1  0  0  0  0
 22 48  1  0  0  0  0
 22 49  1  0  0  0  0
 23 50  1  0  0  0  0
 24 33  1  0  0  0  0
 24 25  1  0  0  0  0
 24 26  1  0  0  0  0
 25 51  1  0  0  0  0
 26 34  1  0  0  0  0
 26 27  1  0  0  0  0
 27 52  1  0  0  0  0
 28 29  1  0  0  0  0
 28 30  1  0  0  0  0
 29 53  1  0  0  0  0
 29 54  1  0  0  0  0
 29 55  1  0  0  0  0
M  END
> <s_m_source_file>
AV-unprocessed.smi

> <i_m_source_file_index>
287

> <i_lp_mmshare_version>
43012

> <i_f3d_flags>
0

> <s_epik_input>
W0NIM11jMVtjSF1jKGMobzEpW0NIM10pW0NAQF0oW0NIM10pKFtPSF0pW0NIMl1bTkhdYyhuW2NIXW4yKWMoYzIzKW5bY0hdbjNbQ0BASF00T1tDQEhdKFtDSDJdW09IXSlbQ0BASF0oW09IXSlbQ0BIXTRbT0hd

> <s_epik_cmdline>
J2VwaWtfcHl0aG9uJywgJy1waCcsICc3LjAnLCAnLXRuJywgJzgnLCAnLW1hJywgJzIwMCcsICctbWV0YWxfYmluZGluZycsICctaW1hZScsICc8aW5maWxlLm1hZT4nLCAnLW9tYWUnLCAnPG91dGZpbGUubWFlPic=

> <r_lp_tautomer_probability>
1

> <r_epik_Ionization_Penalty>
0.000992612

> <r_epik_Ionization_Penalty_Charging>
0

> <r_epik_Ionization_Penalty_Neutral>
0.000992612

> <r_epik_State_Penalty>
-0

> <r_epik_Charging_Adjusted_Penalty>
0

> <i_epik_Tot_Q>
0

> <i_epik_Tot_abs_Q>
0

> <r_epik_Metal_State_Penalty>
-0

> <b_epik_Metal_Only>
0

> <s_epik_Chemistry_Notes>
This compound contains an acetal/aminal-like group ( X-CH(R)-Y where X, Y are N, S, or O) that may be acid/base labile, releasing an aldehyde.

> <s_lp_Force_Field>
OPLS_2005

> <r_lp_Energy>
40.8374

> <b_lp_Chiralities_Consistent>
1

> <s_lp_Variant>
AV-unprocessed.smi:287-2

> <Gold.Version>
5.8.1

> <Gold.Id.Protein>
6NUR|6NUR_protein|mol2

> <Gold.PLP.Fitness>
51.8944

> <Gold.PLP.PLP>
-41.8607

> <Gold.PLP.part.hbond>
-7.7910

> <Gold.PLP.part.metal>
0.0000

> <Gold.PLP.part.buried>
-4.3666

> <Gold.PLP.part.nonpolar>
-30.5266

> <Gold.PLP.part.repulsive>
0.3352

> <Gold.PLP.ligand.clash>
0.0000

> <Gold.PLP.ligand.torsion>
1.1739

> <Gold.PLP.Chemscore.Hbond>
4.1092

> <Gold.PLP.Chemscore.CHOScore>
0.0000

> <Gold.PLP.Chemscore.Metal>
0.0000

> <Gold.Chemscore.Hbonds>
donor molecule, donor type, donor heavy atom, donor atom, acceptor molecule, acceptor atom, score
      L1  H    23    50       P1  8028  1.00
      L1  H    25    51       P1  7957  1.00
      P1  H  6896  6909       L1    16  1.00
      P1  H  8011  8017       L1    23  0.21
      P1  H 10752 10764       L1    27  0.81

> <Gold.PLP.Chemscore.Internal.Correction>
0.0540

> <Gold.Rescore>
     Score         DG    S(hbond)    S(metal)    S(lipo)     H(rot)  DE(clash)    DE(int)     intcor
      7.49     -13.54       3.34        0.00      88.73       5.27       0.28       5.77       ----

> <Gold.Chemscore.Fitness>
7.4871

> <Gold.Chemscore.DG>
-13.5350

> <Gold.Chemscore.ZeroCoef>
-5.4800

> <Gold.Chemscore.Hbond>
3.3406

> <Gold.Chemscore.Metal>
0.0000

> <Gold.Chemscore.Lipo>
88.7299

> <Gold.Chemscore.Internal_Hbond>
0.0000

> <Gold.Chemscore.DEClash>
0.2756

> <Gold.Chemscore.DEInternal>
5.7723

> <Gold.Chemscore.Rot>
5.2672

> <Gold.Chemscore.Internal.Correction>
   9.000000E+99

> <Gold.Chemscore.Hbonds>
donor molecule, donor type, donor heavy atom, donor atom, acceptor molecule, acceptor atom, score
      L1  H    23    50       P1  8028  0.95
      L1  H    25    51       P1  7957  0.93
      P1  H  6896  6909       L1    16  0.49
      P1  H  8011  8017       L1    23  0.21
      P1  H 10752 10764       L1    27  0.70

> <Gold.Chemscore.Hbond.Weighted>
-11.1575

> <Gold.Chemscore.Metal.Weighted>
-0.0000

> <Gold.Chemscore.Lipo.Weighted>
-10.3814

> <Gold.Chemscore.Internal_Hbond.Weighted>
0.0000

> <Gold.Chemscore.DEClash.Weighted>
0.2756

> <Gold.Chemscore.DEInternal.Weighted>
5.7723

> <Gold.Chemscore.Rot.Weighted>
13.4839

> <Gold.Chemscore.Internal.Correction.Weighted>
   9.000000E+99

> <Gold.Protein.RotatedTorsions>
[ 6907 6896 6895 6894 ] final   89.95 input  -60.11 | X-H torsion
[ 7974 7965 7964 7962 ] final -127.04 input  175.53 | X-H torsion
[ 8008 7997 7996 7995 ] final -170.38 input   59.86 | X-H torsion
[ 10167 10162 10161 10158 ] final  170.26 input  -65.29 | X-H torsion
[ 10718 10713 10712 10709 ] final  144.02 input   66.30 | X-H torsion
[ 10763 10752 10751 10750 ] final  -86.54 input  -60.55 | X-H torsion
[ 11005 11000 10999 10996 ] final  115.66 input  -57.11 | X-H torsion

> <Gold.Protein.ActiveResidues>
 VAL166  LYS551  ARG553  GLY616  TRP617  ASP618  TYR619  PRO620  LYS621  CYS622 
 ASP623  PHE694  ASN695  SER759  ASP760  ASP761  ALA762  ILE779  LEU786  VAL792 
 PHE793  MET794  SER795  GLU796  ALA797  LYS798  CYS799  TRP800  GLU811  SER814 

> <Gold.Protein.RotatedAtoms>
  152.5441  134.1887  159.8664 H   0  0  0  0  0  0  0  0  0  0  0  0  # atno 6907 bound_to 6896
  151.1884  133.4675  159.2602 H   0  0  0  0  0  0  0  0  0  0  0  0  # atno 6908 bound_to 6896
  151.1108  135.0037  159.8548 H   0  0  0  0  0  0  0  0  0  0  0  0  # atno 6909 bound_to 6896
  144.9811  140.7641  143.4611 H   0  0  0  0  0  0  0  0  0  0  0  0  # atno 7974 bound_to 7965
  155.9175  140.1068  157.1232 H   0  0  0  0  0  0  0  0  0  0  0  0  # atno 8008 bound_to 7997
  154.4049  140.1262  156.4702 H   0  0  0  0  0  0  0  0  0  0  0  0  # atno 8009 bound_to 7997
  155.7236  140.3469  155.5029 H   0  0  0  0  0  0  0  0  0  0  0  0  # atno 8010 bound_to 7997
  139.5014  144.3616  151.9819 H   0  0  0  0  0  0  0  0  0  0  0  0  # atno 10167 bound_to 10162
  157.3621  131.0966  151.0905 H   0  0  0  0  0  0  0  0  0  0  0  0  # atno 10718 bound_to 10713
  154.6236  135.5445  153.7602 H   0  0  0  0  0  0  0  0  0  0  0  0  # atno 10763 bound_to 10752
  153.0250  135.6419  154.1404 H   0  0  0  0  0  0  0  0  0  0  0  0  # atno 10764 bound_to 10752
  154.1337  135.2912  155.3158 H   0  0  0  0  0  0  0  0  0  0  0  0  # atno 10765 bound_to 10752
  139.9017  134.9587  156.7079 H   0  0  0  0  0  0  0  0  0  0  0  0  # atno 11005 bound_to 11000
  145.2419  139.2068  143.4988 LP  0  0  0  0  0  0  0  0  0  0  0  0  # atno 17320 bound_to 7965
  146.3408  140.2316  142.8593 LP  0  0  0  0  0  0  0  0  0  0  0  0  # atno 17321 bound_to 7965
  140.3052  144.3601  150.6049 LP  0  0  0  0  0  0  0  0  0  0  0  0  # atno 17342 bound_to 10162
  140.5842  143.2171  151.7372 LP  0  0  0  0  0  0  0  0  0  0  0  0  # atno 17343 bound_to 10162
  157.2041  130.6408  149.5749 LP  0  0  0  0  0  0  0  0  0  0  0  0  # atno 17370 bound_to 10713
  155.9739  130.4681  150.6349 LP  0  0  0  0  0  0  0  0  0  0  0  0  # atno 17371 bound_to 10713
  140.7099  133.9232  155.8078 LP  0  0  0  0  0  0  0  0  0  0  0  0  # atno 17394 bound_to 11000
  141.0308  134.0758  157.4016 LP  0  0  0  0  0  0  0  0  0  0  0  0  # atno 17395 bound_to 11000

$$$$
