AV-unprocessed.smi:2569|AV-procd|sdf|10103|dock10
  -GOLD-   2272014123D 1   1.00000     0.00000
 Structure written by MMmdl.
 39 41  0  0  0  0  0  0  0  0  1 V2000
  152.6842  143.8158  162.2486 C   0  0  0  0  0  0  0  0  0  0  0  0
  152.3377  143.2448  160.8848 C   0  0  0  0  0  0  0  0  0  0  0  0
  152.6725  141.9023  160.5965 C   0  0  0  0  0  0  0  0  0  0  0  0
  152.3684  141.3340  159.3401 C   0  0  0  0  0  0  0  0  0  0  0  0
  152.5976  140.0594  158.8508 N   0  0  0  0  0  0  0  0  0  0  0  0
  152.0888  140.1472  157.6253 C   0  0  0  0  0  0  0  0  0  0  0  0
  151.5548  141.3293  157.2627 N   0  0  0  0  0  0  0  0  0  0  0  0
  150.9475  141.6565  155.9851 C   0  0  0  0  0  0  0  0  0  0  0  0
  149.6207  140.9034  155.7505 C   0  0  1  0  0  0  0  0  0  0  0  0
  148.5776  141.8252  155.5021 O   0  0  0  0  0  0  0  0  0  0  0  0
  149.6707  139.9139  154.5698 C   0  0  0  0  0  0  0  0  0  0  0  0
  150.7628  138.9612  154.6800 N   0  0  0  0  0  0  0  0  0  0  0  0
  152.0551  139.3699  154.6331 N   0  0  0  0  0  0  0  0  0  0  0  0
  152.7899  138.3032  154.7649 N   0  0  0  0  0  0  0  0  0  0  0  0
  152.0106  137.1691  154.8978 N   0  0  0  0  0  0  0  0  0  0  0  0
  150.7686  137.6309  154.8356 C   0  0  0  0  0  0  0  0  0  0  0  0
  149.5314  136.8003  154.9315 C   0  0  0  0  0  0  0  0  0  0  0  0
  151.7174  142.1527  158.3715 C   0  0  0  0  0  0  0  0  0  0  0  0
  151.3792  143.4894  158.6464 C   0  0  0  0  0  0  0  0  0  0  0  0
  151.6875  144.0407  159.9077 C   0  0  0  0  0  0  0  0  0  0  0  0
  151.3137  145.4838  160.1963 C   0  0  0  0  0  0  0  0  0  0  0  0
  153.1726  143.0728  162.8797 H   0  0  0  0  0  0  0  0  0  0  0  0
  151.7834  144.1507  162.7633 H   0  0  0  0  0  0  0  0  0  0  0  0
  153.3611  144.6642  162.1462 H   0  0  0  0  0  0  0  0  0  0  0  0
  153.1667  141.2954  161.3407 H   0  0  0  0  0  0  0  0  0  0  0  0
  152.1042  139.3032  156.9512 H   0  0  0  0  0  0  0  0  0  0  0  0
  150.7885  142.7347  155.9393 H   0  0  0  0  0  0  0  0  0  0  0  0
  151.6686  141.4161  155.2032 H   0  0  0  0  0  0  0  0  0  0  0  0
  149.3610  140.3583  156.6585 H   0  0  0  0  0  0  0  0  0  0  0  0
  147.9519  141.7686  156.2083 H   0  0  0  0  0  0  0  0  0  0  0  0
  148.7356  139.3570  154.5011 H   0  0  0  0  0  0  0  0  0  0  0  0
  149.7749  140.4568  153.6288 H   0  0  0  0  0  0  0  0  0  0  0  0
  149.7768  135.7421  154.8363 H   0  0  0  0  0  0  0  0  0  0  0  0
  148.8327  137.0648  154.1376 H   0  0  0  0  0  0  0  0  0  0  0  0
  149.0481  136.9589  155.8954 H   0  0  0  0  0  0  0  0  0  0  0  0
  150.8835  144.0836  157.8930 H   0  0  0  0  0  0  0  0  0  0  0  0
  150.8308  145.9492  159.3364 H   0  0  0  0  0  0  0  0  0  0  0  0
  152.2016  146.0681  160.4383 H   0  0  0  0  0  0  0  0  0  0  0  0
  150.6222  145.5381  161.0375 H   0  0  0  0  0  0  0  0  0  0  0  0
  1  2  1  0  0  0  0
  1 22  1  0  0  0  0
  1 23  1  0  0  0  0
  1 24  1  0  0  0  0
  2 20  1  0  0  0  0
  2  3  2  0  0  0  0
  3  4  1  0  0  0  0
  3 25  1  0  0  0  0
  4 18  2  0  0  0  0
  4  5  1  0  0  0  0
  5  6  2  0  0  0  0
  6  7  1  0  0  0  0
  6 26  1  0  0  0  0
  7  8  1  0  0  0  0
  7 18  1  0  0  0  0
  8  9  1  0  0  0  0
  8 27  1  0  0  0  0
  8 28  1  0  0  0  0
  9 10  1  0  0  0  0
  9 11  1  0  0  0  0
  9 29  1  0  0  0  0
 10 30  1  0  0  0  0
 11 12  1  0  0  0  0
 11 31  1  0  0  0  0
 11 32  1  0  0  0  0
 12 16  1  0  0  0  0
 12 13  1  0  0  0  0
 13 14  2  0  0  0  0
 14 15  1  0  0  0  0
 15 16  2  0  0  0  0
 16 17  1  0  0  0  0
 17 33  1  0  0  0  0
 17 34  1  0  0  0  0
 17 35  1  0  0  0  0
 18 19  1  0  0  0  0
 19 20  2  0  0  0  0
 19 36  1  0  0  0  0
 20 21  1  0  0  0  0
 21 37  1  0  0  0  0
 21 38  1  0  0  0  0
 21 39  1  0  0  0  0
M  END
> <s_m_source_file>
AV-unprocessed.smi

> <i_m_source_file_index>
2569

> <i_lp_mmshare_version>
43012

> <i_f3d_flags>
0

> <s_epik_input>
W0NIM11jKFtjSF0xKWMoW0NIM10pW2NIXWMoYzEyKW4oW2NIXW4yKVtDSDJdW0NASF0oW09IXSlbQ0gyXW4zbm5uYzNbQ0gzXQ==

> <s_epik_cmdline>
J2VwaWtfcHl0aG9uJywgJy1waCcsICc3LjAnLCAnLXRuJywgJzgnLCAnLW1hJywgJzIwMCcsICctbWV0YWxfYmluZGluZycsICctaW1hZScsICc8aW5maWxlLm1hZT4nLCAnLW9tYWUnLCAnPG91dGZpbGUubWFlPic=

> <r_lp_tautomer_probability>
1

> <r_epik_Ionization_Penalty>
0.0946713

> <r_epik_Ionization_Penalty_Charging>
0

> <r_epik_Ionization_Penalty_Neutral>
0.0946713

> <r_epik_State_Penalty>
0.0848712

> <r_epik_Charging_Adjusted_Penalty>
0.0848712

> <i_epik_Tot_Q>
0

> <i_epik_Tot_abs_Q>
0

> <r_epik_Metal_State_Penalty>
0.0730911

> <b_epik_Metal_Only>
0

> <s_lp_Force_Field>
OPLS_2005

> <r_lp_Energy>
9.51249

> <b_lp_Chiralities_Consistent>
1

> <s_lp_Variant>
AV-unprocessed.smi:2569-2

> <Gold.Version>
5.8.1

> <Gold.Id.Protein>
6NUR|6NUR_protein|mol2

> <Gold.PLP.Fitness>
49.6917

> <Gold.PLP.PLP>
-46.3371

> <Gold.PLP.part.hbond>
-3.3316

> <Gold.PLP.part.metal>
0.0000

> <Gold.PLP.part.buried>
-7.6045

> <Gold.PLP.part.nonpolar>
-34.2844

> <Gold.PLP.part.repulsive>
0.2029

> <Gold.PLP.ligand.clash>
0.0000

> <Gold.PLP.ligand.torsion>
0.8391

> <Gold.PLP.Chemscore.Hbond>
1.6760

> <Gold.PLP.Chemscore.CHOScore>
0.0000

> <Gold.PLP.Chemscore.Metal>
0.0000

> <Gold.Chemscore.Hbonds>
donor molecule, donor type, donor heavy atom, donor atom, acceptor molecule, acceptor atom, score
      P1  H  7989  7998       L1    13  0.62
      P1  H 10752 10764       L1    15  0.91

> <Gold.PLP.Chemscore.Internal.Correction>
0.0047

> <Gold.Rescore>
     Score         DG    S(hbond)    S(metal)    S(lipo)     H(rot)  DE(clash)    DE(int)     intcor
     12.56     -14.85       0.97        0.00     107.69       2.53       0.14       2.16       ----

> <Gold.Chemscore.Fitness>
12.5551

> <Gold.Chemscore.DG>
-14.8499

> <Gold.Chemscore.ZeroCoef>
-5.4800

> <Gold.Chemscore.Hbond>
0.9697

> <Gold.Chemscore.Metal>
0.0000

> <Gold.Chemscore.Lipo>
107.6938

> <Gold.Chemscore.Internal_Hbond>
0.0000

> <Gold.Chemscore.DEClash>
0.1394

> <Gold.Chemscore.DEInternal>
2.1554

> <Gold.Chemscore.Rot>
2.5270

> <Gold.Chemscore.Internal.Correction>
   9.000000E+99

> <Gold.Chemscore.Hbonds>
donor molecule, donor type, donor heavy atom, donor atom, acceptor molecule, acceptor atom, score
      P1  H  7989  7998       L1    13  0.06
      P1  H 10752 10764       L1    15  0.74

> <Gold.Chemscore.Hbond.Weighted>
-3.2388

> <Gold.Chemscore.Metal.Weighted>
-0.0000

> <Gold.Chemscore.Lipo.Weighted>
-12.6002

> <Gold.Chemscore.Internal_Hbond.Weighted>
0.0000

> <Gold.Chemscore.DEClash.Weighted>
0.1394

> <Gold.Chemscore.DEInternal.Weighted>
2.1554

> <Gold.Chemscore.Rot.Weighted>
6.4691

> <Gold.Chemscore.Internal.Correction.Weighted>
   9.000000E+99

> <Gold.Protein.RotatedTorsions>
[ 6907 6896 6895 6894 ] final  123.41 input  -60.11 | X-H torsion
[ 7974 7965 7964 7962 ] final  -92.77 input  175.53 | X-H torsion
[ 8008 7997 7996 7995 ] final  174.22 input   59.86 | X-H torsion
[ 10167 10162 10161 10158 ] final   19.48 input  -65.29 | X-H torsion
[ 10718 10713 10712 10709 ] final  -69.35 input   66.30 | X-H torsion
[ 10763 10752 10751 10750 ] final  -62.53 input  -60.55 | X-H torsion
[ 11005 11000 10999 10996 ] final   -6.32 input  -57.11 | X-H torsion

> <Gold.Protein.ActiveResidues>
 VAL166  LYS551  ARG553  GLY616  TRP617  ASP618  TYR619  PRO620  LYS621  CYS622 
 ASP623  PHE694  ASN695  SER759  ASP760  ASP761  ALA762  ILE779  LEU786  VAL792 
 PHE793  MET794  SER795  GLU796  ALA797  LYS798  CYS799  TRP800  GLU811  SER814 

> <Gold.Protein.RotatedAtoms>
  152.4164  133.7045  159.6442 H   0  0  0  0  0  0  0  0  0  0  0  0  # atno 6907 bound_to 6896
  150.8041  133.8532  159.3220 H   0  0  0  0  0  0  0  0  0  0  0  0  # atno 6908 bound_to 6896
  151.6261  135.1029  160.0163 H   0  0  0  0  0  0  0  0  0  0  0  0  # atno 6909 bound_to 6896
  145.3955  140.9532  143.2317 H   0  0  0  0  0  0  0  0  0  0  0  0  # atno 7974 bound_to 7965
  156.0996  140.1440  156.9485 H   0  0  0  0  0  0  0  0  0  0  0  0  # atno 8008 bound_to 7997
  154.4694  140.0915  156.7150 H   0  0  0  0  0  0  0  0  0  0  0  0  # atno 8009 bound_to 7997
  155.4782  140.3444  155.4338 H   0  0  0  0  0  0  0  0  0  0  0  0  # atno 8010 bound_to 7997
  140.5576  143.9396  150.6620 H   0  0  0  0  0  0  0  0  0  0  0  0  # atno 10167 bound_to 10162
  156.0460  130.4311  150.2134 H   0  0  0  0  0  0  0  0  0  0  0  0  # atno 10718 bound_to 10713
  154.3013  135.6234  153.5426 H   0  0  0  0  0  0  0  0  0  0  0  0  # atno 10763 bound_to 10752
  152.9840  135.5679  154.5281 H   0  0  0  0  0  0  0  0  0  0  0  0  # atno 10764 bound_to 10752
  154.4912  135.2867  155.1471 H   0  0  0  0  0  0  0  0  0  0  0  0  # atno 10765 bound_to 10752
  140.7007  133.8992  155.8681 H   0  0  0  0  0  0  0  0  0  0  0  0  # atno 11005 bound_to 11000
  144.8410  139.5471  143.6900 LP  0  0  0  0  0  0  0  0  0  0  0  0  # atno 17320 bound_to 7965
  146.2777  139.6796  142.9251 LP  0  0  0  0  0  0  0  0  0  0  0  0  # atno 17321 bound_to 7965
  140.2838  143.3371  152.1126 LP  0  0  0  0  0  0  0  0  0  0  0  0  # atno 17342 bound_to 10162
  139.5055  144.6796  151.6042 LP  0  0  0  0  0  0  0  0  0  0  0  0  # atno 17343 bound_to 10162
  157.0224  130.9983  151.3336 LP  0  0  0  0  0  0  0  0  0  0  0  0  # atno 17370 bound_to 10713
  157.5335  130.8074  149.7944 LP  0  0  0  0  0  0  0  0  0  0  0  0  # atno 17371 bound_to 10713
  141.0166  134.0947  157.4165 LP  0  0  0  0  0  0  0  0  0  0  0  0  # atno 17394 bound_to 11000
  139.8897  135.0107  156.6697 LP  0  0  0  0  0  0  0  0  0  0  0  0  # atno 17395 bound_to 11000

$$$$
