AV-unprocessed.smi:240|AV-procd|sdf|1826|dock7
  -GOLD-   2262020423D 1   1.00000     0.00000
 Structure written by MMmdl.
 55 59  0  0  0  0  0  0  0  0  1 V2000
  149.9801  139.7238  153.5753 O   0  0  0  0  0  0  0  0  0  0  0  0
  148.8621  139.8335  154.4318 C   0  0  2  0  0  0  0  0  0  0  0  0
  148.1029  141.1372  154.1202 C   0  0  0  0  0  0  0  0  0  0  0  0
  147.7683  141.7613  155.4760 C   0  0  0  0  0  0  0  0  0  0  0  0
  148.9298  141.3360  156.3705 C   0  0  0  0  0  0  0  0  0  0  0  0
  149.2010  139.8867  155.9450 C   0  0  2  0  0  0  0  0  0  0  0  0
  150.5354  139.2551  156.4573 C   0  0  2  0  0  0  0  0  0  0  0  0
  151.8171  139.9598  155.9389 C   0  0  0  0  0  0  0  0  0  0  0  0
  152.9780  139.3332  156.4724 O   0  0  0  0  0  0  0  0  0  0  0  0
  153.0751  137.9714  156.0796 C   0  0  0  0  0  0  0  0  0  0  0  0
  151.8745  137.2067  156.6502 C   0  0  0  0  0  0  0  0  0  0  0  0
  150.6276  137.8110  156.1971 N   0  0  0  0  0  0  0  0  0  0  0  0
  149.5708  137.0446  156.5493 C   0  0  0  0  0  0  0  0  0  0  0  0
  148.8991  136.4300  155.5451 N   0  0  0  0  0  0  0  0  0  0  0  0
  147.8462  135.6554  155.8224 C   0  0  0  0  0  0  0  0  0  0  0  0
  147.3139  135.3642  157.0112 N   0  0  0  0  0  0  0  0  0  0  0  0
  147.9929  135.9759  158.0239 C   0  0  0  0  0  0  0  0  0  0  0  0
  149.1285  136.8224  157.8845 C   0  0  0  0  0  0  0  0  0  0  0  0
  149.5583  137.2470  159.1359 N   0  0  0  0  0  0  0  0  0  0  0  0
  148.7208  136.6892  159.9666 C   0  0  0  0  0  0  0  0  0  0  0  0
  147.7419  135.9162  159.3839 N   0  0  0  0  0  0  0  0  0  0  0  0
  146.6862  135.1828  160.0659 C   0  0  0  0  0  0  0  0  0  0  0  0
  146.5357  135.5559  161.5598 C   0  0  1  0  0  0  0  0  0  0  0  0
  145.4166  134.8738  162.0989 O   0  0  0  0  0  0  0  0  0  0  0  0
  147.7622  135.1921  162.3864 C   0  0  0  0  0  0  0  0  0  0  0  0
  147.7240  136.2168  163.5117 C   0  0  0  0  0  0  0  0  0  0  0  0
  147.3124  137.4010  162.8502 O   0  0  0  0  0  0  0  0  0  0  0  0
  146.3681  137.0641  161.8375 C   0  0  0  0  0  0  0  0  0  0  0  0
  149.6677  139.6200  152.6890 H   0  0  0  0  0  0  0  0  0  0  0  0
  148.2181  138.9743  154.2401 H   0  0  0  0  0  0  0  0  0  0  0  0
  148.7410  141.8281  153.5664 H   0  0  0  0  0  0  0  0  0  0  0  0
  147.2131  140.9643  153.5142 H   0  0  0  0  0  0  0  0  0  0  0  0
  147.6539  142.8443  155.4226 H   0  0  0  0  0  0  0  0  0  0  0  0
  146.8350  141.3441  155.8566 H   0  0  0  0  0  0  0  0  0  0  0  0
  149.7826  141.9800  156.1604 H   0  0  0  0  0  0  0  0  0  0  0  0
  148.6945  141.4239  157.4315 H   0  0  0  0  0  0  0  0  0  0  0  0
  148.3987  139.3265  156.4275 H   0  0  0  0  0  0  0  0  0  0  0  0
  150.5491  139.3851  157.5395 H   0  0  0  0  0  0  0  0  0  0  0  0
  151.8802  139.9639  154.8517 H   0  0  0  0  0  0  0  0  0  0  0  0
  151.8426  140.9998  156.2598 H   0  0  0  0  0  0  0  0  0  0  0  0
  153.1130  137.8899  154.9920 H   0  0  0  0  0  0  0  0  0  0  0  0
  154.0048  137.5542  156.4661 H   0  0  0  0  0  0  0  0  0  0  0  0
  151.9213  136.1625  156.3373 H   0  0  0  0  0  0  0  0  0  0  0  0
  151.9115  137.2183  157.7406 H   0  0  0  0  0  0  0  0  0  0  0  0
  147.3605  135.2043  154.9699 H   0  0  0  0  0  0  0  0  0  0  0  0
  148.7964  136.8286  161.0351 H   0  0  0  0  0  0  0  0  0  0  0  0
  145.7486  135.3601  159.5375 H   0  0  0  0  0  0  0  0  0  0  0  0
  146.8960  134.1171  159.9652 H   0  0  0  0  0  0  0  0  0  0  0  0
  144.7912  135.5145  162.4011 H   0  0  0  0  0  0  0  0  0  0  0  0
  147.7624  134.1611  162.7433 H   0  0  0  0  0  0  0  0  0  0  0  0
  148.6712  135.3404  161.8014 H   0  0  0  0  0  0  0  0  0  0  0  0
  146.9858  135.9426  164.2669 H   0  0  0  0  0  0  0  0  0  0  0  0
  148.6895  136.3440  164.0017 H   0  0  0  0  0  0  0  0  0  0  0  0
  146.5907  137.6719  160.9611 H   0  0  0  0  0  0  0  0  0  0  0  0
  145.3574  137.3166  162.1616 H   0  0  0  0  0  0  0  0  0  0  0  0
  1  2  1  0  0  0  0
  1 29  1  0  0  0  0
  2  6  1  0  0  0  0
  2  3  1  0  0  0  0
  2 30  1  0  0  0  0
  3  4  1  0  0  0  0
  3 31  1  0  0  0  0
  3 32  1  0  0  0  0
  4  5  1  0  0  0  0
  4 33  1  0  0  0  0
  4 34  1  0  0  0  0
  5  6  1  0  0  0  0
  5 35  1  0  0  0  0
  5 36  1  0  0  0  0
  6  7  1  0  0  0  0
  6 37  1  0  0  0  0
  7 12  1  0  0  0  0
  7  8  1  0  0  0  0
  7 38  1  0  0  0  0
  8  9  1  0  0  0  0
  8 39  1  0  0  0  0
  8 40  1  0  0  0  0
  9 10  1  0  0  0  0
 10 11  1  0  0  0  0
 10 41  1  0  0  0  0
 10 42  1  0  0  0  0
 11 12  1  0  0  0  0
 11 43  1  0  0  0  0
 11 44  1  0  0  0  0
 12 13  1  0  0  0  0
 13 18  1  0  0  0  0
 13 14  2  0  0  0  0
 14 15  1  0  0  0  0
 15 16  2  0  0  0  0
 15 45  1  0  0  0  0
 16 17  1  0  0  0  0
 17 21  1  0  0  0  0
 17 18  2  0  0  0  0
 18 19  1  0  0  0  0
 19 20  2  0  0  0  0
 20 21  1  0  0  0  0
 20 46  1  0  0  0  0
 21 22  1  0  0  0  0
 22 23  1  0  0  0  0
 22 47  1  0  0  0  0
 22 48  1  0  0  0  0
 23 28  1  0  0  0  0
 23 24  1  0  0  0  0
 23 25  1  0  0  0  0
 24 49  1  0  0  0  0
 25 26  1  0  0  0  0
 25 50  1  0  0  0  0
 25 51  1  0  0  0  0
 26 27  1  0  0  0  0
 26 52  1  0  0  0  0
 26 53  1  0  0  0  0
 27 28  1  0  0  0  0
 28 54  1  0  0  0  0
 28 55  1  0  0  0  0
M  END
> <s_m_source_file>
AV-unprocessed.smi

> <i_m_source_file_index>
240

> <i_lp_mmshare_version>
43012

> <i_f3d_flags>
0

> <s_epik_input>
W09IXVtDQEBIXTFbQ0gyXVtDSDJdW0NIMl1bQ0BIXTFbQ0BASF0yW0NIMl1PW0NIMl1bQ0gyXU4yYyhuW2NIXW4zKWMoYzM0KW5bY0hdbjRbQ0gyXVtDQEBdNShbT0hdKVtDSDJdW0NIMl1PW0NIMl01

> <s_epik_cmdline>
J2VwaWtfcHl0aG9uJywgJy1waCcsICc3LjAnLCAnLXRuJywgJzgnLCAnLW1hJywgJzIwMCcsICctbWV0YWxfYmluZGluZycsICctaW1hZScsICc8aW5maWxlLm1hZT4nLCAnLW9tYWUnLCAnPG91dGZpbGUubWFlPic=

> <r_lp_tautomer_probability>
1

> <r_epik_Ionization_Penalty>
0.000130618

> <r_epik_Ionization_Penalty_Charging>
0

> <r_epik_Ionization_Penalty_Neutral>
0.000130618

> <r_epik_State_Penalty>
-0

> <r_epik_Charging_Adjusted_Penalty>
0

> <i_epik_Tot_Q>
0

> <i_epik_Tot_abs_Q>
0

> <r_epik_Metal_State_Penalty>
-0

> <b_epik_Metal_Only>
0

> <s_lp_Force_Field>
OPLS_2005

> <r_lp_Energy>
64.3211

> <b_lp_Chiralities_Consistent>
1

> <s_lp_Variant>
AV-unprocessed.smi:240-3

> <Gold.Version>
5.8.1

> <Gold.Id.Protein>
6NUR|6NUR_protein|mol2

> <Gold.PLP.Fitness>
43.1980

> <Gold.PLP.PLP>
-33.9233

> <Gold.PLP.part.hbond>
-4.6155

> <Gold.PLP.part.metal>
0.0000

> <Gold.PLP.part.buried>
-4.0224

> <Gold.PLP.part.nonpolar>
-25.6998

> <Gold.PLP.part.repulsive>
0.0902

> <Gold.PLP.ligand.clash>
0.0000

> <Gold.PLP.ligand.torsion>
0.2645

> <Gold.PLP.Chemscore.Hbond>
3.1877

> <Gold.PLP.Chemscore.CHOScore>
0.0000

> <Gold.PLP.Chemscore.Metal>
0.0000

> <Gold.Chemscore.Hbonds>
donor molecule, donor type, donor heavy atom, donor atom, acceptor molecule, acceptor atom, score
      L1  H     1    29       P1  7957  1.00
      P1  H  6931  6943       L1    27  0.48
      P1  H  7989  7998       L1     1  0.77
      P1  H  7997  8010       L1     9  1.00

> <Gold.PLP.Chemscore.Internal.Correction>
0.2406

> <Gold.Rescore>
     Score         DG    S(hbond)    S(metal)    S(lipo)     H(rot)  DE(clash)    DE(int)     intcor
     13.45     -16.15       2.46        0.00      86.73       3.00       0.21       2.49       ----

> <Gold.Chemscore.Fitness>
13.4466

> <Gold.Chemscore.DG>
-16.1477

> <Gold.Chemscore.ZeroCoef>
-5.4800

> <Gold.Chemscore.Hbond>
2.4582

> <Gold.Chemscore.Metal>
0.0000

> <Gold.Chemscore.Lipo>
86.7282

> <Gold.Chemscore.Internal_Hbond>
0.0000

> <Gold.Chemscore.DEClash>
0.2140

> <Gold.Chemscore.DEInternal>
2.4871

> <Gold.Chemscore.Rot>
3.0039

> <Gold.Chemscore.Internal.Correction>
   9.000000E+99

> <Gold.Chemscore.Hbonds>
donor molecule, donor type, donor heavy atom, donor atom, acceptor molecule, acceptor atom, score
      L1  H     1    29       P1  7957  0.95
      P1  H  6931  6943       L1    27  0.22
      P1  H  7989  7998       L1     1  0.41
      P1  H  7997  8010       L1     9  0.85

> <Gold.Chemscore.Hbond.Weighted>
-8.2104

> <Gold.Chemscore.Metal.Weighted>
-0.0000

> <Gold.Chemscore.Lipo.Weighted>
-10.1472

> <Gold.Chemscore.Internal_Hbond.Weighted>
0.0000

> <Gold.Chemscore.DEClash.Weighted>
0.2140

> <Gold.Chemscore.DEInternal.Weighted>
2.4871

> <Gold.Chemscore.Rot.Weighted>
7.6899

> <Gold.Chemscore.Internal.Correction.Weighted>
   9.000000E+99

> <Gold.Protein.RotatedTorsions>
[ 6907 6896 6895 6894 ] final  159.70 input  -60.11 | X-H torsion
[ 7974 7965 7964 7962 ] final  145.24 input  175.53 | X-H torsion
[ 8008 7997 7996 7995 ] final   62.02 input   59.86 | X-H torsion
[ 10167 10162 10161 10158 ] final  162.08 input  -65.29 | X-H torsion
[ 10718 10713 10712 10709 ] final  -90.51 input   66.30 | X-H torsion
[ 10763 10752 10751 10750 ] final  -97.45 input  -60.55 | X-H torsion
[ 11005 11000 10999 10996 ] final  -27.78 input  -57.11 | X-H torsion

> <Gold.Protein.ActiveResidues>
 VAL166  LYS551  ARG553  GLY616  TRP617  ASP618  TYR619  PRO620  LYS621  CYS622 
 ASP623  PHE694  ASN695  SER759  ASP760  ASP761  ALA762  ILE779  LEU786  VAL792 
 PHE793  MET794  SER795  GLU796  ALA797  LYS798  CYS799  TRP800  GLU811  SER814 

> <Gold.Protein.RotatedAtoms>
  151.9817  133.3760  159.4109 H   0  0  0  0  0  0  0  0  0  0  0  0  # atno 6907 bound_to 6896
  150.6934  134.4032  159.5137 H   0  0  0  0  0  0  0  0  0  0  0  0  # atno 6908 bound_to 6896
  152.1752  134.8801  160.0582 H   0  0  0  0  0  0  0  0  0  0  0  0  # atno 6909 bound_to 6896
  144.8769  139.5759  143.5861 H   0  0  0  0  0  0  0  0  0  0  0  0  # atno 7974 bound_to 7965
  155.6077  140.3494  155.4613 H   0  0  0  0  0  0  0  0  0  0  0  0  # atno 8008 bound_to 7997
  156.0178  140.1247  157.0412 H   0  0  0  0  0  0  0  0  0  0  0  0  # atno 8009 bound_to 7997
  154.4304  140.1068  156.5907 H   0  0  0  0  0  0  0  0  0  0  0  0  # atno 8010 bound_to 7997
  139.4856  144.4473  151.8876 H   0  0  0  0  0  0  0  0  0  0  0  0  # atno 10167 bound_to 10162
  155.9988  130.4912  150.5333 H   0  0  0  0  0  0  0  0  0  0  0  0  # atno 10718 bound_to 10713
  154.7329  135.5046  153.8993 H   0  0  0  0  0  0  0  0  0  0  0  0  # atno 10763 bound_to 10752
  153.0966  135.6674  153.9759 H   0  0  0  0  0  0  0  0  0  0  0  0  # atno 10764 bound_to 10752
  153.9556  135.3053  155.3415 H   0  0  0  0  0  0  0  0  0  0  0  0  # atno 10765 bound_to 10752
  140.9150  133.7436  156.0722 H   0  0  0  0  0  0  0  0  0  0  0  0  # atno 11005 bound_to 11000
  146.2968  139.7303  142.9120 LP  0  0  0  0  0  0  0  0  0  0  0  0  # atno 17320 bound_to 7965
  145.4027  141.0387  143.3062 LP  0  0  0  0  0  0  0  0  0  0  0  0  # atno 17321 bound_to 7965
  140.3927  144.2594  150.5898 LP  0  0  0  0  0  0  0  0  0  0  0  0  # atno 17342 bound_to 10162
  140.5130  143.2285  151.8505 LP  0  0  0  0  0  0  0  0  0  0  0  0  # atno 17343 bound_to 10162
  157.3280  131.0694  151.1882 LP  0  0  0  0  0  0  0  0  0  0  0  0  # atno 17370 bound_to 10713
  157.2773  130.6733  149.6048 LP  0  0  0  0  0  0  0  0  0  0  0  0  # atno 17371 bound_to 10713
  140.8061  134.3453  157.5425 LP  0  0  0  0  0  0  0  0  0  0  0  0  # atno 17394 bound_to 11000
  139.8764  134.9227  156.3306 LP  0  0  0  0  0  0  0  0  0  0  0  0  # atno 17395 bound_to 11000

$$$$
