AV-unprocessed.smi:2381|AV-procd|sdf|9457|dock1
  -GOLD-   2272013 83D 1   1.00000     0.00000
 Structure written by MMmdl.
 30 31  0  0  0  0  0  0  0  0  1 V2000
  153.4995  141.6992  160.9328 C   0  0  0  0  0  0  0  0  0  0  0  0
  152.6059  142.7847  160.3701 C   0  0  0  0  0  0  0  0  0  0  0  0
  152.4868  144.0308  161.0147 C   0  0  0  0  0  0  0  0  0  0  0  0
  151.6401  144.9969  160.4409 C   0  0  0  0  0  0  0  0  0  0  0  0
  150.9397  144.7858  159.3069 N   0  0  0  0  0  0  0  0  0  0  0  0
  151.0454  143.5892  158.6768 C   0  0  0  0  0  0  0  0  0  0  0  0
  150.3495  143.2627  157.4821 N   0  0  0  0  0  0  0  0  0  0  0  0
  150.0722  142.0427  156.9887 C   0  0  0  0  0  0  0  0  0  0  0  0
  150.3711  140.9735  157.5217 O   0  0  0  0  0  0  0  0  0  0  0  0
  149.4174  142.1279  155.8216 N   0  0  0  0  0  0  0  0  0  0  0  0
  148.9827  140.9881  155.0241 C   0  0  0  0  0  0  0  0  0  0  0  0
  148.2089  141.3430  153.7681 C   0  0  0  0  0  0  0  0  0  0  0  0
  146.7816  141.8329  153.8434 C   0  0  0  0  0  0  0  0  0  0  0  0
  147.0805  140.4606  153.2886 C   0  0  0  0  0  0  0  0  0  0  0  0
  151.8742  142.5637  159.1857 C   0  0  0  0  0  0  0  0  0  0  0  0
  154.0136  142.0360  161.8334 H   0  0  0  0  0  0  0  0  0  0  0  0
  154.2519  141.4105  160.1984 H   0  0  0  0  0  0  0  0  0  0  0  0
  152.9095  140.8181  161.1858 H   0  0  0  0  0  0  0  0  0  0  0  0
  153.0276  144.2458  161.9247 H   0  0  0  0  0  0  0  0  0  0  0  0
  151.5217  145.9648  160.9048 H   0  0  0  0  0  0  0  0  0  0  0  0
  150.0336  144.0498  156.9353 H   0  0  0  0  0  0  0  0  0  0  0  0
  149.2105  143.0452  155.4549 H   0  0  0  0  0  0  0  0  0  0  0  0
  149.8508  140.3902  154.7415 H   0  0  0  0  0  0  0  0  0  0  0  0
  148.3663  140.3484  155.6564 H   0  0  0  0  0  0  0  0  0  0  0  0
  148.8240  141.7750  152.9810 H   0  0  0  0  0  0  0  0  0  0  0  0
  146.3136  141.8868  154.8244 H   0  0  0  0  0  0  0  0  0  0  0  0
  146.4788  142.6055  153.1397 H   0  0  0  0  0  0  0  0  0  0  0  0
  146.9767  140.3183  152.2148 H   0  0  0  0  0  0  0  0  0  0  0  0
  146.8105  139.6026  153.9012 H   0  0  0  0  0  0  0  0  0  0  0  0
  151.9502  141.6145  158.6748 H   0  0  0  0  0  0  0  0  0  0  0  0
  1  2  1  0  0  0  0
  1 16  1  0  0  0  0
  1 17  1  0  0  0  0
  1 18  1  0  0  0  0
  2 15  1  0  0  0  0
  2  3  2  0  0  0  0
  3  4  1  0  0  0  0
  3 19  1  0  0  0  0
  4  5  2  0  0  0  0
  4 20  1  0  0  0  0
  5  6  1  0  0  0  0
  6  7  1  0  0  0  0
  6 15  2  0  0  0  0
  7  8  1  0  0  0  0
  7 21  1  0  0  0  0
  8  9  2  0  0  0  0
  8 10  1  0  0  0  0
 10 11  1  0  0  0  0
 10 22  1  0  0  0  0
 11 12  1  0  0  0  0
 11 23  1  0  0  0  0
 11 24  1  0  0  0  0
 12 14  1  0  0  0  0
 12 13  1  0  0  0  0
 12 25  1  0  0  0  0
 13 14  1  0  0  0  0
 13 26  1  0  0  0  0
 13 27  1  0  0  0  0
 14 28  1  0  0  0  0
 14 29  1  0  0  0  0
 15 30  1  0  0  0  0
M  END
> <s_m_source_file>
AV-unprocessed.smi

> <i_m_source_file_index>
2381

> <i_lp_mmshare_version>
43012

> <i_f3d_flags>
0

> <s_epik_input>
W0NIM11jMVtjSF1bY0hdbmMoW2NIXTEpW05IXUMoPU8pW05IXVtDSDJdW0NIXTJbQ0gyXVtDSDJdMg==

> <s_epik_cmdline>
J2VwaWtfcHl0aG9uJywgJy1waCcsICc3LjAnLCAnLXRuJywgJzgnLCAnLW1hJywgJzIwMCcsICctbWV0YWxfYmluZGluZycsICctaW1hZScsICc8aW5maWxlLm1hZT4nLCAnLW9tYWUnLCAnPG91dGZpbGUubWFlPic=

> <r_lp_tautomer_probability>
1

> <r_epik_Ionization_Penalty>
9.40607e-05

> <r_epik_Ionization_Penalty_Charging>
0

> <r_epik_Ionization_Penalty_Neutral>
9.40607e-05

> <r_epik_State_Penalty>
-0

> <r_epik_Charging_Adjusted_Penalty>
0

> <i_epik_Tot_Q>
0

> <i_epik_Tot_abs_Q>
0

> <r_epik_Metal_State_Penalty>
-0

> <b_epik_Metal_Only>
0

> <s_lp_Force_Field>
OPLS_2005

> <r_lp_Energy>
14.347

> <b_lp_Chiralities_Consistent>
1

> <s_lp_Variant>
AV-unprocessed.smi:2381-1

> <Gold.Version>
5.8.1

> <Gold.Id.Protein>
6NUR|6NUR_protein|mol2

> <Gold.PLP.Fitness>
41.5051

> <Gold.PLP.PLP>
-35.7559

> <Gold.PLP.part.hbond>
-2.0000

> <Gold.PLP.part.metal>
0.0000

> <Gold.PLP.part.buried>
-4.3762

> <Gold.PLP.part.nonpolar>
-29.2654

> <Gold.PLP.part.repulsive>
0.3027

> <Gold.PLP.ligand.clash>
0.0348

> <Gold.PLP.ligand.torsion>
0.3803

> <Gold.PLP.Chemscore.Hbond>
2.0000

> <Gold.PLP.Chemscore.CHOScore>
0.0000

> <Gold.PLP.Chemscore.Metal>
0.0000

> <Gold.Chemscore.Hbonds>
donor molecule, donor type, donor heavy atom, donor atom, acceptor molecule, acceptor atom, score
      L1  H     7    21       P1  8028  1.00
      L1  H    10    22       P1  8028  1.00

> <Gold.PLP.Chemscore.Internal.Correction>
0.5447

> <Gold.Rescore>
     Score         DG    S(hbond)    S(metal)    S(lipo)     H(rot)  DE(clash)    DE(int)     intcor
     16.97     -18.83       1.90        0.00      86.08       1.20       0.02       1.84       ----

> <Gold.Chemscore.Fitness>
16.9703

> <Gold.Chemscore.DG>
-18.8303

> <Gold.Chemscore.ZeroCoef>
-5.4800

> <Gold.Chemscore.Hbond>
1.8985

> <Gold.Chemscore.Metal>
0.0000

> <Gold.Chemscore.Lipo>
86.0815

> <Gold.Chemscore.Internal_Hbond>
0.0000

> <Gold.Chemscore.DEClash>
0.0197

> <Gold.Chemscore.DEInternal>
1.8404

> <Gold.Chemscore.Rot>
1.1962

> <Gold.Chemscore.Internal.Correction>
   9.000000E+99

> <Gold.Chemscore.Hbonds>
donor molecule, donor type, donor heavy atom, donor atom, acceptor molecule, acceptor atom, score
      L1  H     7    21       P1  8028  0.89
      L1  H    10    22       P1  8028  0.97

> <Gold.Chemscore.Hbond.Weighted>
-6.3410

> <Gold.Chemscore.Metal.Weighted>
-0.0000

> <Gold.Chemscore.Lipo.Weighted>
-10.0715

> <Gold.Chemscore.Internal_Hbond.Weighted>
0.0000

> <Gold.Chemscore.DEClash.Weighted>
0.0197

> <Gold.Chemscore.DEInternal.Weighted>
1.8404

> <Gold.Chemscore.Rot.Weighted>
3.0622

> <Gold.Chemscore.Internal.Correction.Weighted>
   9.000000E+99

> <Gold.Protein.RotatedTorsions>
[ 6907 6896 6895 6894 ] final  131.29 input  -60.11 | X-H torsion
[ 7974 7965 7964 7962 ] final -129.93 input  175.53 | X-H torsion
[ 8008 7997 7996 7995 ] final   67.99 input   59.86 | X-H torsion
[ 10167 10162 10161 10158 ] final   15.97 input  -65.29 | X-H torsion
[ 10718 10713 10712 10709 ] final   57.56 input   66.30 | X-H torsion
[ 10763 10752 10751 10750 ] final -139.61 input  -60.55 | X-H torsion
[ 11005 11000 10999 10996 ] final  138.06 input  -57.11 | X-H torsion

> <Gold.Protein.ActiveResidues>
 VAL166  LYS551  ARG553  GLY616  TRP617  ASP618  TYR619  PRO620  LYS621  CYS622 
 ASP623  PHE694  ASN695  SER759  ASP760  ASP761  ALA762  ILE779  LEU786  VAL792 
 PHE793  MET794  SER795  GLU796  ALA797  LYS798  CYS799  TRP800  GLU811  SER814 

> <Gold.Protein.RotatedAtoms>
  152.3441  133.6101  159.5896 H   0  0  0  0  0  0  0  0  0  0  0  0  # atno 6907 bound_to 6896
  150.7496  133.9677  159.3544 H   0  0  0  0  0  0  0  0  0  0  0  0  # atno 6908 bound_to 6896
  151.7538  135.0827  160.0386 H   0  0  0  0  0  0  0  0  0  0  0  0  # atno 6909 bound_to 6896
  144.9524  140.7359  143.4780 H   0  0  0  0  0  0  0  0  0  0  0  0  # atno 7974 bound_to 7965
  155.7015  140.3495  155.4935 H   0  0  0  0  0  0  0  0  0  0  0  0  # atno 8008 bound_to 7997
  155.9436  140.1106  157.1057 H   0  0  0  0  0  0  0  0  0  0  0  0  # atno 8009 bound_to 7997
  154.4107  140.1208  156.4946 H   0  0  0  0  0  0  0  0  0  0  0  0  # atno 8010 bound_to 7997
  140.5830  143.8944  150.6806 H   0  0  0  0  0  0  0  0  0  0  0  0  # atno 10167 bound_to 10162
  157.5524  130.8775  149.8984 H   0  0  0  0  0  0  0  0  0  0  0  0  # atno 10718 bound_to 10713
  154.8604  135.3577  154.5574 H   0  0  0  0  0  0  0  0  0  0  0  0  # atno 10763 bound_to 10752
  153.6190  135.7006  153.5322 H   0  0  0  0  0  0  0  0  0  0  0  0  # atno 10764 bound_to 10752
  153.3145  135.4169  155.1324 H   0  0  0  0  0  0  0  0  0  0  0  0  # atno 10765 bound_to 10752
  140.0157  134.9419  157.0371 H   0  0  0  0  0  0  0  0  0  0  0  0  # atno 11005 bound_to 11000
  145.2824  139.1913  143.4784 LP  0  0  0  0  0  0  0  0  0  0  0  0  # atno 17320 bound_to 7965
  146.3325  140.2788  142.8609 LP  0  0  0  0  0  0  0  0  0  0  0  0  # atno 17321 bound_to 7965
  140.2448  143.3637  152.1456 LP  0  0  0  0  0  0  0  0  0  0  0  0  # atno 17342 bound_to 10162
  139.5181  144.7001  151.5518 LP  0  0  0  0  0  0  0  0  0  0  0  0  # atno 17343 bound_to 10162
  156.0588  130.3703  150.1028 LP  0  0  0  0  0  0  0  0  0  0  0  0  # atno 17370 bound_to 10713
  156.9200  130.9680  151.3550 LP  0  0  0  0  0  0  0  0  0  0  0  0  # atno 17371 bound_to 10713
  140.4475  134.1617  155.7178 LP  0  0  0  0  0  0  0  0  0  0  0  0  # atno 17394 bound_to 11000
  141.1741  133.8549  157.1478 LP  0  0  0  0  0  0  0  0  0  0  0  0  # atno 17395 bound_to 11000

$$$$
