AV-unprocessed.smi:1386|AV-procd|sdf|5639|dock9
  -GOLD-   22720 5253D 1   1.00000     0.00000
 Structure written by MMmdl.
 35 36  0  0  0  0  0  0  0  0  1 V2000
  149.1080  140.6451  157.8014 C   0  0  0  0  0  0  0  0  0  0  0  0
  150.3396  140.9070  156.9246 C   0  0  1  0  0  0  0  0  0  0  0  0
  149.9768  141.7227  155.6667 C   0  0  0  0  0  0  0  0  0  0  0  0
  148.8498  141.1611  154.9431 N   0  0  0  0  0  0  0  0  0  0  0  0
  147.6804  141.8113  154.5712 C   0  0  0  0  0  0  0  0  0  0  0  0
  146.9026  140.8799  153.9213 C   0  0  0  0  0  0  0  0  0  0  0  0
  147.5736  139.6604  153.8720 N   0  0  0  0  0  0  0  0  0  0  0  0
  148.7208  139.9062  154.4908 C   0  0  0  0  0  0  0  0  0  0  0  0
  151.3508  141.6111  157.7126 N   0  0  0  0  0  0  0  0  0  0  0  0
  151.2021  142.8145  158.2949 C   0  0  0  0  0  0  0  0  0  0  0  0
  150.1945  143.5045  158.1339 O   0  0  0  0  0  0  0  0  0  0  0  0
  152.2497  143.2036  159.0645 N   0  0  0  0  0  0  0  0  0  0  0  0
  153.3700  142.3480  159.4889 C   0  0  0  0  0  0  0  0  0  0  0  0
  153.0539  141.7597  160.8743 C   0  0  0  0  0  0  0  0  0  0  0  0
  152.8910  143.0763  162.1206 S   0  0  0  0  0  0  0  0  0  0  0  0
  151.7389  144.1848  161.2497 C   0  0  0  0  0  0  0  0  0  0  0  0
  152.2202  144.4642  159.8154 C   0  0  0  0  0  0  0  0  0  0  0  0
  148.3429  140.0992  157.2487 H   0  0  0  0  0  0  0  0  0  0  0  0
  148.6636  141.5770  158.1528 H   0  0  0  0  0  0  0  0  0  0  0  0
  149.3691  140.0490  158.6764 H   0  0  0  0  0  0  0  0  0  0  0  0
  150.7190  139.9350  156.6049 H   0  0  0  0  0  0  0  0  0  0  0  0
  149.7222  142.7467  155.9425 H   0  0  0  0  0  0  0  0  0  0  0  0
  150.8323  141.7834  154.9923 H   0  0  0  0  0  0  0  0  0  0  0  0
  147.4991  142.8506  154.8028 H   0  0  0  0  0  0  0  0  0  0  0  0
  145.9200  140.9932  153.4875 H   0  0  0  0  0  0  0  0  0  0  0  0
  149.4814  139.1515  154.6273 H   0  0  0  0  0  0  0  0  0  0  0  0
  152.2158  141.1180  157.8792 H   0  0  0  0  0  0  0  0  0  0  0  0
  153.5863  141.5464  158.7824 H   0  0  0  0  0  0  0  0  0  0  0  0
  154.2890  142.9340  159.5352 H   0  0  0  0  0  0  0  0  0  0  0  0
  152.1283  141.1850  160.8423 H   0  0  0  0  0  0  0  0  0  0  0  0
  153.8435  141.0771  161.1879 H   0  0  0  0  0  0  0  0  0  0  0  0
  150.7477  143.7294  161.2374 H   0  0  0  0  0  0  0  0  0  0  0  0
  151.6559  145.1152  161.8116 H   0  0  0  0  0  0  0  0  0  0  0  0
  153.2121  144.9179  159.8315 H   0  0  0  0  0  0  0  0  0  0  0  0
  151.5731  145.2036  159.3408 H   0  0  0  0  0  0  0  0  0  0  0  0
  1  2  1  0  0  0  0
  1 18  1  0  0  0  0
  1 19  1  0  0  0  0
  1 20  1  0  0  0  0
  2  3  1  0  0  0  0
  2  9  1  0  0  0  0
  2 21  1  0  0  0  0
  3  4  1  0  0  0  0
  3 22  1  0  0  0  0
  3 23  1  0  0  0  0
  4  8  1  0  0  0  0
  4  5  1  0  0  0  0
  5  6  2  0  0  0  0
  5 24  1  0  0  0  0
  6  7  1  0  0  0  0
  6 25  1  0  0  0  0
  7  8  2  0  0  0  0
  8 26  1  0  0  0  0
  9 10  1  0  0  0  0
  9 27  1  0  0  0  0
 10 11  2  0  0  0  0
 10 12  1  0  0  0  0
 12 17  1  0  0  0  0
 12 13  1  0  0  0  0
 13 14  1  0  0  0  0
 13 28  1  0  0  0  0
 13 29  1  0  0  0  0
 14 15  1  0  0  0  0
 14 30  1  0  0  0  0
 14 31  1  0  0  0  0
 15 16  1  0  0  0  0
 16 17  1  0  0  0  0
 16 32  1  0  0  0  0
 16 33  1  0  0  0  0
 17 34  1  0  0  0  0
 17 35  1  0  0  0  0
M  END
> <s_m_source_file>
AV-unprocessed.smi

> <i_m_source_file_index>
1386

> <i_lp_mmshare_version>
43012

> <i_f3d_flags>
0

> <s_epik_input>
W2NIXTFuW2NIXVtjSF1uMVtDSDJdW0NAQEhdKFtDSDNdKVtOSF1DKD1PKU4yW0NIMl1bQ0gyXVNbQ0gyXVtDSDJdMg==

> <s_epik_cmdline>
J2VwaWtfcHl0aG9uJywgJy1waCcsICc3LjAnLCAnLXRuJywgJzgnLCAnLW1hJywgJzIwMCcsICctbWV0YWxfYmluZGluZycsICctaW1hZScsICc8aW5maWxlLm1hZT4nLCAnLW9tYWUnLCAnPG91dGZpbGUubWFlPic=

> <r_lp_tautomer_probability>
1

> <r_epik_Ionization_Penalty>
0.622677

> <r_epik_Ionization_Penalty_Charging>
0.62263

> <r_epik_Ionization_Penalty_Neutral>
4.67019e-05

> <r_epik_State_Penalty>
0.63879

> <r_epik_Charging_Adjusted_Penalty>
1.26142

> <i_epik_Tot_Q>
0

> <i_epik_Tot_abs_Q>
0

> <r_epik_Metal_State_Penalty>
0.307117

> <b_epik_Metal_Only>
0

> <s_lp_Force_Field>
OPLS_2005

> <r_lp_Energy>
24.3831

> <b_lp_Chiralities_Consistent>
1

> <s_lp_Variant>
AV-unprocessed.smi:1386-4

> <Gold.Version>
5.8.1

> <Gold.Id.Protein>
6NUR|6NUR_protein|mol2

> <Gold.PLP.Fitness>
45.7386

> <Gold.PLP.PLP>
-40.2290

> <Gold.PLP.part.hbond>
0.0000

> <Gold.PLP.part.metal>
0.0000

> <Gold.PLP.part.buried>
-5.8940

> <Gold.PLP.part.nonpolar>
-36.5077

> <Gold.PLP.part.repulsive>
1.0516

> <Gold.PLP.ligand.clash>
0.0000

> <Gold.PLP.ligand.torsion>
0.1064

> <Gold.PLP.Chemscore.Hbond>
0.0000

> <Gold.PLP.Chemscore.CHOScore>
1.8878

> <Gold.PLP.Chemscore.Metal>
0.0000

> <Gold.Chemscore.Hbonds>
donor molecule, donor type, donor heavy atom, donor atom, acceptor molecule, acceptor atom, score
      L1  C     5    24       P1  8028  1.00
      L1  C     6    25       P1 10175  1.00

> <Gold.PLP.Chemscore.Internal.Correction>
0.0589

> <Gold.Rescore>
     Score         DG    S(hbond)    S(metal)    S(lipo)     H(rot)  DE(clash)    DE(int)     intcor
     10.19     -11.71       0.00        0.00      88.04       1.59       0.46       1.07       ----

> <Gold.Chemscore.Fitness>
10.1870

> <Gold.Chemscore.DG>
-11.7101

> <Gold.Chemscore.ZeroCoef>
-5.4800

> <Gold.Chemscore.Hbond>
0.0000

> <Gold.Chemscore.Metal>
0.0000

> <Gold.Chemscore.Lipo>
88.0404

> <Gold.Chemscore.Internal_Hbond>
0.0000

> <Gold.Chemscore.DEClash>
0.4579

> <Gold.Chemscore.DEInternal>
1.0652

> <Gold.Chemscore.Rot>
1.5901

> <Gold.Chemscore.Internal.Correction>
   9.000000E+99

> <Gold.Chemscore.Hbond.Weighted>
-0.0000

> <Gold.Chemscore.Metal.Weighted>
-0.0000

> <Gold.Chemscore.Lipo.Weighted>
-10.3007

> <Gold.Chemscore.Internal_Hbond.Weighted>
0.0000

> <Gold.Chemscore.DEClash.Weighted>
0.4579

> <Gold.Chemscore.DEInternal.Weighted>
1.0652

> <Gold.Chemscore.Rot.Weighted>
4.0706

> <Gold.Chemscore.Internal.Correction.Weighted>
   9.000000E+99

> <Gold.Protein.RotatedTorsions>
[ 6907 6896 6895 6894 ] final -124.15 input  -60.11 | X-H torsion
[ 7974 7965 7964 7962 ] final   72.15 input  175.53 | X-H torsion
[ 8008 7997 7996 7995 ] final -129.13 input   59.86 | X-H torsion
[ 10167 10162 10161 10158 ] final  -59.66 input  -65.29 | X-H torsion
[ 10718 10713 10712 10709 ] final   34.92 input   66.30 | X-H torsion
[ 10763 10752 10751 10750 ] final   99.97 input  -60.55 | X-H torsion
[ 11005 11000 10999 10996 ] final  148.34 input  -57.11 | X-H torsion

> <Gold.Protein.ActiveResidues>
 VAL166  LYS551  ARG553  GLY616  TRP617  ASP618  TYR619  PRO620  LYS621  CYS622 
 ASP623  PHE694  ASN695  SER759  ASP760  ASP761  ALA762  ILE779  LEU786  VAL792 
 PHE793  MET794  SER795  GLU796  ALA797  LYS798  CYS799  TRP800  GLU811  SER814 

> <Gold.Protein.RotatedAtoms>
  150.8740  133.7465  159.2952 H   0  0  0  0  0  0  0  0  0  0  0  0  # atno 6907 bound_to 6896
  151.5067  135.1062  159.9853 H   0  0  0  0  0  0  0  0  0  0  0  0  # atno 6908 bound_to 6896
  152.4715  133.7995  159.7001 H   0  0  0  0  0  0  0  0  0  0  0  0  # atno 6909 bound_to 6896
  145.7570  139.2784  143.1398 H   0  0  0  0  0  0  0  0  0  0  0  0  # atno 7974 bound_to 7965
  155.2741  140.0441  157.3009 H   0  0  0  0  0  0  0  0  0  0  0  0  # atno 8008 bound_to 7997
  154.5635  140.2353  155.8267 H   0  0  0  0  0  0  0  0  0  0  0  0  # atno 8009 bound_to 7997
  156.2067  140.3010  155.9649 H   0  0  0  0  0  0  0  0  0  0  0  0  # atno 8010 bound_to 7997
  140.6121  143.2390  151.5684 H   0  0  0  0  0  0  0  0  0  0  0  0  # atno 10167 bound_to 10162
  157.3162  130.7425  149.6756 H   0  0  0  0  0  0  0  0  0  0  0  0  # atno 10718 bound_to 10713
  153.3080  135.4095  155.1311 H   0  0  0  0  0  0  0  0  0  0  0  0  # atno 10763 bound_to 10752
  154.8568  135.3557  154.5761 H   0  0  0  0  0  0  0  0  0  0  0  0  # atno 10764 bound_to 10752
  153.6189  135.7065  153.5376 H   0  0  0  0  0  0  0  0  0  0  0  0  # atno 10765 bound_to 10752
  140.0951  134.9017  157.1711 H   0  0  0  0  0  0  0  0  0  0  0  0  # atno 11005 bound_to 11000
  146.0301  140.8265  142.9880 LP  0  0  0  0  0  0  0  0  0  0  0  0  # atno 17320 bound_to 7965
  144.6838  140.2757  143.7299 LP  0  0  0  0  0  0  0  0  0  0  0  0  # atno 17321 bound_to 7965
  139.5369  144.2755  152.1271 LP  0  0  0  0  0  0  0  0  0  0  0  0  # atno 17342 bound_to 10162
  140.1956  144.4708  150.6457 LP  0  0  0  0  0  0  0  0  0  0  0  0  # atno 17343 bound_to 10162
  155.9682  130.4236  150.4572 LP  0  0  0  0  0  0  0  0  0  0  0  0  # atno 17370 bound_to 10713
  157.2579  131.0560  151.2338 LP  0  0  0  0  0  0  0  0  0  0  0  0  # atno 17371 bound_to 10713
  140.3297  134.2823  155.7230 LP  0  0  0  0  0  0  0  0  0  0  0  0  # atno 17394 bound_to 11000
  141.2089  133.7763  157.0027 LP  0  0  0  0  0  0  0  0  0  0  0  0  # atno 17395 bound_to 11000

$$$$
