AV-unprocessed.smi:1322|AV-procd|sdf|5463|dock5
  -GOLD-   22720 5 33D 1   1.00000     0.00000
 Structure written by MMmdl.
 32 33  0  0  0  0  0  0  0  0  1 V2000
  149.1547  140.8569  157.3464 C   0  0  0  0  0  0  0  0  0  0  0  0
  150.1989  141.5755  156.4711 C   0  0  2  0  0  0  0  0  0  0  0  0
  151.4726  140.7366  156.2410 C   0  0  0  0  0  0  0  0  0  0  0  0
  151.2328  139.5436  155.4489 N   0  0  0  0  0  0  0  0  0  0  0  0
  151.5814  138.2398  155.7335 C   0  0  0  0  0  0  0  0  0  0  0  0
  151.1551  137.4684  154.6906 C   0  0  0  0  0  0  0  0  0  0  0  0
  150.5535  138.4036  153.8026 C   0  0  0  0  0  0  0  0  0  0  0  0
  150.6038  139.6448  154.2581 N   0  0  0  0  0  0  0  0  0  0  0  0
  150.5745  142.8525  157.0723 N   0  0  0  0  0  0  0  0  0  0  0  0
  151.3776  143.0089  158.1359 C   0  0  0  0  0  0  0  0  0  0  0  0
  151.9130  142.0677  158.7229 O   0  0  0  0  0  0  0  0  0  0  0  0
  151.5973  144.4541  158.6024 C   0  0  0  0  0  0  0  0  0  0  0  0
  152.4948  144.5918  159.8444 C   0  0  0  0  0  0  0  0  0  0  0  0
  151.5025  145.6202  160.3955 C   0  0  0  0  0  0  0  0  0  0  0  0
  150.4503  145.0452  159.4426 C   0  0  0  0  0  0  0  0  0  0  0  0
  148.8145  139.9310  156.8824 H   0  0  0  0  0  0  0  0  0  0  0  0
  148.2726  141.4785  157.5024 H   0  0  0  0  0  0  0  0  0  0  0  0
  149.5638  140.6080  158.3260 H   0  0  0  0  0  0  0  0  0  0  0  0
  149.7488  141.7735  155.4964 H   0  0  0  0  0  0  0  0  0  0  0  0
  152.2336  141.3335  155.7357 H   0  0  0  0  0  0  0  0  0  0  0  0
  151.9014  140.4326  157.1970 H   0  0  0  0  0  0  0  0  0  0  0  0
  152.0960  137.9725  156.6447 H   0  0  0  0  0  0  0  0  0  0  0  0
  151.2585  136.3994  154.5780 H   0  0  0  0  0  0  0  0  0  0  0  0
  150.0861  138.2189  152.8466 H   0  0  0  0  0  0  0  0  0  0  0  0
  150.1806  143.6832  156.6551 H   0  0  0  0  0  0  0  0  0  0  0  0
  151.9033  145.1287  157.8004 H   0  0  0  0  0  0  0  0  0  0  0  0
  152.5522  143.6905  160.4575 H   0  0  0  0  0  0  0  0  0  0  0  0
  153.4860  144.9974  159.6400 H   0  0  0  0  0  0  0  0  0  0  0  0
  151.2695  145.5060  161.4545 H   0  0  0  0  0  0  0  0  0  0  0  0
  151.7783  146.6468  160.1491 H   0  0  0  0  0  0  0  0  0  0  0  0
  149.8590  145.8024  158.9270 H   0  0  0  0  0  0  0  0  0  0  0  0
  149.8108  144.3022  159.9226 H   0  0  0  0  0  0  0  0  0  0  0  0
  1  2  1  0  0  0  0
  1 16  1  0  0  0  0
  1 17  1  0  0  0  0
  1 18  1  0  0  0  0
  2  3  1  0  0  0  0
  2  9  1  0  0  0  0
  2 19  1  0  0  0  0
  3  4  1  0  0  0  0
  3 20  1  0  0  0  0
  3 21  1  0  0  0  0
  4  8  1  0  0  0  0
  4  5  1  0  0  0  0
  5  6  2  0  0  0  0
  5 22  1  0  0  0  0
  6  7  1  0  0  0  0
  6 23  1  0  0  0  0
  7  8  2  0  0  0  0
  7 24  1  0  0  0  0
  9 10  1  0  0  0  0
  9 25  1  0  0  0  0
 10 11  2  0  0  0  0
 10 12  1  0  0  0  0
 12 15  1  0  0  0  0
 12 13  1  0  0  0  0
 12 26  1  0  0  0  0
 13 14  1  0  0  0  0
 13 27  1  0  0  0  0
 13 28  1  0  0  0  0
 14 15  1  0  0  0  0
 14 29  1  0  0  0  0
 14 30  1  0  0  0  0
 15 31  1  0  0  0  0
 15 32  1  0  0  0  0
M  END
> <s_m_source_file>
AV-unprocessed.smi

> <i_m_source_file_index>
1322

> <i_lp_mmshare_version>
43012

> <i_f3d_flags>
0

> <s_epik_input>
W0NIMl0xW0NIMl1bQ0gyXVtDSF0xQyg9TylbTkhdW0NASF0oW0NIM10pW0NIMl1uMltjSF1bY0hdW2NIXW4y

> <s_epik_cmdline>
J2VwaWtfcHl0aG9uJywgJy1waCcsICc3LjAnLCAnLXRuJywgJzgnLCAnLW1hJywgJzIwMCcsICctbWV0YWxfYmluZGluZycsICctaW1hZScsICc8aW5maWxlLm1hZT4nLCAnLW9tYWUnLCAnPG91dGZpbGUubWFlPic=

> <r_lp_tautomer_probability>
1

> <r_epik_Ionization_Penalty>
0.000326653

> <r_epik_Ionization_Penalty_Charging>
0

> <r_epik_Ionization_Penalty_Neutral>
0.000326653

> <r_epik_State_Penalty>
-0

> <r_epik_Charging_Adjusted_Penalty>
0

> <i_epik_Tot_Q>
0

> <i_epik_Tot_abs_Q>
0

> <r_epik_Metal_State_Penalty>
-0

> <b_epik_Metal_Only>
0

> <s_lp_Force_Field>
OPLS_2005

> <r_lp_Energy>
10.8536

> <b_lp_Chiralities_Consistent>
1

> <s_lp_Variant>
AV-unprocessed.smi:1322-1

> <Gold.Version>
5.8.1

> <Gold.Id.Protein>
6NUR|6NUR_protein|mol2

> <Gold.PLP.Fitness>
44.3575

> <Gold.PLP.PLP>
-33.3479

> <Gold.PLP.part.hbond>
-2.0000

> <Gold.PLP.part.metal>
0.0000

> <Gold.PLP.part.buried>
-4.6493

> <Gold.PLP.part.nonpolar>
-27.6619

> <Gold.PLP.part.repulsive>
0.1670

> <Gold.PLP.ligand.clash>
0.0000

> <Gold.PLP.ligand.torsion>
0.5181

> <Gold.PLP.Chemscore.Hbond>
2.0000

> <Gold.PLP.Chemscore.CHOScore>
1.8761

> <Gold.PLP.Chemscore.Metal>
0.0000

> <Gold.Chemscore.Hbonds>
donor molecule, donor type, donor heavy atom, donor atom, acceptor molecule, acceptor atom, score
      L1  H     9    25       P1  8028  1.00
      P1  H  7989  7998       L1     8  1.00
      L1  C     7    24       P1  7948  0.99
      L1  C     7    24       P1  7949  0.02
      L1  C     7    24       P1  7957  0.85

> <Gold.PLP.Chemscore.Internal.Correction>
0.4176

> <Gold.Rescore>
     Score         DG    S(hbond)    S(metal)    S(lipo)     H(rot)  DE(clash)    DE(int)     intcor
     15.13     -16.87       1.72        0.00      82.21       1.55       0.01       1.72       ----

> <Gold.Chemscore.Fitness>
15.1347

> <Gold.Chemscore.DG>
-16.8661

> <Gold.Chemscore.ZeroCoef>
-5.4800

> <Gold.Chemscore.Hbond>
1.7151

> <Gold.Chemscore.Metal>
0.0000

> <Gold.Chemscore.Lipo>
82.2074

> <Gold.Chemscore.Internal_Hbond>
0.0000

> <Gold.Chemscore.DEClash>
0.0147

> <Gold.Chemscore.DEInternal>
1.7167

> <Gold.Chemscore.Rot>
1.5471

> <Gold.Chemscore.Internal.Correction>
   9.000000E+99

> <Gold.Chemscore.Hbonds>
donor molecule, donor type, donor heavy atom, donor atom, acceptor molecule, acceptor atom, score
      L1  H     9    25       P1  8028  0.98
      P1  H  7989  7998       L1     8  0.25

> <Gold.Chemscore.Hbond.Weighted>
-5.7284

> <Gold.Chemscore.Metal.Weighted>
-0.0000

> <Gold.Chemscore.Lipo.Weighted>
-9.6183

> <Gold.Chemscore.Internal_Hbond.Weighted>
0.0000

> <Gold.Chemscore.DEClash.Weighted>
0.0147

> <Gold.Chemscore.DEInternal.Weighted>
1.7167

> <Gold.Chemscore.Rot.Weighted>
3.9606

> <Gold.Chemscore.Internal.Correction.Weighted>
   9.000000E+99

> <Gold.Protein.RotatedTorsions>
[ 6907 6896 6895 6894 ] final  172.71 input  -60.11 | X-H torsion
[ 7974 7965 7964 7962 ] final -131.54 input  175.53 | X-H torsion
[ 8008 7997 7996 7995 ] final  -68.40 input   59.86 | X-H torsion
[ 10167 10162 10161 10158 ] final  135.52 input  -65.29 | X-H torsion
[ 10718 10713 10712 10709 ] final  105.34 input   66.30 | X-H torsion
[ 10763 10752 10751 10750 ] final    2.32 input  -60.55 | X-H torsion
[ 11005 11000 10999 10996 ] final  -35.00 input  -57.11 | X-H torsion

> <Gold.Protein.ActiveResidues>
 VAL166  LYS551  ARG553  GLY616  TRP617  ASP618  TYR619  PRO620  LYS621  CYS622 
 ASP623  PHE694  ASN695  SER759  ASP760  ASP761  ALA762  ILE779  LEU786  VAL792 
 PHE793  MET794  SER795  GLU796  ALA797  LYS798  CYS799  TRP800  GLU811  SER814 

> <Gold.Protein.RotatedAtoms>
  151.7799  133.3349  159.3468 H   0  0  0  0  0  0  0  0  0  0  0  0  # atno 6907 bound_to 6896
  150.7430  134.5941  159.6012 H   0  0  0  0  0  0  0  0  0  0  0  0  # atno 6908 bound_to 6896
  152.3283  134.7293  160.0347 H   0  0  0  0  0  0  0  0  0  0  0  0  # atno 6909 bound_to 6896
  144.9369  140.7194  143.4871 H   0  0  0  0  0  0  0  0  0  0  0  0  # atno 7974 bound_to 7965
  154.4865  140.0874  156.7498 H   0  0  0  0  0  0  0  0  0  0  0  0  # atno 8008 bound_to 7997
  155.4337  140.3451  155.4264 H   0  0  0  0  0  0  0  0  0  0  0  0  # atno 8009 bound_to 7997
  156.1269  140.1490  156.9111 H   0  0  0  0  0  0  0  0  0  0  0  0  # atno 8010 bound_to 7997
  139.5214  144.6512  151.5295 H   0  0  0  0  0  0  0  0  0  0  0  0  # atno 10167 bound_to 10162
  157.6709  131.0825  150.5842 H   0  0  0  0  0  0  0  0  0  0  0  0  # atno 10718 bound_to 10713
  153.2970  135.6953  153.7239 H   0  0  0  0  0  0  0  0  0  0  0  0  # atno 10763 bound_to 10752
  153.6168  135.3434  155.2998 H   0  0  0  0  0  0  0  0  0  0  0  0  # atno 10764 bound_to 10752
  154.8540  135.4376  154.2070 H   0  0  0  0  0  0  0  0  0  0  0  0  # atno 10765 bound_to 10752
  140.9761  133.7082  156.1605 H   0  0  0  0  0  0  0  0  0  0  0  0  # atno 11005 bound_to 11000
  145.3052  139.1837  143.4668 LP  0  0  0  0  0  0  0  0  0  0  0  0  # atno 17320 bound_to 7965
  146.3270  140.3049  142.8623 LP  0  0  0  0  0  0  0  0  0  0  0  0  # atno 17321 bound_to 7965
  140.6318  143.9061  150.6612 LP  0  0  0  0  0  0  0  0  0  0  0  0  # atno 17342 bound_to 10162
  140.2367  143.3694  152.1520 LP  0  0  0  0  0  0  0  0  0  0  0  0  # atno 17343 bound_to 10162
  156.6142  130.4388  149.5847 LP  0  0  0  0  0  0  0  0  0  0  0  0  # atno 17370 bound_to 10713
  156.2406  130.6849  151.1552 LP  0  0  0  0  0  0  0  0  0  0  0  0  # atno 17371 bound_to 10713
  140.7256  134.4311  157.5571 LP  0  0  0  0  0  0  0  0  0  0  0  0  # atno 17394 bound_to 11000
  139.8931  134.8738  156.2238 LP  0  0  0  0  0  0  0  0  0  0  0  0  # atno 17395 bound_to 11000

$$$$
