AV-unprocessed.smi:910|AV-procd|sdf|4131|dock9
  -GOLD-   22720 2 33D 1   1.00000     0.00000
 Structure written by MMmdl.
 47 48  0  0  0  0  0  0  0  0  2 V2000
  145.2464  134.6576  151.8998 C   0  0  0  0  0  0  0  0  0  0  0  0
  145.4980  136.0355  152.4268 C   0  0  0  0  0  0  0  0  0  0  0  0
  146.6761  136.7445  152.4522 N   0  3  0  0  0  0  0  0  0  0  0  0
  146.4675  137.9342  153.0110 C   0  0  0  0  0  0  0  0  0  0  0  0
  147.4712  138.9136  153.1909 N   0  0  0  0  0  0  0  0  0  0  0  0
  147.6125  139.6990  154.2692 C   0  0  0  0  0  0  0  0  0  0  0  0
  146.8962  139.6475  155.2694 O   0  0  0  0  0  0  0  0  0  0  0  0
  148.6352  140.5553  154.1267 N   0  0  0  0  0  0  0  0  0  0  0  0
  149.0263  141.5662  155.1041 C   0  0  0  0  0  0  0  0  0  0  0  0
  150.3555  141.2079  155.7838 C   0  0  0  0  0  0  0  0  0  0  0  0
  150.8857  142.3666  156.4094 O   0  0  0  0  0  0  0  0  0  0  0  0
  151.1153  142.2322  157.8051 C   0  0  1  0  0  0  0  0  0  0  0  0
  151.8883  140.9219  158.0643 C   0  0  0  0  0  0  0  0  0  0  0  0
  152.2936  140.7869  159.5393 C   0  0  0  0  0  0  0  0  0  0  0  0
  153.1097  142.0030  159.9995 C   0  0  0  0  0  0  0  0  0  0  0  0
  152.3403  143.3093  159.7510 C   0  0  0  0  0  0  0  0  0  0  0  0
  151.9297  143.4597  158.2721 C   0  0  2  0  0  0  0  0  0  0  0  0
  151.1579  144.7713  158.0537 C   0  0  0  0  0  0  0  0  0  0  0  0
  145.1638  138.0698  153.3743 O   0  0  0  0  0  0  0  0  0  0  0  0
  144.5727  136.8800  153.0013 C   0  0  0  0  0  0  0  0  0  0  0  0
  143.1145  136.7313  153.2772 C   0  0  0  0  0  0  0  0  0  0  0  0
  144.7114  134.0481  152.6284 H   0  0  0  0  0  0  0  0  0  0  0  0
  146.1795  134.1457  151.6641 H   0  0  0  0  0  0  0  0  0  0  0  0
  144.6469  134.6883  150.9899 H   0  0  0  0  0  0  0  0  0  0  0  0
  147.5480  136.3791  152.0905 H   0  0  0  0  0  0  0  0  0  0  0  0
  149.1727  140.5235  153.2726 H   0  0  0  0  0  0  0  0  0  0  0  0
  149.0788  142.5563  154.6480 H   0  0  0  0  0  0  0  0  0  0  0  0
  148.2390  141.6151  155.8566 H   0  0  0  0  0  0  0  0  0  0  0  0
  150.1856  140.4411  156.5405 H   0  0  0  0  0  0  0  0  0  0  0  0
  151.0512  140.7940  155.0533 H   0  0  0  0  0  0  0  0  0  0  0  0
  150.1676  142.2169  158.3476 H   0  0  0  0  0  0  0  0  0  0  0  0
  151.2891  140.0587  157.7759 H   0  0  0  0  0  0  0  0  0  0  0  0
  152.7824  140.8976  157.4398 H   0  0  0  0  0  0  0  0  0  0  0  0
  151.3999  140.6895  160.1568 H   0  0  0  0  0  0  0  0  0  0  0  0
  152.8718  139.8740  159.6846 H   0  0  0  0  0  0  0  0  0  0  0  0
  153.3511  141.9094  161.0587 H   0  0  0  0  0  0  0  0  0  0  0  0
  154.0608  142.0298  159.4663 H   0  0  0  0  0  0  0  0  0  0  0  0
  151.4519  143.3310  160.3838 H   0  0  0  0  0  0  0  0  0  0  0  0
  152.9553  144.1568  160.0553 H   0  0  0  0  0  0  0  0  0  0  0  0
  152.8417  143.5089  157.6750 H   0  0  0  0  0  0  0  0  0  0  0  0
  150.2237  144.7804  158.6162 H   0  0  0  0  0  0  0  0  0  0  0  0
  150.9130  144.9177  157.0013 H   0  0  0  0  0  0  0  0  0  0  0  0
  151.7470  145.6312  158.3732 H   0  0  0  0  0  0  0  0  0  0  0  0
  142.6455  136.0690  152.5491 H   0  0  0  0  0  0  0  0  0  0  0  0
  142.6081  137.6953  153.2288 H   0  0  0  0  0  0  0  0  0  0  0  0
  142.9512  136.3121  154.2700 H   0  0  0  0  0  0  0  0  0  0  0  0
  148.1269  139.0343  152.4333 H   0  0  0  0  0  0  0  0  0  0  0  0
  1 22  1  0  0  0  0
  1 23  1  0  0  0  0
  1 24  1  0  0  0  0
  1  2  1  0  0  0  0
  2  3  1  0  0  0  0
  2 20  2  0  0  0  0
  3 25  1  0  0  0  0
  3  4  2  0  0  0  0
  4 19  1  0  0  0  0
  4  5  1  0  0  0  0
  5  6  1  0  0  0  0
  5 47  1  0  0  0  0
  6  8  1  0  0  0  0
  6  7  2  0  0  0  0
  8  9  1  0  0  0  0
  8 26  1  0  0  0  0
  9 10  1  0  0  0  0
  9 27  1  0  0  0  0
  9 28  1  0  0  0  0
 10 11  1  0  0  0  0
 10 29  1  0  0  0  0
 10 30  1  0  0  0  0
 11 12  1  0  0  0  0
 12 17  1  0  0  0  0
 12 13  1  0  0  0  0
 12 31  1  0  0  0  0
 13 14  1  0  0  0  0
 13 32  1  0  0  0  0
 13 33  1  0  0  0  0
 14 15  1  0  0  0  0
 14 34  1  0  0  0  0
 14 35  1  0  0  0  0
 15 16  1  0  0  0  0
 15 36  1  0  0  0  0
 15 37  1  0  0  0  0
 16 17  1  0  0  0  0
 16 38  1  0  0  0  0
 16 39  1  0  0  0  0
 17 18  1  0  0  0  0
 17 40  1  0  0  0  0
 18 41  1  0  0  0  0
 18 42  1  0  0  0  0
 18 43  1  0  0  0  0
 19 20  1  0  0  0  0
 20 21  1  0  0  0  0
 21 44  1  0  0  0  0
 21 45  1  0  0  0  0
 21 46  1  0  0  0  0
M  CHG  1   3   1
M  END
> <s_m_source_file>
AV-unprocessed.smi

> <i_m_source_file_index>
910

> <i_lp_mmshare_version>
43012

> <i_f3d_flags>
0

> <s_epik_input>
W0NIM11jMW5jKG9jMVtDSDNdKVtOSF1DKD1PKVtOSF1bQ0gyXVtDSDJdT1tDQEBIXTJbQ0gyXVtDSDJdW0NIMl1bQ0gyXVtDQEhdMltDSDNd

> <s_epik_cmdline>
J2VwaWtfcHl0aG9uJywgJy1waCcsICc3LjAnLCAnLXRuJywgJzgnLCAnLW1hJywgJzIwMCcsICctbWV0YWxfYmluZGluZycsICctaW1hZScsICc8aW5maWxlLm1hZT4nLCAnLW9tYWUnLCAnPG91dGZpbGUubWFlPic=

> <r_epik_Ionization_Penalty>
7.32931

> <r_epik_Ionization_Penalty_Charging>
7.12214

> <r_epik_Ionization_Penalty_Neutral>
0.207166

> <r_epik_State_Penalty>
2.61278

> <r_epik_Charging_Adjusted_Penalty>
9.73492

> <i_epik_Tot_Q>
1

> <i_epik_Tot_abs_Q>
1

> <r_epik_Metal_State_Penalty>
2.64585

> <b_epik_Metal_Only>
0

> <s_lp_Force_Field>
OPLS_2005

> <r_lp_Energy>
16.7683

> <b_lp_Chiralities_Consistent>
1

> <s_lp_Variant>
AV-unprocessed.smi:910-16

> <Gold.Version>
5.8.1

> <Gold.Id.Protein>
6NUR|6NUR_protein|mol2

> <Gold.PLP.Fitness>
48.9295

> <Gold.PLP.PLP>
-38.8942

> <Gold.PLP.part.hbond>
-2.7283

> <Gold.PLP.part.metal>
0.0000

> <Gold.PLP.part.buried>
-4.4997

> <Gold.PLP.part.nonpolar>
-34.7203

> <Gold.PLP.part.repulsive>
3.4391

> <Gold.PLP.ligand.clash>
0.0000

> <Gold.PLP.ligand.torsion>
0.8645

> <Gold.PLP.Chemscore.Hbond>
3.9108

> <Gold.PLP.Chemscore.CHOScore>
0.0000

> <Gold.PLP.Chemscore.Metal>
0.0000

> <Gold.Chemscore.Hbonds>
donor molecule, donor type, donor heavy atom, donor atom, acceptor molecule, acceptor atom, score
      L1  H     3    25       P1  7948  1.43
      L1  H     5    47       P1  7957  0.63
      L1  H     8    26       P1  7957  0.55

> <Gold.PLP.Chemscore.Internal.Correction>
0.0322

> <Gold.Rescore>
     Score         DG    S(hbond)    S(metal)    S(lipo)     H(rot)  DE(clash)    DE(int)     intcor
     20.02     -22.75       2.90        0.00     101.98       1.69       1.79       0.94       ----

> <Gold.Chemscore.Fitness>
20.0214

> <Gold.Chemscore.DG>
-22.7544

> <Gold.Chemscore.ZeroCoef>
-5.4800

> <Gold.Chemscore.Hbond>
2.8986

> <Gold.Chemscore.Metal>
0.0000

> <Gold.Chemscore.Lipo>
101.9829

> <Gold.Chemscore.Internal_Hbond>
0.0000

> <Gold.Chemscore.DEClash>
1.7913

> <Gold.Chemscore.DEInternal>
0.9417

> <Gold.Chemscore.Rot>
1.6949

> <Gold.Chemscore.Internal.Correction>
   9.000000E+99

> <Gold.Chemscore.Hbonds>
donor molecule, donor type, donor heavy atom, donor atom, acceptor molecule, acceptor atom, score
      L1  H     3    25       P1  7948  0.71
      L1  H     5    47       P1  7957  0.62
      L1  H     8    26       P1  7957  0.56

> <Gold.Chemscore.Hbond.Weighted>
-9.6814

> <Gold.Chemscore.Metal.Weighted>
-0.0000

> <Gold.Chemscore.Lipo.Weighted>
-11.9320

> <Gold.Chemscore.Internal_Hbond.Weighted>
0.0000

> <Gold.Chemscore.DEClash.Weighted>
1.7913

> <Gold.Chemscore.DEInternal.Weighted>
0.9417

> <Gold.Chemscore.Rot.Weighted>
4.3390

> <Gold.Chemscore.Internal.Correction.Weighted>
   9.000000E+99

> <Gold.Protein.RotatedTorsions>
[ 6907 6896 6895 6894 ] final -111.64 input  -60.11 | X-H torsion
[ 7974 7965 7964 7962 ] final  119.75 input  175.53 | X-H torsion
[ 8008 7997 7996 7995 ] final  173.78 input   59.86 | X-H torsion
[ 10167 10162 10161 10158 ] final  172.43 input  -65.29 | X-H torsion
[ 10718 10713 10712 10709 ] final   53.12 input   66.30 | X-H torsion
[ 10763 10752 10751 10750 ] final   -7.33 input  -60.55 | X-H torsion
[ 11005 11000 10999 10996 ] final  -58.94 input  -57.11 | X-H torsion

> <Gold.Protein.ActiveResidues>
 VAL166  LYS551  ARG553  GLY616  TRP617  ASP618  TYR619  PRO620  LYS621  CYS622 
 ASP623  PHE694  ASN695  SER759  ASP760  ASP761  ALA762  ILE779  LEU786  VAL792 
 PHE793  MET794  SER795  GLU796  ALA797  LYS798  CYS799  TRP800  GLU811  SER814 

> <Gold.Protein.RotatedAtoms>
  150.7704  133.9206  159.3396 H   0  0  0  0  0  0  0  0  0  0  0  0  # atno 6907 bound_to 6896
  151.7094  135.0913  160.0274 H   0  0  0  0  0  0  0  0  0  0  0  0  # atno 6908 bound_to 6896
  152.3719  133.6392  159.6129 H   0  0  0  0  0  0  0  0  0  0  0  0  # atno 6909 bound_to 6896
  145.1394  139.3278  143.4624 H   0  0  0  0  0  0  0  0  0  0  0  0  # atno 7974 bound_to 7965
  156.1041  140.1451  156.9428 H   0  0  0  0  0  0  0  0  0  0  0  0  # atno 8008 bound_to 7997
  154.4722  140.0906  156.7217 H   0  0  0  0  0  0  0  0  0  0  0  0  # atno 8009 bound_to 7997
  155.4710  140.3441  155.4328 H   0  0  0  0  0  0  0  0  0  0  0  0  # atno 8010 bound_to 7997
  139.5076  144.3375  152.0051 H   0  0  0  0  0  0  0  0  0  0  0  0  # atno 10167 bound_to 10162
  157.5138  130.8518  149.8469 H   0  0  0  0  0  0  0  0  0  0  0  0  # atno 10718 bound_to 10713
  153.4249  135.7011  153.6269 H   0  0  0  0  0  0  0  0  0  0  0  0  # atno 10763 bound_to 10752
  153.4708  135.3715  155.2390 H   0  0  0  0  0  0  0  0  0  0  0  0  # atno 10764 bound_to 10752
  154.8723  135.4042  154.3623 H   0  0  0  0  0  0  0  0  0  0  0  0  # atno 10765 bound_to 10752
  141.1228  133.6614  156.4996 H   0  0  0  0  0  0  0  0  0  0  0  0  # atno 11005 bound_to 11000
  146.3506  140.1424  142.8594 LP  0  0  0  0  0  0  0  0  0  0  0  0  # atno 17320 bound_to 7965
  145.0549  140.9045  143.4973 LP  0  0  0  0  0  0  0  0  0  0  0  0  # atno 17321 bound_to 7965
  140.2813  144.3856  150.6118 LP  0  0  0  0  0  0  0  0  0  0  0  0  # atno 17342 bound_to 10162
  140.6016  143.2167  151.7061 LP  0  0  0  0  0  0  0  0  0  0  0  0  # atno 17343 bound_to 10162
  156.0306  130.3766  150.1698 LP  0  0  0  0  0  0  0  0  0  0  0  0  # atno 17370 bound_to 10713
  156.9887  130.9886  151.3420 LP  0  0  0  0  0  0  0  0  0  0  0  0  # atno 17371 bound_to 10713
  140.4456  134.6975  157.5014 LP  0  0  0  0  0  0  0  0  0  0  0  0  # atno 17394 bound_to 11000
  140.0200  134.6562  155.9254 LP  0  0  0  0  0  0  0  0  0  0  0  0  # atno 17395 bound_to 11000

$$$$
