AV-unprocessed.smi:66|AV-procd|sdf|623|dock8
  -GOLD-   2262016513D 1   1.00000     0.00000
 Structure written by MMmdl.
 28 30  0  0  0  0  0  0  0  0  2 V2000
  154.1633  138.2048  158.3078 O   0  0  0  0  0  0  0  0  0  0  0  0
  153.5031  137.4092  157.6046 C   0  0  0  0  0  0  0  0  0  0  0  0
  153.8699  136.2592  157.2744 O   0  5  0  0  0  0  0  0  0  0  0  0
  152.1341  137.8970  157.1072 C   0  0  2  0  0  0  0  0  0  0  0  0
  151.4768  136.9078  156.1187 C   0  0  0  0  0  0  0  0  0  0  0  0
  151.0112  137.7848  154.9563 C   0  0  2  0  0  0  0  0  0  0  0  0
  151.0109  137.0948  153.7246 O   0  0  0  0  0  0  0  0  0  0  0  0
  152.0129  138.9336  154.9798 C   0  0  0  0  0  0  0  0  0  0  0  0
  152.2521  139.1760  156.3995 N   0  0  0  0  0  0  0  0  0  0  0  0
  151.7110  140.3163  157.0371 C   0  0  0  0  0  0  0  0  0  0  0  0
  150.6843  140.9906  156.4643 N   0  0  0  0  0  0  0  0  0  0  0  0
  150.1945  142.0656  157.0957 C   0  0  0  0  0  0  0  0  0  0  0  0
  150.5768  142.6106  158.2606 N   0  0  0  0  0  0  0  0  0  0  0  0
  151.5942  141.9618  158.8418 C   0  0  0  0  0  0  0  0  0  0  0  0
  152.1972  142.3012  160.0455 N   0  0  0  0  0  0  0  0  0  0  0  0
  153.1328  141.3597  160.1597 C   0  0  0  0  0  0  0  0  0  0  0  0
  153.1970  140.4589  159.1662 N   0  0  0  0  0  0  0  0  0  0  0  0
  152.2001  140.8038  158.2683 C   0  0  0  0  0  0  0  0  0  0  0  0
  153.8448  139.6834  159.1133 H   0  0  0  0  0  0  0  0  0  0  0  0
  151.4675  138.0123  157.9634 H   0  0  0  0  0  0  0  0  0  0  0  0
  152.1944  136.1655  155.7633 H   0  0  0  0  0  0  0  0  0  0  0  0
  150.6481  136.3630  156.5718 H   0  0  0  0  0  0  0  0  0  0  0  0
  150.0099  138.1673  155.1600 H   0  0  0  0  0  0  0  0  0  0  0  0
  150.2005  137.2872  153.2776 H   0  0  0  0  0  0  0  0  0  0  0  0
  152.9606  138.6248  154.5354 H   0  0  0  0  0  0  0  0  0  0  0  0
  151.6660  139.7917  154.4044 H   0  0  0  0  0  0  0  0  0  0  0  0
  149.3763  142.5635  156.5968 H   0  0  0  0  0  0  0  0  0  0  0  0
  153.8032  141.3220  161.0057 H   0  0  0  0  0  0  0  0  0  0  0  0
  1  2  2  0  0  0  0
  2  3  1  0  0  0  0
  2  4  1  0  0  0  0
  4  9  1  0  0  0  0
  4  5  1  0  0  0  0
  4 20  1  0  0  0  0
  5  6  1  0  0  0  0
  5 21  1  0  0  0  0
  5 22  1  0  0  0  0
  6  7  1  0  0  0  0
  6  8  1  0  0  0  0
  6 23  1  0  0  0  0
  7 24  1  0  0  0  0
  8  9  1  0  0  0  0
  8 25  1  0  0  0  0
  8 26  1  0  0  0  0
  9 10  1  0  0  0  0
 10 18  1  0  0  0  0
 10 11  2  0  0  0  0
 11 12  1  0  0  0  0
 12 13  2  0  0  0  0
 12 27  1  0  0  0  0
 13 14  1  0  0  0  0
 14 18  2  0  0  0  0
 14 15  1  0  0  0  0
 15 16  2  0  0  0  0
 16 17  1  0  0  0  0
 16 28  1  0  0  0  0
 17 19  1  0  0  0  0
 17 18  1  0  0  0  0
M  CHG  1   3  -1
M  END
> <s_m_source_file>
AV-unprocessed.smi

> <i_m_source_file_index>
66

> <i_lp_mmshare_version>
43012

> <i_f3d_flags>
0

> <s_epik_input>
Tz1DKFtPSF0pW0NAQEhdMVtDSDJdW0NAQEhdKFtPSF0pW0NIMl1OMWMobltjSF1uMiljKGMyMylbbkhdW2NIXW4z

> <s_epik_cmdline>
J2VwaWtfcHl0aG9uJywgJy1waCcsICc3LjAnLCAnLXRuJywgJzgnLCAnLW1hJywgJzIwMCcsICctbWV0YWxfYmluZGluZycsICctaW1hZScsICc8aW5maWxlLm1hZT4nLCAnLW9tYWUnLCAnPG91dGZpbGUubWFlPic=

> <r_lp_tautomer_probability>
0.0419193

> <r_epik_Ionization_Penalty>
0.0157405

> <r_epik_Ionization_Penalty_Charging>
0.000248217

> <r_epik_Ionization_Penalty_Neutral>
0.0154923

> <r_epik_State_Penalty>
1.99742

> <r_epik_Charging_Adjusted_Penalty>
1.99767

> <i_epik_Tot_Q>
-1

> <i_epik_Tot_abs_Q>
1

> <r_epik_Metal_State_Penalty>
2.31035

> <b_epik_Metal_Only>
0

> <s_lp_Force_Field>
OPLS_2005

> <r_lp_Energy>
22.103

> <b_lp_Chiralities_Consistent>
1

> <s_lp_Variant>
AV-unprocessed.smi:66-7

> <Gold.Version>
5.8.1

> <Gold.Id.Protein>
6NUR|6NUR_protein|mol2

> <Gold.PLP.Fitness>
39.8050

> <Gold.PLP.PLP>
-23.8244

> <Gold.PLP.part.hbond>
-4.2312

> <Gold.PLP.part.metal>
0.0000

> <Gold.PLP.part.buried>
-4.0121

> <Gold.PLP.part.nonpolar>
-16.8901

> <Gold.PLP.part.repulsive>
0.2303

> <Gold.PLP.ligand.clash>
0.0000

> <Gold.PLP.ligand.torsion>
0.3346

> <Gold.PLP.Chemscore.Hbond>
4.4751

> <Gold.PLP.Chemscore.CHOScore>
1.0000

> <Gold.PLP.Chemscore.Metal>
0.0000

> <Gold.Chemscore.Hbonds>
donor molecule, donor type, donor heavy atom, donor atom, acceptor molecule, acceptor atom, score
      L1  H     7    24       P1  7948  0.43
      P1  H  7997  8009       L1     1  1.11
      P1  H 10752 10763       L1     3  1.69
      L1  C    12    27       P1  8028  1.00

> <Gold.PLP.Chemscore.Internal.Correction>
0.2244

> <Gold.Rescore>
     Score         DG    S(hbond)    S(metal)    S(lipo)     H(rot)  DE(clash)    DE(int)     intcor
      9.07      -9.36       1.97        0.00      31.01       2.48       0.07       0.22       ----

> <Gold.Chemscore.Fitness>
9.0710

> <Gold.Chemscore.DG>
-9.3590

> <Gold.Chemscore.ZeroCoef>
-5.4800

> <Gold.Chemscore.Hbond>
1.9730

> <Gold.Chemscore.Metal>
0.0000

> <Gold.Chemscore.Lipo>
31.0101

> <Gold.Chemscore.Internal_Hbond>
0.0000

> <Gold.Chemscore.DEClash>
0.0659

> <Gold.Chemscore.DEInternal>
0.2221

> <Gold.Chemscore.Rot>
2.4762

> <Gold.Chemscore.Internal.Correction>
   9.000000E+99

> <Gold.Chemscore.Hbonds>
donor molecule, donor type, donor heavy atom, donor atom, acceptor molecule, acceptor atom, score
      L1  H     7    24       P1  7948  0.06
      P1  H  7997  8009       L1     1  0.51
      P1  H 10752 10763       L1     3  0.82
      P1  H 10752 10765       L1     7  0.01

> <Gold.Chemscore.Hbond.Weighted>
-6.5899

> <Gold.Chemscore.Metal.Weighted>
-0.0000

> <Gold.Chemscore.Lipo.Weighted>
-3.6282

> <Gold.Chemscore.Internal_Hbond.Weighted>
0.0000

> <Gold.Chemscore.DEClash.Weighted>
0.0659

> <Gold.Chemscore.DEInternal.Weighted>
0.2221

> <Gold.Chemscore.Rot.Weighted>
6.3391

> <Gold.Chemscore.Internal.Correction.Weighted>
   9.000000E+99

> <Gold.Protein.RotatedTorsions>
[ 6907 6896 6895 6894 ] final  105.34 input  -60.11 | X-H torsion
[ 7974 7965 7964 7962 ] final  -10.63 input  175.53 | X-H torsion
[ 8008 7997 7996 7995 ] final  129.61 input   59.86 | X-H torsion
[ 10167 10162 10161 10158 ] final  -42.47 input  -65.29 | X-H torsion
[ 10718 10713 10712 10709 ] final  -85.90 input   66.30 | X-H torsion
[ 10763 10752 10751 10750 ] final  142.95 input  -60.55 | X-H torsion
[ 11005 11000 10999 10996 ] final    3.95 input  -57.11 | X-H torsion

> <Gold.Protein.ActiveResidues>
 VAL166  LYS551  ARG553  GLY616  TRP617  ASP618  TYR619  PRO620  LYS621  CYS622 
 ASP623  PHE694  ASN695  SER759  ASP760  ASP761  ALA762  ILE779  LEU786  VAL792 
 PHE793  MET794  SER795  GLU796  ALA797  LYS798  CYS799  TRP800  GLU811  SER814 

> <Gold.Protein.RotatedAtoms>
  152.5234  133.9544  159.7686 H   0  0  0  0  0  0  0  0  0  0  0  0  # atno 6907 bound_to 6896
  150.9847  133.6201  159.2724 H   0  0  0  0  0  0  0  0  0  0  0  0  # atno 6908 bound_to 6896
  151.3366  135.0860  159.9410 H   0  0  0  0  0  0  0  0  0  0  0  0  # atno 6909 bound_to 6896
  146.2214  140.2792  142.8361 H   0  0  0  0  0  0  0  0  0  0  0  0  # atno 7974 bound_to 7965
  156.2939  140.2616  156.2626 H   0  0  0  0  0  0  0  0  0  0  0  0  # atno 8008 bound_to 7997
  154.9773  140.0390  157.2280 H   0  0  0  0  0  0  0  0  0  0  0  0  # atno 8009 bound_to 7997
  154.7804  140.2794  155.6073 H   0  0  0  0  0  0  0  0  0  0  0  0  # atno 8010 bound_to 7997
  140.6968  143.3036  151.3213 H   0  0  0  0  0  0  0  0  0  0  0  0  # atno 10167 bound_to 10162
  155.9993  130.4746  150.4632 H   0  0  0  0  0  0  0  0  0  0  0  0  # atno 10718 bound_to 10713
  153.9644  135.2957  155.3431 H   0  0  0  0  0  0  0  0  0  0  0  0  # atno 10763 bound_to 10752
  154.7357  135.5047  153.9041 H   0  0  0  0  0  0  0  0  0  0  0  0  # atno 10764 bound_to 10752
  153.0931  135.6713  153.9927 H   0  0  0  0  0  0  0  0  0  0  0  0  # atno 10765 bound_to 10752
  140.5874  133.9956  155.8074 H   0  0  0  0  0  0  0  0  0  0  0  0  # atno 11005 bound_to 11000
  144.9210  140.7867  143.5748 LP  0  0  0  0  0  0  0  0  0  0  0  0  # atno 17320 bound_to 7965
  145.2729  139.1948  143.4832 LP  0  0  0  0  0  0  0  0  0  0  0  0  # atno 17321 bound_to 7965
  139.6433  144.0498  152.2571 LP  0  0  0  0  0  0  0  0  0  0  0  0  # atno 17342 bound_to 10162
  140.0010  144.6293  150.7729 LP  0  0  0  0  0  0  0  0  0  0  0  0  # atno 17343 bound_to 10162
  157.2654  131.0576  151.2293 LP  0  0  0  0  0  0  0  0  0  0  0  0  # atno 17370 bound_to 10713
  157.3393  130.7025  149.6372 LP  0  0  0  0  0  0  0  0  0  0  0  0  # atno 17371 bound_to 10713
  141.0957  133.9847  157.3164 LP  0  0  0  0  0  0  0  0  0  0  0  0  # atno 17394 bound_to 11000
  139.9289  135.0200  156.8333 LP  0  0  0  0  0  0  0  0  0  0  0  0  # atno 17395 bound_to 11000

$$$$
