AV-unprocessed.smi:1872|AV-procd|sdf|7606|dock2
  -GOLD-   22720 9323D 1   1.00000     0.00000
 Structure written by MMmdl.
 40 42  0  0  0  0  0  0  0  0  2 V2000
  149.5873  140.9809  155.2306 C   0  0  0  0  0  0  0  0  0  0  0  0
  150.4115  141.6688  156.2666 C   0  0  0  0  0  0  0  0  0  0  0  0
  150.3881  142.9998  156.5581 N   0  3  0  0  0  0  0  0  0  0  0  0
  151.2947  143.2747  157.5829 C   0  0  0  0  0  0  0  0  0  0  0  0
  151.6216  144.4719  158.2125 C   0  0  0  0  0  0  0  0  0  0  0  0
  152.5990  144.4068  159.2272 C   0  0  0  0  0  0  0  0  0  0  0  0
  153.2108  143.1865  159.5798 C   0  0  0  0  0  0  0  0  0  0  0  0
  152.8705  141.9792  158.9349 C   0  0  0  0  0  0  0  0  0  0  0  0
  151.9013  142.0510  157.9342 C   0  0  0  0  0  0  0  0  0  0  0  0
  151.3232  141.0883  157.0975 N   0  0  0  0  0  0  0  0  0  0  0  0
  151.7347  139.6798  157.2081 C   0  0  0  0  0  0  0  0  0  0  0  0
  151.8813  138.9852  155.8397 C   0  0  1  0  0  0  0  0  0  0  0  0
  153.2299  139.0221  155.4143 O   0  0  0  0  0  0  0  0  0  0  0  0
  151.3237  137.5712  155.8837 C   0  0  0  0  0  0  0  0  0  0  0  0
  150.2266  137.2244  155.0682 C   0  0  0  0  0  0  0  0  0  0  0  0
  149.6915  135.9229  155.1132 C   0  0  0  0  0  0  0  0  0  0  0  0
  150.2359  134.9518  155.9773 C   0  0  0  0  0  0  0  0  0  0  0  0
  149.6746  133.6947  155.9659 O   0  0  0  0  0  0  0  0  0  0  0  0
  150.4523  132.6189  155.6712 C   0  0  0  0  0  0  0  0  0  0  0  0
  151.1723  132.2619  156.7619 F   0  0  0  0  0  0  0  0  0  0  0  0
  149.6822  131.5584  155.3243 F   0  0  0  0  0  0  0  0  0  0  0  0
  151.3430  135.2981  156.7884 C   0  0  0  0  0  0  0  0  0  0  0  0
  151.8781  136.6001  156.7452 C   0  0  0  0  0  0  0  0  0  0  0  0
  148.9737  141.7003  154.6879 H   0  0  0  0  0  0  0  0  0  0  0  0
  148.9306  140.2476  155.6988 H   0  0  0  0  0  0  0  0  0  0  0  0
  150.2312  140.4673  154.5166 H   0  0  0  0  0  0  0  0  0  0  0  0
  151.1553  145.4084  157.9428 H   0  0  0  0  0  0  0  0  0  0  0  0
  152.8863  145.3111  159.7442 H   0  0  0  0  0  0  0  0  0  0  0  0
  153.9578  143.1757  160.3602 H   0  0  0  0  0  0  0  0  0  0  0  0
  153.3510  141.0521  159.2095 H   0  0  0  0  0  0  0  0  0  0  0  0
  152.6567  139.6162  157.7858 H   0  0  0  0  0  0  0  0  0  0  0  0
  150.9736  139.1703  157.8006 H   0  0  0  0  0  0  0  0  0  0  0  0
  151.3116  139.5475  155.0986 H   0  0  0  0  0  0  0  0  0  0  0  0
  153.3417  138.3893  154.7212 H   0  0  0  0  0  0  0  0  0  0  0  0
  149.7885  137.9566  154.4057 H   0  0  0  0  0  0  0  0  0  0  0  0
  148.8521  135.6690  154.4825 H   0  0  0  0  0  0  0  0  0  0  0  0
  151.1546  132.8367  154.8662 H   0  0  0  0  0  0  0  0  0  0  0  0
  151.7955  134.5729  157.4482 H   0  0  0  0  0  0  0  0  0  0  0  0
  152.7172  136.8488  157.3783 H   0  0  0  0  0  0  0  0  0  0  0  0
  149.7935  143.6705  156.0881 H   0  0  0  0  0  0  0  0  0  0  0  0
  1  2  1  0  0  0  0
  1 24  1  0  0  0  0
  1 25  1  0  0  0  0
  1 26  1  0  0  0  0
  2 10  1  0  0  0  0
  2  3  2  0  0  0  0
  3  4  1  0  0  0  0
  3 40  1  0  0  0  0
  4  9  2  0  0  0  0
  4  5  1  0  0  0  0
  5  6  2  0  0  0  0
  5 27  1  0  0  0  0
  6  7  1  0  0  0  0
  6 28  1  0  0  0  0
  7  8  2  0  0  0  0
  7 29  1  0  0  0  0
  8  9  1  0  0  0  0
  8 30  1  0  0  0  0
  9 10  1  0  0  0  0
 10 11  1  0  0  0  0
 11 12  1  0  0  0  0
 11 31  1  0  0  0  0
 11 32  1  0  0  0  0
 12 13  1  0  0  0  0
 12 14  1  0  0  0  0
 12 33  1  0  0  0  0
 13 34  1  0  0  0  0
 14 23  1  0  0  0  0
 14 15  2  0  0  0  0
 15 16  1  0  0  0  0
 15 35  1  0  0  0  0
 16 17  2  0  0  0  0
 16 36  1  0  0  0  0
 17 18  1  0  0  0  0
 17 22  1  0  0  0  0
 18 19  1  0  0  0  0
 19 20  1  0  0  0  0
 19 21  1  0  0  0  0
 19 37  1  0  0  0  0
 22 23  2  0  0  0  0
 22 38  1  0  0  0  0
 23 39  1  0  0  0  0
M  CHG  1   3   1
M  END
> <s_m_source_file>
AV-unprocessed.smi

> <i_m_source_file_index>
1872

> <i_lp_mmshare_version>
43012

> <i_f3d_flags>
0

> <s_epik_input>
W2NIXTFbY0hdW2NIXVtjSF1jKGMxMiluKGMobjIpW0NIM10pW0NIMl1bQ0BIXShbT0hdKWMzW2NIXVtjSF1jKE9bQ0hdKEYpRilbY0hdW2NIXTM=

> <s_epik_cmdline>
J2VwaWtfcHl0aG9uJywgJy1waCcsICc3LjAnLCAnLXRuJywgJzgnLCAnLW1hJywgJzIwMCcsICctbWV0YWxfYmluZGluZycsICctaW1hZScsICc8aW5maWxlLm1hZT4nLCAnLW9tYWUnLCAnPG91dGZpbGUubWFlPic=

> <r_lp_tautomer_probability>
1

> <r_epik_Ionization_Penalty>
0.963868

> <r_epik_Ionization_Penalty_Charging>
0.963868

> <r_epik_Ionization_Penalty_Neutral>
2.50501e-07

> <r_epik_State_Penalty>
1.00924

> <r_epik_Charging_Adjusted_Penalty>
1.9731

> <i_epik_Tot_Q>
1

> <i_epik_Tot_abs_Q>
1

> <r_epik_Metal_State_Penalty>
4.98304

> <b_epik_Metal_Only>
0

> <s_lp_Force_Field>
OPLS_2005

> <r_lp_Energy>
14.447

> <b_lp_Chiralities_Consistent>
1

> <s_lp_Variant>
AV-unprocessed.smi:1872-4

> <Gold.Version>
5.8.1

> <Gold.Id.Protein>
6NUR|6NUR_protein|mol2

> <Gold.PLP.Fitness>
53.9125

> <Gold.PLP.PLP>
-46.8281

> <Gold.PLP.part.hbond>
-1.8514

> <Gold.PLP.part.metal>
0.0000

> <Gold.PLP.part.buried>
-4.4672

> <Gold.PLP.part.nonpolar>
-40.8171

> <Gold.PLP.part.repulsive>
0.1095

> <Gold.PLP.ligand.clash>
0.0000

> <Gold.PLP.ligand.torsion>
0.9824

> <Gold.PLP.Chemscore.Hbond>
3.0000

> <Gold.PLP.Chemscore.CHOScore>
0.0000

> <Gold.PLP.Chemscore.Metal>
0.0000

> <Gold.Chemscore.Hbonds>
donor molecule, donor type, donor heavy atom, donor atom, acceptor molecule, acceptor atom, score
      L1  H     3    40       P1  8028  1.59
      P1  H  7997  8008       L1    13  1.00

> <Gold.PLP.Chemscore.Internal.Correction>
0.0492

> <Gold.Rescore>
     Score         DG    S(hbond)    S(metal)    S(lipo)     H(rot)  DE(clash)    DE(int)     intcor
     19.06     -20.10       1.98        0.00     119.04       2.32       0.03       1.00       ----

> <Gold.Chemscore.Fitness>
19.0626

> <Gold.Chemscore.DG>
-20.0984

> <Gold.Chemscore.ZeroCoef>
-5.4800

> <Gold.Chemscore.Hbond>
1.9845

> <Gold.Chemscore.Metal>
0.0000

> <Gold.Chemscore.Lipo>
119.0430

> <Gold.Chemscore.Internal_Hbond>
0.0000

> <Gold.Chemscore.DEClash>
0.0332

> <Gold.Chemscore.DEInternal>
1.0025

> <Gold.Chemscore.Rot>
2.3195

> <Gold.Chemscore.Internal.Correction>
   9.000000E+99

> <Gold.Chemscore.Hbonds>
donor molecule, donor type, donor heavy atom, donor atom, acceptor molecule, acceptor atom, score
      L1  H     3    40       P1  8028  0.79
      P1  H  7997  8008       L1    13  0.99

> <Gold.Chemscore.Hbond.Weighted>
-6.6283

> <Gold.Chemscore.Metal.Weighted>
-0.0000

> <Gold.Chemscore.Lipo.Weighted>
-13.9280

> <Gold.Chemscore.Internal_Hbond.Weighted>
0.0000

> <Gold.Chemscore.DEClash.Weighted>
0.0332

> <Gold.Chemscore.DEInternal.Weighted>
1.0025

> <Gold.Chemscore.Rot.Weighted>
5.9379

> <Gold.Chemscore.Internal.Correction.Weighted>
   9.000000E+99

> <Gold.Protein.RotatedTorsions>
[ 6907 6896 6895 6894 ] final  -37.12 input  -60.11 | X-H torsion
[ 7974 7965 7964 7962 ] final -145.50 input  175.53 | X-H torsion
[ 8008 7997 7996 7995 ] final  -22.24 input   59.86 | X-H torsion
[ 10167 10162 10161 10158 ] final -163.73 input  -65.29 | X-H torsion
[ 10718 10713 10712 10709 ] final  145.52 input   66.30 | X-H torsion
[ 10763 10752 10751 10750 ] final   96.94 input  -60.55 | X-H torsion
[ 11005 11000 10999 10996 ] final   56.84 input  -57.11 | X-H torsion

> <Gold.Protein.ActiveResidues>
 VAL166  LYS551  ARG553  GLY616  TRP617  ASP618  TYR619  PRO620  LYS621  CYS622 
 ASP623  PHE694  ASN695  SER759  ASP760  ASP761  ALA762  ILE779  LEU786  VAL792 
 PHE793  MET794  SER795  GLU796  ALA797  LYS798  CYS799  TRP800  GLU811  SER814 

> <Gold.Protein.RotatedAtoms>
  151.0186  134.9452  159.8046 H   0  0  0  0  0  0  0  0  0  0  0  0  # atno 6907 bound_to 6896
  152.5320  134.2933  159.9061 H   0  0  0  0  0  0  0  0  0  0  0  0  # atno 6908 bound_to 6896
  151.2940  133.4110  159.2669 H   0  0  0  0  0  0  0  0  0  0  0  0  # atno 6909 bound_to 6896
  144.8223  140.5575  143.5570 H   0  0  0  0  0  0  0  0  0  0  0  0  # atno 7974 bound_to 7965
  154.4656  140.2013  156.0127 H   0  0  0  0  0  0  0  0  0  0  0  0  # atno 8008 bound_to 7997
  156.0921  140.3256  155.7800 H   0  0  0  0  0  0  0  0  0  0  0  0  # atno 8009 bound_to 7997
  155.4939  140.0548  157.2940 H   0  0  0  0  0  0  0  0  0  0  0  0  # atno 8010 bound_to 7997
  139.6300  144.0458  152.2007 H   0  0  0  0  0  0  0  0  0  0  0  0  # atno 10167 bound_to 10162
  157.3443  131.0940  151.1056 H   0  0  0  0  0  0  0  0  0  0  0  0  # atno 10718 bound_to 10713
  153.2709  135.4201  155.0987 H   0  0  0  0  0  0  0  0  0  0  0  0  # atno 10763 bound_to 10752
  154.8455  135.3472  154.6245 H   0  0  0  0  0  0  0  0  0  0  0  0  # atno 10764 bound_to 10752
  153.6665  135.7046  153.5218 H   0  0  0  0  0  0  0  0  0  0  0  0  # atno 10765 bound_to 10752
  140.0498  134.5754  155.9278 H   0  0  0  0  0  0  0  0  0  0  0  0  # atno 11005 bound_to 11000
  145.5077  139.1480  143.3622 LP  0  0  0  0  0  0  0  0  0  0  0  0  # atno 17320 bound_to 7965
  146.2528  140.5218  142.8886 LP  0  0  0  0  0  0  0  0  0  0  0  0  # atno 17321 bound_to 7965
  140.0121  144.6216  150.7638 LP  0  0  0  0  0  0  0  0  0  0  0  0  # atno 17342 bound_to 10162
  140.7433  143.2844  151.3504 LP  0  0  0  0  0  0  0  0  0  0  0  0  # atno 17343 bound_to 10162
  157.2256  130.6501  149.5828 LP  0  0  0  0  0  0  0  0  0  0  0  0  # atno 17370 bound_to 10713
  155.9712  130.4615  150.6112 LP  0  0  0  0  0  0  0  0  0  0  0  0  # atno 17371 bound_to 10713
  141.1924  133.6575  156.5503 LP  0  0  0  0  0  0  0  0  0  0  0  0  # atno 17394 bound_to 11000
  140.3936  134.7419  157.4737 LP  0  0  0  0  0  0  0  0  0  0  0  0  # atno 17395 bound_to 11000

$$$$
