AV-unprocessed.smi:72|AV-procd|sdf|718|dock2
  -GOLD-   2262017 43D 1   1.00000     0.00000
 Structure written by MMmdl.
 28 29  0  0  0  0  0  0  0  0  2 V2000
  148.5629  136.5979  160.9644 N   0  0  0  0  0  0  0  0  0  0  0  0
  148.7874  136.9506  159.7751 C   0  0  0  0  0  0  0  0  0  0  0  0
  147.8630  137.8286  159.0908 N   0  0  0  0  0  0  0  0  0  0  0  0
  148.1318  138.1511  157.8628 C   0  0  0  0  0  0  0  0  0  0  0  0
  149.3129  137.6438  157.1775 N   0  0  0  0  0  0  0  0  0  0  0  0
  149.6204  138.0330  155.7453 C   0  0  1  0  0  0  0  0  0  0  0  0
  148.4845  137.8441  154.9620 O   0  0  0  0  0  0  0  0  0  0  0  0
  148.5543  138.7320  153.8580 C   0  0  1  0  0  0  0  0  0  0  0  0
  147.1613  138.9061  153.2336 C   0  0  0  0  0  0  0  0  0  0  0  0
  147.2039  138.6027  151.8555 O   0  0  0  0  0  0  0  0  0  0  0  0
  149.1045  140.0147  154.4939 C   0  0  2  0  0  0  0  0  0  0  0  0
  149.8086  140.7722  153.5295 O   0  0  0  0  0  0  0  0  0  0  0  0
  150.0511  139.5083  155.5810 C   0  0  1  0  0  0  0  0  0  0  0  0
  149.9204  140.2899  156.7552 O   0  0  0  0  0  0  0  0  0  0  0  0
  150.2181  136.8078  157.8823 C   0  0  0  0  0  0  0  0  0  0  0  0
  151.2339  136.4296  157.2985 O   0  0  0  0  0  0  0  0  0  0  0  0
  149.9305  136.4742  159.1716 N   0  5  0  0  0  0  0  0  0  0  0  0
  150.3769  137.3318  155.3887 H   0  0  0  0  0  0  0  0  0  0  0  0
  149.2689  138.3391  153.1309 H   0  0  0  0  0  0  0  0  0  0  0  0
  148.2912  140.6017  154.9246 H   0  0  0  0  0  0  0  0  0  0  0  0
  151.0930  139.5154  155.2569 H   0  0  0  0  0  0  0  0  0  0  0  0
  149.2824  135.9889  161.3265 H   0  0  0  0  0  0  0  0  0  0  0  0
  147.5019  138.8195  157.2747 H   0  0  0  0  0  0  0  0  0  0  0  0
  146.4202  138.2859  153.7389 H   0  0  0  0  0  0  0  0  0  0  0  0
  146.8352  139.9423  153.3283 H   0  0  0  0  0  0  0  0  0  0  0  0
  147.8398  137.9174  151.7183 H   0  0  0  0  0  0  0  0  0  0  0  0
  149.5091  140.5149  152.6710 H   0  0  0  0  0  0  0  0  0  0  0  0
  150.1981  139.7675  157.4928 H   0  0  0  0  0  0  0  0  0  0  0  0
  1  2  2  0  0  0  0
  1 22  1  0  0  0  0
  2 17  1  0  0  0  0
  2  3  1  0  0  0  0
  3  4  2  0  0  0  0
  4  5  1  0  0  0  0
  4 23  1  0  0  0  0
  5  6  1  0  0  0  0
  5 15  1  0  0  0  0
  6 18  1  0  0  0  0
  6 13  1  0  0  0  0
  6  7  1  0  0  0  0
  7  8  1  0  0  0  0
  8 19  1  0  0  0  0
  8  9  1  0  0  0  0
  8 11  1  0  0  0  0
  9 10  1  0  0  0  0
  9 24  1  0  0  0  0
  9 25  1  0  0  0  0
 10 26  1  0  0  0  0
 11 20  1  0  0  0  0
 11 12  1  0  0  0  0
 11 13  1  0  0  0  0
 12 27  1  0  0  0  0
 13 21  1  0  0  0  0
 13 14  1  0  0  0  0
 14 28  1  0  0  0  0
 15 16  2  0  0  0  0
 15 17  1  0  0  0  0
M  CHG  1  17  -1
M  END
> <s_m_source_file>
AV-unprocessed.smi

> <i_m_source_file_index>
72

> <i_lp_mmshare_version>
43012

> <i_f3d_flags>
0

> <s_epik_input>
W05IMl1jMW5bY0hdbihjKD1PKW4xKVtDQEBIXTJPW0NASF0oW0NIMl1bT0hdKVtDQEBIXShbT0hdKVtDQEhdMltPSF0=

> <s_epik_cmdline>
J2VwaWtfcHl0aG9uJywgJy1waCcsICc3LjAnLCAnLXRuJywgJzgnLCAnLW1hJywgJzIwMCcsICctbWV0YWxfYmluZGluZycsICctaW1hZScsICc8aW5maWxlLm1hZT4nLCAnLW9tYWUnLCAnPG91dGZpbGUubWFlPic=

> <r_lp_tautomer_probability>
7.17554e-07

> <r_epik_Ionization_Penalty>
12.8705

> <r_epik_Ionization_Penalty_Charging>
5.64144

> <r_epik_Ionization_Penalty_Neutral>
7.22905

> <r_epik_State_Penalty>
3.30104

> <r_epik_Charging_Adjusted_Penalty>
8.94249

> <i_epik_Tot_Q>
-1

> <i_epik_Tot_abs_Q>
1

> <r_epik_Metal_State_Penalty>
0.529074

> <b_epik_Metal_Only>
1

> <s_epik_Chemistry_Notes>
This compound contains an acetal/aminal-like group ( X-CH(R)-Y where X, Y are N, S, or O) that may be acid/base labile, releasing an aldehyde.

> <s_lp_Force_Field>
OPLS_2005

> <r_lp_Energy>
37.5202

> <b_lp_Chiralities_Consistent>
1

> <s_lp_Variant>
AV-unprocessed.smi:72-56

> <Gold.Version>
5.8.1

> <Gold.Id.Protein>
6NUR|6NUR_protein|mol2

> <Gold.PLP.Fitness>
34.8067

> <Gold.PLP.PLP>
-20.0265

> <Gold.PLP.part.hbond>
-7.7543

> <Gold.PLP.part.metal>
0.0000

> <Gold.PLP.part.buried>
-2.1289

> <Gold.PLP.part.nonpolar>
-10.0380

> <Gold.PLP.part.repulsive>
0.1106

> <Gold.PLP.ligand.clash>
0.0000

> <Gold.PLP.ligand.torsion>
0.9823

> <Gold.PLP.Chemscore.Hbond>
5.5347

> <Gold.PLP.Chemscore.CHOScore>
0.0000

> <Gold.PLP.Chemscore.Metal>
0.0000

> <Gold.Chemscore.Hbonds>
donor molecule, donor type, donor heavy atom, donor atom, acceptor molecule, acceptor atom, score
      L1  H    10    26       P1  7948  1.00
      L1  H    12    27       P1  7957  1.00
      P1  H  6896  6909       L1    17  2.00
      P1  H  6931  6943       L1     1  0.95
      P1  H  6934  6947       L1     3  0.16
      P1  H  7989  7998       L1    12  0.37

> <Gold.PLP.Chemscore.Internal.Correction>
0.1407

> <Gold.Rescore>
     Score         DG    S(hbond)    S(metal)    S(lipo)     H(rot)  DE(clash)    DE(int)     intcor
      7.23      -9.40       3.50        0.00      22.07       4.04       0.05       2.12       ----

> <Gold.Chemscore.Fitness>
7.2272

> <Gold.Chemscore.DG>
-9.3969

> <Gold.Chemscore.ZeroCoef>
-5.4800

> <Gold.Chemscore.Hbond>
3.4963

> <Gold.Chemscore.Metal>
0.0000

> <Gold.Chemscore.Lipo>
22.0720

> <Gold.Chemscore.Internal_Hbond>
0.0000

> <Gold.Chemscore.DEClash>
0.0476

> <Gold.Chemscore.DEInternal>
2.1222

> <Gold.Chemscore.Rot>
4.0403

> <Gold.Chemscore.Internal.Correction>
   9.000000E+99

> <Gold.Chemscore.Hbonds>
donor molecule, donor type, donor heavy atom, donor atom, acceptor molecule, acceptor atom, score
      L1  H    10    26       P1  7948  0.97
      L1  H    12    27       P1  7957  0.97
      P1  H  6896  6909       L1    17  0.69
      P1  H  6931  6943       L1     1  0.05
      P1  H  6934  6947       L1     3  0.03
      P1  H  7989  7998       L1    12  0.23

> <Gold.Chemscore.Hbond.Weighted>
-11.6776

> <Gold.Chemscore.Metal.Weighted>
-0.0000

> <Gold.Chemscore.Lipo.Weighted>
-2.5824

> <Gold.Chemscore.Internal_Hbond.Weighted>
0.0000

> <Gold.Chemscore.DEClash.Weighted>
0.0476

> <Gold.Chemscore.DEInternal.Weighted>
2.1222

> <Gold.Chemscore.Rot.Weighted>
10.3431

> <Gold.Chemscore.Internal.Correction.Weighted>
   9.000000E+99

> <Gold.Protein.RotatedTorsions>
[ 6907 6896 6895 6894 ] final   58.05 input  -60.11 | X-H torsion
[ 7974 7965 7964 7962 ] final   49.92 input  175.53 | X-H torsion
[ 8008 7997 7996 7995 ] final  155.88 input   59.86 | X-H torsion
[ 10167 10162 10161 10158 ] final  -31.93 input  -65.29 | X-H torsion
[ 10718 10713 10712 10709 ] final  143.28 input   66.30 | X-H torsion
[ 10763 10752 10751 10750 ] final -147.62 input  -60.55 | X-H torsion
[ 11005 11000 10999 10996 ] final    6.75 input  -57.11 | X-H torsion

> <Gold.Protein.ActiveResidues>
 VAL166  LYS551  ARG553  GLY616  TRP617  ASP618  TYR619  PRO620  LYS621  CYS622 
 ASP623  PHE694  ASN695  SER759  ASP760  ASP761  ALA762  ILE779  LEU786  VAL792 
 PHE793  MET794  SER795  GLU796  ALA797  LYS798  CYS799  TRP800  GLU811  SER814 

> <Gold.Protein.RotatedAtoms>
  152.3788  134.6622  160.0149 H   0  0  0  0  0  0  0  0  0  0  0  0  # atno 6907 bound_to 6896
  151.6891  133.3305  159.3246 H   0  0  0  0  0  0  0  0  0  0  0  0  # atno 6908 bound_to 6896
  150.7731  134.6650  159.6405 H   0  0  0  0  0  0  0  0  0  0  0  0  # atno 6909 bound_to 6896
  146.0062  139.4493  142.9984 H   0  0  0  0  0  0  0  0  0  0  0  0  # atno 7974 bound_to 7965
  156.2454  140.1927  156.6870 H   0  0  0  0  0  0  0  0  0  0  0  0  # atno 8008 bound_to 7997
  154.6280  140.0599  156.9723 H   0  0  0  0  0  0  0  0  0  0  0  0  # atno 8009 bound_to 7997
  155.1756  140.3272  155.4387 H   0  0  0  0  0  0  0  0  0  0  0  0  # atno 8010 bound_to 7997
  140.7229  143.3733  151.1737 H   0  0  0  0  0  0  0  0  0  0  0  0  # atno 10167 bound_to 10162
  157.3707  131.0978  151.0830 H   0  0  0  0  0  0  0  0  0  0  0  0  # atno 10718 bound_to 10713
  154.8276  135.3355  154.6847 H   0  0  0  0  0  0  0  0  0  0  0  0  # atno 10763 bound_to 10752
  153.7470  135.6942  153.4958 H   0  0  0  0  0  0  0  0  0  0  0  0  # atno 10764 bound_to 10752
  153.2203  135.4451  155.0432 H   0  0  0  0  0  0  0  0  0  0  0  0  # atno 10765 bound_to 10752
  140.5560  134.0238  155.7954 H   0  0  0  0  0  0  0  0  0  0  0  0  # atno 11005 bound_to 11000
  145.7412  141.0007  143.1300 LP  0  0  0  0  0  0  0  0  0  0  0  0  # atno 17320 bound_to 7965
  144.6936  139.9101  143.7463 LP  0  0  0  0  0  0  0  0  0  0  0  0  # atno 17321 bound_to 7965
  139.7309  143.9075  152.3019 LP  0  0  0  0  0  0  0  0  0  0  0  0  # atno 17342 bound_to 10162
  139.8863  144.6990  150.8820 LP  0  0  0  0  0  0  0  0  0  0  0  0  # atno 17343 bound_to 10162
  157.1935  130.6363  149.5713 LP  0  0  0  0  0  0  0  0  0  0  0  0  # atno 17370 bound_to 10713
  155.9755  130.4714  150.6464 LP  0  0  0  0  0  0  0  0  0  0  0  0  # atno 17371 bound_to 10713
  141.1143  133.9565  157.2851 LP  0  0  0  0  0  0  0  0  0  0  0  0  # atno 17394 bound_to 11000
  139.9431  135.0188  156.8771 LP  0  0  0  0  0  0  0  0  0  0  0  0  # atno 17395 bound_to 11000

$$$$
