AV-unprocessed.smi:3132|AV-procd|sdf|11936|dock7
  -GOLD-   2272017323D 1   1.00000     0.00000
 Structure written by MMmdl.
 33 34  0  0  0  0  0  0  0  0  1 V2000
  151.5532  143.7789  157.6967 C   0  0  0  0  0  0  0  0  0  0  0  0
  151.3085  142.3838  157.1031 C   0  0  1  0  0  0  0  0  0  0  0  0
  151.0672  141.3327  158.2031 C   0  0  0  0  0  0  0  0  0  0  0  0
  152.1900  141.2286  159.1169 N   0  0  0  0  0  0  0  0  0  0  0  0
  152.6272  142.1869  160.0221 C   0  0  0  0  0  0  0  0  0  0  0  0
  153.7123  141.6455  160.6736 C   0  0  0  0  0  0  0  0  0  0  0  0
  153.9609  140.3646  160.1861 N   0  0  0  0  0  0  0  0  0  0  0  0
  153.0198  140.1872  159.2678 C   0  0  0  0  0  0  0  0  0  0  0  0
  150.1640  142.4271  156.1953 N   0  0  0  0  0  0  0  0  0  0  0  0
  149.9206  141.5607  155.2005 C   0  0  0  0  0  0  0  0  0  0  0  0
  150.6682  140.6230  154.9204 O   0  0  0  0  0  0  0  0  0  0  0  0
  148.6217  141.7838  154.4175 C   0  0  1  0  0  0  0  0  0  0  0  0
  148.2369  140.6238  153.4797 C   0  0  0  0  0  0  0  0  0  0  0  0
  147.0236  140.0094  154.1496 C   0  0  0  0  0  0  0  0  0  0  0  0
  146.4169  141.2122  154.8577 C   0  0  0  0  0  0  0  0  0  0  0  0
  147.5544  141.8980  155.3571 O   0  0  0  0  0  0  0  0  0  0  0  0
  152.4141  143.7743  158.3656 H   0  0  0  0  0  0  0  0  0  0  0  0
  150.6908  144.1248  158.2673 H   0  0  0  0  0  0  0  0  0  0  0  0
  151.7514  144.5107  156.9130 H   0  0  0  0  0  0  0  0  0  0  0  0
  152.2043  142.0919  156.5515 H   0  0  0  0  0  0  0  0  0  0  0  0
  150.1824  141.5928  158.7856 H   0  0  0  0  0  0  0  0  0  0  0  0
  150.8763  140.3515  157.7658 H   0  0  0  0  0  0  0  0  0  0  0  0
  152.1415  143.1456  160.1285 H   0  0  0  0  0  0  0  0  0  0  0  0
  154.3280  142.0761  161.4494 H   0  0  0  0  0  0  0  0  0  0  0  0
  152.9296  139.2768  158.6934 H   0  0  0  0  0  0  0  0  0  0  0  0
  149.4882  143.1602  156.3535 H   0  0  0  0  0  0  0  0  0  0  0  0
  148.6885  142.7090  153.8425 H   0  0  0  0  0  0  0  0  0  0  0  0
  147.9604  141.0207  152.5022 H   0  0  0  0  0  0  0  0  0  0  0  0
  149.0304  139.8930  153.3183 H   0  0  0  0  0  0  0  0  0  0  0  0
  146.3382  139.5365  153.4459 H   0  0  0  0  0  0  0  0  0  0  0  0
  147.3358  139.2630  154.8813 H   0  0  0  0  0  0  0  0  0  0  0  0
  145.8839  141.8522  154.1527 H   0  0  0  0  0  0  0  0  0  0  0  0
  145.7322  140.9318  155.6586 H   0  0  0  0  0  0  0  0  0  0  0  0
  1  2  1  0  0  0  0
  1 17  1  0  0  0  0
  1 18  1  0  0  0  0
  1 19  1  0  0  0  0
  2  3  1  0  0  0  0
  2  9  1  0  0  0  0
  2 20  1  0  0  0  0
  3  4  1  0  0  0  0
  3 21  1  0  0  0  0
  3 22  1  0  0  0  0
  4  8  1  0  0  0  0
  4  5  1  0  0  0  0
  5  6  2  0  0  0  0
  5 23  1  0  0  0  0
  6  7  1  0  0  0  0
  6 24  1  0  0  0  0
  7  8  2  0  0  0  0
  8 25  1  0  0  0  0
  9 10  1  0  0  0  0
  9 26  1  0  0  0  0
 10 11  2  0  0  0  0
 10 12  1  0  0  0  0
 12 16  1  0  0  0  0
 12 13  1  0  0  0  0
 12 27  1  0  0  0  0
 13 14  1  0  0  0  0
 13 28  1  0  0  0  0
 13 29  1  0  0  0  0
 14 15  1  0  0  0  0
 14 30  1  0  0  0  0
 14 31  1  0  0  0  0
 15 16  1  0  0  0  0
 15 32  1  0  0  0  0
 15 33  1  0  0  0  0
M  END
> <s_m_source_file>
AV-unprocessed.smi

> <i_m_source_file_index>
3132

> <i_lp_mmshare_version>
43012

> <i_f3d_flags>
0

> <s_epik_input>
W2NIXTFuW2NIXVtjSF1uMVtDSDJdW0NAQEhdKFtDSDNdKVtOSF1DKD1PKVtDQEBIXTJbQ0gyXVtDSDJdW0NIMl1PMg==

> <s_epik_cmdline>
J2VwaWtfcHl0aG9uJywgJy1waCcsICc3LjAnLCAnLXRuJywgJzgnLCAnLW1hJywgJzIwMCcsICctbWV0YWxfYmluZGluZycsICctaW1hZScsICc8aW5maWxlLm1hZT4nLCAnLW9tYWUnLCAnPG91dGZpbGUubWFlPic=

> <r_lp_tautomer_probability>
1

> <r_epik_Ionization_Penalty>
0.630322

> <r_epik_Ionization_Penalty_Charging>
0.630322

> <r_epik_Ionization_Penalty_Neutral>
3.82652e-08

> <r_epik_State_Penalty>
0.647117

> <r_epik_Charging_Adjusted_Penalty>
1.27744

> <i_epik_Tot_Q>
0

> <i_epik_Tot_abs_Q>
0

> <r_epik_Metal_State_Penalty>
0.309095

> <b_epik_Metal_Only>
0

> <s_lp_Force_Field>
OPLS_2005

> <r_lp_Energy>
20.0706

> <b_lp_Chiralities_Consistent>
1

> <s_lp_Variant>
AV-unprocessed.smi:3132-8

> <Gold.Version>
5.8.1

> <Gold.Id.Protein>
6NUR|6NUR_protein|mol2

> <Gold.PLP.Fitness>
38.1302

> <Gold.PLP.PLP>
-33.1816

> <Gold.PLP.part.hbond>
-2.0000

> <Gold.PLP.part.metal>
0.0000

> <Gold.PLP.part.buried>
-2.8669

> <Gold.PLP.part.nonpolar>
-28.1709

> <Gold.PLP.part.repulsive>
0.7903

> <Gold.PLP.ligand.clash>
0.0000

> <Gold.PLP.ligand.torsion>
0.5337

> <Gold.PLP.Chemscore.Hbond>
2.0000

> <Gold.PLP.Chemscore.CHOScore>
0.0000

> <Gold.PLP.Chemscore.Metal>
0.0000

> <Gold.Chemscore.Hbonds>
donor molecule, donor type, donor heavy atom, donor atom, acceptor molecule, acceptor atom, score
      L1  H     9    26       P1  8028  0.85
      P1  H  7989  7998       L1    11  0.96

> <Gold.PLP.Chemscore.Internal.Correction>
0.0160

> <Gold.Rescore>
     Score         DG    S(hbond)    S(metal)    S(lipo)     H(rot)  DE(clash)    DE(int)     intcor
     13.36     -14.75       1.64        0.00      73.29       1.86       0.90       0.49       ----

> <Gold.Chemscore.Fitness>
13.3613

> <Gold.Chemscore.DG>
-14.7541

> <Gold.Chemscore.ZeroCoef>
-5.4800

> <Gold.Chemscore.Hbond>
1.6379

> <Gold.Chemscore.Metal>
0.0000

> <Gold.Chemscore.Lipo>
73.2862

> <Gold.Chemscore.Internal_Hbond>
0.0000

> <Gold.Chemscore.DEClash>
0.8999

> <Gold.Chemscore.DEInternal>
0.4929

> <Gold.Chemscore.Rot>
1.8636

> <Gold.Chemscore.Internal.Correction>
   9.000000E+99

> <Gold.Chemscore.Hbonds>
donor molecule, donor type, donor heavy atom, donor atom, acceptor molecule, acceptor atom, score
      L1  H     9    26       P1  8028  0.83
      P1  H  7989  7998       L1    11  0.81

> <Gold.Chemscore.Hbond.Weighted>
-5.4705

> <Gold.Chemscore.Metal.Weighted>
-0.0000

> <Gold.Chemscore.Lipo.Weighted>
-8.5745

> <Gold.Chemscore.Internal_Hbond.Weighted>
0.0000

> <Gold.Chemscore.DEClash.Weighted>
0.8999

> <Gold.Chemscore.DEInternal.Weighted>
0.4929

> <Gold.Chemscore.Rot.Weighted>
4.7709

> <Gold.Chemscore.Internal.Correction.Weighted>
   9.000000E+99

> <Gold.Protein.RotatedTorsions>
[ 6907 6896 6895 6894 ] final   -7.28 input  -60.11 | X-H torsion
[ 7974 7965 7964 7962 ] final   73.58 input  175.53 | X-H torsion
[ 8008 7997 7996 7995 ] final -144.75 input   59.86 | X-H torsion
[ 10167 10162 10161 10158 ] final  -69.04 input  -65.29 | X-H torsion
[ 10718 10713 10712 10709 ] final  -21.10 input   66.30 | X-H torsion
[ 10763 10752 10751 10750 ] final -139.37 input  -60.55 | X-H torsion
[ 11005 11000 10999 10996 ] final  -87.14 input  -57.11 | X-H torsion

> <Gold.Protein.ActiveResidues>
 VAL166  LYS551  ARG553  GLY616  TRP617  ASP618  TYR619  PRO620  LYS621  CYS622 
 ASP623  PHE694  ASN695  SER759  ASP760  ASP761  ALA762  ILE779  LEU786  VAL792 
 PHE793  MET794  SER795  GLU796  ALA797  LYS798  CYS799  TRP800  GLU811  SER814 

> <Gold.Protein.RotatedAtoms>
  151.4521  135.1031  159.9700 H   0  0  0  0  0  0  0  0  0  0  0  0  # atno 6907 bound_to 6896
  152.4884  133.8430  159.7173 H   0  0  0  0  0  0  0  0  0  0  0  0  # atno 6908 bound_to 6896
  150.9015  133.7053  159.2905 H   0  0  0  0  0  0  0  0  0  0  0  0  # atno 6909 bound_to 6896
  145.7391  139.2714  143.1497 H   0  0  0  0  0  0  0  0  0  0  0  0  # atno 7974 bound_to 7965
  155.5320  140.0600  157.2887 H   0  0  0  0  0  0  0  0  0  0  0  0  # atno 8008 bound_to 7997
  154.4481  140.1934  156.0549 H   0  0  0  0  0  0  0  0  0  0  0  0  # atno 8009 bound_to 7997
  156.0645  140.3268  155.7505 H   0  0  0  0  0  0  0  0  0  0  0  0  # atno 8010 bound_to 7997
  140.5461  143.2313  151.6998 H   0  0  0  0  0  0  0  0  0  0  0  0  # atno 10167 bound_to 10162
  156.5228  130.4636  149.6588 H   0  0  0  0  0  0  0  0  0  0  0  0  # atno 10718 bound_to 10713
  154.8611  135.3584  154.5536 H   0  0  0  0  0  0  0  0  0  0  0  0  # atno 10763 bound_to 10752
  153.6153  135.7008  153.5336 H   0  0  0  0  0  0  0  0  0  0  0  0  # atno 10764 bound_to 10752
  153.3174  135.4161  155.1348 H   0  0  0  0  0  0  0  0  0  0  0  0  # atno 10765 bound_to 10752
  141.1621  133.7494  156.9264 H   0  0  0  0  0  0  0  0  0  0  0  0  # atno 11005 bound_to 11000
  146.0465  140.8113  142.9803 LP  0  0  0  0  0  0  0  0  0  0  0  0  # atno 17320 bound_to 7965
  144.6875  140.2988  143.7266 LP  0  0  0  0  0  0  0  0  0  0  0  0  # atno 17321 bound_to 7965
  139.5008  144.3892  152.0297 LP  0  0  0  0  0  0  0  0  0  0  0  0  # atno 17342 bound_to 10162
  140.3005  144.3652  150.6062 LP  0  0  0  0  0  0  0  0  0  0  0  0  # atno 17343 bound_to 10162
  156.3133  130.7241  151.2138 LP  0  0  0  0  0  0  0  0  0  0  0  0  # atno 17370 bound_to 10713
  157.7434  131.0475  150.4949 LP  0  0  0  0  0  0  0  0  0  0  0  0  # atno 17371 bound_to 10713
  140.1416  134.9289  157.2475 LP  0  0  0  0  0  0  0  0  0  0  0  0  # atno 17394 bound_to 11000
  140.2829  134.3329  155.7337 LP  0  0  0  0  0  0  0  0  0  0  0  0  # atno 17395 bound_to 11000

$$$$
