AV-unprocessed.smi:2442|AV-procd|sdf|9624|dock2
  -GOLD-   2272013253D 1   1.00000     0.00000
 Structure written by MMmdl.
 46 47  0  0  0  0  0  0  0  0  1 V2000
  151.7508  137.8702  154.4668 C   0  0  0  0  0  0  0  0  0  0  0  0
  150.5139  138.2957  153.9170 O   0  0  0  0  0  0  0  0  0  0  0  0
  149.5080  138.5771  154.8860 C   0  0  1  0  0  0  0  0  0  0  0  0
  150.0930  139.3916  156.0596 C   0  0  0  0  0  0  0  0  0  0  0  0
  150.5499  140.7908  155.6150 C   0  0  0  0  0  0  0  0  0  0  0  0
  149.4075  141.5587  154.9331 C   0  0  0  0  0  0  0  0  0  0  0  0
  148.8274  140.7614  153.7544 C   0  0  0  0  0  0  0  0  0  0  0  0
  148.3645  139.3592  154.1958 C   0  0  1  0  0  0  0  0  0  0  0  0
  147.8381  138.6265  153.0468 N   0  0  0  0  0  0  0  0  0  0  0  0
  146.7584  137.8334  153.0643 C   0  0  0  0  0  0  0  0  0  0  0  0
  146.0640  137.6335  154.0616 O   0  0  0  0  0  0  0  0  0  0  0  0
  146.5308  137.2746  151.8676 N   0  0  0  0  0  0  0  0  0  0  0  0
  145.4482  136.3404  151.5836 C   0  0  0  0  0  0  0  0  0  0  0  0
  145.6940  134.9782  152.2530 C   0  0  0  0  0  0  0  0  0  0  0  0
  144.9477  133.8531  151.5541 C   0  0  0  0  0  0  0  0  0  0  0  0
  145.6594  132.9469  150.7403 C   0  0  0  0  0  0  0  0  0  0  0  0
  144.9506  131.9137  150.0965 C   0  0  0  0  0  0  0  0  0  0  0  0
  143.6179  131.7428  150.2171 N   0  0  0  0  0  0  0  0  0  0  0  0
  142.9390  132.6122  150.9949 C   0  0  0  0  0  0  0  0  0  0  0  0
  143.5468  133.6841  151.6841 C   0  0  0  0  0  0  0  0  0  0  0  0
  142.6981  134.6125  152.5350 C   0  0  0  0  0  0  0  0  0  0  0  0
  152.4532  137.6630  153.6596 H   0  0  0  0  0  0  0  0  0  0  0  0
  151.6299  136.9536  155.0457 H   0  0  0  0  0  0  0  0  0  0  0  0
  152.1954  138.6326  155.1060 H   0  0  0  0  0  0  0  0  0  0  0  0
  149.1028  137.6406  155.2733 H   0  0  0  0  0  0  0  0  0  0  0  0
  149.3309  139.4961  156.8328 H   0  0  0  0  0  0  0  0  0  0  0  0
  150.9209  138.8610  156.5286 H   0  0  0  0  0  0  0  0  0  0  0  0
  150.9128  141.3530  156.4758 H   0  0  0  0  0  0  0  0  0  0  0  0
  151.3925  140.7006  154.9281 H   0  0  0  0  0  0  0  0  0  0  0  0
  148.6195  141.7626  155.6592 H   0  0  0  0  0  0  0  0  0  0  0  0
  149.7667  142.5279  154.5858 H   0  0  0  0  0  0  0  0  0  0  0  0
  147.9925  141.3113  153.3189 H   0  0  0  0  0  0  0  0  0  0  0  0
  149.5815  140.6748  152.9709 H   0  0  0  0  0  0  0  0  0  0  0  0
  147.5538  139.4904  154.9153 H   0  0  0  0  0  0  0  0  0  0  0  0
  148.3461  138.7201  152.1795 H   0  0  0  0  0  0  0  0  0  0  0  0
  147.1563  137.4977  151.1072 H   0  0  0  0  0  0  0  0  0  0  0  0
  144.4975  136.7646  151.9109 H   0  0  0  0  0  0  0  0  0  0  0  0
  145.3737  136.2169  150.5030 H   0  0  0  0  0  0  0  0  0  0  0  0
  146.7612  134.7523  152.2431 H   0  0  0  0  0  0  0  0  0  0  0  0
  145.4112  135.0108  153.3051 H   0  0  0  0  0  0  0  0  0  0  0  0
  146.7273  133.0402  150.6082 H   0  0  0  0  0  0  0  0  0  0  0  0
  145.4686  131.2054  149.4669 H   0  0  0  0  0  0  0  0  0  0  0  0
  141.8743  132.4455  151.0678 H   0  0  0  0  0  0  0  0  0  0  0  0
  141.6354  134.4075  152.4029 H   0  0  0  0  0  0  0  0  0  0  0  0
  142.8720  135.6541  152.2655 H   0  0  0  0  0  0  0  0  0  0  0  0
  142.9370  134.4830  153.5907 H   0  0  0  0  0  0  0  0  0  0  0  0
  1  2  1  0  0  0  0
  1 22  1  0  0  0  0
  1 23  1  0  0  0  0
  1 24  1  0  0  0  0
  2  3  1  0  0  0  0
  3  8  1  0  0  0  0
  3  4  1  0  0  0  0
  3 25  1  0  0  0  0
  4  5  1  0  0  0  0
  4 26  1  0  0  0  0
  4 27  1  0  0  0  0
  5  6  1  0  0  0  0
  5 28  1  0  0  0  0
  5 29  1  0  0  0  0
  6  7  1  0  0  0  0
  6 30  1  0  0  0  0
  6 31  1  0  0  0  0
  7  8  1  0  0  0  0
  7 32  1  0  0  0  0
  7 33  1  0  0  0  0
  8  9  1  0  0  0  0
  8 34  1  0  0  0  0
  9 10  1  0  0  0  0
  9 35  1  0  0  0  0
 10 11  2  0  0  0  0
 10 12  1  0  0  0  0
 12 13  1  0  0  0  0
 12 36  1  0  0  0  0
 13 14  1  0  0  0  0
 13 37  1  0  0  0  0
 13 38  1  0  0  0  0
 14 15  1  0  0  0  0
 14 39  1  0  0  0  0
 14 40  1  0  0  0  0
 15 20  1  0  0  0  0
 15 16  2  0  0  0  0
 16 17  1  0  0  0  0
 16 41  1  0  0  0  0
 17 18  2  0  0  0  0
 17 42  1  0  0  0  0
 18 19  1  0  0  0  0
 19 20  2  0  0  0  0
 19 43  1  0  0  0  0
 20 21  1  0  0  0  0
 21 44  1  0  0  0  0
 21 45  1  0  0  0  0
 21 46  1  0  0  0  0
M  END
> <s_m_source_file>
AV-unprocessed.smi

> <i_m_source_file_index>
2442

> <i_lp_mmshare_version>
43012

> <i_f3d_flags>
0

> <s_epik_input>
W0NIM11PW0NAQEhdMVtDSDJdW0NIMl1bQ0gyXVtDSDJdW0NASF0xW05IXUMoPU8pW05IXVtDSDJdW0NIMl1jMltjSF1bY0hdbltjSF1jMltDSDNd

> <s_epik_cmdline>
J2VwaWtfcHl0aG9uJywgJy1waCcsICc3LjAnLCAnLXRuJywgJzgnLCAnLW1hJywgJzIwMCcsICctbWV0YWxfYmluZGluZycsICctaW1hZScsICc8aW5maWxlLm1hZT4nLCAnLW9tYWUnLCAnPG91dGZpbGUubWFlPic=

> <r_epik_Ionization_Penalty>
0.106136

> <r_epik_Ionization_Penalty_Charging>
0

> <r_epik_Ionization_Penalty_Neutral>
0.106136

> <r_epik_State_Penalty>
0.0959393

> <r_epik_Charging_Adjusted_Penalty>
0.0959393

> <i_epik_Tot_Q>
0

> <i_epik_Tot_abs_Q>
0

> <r_epik_Metal_State_Penalty>
0.0812517

> <b_epik_Metal_Only>
0

> <s_lp_Force_Field>
OPLS_2005

> <r_lp_Energy>
9.97505

> <b_lp_Chiralities_Consistent>
1

> <s_lp_Variant>
AV-unprocessed.smi:2442-2

> <Gold.Version>
5.8.1

> <Gold.Id.Protein>
6NUR|6NUR_protein|mol2

> <Gold.PLP.Fitness>
44.3639

> <Gold.PLP.PLP>
-37.1570

> <Gold.PLP.part.hbond>
-4.0000

> <Gold.PLP.part.metal>
0.0000

> <Gold.PLP.part.buried>
-0.7462

> <Gold.PLP.part.nonpolar>
-33.7306

> <Gold.PLP.part.repulsive>
0.6816

> <Gold.PLP.ligand.clash>
0.0000

> <Gold.PLP.ligand.torsion>
0.7756

> <Gold.PLP.Chemscore.Hbond>
1.7564

> <Gold.PLP.Chemscore.CHOScore>
1.1442

> <Gold.PLP.Chemscore.Metal>
0.0000

> <Gold.Chemscore.Hbonds>
donor molecule, donor type, donor heavy atom, donor atom, acceptor molecule, acceptor atom, score
      L1  H     9    35       P1  7957  0.77
      P1  H 10785 10796       L1    18  0.51
      L1  C    19    43       P1 10186  0.32
      L1  C    19    43       P1 10952  0.22

> <Gold.PLP.Chemscore.Internal.Correction>
0.0564

> <Gold.Rescore>
     Score         DG    S(hbond)    S(metal)    S(lipo)     H(rot)  DE(clash)    DE(int)     intcor
     16.44     -18.72       1.57        0.00     104.12       1.64       1.64       0.65       ----

> <Gold.Chemscore.Fitness>
16.4361

> <Gold.Chemscore.DG>
-18.7223

> <Gold.Chemscore.ZeroCoef>
-5.4800

> <Gold.Chemscore.Hbond>
1.5730

> <Gold.Chemscore.Metal>
0.0000

> <Gold.Chemscore.Lipo>
104.1199

> <Gold.Chemscore.Internal_Hbond>
0.0000

> <Gold.Chemscore.DEClash>
1.6373

> <Gold.Chemscore.DEInternal>
0.6489

> <Gold.Chemscore.Rot>
1.6380

> <Gold.Chemscore.Internal.Correction>
   9.000000E+99

> <Gold.Chemscore.Hbonds>
donor molecule, donor type, donor heavy atom, donor atom, acceptor molecule, acceptor atom, score
      L1  H     9    35       P1  7957  0.70
      L1  H    12    36       P1  7948  0.01
      P1  H 10785 10796       L1    18  0.17

> <Gold.Chemscore.Hbond.Weighted>
-5.2537

> <Gold.Chemscore.Metal.Weighted>
-0.0000

> <Gold.Chemscore.Lipo.Weighted>
-12.1820

> <Gold.Chemscore.Internal_Hbond.Weighted>
0.0000

> <Gold.Chemscore.DEClash.Weighted>
1.6373

> <Gold.Chemscore.DEInternal.Weighted>
0.6489

> <Gold.Chemscore.Rot.Weighted>
4.1934

> <Gold.Chemscore.Internal.Correction.Weighted>
   9.000000E+99

> <Gold.Protein.RotatedTorsions>
[ 6907 6896 6895 6894 ] final -103.82 input  -60.11 | X-H torsion
[ 7974 7965 7964 7962 ] final   50.22 input  175.53 | X-H torsion
[ 8008 7997 7996 7995 ] final -173.76 input   59.86 | X-H torsion
[ 10167 10162 10161 10158 ] final  -36.33 input  -65.29 | X-H torsion
[ 10718 10713 10712 10709 ] final   25.29 input   66.30 | X-H torsion
[ 10763 10752 10751 10750 ] final  -49.75 input  -60.55 | X-H torsion
[ 11005 11000 10999 10996 ] final  151.19 input  -57.11 | X-H torsion

> <Gold.Protein.ActiveResidues>
 VAL166  LYS551  ARG553  GLY616  TRP617  ASP618  TYR619  PRO620  LYS621  CYS622 
 ASP623  PHE694  ASN695  SER759  ASP760  ASP761  ALA762  ILE779  LEU786  VAL792 
 PHE793  MET794  SER795  GLU796  ALA797  LYS798  CYS799  TRP800  GLU811  SER814 

> <Gold.Protein.RotatedAtoms>
  150.7258  134.0371  159.3752 H   0  0  0  0  0  0  0  0  0  0  0  0  # atno 6907 bound_to 6896
  151.8343  135.0609  160.0450 H   0  0  0  0  0  0  0  0  0  0  0  0  # atno 6908 bound_to 6896
  152.2910  133.5525  159.5594 H   0  0  0  0  0  0  0  0  0  0  0  0  # atno 6909 bound_to 6896
  146.0033  139.4462  143.0001 H   0  0  0  0  0  0  0  0  0  0  0  0  # atno 7974 bound_to 7965
  155.9615  140.1145  157.0892 H   0  0  0  0  0  0  0  0  0  0  0  0  # atno 8008 bound_to 7997
  154.4133  140.1181  156.5252 H   0  0  0  0  0  0  0  0  0  0  0  0  # atno 8009 bound_to 7997
  155.6715  140.3473  155.4822 H   0  0  0  0  0  0  0  0  0  0  0  0  # atno 8010 bound_to 7997
  140.7145  143.3416  151.2346 H   0  0  0  0  0  0  0  0  0  0  0  0  # atno 10167 bound_to 10162
  157.1913  130.6847  149.6151 H   0  0  0  0  0  0  0  0  0  0  0  0  # atno 10718 bound_to 10713
  154.0992  135.6566  153.4865 H   0  0  0  0  0  0  0  0  0  0  0  0  # atno 10763 bound_to 10752
  153.0295  135.5221  154.7304 H   0  0  0  0  0  0  0  0  0  0  0  0  # atno 10764 bound_to 10752
  154.6451  135.2993  155.0026 H   0  0  0  0  0  0  0  0  0  0  0  0  # atno 10765 bound_to 10752
  140.1197  134.8872  157.2054 H   0  0  0  0  0  0  0  0  0  0  0  0  # atno 11005 bound_to 11000
  145.7455  140.9992  143.1278 LP  0  0  0  0  0  0  0  0  0  0  0  0  # atno 17320 bound_to 7965
  144.6927  139.9150  143.7465 LP  0  0  0  0  0  0  0  0  0  0  0  0  # atno 17321 bound_to 7965
  139.6925  143.9669  152.2866 LP  0  0  0  0  0  0  0  0  0  0  0  0  # atno 17342 bound_to 10162
  139.9335  144.6727  150.8339 LP  0  0  0  0  0  0  0  0  0  0  0  0  # atno 17343 bound_to 10162
  155.9711  130.4613  150.6106 LP  0  0  0  0  0  0  0  0  0  0  0  0  # atno 17370 bound_to 10713
  157.3857  131.0788  151.1438 LP  0  0  0  0  0  0  0  0  0  0  0  0  # atno 17371 bound_to 10713
  140.2982  134.3162  155.7297 LP  0  0  0  0  0  0  0  0  0  0  0  0  # atno 17394 bound_to 11000
  141.2149  133.7576  156.9602 LP  0  0  0  0  0  0  0  0  0  0  0  0  # atno 17395 bound_to 11000

$$$$
