AV-unprocessed.smi:1703|AV-procd|sdf|6864|dock3
  -GOLD-   22720 8 53D 1   1.00000     0.00000
 Structure written by MMmdl.
 49 51  0  0  0  0  0  0  0  0  2 V2000
  149.1685  133.0791  152.9868 C   0  0  0  0  0  0  0  0  0  0  0  0
  149.4017  133.2953  154.4926 C   0  0  1  0  0  0  0  0  0  0  0  0
  150.4645  134.3678  154.8026 C   0  0  0  0  0  0  0  0  0  0  0  0
  149.9416  135.7305  154.5468 N   0  3  2  0  0  0  0  0  0  0  0  0
  150.9662  136.7820  154.7686 C   0  0  0  0  0  0  0  0  0  0  0  0
  150.3740  138.2078  154.7182 C   0  0  2  0  0  0  0  0  0  0  0  0
  149.8408  138.4375  153.4298 O   0  0  0  0  0  0  0  0  0  0  0  0
  151.4039  139.3185  155.0061 C   0  0  0  0  0  0  0  0  0  0  0  0
  150.9015  140.3218  155.9357 N   0  0  0  0  0  0  0  0  0  0  0  0
  149.7945  141.1011  155.8272 C   0  0  0  0  0  0  0  0  0  0  0  0
  148.8691  141.0270  154.6511 C   0  0  0  0  0  0  0  0  0  0  0  0
  149.5437  141.1502  153.4176 O   0  0  0  0  0  0  0  0  0  0  0  0
  149.5810  141.9473  156.8350 N   0  0  0  0  0  0  0  0  0  0  0  0
  150.6385  141.6851  157.6833 C   0  0  0  0  0  0  0  0  0  0  0  0
  150.9778  142.2546  158.9313 C   0  0  0  0  0  0  0  0  0  0  0  0
  152.1240  141.8176  159.6271 C   0  0  0  0  0  0  0  0  0  0  0  0
  152.9461  140.8084  159.0858 C   0  0  0  0  0  0  0  0  0  0  0  0
  152.6274  140.2294  157.8426 C   0  0  0  0  0  0  0  0  0  0  0  0
  151.4821  140.6692  157.1518 C   0  0  0  0  0  0  0  0  0  0  0  0
  148.6886  135.9492  155.3088 C   0  0  0  0  0  0  0  0  0  0  0  0
  147.6470  134.8766  154.9435 C   0  0  2  0  0  0  0  0  0  0  0  0
  146.3644  135.0174  155.7706 C   0  0  0  0  0  0  0  0  0  0  0  0
  148.1907  133.5826  155.1922 O   0  0  0  0  0  0  0  0  0  0  0  0
  150.0814  132.7341  152.5007 H   0  0  0  0  0  0  0  0  0  0  0  0
  148.8583  133.9918  152.4790 H   0  0  0  0  0  0  0  0  0  0  0  0
  148.4010  132.3237  152.8175 H   0  0  0  0  0  0  0  0  0  0  0  0
  149.7627  132.3474  154.8930 H   0  0  0  0  0  0  0  0  0  0  0  0
  150.7657  134.2947  155.8490 H   0  0  0  0  0  0  0  0  0  0  0  0
  151.3581  134.1874  154.2037 H   0  0  0  0  0  0  0  0  0  0  0  0
  151.4580  136.5914  155.7234 H   0  0  0  0  0  0  0  0  0  0  0  0
  151.7429  136.7052  154.0062 H   0  0  0  0  0  0  0  0  0  0  0  0
  149.5598  138.3026  155.4353 H   0  0  0  0  0  0  0  0  0  0  0  0
  149.6335  137.6042  153.0344 H   0  0  0  0  0  0  0  0  0  0  0  0
  152.3275  138.8888  155.3930 H   0  0  0  0  0  0  0  0  0  0  0  0
  151.6738  139.8262  154.0791 H   0  0  0  0  0  0  0  0  0  0  0  0
  148.3436  140.0715  154.6650 H   0  0  0  0  0  0  0  0  0  0  0  0
  148.1082  141.8031  154.7305 H   0  0  0  0  0  0  0  0  0  0  0  0
  149.1597  140.5444  152.8020 H   0  0  0  0  0  0  0  0  0  0  0  0
  150.3541  143.0275  159.3555 H   0  0  0  0  0  0  0  0  0  0  0  0
  152.3723  142.2583  160.5815 H   0  0  0  0  0  0  0  0  0  0  0  0
  153.8210  140.4783  159.6266 H   0  0  0  0  0  0  0  0  0  0  0  0
  153.2547  139.4545  157.4275 H   0  0  0  0  0  0  0  0  0  0  0  0
  148.9027  135.9196  156.3786 H   0  0  0  0  0  0  0  0  0  0  0  0
  148.2775  136.9350  155.0953 H   0  0  0  0  0  0  0  0  0  0  0  0
  147.3803  134.9682  153.8904 H   0  0  0  0  0  0  0  0  0  0  0  0
  145.8957  135.9882  155.6067 H   0  0  0  0  0  0  0  0  0  0  0  0
  146.5685  134.9204  156.8373 H   0  0  0  0  0  0  0  0  0  0  0  0
  145.6397  134.2494  155.4990 H   0  0  0  0  0  0  0  0  0  0  0  0
  149.7049  135.7659  153.5651 H   0  0  0  0  0  0  0  0  0  0  0  0
  1  2  1  0  0  0  0
  1 24  1  0  0  0  0
  1 25  1  0  0  0  0
  1 26  1  0  0  0  0
  2 23  1  0  0  0  0
  2  3  1  0  0  0  0
  2 27  1  0  0  0  0
  3  4  1  0  0  0  0
  3 28  1  0  0  0  0
  3 29  1  0  0  0  0
  4  5  1  0  0  0  0
  4 20  1  0  0  0  0
  4 49  1  0  0  0  0
  5  6  1  0  0  0  0
  5 30  1  0  0  0  0
  5 31  1  0  0  0  0
  6  7  1  0  0  0  0
  6  8  1  0  0  0  0
  6 32  1  0  0  0  0
  7 33  1  0  0  0  0
  8  9  1  0  0  0  0
  8 34  1  0  0  0  0
  8 35  1  0  0  0  0
  9 19  1  0  0  0  0
  9 10  1  0  0  0  0
 10 11  1  0  0  0  0
 10 13  2  0  0  0  0
 11 12  1  0  0  0  0
 11 36  1  0  0  0  0
 11 37  1  0  0  0  0
 12 38  1  0  0  0  0
 13 14  1  0  0  0  0
 14 19  2  0  0  0  0
 14 15  1  0  0  0  0
 15 16  2  0  0  0  0
 15 39  1  0  0  0  0
 16 17  1  0  0  0  0
 16 40  1  0  0  0  0
 17 18  2  0  0  0  0
 17 41  1  0  0  0  0
 18 19  1  0  0  0  0
 18 42  1  0  0  0  0
 20 21  1  0  0  0  0
 20 43  1  0  0  0  0
 20 44  1  0  0  0  0
 21 22  1  0  0  0  0
 21 23  1  0  0  0  0
 21 45  1  0  0  0  0
 22 46  1  0  0  0  0
 22 47  1  0  0  0  0
 22 48  1  0  0  0  0
M  CHG  1   4   1
M  END
> <s_m_source_file>
AV-unprocessed.smi

> <i_m_source_file_index>
1703

> <i_lp_mmshare_version>
43012

> <i_f3d_flags>
0

> <s_epik_input>
W0NIM11bQ0BASF0xW0NIMl1OKFtDSDJdW0NASF0oTzEpW0NIM10pW0NIMl1bQ0BIXShbT0hdKVtDSDJdbihjKG4yKVtDSDJdW09IXSljKGMyMylbY0hdW2NIXVtjSF1bY0hdMw==

> <s_epik_cmdline>
J2VwaWtfcHl0aG9uJywgJy1waCcsICc3LjAnLCAnLXRuJywgJzgnLCAnLW1hJywgJzIwMCcsICctbWV0YWxfYmluZGluZycsICctaW1hZScsICc8aW5maWxlLm1hZT4nLCAnLW9tYWUnLCAnPG91dGZpbGUubWFlPic=

> <r_epik_Ionization_Penalty>
0.655661

> <r_epik_Ionization_Penalty_Charging>
0.608065

> <r_epik_Ionization_Penalty_Neutral>
0.0475963

> <r_epik_State_Penalty>
0.695267

> <r_epik_Charging_Adjusted_Penalty>
1.30333

> <i_epik_Tot_Q>
1

> <i_epik_Tot_abs_Q>
1

> <r_epik_Metal_State_Penalty>
0.653591

> <b_epik_Metal_Only>
0

> <s_lp_Force_Field>
OPLS_2005

> <r_lp_Energy>
25.3139

> <b_lp_Chiralities_Consistent>
1

> <s_lp_Variant>
AV-unprocessed.smi:1703-12

> <Gold.Version>
5.8.1

> <Gold.Id.Protein>
6NUR|6NUR_protein|mol2

> <Gold.PLP.Fitness>
53.1153

> <Gold.PLP.PLP>
-40.3434

> <Gold.PLP.part.hbond>
-5.7703

> <Gold.PLP.part.metal>
0.0000

> <Gold.PLP.part.buried>
-4.3949

> <Gold.PLP.part.nonpolar>
-30.9707

> <Gold.PLP.part.repulsive>
0.8949

> <Gold.PLP.ligand.clash>
0.0000

> <Gold.PLP.ligand.torsion>
0.7811

> <Gold.PLP.Chemscore.Hbond>
4.7382

> <Gold.PLP.Chemscore.CHOScore>
0.0000

> <Gold.PLP.Chemscore.Metal>
0.0000

> <Gold.Chemscore.Hbonds>
donor molecule, donor type, donor heavy atom, donor atom, acceptor molecule, acceptor atom, score
      L1  H     4    49       P1  7948  1.60
      L1  H     7    33       P1  7948  1.00
      L1  H    12    38       P1  7957  0.66
      P1  H  7989  7998       L1    12  0.16
      P1  H  8011  8017       L1    12  0.85

> <Gold.PLP.Chemscore.Internal.Correction>
0.1194

> <Gold.Rescore>
     Score         DG    S(hbond)    S(metal)    S(lipo)     H(rot)  DE(clash)    DE(int)     intcor
     14.10     -16.51       2.38        0.00      91.01       2.96       0.30       2.10       ----

> <Gold.Chemscore.Fitness>
14.1048

> <Gold.Chemscore.DG>
-16.5057

> <Gold.Chemscore.ZeroCoef>
-5.4800

> <Gold.Chemscore.Hbond>
2.3827

> <Gold.Chemscore.Metal>
0.0000

> <Gold.Chemscore.Lipo>
91.0059

> <Gold.Chemscore.Internal_Hbond>
0.0000

> <Gold.Chemscore.DEClash>
0.3010

> <Gold.Chemscore.DEInternal>
2.0999

> <Gold.Chemscore.Rot>
2.9611

> <Gold.Chemscore.Internal.Correction>
   9.000000E+99

> <Gold.Chemscore.Hbonds>
donor molecule, donor type, donor heavy atom, donor atom, acceptor molecule, acceptor atom, score
      L1  H     4    49       P1  7948  0.12
      L1  H     7    33       P1  7948  0.70
      L1  H    12    38       P1  7957  0.66
      P1  H  7989  7998       L1    12  0.12
      P1  H  8011  8017       L1    12  0.14

> <Gold.Chemscore.Hbond.Weighted>
-7.9584

> <Gold.Chemscore.Metal.Weighted>
-0.0000

> <Gold.Chemscore.Lipo.Weighted>
-10.6477

> <Gold.Chemscore.Internal_Hbond.Weighted>
0.0000

> <Gold.Chemscore.DEClash.Weighted>
0.3010

> <Gold.Chemscore.DEInternal.Weighted>
2.0999

> <Gold.Chemscore.Rot.Weighted>
7.5803

> <Gold.Chemscore.Internal.Correction.Weighted>
   9.000000E+99

> <Gold.Protein.RotatedTorsions>
[ 6907 6896 6895 6894 ] final  128.35 input  -60.11 | X-H torsion
[ 7974 7965 7964 7962 ] final -110.61 input  175.53 | X-H torsion
[ 8008 7997 7996 7995 ] final  179.65 input   59.86 | X-H torsion
[ 10167 10162 10161 10158 ] final   81.88 input  -65.29 | X-H torsion
[ 10718 10713 10712 10709 ] final -173.25 input   66.30 | X-H torsion
[ 10763 10752 10751 10750 ] final  -72.13 input  -60.55 | X-H torsion
[ 11005 11000 10999 10996 ] final   18.30 input  -57.11 | X-H torsion

> <Gold.Protein.ActiveResidues>
 VAL166  LYS551  ARG553  GLY616  TRP617  ASP618  TYR619  PRO620  LYS621  CYS622 
 ASP623  PHE694  ASN695  SER759  ASP760  ASP761  ALA762  ILE779  LEU786  VAL792 
 PHE793  MET794  SER795  GLU796  ALA797  LYS798  CYS799  TRP800  GLU811  SER814 

> <Gold.Protein.RotatedAtoms>
  152.3727  133.6440  159.6099 H   0  0  0  0  0  0  0  0  0  0  0  0  # atno 6907 bound_to 6896
  150.7681  133.9244  159.3416 H   0  0  0  0  0  0  0  0  0  0  0  0  # atno 6908 bound_to 6896
  151.7064  135.0922  160.0311 H   0  0  0  0  0  0  0  0  0  0  0  0  # atno 6909 bound_to 6896
  145.1661  140.8902  143.3562 H   0  0  0  0  0  0  0  0  0  0  0  0  # atno 7974 bound_to 7965
  156.0410  140.1303  157.0156 H   0  0  0  0  0  0  0  0  0  0  0  0  # atno 8008 bound_to 7997
  154.4391  140.1030  156.6307 H   0  0  0  0  0  0  0  0  0  0  0  0  # atno 8009 bound_to 7997
  155.5667  140.3466  155.4507 H   0  0  0  0  0  0  0  0  0  0  0  0  # atno 8010 bound_to 7997
  139.9346  144.6129  150.8311 H   0  0  0  0  0  0  0  0  0  0  0  0  # atno 10167 bound_to 10162
  156.7675  130.9436  151.3119 H   0  0  0  0  0  0  0  0  0  0  0  0  # atno 10718 bound_to 10713
  154.4414  135.5940  153.6132 H   0  0  0  0  0  0  0  0  0  0  0  0  # atno 10763 bound_to 10752
  152.9806  135.5999  154.3718 H   0  0  0  0  0  0  0  0  0  0  0  0  # atno 10764 bound_to 10752
  154.3568  135.2841  155.2320 H   0  0  0  0  0  0  0  0  0  0  0  0  # atno 10765 bound_to 10752
  140.4263  134.1466  155.7677 H   0  0  0  0  0  0  0  0  0  0  0  0  # atno 11005 bound_to 11000
  145.0281  139.3365  143.6038 LP  0  0  0  0  0  0  0  0  0  0  0  0  # atno 17320 bound_to 7965
  146.3475  139.9607  142.8717 LP  0  0  0  0  0  0  0  0  0  0  0  0  # atno 17321 bound_to 7965
  140.7628  143.3207  151.2630 LP  0  0  0  0  0  0  0  0  0  0  0  0  # atno 17342 bound_to 10162
  139.6754  143.9947  152.2778 LP  0  0  0  0  0  0  0  0  0  0  0  0  # atno 17343 bound_to 10162
  157.6706  130.9048  150.0032 LP  0  0  0  0  0  0  0  0  0  0  0  0  # atno 17370 bound_to 10713
  156.1299  130.3643  149.9748 LP  0  0  0  0  0  0  0  0  0  0  0  0  # atno 17371 bound_to 10713
  141.1763  133.8506  157.1408 LP  0  0  0  0  0  0  0  0  0  0  0  0  # atno 17394 bound_to 11000
  140.0165  134.9965  157.0503 LP  0  0  0  0  0  0  0  0  0  0  0  0  # atno 17395 bound_to 11000

$$$$
