AV-unprocessed.smi:1111|AV-procd|sdf|4794|dock6
  -GOLD-   22720 3343D 1   1.00000     0.00000
 Structure written by MMmdl.
 33 34  0  0  0  0  0  0  0  0  2 V2000
  149.9430  141.1361  155.9803 C   0  0  0  0  0  0  0  0  0  0  0  0
  151.0573  140.4165  156.7697 C   0  0  1  0  0  0  0  0  0  0  0  0
  151.8992  141.3906  157.4781 N   0  0  0  0  0  0  0  0  0  0  0  0
  151.5396  142.2626  158.4365 C   0  0  0  0  0  0  0  0  0  0  0  0
  150.4001  142.3585  158.8898 O   0  0  0  0  0  0  0  0  0  0  0  0
  152.6453  143.1708  158.9741 C   0  0  0  0  0  0  0  0  0  0  0  0
  152.6681  143.1677  160.4395 N   0  0  0  0  0  0  0  0  0  0  0  0
  153.1970  142.2054  161.2616 C   0  0  0  0  0  0  0  0  0  0  0  0
  152.9838  142.6299  162.5478 C   0  0  0  0  0  0  0  0  0  0  0  0
  152.3324  143.8310  162.4570 N   0  3  0  0  0  0  0  0  0  0  0  0
  152.1405  144.1561  161.1744 C   0  0  0  0  0  0  0  0  0  0  0  0
  150.4304  139.4901  157.8394 C   0  0  0  0  0  0  0  0  0  0  0  0
  151.4843  138.4988  158.3492 C   0  0  0  0  0  0  0  0  0  0  0  0
  152.5942  138.1812  156.9296 S   0  0  0  0  0  0  0  0  0  0  0  0
  153.9699  138.5295  157.3162 O   0  0  0  0  0  0  0  0  0  0  0  0
  152.2805  136.8716  156.3388 O   0  0  0  0  0  0  0  0  0  0  0  0
  151.9096  139.5027  155.8587 C   0  0  0  0  0  0  0  0  0  0  0  0
  149.2536  140.4212  155.5299 H   0  0  0  0  0  0  0  0  0  0  0  0
  150.3428  141.7438  155.1688 H   0  0  0  0  0  0  0  0  0  0  0  0
  149.3580  141.7896  156.6282 H   0  0  0  0  0  0  0  0  0  0  0  0
  152.8669  141.4117  157.1905 H   0  0  0  0  0  0  0  0  0  0  0  0
  153.6228  142.8478  158.6121 H   0  0  0  0  0  0  0  0  0  0  0  0
  152.4929  144.1951  158.6304 H   0  0  0  0  0  0  0  0  0  0  0  0
  153.6737  141.3138  160.8804 H   0  0  0  0  0  0  0  0  0  0  0  0
  153.2398  142.1792  163.4957 H   0  0  0  0  0  0  0  0  0  0  0  0
  151.6534  145.0411  160.8048 H   0  0  0  0  0  0  0  0  0  0  0  0
  149.9815  140.0510  158.6602 H   0  0  0  0  0  0  0  0  0  0  0  0
  149.6230  138.9154  157.3828 H   0  0  0  0  0  0  0  0  0  0  0  0
  152.0784  138.9367  159.1514 H   0  0  0  0  0  0  0  0  0  0  0  0
  151.0518  137.5642  158.7065 H   0  0  0  0  0  0  0  0  0  0  0  0
  151.2815  139.0151  155.1126 H   0  0  0  0  0  0  0  0  0  0  0  0
  152.7157  140.0084  155.3279 H   0  0  0  0  0  0  0  0  0  0  0  0
  152.0372  144.3939  163.2450 H   0  0  0  0  0  0  0  0  0  0  0  0
  1  2  1  0  0  0  0
  1 18  1  0  0  0  0
  1 19  1  0  0  0  0
  1 20  1  0  0  0  0
  2 17  1  0  0  0  0
  2  3  1  0  0  0  0
  2 12  1  0  0  0  0
  3  4  1  0  0  0  0
  3 21  1  0  0  0  0
  4  5  2  0  0  0  0
  4  6  1  0  0  0  0
  6  7  1  0  0  0  0
  6 22  1  0  0  0  0
  6 23  1  0  0  0  0
  7 11  1  0  0  0  0
  7  8  1  0  0  0  0
  8  9  2  0  0  0  0
  8 24  1  0  0  0  0
  9 10  1  0  0  0  0
  9 25  1  0  0  0  0
 10 11  2  0  0  0  0
 10 33  1  0  0  0  0
 11 26  1  0  0  0  0
 12 13  1  0  0  0  0
 12 27  1  0  0  0  0
 12 28  1  0  0  0  0
 13 14  1  0  0  0  0
 13 29  1  0  0  0  0
 13 30  1  0  0  0  0
 14 15  2  0  0  0  0
 14 16  2  0  0  0  0
 14 17  1  0  0  0  0
 17 31  1  0  0  0  0
 17 32  1  0  0  0  0
M  CHG  1  10   1
M  END
> <s_m_source_file>
AV-unprocessed.smi

> <i_m_source_file_index>
1111

> <i_lp_mmshare_version>
43012

> <i_f3d_flags>
0

> <s_epik_input>
Tz1TKD1PKShbQ0gyXTEpW0NIMl1bQ0gyXVtDQEBdMShbQ0gzXSlbTkhdQyg9TylbQ0gyXW4yW2NIXVtjSF1uW2NIXTI=

> <s_epik_cmdline>
J2VwaWtfcHl0aG9uJywgJy1waCcsICc3LjAnLCAnLXRuJywgJzgnLCAnLW1hJywgJzIwMCcsICctbWV0YWxfYmluZGluZycsICctaW1hZScsICc8aW5maWxlLm1hZT4nLCAnLW9tYWUnLCAnPG91dGZpbGUubWFlPic=

> <r_lp_tautomer_probability>
1

> <r_epik_Ionization_Penalty>
0.638881

> <r_epik_Ionization_Penalty_Charging>
0

> <r_epik_Ionization_Penalty_Neutral>
0.638881

> <r_epik_State_Penalty>
0.656385

> <r_epik_Charging_Adjusted_Penalty>
0.656385

> <i_epik_Tot_Q>
1

> <i_epik_Tot_abs_Q>
1

> <r_epik_Metal_State_Penalty>
0.832701

> <b_epik_Metal_Only>
0

> <s_lp_Force_Field>
OPLS_2005

> <r_lp_Energy>
7.94824

> <b_lp_Chiralities_Consistent>
1

> <s_lp_Variant>
AV-unprocessed.smi:1111-3

> <Gold.Version>
5.8.1

> <Gold.Id.Protein>
6NUR|6NUR_protein|mol2

> <Gold.PLP.Fitness>
41.8664

> <Gold.PLP.PLP>
-37.2361

> <Gold.PLP.part.hbond>
-3.1106

> <Gold.PLP.part.metal>
0.0000

> <Gold.PLP.part.buried>
-4.5734

> <Gold.PLP.part.nonpolar>
-28.7317

> <Gold.PLP.part.repulsive>
0.2263

> <Gold.PLP.ligand.clash>
0.0000

> <Gold.PLP.ligand.torsion>
0.3933

> <Gold.PLP.Chemscore.Hbond>
1.8000

> <Gold.PLP.Chemscore.CHOScore>
0.0000

> <Gold.PLP.Chemscore.Metal>
0.0000

> <Gold.Chemscore.Hbonds>
donor molecule, donor type, donor heavy atom, donor atom, acceptor molecule, acceptor atom, score
      P1  H  7997  8008       L1    15  0.85
      P1  H 10752 10765       L1    16  0.88

> <Gold.PLP.Chemscore.Internal.Correction>
0.0169

> <Gold.Rescore>
     Score         DG    S(hbond)    S(metal)    S(lipo)     H(rot)  DE(clash)    DE(int)     intcor
     13.08     -13.34       1.69        0.00      57.96       1.78       0.01       0.25       ----

> <Gold.Chemscore.Fitness>
13.0844

> <Gold.Chemscore.DG>
-13.3421

> <Gold.Chemscore.ZeroCoef>
-5.4800

> <Gold.Chemscore.Hbond>
1.6868

> <Gold.Chemscore.Metal>
0.0000

> <Gold.Chemscore.Lipo>
57.9641

> <Gold.Chemscore.Internal_Hbond>
0.0000

> <Gold.Chemscore.DEClash>
0.0126

> <Gold.Chemscore.DEInternal>
0.2450

> <Gold.Chemscore.Rot>
1.7787

> <Gold.Chemscore.Internal.Correction>
   9.000000E+99

> <Gold.Chemscore.Hbonds>
donor molecule, donor type, donor heavy atom, donor atom, acceptor molecule, acceptor atom, score
      P1  H  7997  8008       L1    15  0.84
      P1  H 10752 10765       L1    16  0.83

> <Gold.Chemscore.Hbond.Weighted>
-5.6338

> <Gold.Chemscore.Metal.Weighted>
-0.0000

> <Gold.Chemscore.Lipo.Weighted>
-6.7818

> <Gold.Chemscore.Internal_Hbond.Weighted>
0.0000

> <Gold.Chemscore.DEClash.Weighted>
0.0126

> <Gold.Chemscore.DEInternal.Weighted>
0.2450

> <Gold.Chemscore.Rot.Weighted>
4.5536

> <Gold.Chemscore.Internal.Correction.Weighted>
   9.000000E+99

> <Gold.Protein.RotatedTorsions>
[ 6907 6896 6895 6894 ] final -150.76 input  -60.11 | X-H torsion
[ 7974 7965 7964 7962 ] final   66.50 input  175.53 | X-H torsion
[ 8008 7997 7996 7995 ] final  -84.78 input   59.86 | X-H torsion
[ 10167 10162 10161 10158 ] final -101.09 input  -65.29 | X-H torsion
[ 10718 10713 10712 10709 ] final -121.40 input   66.30 | X-H torsion
[ 10763 10752 10751 10750 ] final -144.12 input  -60.55 | X-H torsion
[ 11005 11000 10999 10996 ] final   36.28 input  -57.11 | X-H torsion

> <Gold.Protein.ActiveResidues>
 VAL166  LYS551  ARG553  GLY616  TRP617  ASP618  TYR619  PRO620  LYS621  CYS622 
 ASP623  PHE694  ASN695  SER759  ASP760  ASP761  ALA762  ILE779  LEU786  VAL792 
 PHE793  MET794  SER795  GLU796  ALA797  LYS798  CYS799  TRP800  GLU811  SER814 

> <Gold.Protein.RotatedAtoms>
  151.2032  133.4598  159.2596 H   0  0  0  0  0  0  0  0  0  0  0  0  # atno 6907 bound_to 6896
  151.1048  134.9993  159.8476 H   0  0  0  0  0  0  0  0  0  0  0  0  # atno 6908 bound_to 6896
  152.5446  134.1956  159.8744 H   0  0  0  0  0  0  0  0  0  0  0  0  # atno 6909 bound_to 6896
  145.8258  139.3111  143.1016 H   0  0  0  0  0  0  0  0  0  0  0  0  # atno 7974 bound_to 7965
  154.6336  140.0600  156.9761 H   0  0  0  0  0  0  0  0  0  0  0  0  # atno 8008 bound_to 7997
  155.1627  140.3284  155.4389 H   0  0  0  0  0  0  0  0  0  0  0  0  # atno 8009 bound_to 7997
  156.2495  140.1928  156.6734 H   0  0  0  0  0  0  0  0  0  0  0  0  # atno 8010 bound_to 7997
  140.2450  143.3512  152.0767 H   0  0  0  0  0  0  0  0  0  0  0  0  # atno 10167 bound_to 10162
  156.1334  130.6412  150.9658 H   0  0  0  0  0  0  0  0  0  0  0  0  # atno 10718 bound_to 10713
  154.8442  135.3449  154.6295 H   0  0  0  0  0  0  0  0  0  0  0  0  # atno 10763 bound_to 10752
  153.6904  135.6975  153.5096 H   0  0  0  0  0  0  0  0  0  0  0  0  # atno 10764 bound_to 10752
  153.2599  135.4326  155.0839 H   0  0  0  0  0  0  0  0  0  0  0  0  # atno 10765 bound_to 10752
  140.2341  134.3492  155.7952 H   0  0  0  0  0  0  0  0  0  0  0  0  # atno 11005 bound_to 11000
  145.9625  140.8824  143.0204 LP  0  0  0  0  0  0  0  0  0  0  0  0  # atno 17320 bound_to 7965
  144.6743  140.1832  143.7404 LP  0  0  0  0  0  0  0  0  0  0  0  0  # atno 17321 bound_to 7965
  139.5065  144.6814  151.5999 LP  0  0  0  0  0  0  0  0  0  0  0  0  # atno 17342 bound_to 10162
  140.6084  143.9481  150.6435 LP  0  0  0  0  0  0  0  0  0  0  0  0  # atno 17343 bound_to 10162
  157.6510  131.0897  150.8052 LP  0  0  0  0  0  0  0  0  0  0  0  0  # atno 17370 bound_to 10713
  156.8134  130.4960  149.5353 LP  0  0  0  0  0  0  0  0  0  0  0  0  # atno 17371 bound_to 10713
  141.2215  133.7262  156.8779 LP  0  0  0  0  0  0  0  0  0  0  0  0  # atno 17394 bound_to 11000
  140.1720  134.9093  157.2845 LP  0  0  0  0  0  0  0  0  0  0  0  0  # atno 17395 bound_to 11000

$$$$
