AV-unprocessed.smi:1041|AV-procd|sdf|4531|dock3
  -GOLD-   22720 2553D 1   1.00000     0.00000
 Structure written by MMmdl.
 53 54  0  0  0  0  0  0  0  0  2 V2000
  145.4121  131.8271  149.9499 C   0  0  0  0  0  0  0  0  0  0  0  0
  144.5442  132.9361  149.7922 O   0  0  0  0  0  0  0  0  0  0  0  0
  144.7912  133.9598  150.7416 C   0  0  0  0  0  0  0  0  0  0  0  0
  144.1258  135.2580  150.2588 C   0  0  0  0  0  0  0  0  0  0  0  0
  144.5420  136.4438  151.0503 N   0  3  2  0  0  0  0  0  0  0  0  0
  146.0119  136.6583  151.0015 C   0  0  0  0  0  0  0  0  0  0  0  0
  146.4200  137.9530  151.7300 C   0  0  0  0  0  0  0  0  0  0  0  0
  145.9162  137.9879  153.1846 C   0  0  2  0  0  0  0  0  0  0  0  0
  146.7263  137.0435  154.1042 C   0  0  0  0  0  0  0  0  0  0  0  0
  148.0898  137.5217  154.3040 N   0  0  0  0  0  0  0  0  0  0  0  0
  148.4922  138.3415  155.2876 C   0  0  0  0  0  0  0  0  0  0  0  0
  147.7583  138.7297  156.1960 O   0  0  0  0  0  0  0  0  0  0  0  0
  149.9353  138.8363  155.2037 C   0  0  0  0  0  0  0  0  0  0  0  0
  150.2064  140.1224  155.9807 C   0  0  0  0  0  0  0  0  0  0  0  0
  149.6871  141.3265  155.6297 C   0  0  0  0  0  0  0  0  0  0  0  0
  148.7659  141.5525  154.4437 C   0  0  0  0  0  0  0  0  0  0  0  0
  149.9762  142.4690  156.3552 N   0  0  0  0  0  0  0  0  0  0  0  0
  150.8223  142.3491  157.4452 C   0  0  0  0  0  0  0  0  0  0  0  0
  151.0776  143.6560  158.1644 C   0  0  0  0  0  0  0  0  0  0  0  0
  151.3703  141.2461  157.8558 N   0  0  0  0  0  0  0  0  0  0  0  0
  151.1038  140.0570  157.1585 C   0  0  0  0  0  0  0  0  0  0  0  0
  151.6148  138.9972  157.5183 O   0  0  0  0  0  0  0  0  0  0  0  0
  144.3948  137.7292  153.1818 C   0  0  0  0  0  0  0  0  0  0  0  0
  144.0346  136.4269  152.4480 C   0  0  0  0  0  0  0  0  0  0  0  0
  149.5630  143.3434  156.0644 H   0  0  0  0  0  0  0  0  0  0  0  0
  145.1869  131.0752  149.1937 H   0  0  0  0  0  0  0  0  0  0  0  0
  145.2879  131.3657  150.9306 H   0  0  0  0  0  0  0  0  0  0  0  0
  146.4555  132.1216  149.8308 H   0  0  0  0  0  0  0  0  0  0  0  0
  144.4351  133.6661  151.7291 H   0  0  0  0  0  0  0  0  0  0  0  0
  145.8671  134.1199  150.8282 H   0  0  0  0  0  0  0  0  0  0  0  0
  144.3441  135.4286  149.2037 H   0  0  0  0  0  0  0  0  0  0  0  0
  143.0450  135.1275  150.3307 H   0  0  0  0  0  0  0  0  0  0  0  0
  146.5217  135.7961  151.4327 H   0  0  0  0  0  0  0  0  0  0  0  0
  146.3355  136.7227  149.9619 H   0  0  0  0  0  0  0  0  0  0  0  0
  147.5036  138.0730  151.7012 H   0  0  0  0  0  0  0  0  0  0  0  0
  146.0087  138.8065  151.1890 H   0  0  0  0  0  0  0  0  0  0  0  0
  146.0732  138.9998  153.5614 H   0  0  0  0  0  0  0  0  0  0  0  0
  146.2214  136.8955  155.0590 H   0  0  0  0  0  0  0  0  0  0  0  0
  146.7900  136.0559  153.6462 H   0  0  0  0  0  0  0  0  0  0  0  0
  148.7690  137.2592  153.6040 H   0  0  0  0  0  0  0  0  0  0  0  0
  150.5835  138.0410  155.5714 H   0  0  0  0  0  0  0  0  0  0  0  0
  150.2231  138.9633  154.1588 H   0  0  0  0  0  0  0  0  0  0  0  0
  147.8417  140.9874  154.5661 H   0  0  0  0  0  0  0  0  0  0  0  0
  149.2471  141.2337  153.5192 H   0  0  0  0  0  0  0  0  0  0  0  0
  148.5013  142.6052  154.3354 H   0  0  0  0  0  0  0  0  0  0  0  0
  151.9068  143.5588  158.8661 H   0  0  0  0  0  0  0  0  0  0  0  0
  150.1913  143.9593  158.7222 H   0  0  0  0  0  0  0  0  0  0  0  0
  151.3265  144.4443  157.4530 H   0  0  0  0  0  0  0  0  0  0  0  0
  143.9946  137.7129  154.1954 H   0  0  0  0  0  0  0  0  0  0  0  0
  143.8943  138.5619  152.6857 H   0  0  0  0  0  0  0  0  0  0  0  0
  142.9517  136.3136  152.4572 H   0  0  0  0  0  0  0  0  0  0  0  0
  144.4421  135.5651  152.9779 H   0  0  0  0  0  0  0  0  0  0  0  0
  144.1280  137.2463  150.5970 H   0  0  0  0  0  0  0  0  0  0  0  0
  1  2  1  0  0  0  0
  1 26  1  0  0  0  0
  1 27  1  0  0  0  0
  1 28  1  0  0  0  0
  2  3  1  0  0  0  0
  3  4  1  0  0  0  0
  3 29  1  0  0  0  0
  3 30  1  0  0  0  0
  4  5  1  0  0  0  0
  4 31  1  0  0  0  0
  4 32  1  0  0  0  0
  5 24  1  0  0  0  0
  5  6  1  0  0  0  0
  5 53  1  0  0  0  0
  6  7  1  0  0  0  0
  6 33  1  0  0  0  0
  6 34  1  0  0  0  0
  7  8  1  0  0  0  0
  7 35  1  0  0  0  0
  7 36  1  0  0  0  0
  8  9  1  0  0  0  0
  8 23  1  0  0  0  0
  8 37  1  0  0  0  0
  9 10  1  0  0  0  0
  9 38  1  0  0  0  0
  9 39  1  0  0  0  0
 10 11  1  0  0  0  0
 10 40  1  0  0  0  0
 11 12  2  0  0  0  0
 11 13  1  0  0  0  0
 13 41  1  0  0  0  0
 13 42  1  0  0  0  0
 13 14  1  0  0  0  0
 14 21  1  0  0  0  0
 14 15  2  0  0  0  0
 15 16  1  0  0  0  0
 15 17  1  0  0  0  0
 16 43  1  0  0  0  0
 16 44  1  0  0  0  0
 16 45  1  0  0  0  0
 17 25  1  0  0  0  0
 17 18  1  0  0  0  0
 18 19  1  0  0  0  0
 18 20  2  0  0  0  0
 19 46  1  0  0  0  0
 19 47  1  0  0  0  0
 19 48  1  0  0  0  0
 20 21  1  0  0  0  0
 21 22  2  0  0  0  0
 23 24  1  0  0  0  0
 23 49  1  0  0  0  0
 23 50  1  0  0  0  0
 24 51  1  0  0  0  0
 24 52  1  0  0  0  0
M  CHG  1   5   1
M  END
> <s_m_source_file>
AV-unprocessed.smi

> <i_m_source_file_index>
1041

> <i_lp_mmshare_version>
43012

> <i_f3d_flags>
0

> <s_epik_input>
W0NIM11PW0NIMl1bQ0gyXU4xW0NIMl1bQ0gyXVtDSF0oW0NIMl1bQ0gyXTEpW0NIMl1bTkhdQyg9TylbQ0gyXWMyYyhbQ0gzXSluYyhbQ0gzXSlbbkhdYzI9Tw==

> <s_epik_cmdline>
J2VwaWtfcHl0aG9uJywgJy1waCcsICc3LjAnLCAnLXRuJywgJzgnLCAnLW1hJywgJzIwMCcsICctbWV0YWxfYmluZGluZycsICctaW1hZScsICc8aW5maWxlLm1hZT4nLCAnLW9tYWUnLCAnPG91dGZpbGUubWFlPic=

> <r_lp_tautomer_probability>
0.156392

> <r_epik_Ionization_Penalty>
0.0240251

> <r_epik_Ionization_Penalty_Charging>
0.0239146

> <r_epik_Ionization_Penalty_Neutral>
0.000110474

> <r_epik_State_Penalty>
1.15942

> <r_epik_Charging_Adjusted_Penalty>
1.18333

> <i_epik_Tot_Q>
1

> <i_epik_Tot_abs_Q>
1

> <r_epik_Metal_State_Penalty>
1.33297

> <b_epik_Metal_Only>
0

> <s_lp_Force_Field>
OPLS_2005

> <r_lp_Energy>
25.6342

> <b_lp_Chiralities_Consistent>
1

> <s_lp_Variant>
AV-unprocessed.smi:1041-4

> <Gold.Version>
5.8.1

> <Gold.Id.Protein>
6NUR|6NUR_protein|mol2

> <Gold.PLP.Fitness>
44.4670

> <Gold.PLP.PLP>
-37.7530

> <Gold.PLP.part.hbond>
-3.0000

> <Gold.PLP.part.metal>
0.0000

> <Gold.PLP.part.buried>
2.0205

> <Gold.PLP.part.nonpolar>
-38.1775

> <Gold.PLP.part.repulsive>
0.9573

> <Gold.PLP.ligand.clash>
0.0000

> <Gold.PLP.ligand.torsion>
0.7113

> <Gold.PLP.Chemscore.Hbond>
2.6480

> <Gold.PLP.Chemscore.CHOScore>
0.0000

> <Gold.PLP.Chemscore.Metal>
0.0000

> <Gold.Chemscore.Hbonds>
donor molecule, donor type, donor heavy atom, donor atom, acceptor molecule, acceptor atom, score
      L1  H     5    53       P1 10171  1.00
      L1  H    10    40       P1  7948  0.86
      L1  H    17    25       P1  8028  1.00

> <Gold.PLP.Chemscore.Internal.Correction>
0.1926

> <Gold.Rescore>
     Score         DG    S(hbond)    S(metal)    S(lipo)     H(rot)  DE(clash)    DE(int)     intcor
     17.59     -19.69       2.70        0.00      97.42       2.43       1.43       0.67       ----

> <Gold.Chemscore.Fitness>
17.5931

> <Gold.Chemscore.DG>
-19.6915

> <Gold.Chemscore.ZeroCoef>
-5.4800

> <Gold.Chemscore.Hbond>
2.7041

> <Gold.Chemscore.Metal>
0.0000

> <Gold.Chemscore.Lipo>
97.4239

> <Gold.Chemscore.Internal_Hbond>
0.0000

> <Gold.Chemscore.DEClash>
1.4304

> <Gold.Chemscore.DEInternal>
0.6679

> <Gold.Chemscore.Rot>
2.4291

> <Gold.Chemscore.Internal.Correction>
   9.000000E+99

> <Gold.Chemscore.Hbonds>
donor molecule, donor type, donor heavy atom, donor atom, acceptor molecule, acceptor atom, score
      L1  H     5    53       P1 10171  0.97
      L1  H    10    40       P1  7948  0.80
      L1  H    17    25       P1  8028  0.98

> <Gold.Chemscore.Hbond.Weighted>
-9.0315

> <Gold.Chemscore.Metal.Weighted>
-0.0000

> <Gold.Chemscore.Lipo.Weighted>
-11.3986

> <Gold.Chemscore.Internal_Hbond.Weighted>
0.0000

> <Gold.Chemscore.DEClash.Weighted>
1.4304

> <Gold.Chemscore.DEInternal.Weighted>
0.6679

> <Gold.Chemscore.Rot.Weighted>
6.2186

> <Gold.Chemscore.Internal.Correction.Weighted>
   9.000000E+99

> <Gold.Protein.RotatedTorsions>
[ 6907 6896 6895 6894 ] final  -23.95 input  -60.11 | X-H torsion
[ 7974 7965 7964 7962 ] final  -53.26 input  175.53 | X-H torsion
[ 8008 7997 7996 7995 ] final    4.88 input   59.86 | X-H torsion
[ 10167 10162 10161 10158 ] final   55.05 input  -65.29 | X-H torsion
[ 10718 10713 10712 10709 ] final -135.84 input   66.30 | X-H torsion
[ 10763 10752 10751 10750 ] final   33.67 input  -60.55 | X-H torsion
[ 11005 11000 10999 10996 ] final   87.39 input  -57.11 | X-H torsion

> <Gold.Protein.ActiveResidues>
 VAL166  LYS551  ARG553  GLY616  TRP617  ASP618  TYR619  PRO620  LYS621  CYS622 
 ASP623  PHE694  ASN695  SER759  ASP760  ASP761  ALA762  ILE779  LEU786  VAL792 
 PHE793  MET794  SER795  GLU796  ALA797  LYS798  CYS799  TRP800  GLU811  SER814 

> <Gold.Protein.RotatedAtoms>
  151.1966  135.0425  159.8854 H   0  0  0  0  0  0  0  0  0  0  0  0  # atno 6907 bound_to 6896
  152.5436  134.0896  159.8281 H   0  0  0  0  0  0  0  0  0  0  0  0  # atno 6908 bound_to 6896
  151.1032  133.5181  159.2641 H   0  0  0  0  0  0  0  0  0  0  0  0  # atno 6909 bound_to 6896
  145.8988  140.8011  142.9754 H   0  0  0  0  0  0  0  0  0  0  0  0  # atno 7974 bound_to 7965
  154.7214  140.2712  155.6538 H   0  0  0  0  0  0  0  0  0  0  0  0  # atno 8008 bound_to 7997
  156.2824  140.2734  156.1811 H   0  0  0  0  0  0  0  0  0  0  0  0  # atno 8009 bound_to 7997
  155.0502  140.0371  157.2531 H   0  0  0  0  0  0  0  0  0  0  0  0  # atno 8010 bound_to 7997
  140.2235  144.3763  150.6441 H   0  0  0  0  0  0  0  0  0  0  0  0  # atno 10167 bound_to 10162
  156.2706  130.7263  151.1229 H   0  0  0  0  0  0  0  0  0  0  0  0  # atno 10718 bound_to 10713
  153.0201  135.6381  154.1547 H   0  0  0  0  0  0  0  0  0  0  0  0  # atno 10763 bound_to 10752
  154.1283  135.2842  155.3193 H   0  0  0  0  0  0  0  0  0  0  0  0  # atno 10764 bound_to 10752
  154.6213  135.5524  153.7640 H   0  0  0  0  0  0  0  0  0  0  0  0  # atno 10765 bound_to 10752
  139.8921  134.8419  156.2854 H   0  0  0  0  0  0  0  0  0  0  0  0  # atno 11005 bound_to 11000
  144.6734  140.1644  143.7419 LP  0  0  0  0  0  0  0  0  0  0  0  0  # atno 17320 bound_to 7965
  145.8817  139.2326  143.1601 LP  0  0  0  0  0  0  0  0  0  0  0  0  # atno 17321 bound_to 7965
  140.6237  143.2179  151.6640 LP  0  0  0  0  0  0  0  0  0  0  0  0  # atno 17342 bound_to 10162
  139.5135  144.3440  152.0714 LP  0  0  0  0  0  0  0  0  0  0  0  0  # atno 17343 bound_to 10162
  157.7282  131.0633  150.5829 LP  0  0  0  0  0  0  0  0  0  0  0  0  # atno 17370 bound_to 10713
  156.5925  130.4333  149.5930 LP  0  0  0  0  0  0  0  0  0  0  0  0  # atno 17371 bound_to 10713
  141.0011  133.7151  156.0962 LP  0  0  0  0  0  0  0  0  0  0  0  0  # atno 17394 bound_to 11000
  140.7496  134.4060  157.5543 LP  0  0  0  0  0  0  0  0  0  0  0  0  # atno 17395 bound_to 11000

$$$$
