AV-unprocessed.smi:3066|AV-procd|sdf|11693|dock10
  -GOLD-   2272017 93D 1   1.00000     0.00000
 Structure written by MMmdl.
 35 36  0  0  0  0  0  0  0  0  1 V2000
  150.9144  132.8199  157.7233 N   0  0  0  0  0  0  0  0  0  0  0  0
  150.7637  131.9928  156.9278 C   0  0  0  0  0  0  0  0  0  0  0  0
  150.5749  130.9542  155.9296 C   0  0  0  0  0  0  0  0  0  0  0  0
  151.5660  130.0654  155.6287 N   0  0  0  0  0  0  0  0  0  0  0  0
  150.9336  129.3582  154.7001 C   0  0  0  0  0  0  0  0  0  0  0  0
  149.6848  129.7718  154.4588 N   0  0  0  0  0  0  0  0  0  0  0  0
  148.6922  129.2766  153.5223 C   0  0  0  0  0  0  0  0  0  0  0  0
  147.4538  130.1732  153.5104 C   0  0  0  0  0  0  0  0  0  0  0  0
  146.7725  130.2942  154.5283 O   0  0  0  0  0  0  0  0  0  0  0  0
  147.1770  130.7929  152.3519 N   0  0  0  0  0  0  0  0  0  0  0  0
  146.0324  131.6654  152.1032 C   0  0  0  0  0  0  0  0  0  0  0  0
  145.1459  130.9966  151.0358 C   0  0  0  0  0  0  0  0  0  0  0  0
  143.8940  131.7931  150.6293 C   0  0  0  0  0  0  0  0  0  0  0  0
  144.2208  132.9961  149.7298 C   0  0  0  0  0  0  0  0  0  0  0  0
  144.5925  134.2931  150.4693 C   0  0  0  0  0  0  0  0  0  0  0  0
  145.4123  134.1390  151.7624 C   0  0  0  0  0  0  0  0  0  0  0  0
  146.5259  133.0790  151.7220 C   0  0  0  0  0  0  0  0  0  0  0  0
  149.4274  130.8305  155.2657 N   0  0  0  0  0  0  0  0  0  0  0  0
  151.3895  128.5271  154.1820 H   0  0  0  0  0  0  0  0  0  0  0  0
  149.1381  129.2397  152.5275 H   0  0  0  0  0  0  0  0  0  0  0  0
  148.4133  128.2558  153.7894 H   0  0  0  0  0  0  0  0  0  0  0  0
  147.7998  130.6316  151.5732 H   0  0  0  0  0  0  0  0  0  0  0  0
  145.4478  131.7350  153.0226 H   0  0  0  0  0  0  0  0  0  0  0  0
  145.7375  130.7728  150.1467 H   0  0  0  0  0  0  0  0  0  0  0  0
  144.8207  130.0288  151.4207 H   0  0  0  0  0  0  0  0  0  0  0  0
  143.2461  131.1211  150.0653 H   0  0  0  0  0  0  0  0  0  0  0  0
  143.3168  132.0979  151.5031 H   0  0  0  0  0  0  0  0  0  0  0  0
  145.0232  132.7260  149.0424 H   0  0  0  0  0  0  0  0  0  0  0  0
  143.3604  133.2083  149.0942 H   0  0  0  0  0  0  0  0  0  0  0  0
  145.1362  134.9349  149.7753 H   0  0  0  0  0  0  0  0  0  0  0  0
  143.6793  134.8370  150.7135 H   0  0  0  0  0  0  0  0  0  0  0  0
  145.8570  135.1085  151.9901 H   0  0  0  0  0  0  0  0  0  0  0  0
  144.7433  133.9305  152.5982 H   0  0  0  0  0  0  0  0  0  0  0  0
  147.2865  133.3826  152.4427 H   0  0  0  0  0  0  0  0  0  0  0  0
  147.0237  133.0742  150.7514 H   0  0  0  0  0  0  0  0  0  0  0  0
  1  2  3  0  0  0  0
  2  3  1  0  0  0  0
  3 18  2  0  0  0  0
  3  4  1  0  0  0  0
  4  5  2  0  0  0  0
  5  6  1  0  0  0  0
  5 19  1  0  0  0  0
  6  7  1  0  0  0  0
  6 18  1  0  0  0  0
  7  8  1  0  0  0  0
  7 20  1  0  0  0  0
  7 21  1  0  0  0  0
  8  9  2  0  0  0  0
  8 10  1  0  0  0  0
 10 11  1  0  0  0  0
 10 22  1  0  0  0  0
 11 17  1  0  0  0  0
 11 12  1  0  0  0  0
 11 23  1  0  0  0  0
 12 13  1  0  0  0  0
 12 24  1  0  0  0  0
 12 25  1  0  0  0  0
 13 14  1  0  0  0  0
 13 26  1  0  0  0  0
 13 27  1  0  0  0  0
 14 15  1  0  0  0  0
 14 28  1  0  0  0  0
 14 29  1  0  0  0  0
 15 16  1  0  0  0  0
 15 30  1  0  0  0  0
 15 31  1  0  0  0  0
 16 17  1  0  0  0  0
 16 32  1  0  0  0  0
 16 33  1  0  0  0  0
 17 34  1  0  0  0  0
 17 35  1  0  0  0  0
M  END
> <s_m_source_file>
AV-unprocessed.smi

> <i_m_source_file_index>
3066

> <i_lp_mmshare_version>
43012

> <i_f3d_flags>
0

> <s_epik_input>
TiNDYzFuW2NIXW4objEpW0NIMl1DKD1PKVtOSF1bQ0hdMltDSDJdW0NIMl1bQ0gyXVtDSDJdW0NIMl1bQ0gyXTI=

> <s_epik_cmdline>
J2VwaWtfcHl0aG9uJywgJy1waCcsICc3LjAnLCAnLXRuJywgJzgnLCAnLW1hJywgJzIwMCcsICctbWV0YWxfYmluZGluZycsICctaW1hZScsICc8aW5maWxlLm1hZT4nLCAnLW9tYWUnLCAnPG91dGZpbGUubWFlPic=

> <r_lp_tautomer_probability>
1

> <r_epik_Ionization_Penalty>
4.79211e-08

> <r_epik_Ionization_Penalty_Charging>
0

> <r_epik_Ionization_Penalty_Neutral>
4.79211e-08

> <r_epik_State_Penalty>
-0

> <r_epik_Charging_Adjusted_Penalty>
0

> <i_epik_Tot_Q>
0

> <i_epik_Tot_abs_Q>
0

> <r_epik_Metal_State_Penalty>
-0

> <b_epik_Metal_Only>
0

> <s_lp_Force_Field>
OPLS_2005

> <r_lp_Energy>
17.6035

> <b_lp_Chiralities_Consistent>
1

> <s_lp_Variant>
AV-unprocessed.smi:3066-1

> <Gold.Version>
5.8.1

> <Gold.Id.Protein>
6NUR|6NUR_protein|mol2

> <Gold.PLP.Fitness>
41.8748

> <Gold.PLP.PLP>
-33.3676

> <Gold.PLP.part.hbond>
-2.0000

> <Gold.PLP.part.metal>
0.0000

> <Gold.PLP.part.buried>
-5.5039

> <Gold.PLP.part.nonpolar>
-26.0459

> <Gold.PLP.part.repulsive>
0.1370

> <Gold.PLP.ligand.clash>
0.0000

> <Gold.PLP.ligand.torsion>
0.0495

> <Gold.PLP.Chemscore.Hbond>
1.8640

> <Gold.PLP.Chemscore.CHOScore>
1.0000

> <Gold.PLP.Chemscore.Metal>
0.0000

> <Gold.Chemscore.Hbonds>
donor molecule, donor type, donor heavy atom, donor atom, acceptor molecule, acceptor atom, score
      L1  H    10    22       P1 10747  1.00
      P1  H  6896  6908       L1     1  1.00
      L1  C     5    19       P1 10737  0.68

> <Gold.PLP.Chemscore.Internal.Correction>
0.0142

> <Gold.Rescore>
     Score         DG    S(hbond)    S(metal)    S(lipo)     H(rot)  DE(clash)    DE(int)     intcor
     12.20     -13.70       1.98        0.00      56.41       1.95       0.00       1.50       ----

> <Gold.Chemscore.Fitness>
12.1974

> <Gold.Chemscore.DG>
-13.6952

> <Gold.Chemscore.ZeroCoef>
-5.4800

> <Gold.Chemscore.Hbond>
1.9761

> <Gold.Chemscore.Metal>
0.0000

> <Gold.Chemscore.Lipo>
56.4124

> <Gold.Chemscore.Internal_Hbond>
0.0000

> <Gold.Chemscore.DEClash>
0.0000

> <Gold.Chemscore.DEInternal>
1.4978

> <Gold.Chemscore.Rot>
1.9474

> <Gold.Chemscore.Internal.Correction>
   9.000000E+99

> <Gold.Chemscore.Hbonds>
donor molecule, donor type, donor heavy atom, donor atom, acceptor molecule, acceptor atom, score
      L1  H    10    22       P1 10747  1.00
      P1  H  6896  6908       L1     1  0.95

> <Gold.Chemscore.Hbond.Weighted>
-6.6002

> <Gold.Chemscore.Metal.Weighted>
-0.0000

> <Gold.Chemscore.Lipo.Weighted>
-6.6003

> <Gold.Chemscore.Internal_Hbond.Weighted>
0.0000

> <Gold.Chemscore.DEClash.Weighted>
0.0000

> <Gold.Chemscore.DEInternal.Weighted>
1.4978

> <Gold.Chemscore.Rot.Weighted>
4.9852

> <Gold.Chemscore.Internal.Correction.Weighted>
   9.000000E+99

> <Gold.Protein.RotatedTorsions>
[ 6907 6896 6895 6894 ] final   74.01 input  -60.11 | X-H torsion
[ 7974 7965 7964 7962 ] final  -82.90 input  175.53 | X-H torsion
[ 8008 7997 7996 7995 ] final   56.28 input   59.86 | X-H torsion
[ 10167 10162 10161 10158 ] final   -1.77 input  -65.29 | X-H torsion
[ 10718 10713 10712 10709 ] final   61.28 input   66.30 | X-H torsion
[ 10763 10752 10751 10750 ] final   45.76 input  -60.55 | X-H torsion
[ 11005 11000 10999 10996 ] final  -17.59 input  -57.11 | X-H torsion

> <Gold.Protein.ActiveResidues>
 VAL166  LYS551  ARG553  GLY616  TRP617  ASP618  TYR619  PRO620  LYS621  CYS622 
 ASP623  PHE694  ASN695  SER759  ASP760  ASP761  ALA762  ILE779  LEU786  VAL792 
 PHE793  MET794  SER795  GLU796  ALA797  LYS798  CYS799  TRP800  GLU811  SER814 

> <Gold.Protein.RotatedAtoms>
  152.4954  134.4335  159.9519 H   0  0  0  0  0  0  0  0  0  0  0  0  # atno 6907 bound_to 6896
  151.4315  133.3663  159.2777 H   0  0  0  0  0  0  0  0  0  0  0  0  # atno 6908 bound_to 6896
  150.9151  134.8592  159.7511 H   0  0  0  0  0  0  0  0  0  0  0  0  # atno 6909 bound_to 6896
  145.5271  140.9525  143.1623 H   0  0  0  0  0  0  0  0  0  0  0  0  # atno 7974 bound_to 7965
  155.5148  140.3478  155.4395 H   0  0  0  0  0  0  0  0  0  0  0  0  # atno 8008 bound_to 7997
  156.0825  140.1390  156.9722 H   0  0  0  0  0  0  0  0  0  0  0  0  # atno 8009 bound_to 7997
  154.4587  140.0943  156.6809 H   0  0  0  0  0  0  0  0  0  0  0  0  # atno 8010 bound_to 7997
  140.6824  143.6735  150.8165 H   0  0  0  0  0  0  0  0  0  0  0  0  # atno 10167 bound_to 10162
  157.5816  130.8986  149.9441 H   0  0  0  0  0  0  0  0  0  0  0  0  # atno 10718 bound_to 10713
  152.9820  135.6029  154.3489 H   0  0  0  0  0  0  0  0  0  0  0  0  # atno 10763 bound_to 10752
  154.3180  135.2770  155.2535 H   0  0  0  0  0  0  0  0  0  0  0  0  # atno 10764 bound_to 10752
  154.4714  135.5940  153.6380 H   0  0  0  0  0  0  0  0  0  0  0  0  # atno 10765 bound_to 10752
  140.8183  133.8087  155.9633 H   0  0  0  0  0  0  0  0  0  0  0  0  # atno 11005 bound_to 11000
  144.7645  139.6877  143.7220 LP  0  0  0  0  0  0  0  0  0  0  0  0  # atno 17320 bound_to 7965
  146.2068  139.5398  142.9707 LP  0  0  0  0  0  0  0  0  0  0  0  0  # atno 17321 bound_to 7965
  140.0437  143.5319  152.2706 LP  0  0  0  0  0  0  0  0  0  0  0  0  # atno 17342 bound_to 10162
  139.6156  144.7618  151.2853 LP  0  0  0  0  0  0  0  0  0  0  0  0  # atno 17343 bound_to 10162
  156.0862  130.3668  150.0482 LP  0  0  0  0  0  0  0  0  0  0  0  0  # atno 17370 bound_to 10713
  156.8621  130.9495  151.3617 LP  0  0  0  0  0  0  0  0  0  0  0  0  # atno 17371 bound_to 10713
  140.9125  134.2242  157.4977 LP  0  0  0  0  0  0  0  0  0  0  0  0  # atno 17394 bound_to 11000
  139.8710  134.9756  156.4891 LP  0  0  0  0  0  0  0  0  0  0  0  0  # atno 17395 bound_to 11000

$$$$
