AV-unprocessed.smi:1737|AV-procd|sdf|6995|dock3
  -GOLD-   22720 8203D 1   1.00000     0.00000
 Structure written by MMmdl.
 43 44  0  0  0  0  0  0  0  0  2 V2000
  151.3974  137.7817  154.3002 C   0  0  0  0  0  0  0  0  0  0  0  0
  150.8278  139.0484  154.9180 C   0  0  0  0  0  0  0  0  0  0  0  0
  151.6296  139.8093  155.7952 C   0  0  0  0  0  0  0  0  0  0  0  0
  151.1025  140.9809  156.3647 C   0  0  0  0  0  0  0  0  0  0  0  0
  149.7867  141.3443  156.0308 C   0  0  0  0  0  0  0  0  0  0  0  0
  149.0133  140.6234  155.1935 N   0  0  0  0  0  0  0  0  0  0  0  0
  149.5074  139.4901  154.6346 C   0  0  0  0  0  0  0  0  0  0  0  0
  148.7459  138.6775  153.7476 N   0  0  0  0  0  0  0  0  0  0  0  0
  147.4791  138.8545  153.3329 C   0  0  0  0  0  0  0  0  0  0  0  0
  146.7526  139.8017  153.6360 O   0  0  0  0  0  0  0  0  0  0  0  0
  147.0850  137.8564  152.5288 N   0  0  0  0  0  0  0  0  0  0  0  0
  145.7647  137.7611  151.9125 C   0  0  0  0  0  0  0  0  0  0  0  0
  145.1783  136.3241  151.9451 C   0  0  2  0  0  0  0  0  0  0  0  0
  143.9802  136.2609  152.9233 C   0  0  0  0  0  0  0  0  0  0  0  0
  146.2584  135.3312  152.2544 N   0  3  0  0  0  0  0  0  0  0  0  0
  146.5553  135.1288  153.6997 C   0  0  0  0  0  0  0  0  0  0  0  0
  147.6977  134.1166  153.8940 C   0  0  0  0  0  0  0  0  0  0  0  0
  147.3679  132.8864  153.2664 O   0  0  0  0  0  0  0  0  0  0  0  0
  147.1870  133.0474  151.8674 C   0  0  0  0  0  0  0  0  0  0  0  0
  146.0172  134.0107  151.6105 C   0  0  0  0  0  0  0  0  0  0  0  0
  152.4115  137.5896  154.6516 H   0  0  0  0  0  0  0  0  0  0  0  0
  151.4301  137.8697  153.2138 H   0  0  0  0  0  0  0  0  0  0  0  0
  150.7839  136.9187  154.5610 H   0  0  0  0  0  0  0  0  0  0  0  0
  152.6377  139.5010  156.0314 H   0  0  0  0  0  0  0  0  0  0  0  0
  151.6906  141.5844  157.0399 H   0  0  0  0  0  0  0  0  0  0  0  0
  149.3418  142.2361  156.4472 H   0  0  0  0  0  0  0  0  0  0  0  0
  149.2225  137.8603  153.3962 H   0  0  0  0  0  0  0  0  0  0  0  0
  147.7411  137.1160  152.3262 H   0  0  0  0  0  0  0  0  0  0  0  0
  145.1134  138.4808  152.4067 H   0  0  0  0  0  0  0  0  0  0  0  0
  145.8535  138.0979  150.8791 H   0  0  0  0  0  0  0  0  0  0  0  0
  144.7859  136.0781  150.9571 H   0  0  0  0  0  0  0  0  0  0  0  0
  143.2270  137.0122  152.6871 H   0  0  0  0  0  0  0  0  0  0  0  0
  144.2960  136.4289  153.9535 H   0  0  0  0  0  0  0  0  0  0  0  0
  143.4630  135.3027  152.8751 H   0  0  0  0  0  0  0  0  0  0  0  0
  146.8641  136.0626  154.1689 H   0  0  0  0  0  0  0  0  0  0  0  0
  145.6571  134.7829  154.2142 H   0  0  0  0  0  0  0  0  0  0  0  0
  148.6346  134.5046  153.4910 H   0  0  0  0  0  0  0  0  0  0  0  0
  147.8609  133.9364  154.9568 H   0  0  0  0  0  0  0  0  0  0  0  0
  148.1050  133.4131  151.4045 H   0  0  0  0  0  0  0  0  0  0  0  0
  146.9744  132.0733  151.4264 H   0  0  0  0  0  0  0  0  0  0  0  0
  145.0943  133.5784  152.0006 H   0  0  0  0  0  0  0  0  0  0  0  0
  145.8838  134.1134  150.5353 H   0  0  0  0  0  0  0  0  0  0  0  0
  147.1060  135.7040  151.8510 H   0  0  0  0  0  0  0  0  0  0  0  0
  1  2  1  0  0  0  0
  1 21  1  0  0  0  0
  1 22  1  0  0  0  0
  1 23  1  0  0  0  0
  2  7  1  0  0  0  0
  2  3  2  0  0  0  0
  3  4  1  0  0  0  0
  3 24  1  0  0  0  0
  4  5  2  0  0  0  0
  4 25  1  0  0  0  0
  5  6  1  0  0  0  0
  5 26  1  0  0  0  0
  6  7  2  0  0  0  0
  7  8  1  0  0  0  0
  8  9  1  0  0  0  0
  8 27  1  0  0  0  0
  9 10  2  0  0  0  0
  9 11  1  0  0  0  0
 11 12  1  0  0  0  0
 11 28  1  0  0  0  0
 12 13  1  0  0  0  0
 12 29  1  0  0  0  0
 12 30  1  0  0  0  0
 13 14  1  0  0  0  0
 13 15  1  0  0  0  0
 13 31  1  0  0  0  0
 14 32  1  0  0  0  0
 14 33  1  0  0  0  0
 14 34  1  0  0  0  0
 15 20  1  0  0  0  0
 15 16  1  0  0  0  0
 15 43  1  0  0  0  0
 16 17  1  0  0  0  0
 16 35  1  0  0  0  0
 16 36  1  0  0  0  0
 17 18  1  0  0  0  0
 17 37  1  0  0  0  0
 17 38  1  0  0  0  0
 18 19  1  0  0  0  0
 19 20  1  0  0  0  0
 19 39  1  0  0  0  0
 19 40  1  0  0  0  0
 20 41  1  0  0  0  0
 20 42  1  0  0  0  0
M  CHG  1  15   1
M  END
> <s_m_source_file>
AV-unprocessed.smi

> <i_m_source_file_index>
1737

> <i_lp_mmshare_version>
43012

> <i_f3d_flags>
0

> <s_epik_input>
W0NIM11jMVtjSF1bY0hdW2NIXW5jMVtOSF1DKD1PKVtOSF1bQ0gyXVtDQEhdKFtDSDNdKU4yW0NIMl1bQ0gyXU9bQ0gyXVtDSDJdMg==

> <s_epik_cmdline>
J2VwaWtfcHl0aG9uJywgJy1waCcsICc3LjAnLCAnLXRuJywgJzgnLCAnLW1hJywgJzIwMCcsICctbWV0YWxfYmluZGluZycsICctaW1hZScsICc8aW5maWxlLm1hZT4nLCAnLW9tYWUnLCAnPG91dGZpbGUubWFlPic=

> <r_epik_Ionization_Penalty>
0.602573

> <r_epik_Ionization_Penalty_Charging>
0.602531

> <r_epik_Ionization_Penalty_Neutral>
4.25912e-05

> <r_epik_State_Penalty>
0.617039

> <r_epik_Charging_Adjusted_Penalty>
1.21957

> <i_epik_Tot_Q>
1

> <i_epik_Tot_abs_Q>
1

> <r_epik_Metal_State_Penalty>
0.617042

> <b_epik_Metal_Only>
0

> <s_lp_Force_Field>
OPLS_2005

> <r_lp_Energy>
21.8503

> <b_lp_Chiralities_Consistent>
1

> <s_lp_Variant>
AV-unprocessed.smi:1737-3

> <Gold.Version>
5.8.1

> <Gold.Id.Protein>
6NUR|6NUR_protein|mol2

> <Gold.PLP.Fitness>
45.3537

> <Gold.PLP.PLP>
-34.4445

> <Gold.PLP.part.hbond>
-3.7940

> <Gold.PLP.part.metal>
0.0000

> <Gold.PLP.part.buried>
1.2426

> <Gold.PLP.part.nonpolar>
-32.6349

> <Gold.PLP.part.repulsive>
0.5800

> <Gold.PLP.ligand.clash>
0.0000

> <Gold.PLP.ligand.torsion>
1.3827

> <Gold.PLP.Chemscore.Hbond>
3.5438

> <Gold.PLP.Chemscore.CHOScore>
1.0000

> <Gold.PLP.Chemscore.Metal>
0.0000

> <Gold.Chemscore.Hbonds>
donor molecule, donor type, donor heavy atom, donor atom, acceptor molecule, acceptor atom, score
      L1  H     8    27       P1  7948  0.41
      L1  H    11    28       P1  7948  1.00
      L1  H    15    43       P1  7948  2.00
      L1  C     5    26       P1  8028  0.71

> <Gold.PLP.Chemscore.Internal.Correction>
0.0434

> <Gold.Rescore>
     Score         DG    S(hbond)    S(metal)    S(lipo)     H(rot)  DE(clash)    DE(int)     intcor
     14.15     -17.96       2.39        0.00      71.59       1.51       0.78       3.02       ----

> <Gold.Chemscore.Fitness>
14.1461

> <Gold.Chemscore.DG>
-17.9550

> <Gold.Chemscore.ZeroCoef>
-5.4800

> <Gold.Chemscore.Hbond>
2.3866

> <Gold.Chemscore.Metal>
0.0000

> <Gold.Chemscore.Lipo>
71.5930

> <Gold.Chemscore.Internal_Hbond>
0.0000

> <Gold.Chemscore.DEClash>
0.7839

> <Gold.Chemscore.DEInternal>
3.0250

> <Gold.Chemscore.Rot>
1.5128

> <Gold.Chemscore.Internal.Correction>
   9.000000E+99

> <Gold.Chemscore.Hbonds>
donor molecule, donor type, donor heavy atom, donor atom, acceptor molecule, acceptor atom, score
      L1  H     8    27       P1  7948  0.40
      L1  H    11    28       P1  7948  0.96
      L1  H    15    43       P1  7948  0.98

> <Gold.Chemscore.Hbond.Weighted>
-7.9713

> <Gold.Chemscore.Metal.Weighted>
-0.0000

> <Gold.Chemscore.Lipo.Weighted>
-8.3764

> <Gold.Chemscore.Internal_Hbond.Weighted>
0.0000

> <Gold.Chemscore.DEClash.Weighted>
0.7839

> <Gold.Chemscore.DEInternal.Weighted>
3.0250

> <Gold.Chemscore.Rot.Weighted>
3.8726

> <Gold.Chemscore.Internal.Correction.Weighted>
   9.000000E+99

> <Gold.Protein.RotatedTorsions>
[ 6907 6896 6895 6894 ] final  117.72 input  -60.11 | X-H torsion
[ 7974 7965 7964 7962 ] final -119.52 input  175.53 | X-H torsion
[ 8008 7997 7996 7995 ] final -116.43 input   59.86 | X-H torsion
[ 10167 10162 10161 10158 ] final   38.38 input  -65.29 | X-H torsion
[ 10718 10713 10712 10709 ] final   -0.90 input   66.30 | X-H torsion
[ 10763 10752 10751 10750 ] final -100.86 input  -60.55 | X-H torsion
[ 11005 11000 10999 10996 ] final  -29.77 input  -57.11 | X-H torsion

> <Gold.Protein.ActiveResidues>
 VAL166  LYS551  ARG553  GLY616  TRP617  ASP618  TYR619  PRO620  LYS621  CYS622 
 ASP623  PHE694  ASN695  SER759  ASP760  ASP761  ALA762  ILE779  LEU786  VAL792 
 PHE793  MET794  SER795  GLU796  ALA797  LYS798  CYS799  TRP800  GLU811  SER814 

> <Gold.Protein.RotatedAtoms>
  152.4593  133.7788  159.6838 H   0  0  0  0  0  0  0  0  0  0  0  0  # atno 6907 bound_to 6896
  150.8530  133.7748  159.3025 H   0  0  0  0  0  0  0  0  0  0  0  0  # atno 6908 bound_to 6896
  151.5337  135.1071  159.9961 H   0  0  0  0  0  0  0  0  0  0  0  0  # atno 6909 bound_to 6896
  145.0616  140.8294  143.4149 H   0  0  0  0  0  0  0  0  0  0  0  0  # atno 7974 bound_to 7965
  155.0677  140.0393  157.2598 H   0  0  0  0  0  0  0  0  0  0  0  0  # atno 8008 bound_to 7997
  154.7008  140.2673  155.6697 H   0  0  0  0  0  0  0  0  0  0  0  0  # atno 8009 bound_to 7997
  156.2759  140.2741  156.1618 H   0  0  0  0  0  0  0  0  0  0  0  0  # atno 8010 bound_to 7997
  140.3942  144.1811  150.6131 H   0  0  0  0  0  0  0  0  0  0  0  0  # atno 10167 bound_to 10162
  156.8135  130.5432  149.5706 H   0  0  0  0  0  0  0  0  0  0  0  0  # atno 10718 bound_to 10713
  154.7612  135.4919  153.9469 H   0  0  0  0  0  0  0  0  0  0  0  0  # atno 10763 bound_to 10752
  153.1254  135.6741  153.9273 H   0  0  0  0  0  0  0  0  0  0  0  0  # atno 10764 bound_to 10752
  153.8993  135.3111  155.3427 H   0  0  0  0  0  0  0  0  0  0  0  0  # atno 10765 bound_to 10752
  140.9325  133.7329  156.0957 H   0  0  0  0  0  0  0  0  0  0  0  0  # atno 11005 bound_to 11000
  145.1402  139.2577  143.5494 LP  0  0  0  0  0  0  0  0  0  0  0  0  # atno 17320 bound_to 7965
  146.3524  140.1077  142.8605 LP  0  0  0  0  0  0  0  0  0  0  0  0  # atno 17321 bound_to 7965
  140.4808  143.2380  151.8958 LP  0  0  0  0  0  0  0  0  0  0  0  0  # atno 17342 bound_to 10162
  139.4787  144.5271  151.8719 LP  0  0  0  0  0  0  0  0  0  0  0  0  # atno 17343 bound_to 10162
  156.1030  130.5983  150.9925 LP  0  0  0  0  0  0  0  0  0  0  0  0  # atno 17370 bound_to 10713
  157.6493  131.0899  150.8084 LP  0  0  0  0  0  0  0  0  0  0  0  0  # atno 17371 bound_to 10713
  140.7843  134.3689  157.5480 LP  0  0  0  0  0  0  0  0  0  0  0  0  # atno 17394 bound_to 11000
  139.8800  134.9101  156.3006 LP  0  0  0  0  0  0  0  0  0  0  0  0  # atno 17395 bound_to 11000

$$$$
