AV-unprocessed.smi:1743|AV-procd|sdf|7023|dock5
  -GOLD-   22720 8243D 1   1.00000     0.00000
 Structure written by MMmdl.
 38 39  0  0  0  0  0  0  0  0  1 V2000
  151.8004  137.6348  158.6232 C   0  0  0  0  0  0  0  0  0  0  0  0
  150.7530  136.6771  158.7332 O   0  0  0  0  0  0  0  0  0  0  0  0
  150.0996  136.2862  157.5824 C   0  0  0  0  0  0  0  0  0  0  0  0
  149.0505  135.3513  157.6870 C   0  0  0  0  0  0  0  0  0  0  0  0
  148.3801  134.9453  156.5174 C   0  0  0  0  0  0  0  0  0  0  0  0
  148.7871  135.4845  155.2739 C   0  0  0  0  0  0  0  0  0  0  0  0
  148.1778  135.1700  154.0293 N   0  0  0  0  0  0  0  0  0  0  0  0
  147.3199  134.1744  153.7473 C   0  0  0  0  0  0  0  0  0  0  0  0
  146.9421  133.3163  154.5449 O   0  0  0  0  0  0  0  0  0  0  0  0
  146.9363  134.2183  152.4632 N   0  0  0  0  0  0  0  0  0  0  0  0
  146.0250  133.2830  151.8087 C   0  0  2  0  0  0  0  0  0  0  0  0
  146.4987  133.0130  150.3685 C   0  0  0  0  0  0  0  0  0  0  0  0
  145.5234  132.0913  149.6147 C   0  0  0  0  0  0  0  0  0  0  0  0
  144.0783  132.6247  149.6377 C   0  0  2  0  0  0  0  0  0  0  0  0
  143.9758  133.7810  148.8304 O   0  0  0  0  0  0  0  0  0  0  0  0
  143.6131  132.9388  151.0723 C   0  0  0  0  0  0  0  0  0  0  0  0
  144.5969  133.8582  151.8173 C   0  0  0  0  0  0  0  0  0  0  0  0
  149.8369  136.4261  155.2791 C   0  0  0  0  0  0  0  0  0  0  0  0
  150.4851  136.8179  156.3960 N   0  0  0  0  0  0  0  0  0  0  0  0
  152.2103  137.8370  159.6126 H   0  0  0  0  0  0  0  0  0  0  0  0
  151.4372  138.5797  158.2164 H   0  0  0  0  0  0  0  0  0  0  0  0
  152.6138  137.2652  157.9971 H   0  0  0  0  0  0  0  0  0  0  0  0
  148.7615  134.9548  158.6492 H   0  0  0  0  0  0  0  0  0  0  0  0
  147.5633  134.2452  156.5991 H   0  0  0  0  0  0  0  0  0  0  0  0
  148.4689  135.7400  153.2486 H   0  0  0  0  0  0  0  0  0  0  0  0
  147.3085  134.9583  151.8864 H   0  0  0  0  0  0  0  0  0  0  0  0
  146.0069  132.3332  152.3464 H   0  0  0  0  0  0  0  0  0  0  0  0
  146.5977  133.9556  149.8280 H   0  0  0  0  0  0  0  0  0  0  0  0
  147.4914  132.5615  150.3814 H   0  0  0  0  0  0  0  0  0  0  0  0
  145.8587  131.9516  148.5863 H   0  0  0  0  0  0  0  0  0  0  0  0
  145.5438  131.1038  150.0771 H   0  0  0  0  0  0  0  0  0  0  0  0
  143.4153  131.8758  149.2033 H   0  0  0  0  0  0  0  0  0  0  0  0
  144.8265  133.9676  148.4640 H   0  0  0  0  0  0  0  0  0  0  0  0
  142.6184  133.3857  151.0591 H   0  0  0  0  0  0  0  0  0  0  0  0
  143.5177  132.0041  151.6263 H   0  0  0  0  0  0  0  0  0  0  0  0
  144.2587  133.9978  152.8448 H   0  0  0  0  0  0  0  0  0  0  0  0
  144.5924  134.8467  151.3557 H   0  0  0  0  0  0  0  0  0  0  0  0
  150.1727  136.8779  154.3571 H   0  0  0  0  0  0  0  0  0  0  0  0
  1  2  1  0  0  0  0
  1 20  1  0  0  0  0
  1 21  1  0  0  0  0
  1 22  1  0  0  0  0
  2  3  1  0  0  0  0
  3 19  1  0  0  0  0
  3  4  2  0  0  0  0
  4  5  1  0  0  0  0
  4 23  1  0  0  0  0
  5  6  2  0  0  0  0
  5 24  1  0  0  0  0
  6  7  1  0  0  0  0
  6 18  1  0  0  0  0
  7  8  1  0  0  0  0
  7 25  1  0  0  0  0
  8  9  2  0  0  0  0
  8 10  1  0  0  0  0
 10 11  1  0  0  0  0
 10 26  1  0  0  0  0
 11 17  1  0  0  0  0
 11 12  1  0  0  0  0
 11 27  1  0  0  0  0
 12 13  1  0  0  0  0
 12 28  1  0  0  0  0
 12 29  1  0  0  0  0
 13 14  1  0  0  0  0
 13 30  1  0  0  0  0
 13 31  1  0  0  0  0
 14 15  1  0  0  0  0
 14 16  1  0  0  0  0
 14 32  1  0  0  0  0
 15 33  1  0  0  0  0
 16 17  1  0  0  0  0
 16 34  1  0  0  0  0
 16 35  1  0  0  0  0
 17 36  1  0  0  0  0
 17 37  1  0  0  0  0
 18 19  2  0  0  0  0
 18 38  1  0  0  0  0
M  END
> <s_m_source_file>
AV-unprocessed.smi

> <i_m_source_file_index>
1743

> <i_lp_mmshare_version>
43012

> <i_f3d_flags>
0

> <s_epik_input>
W0NIM11PYzFbY0hdW2NIXWMoW2NIXW4xKVtOSF1DKD1PKVtOSF1bQ0BASF0yW0NIMl1bQ0gyXVtDQEBIXShbT0hdKVtDSDJdW0NIMl0y

> <s_epik_cmdline>
J2VwaWtfcHl0aG9uJywgJy1waCcsICc3LjAnLCAnLXRuJywgJzgnLCAnLW1hJywgJzIwMCcsICctbWV0YWxfYmluZGluZycsICctaW1hZScsICc8aW5maWxlLm1hZT4nLCAnLW9tYWUnLCAnPG91dGZpbGUubWFlPic=

> <r_lp_tautomer_probability>
1

> <r_epik_Ionization_Penalty>
9.95686e-05

> <r_epik_Ionization_Penalty_Charging>
0

> <r_epik_Ionization_Penalty_Neutral>
9.95686e-05

> <r_epik_State_Penalty>
-0

> <r_epik_Charging_Adjusted_Penalty>
0

> <i_epik_Tot_Q>
0

> <i_epik_Tot_abs_Q>
0

> <r_epik_Metal_State_Penalty>
-0

> <b_epik_Metal_Only>
0

> <s_lp_Force_Field>
OPLS_2005

> <r_lp_Energy>
13.581

> <b_lp_Chiralities_Consistent>
1

> <s_lp_Variant>
AV-unprocessed.smi:1743-2

> <Gold.Version>
5.8.1

> <Gold.Id.Protein>
6NUR|6NUR_protein|mol2

> <Gold.PLP.Fitness>
40.1973

> <Gold.PLP.PLP>
-28.8660

> <Gold.PLP.part.hbond>
-4.6366

> <Gold.PLP.part.metal>
0.0000

> <Gold.PLP.part.buried>
-4.6872

> <Gold.PLP.part.nonpolar>
-19.0881

> <Gold.PLP.part.repulsive>
0.0685

> <Gold.PLP.ligand.clash>
0.0000

> <Gold.PLP.ligand.torsion>
0.3653

> <Gold.PLP.Chemscore.Hbond>
3.7771

> <Gold.PLP.Chemscore.CHOScore>
0.2423

> <Gold.PLP.Chemscore.Metal>
0.0000

> <Gold.Chemscore.Hbonds>
donor molecule, donor type, donor heavy atom, donor atom, acceptor molecule, acceptor atom, score
      L1  H     7    25       P1  7948  1.00
      L1  H    10    26       P1  7948  0.78
      L1  H    15    33       P1  7921  1.00
      P1  H  6896  6909       L1     2  0.99
      L1  C    18    38       P1  7948  0.24

> <Gold.PLP.Chemscore.Internal.Correction>
0.0036

> <Gold.Rescore>
     Score         DG    S(hbond)    S(metal)    S(lipo)     H(rot)  DE(clash)    DE(int)     intcor
     18.63     -20.30       3.59        0.00      63.07       1.77       0.03       1.64       ----

> <Gold.Chemscore.Fitness>
18.6307

> <Gold.Chemscore.DG>
-20.3030

> <Gold.Chemscore.ZeroCoef>
-5.4800

> <Gold.Chemscore.Hbond>
3.5865

> <Gold.Chemscore.Metal>
0.0000

> <Gold.Chemscore.Lipo>
63.0681

> <Gold.Chemscore.Internal_Hbond>
0.0000

> <Gold.Chemscore.DEClash>
0.0312

> <Gold.Chemscore.DEInternal>
1.6411

> <Gold.Chemscore.Rot>
1.7714

> <Gold.Chemscore.Internal.Correction>
   9.000000E+99

> <Gold.Chemscore.Hbonds>
donor molecule, donor type, donor heavy atom, donor atom, acceptor molecule, acceptor atom, score
      L1  H     7    25       P1  7948  0.93
      L1  H    10    26       P1  7948  0.65
      L1  H    15    33       P1  7921  0.99
      P1  H  6896  6909       L1     2  0.49

> <Gold.Chemscore.Hbond.Weighted>
-11.9787

> <Gold.Chemscore.Metal.Weighted>
-0.0000

> <Gold.Chemscore.Lipo.Weighted>
-7.3790

> <Gold.Chemscore.Internal_Hbond.Weighted>
0.0000

> <Gold.Chemscore.DEClash.Weighted>
0.0312

> <Gold.Chemscore.DEInternal.Weighted>
1.6411

> <Gold.Chemscore.Rot.Weighted>
4.5347

> <Gold.Chemscore.Internal.Correction.Weighted>
   9.000000E+99

> <Gold.Protein.RotatedTorsions>
[ 6907 6896 6895 6894 ] final   84.58 input  -60.11 | X-H torsion
[ 7974 7965 7964 7962 ] final -131.54 input  175.53 | X-H torsion
[ 8008 7997 7996 7995 ] final -156.73 input   59.86 | X-H torsion
[ 10167 10162 10161 10158 ] final -168.14 input  -65.29 | X-H torsion
[ 10718 10713 10712 10709 ] final   13.69 input   66.30 | X-H torsion
[ 10763 10752 10751 10750 ] final  117.43 input  -60.55 | X-H torsion
[ 11005 11000 10999 10996 ] final  153.39 input  -57.11 | X-H torsion

> <Gold.Protein.ActiveResidues>
 VAL166  LYS551  ARG553  GLY616  TRP617  ASP618  TYR619  PRO620  LYS621  CYS622 
 ASP623  PHE694  ASN695  SER759  ASP760  ASP761  ALA762  ILE779  LEU786  VAL792 
 PHE793  MET794  SER795  GLU796  ALA797  LYS798  CYS799  TRP800  GLU811  SER814 

> <Gold.Protein.RotatedAtoms>
  152.5355  134.2718  159.8974 H   0  0  0  0  0  0  0  0  0  0  0  0  # atno 6907 bound_to 6896
  151.2675  133.4265  159.2627 H   0  0  0  0  0  0  0  0  0  0  0  0  # atno 6908 bound_to 6896
  151.0397  134.9613  159.8212 H   0  0  0  0  0  0  0  0  0  0  0  0  # atno 6909 bound_to 6896
  144.9370  140.7194  143.4870 H   0  0  0  0  0  0  0  0  0  0  0  0  # atno 7974 bound_to 7965
  155.7217  140.0791  157.2328 H   0  0  0  0  0  0  0  0  0  0  0  0  # atno 8008 bound_to 7997
  154.4044  140.1611  156.2464 H   0  0  0  0  0  0  0  0  0  0  0  0  # atno 8009 bound_to 7997
  155.9190  140.3399  155.6161 H   0  0  0  0  0  0  0  0  0  0  0  0  # atno 8010 bound_to 7997
  139.6004  144.1023  152.1736 H   0  0  0  0  0  0  0  0  0  0  0  0  # atno 10167 bound_to 10162
  157.0283  130.6182  149.5731 H   0  0  0  0  0  0  0  0  0  0  0  0  # atno 10718 bound_to 10713
  153.5522  135.3537  155.2764 H   0  0  0  0  0  0  0  0  0  0  0  0  # atno 10763 bound_to 10752
  154.8705  135.4116  154.2924 H   0  0  0  0  0  0  0  0  0  0  0  0  # atno 10764 bound_to 10752
  153.3652  135.7062  153.6749 H   0  0  0  0  0  0  0  0  0  0  0  0  # atno 10765 bound_to 10752
  140.1393  134.8749  157.2310 H   0  0  0  0  0  0  0  0  0  0  0  0  # atno 11005 bound_to 11000
  145.3052  139.1837  143.4668 LP  0  0  0  0  0  0  0  0  0  0  0  0  # atno 17320 bound_to 7965
  146.3270  140.3048  142.8623 LP  0  0  0  0  0  0  0  0  0  0  0  0  # atno 17321 bound_to 7965
  140.0618  144.5850  150.7257 LP  0  0  0  0  0  0  0  0  0  0  0  0  # atno 17342 bound_to 10162
  140.7245  143.2622  151.4167 LP  0  0  0  0  0  0  0  0  0  0  0  0  # atno 17343 bound_to 10162
  156.0078  130.5167  150.7889 LP  0  0  0  0  0  0  0  0  0  0  0  0  # atno 17370 bound_to 10713
  157.5197  131.0931  151.0094 LP  0  0  0  0  0  0  0  0  0  0  0  0  # atno 17371 bound_to 10713
  140.2742  134.3425  155.7363 LP  0  0  0  0  0  0  0  0  0  0  0  0  # atno 17394 bound_to 11000
  141.2183  133.7441  156.9268 LP  0  0  0  0  0  0  0  0  0  0  0  0  # atno 17395 bound_to 11000

$$$$
