AV-unprocessed.smi:3287|AV-procd|sdf|12601|dock5
  -GOLD-   2272018523D 1   1.00000     0.00000
 Structure written by MMmdl.
 43 44  0  0  0  0  0  0  0  0  2 V2000
  153.3004  142.4992  160.9876 C   0  0  0  0  0  0  0  0  0  0  0  0
  152.7150  142.4560  159.5649 C   0  0  1  0  0  0  0  0  0  0  0  0
  152.0339  141.0941  159.3210 C   0  0  0  0  0  0  0  0  0  0  0  0
  151.4394  140.9871  157.9098 C   0  0  0  0  0  0  0  0  0  0  0  0
  150.4422  142.1290  157.6407 C   0  0  2  0  0  0  0  0  0  0  0  0
  149.8983  142.0630  156.2663 N   0  3  0  0  0  0  0  0  0  0  0  0
  148.8096  141.0825  156.0650 C   0  0  0  0  0  0  0  0  0  0  0  0
  147.9011  141.4834  154.8898 C   0  0  2  0  0  0  0  0  0  0  0  0
  148.6203  142.3462  154.0301 O   0  0  0  0  0  0  0  0  0  0  0  0
  146.6158  142.1264  155.3869 C   0  0  0  0  0  0  0  0  0  0  0  0
  145.6177  142.5293  154.4751 C   0  0  0  0  0  0  0  0  0  0  0  0
  144.4384  143.1124  154.9811 C   0  0  0  0  0  0  0  0  0  0  0  0
  144.2119  143.3037  156.2982 N   0  0  0  0  0  0  0  0  0  0  0  0
  145.1693  142.9150  157.1669 C   0  0  0  0  0  0  0  0  0  0  0  0
  146.3832  142.3227  156.7655 C   0  0  0  0  0  0  0  0  0  0  0  0
  151.1280  143.4876  157.8644 C   0  0  0  0  0  0  0  0  0  0  0  0
  151.7268  143.6180  159.2803 C   0  0  2  0  0  0  0  0  0  0  0  0
  152.3689  145.0066  159.4497 C   0  0  0  0  0  0  0  0  0  0  0  0
  152.5128  142.4852  161.7414 H   0  0  0  0  0  0  0  0  0  0  0  0
  153.9061  143.3902  161.1507 H   0  0  0  0  0  0  0  0  0  0  0  0
  153.9475  141.6407  161.1698 H   0  0  0  0  0  0  0  0  0  0  0  0
  153.5481  142.5395  158.8651 H   0  0  0  0  0  0  0  0  0  0  0  0
  152.7524  140.2872  159.4709 H   0  0  0  0  0  0  0  0  0  0  0  0
  151.2441  140.9408  160.0580 H   0  0  0  0  0  0  0  0  0  0  0  0
  152.2437  141.0132  157.1731 H   0  0  0  0  0  0  0  0  0  0  0  0
  150.9538  140.0171  157.8036 H   0  0  0  0  0  0  0  0  0  0  0  0
  149.6098  142.0525  158.3423 H   0  0  0  0  0  0  0  0  0  0  0  0
  149.5174  142.9719  156.0437 H   0  0  0  0  0  0  0  0  0  0  0  0
  149.2446  140.1030  155.8659 H   0  0  0  0  0  0  0  0  0  0  0  0
  148.2237  140.9926  156.9811 H   0  0  0  0  0  0  0  0  0  0  0  0
  147.6418  140.5930  154.3149 H   0  0  0  0  0  0  0  0  0  0  0  0
  148.8325  143.1352  154.5062 H   0  0  0  0  0  0  0  0  0  0  0  0
  145.7461  142.3969  153.4109 H   0  0  0  0  0  0  0  0  0  0  0  0
  143.6556  143.4318  154.3092 H   0  0  0  0  0  0  0  0  0  0  0  0
  144.9613  143.0788  158.2140 H   0  0  0  0  0  0  0  0  0  0  0  0
  147.1142  142.0260  157.5033 H   0  0  0  0  0  0  0  0  0  0  0  0
  151.9156  143.6285  157.1221 H   0  0  0  0  0  0  0  0  0  0  0  0
  150.4055  144.2884  157.6993 H   0  0  0  0  0  0  0  0  0  0  0  0
  150.9052  143.5481  159.9950 H   0  0  0  0  0  0  0  0  0  0  0  0
  153.2515  145.1157  158.8188 H   0  0  0  0  0  0  0  0  0  0  0  0
  152.6681  145.1913  160.4809 H   0  0  0  0  0  0  0  0  0  0  0  0
  151.6688  145.7975  159.1790 H   0  0  0  0  0  0  0  0  0  0  0  0
  150.6512  141.8666  155.6225 H   0  0  0  0  0  0  0  0  0  0  0  0
  1  2  1  0  0  0  0
  1 19  1  0  0  0  0
  1 20  1  0  0  0  0
  1 21  1  0  0  0  0
  2 17  1  0  0  0  0
  2  3  1  0  0  0  0
  2 22  1  0  0  0  0
  3  4  1  0  0  0  0
  3 23  1  0  0  0  0
  3 24  1  0  0  0  0
  4  5  1  0  0  0  0
  4 25  1  0  0  0  0
  4 26  1  0  0  0  0
  5  6  1  0  0  0  0
  5 16  1  0  0  0  0
  5 27  1  0  0  0  0
  6  7  1  0  0  0  0
  6 28  1  0  0  0  0
  6 43  1  0  0  0  0
  7  8  1  0  0  0  0
  7 29  1  0  0  0  0
  7 30  1  0  0  0  0
  8  9  1  0  0  0  0
  8 10  1  0  0  0  0
  8 31  1  0  0  0  0
  9 32  1  0  0  0  0
 10 15  1  0  0  0  0
 10 11  2  0  0  0  0
 11 12  1  0  0  0  0
 11 33  1  0  0  0  0
 12 13  2  0  0  0  0
 12 34  1  0  0  0  0
 13 14  1  0  0  0  0
 14 15  2  0  0  0  0
 14 35  1  0  0  0  0
 15 36  1  0  0  0  0
 16 17  1  0  0  0  0
 16 37  1  0  0  0  0
 16 38  1  0  0  0  0
 17 18  1  0  0  0  0
 17 39  1  0  0  0  0
 18 40  1  0  0  0  0
 18 41  1  0  0  0  0
 18 42  1  0  0  0  0
M  CHG  1   6   1
M  END
> <s_m_source_file>
AV-unprocessed.smi

> <i_m_source_file_index>
3287

> <i_lp_mmshare_version>
43012

> <i_f3d_flags>
0

> <s_epik_input>
W0NIM11bQ0BASF0xW0NIMl1bQ0gyXVtDQEhdKFtDSDJdW0NASF0xW0NIM10pW05IXVtDSDJdW0NASF0oW09IXSljMltjSF1bY0hdbltjSF1bY0hdMg==

> <s_epik_cmdline>
J2VwaWtfcHl0aG9uJywgJy1waCcsICc3LjAnLCAnLXRuJywgJzgnLCAnLW1hJywgJzIwMCcsICctbWV0YWxfYmluZGluZycsICctaW1hZScsICc8aW5maWxlLm1hZT4nLCAnLW9tYWUnLCAnPG91dGZpbGUubWFlPic=

> <r_lp_tautomer_probability>
1

> <r_epik_Ionization_Penalty>
0.00537262

> <r_epik_Ionization_Penalty_Charging>
0.00321624

> <r_epik_Ionization_Penalty_Neutral>
0.00215638

> <r_epik_State_Penalty>
-0

> <r_epik_Charging_Adjusted_Penalty>
0.00321624

> <i_epik_Tot_Q>
1

> <i_epik_Tot_abs_Q>
1

> <r_epik_Metal_State_Penalty>
-0

> <b_epik_Metal_Only>
0

> <s_lp_Force_Field>
OPLS_2005

> <r_lp_Energy>
15.7848

> <b_lp_Chiralities_Consistent>
1

> <s_lp_Variant>
AV-unprocessed.smi:3287-12

> <Gold.Version>
5.8.1

> <Gold.Id.Protein>
6NUR|6NUR_protein|mol2

> <Gold.PLP.Fitness>
49.5777

> <Gold.PLP.PLP>
-38.5938

> <Gold.PLP.part.hbond>
-2.7445

> <Gold.PLP.part.metal>
0.0000

> <Gold.PLP.part.buried>
-4.3307

> <Gold.PLP.part.nonpolar>
-31.3179

> <Gold.PLP.part.repulsive>
0.1812

> <Gold.PLP.ligand.clash>
0.0000

> <Gold.PLP.ligand.torsion>
0.9014

> <Gold.PLP.Chemscore.Hbond>
3.2560

> <Gold.PLP.Chemscore.CHOScore>
1.0000

> <Gold.PLP.Chemscore.Metal>
0.0000

> <Gold.Chemscore.Hbonds>
donor molecule, donor type, donor heavy atom, donor atom, acceptor molecule, acceptor atom, score
      L1  H     6    28       P1  8028  2.00
      L1  H     9    32       P1  8028  1.00
      P1  H  8011  8017       L1     9  0.21
      L1  C    12    34       P1 10174  0.91

> <Gold.PLP.Chemscore.Internal.Correction>
0.0187

> <Gold.Rescore>
     Score         DG    S(hbond)    S(metal)    S(lipo)     H(rot)  DE(clash)    DE(int)     intcor
     19.79     -20.71       2.14        0.00     110.57       1.90       0.08       0.83       ----

> <Gold.Chemscore.Fitness>
19.7919

> <Gold.Chemscore.DG>
-20.7052

> <Gold.Chemscore.ZeroCoef>
-5.4800

> <Gold.Chemscore.Hbond>
2.1443

> <Gold.Chemscore.Metal>
0.0000

> <Gold.Chemscore.Lipo>
110.5651

> <Gold.Chemscore.Internal_Hbond>
0.0000

> <Gold.Chemscore.DEClash>
0.0796

> <Gold.Chemscore.DEInternal>
0.8337

> <Gold.Chemscore.Rot>
1.9035

> <Gold.Chemscore.Internal.Correction>
   9.000000E+99

> <Gold.Chemscore.Hbonds>
donor molecule, donor type, donor heavy atom, donor atom, acceptor molecule, acceptor atom, score
      L1  H     6    28       P1  8028  1.00
      L1  H     9    32       P1  8028  0.99
      P1  H  8011  8017       L1     9  0.09

> <Gold.Chemscore.Hbond.Weighted>
-7.1620

> <Gold.Chemscore.Metal.Weighted>
-0.0000

> <Gold.Chemscore.Lipo.Weighted>
-12.9361

> <Gold.Chemscore.Internal_Hbond.Weighted>
0.0000

> <Gold.Chemscore.DEClash.Weighted>
0.0796

> <Gold.Chemscore.DEInternal.Weighted>
0.8337

> <Gold.Chemscore.Rot.Weighted>
4.8729

> <Gold.Chemscore.Internal.Correction.Weighted>
   9.000000E+99

> <Gold.Protein.RotatedTorsions>
[ 6907 6896 6895 6894 ] final   28.53 input  -60.11 | X-H torsion
[ 7974 7965 7964 7962 ] final  138.92 input  175.53 | X-H torsion
[ 8008 7997 7996 7995 ] final  147.92 input   59.86 | X-H torsion
[ 10167 10162 10161 10158 ] final -139.89 input  -65.29 | X-H torsion
[ 10718 10713 10712 10709 ] final  161.89 input   66.30 | X-H torsion
[ 10763 10752 10751 10750 ] final -163.75 input  -60.55 | X-H torsion
[ 11005 11000 10999 10996 ] final   28.39 input  -57.11 | X-H torsion

> <Gold.Protein.ActiveResidues>
 VAL166  LYS551  ARG553  GLY616  TRP617  ASP618  TYR619  PRO620  LYS621  CYS622 
 ASP623  PHE694  ASN695  SER759  ASP760  ASP761  ALA762  ILE779  LEU786  VAL792 
 PHE793  MET794  SER795  GLU796  ALA797  LYS798  CYS799  TRP800  GLU811  SER814 

> <Gold.Protein.RotatedAtoms>
  152.0183  134.9837  160.0569 H   0  0  0  0  0  0  0  0  0  0  0  0  # atno 6907 bound_to 6896
  152.1362  133.4432  159.4753 H   0  0  0  0  0  0  0  0  0  0  0  0  # atno 6908 bound_to 6896
  150.6861  134.2279  159.4466 H   0  0  0  0  0  0  0  0  0  0  0  0  # atno 6909 bound_to 6896
  144.9327  139.5027  143.5610 H   0  0  0  0  0  0  0  0  0  0  0  0  # atno 7974 bound_to 7965
  156.2809  140.2142  156.5616 H   0  0  0  0  0  0  0  0  0  0  0  0  # atno 8008 bound_to 7997
  154.7209  140.0503  157.0661 H   0  0  0  0  0  0  0  0  0  0  0  0  # atno 8009 bound_to 7997
  155.0480  140.3153  155.4704 H   0  0  0  0  0  0  0  0  0  0  0  0  # atno 8010 bound_to 7997
  139.8335  143.7415  152.2665 H   0  0  0  0  0  0  0  0  0  0  0  0  # atno 10167 bound_to 10162
  157.1303  131.0515  151.2375 H   0  0  0  0  0  0  0  0  0  0  0  0  # atno 10718 bound_to 10713
  154.7093  135.3003  154.9222 H   0  0  0  0  0  0  0  0  0  0  0  0  # atno 10763 bound_to 10752
  154.0129  135.6692  153.4770 H   0  0  0  0  0  0  0  0  0  0  0  0  # atno 10764 bound_to 10752
  153.0742  135.5044  154.8282 H   0  0  0  0  0  0  0  0  0  0  0  0  # atno 10765 bound_to 10752
  140.3161  134.2595  155.7725 H   0  0  0  0  0  0  0  0  0  0  0  0  # atno 11005 bound_to 11000
  146.3254  139.8289  142.8912 LP  0  0  0  0  0  0  0  0  0  0  0  0  # atno 17320 bound_to 7965
  145.3116  141.0221  143.3551 LP  0  0  0  0  0  0  0  0  0  0  0  0  # atno 17321 bound_to 7965
  139.7630  144.7500  151.0335 LP  0  0  0  0  0  0  0  0  0  0  0  0  # atno 17342 bound_to 10162
  140.7804  143.4729  151.0121 LP  0  0  0  0  0  0  0  0  0  0  0  0  # atno 17343 bound_to 10162
  157.4399  130.7538  149.7060 LP  0  0  0  0  0  0  0  0  0  0  0  0  # atno 17370 bound_to 10713
  155.9809  130.4024  150.3500 LP  0  0  0  0  0  0  0  0  0  0  0  0  # atno 17371 bound_to 10713
  141.2097  133.7740  156.9978 LP  0  0  0  0  0  0  0  0  0  0  0  0  # atno 17394 bound_to 11000
  140.0982  134.9551  157.1882 LP  0  0  0  0  0  0  0  0  0  0  0  0  # atno 17395 bound_to 11000

$$$$
