AV-unprocessed.smi:1803|AV-procd|sdf|7286|dock10
  -GOLD-   22720 8543D 1   1.00000     0.00000
 Structure written by MMmdl.
 36 38  0  0  0  0  0  0  0  0  2 V2000
  146.4456  137.0615  153.9727 O   0  0  0  0  0  0  0  0  0  0  0  0
  145.6011  137.8307  153.5172 C   0  0  0  0  0  0  0  0  0  0  0  0
  145.8367  139.1584  153.4454 N   0  0  0  0  0  0  0  0  0  0  0  0
  146.9679  139.9427  153.8168 C   0  0  0  0  0  0  0  0  0  0  0  0
  148.1928  139.4473  154.0577 N   0  0  0  0  0  0  0  0  0  0  0  0
  149.0982  140.4386  154.4103 N   0  0  0  0  0  0  0  0  0  0  0  0
  148.5222  141.6435  154.4298 C   0  0  0  0  0  0  0  0  0  0  0  0
  146.8167  141.6828  154.0198 S   0  0  0  0  0  0  0  0  0  0  0  0
  144.4051  137.4116  153.0720 N   0  0  0  0  0  0  0  0  0  0  0  0
  143.9425  136.0280  153.0479 C   0  0  1  0  0  0  0  0  0  0  0  0
  142.4297  135.9028  153.1857 C   0  0  0  0  0  0  0  0  0  0  0  0
  142.1709  134.4985  152.6380 C   0  0  0  0  0  0  0  0  0  0  0  0
  143.1724  134.2880  151.5675 N   0  3  2  0  0  0  0  0  0  0  0  0
  143.6671  132.8944  151.4508 C   0  0  0  0  0  0  0  0  0  0  0  0
  144.6898  132.7724  150.3060 C   0  0  0  0  0  0  0  0  0  0  0  0
  145.7987  133.8440  150.3676 C   0  0  0  0  0  0  0  0  0  0  0  0
  145.6578  134.7642  151.5899 C   0  0  0  0  0  0  0  0  0  0  0  0
  144.2256  135.3340  151.7047 C   0  0  2  0  0  0  0  0  0  0  0  0
  145.0642  139.6970  153.0806 H   0  0  0  0  0  0  0  0  0  0  0  0
  149.1048  142.5150  154.6892 H   0  0  0  0  0  0  0  0  0  0  0  0
  143.7683  138.1113  152.7170 H   0  0  0  0  0  0  0  0  0  0  0  0
  144.3992  135.4607  153.8617 H   0  0  0  0  0  0  0  0  0  0  0  0
  142.0834  136.0270  154.2122 H   0  0  0  0  0  0  0  0  0  0  0  0
  141.9255  136.6452  152.5645 H   0  0  0  0  0  0  0  0  0  0  0  0
  142.3209  133.7699  153.4364 H   0  0  0  0  0  0  0  0  0  0  0  0
  141.1546  134.3765  152.2627 H   0  0  0  0  0  0  0  0  0  0  0  0
  144.1210  132.5845  152.3937 H   0  0  0  0  0  0  0  0  0  0  0  0
  142.8258  132.2237  151.2727 H   0  0  0  0  0  0  0  0  0  0  0  0
  145.1344  131.7768  150.3217 H   0  0  0  0  0  0  0  0  0  0  0  0
  144.1708  132.8529  149.3499 H   0  0  0  0  0  0  0  0  0  0  0  0
  146.7805  133.3692  150.3729 H   0  0  0  0  0  0  0  0  0  0  0  0
  145.7614  134.4486  149.4606 H   0  0  0  0  0  0  0  0  0  0  0  0
  145.9125  134.2055  152.4916 H   0  0  0  0  0  0  0  0  0  0  0  0
  146.3819  135.5767  151.5256 H   0  0  0  0  0  0  0  0  0  0  0  0
  144.0563  136.0390  150.8889 H   0  0  0  0  0  0  0  0  0  0  0  0
  142.7058  134.4936  150.6956 H   0  0  0  0  0  0  0  0  0  0  0  0
  1  2  2  0  0  0  0
  2  3  1  0  0  0  0
  2  9  1  0  0  0  0
  3  4  1  0  0  0  0
  3 19  1  0  0  0  0
  4  8  1  0  0  0  0
  4  5  2  0  0  0  0
  5  6  1  0  0  0  0
  6  7  2  0  0  0  0
  7  8  1  0  0  0  0
  7 20  1  0  0  0  0
  9 10  1  0  0  0  0
  9 21  1  0  0  0  0
 10 18  1  0  0  0  0
 10 11  1  0  0  0  0
 10 22  1  0  0  0  0
 11 12  1  0  0  0  0
 11 23  1  0  0  0  0
 11 24  1  0  0  0  0
 12 13  1  0  0  0  0
 12 25  1  0  0  0  0
 12 26  1  0  0  0  0
 13 18  1  0  0  0  0
 13 14  1  0  0  0  0
 13 36  1  0  0  0  0
 14 15  1  0  0  0  0
 14 27  1  0  0  0  0
 14 28  1  0  0  0  0
 15 16  1  0  0  0  0
 15 29  1  0  0  0  0
 15 30  1  0  0  0  0
 16 17  1  0  0  0  0
 16 31  1  0  0  0  0
 16 32  1  0  0  0  0
 17 18  1  0  0  0  0
 17 33  1  0  0  0  0
 17 34  1  0  0  0  0
 18 35  1  0  0  0  0
M  CHG  1  13   1
M  END
> <s_m_source_file>
AV-unprocessed.smi

> <i_m_source_file_index>
1803

> <i_lp_mmshare_version>
43012

> <i_f3d_flags>
0

> <s_epik_input>
czFbY0hdbm5jMVtOSF1DKD1PKVtOSF1bQ0BIXShbQ0gyXVtDSDJdMilbQ0BASF0oTjIzKVtDSDJdW0NIMl1bQ0gyXVtDSDJdMw==

> <s_epik_cmdline>
J2VwaWtfcHl0aG9uJywgJy1waCcsICc3LjAnLCAnLXRuJywgJzgnLCAnLW1hJywgJzIwMCcsICctbWV0YWxfYmluZGluZycsICctaW1hZScsICc8aW5maWxlLm1hZT4nLCAnLW9tYWUnLCAnPG91dGZpbGUubWFlPic=

> <r_lp_tautomer_probability>
1

> <r_epik_Ionization_Penalty>
0.00213286

> <r_epik_Ionization_Penalty_Charging>
0.00107044

> <r_epik_Ionization_Penalty_Neutral>
0.00106242

> <r_epik_State_Penalty>
-0

> <r_epik_Charging_Adjusted_Penalty>
0.00107044

> <i_epik_Tot_Q>
1

> <i_epik_Tot_abs_Q>
1

> <r_epik_Metal_State_Penalty>
0.292783

> <b_epik_Metal_Only>
0

> <s_lp_Force_Field>
OPLS_2005

> <r_lp_Energy>
41.2336

> <b_lp_Chiralities_Consistent>
1

> <s_lp_Variant>
AV-unprocessed.smi:1803-8

> <Gold.Version>
5.8.1

> <Gold.Id.Protein>
6NUR|6NUR_protein|mol2

> <Gold.PLP.Fitness>
39.8578

> <Gold.PLP.PLP>
-28.1093

> <Gold.PLP.part.hbond>
-2.5729

> <Gold.PLP.part.metal>
0.0000

> <Gold.PLP.part.buried>
-4.0940

> <Gold.PLP.part.nonpolar>
-21.3859

> <Gold.PLP.part.repulsive>
0.3925

> <Gold.PLP.ligand.clash>
0.0000

> <Gold.PLP.ligand.torsion>
0.4306

> <Gold.PLP.Chemscore.Hbond>
3.2006

> <Gold.PLP.Chemscore.CHOScore>
1.0000

> <Gold.PLP.Chemscore.Metal>
0.0000

> <Gold.Chemscore.Hbonds>
donor molecule, donor type, donor heavy atom, donor atom, acceptor molecule, acceptor atom, score
      L1  H     3    19       P1 10175  1.00
      L1  H     9    21       P1 10175  0.18
      L1  H    13    36       P1 10186  1.90
      L1  C     7    20       P1  8028  1.00

> <Gold.PLP.Chemscore.Internal.Correction>
0.0080

> <Gold.Rescore>
     Score         DG    S(hbond)    S(metal)    S(lipo)     H(rot)  DE(clash)    DE(int)     intcor
     13.17     -15.16       1.48        0.00      62.37       1.00       0.50       1.49       ----

> <Gold.Chemscore.Fitness>
13.1719

> <Gold.Chemscore.DG>
-15.1633

> <Gold.Chemscore.ZeroCoef>
-5.4800

> <Gold.Chemscore.Hbond>
1.4809

> <Gold.Chemscore.Metal>
0.0000

> <Gold.Chemscore.Lipo>
62.3680

> <Gold.Chemscore.Internal_Hbond>
0.0000

> <Gold.Chemscore.DEClash>
0.4975

> <Gold.Chemscore.DEInternal>
1.4939

> <Gold.Chemscore.Rot>
1.0000

> <Gold.Chemscore.Internal.Correction>
   9.000000E+99

> <Gold.Chemscore.Hbonds>
donor molecule, donor type, donor heavy atom, donor atom, acceptor molecule, acceptor atom, score
      L1  H     3    19       P1 10175  1.00
      L1  H     9    21       P1 10175  0.18
      L1  H    13    36       P1 10186  0.26

> <Gold.Chemscore.Hbond.Weighted>
-4.9463

> <Gold.Chemscore.Metal.Weighted>
-0.0000

> <Gold.Chemscore.Lipo.Weighted>
-7.2971

> <Gold.Chemscore.Internal_Hbond.Weighted>
0.0000

> <Gold.Chemscore.DEClash.Weighted>
0.4975

> <Gold.Chemscore.DEInternal.Weighted>
1.4939

> <Gold.Chemscore.Rot.Weighted>
2.5600

> <Gold.Chemscore.Internal.Correction.Weighted>
   9.000000E+99

> <Gold.Protein.RotatedTorsions>
[ 6907 6896 6895 6894 ] final -117.22 input  -60.11 | X-H torsion
[ 7974 7965 7964 7962 ] final   87.60 input  175.53 | X-H torsion
[ 8008 7997 7996 7995 ] final  163.09 input   59.86 | X-H torsion
[ 10167 10162 10161 10158 ] final  -91.63 input  -65.29 | X-H torsion
[ 10718 10713 10712 10709 ] final  -46.39 input   66.30 | X-H torsion
[ 10763 10752 10751 10750 ] final -103.90 input  -60.55 | X-H torsion
[ 11005 11000 10999 10996 ] final  152.79 input  -57.11 | X-H torsion

> <Gold.Protein.ActiveResidues>
 VAL166  LYS551  ARG553  GLY616  TRP617  ASP618  TYR619  PRO620  LYS621  CYS622 
 ASP623  PHE694  ASN695  SER759  ASP760  ASP761  ALA762  ILE779  LEU786  VAL792 
 PHE793  MET794  SER795  GLU796  ALA797  LYS798  CYS799  TRP800  GLU811  SER814 

> <Gold.Protein.RotatedAtoms>
  150.8119  133.8407  159.3178 H   0  0  0  0  0  0  0  0  0  0  0  0  # atno 6907 bound_to 6896
  151.6190  135.1032  160.0107 H   0  0  0  0  0  0  0  0  0  0  0  0  # atno 6908 bound_to 6896
  152.4210  133.7077  159.6517 H   0  0  0  0  0  0  0  0  0  0  0  0  # atno 6909 bound_to 6896
  145.5568  139.2300  143.2482 H   0  0  0  0  0  0  0  0  0  0  0  0  # atno 7974 bound_to 7965
  156.1983  140.1733  156.7952 H   0  0  0  0  0  0  0  0  0  0  0  0  # atno 8008 bound_to 7997
  154.5558  140.0709  156.8772 H   0  0  0  0  0  0  0  0  0  0  0  0  # atno 8009 bound_to 7997
  155.2941  140.3357  155.4253 H   0  0  0  0  0  0  0  0  0  0  0  0  # atno 8010 bound_to 7997
  140.3429  143.2932  151.9814 H   0  0  0  0  0  0  0  0  0  0  0  0  # atno 10167 bound_to 10162
  156.2187  130.4165  149.9020 H   0  0  0  0  0  0  0  0  0  0  0  0  # atno 10718 bound_to 10713
  154.7841  135.4806  153.9907 H   0  0  0  0  0  0  0  0  0  0  0  0  # atno 10763 bound_to 10752
  153.1534  135.6795  153.8855 H   0  0  0  0  0  0  0  0  0  0  0  0  # atno 10764 bound_to 10752
  153.8492  135.3169  155.3409 H   0  0  0  0  0  0  0  0  0  0  0  0  # atno 10765 bound_to 10752
  140.1339  134.8783  157.2241 H   0  0  0  0  0  0  0  0  0  0  0  0  # atno 11005 bound_to 11000
  146.1879  140.6392  142.9159 LP  0  0  0  0  0  0  0  0  0  0  0  0  # atno 17320 bound_to 7965
  144.7502  140.5172  143.6807 LP  0  0  0  0  0  0  0  0  0  0  0  0  # atno 17321 bound_to 7965
  139.4837  144.6141  151.7379 LP  0  0  0  0  0  0  0  0  0  0  0  0  # atno 17342 bound_to 10162
  140.5292  144.0758  150.6048 LP  0  0  0  0  0  0  0  0  0  0  0  0  # atno 17343 bound_to 10162
  156.6674  130.8806  151.3557 LP  0  0  0  0  0  0  0  0  0  0  0  0  # atno 17370 bound_to 10713
  157.7076  130.9403  150.0983 LP  0  0  0  0  0  0  0  0  0  0  0  0  # atno 17371 bound_to 10713
  140.2807  134.3353  155.7344 LP  0  0  0  0  0  0  0  0  0  0  0  0  # atno 17394 bound_to 11000
  141.2175  133.7476  156.9359 LP  0  0  0  0  0  0  0  0  0  0  0  0  # atno 17395 bound_to 11000

$$$$
