AV-unprocessed.smi:2907|AV-procd|sdf|11166|dock3
  -GOLD-   2272016 53D 1   1.00000     0.00000
 Structure written by MMmdl.
 45 46  0  0  0  0  0  0  0  0  1 V2000
  147.3326  139.8837  153.6039 C   0  0  0  0  0  0  0  0  0  0  0  0
  146.7970  141.3230  153.5994 C   0  0  0  0  0  0  0  0  0  0  0  0
  146.3970  141.8484  154.9925 C   0  0  0  0  0  0  0  0  0  0  0  0
  145.5283  143.1178  154.8895 C   0  0  0  0  0  0  0  0  0  0  0  0
  145.5310  143.7631  153.4952 C   0  0  0  0  0  0  0  0  0  0  0  0
  147.5860  142.1329  155.7944 N   0  0  0  0  0  0  0  0  0  0  0  0
  148.1084  141.3401  156.7441 C   0  0  0  0  0  0  0  0  0  0  0  0
  147.6898  140.2116  157.0004 O   0  0  0  0  0  0  0  0  0  0  0  0
  149.2720  141.9236  157.5465 C   0  0  0  0  0  0  0  0  0  0  0  0
  150.4660  141.1075  157.3885 N   0  0  0  0  0  0  0  0  0  0  0  0
  150.3980  139.8980  156.7786 N   0  0  0  0  0  0  0  0  0  0  0  0
  151.6103  139.4273  156.7413 N   0  0  0  0  0  0  0  0  0  0  0  0
  152.5073  140.3055  157.3175 N   0  0  0  0  0  0  0  0  0  0  0  0
  151.7505  141.3218  157.7154 C   0  0  0  0  0  0  0  0  0  0  0  0
  152.2594  142.5728  158.3729 C   0  0  0  0  0  0  0  0  0  0  0  0
  151.9924  142.5709  159.8905 C   0  0  0  0  0  0  0  0  0  0  0  0
  152.5419  143.8412  160.5588 C   0  0  0  0  0  0  0  0  0  0  0  0
  151.9759  145.1084  159.8983 C   0  0  0  0  0  0  0  0  0  0  0  0
  152.2500  145.1168  158.3858 C   0  0  0  0  0  0  0  0  0  0  0  0
  151.7007  143.8488  157.7115 C   0  0  0  0  0  0  0  0  0  0  0  0
  147.5379  139.5454  152.5882 H   0  0  0  0  0  0  0  0  0  0  0  0
  146.6093  139.1967  154.0435 H   0  0  0  0  0  0  0  0  0  0  0  0
  148.2606  139.8024  154.1700 H   0  0  0  0  0  0  0  0  0  0  0  0
  147.5429  141.9834  153.1551 H   0  0  0  0  0  0  0  0  0  0  0  0
  145.9285  141.3636  152.9411 H   0  0  0  0  0  0  0  0  0  0  0  0
  145.7933  141.0805  155.4795 H   0  0  0  0  0  0  0  0  0  0  0  0
  144.5010  142.8860  155.1735 H   0  0  0  0  0  0  0  0  0  0  0  0
  145.8828  143.8539  155.6119 H   0  0  0  0  0  0  0  0  0  0  0  0
  144.9420  144.6802  153.4933 H   0  0  0  0  0  0  0  0  0  0  0  0
  145.1047  143.0996  152.7422 H   0  0  0  0  0  0  0  0  0  0  0  0
  146.5439  144.0190  153.1833 H   0  0  0  0  0  0  0  0  0  0  0  0
  148.0104  143.0394  155.6592 H   0  0  0  0  0  0  0  0  0  0  0  0
  149.4894  142.9420  157.2229 H   0  0  0  0  0  0  0  0  0  0  0  0
  149.0008  141.9760  158.6021 H   0  0  0  0  0  0  0  0  0  0  0  0
  153.3404  142.6038  158.2385 H   0  0  0  0  0  0  0  0  0  0  0  0
  150.9208  142.4938  160.0796 H   0  0  0  0  0  0  0  0  0  0  0  0
  152.4520  141.6943  160.3477 H   0  0  0  0  0  0  0  0  0  0  0  0
  152.3008  143.8352  161.6221 H   0  0  0  0  0  0  0  0  0  0  0  0
  153.6303  143.8476  160.4888 H   0  0  0  0  0  0  0  0  0  0  0  0
  150.9011  145.1638  160.0759 H   0  0  0  0  0  0  0  0  0  0  0  0
  152.4119  145.9946  160.3600 H   0  0  0  0  0  0  0  0  0  0  0  0
  151.8030  146.0018  157.9321 H   0  0  0  0  0  0  0  0  0  0  0  0
  153.3241  145.1882  158.2099 H   0  0  0  0  0  0  0  0  0  0  0  0
  151.9521  143.8599  156.6502 H   0  0  0  0  0  0  0  0  0  0  0  0
  150.6115  143.8530  157.7716 H   0  0  0  0  0  0  0  0  0  0  0  0
  1  2  1  0  0  0  0
  1 21  1  0  0  0  0
  1 22  1  0  0  0  0
  1 23  1  0  0  0  0
  2  3  1  0  0  0  0
  2 24  1  0  0  0  0
  2 25  1  0  0  0  0
  3  4  1  0  0  0  0
  3  6  1  0  0  0  0
  3 26  1  0  0  0  0
  4  5  1  0  0  0  0
  4 27  1  0  0  0  0
  4 28  1  0  0  0  0
  5 29  1  0  0  0  0
  5 30  1  0  0  0  0
  5 31  1  0  0  0  0
  6  7  1  0  0  0  0
  6 32  1  0  0  0  0
  7  8  2  0  0  0  0
  7  9  1  0  0  0  0
  9 10  1  0  0  0  0
  9 33  1  0  0  0  0
  9 34  1  0  0  0  0
 10 14  1  0  0  0  0
 10 11  1  0  0  0  0
 11 12  2  0  0  0  0
 12 13  1  0  0  0  0
 13 14  2  0  0  0  0
 14 15  1  0  0  0  0
 15 20  1  0  0  0  0
 15 16  1  0  0  0  0
 15 35  1  0  0  0  0
 16 17  1  0  0  0  0
 16 36  1  0  0  0  0
 16 37  1  0  0  0  0
 17 18  1  0  0  0  0
 17 38  1  0  0  0  0
 17 39  1  0  0  0  0
 18 19  1  0  0  0  0
 18 40  1  0  0  0  0
 18 41  1  0  0  0  0
 19 20  1  0  0  0  0
 19 42  1  0  0  0  0
 19 43  1  0  0  0  0
 20 44  1  0  0  0  0
 20 45  1  0  0  0  0
M  END
> <s_m_source_file>
AV-unprocessed.smi

> <i_m_source_file_index>
2907

> <i_lp_mmshare_version>
43012

> <i_f3d_flags>
0

> <s_epik_input>
W0NIM11bQ0gyXVtDSF0oW0NIMl1bQ0gzXSlbTkhdQyg9TylbQ0gyXW4xbm5uYzFbQ0hdMltDSDJdW0NIMl1bQ0gyXVtDSDJdW0NIMl0y

> <s_epik_cmdline>
J2VwaWtfcHl0aG9uJywgJy1waCcsICc3LjAnLCAnLXRuJywgJzgnLCAnLW1hJywgJzIwMCcsICctbWV0YWxfYmluZGluZycsICctaW1hZScsICc8aW5maWxlLm1hZT4nLCAnLW9tYWUnLCAnPG91dGZpbGUubWFlPic=

> <r_lp_tautomer_probability>
1

> <r_epik_Ionization_Penalty>
4.92512e-07

> <r_epik_Ionization_Penalty_Charging>
0

> <r_epik_Ionization_Penalty_Neutral>
4.92512e-07

> <r_epik_State_Penalty>
-0

> <r_epik_Charging_Adjusted_Penalty>
0

> <i_epik_Tot_Q>
0

> <i_epik_Tot_abs_Q>
0

> <r_epik_Metal_State_Penalty>
-0

> <b_epik_Metal_Only>
0

> <s_lp_Force_Field>
OPLS_2005

> <r_lp_Energy>
10.8377

> <b_lp_Chiralities_Consistent>
1

> <s_lp_Variant>
AV-unprocessed.smi:2907-1

> <Gold.Version>
5.8.1

> <Gold.Id.Protein>
6NUR|6NUR_protein|mol2

> <Gold.PLP.Fitness>
45.3247

> <Gold.PLP.PLP>
-42.2317

> <Gold.PLP.part.hbond>
-2.0000

> <Gold.PLP.part.metal>
0.0000

> <Gold.PLP.part.buried>
-5.7273

> <Gold.PLP.part.nonpolar>
-34.6092

> <Gold.PLP.part.repulsive>
0.0497

> <Gold.PLP.ligand.clash>
0.0000

> <Gold.PLP.ligand.torsion>
1.5222

> <Gold.PLP.Chemscore.Hbond>
2.0000

> <Gold.PLP.Chemscore.CHOScore>
0.0000

> <Gold.PLP.Chemscore.Metal>
0.0000

> <Gold.Chemscore.Hbonds>
donor molecule, donor type, donor heavy atom, donor atom, acceptor molecule, acceptor atom, score
      L1  H     6    32       P1  8028  1.00
      P1  H  7997  8009       L1    13  0.98

> <Gold.PLP.Chemscore.Internal.Correction>
0.1374

> <Gold.Rescore>
     Score         DG    S(hbond)    S(metal)    S(lipo)     H(rot)  DE(clash)    DE(int)     intcor
     16.29     -18.92       1.68        0.00     106.20       1.79       0.09       2.54       ----

> <Gold.Chemscore.Fitness>
16.2863

> <Gold.Chemscore.DG>
-18.9160

> <Gold.Chemscore.ZeroCoef>
-5.4800

> <Gold.Chemscore.Hbond>
1.6780

> <Gold.Chemscore.Metal>
0.0000

> <Gold.Chemscore.Lipo>
106.1990

> <Gold.Chemscore.Internal_Hbond>
0.0000

> <Gold.Chemscore.DEClash>
0.0939

> <Gold.Chemscore.DEInternal>
2.5357

> <Gold.Chemscore.Rot>
1.7944

> <Gold.Chemscore.Internal.Correction>
   9.000000E+99

> <Gold.Chemscore.Hbonds>
donor molecule, donor type, donor heavy atom, donor atom, acceptor molecule, acceptor atom, score
      L1  H     6    32       P1  8028  0.74
      P1  H  7997  8009       L1    13  0.82

> <Gold.Chemscore.Hbond.Weighted>
-5.6044

> <Gold.Chemscore.Metal.Weighted>
-0.0000

> <Gold.Chemscore.Lipo.Weighted>
-12.4253

> <Gold.Chemscore.Internal_Hbond.Weighted>
0.0000

> <Gold.Chemscore.DEClash.Weighted>
0.0939

> <Gold.Chemscore.DEInternal.Weighted>
2.5357

> <Gold.Chemscore.Rot.Weighted>
4.5938

> <Gold.Chemscore.Internal.Correction.Weighted>
   9.000000E+99

> <Gold.Protein.RotatedTorsions>
[ 6907 6896 6895 6894 ] final   -6.43 input  -60.11 | X-H torsion
[ 7974 7965 7964 7962 ] final  -10.44 input  175.53 | X-H torsion
[ 8008 7997 7996 7995 ] final  177.24 input   59.86 | X-H torsion
[ 10167 10162 10161 10158 ] final  129.86 input  -65.29 | X-H torsion
[ 10718 10713 10712 10709 ] final   88.74 input   66.30 | X-H torsion
[ 10763 10752 10751 10750 ] final   48.27 input  -60.55 | X-H torsion
[ 11005 11000 10999 10996 ] final   66.60 input  -57.11 | X-H torsion

> <Gold.Protein.ActiveResidues>
 VAL166  LYS551  ARG553  GLY616  TRP617  ASP618  TYR619  PRO620  LYS621  CYS622 
 ASP623  PHE694  ASN695  SER759  ASP760  ASP761  ALA762  ILE779  LEU786  VAL792 
 PHE793  MET794  SER795  GLU796  ALA797  LYS798  CYS799  TRP800  GLU811  SER814 

> <Gold.Protein.RotatedAtoms>
  151.4657  135.1042  159.9737 H   0  0  0  0  0  0  0  0  0  0  0  0  # atno 6907 bound_to 6896
  152.4836  133.8311  159.7114 H   0  0  0  0  0  0  0  0  0  0  0  0  # atno 6908 bound_to 6896
  150.8927  133.7162  159.2927 H   0  0  0  0  0  0  0  0  0  0  0  0  # atno 6909 bound_to 6896
  146.2220  140.2764  142.8359 H   0  0  0  0  0  0  0  0  0  0  0  0  # atno 7974 bound_to 7965
  156.0678  140.1363  156.9865 H   0  0  0  0  0  0  0  0  0  0  0  0  # atno 8008 bound_to 7997
  154.4515  140.0978  156.6685 H   0  0  0  0  0  0  0  0  0  0  0  0  # atno 8009 bound_to 7997
  155.5276  140.3458  155.4422 H   0  0  0  0  0  0  0  0  0  0  0  0  # atno 8010 bound_to 7997
  139.5457  144.6771  151.4480 H   0  0  0  0  0  0  0  0  0  0  0  0  # atno 10167 bound_to 10162
  157.6951  131.0306  150.3320 H   0  0  0  0  0  0  0  0  0  0  0  0  # atno 10718 bound_to 10713
  152.9793  135.5949  154.3899 H   0  0  0  0  0  0  0  0  0  0  0  0  # atno 10763 bound_to 10752
  154.3555  135.2767  155.2350 H   0  0  0  0  0  0  0  0  0  0  0  0  # atno 10764 bound_to 10752
  154.4371  135.6022  153.6160 H   0  0  0  0  0  0  0  0  0  0  0  0  # atno 10765 bound_to 10752
  139.9821  134.6726  156.0242 H   0  0  0  0  0  0  0  0  0  0  0  0  # atno 11005 bound_to 11000
  144.9229  140.7889  143.5737 LP  0  0  0  0  0  0  0  0  0  0  0  0  # atno 17320 bound_to 7965
  145.2702  139.1957  143.4845 LP  0  0  0  0  0  0  0  0  0  0  0  0  # atno 17321 bound_to 7965
  140.6704  143.8306  150.6993 LP  0  0  0  0  0  0  0  0  0  0  0  0  # atno 17342 bound_to 10162
  140.1728  143.4180  152.1989 LP  0  0  0  0  0  0  0  0  0  0  0  0  # atno 17343 bound_to 10162
  156.3793  130.3877  149.7114 LP  0  0  0  0  0  0  0  0  0  0  0  0  # atno 17370 bound_to 10713
  156.4502  130.7903  151.2924 LP  0  0  0  0  0  0  0  0  0  0  0  0  # atno 17371 bound_to 10713
  141.1492  133.6551  156.3961 LP  0  0  0  0  0  0  0  0  0  0  0  0  # atno 17394 bound_to 11000
  140.5075  134.6427  157.5272 LP  0  0  0  0  0  0  0  0  0  0  0  0  # atno 17395 bound_to 11000

$$$$
