AV-unprocessed.smi:1240|AV-procd|sdf|5212|dock2
  -GOLD-   22720 4303D 1   1.00000     0.00000
 Structure written by MMmdl.
 48 50  0  0  0  0  0  0  0  0  4 V2000
  147.2603  132.4691  153.5957 O   0  0  0  0  0  0  0  0  0  0  0  0
  147.8755  133.4821  153.2434 C   0  0  0  0  0  0  0  0  0  0  0  0
  149.1271  133.8626  153.6132 N   0  5  0  0  0  0  0  0  0  0  0  0
  149.4882  134.3489  154.9446 C   0  0  0  0  0  0  0  0  0  0  0  0
  148.7826  135.7173  155.2518 C   0  0  1  0  0  0  0  0  0  0  0  0
  148.3497  135.9120  156.7431 C   0  0  2  0  0  0  0  0  0  0  0  0
  149.4657  136.0246  157.7775 C   0  0  0  0  0  0  0  0  0  0  0  0
  148.7499  135.7028  159.0852 C   0  0  0  0  0  0  0  0  0  0  0  0
  147.6854  134.8246  158.7397 O   0  0  0  0  0  0  0  0  0  0  0  0
  147.5960  134.7088  157.3252 C   0  0  0  0  0  0  0  0  0  0  0  0
  149.5503  136.9276  154.7890 N   0  3  0  0  0  0  0  0  0  0  0  0
  148.9373  138.2703  154.9966 C   0  0  0  0  0  0  0  0  0  0  0  0
  149.7200  139.3275  154.2013 C   0  0  0  0  0  0  0  0  0  0  0  0
  151.0878  139.3078  154.5938 O   0  0  0  0  0  0  0  0  0  0  0  0
  151.7063  138.0546  154.3250 C   0  0  0  0  0  0  0  0  0  0  0  0
  151.0000  136.9450  155.1209 C   0  0  0  0  0  0  0  0  0  0  0  0
  147.3199  134.3467  152.3756 N   0  0  0  0  0  0  0  0  0  0  0  0
  146.0421  134.2928  151.7573 C   0  0  0  0  0  0  0  0  0  0  0  0
  145.5062  135.4978  151.2524 C   0  0  0  0  0  0  0  0  0  0  0  0
  144.2338  135.4916  150.6458 C   0  0  0  0  0  0  0  0  0  0  0  0
  143.5330  134.3401  150.5651 N   0  3  0  0  0  0  0  0  0  0  0  0
  143.9957  133.1680  151.0508 C   0  0  0  0  0  0  0  0  0  0  0  0
  145.2621  133.1124  151.6673 C   0  0  0  0  0  0  0  0  0  0  0  0
  149.2346  133.6317  155.7258 H   0  0  0  0  0  0  0  0  0  0  0  0
  150.5668  134.4875  155.0209 H   0  0  0  0  0  0  0  0  0  0  0  0
  147.8612  135.7379  154.6670 H   0  0  0  0  0  0  0  0  0  0  0  0
  147.7085  136.7902  156.8437 H   0  0  0  0  0  0  0  0  0  0  0  0
  150.2401  135.2808  157.5839 H   0  0  0  0  0  0  0  0  0  0  0  0
  149.9378  137.0074  157.8023 H   0  0  0  0  0  0  0  0  0  0  0  0
  149.4155  135.2527  159.8220 H   0  0  0  0  0  0  0  0  0  0  0  0
  148.3244  136.6077  159.5202 H   0  0  0  0  0  0  0  0  0  0  0  0
  146.5543  134.6702  157.0055 H   0  0  0  0  0  0  0  0  0  0  0  0
  148.0736  133.7743  157.0271 H   0  0  0  0  0  0  0  0  0  0  0  0
  147.8970  138.2730  154.6729 H   0  0  0  0  0  0  0  0  0  0  0  0
  148.9465  138.5386  156.0538 H   0  0  0  0  0  0  0  0  0  0  0  0
  149.6341  139.1497  153.1281 H   0  0  0  0  0  0  0  0  0  0  0  0
  149.3118  140.3197  154.3932 H   0  0  0  0  0  0  0  0  0  0  0  0
  151.6781  137.8439  153.2546 H   0  0  0  0  0  0  0  0  0  0  0  0
  152.7568  138.1105  154.6107 H   0  0  0  0  0  0  0  0  0  0  0  0
  151.1462  137.1149  156.1881 H   0  0  0  0  0  0  0  0  0  0  0  0
  151.4524  135.9817  154.8831 H   0  0  0  0  0  0  0  0  0  0  0  0
  147.9253  135.0914  152.0630 H   0  0  0  0  0  0  0  0  0  0  0  0
  146.0680  136.4183  151.3206 H   0  0  0  0  0  0  0  0  0  0  0  0
  143.7592  136.3671  150.2276 H   0  0  0  0  0  0  0  0  0  0  0  0
  143.3416  132.3158  150.9382 H   0  0  0  0  0  0  0  0  0  0  0  0
  145.6089  132.1724  152.0696 H   0  0  0  0  0  0  0  0  0  0  0  0
  149.5462  136.8152  153.7858 H   0  0  0  0  0  0  0  0  0  0  0  0
  142.6134  134.3572  150.1236 H   0  0  0  0  0  0  0  0  0  0  0  0
  1  2  2  0  0  0  0
  2  3  1  0  0  0  0
  2 17  1  0  0  0  0
  3  4  1  0  0  0  0
  4  5  1  0  0  0  0
  4 24  1  0  0  0  0
  4 25  1  0  0  0  0
  5  6  1  0  0  0  0
  5 11  1  0  0  0  0
  5 26  1  0  0  0  0
  6 10  1  0  0  0  0
  6  7  1  0  0  0  0
  6 27  1  0  0  0  0
  7  8  1  0  0  0  0
  7 28  1  0  0  0  0
  7 29  1  0  0  0  0
  8  9  1  0  0  0  0
  8 30  1  0  0  0  0
  8 31  1  0  0  0  0
  9 10  1  0  0  0  0
 10 32  1  0  0  0  0
 10 33  1  0  0  0  0
 11 16  1  0  0  0  0
 11 12  1  0  0  0  0
 11 47  1  0  0  0  0
 12 13  1  0  0  0  0
 12 34  1  0  0  0  0
 12 35  1  0  0  0  0
 13 14  1  0  0  0  0
 13 36  1  0  0  0  0
 13 37  1  0  0  0  0
 14 15  1  0  0  0  0
 15 16  1  0  0  0  0
 15 38  1  0  0  0  0
 15 39  1  0  0  0  0
 16 40  1  0  0  0  0
 16 41  1  0  0  0  0
 17 18  1  0  0  0  0
 17 42  1  0  0  0  0
 18 23  1  0  0  0  0
 18 19  2  0  0  0  0
 19 20  1  0  0  0  0
 19 43  1  0  0  0  0
 20 21  2  0  0  0  0
 20 44  1  0  0  0  0
 21 22  1  0  0  0  0
 21 48  1  0  0  0  0
 22 23  2  0  0  0  0
 22 45  1  0  0  0  0
 23 46  1  0  0  0  0
M  CHG  1   3  -1
M  CHG  1  11   1
M  CHG  1  21   1
M  END
> <s_m_source_file>
AV-unprocessed.smi

> <i_m_source_file_index>
1240

> <i_lp_mmshare_version>
43012

> <i_f3d_flags>
0

> <s_epik_input>
W2NIXTFbY0hdbltjSF1bY0hdYzFbTkhdQyg9TylbTkhdW0NIMl1bQ0BIXShbQ0BASF0yW0NIMl1bQ0gyXU9bQ0gyXTIpTjNbQ0gyXVtDSDJdT1tDSDJdW0NIMl0z

> <s_epik_cmdline>
J2VwaWtfcHl0aG9uJywgJy1waCcsICc3LjAnLCAnLXRuJywgJzgnLCAnLW1hJywgJzIwMCcsICctbWV0YWxfYmluZGluZycsICctaW1hZScsICc8aW5maWxlLm1hZT4nLCAnLW9tYWUnLCAnPG91dGZpbGUubWFlPic=

> <r_epik_Ionization_Penalty>
8.41087

> <r_epik_Ionization_Penalty_Charging>
8.41087

> <r_epik_Ionization_Penalty_Neutral>
3.12936e-06

> <r_epik_State_Penalty>
8.81894

> <r_epik_Charging_Adjusted_Penalty>
17.2298

> <i_epik_Tot_Q>
1

> <i_epik_Tot_abs_Q>
3

> <r_epik_Metal_State_Penalty>
4.82983

> <b_epik_Metal_Only>
1

> <s_lp_Force_Field>
OPLS_2005

> <r_lp_Energy>
48.6891

> <b_lp_Chiralities_Consistent>
1

> <s_lp_Variant>
AV-unprocessed.smi:1240-18

> <Gold.Version>
5.8.1

> <Gold.Id.Protein>
6NUR|6NUR_protein|mol2

> <Gold.PLP.Fitness>
48.6039

> <Gold.PLP.PLP>
-32.8477

> <Gold.PLP.part.hbond>
-4.0000

> <Gold.PLP.part.metal>
0.0000

> <Gold.PLP.part.buried>
-5.3760

> <Gold.PLP.part.nonpolar>
-24.6511

> <Gold.PLP.part.repulsive>
0.6868

> <Gold.PLP.ligand.clash>
0.0000

> <Gold.PLP.ligand.torsion>
1.4103

> <Gold.PLP.Chemscore.Hbond>
6.0000

> <Gold.PLP.Chemscore.CHOScore>
0.0000

> <Gold.PLP.Chemscore.Metal>
0.0000

> <Gold.Chemscore.Hbonds>
donor molecule, donor type, donor heavy atom, donor atom, acceptor molecule, acceptor atom, score
      L1  H    11    47       P1  7948  1.82
      L1  H    17    42       P1  7948  0.93
      L1  H    21    48       P1 10186  2.00
      P1  H  7989  7998       L1    14  0.80

> <Gold.PLP.Chemscore.Internal.Correction>
0.5768

> <Gold.Rescore>
     Score         DG    S(hbond)    S(metal)    S(lipo)     H(rot)  DE(clash)    DE(int)     intcor
     17.30     -20.54       3.43        0.00      68.18       1.70       0.17       3.07       ----

> <Gold.Chemscore.Fitness>
17.3036

> <Gold.Chemscore.DG>
-20.5431

> <Gold.Chemscore.ZeroCoef>
-5.4800

> <Gold.Chemscore.Hbond>
3.4263

> <Gold.Chemscore.Metal>
0.0000

> <Gold.Chemscore.Lipo>
68.1764

> <Gold.Chemscore.Internal_Hbond>
0.0000

> <Gold.Chemscore.DEClash>
0.1662

> <Gold.Chemscore.DEInternal>
3.0733

> <Gold.Chemscore.Rot>
1.7021

> <Gold.Chemscore.Internal.Correction>
   9.000000E+99

> <Gold.Chemscore.Hbonds>
donor molecule, donor type, donor heavy atom, donor atom, acceptor molecule, acceptor atom, score
      L1  H    11    47       P1  7948  0.71
      L1  H    17    42       P1  7948  0.66
      L1  H    21    48       P1 10186  0.85
      P1  H  7989  7998       L1    14  0.11

> <Gold.Chemscore.Hbond.Weighted>
-11.4439

> <Gold.Chemscore.Metal.Weighted>
-0.0000

> <Gold.Chemscore.Lipo.Weighted>
-7.9766

> <Gold.Chemscore.Internal_Hbond.Weighted>
0.0000

> <Gold.Chemscore.DEClash.Weighted>
0.1662

> <Gold.Chemscore.DEInternal.Weighted>
3.0733

> <Gold.Chemscore.Rot.Weighted>
4.3575

> <Gold.Chemscore.Internal.Correction.Weighted>
   9.000000E+99

> <Gold.Protein.RotatedTorsions>
[ 6907 6896 6895 6894 ] final -140.56 input  -60.11 | X-H torsion
[ 7974 7965 7964 7962 ] final  139.03 input  175.53 | X-H torsion
[ 8008 7997 7996 7995 ] final -111.98 input   59.86 | X-H torsion
[ 10167 10162 10161 10158 ] final  108.30 input  -65.29 | X-H torsion
[ 10718 10713 10712 10709 ] final  161.69 input   66.30 | X-H torsion
[ 10763 10752 10751 10750 ] final   53.02 input  -60.55 | X-H torsion
[ 11005 11000 10999 10996 ] final -123.19 input  -57.11 | X-H torsion

> <Gold.Protein.ActiveResidues>
 VAL166  LYS551  ARG553  GLY616  TRP617  ASP618  TYR619  PRO620  LYS621  CYS622 
 ASP623  PHE694  ASN695  SER759  ASP760  ASP761  ALA762  ILE779  LEU786  VAL792 
 PHE793  MET794  SER795  GLU796  ALA797  LYS798  CYS799  TRP800  GLU811  SER814 

> <Gold.Protein.RotatedAtoms>
  151.0623  133.5534  159.2633 H   0  0  0  0  0  0  0  0  0  0  0  0  # atno 6907 bound_to 6896
  151.2505  135.0619  159.9070 H   0  0  0  0  0  0  0  0  0  0  0  0  # atno 6908 bound_to 6896
  152.5399  134.0384  159.8110 H   0  0  0  0  0  0  0  0  0  0  0  0  # atno 6909 bound_to 6896
  144.9317  139.5039  143.5614 H   0  0  0  0  0  0  0  0  0  0  0  0  # atno 7974 bound_to 7965
  154.9981  140.0394  157.2348 H   0  0  0  0  0  0  0  0  0  0  0  0  # atno 8008 bound_to 7997
  154.7568  140.2777  155.6224 H   0  0  0  0  0  0  0  0  0  0  0  0  # atno 8009 bound_to 7997
  156.2896  140.2636  156.2336 H   0  0  0  0  0  0  0  0  0  0  0  0  # atno 8010 bound_to 7997
  139.6857  144.7113  151.1436 H   0  0  0  0  0  0  0  0  0  0  0  0  # atno 10167 bound_to 10162
  157.1330  131.0521  151.2363 H   0  0  0  0  0  0  0  0  0  0  0  0  # atno 10718 bound_to 10713
  152.9792  135.5793  154.4674 H   0  0  0  0  0  0  0  0  0  0  0  0  # atno 10763 bound_to 10752
  154.4241  135.2772  155.1958 H   0  0  0  0  0  0  0  0  0  0  0  0  # atno 10764 bound_to 10752
  154.3694  135.6171  153.5786 H   0  0  0  0  0  0  0  0  0  0  0  0  # atno 10765 bound_to 10752
  140.9938  134.0501  157.3622 H   0  0  0  0  0  0  0  0  0  0  0  0  # atno 11005 bound_to 11000
  146.3249  139.8272  142.8915 LP  0  0  0  0  0  0  0  0  0  0  0  0  # atno 17320 bound_to 7965
  145.3131  141.0225  143.3543 LP  0  0  0  0  0  0  0  0  0  0  0  0  # atno 17321 bound_to 7965
  140.7667  143.5633  150.9075 LP  0  0  0  0  0  0  0  0  0  0  0  0  # atno 17342 bound_to 10162
  139.9307  143.6496  152.3077 LP  0  0  0  0  0  0  0  0  0  0  0  0  # atno 17343 bound_to 10162
  157.4376  130.7525  149.7042 LP  0  0  0  0  0  0  0  0  0  0  0  0  # atno 17370 bound_to 10713
  155.9804  130.4030  150.3531 LP  0  0  0  0  0  0  0  0  0  0  0  0  # atno 17371 bound_to 10713
  139.9005  135.0162  156.7243 LP  0  0  0  0  0  0  0  0  0  0  0  0  # atno 17394 bound_to 11000
  140.6999  133.9316  155.8017 LP  0  0  0  0  0  0  0  0  0  0  0  0  # atno 17395 bound_to 11000

$$$$
