AV-unprocessed.smi:775|AV-procd|sdf|3695|dock5
  -GOLD-   22720 1113D 1   1.00000     0.00000
 Structure written by MMmdl.
 39 40  0  0  0  0  0  0  0  0  2 V2000
  152.0134  144.3987  157.7055 C   0  0  0  0  0  0  0  0  0  0  0  0
  151.2006  143.1144  157.9327 C   0  0  2  0  0  0  0  0  0  0  0  0
  151.9920  142.0362  158.7130 C   0  0  0  0  0  0  0  0  0  0  0  0
  152.3463  142.4352  160.0657 N   0  0  0  0  0  0  0  0  0  0  0  0
  153.1093  141.7503  160.9894 C   0  0  0  0  0  0  0  0  0  0  0  0
  153.1661  142.5162  162.1182 C   0  0  0  0  0  0  0  0  0  0  0  0
  152.3911  143.6629  161.7882 C   0  0  0  0  0  0  0  0  0  0  0  0
  151.9009  143.6101  160.5603 N   0  0  0  0  0  0  0  0  0  0  0  0
  150.7021  142.6120  156.6319 N   0  3  0  0  0  0  0  0  0  0  0  0
  149.5932  141.6342  156.7040 C   0  0  0  0  0  0  0  0  0  0  0  0
  149.6316  140.6199  155.5502 C   0  0  0  0  0  0  0  0  0  0  0  0
  150.6664  140.5209  154.8883 O   0  0  0  0  0  0  0  0  0  0  0  0
  148.5324  139.8666  155.2961 N   0  0  0  0  0  0  0  0  0  0  0  0
  148.4244  138.8906  154.2066 C   0  0  0  0  0  0  0  0  0  0  0  0
  147.4343  139.4382  153.1640 C   0  0  0  0  0  0  0  0  0  0  0  0
  146.2117  139.9544  153.7821 N   0  0  0  0  0  0  0  0  0  0  0  0
  146.0672  140.2550  155.0863 C   0  0  0  0  0  0  0  0  0  0  0  0
  145.0058  140.6788  155.5370 O   0  0  0  0  0  0  0  0  0  0  0  0
  147.2705  140.0598  156.0292 C   0  0  0  0  0  0  0  0  0  0  0  0
  152.4019  144.7894  158.6464 H   0  0  0  0  0  0  0  0  0  0  0  0
  151.3955  145.1781  157.2579 H   0  0  0  0  0  0  0  0  0  0  0  0
  152.8603  144.2306  157.0396 H   0  0  0  0  0  0  0  0  0  0  0  0
  150.3322  143.3906  158.5325 H   0  0  0  0  0  0  0  0  0  0  0  0
  151.4041  141.1186  158.7678 H   0  0  0  0  0  0  0  0  0  0  0  0
  152.9064  141.7641  158.1859 H   0  0  0  0  0  0  0  0  0  0  0  0
  153.5448  140.7864  160.7703 H   0  0  0  0  0  0  0  0  0  0  0  0
  153.6794  142.2903  163.0413 H   0  0  0  0  0  0  0  0  0  0  0  0
  152.1709  144.5254  162.4001 H   0  0  0  0  0  0  0  0  0  0  0  0
  150.3669  143.4042  156.1022 H   0  0  0  0  0  0  0  0  0  0  0  0
  149.6511  141.0918  157.6473 H   0  0  0  0  0  0  0  0  0  0  0  0
  148.6448  142.1724  156.6773 H   0  0  0  0  0  0  0  0  0  0  0  0
  149.3680  138.6281  153.7310 H   0  0  0  0  0  0  0  0  0  0  0  0
  148.0405  137.9571  154.6213 H   0  0  0  0  0  0  0  0  0  0  0  0
  147.8977  140.2490  152.6005 H   0  0  0  0  0  0  0  0  0  0  0  0
  147.1733  138.6614  152.4449 H   0  0  0  0  0  0  0  0  0  0  0  0
  145.4137  140.0869  153.1771 H   0  0  0  0  0  0  0  0  0  0  0  0
  147.0873  139.1780  156.6439 H   0  0  0  0  0  0  0  0  0  0  0  0
  147.2983  140.9087  156.7140 H   0  0  0  0  0  0  0  0  0  0  0  0
  151.4722  142.1988  156.1250 H   0  0  0  0  0  0  0  0  0  0  0  0
  1  2  1  0  0  0  0
  1 20  1  0  0  0  0
  1 21  1  0  0  0  0
  1 22  1  0  0  0  0
  2  3  1  0  0  0  0
  2  9  1  0  0  0  0
  2 23  1  0  0  0  0
  3  4  1  0  0  0  0
  3 24  1  0  0  0  0
  3 25  1  0  0  0  0
  4  8  1  0  0  0  0
  4  5  1  0  0  0  0
  5  6  2  0  0  0  0
  5 26  1  0  0  0  0
  6  7  1  0  0  0  0
  6 27  1  0  0  0  0
  7  8  2  0  0  0  0
  7 28  1  0  0  0  0
  9 10  1  0  0  0  0
  9 29  1  0  0  0  0
  9 39  1  0  0  0  0
 10 11  1  0  0  0  0
 10 30  1  0  0  0  0
 10 31  1  0  0  0  0
 11 12  2  0  0  0  0
 11 13  1  0  0  0  0
 13 19  1  0  0  0  0
 13 14  1  0  0  0  0
 14 15  1  0  0  0  0
 14 32  1  0  0  0  0
 14 33  1  0  0  0  0
 15 16  1  0  0  0  0
 15 34  1  0  0  0  0
 15 35  1  0  0  0  0
 16 17  1  0  0  0  0
 16 36  1  0  0  0  0
 17 18  2  0  0  0  0
 17 19  1  0  0  0  0
 19 37  1  0  0  0  0
 19 38  1  0  0  0  0
M  CHG  1   9   1
M  END
> <s_m_source_file>
AV-unprocessed.smi

> <i_m_source_file_index>
775

> <i_lp_mmshare_version>
43012

> <i_f3d_flags>
0

> <s_epik_input>
bjFbY0hdW2NIXVtjSF1uMVtDSDJdW0NAQEhdKFtDSDNdKVtOSF1bQ0gyXUMoPU8pTjJbQ0gyXVtDSDJdW05IXUMoPU8pW0NIMl0y

> <s_epik_cmdline>
J2VwaWtfcHl0aG9uJywgJy1waCcsICc3LjAnLCAnLXRuJywgJzgnLCAnLW1hJywgJzIwMCcsICctbWV0YWxfYmluZGluZycsICctaW1hZScsICc8aW5maWxlLm1hZT4nLCAnLW9tYWUnLCAnPG91dGZpbGUubWFlPic=

> <r_lp_tautomer_probability>
1

> <r_epik_Ionization_Penalty>
0.165651

> <r_epik_Ionization_Penalty_Charging>
0.165647

> <r_epik_Ionization_Penalty_Neutral>
3.4358e-06

> <r_epik_State_Penalty>
0.15499

> <r_epik_Charging_Adjusted_Penalty>
0.320637

> <i_epik_Tot_Q>
1

> <i_epik_Tot_abs_Q>
1

> <r_epik_Metal_State_Penalty>
0.155003

> <b_epik_Metal_Only>
0

> <s_lp_Force_Field>
OPLS_2005

> <r_lp_Energy>
21.6432

> <b_lp_Chiralities_Consistent>
1

> <s_lp_Variant>
AV-unprocessed.smi:775-1

> <Gold.Version>
5.8.1

> <Gold.Id.Protein>
6NUR|6NUR_protein|mol2

> <Gold.PLP.Fitness>
48.4288

> <Gold.PLP.PLP>
-37.4642

> <Gold.PLP.part.hbond>
-3.0000

> <Gold.PLP.part.metal>
0.0000

> <Gold.PLP.part.buried>
-4.8321

> <Gold.PLP.part.nonpolar>
-29.3246

> <Gold.PLP.part.repulsive>
0.3193

> <Gold.PLP.ligand.clash>
0.0000

> <Gold.PLP.ligand.torsion>
0.5424

> <Gold.PLP.Chemscore.Hbond>
4.0000

> <Gold.PLP.Chemscore.CHOScore>
0.0000

> <Gold.PLP.Chemscore.Metal>
0.0000

> <Gold.Chemscore.Hbonds>
donor molecule, donor type, donor heavy atom, donor atom, acceptor molecule, acceptor atom, score
      L1  H     9    29       P1  8028  2.00
      L1  H    16    36       P1 10175  1.00
      P1  H  7989  7998       L1    12  1.00

> <Gold.PLP.Chemscore.Internal.Correction>
0.0494

> <Gold.Rescore>
     Score         DG    S(hbond)    S(metal)    S(lipo)     H(rot)  DE(clash)    DE(int)     intcor
     18.99     -19.66       2.94        0.00      84.98       2.18       0.02       0.65       ----

> <Gold.Chemscore.Fitness>
18.9944

> <Gold.Chemscore.DG>
-19.6619

> <Gold.Chemscore.ZeroCoef>
-5.4800

> <Gold.Chemscore.Hbond>
2.9422

> <Gold.Chemscore.Metal>
0.0000

> <Gold.Chemscore.Lipo>
84.9813

> <Gold.Chemscore.Internal_Hbond>
0.0000

> <Gold.Chemscore.DEClash>
0.0195

> <Gold.Chemscore.DEInternal>
0.6480

> <Gold.Chemscore.Rot>
2.1828

> <Gold.Chemscore.Internal.Correction>
   9.000000E+99

> <Gold.Chemscore.Hbonds>
donor molecule, donor type, donor heavy atom, donor atom, acceptor molecule, acceptor atom, score
      L1  H     9    29       P1  8028  0.90
      L1  H    16    36       P1 10175  1.00
      P1  H  7989  7998       L1    12  0.95

> <Gold.Chemscore.Hbond.Weighted>
-9.8271

> <Gold.Chemscore.Metal.Weighted>
-0.0000

> <Gold.Chemscore.Lipo.Weighted>
-9.9428

> <Gold.Chemscore.Internal_Hbond.Weighted>
0.0000

> <Gold.Chemscore.DEClash.Weighted>
0.0195

> <Gold.Chemscore.DEInternal.Weighted>
0.6480

> <Gold.Chemscore.Rot.Weighted>
5.5880

> <Gold.Chemscore.Internal.Correction.Weighted>
   9.000000E+99

> <Gold.Protein.RotatedTorsions>
[ 6907 6896 6895 6894 ] final  138.21 input  -60.11 | X-H torsion
[ 7974 7965 7964 7962 ] final -139.30 input  175.53 | X-H torsion
[ 8008 7997 7996 7995 ] final    7.88 input   59.86 | X-H torsion
[ 10167 10162 10161 10158 ] final -115.95 input  -65.29 | X-H torsion
[ 10718 10713 10712 10709 ] final -109.61 input   66.30 | X-H torsion
[ 10763 10752 10751 10750 ] final  -71.08 input  -60.55 | X-H torsion
[ 11005 11000 10999 10996 ] final  -64.04 input  -57.11 | X-H torsion

> <Gold.Protein.ActiveResidues>
 VAL166  LYS551  ARG553  GLY616  TRP617  ASP618  TYR619  PRO620  LYS621  CYS622 
 ASP623  PHE694  ASN695  SER759  ASP760  ASP761  ALA762  ILE779  LEU786  VAL792 
 PHE793  MET794  SER795  GLU796  ALA797  LYS798  CYS799  TRP800  GLU811  SER814 

> <Gold.Protein.RotatedAtoms>
  152.2692  133.5367  159.5428 H   0  0  0  0  0  0  0  0  0  0  0  0  # atno 6907 bound_to 6896
  150.7153  134.0721  159.3877 H   0  0  0  0  0  0  0  0  0  0  0  0  # atno 6908 bound_to 6896
  151.8636  135.0515  160.0523 H   0  0  0  0  0  0  0  0  0  0  0  0  # atno 6909 bound_to 6896
  144.8688  140.6335  143.5280 H   0  0  0  0  0  0  0  0  0  0  0  0  # atno 7974 bound_to 7965
  154.7595  140.2782  155.6225 H   0  0  0  0  0  0  0  0  0  0  0  0  # atno 8008 bound_to 7997
  156.2913  140.2662  156.2297 H   0  0  0  0  0  0  0  0  0  0  0  0  # atno 8009 bound_to 7997
  155.0035  140.0372  157.2359 H   0  0  0  0  0  0  0  0  0  0  0  0  # atno 8010 bound_to 7997
  140.0846  143.4756  152.1906 H   0  0  0  0  0  0  0  0  0  0  0  0  # atno 10167 bound_to 10162
  156.0546  130.5772  150.8123 H   0  0  0  0  0  0  0  0  0  0  0  0  # atno 10718 bound_to 10713
  154.4267  135.5973  153.6043 H   0  0  0  0  0  0  0  0  0  0  0  0  # atno 10763 bound_to 10752
  152.9796  135.5965  154.3889 H   0  0  0  0  0  0  0  0  0  0  0  0  # atno 10764 bound_to 10752
  154.3721  135.2841  155.2239 H   0  0  0  0  0  0  0  0  0  0  0  0  # atno 10765 bound_to 10752
  141.1412  133.6660  156.5773 H   0  0  0  0  0  0  0  0  0  0  0  0  # atno 11005 bound_to 11000
  145.4170  139.1570  143.4095 LP  0  0  0  0  0  0  0  0  0  0  0  0  # atno 17320 bound_to 7965
  146.2915  140.4278  142.8737 LP  0  0  0  0  0  0  0  0  0  0  0  0  # atno 17321 bound_to 7965
  139.5760  144.7487  151.3764 LP  0  0  0  0  0  0  0  0  0  0  0  0  # atno 17342 bound_to 10162
  140.7060  143.7512  150.7483 LP  0  0  0  0  0  0  0  0  0  0  0  0  # atno 17343 bound_to 10162
  157.5504  131.0943  150.9703 LP  0  0  0  0  0  0  0  0  0  0  0  0  # atno 17370 bound_to 10713
  156.9964  130.5583  149.5307 LP  0  0  0  0  0  0  0  0  0  0  0  0  # atno 17371 bound_to 10713
  140.3866  134.7477  157.4695 LP  0  0  0  0  0  0  0  0  0  0  0  0  # atno 17394 bound_to 11000
  140.0598  134.6012  155.8762 LP  0  0  0  0  0  0  0  0  0  0  0  0  # atno 17395 bound_to 11000

$$$$
