AV-unprocessed.smi:2734|AV-procd|sdf|10539|dock9
  -GOLD-   2272014583D 1   1.00000     0.00000
 Structure written by MMmdl.
 41 43  0  0  0  0  0  0  0  0  2 V2000
  152.4167  143.0933  160.5840 C   0  0  0  0  0  0  0  0  0  0  0  0
  152.1138  142.3144  159.3153 C   0  0  0  0  0  0  0  0  0  0  0  0
  151.0810  142.7789  158.4697 C   0  0  0  0  0  0  0  0  0  0  0  0
  150.8298  142.0478  157.3148 C   0  0  0  0  0  0  0  0  0  0  0  0
  149.8978  142.2413  156.2926 N   0  3  0  0  0  0  0  0  0  0  0  0
  150.0343  141.2572  155.3610 C   0  0  0  0  0  0  0  0  0  0  0  0
  151.0395  140.4388  155.7743 N   0  0  0  0  0  0  0  0  0  0  0  0
  151.5996  139.2375  155.1419 C   0  0  0  0  0  0  0  0  0  0  0  0
  151.4659  137.9813  156.0246 C   0  0  2  0  0  0  0  0  0  0  0  0
  151.6116  136.8248  155.2222 O   0  0  0  0  0  0  0  0  0  0  0  0
  150.1118  137.9296  156.7494 C   0  0  0  0  0  0  0  0  0  0  0  0
  149.7467  136.2677  157.3931 S   0  0  0  0  0  0  0  0  0  0  0  0
  149.1014  136.6934  158.9814 C   0  0  0  0  0  0  0  0  0  0  0  0
  149.6485  136.4177  160.1599 N   0  0  0  0  0  0  0  0  0  0  0  0
  148.7643  136.9580  161.0743 N   0  0  0  0  0  0  0  0  0  0  0  0
  147.7535  137.5195  160.4775 N   0  0  0  0  0  0  0  0  0  0  0  0
  147.9522  137.3604  159.1465 N   0  0  0  0  0  0  0  0  0  0  0  0
  147.0026  137.8757  158.1804 C   0  0  0  0  0  0  0  0  0  0  0  0
  151.5644  140.8915  156.9888 C   0  0  0  0  0  0  0  0  0  0  0  0
  152.5837  140.4182  157.8110 C   0  0  0  0  0  0  0  0  0  0  0  0
  152.8541  141.1476  158.9911 C   0  0  0  0  0  0  0  0  0  0  0  0
  153.9614  140.6562  159.9080 C   0  0  0  0  0  0  0  0  0  0  0  0
  151.8033  143.9920  160.6567 H   0  0  0  0  0  0  0  0  0  0  0  0
  153.4619  143.4024  160.6053 H   0  0  0  0  0  0  0  0  0  0  0  0
  152.2176  142.4815  161.4640 H   0  0  0  0  0  0  0  0  0  0  0  0
  150.5128  143.6654  158.7107 H   0  0  0  0  0  0  0  0  0  0  0  0
  149.4554  141.1489  154.4550 H   0  0  0  0  0  0  0  0  0  0  0  0
  151.1093  139.0944  154.1781 H   0  0  0  0  0  0  0  0  0  0  0  0
  152.6501  139.4400  154.9278 H   0  0  0  0  0  0  0  0  0  0  0  0
  152.2650  137.9777  156.7667 H   0  0  0  0  0  0  0  0  0  0  0  0
  150.9220  136.8212  154.5754 H   0  0  0  0  0  0  0  0  0  0  0  0
  150.1204  138.6266  157.5881 H   0  0  0  0  0  0  0  0  0  0  0  0
  149.3112  138.2435  156.0780 H   0  0  0  0  0  0  0  0  0  0  0  0
  146.6478  137.0631  157.5462 H   0  0  0  0  0  0  0  0  0  0  0  0
  147.4865  138.6289  157.5582 H   0  0  0  0  0  0  0  0  0  0  0  0
  146.1485  138.3284  158.6859 H   0  0  0  0  0  0  0  0  0  0  0  0
  153.1484  139.5323  157.5609 H   0  0  0  0  0  0  0  0  0  0  0  0
  154.3737  139.7077  159.5625 H   0  0  0  0  0  0  0  0  0  0  0  0
  153.5857  140.5045  160.9201 H   0  0  0  0  0  0  0  0  0  0  0  0
  154.7751  141.3810  159.9447 H   0  0  0  0  0  0  0  0  0  0  0  0
  149.2198  142.9900  156.2304 H   0  0  0  0  0  0  0  0  0  0  0  0
  1  2  1  0  0  0  0
  1 23  1  0  0  0  0
  1 24  1  0  0  0  0
  1 25  1  0  0  0  0
  2 21  1  0  0  0  0
  2  3  2  0  0  0  0
  3  4  1  0  0  0  0
  3 26  1  0  0  0  0
  4 19  2  0  0  0  0
  4  5  1  0  0  0  0
  5  6  2  0  0  0  0
  5 41  1  0  0  0  0
  6  7  1  0  0  0  0
  6 27  1  0  0  0  0
  7  8  1  0  0  0  0
  7 19  1  0  0  0  0
  8  9  1  0  0  0  0
  8 28  1  0  0  0  0
  8 29  1  0  0  0  0
  9 10  1  0  0  0  0
  9 11  1  0  0  0  0
  9 30  1  0  0  0  0
 10 31  1  0  0  0  0
 11 12  1  0  0  0  0
 11 32  1  0  0  0  0
 11 33  1  0  0  0  0
 12 13  1  0  0  0  0
 13 17  1  0  0  0  0
 13 14  2  0  0  0  0
 14 15  1  0  0  0  0
 15 16  2  0  0  0  0
 16 17  1  0  0  0  0
 17 18  1  0  0  0  0
 18 34  1  0  0  0  0
 18 35  1  0  0  0  0
 18 36  1  0  0  0  0
 19 20  1  0  0  0  0
 20 21  2  0  0  0  0
 20 37  1  0  0  0  0
 21 22  1  0  0  0  0
 22 38  1  0  0  0  0
 22 39  1  0  0  0  0
 22 40  1  0  0  0  0
M  CHG  1   5   1
M  END
> <s_m_source_file>
AV-unprocessed.smi

> <i_m_source_file_index>
2734

> <i_lp_mmshare_version>
43012

> <i_f3d_flags>
0

> <s_epik_input>
W0NIM11jKFtjSF0xKWMoW0NIM10pW2NIXWMoYzEyKW4oW2NIXW4yKVtDSDJdW0NASF0oW09IXSlbQ0gyXVNjM25ubm4zW0NIM10=

> <s_epik_cmdline>
J2VwaWtfcHl0aG9uJywgJy1waCcsICc3LjAnLCAnLXRuJywgJzgnLCAnLW1hJywgJzIwMCcsICctbWV0YWxfYmluZGluZycsICctaW1hZScsICc8aW5maWxlLm1hZT4nLCAnLW9tYWUnLCAnPG91dGZpbGUubWFlPic=

> <r_lp_tautomer_probability>
1

> <r_epik_Ionization_Penalty>
1.07429

> <r_epik_Ionization_Penalty_Charging>
1.07429

> <r_epik_Ionization_Penalty_Neutral>
3.30514e-06

> <r_epik_State_Penalty>
1.12915

> <r_epik_Charging_Adjusted_Penalty>
2.20344

> <i_epik_Tot_Q>
1

> <i_epik_Tot_abs_Q>
1

> <r_epik_Metal_State_Penalty>
1.22002

> <b_epik_Metal_Only>
0

> <s_lp_Force_Field>
OPLS_2005

> <r_lp_Energy>
14.6731

> <b_lp_Chiralities_Consistent>
1

> <s_lp_Variant>
AV-unprocessed.smi:2734-3

> <Gold.Version>
5.8.1

> <Gold.Id.Protein>
6NUR|6NUR_protein|mol2

> <Gold.PLP.Fitness>
52.5121

> <Gold.PLP.PLP>
-36.1154

> <Gold.PLP.part.hbond>
-5.6732

> <Gold.PLP.part.metal>
0.0000

> <Gold.PLP.part.buried>
-2.8473

> <Gold.PLP.part.nonpolar>
-27.1488

> <Gold.PLP.part.repulsive>
0.0851

> <Gold.PLP.ligand.clash>
0.0000

> <Gold.PLP.ligand.torsion>
0.6614

> <Gold.PLP.Chemscore.Hbond>
5.9030

> <Gold.PLP.Chemscore.CHOScore>
0.0000

> <Gold.PLP.Chemscore.Metal>
0.0000

> <Gold.Chemscore.Hbonds>
donor molecule, donor type, donor heavy atom, donor atom, acceptor molecule, acceptor atom, score
      L1  H     5    41       P1  8028  1.86
      P1  H  6896  6907       L1    14  1.00
      P1  H  6931  6943       L1    15  0.60
      P1  H  6934  6947       L1    16  0.82
      P1  H 10752 10765       L1    10  0.98

> <Gold.PLP.Chemscore.Internal.Correction>
0.0106

> <Gold.Rescore>
     Score         DG    S(hbond)    S(metal)    S(lipo)     H(rot)  DE(clash)    DE(int)     intcor
     18.62     -19.52       3.58        0.00      81.57       2.92       0.22       0.69       ----

> <Gold.Chemscore.Fitness>
18.6173

> <Gold.Chemscore.DG>
-19.5205

> <Gold.Chemscore.ZeroCoef>
-5.4800

> <Gold.Chemscore.Hbond>
3.5815

> <Gold.Chemscore.Metal>
0.0000

> <Gold.Chemscore.Lipo>
81.5736

> <Gold.Chemscore.Internal_Hbond>
0.0000

> <Gold.Chemscore.DEClash>
0.2176

> <Gold.Chemscore.DEInternal>
0.6855

> <Gold.Chemscore.Rot>
2.9164

> <Gold.Chemscore.Internal.Correction>
   9.000000E+99

> <Gold.Chemscore.Hbonds>
donor molecule, donor type, donor heavy atom, donor atom, acceptor molecule, acceptor atom, score
      L1  H     5    41       P1  8028  0.91
      P1  H  6896  6907       L1    14  0.32
      P1  H  6931  6943       L1    15  0.04
      P1  H  6934  6947       L1    16  0.71
      P1  H 10752 10765       L1    10  0.27

> <Gold.Chemscore.Hbond.Weighted>
-11.9623

> <Gold.Chemscore.Metal.Weighted>
-0.0000

> <Gold.Chemscore.Lipo.Weighted>
-9.5441

> <Gold.Chemscore.Internal_Hbond.Weighted>
0.0000

> <Gold.Chemscore.DEClash.Weighted>
0.2176

> <Gold.Chemscore.DEInternal.Weighted>
0.6855

> <Gold.Chemscore.Rot.Weighted>
7.4660

> <Gold.Chemscore.Internal.Correction.Weighted>
   9.000000E+99

> <Gold.Protein.RotatedTorsions>
[ 6907 6896 6895 6894 ] final  -50.13 input  -60.11 | X-H torsion
[ 7974 7965 7964 7962 ] final   99.69 input  175.53 | X-H torsion
[ 8008 7997 7996 7995 ] final  -29.81 input   59.86 | X-H torsion
[ 10167 10162 10161 10158 ] final   42.43 input  -65.29 | X-H torsion
[ 10718 10713 10712 10709 ] final -160.53 input   66.30 | X-H torsion
[ 10763 10752 10751 10750 ] final  163.92 input  -60.55 | X-H torsion
[ 11005 11000 10999 10996 ] final  -60.88 input  -57.11 | X-H torsion

> <Gold.Protein.ActiveResidues>
 VAL166  LYS551  ARG553  GLY616  TRP617  ASP618  TYR619  PRO620  LYS621  CYS622 
 ASP623  PHE694  ASN695  SER759  ASP760  ASP761  ALA762  ILE779  LEU786  VAL792 
 PHE793  MET794  SER795  GLU796  ALA797  LYS798  CYS799  TRP800  GLU811  SER814 

> <Gold.Protein.RotatedAtoms>
  150.8737  134.8116  159.7173 H   0  0  0  0  0  0  0  0  0  0  0  0  # atno 6907 bound_to 6896
  152.4732  134.4905  159.9703 H   0  0  0  0  0  0  0  0  0  0  0  0  # atno 6908 bound_to 6896
  151.4990  133.3470  159.2901 H   0  0  0  0  0  0  0  0  0  0  0  0  # atno 6909 bound_to 6896
  145.3955  139.2356  143.3329 H   0  0  0  0  0  0  0  0  0  0  0  0  # atno 7974 bound_to 7965
  154.4275  140.1808  156.1306 H   0  0  0  0  0  0  0  0  0  0  0  0  # atno 8008 bound_to 7997
  156.0070  140.3354  155.6878 H   0  0  0  0  0  0  0  0  0  0  0  0  # atno 8009 bound_to 7997
  155.6163  140.0655  157.2682 H   0  0  0  0  0  0  0  0  0  0  0  0  # atno 8010 bound_to 7997
  140.3545  144.2308  150.6143 H   0  0  0  0  0  0  0  0  0  0  0  0  # atno 10167 bound_to 10162
  156.5834  130.8739  151.2870 H   0  0  0  0  0  0  0  0  0  0  0  0  # atno 10718 bound_to 10713
  154.3011  135.2759  155.2610 H   0  0  0  0  0  0  0  0  0  0  0  0  # atno 10763 bound_to 10752
  154.5047  135.5798  153.6562 H   0  0  0  0  0  0  0  0  0  0  0  0  # atno 10764 bound_to 10752
  152.9900  135.6166  154.3181 H   0  0  0  0  0  0  0  0  0  0  0  0  # atno 10765 bound_to 10752
  141.1304  133.6625  156.5291 H   0  0  0  0  0  0  0  0  0  0  0  0  # atno 11005 bound_to 11000
  146.2777  140.4644  142.8789 LP  0  0  0  0  0  0  0  0  0  0  0  0  # atno 17320 bound_to 7965
  144.8410  140.6858  143.6229 LP  0  0  0  0  0  0  0  0  0  0  0  0  # atno 17321 bound_to 7965
  140.5187  143.2271  151.8423 LP  0  0  0  0  0  0  0  0  0  0  0  0  # atno 17342 bound_to 10162
  139.4822  144.4863  151.9242 LP  0  0  0  0  0  0  0  0  0  0  0  0  # atno 17343 bound_to 10162
  157.7321  130.9710  150.1912 LP  0  0  0  0  0  0  0  0  0  0  0  0  # atno 17370 bound_to 10713
  156.2612  130.3711  149.8129 LP  0  0  0  0  0  0  0  0  0  0  0  0  # atno 17371 bound_to 10713
  140.4230  134.7170  157.4900 LP  0  0  0  0  0  0  0  0  0  0  0  0  # atno 17394 bound_to 11000
  140.0346  134.6355  155.9060 LP  0  0  0  0  0  0  0  0  0  0  0  0  # atno 17395 bound_to 11000

$$$$
