AV-unprocessed.smi:1550|AV-procd|sdf|6231|dock9
  -GOLD-   22720 6413D 1   1.00000     0.00000
 Structure written by MMmdl.
 42 43  0  0  0  0  0  0  0  0  2 V2000
  147.7890  140.5786  155.4036 C   0  0  0  0  0  0  0  0  0  0  0  0
  148.8713  140.0817  156.3733 C   0  0  1  0  0  0  0  0  0  0  0  0
  149.3987  141.2207  157.0478 O   0  0  0  0  0  0  0  0  0  0  0  0
  150.5749  140.9855  157.8144 C   0  0  0  0  0  0  0  0  0  0  0  0
  150.9709  142.2855  158.5261 C   0  0  1  0  0  0  0  0  0  0  0  0
  152.4131  142.2368  159.0691 C   0  0  0  0  0  0  0  0  0  0  0  0
  152.8017  143.5822  159.6916 C   0  0  0  0  0  0  0  0  0  0  0  0
  152.5423  144.7092  158.6867 C   0  0  0  0  0  0  0  0  0  0  0  0
  151.0975  144.6381  158.1670 C   0  0  0  0  0  0  0  0  0  0  0  0
  150.8495  143.3578  157.5936 O   0  0  0  0  0  0  0  0  0  0  0  0
  148.2940  139.0826  157.3891 C   0  0  0  0  0  0  0  0  0  0  0  0
  147.3325  139.4150  158.0820 O   0  0  0  0  0  0  0  0  0  0  0  0
  148.9333  137.8983  157.4578 N   0  0  0  0  0  0  0  0  0  0  0  0
  148.6694  136.7781  158.2645 C   0  0  0  0  0  0  0  0  0  0  0  0
  148.0464  136.8156  159.4753 C   0  0  0  0  0  0  0  0  0  0  0  0
  147.7923  135.6137  160.2600 C   0  0  0  0  0  0  0  0  0  0  0  0
  147.1950  135.6291  161.6560 C   0  0  0  0  0  0  0  0  0  0  0  0
  145.9750  136.1636  161.6215 F   0  0  0  0  0  0  0  0  0  0  0  0
  147.0938  134.3940  162.1483 F   0  0  0  0  0  0  0  0  0  0  0  0
  147.9431  136.3536  162.4881 F   0  0  0  0  0  0  0  0  0  0  0  0
  148.2588  134.4727  159.6367 C   0  0  0  0  0  0  0  0  0  0  0  0
  148.8567  134.3452  158.4320 N   0  5  0  0  0  0  0  0  0  0  0  0
  149.0893  135.4755  157.7071 C   0  0  0  0  0  0  0  0  0  0  0  0
  149.6368  135.4320  156.6047 O   0  0  0  0  0  0  0  0  0  0  0  0
  147.3306  139.7494  154.8633 H   0  0  0  0  0  0  0  0  0  0  0  0
  148.2156  141.2567  154.6642 H   0  0  0  0  0  0  0  0  0  0  0  0
  146.9977  141.1178  155.9260 H   0  0  0  0  0  0  0  0  0  0  0  0
  149.6627  139.6075  155.7889 H   0  0  0  0  0  0  0  0  0  0  0  0
  150.4335  140.1886  158.5456 H   0  0  0  0  0  0  0  0  0  0  0  0
  151.3779  140.6731  157.1455 H   0  0  0  0  0  0  0  0  0  0  0  0
  150.2717  142.4606  159.3456 H   0  0  0  0  0  0  0  0  0  0  0  0
  152.5139  141.4417  159.8086 H   0  0  0  0  0  0  0  0  0  0  0  0
  153.1032  141.9982  158.2587 H   0  0  0  0  0  0  0  0  0  0  0  0
  152.2146  143.7525  160.5948 H   0  0  0  0  0  0  0  0  0  0  0  0
  153.8492  143.5739  159.9937 H   0  0  0  0  0  0  0  0  0  0  0  0
  152.7315  145.6784  159.1488 H   0  0  0  0  0  0  0  0  0  0  0  0
  153.2353  144.6204  157.8490 H   0  0  0  0  0  0  0  0  0  0  0  0
  150.3849  144.8331  158.9700 H   0  0  0  0  0  0  0  0  0  0  0  0
  150.9348  145.4018  157.4063 H   0  0  0  0  0  0  0  0  0  0  0  0
  149.7479  137.7990  156.8692 H   0  0  0  0  0  0  0  0  0  0  0  0
  147.6989  137.7457  159.8926 H   0  0  0  0  0  0  0  0  0  0  0  0
  148.1382  133.5184  160.1925 H   0  0  0  0  0  0  0  0  0  0  0  0
  1  2  1  0  0  0  0
  1 25  1  0  0  0  0
  1 26  1  0  0  0  0
  1 27  1  0  0  0  0
  2  3  1  0  0  0  0
  2 11  1  0  0  0  0
  2 28  1  0  0  0  0
  3  4  1  0  0  0  0
  4  5  1  0  0  0  0
  4 29  1  0  0  0  0
  4 30  1  0  0  0  0
  5 10  1  0  0  0  0
  5  6  1  0  0  0  0
  5 31  1  0  0  0  0
  6  7  1  0  0  0  0
  6 32  1  0  0  0  0
  6 33  1  0  0  0  0
  7  8  1  0  0  0  0
  7 34  1  0  0  0  0
  7 35  1  0  0  0  0
  8  9  1  0  0  0  0
  8 36  1  0  0  0  0
  8 37  1  0  0  0  0
  9 10  1  0  0  0  0
  9 38  1  0  0  0  0
  9 39  1  0  0  0  0
 11 12  2  0  0  0  0
 11 13  1  0  0  0  0
 13 14  1  0  0  0  0
 13 40  1  0  0  0  0
 14 23  1  0  0  0  0
 14 15  2  0  0  0  0
 15 16  1  0  0  0  0
 15 41  1  0  0  0  0
 16 17  1  0  0  0  0
 16 21  2  0  0  0  0
 17 18  1  0  0  0  0
 17 19  1  0  0  0  0
 17 20  1  0  0  0  0
 21 22  1  0  0  0  0
 21 42  1  0  0  0  0
 22 23  1  0  0  0  0
 23 24  2  0  0  0  0
M  CHG  1  22  -1
M  END
> <s_m_source_file>
AV-unprocessed.smi

> <i_m_source_file_index>
1550

> <i_lp_mmshare_version>
43012

> <i_f3d_flags>
0

> <s_epik_input>
TzFbQ0gyXVtDSDJdW0NIMl1bQ0gyXVtDQEhdMVtDSDJdT1tDQEBIXShbQ0gzXSlDKD1PKVtOSF1jMltjSF1jKEMoRikoRilGKVtjSF1bbkhdYzI9Tw==

> <s_epik_cmdline>
J2VwaWtfcHl0aG9uJywgJy1waCcsICc3LjAnLCAnLXRuJywgJzgnLCAnLW1hJywgJzIwMCcsICctbWV0YWxfYmluZGluZycsICctaW1hZScsICc8aW5maWxlLm1hZT4nLCAnLW9tYWUnLCAnPG91dGZpbGUubWFlPic=

> <r_epik_Ionization_Penalty>
2.54933

> <r_epik_Ionization_Penalty_Charging>
0.0583423

> <r_epik_Ionization_Penalty_Neutral>
2.49099

> <r_epik_State_Penalty>
2.65532

> <r_epik_Charging_Adjusted_Penalty>
2.71366

> <i_epik_Tot_Q>
-1

> <i_epik_Tot_abs_Q>
1

> <r_epik_Metal_State_Penalty>
0.516364

> <b_epik_Metal_Only>
0

> <s_lp_Force_Field>
OPLS_2005

> <r_lp_Energy>
27.8976

> <b_lp_Chiralities_Consistent>
1

> <s_lp_Variant>
AV-unprocessed.smi:1550-8

> <Gold.Version>
5.8.1

> <Gold.Id.Protein>
6NUR|6NUR_protein|mol2

> <Gold.PLP.Fitness>
45.8562

> <Gold.PLP.PLP>
-41.7113

> <Gold.PLP.part.hbond>
-2.0000

> <Gold.PLP.part.metal>
0.0000

> <Gold.PLP.part.buried>
-4.8601

> <Gold.PLP.part.nonpolar>
-34.7649

> <Gold.PLP.part.repulsive>
0.3270

> <Gold.PLP.ligand.clash>
0.0000

> <Gold.PLP.ligand.torsion>
0.4034

> <Gold.PLP.Chemscore.Hbond>
1.6000

> <Gold.PLP.Chemscore.CHOScore>
0.0000

> <Gold.PLP.Chemscore.Metal>
0.0000

> <Gold.Chemscore.Hbonds>
donor molecule, donor type, donor heavy atom, donor atom, acceptor molecule, acceptor atom, score
      P1  H  6896  6909       L1    22  0.63

> <Gold.PLP.Chemscore.Internal.Correction>
0.1517

> <Gold.Rescore>
     Score         DG    S(hbond)    S(metal)    S(lipo)     H(rot)  DE(clash)    DE(int)     intcor
     11.54     -12.25       0.00        0.00      97.74       1.82       0.03       0.68       ----

> <Gold.Chemscore.Fitness>
11.5379

> <Gold.Chemscore.DG>
-12.2479

> <Gold.Chemscore.ZeroCoef>
-5.4800

> <Gold.Chemscore.Hbond>
0.0001

> <Gold.Chemscore.Metal>
0.0000

> <Gold.Chemscore.Lipo>
97.7445

> <Gold.Chemscore.Internal_Hbond>
0.0000

> <Gold.Chemscore.DEClash>
0.0334

> <Gold.Chemscore.DEInternal>
0.6766

> <Gold.Chemscore.Rot>
1.8236

> <Gold.Chemscore.Internal.Correction>
   9.000000E+99

> <Gold.Chemscore.Hbond.Weighted>
-0.0002

> <Gold.Chemscore.Metal.Weighted>
-0.0000

> <Gold.Chemscore.Lipo.Weighted>
-11.4361

> <Gold.Chemscore.Internal_Hbond.Weighted>
0.0000

> <Gold.Chemscore.DEClash.Weighted>
0.0334

> <Gold.Chemscore.DEInternal.Weighted>
0.6766

> <Gold.Chemscore.Rot.Weighted>
4.6684

> <Gold.Chemscore.Internal.Correction.Weighted>
   9.000000E+99

> <Gold.Protein.RotatedTorsions>
[ 6907 6896 6895 6894 ] final   30.15 input  -60.11 | X-H torsion
[ 7974 7965 7964 7962 ] final -150.51 input  175.53 | X-H torsion
[ 8008 7997 7996 7995 ] final  148.68 input   59.86 | X-H torsion
[ 10167 10162 10161 10158 ] final   43.19 input  -65.29 | X-H torsion
[ 10718 10713 10712 10709 ] final   37.49 input   66.30 | X-H torsion
[ 10763 10752 10751 10750 ] final   81.02 input  -60.55 | X-H torsion
[ 11005 11000 10999 10996 ] final   12.11 input  -57.11 | X-H torsion

> <Gold.Protein.ActiveResidues>
 VAL166  LYS551  ARG553  GLY616  TRP617  ASP618  TYR619  PRO620  LYS621  CYS622 
 ASP623  PHE694  ASN695  SER759  ASP760  ASP761  ALA762  ILE779  LEU786  VAL792 
 PHE793  MET794  SER795  GLU796  ALA797  LYS798  CYS799  TRP800  GLU811  SER814 

> <Gold.Protein.RotatedAtoms>
  152.0419  134.9706  160.0573 H   0  0  0  0  0  0  0  0  0  0  0  0  # atno 6907 bound_to 6896
  152.1142  133.4312  159.4653 H   0  0  0  0  0  0  0  0  0  0  0  0  # atno 6908 bound_to 6896
  150.6845  134.2531  159.4562 H   0  0  0  0  0  0  0  0  0  0  0  0  # atno 6909 bound_to 6896
  144.7903  140.4922  143.5777 H   0  0  0  0  0  0  0  0  0  0  0  0  # atno 7974 bound_to 7965
  156.2782  140.2122  156.5736 H   0  0  0  0  0  0  0  0  0  0  0  0  # atno 8008 bound_to 7997
  154.7115  140.0511  157.0577 H   0  0  0  0  0  0  0  0  0  0  0  0  # atno 8009 bound_to 7997
  155.0599  140.3165  155.4667 H   0  0  0  0  0  0  0  0  0  0  0  0  # atno 8010 bound_to 7997
  140.3468  144.2400  150.6149 H   0  0  0  0  0  0  0  0  0  0  0  0  # atno 10167 bound_to 10162
  157.3476  130.7581  149.6955 H   0  0  0  0  0  0  0  0  0  0  0  0  # atno 10718 bound_to 10713
  153.1082  135.4781  154.8988 H   0  0  0  0  0  0  0  0  0  0  0  0  # atno 10763 bound_to 10752
  154.7452  135.3092  154.8659 H   0  0  0  0  0  0  0  0  0  0  0  0  # atno 10764 bound_to 10752
  153.9256  135.6850  153.4800 H   0  0  0  0  0  0  0  0  0  0  0  0  # atno 10765 bound_to 10752
  140.4957  134.0796  155.7781 H   0  0  0  0  0  0  0  0  0  0  0  0  # atno 11005 bound_to 11000
  145.5812  139.1489  143.3234 LP  0  0  0  0  0  0  0  0  0  0  0  0  # atno 17320 bound_to 7965
  146.2152  140.5941  142.9041 LP  0  0  0  0  0  0  0  0  0  0  0  0  # atno 17321 bound_to 7965
  140.5257  143.2255  151.8319 LP  0  0  0  0  0  0  0  0  0  0  0  0  # atno 17342 bound_to 10162
  139.4832  144.4783  151.9339 LP  0  0  0  0  0  0  0  0  0  0  0  0  # atno 17343 bound_to 10162
  155.9716  130.4150  150.4159 LP  0  0  0  0  0  0  0  0  0  0  0  0  # atno 17370 bound_to 10713
  157.2217  131.0484  151.2543 LP  0  0  0  0  0  0  0  0  0  0  0  0  # atno 17371 bound_to 10713
  141.1461  133.9052  157.2211 LP  0  0  0  0  0  0  0  0  0  0  0  0  # atno 17394 bound_to 11000
  139.9743  135.0119  156.9591 LP  0  0  0  0  0  0  0  0  0  0  0  0  # atno 17395 bound_to 11000

$$$$
