AV-unprocessed.smi:1724|AV-procd|sdf|6950|dock4
  -GOLD-   22720 8163D 1   1.00000     0.00000
 Structure written by MMmdl.
 38 39  0  0  0  0  0  0  0  0  1 V2000
  147.6072  133.5664  155.1380 O   0  0  0  0  0  0  0  0  0  0  0  0
  147.8711  134.2584  154.1555 C   0  0  0  0  0  0  0  0  0  0  0  0
  148.5463  135.4145  154.2305 N   0  0  0  0  0  0  0  0  0  0  0  0
  149.0656  136.0194  155.4542 C   0  0  0  0  0  0  0  0  0  0  0  0
  150.5071  136.5408  155.2842 C   0  0  1  0  0  0  0  0  0  0  0  0
  150.5768  137.9046  154.5710 C   0  0  0  0  0  0  0  0  0  0  0  0
  152.0249  138.4046  154.5208 C   0  0  0  0  0  0  0  0  0  0  0  0
  152.6447  138.3981  155.9259 C   0  0  0  0  0  0  0  0  0  0  0  0
  152.5602  137.0906  156.4813 O   0  0  0  0  0  0  0  0  0  0  0  0
  151.2190  136.6426  156.6485 C   0  0  0  0  0  0  0  0  0  0  0  0
  147.5439  133.9812  152.8794 N   0  0  0  0  0  0  0  0  0  0  0  0
  146.8411  132.8871  152.3442 C   0  0  0  0  0  0  0  0  0  0  0  0
  147.0950  131.5798  152.6172 C   0  0  0  0  0  0  0  0  0  0  0  0
  146.3177  130.5035  152.0225 C   0  0  0  0  0  0  0  0  0  0  0  0
  146.5981  129.0373  152.3111 C   0  0  0  0  0  0  0  0  0  0  0  0
  147.0446  128.4296  151.2121 F   0  0  0  0  0  0  0  0  0  0  0  0
  147.5354  128.9244  153.2520 F   0  0  0  0  0  0  0  0  0  0  0  0
  145.5054  128.3976  152.7289 F   0  0  0  0  0  0  0  0  0  0  0  0
  145.3263  130.8670  151.1898 C   0  0  0  0  0  0  0  0  0  0  0  0
  145.0542  132.2073  150.9096 N   0  0  0  0  0  0  0  0  0  0  0  0
  145.7431  133.2470  151.4306 C   0  0  0  0  0  0  0  0  0  0  0  0
  145.4397  134.4023  151.1347 O   0  0  0  0  0  0  0  0  0  0  0  0
  144.2918  132.3985  150.2758 H   0  0  0  0  0  0  0  0  0  0  0  0
  148.7198  135.9157  153.3716 H   0  0  0  0  0  0  0  0  0  0  0  0
  148.4120  136.8184  155.8084 H   0  0  0  0  0  0  0  0  0  0  0  0
  149.0460  135.2508  156.2274 H   0  0  0  0  0  0  0  0  0  0  0  0
  151.0564  135.8168  154.6801 H   0  0  0  0  0  0  0  0  0  0  0  0
  150.1815  137.8348  153.5574 H   0  0  0  0  0  0  0  0  0  0  0  0
  149.9573  138.6303  155.0997 H   0  0  0  0  0  0  0  0  0  0  0  0
  152.6115  137.7633  153.8618 H   0  0  0  0  0  0  0  0  0  0  0  0
  152.0626  139.4081  154.0962 H   0  0  0  0  0  0  0  0  0  0  0  0
  153.6932  138.6922  155.8753 H   0  0  0  0  0  0  0  0  0  0  0  0
  152.1429  139.1158  156.5769 H   0  0  0  0  0  0  0  0  0  0  0  0
  150.6832  137.3152  157.3206 H   0  0  0  0  0  0  0  0  0  0  0  0
  151.2437  135.6659  157.1324 H   0  0  0  0  0  0  0  0  0  0  0  0
  147.8641  134.6435  152.1878 H   0  0  0  0  0  0  0  0  0  0  0  0
  147.8814  131.2966  153.2956 H   0  0  0  0  0  0  0  0  0  0  0  0
  144.6765  130.1694  150.6822 H   0  0  0  0  0  0  0  0  0  0  0  0
  1  2  2  0  0  0  0
  2  3  1  0  0  0  0
  2 11  1  0  0  0  0
  3  4  1  0  0  0  0
  3 24  1  0  0  0  0
  4  5  1  0  0  0  0
  4 25  1  0  0  0  0
  4 26  1  0  0  0  0
  5 10  1  0  0  0  0
  5  6  1  0  0  0  0
  5 27  1  0  0  0  0
  6  7  1  0  0  0  0
  6 28  1  0  0  0  0
  6 29  1  0  0  0  0
  7  8  1  0  0  0  0
  7 30  1  0  0  0  0
  7 31  1  0  0  0  0
  8  9  1  0  0  0  0
  8 32  1  0  0  0  0
  8 33  1  0  0  0  0
  9 10  1  0  0  0  0
 10 34  1  0  0  0  0
 10 35  1  0  0  0  0
 11 12  1  0  0  0  0
 11 36  1  0  0  0  0
 12 21  1  0  0  0  0
 12 13  2  0  0  0  0
 13 14  1  0  0  0  0
 13 37  1  0  0  0  0
 14 15  1  0  0  0  0
 14 19  2  0  0  0  0
 15 16  1  0  0  0  0
 15 17  1  0  0  0  0
 15 18  1  0  0  0  0
 19 20  1  0  0  0  0
 19 38  1  0  0  0  0
 20 23  1  0  0  0  0
 20 21  1  0  0  0  0
 21 22  2  0  0  0  0
M  END
> <s_m_source_file>
AV-unprocessed.smi

> <i_m_source_file_index>
1724

> <i_lp_mmshare_version>
43012

> <i_f3d_flags>
0

> <s_epik_input>
Tz1jMVtuSF1bY0hdYyhDKEYpKEYpRilbY0hdYzFbTkhdQyg9TylbTkhdW0NIMl1bQ0BASF0yW0NIMl1bQ0gyXVtDSDJdT1tDSDJdMg==

> <s_epik_cmdline>
J2VwaWtfcHl0aG9uJywgJy1waCcsICc3LjAnLCAnLXRuJywgJzgnLCAnLW1hJywgJzIwMCcsICctbWV0YWxfYmluZGluZycsICctaW1hZScsICc8aW5maWxlLm1hZT4nLCAnLW9tYWUnLCAnPG91dGZpbGUubWFlPic=

> <r_lp_tautomer_probability>
1

> <r_epik_Ionization_Penalty>
0.00384958

> <r_epik_Ionization_Penalty_Charging>
0.00382926

> <r_epik_Ionization_Penalty_Neutral>
2.03186e-05

> <r_epik_State_Penalty>
-0

> <r_epik_Charging_Adjusted_Penalty>
0.00382926

> <i_epik_Tot_Q>
0

> <i_epik_Tot_abs_Q>
0

> <r_epik_Metal_State_Penalty>
0.371494

> <b_epik_Metal_Only>
0

> <s_lp_Force_Field>
OPLS_2005

> <r_lp_Energy>
21.778

> <b_lp_Chiralities_Consistent>
1

> <s_lp_Variant>
AV-unprocessed.smi:1724-2

> <Gold.Version>
5.8.1

> <Gold.Id.Protein>
6NUR|6NUR_protein|mol2

> <Gold.PLP.Fitness>
41.0077

> <Gold.PLP.PLP>
-35.6449

> <Gold.PLP.part.hbond>
-2.9451

> <Gold.PLP.part.metal>
0.0000

> <Gold.PLP.part.buried>
-3.0810

> <Gold.PLP.part.nonpolar>
-29.8401

> <Gold.PLP.part.repulsive>
0.2177

> <Gold.PLP.ligand.clash>
0.0000

> <Gold.PLP.ligand.torsion>
0.8537

> <Gold.PLP.Chemscore.Hbond>
2.3488

> <Gold.PLP.Chemscore.CHOScore>
0.0000

> <Gold.PLP.Chemscore.Metal>
0.0000

> <Gold.Chemscore.Hbonds>
donor molecule, donor type, donor heavy atom, donor atom, acceptor molecule, acceptor atom, score
      L1  H     3    24       P1  7948  1.00
      L1  H    11    36       P1  7948  0.93
      P1  H 10752 10765       L1     9  0.18

> <Gold.PLP.Chemscore.Internal.Correction>
0.0239

> <Gold.Rescore>
     Score         DG    S(hbond)    S(metal)    S(lipo)     H(rot)  DE(clash)    DE(int)     intcor
     15.56     -16.31       1.75        0.00      71.70       1.33       0.08       0.67       ----

> <Gold.Chemscore.Fitness>
15.5643

> <Gold.Chemscore.DG>
-16.3149

> <Gold.Chemscore.ZeroCoef>
-5.4800

> <Gold.Chemscore.Hbond>
1.7550

> <Gold.Chemscore.Metal>
0.0000

> <Gold.Chemscore.Lipo>
71.7026

> <Gold.Chemscore.Internal_Hbond>
0.0000

> <Gold.Chemscore.DEClash>
0.0774

> <Gold.Chemscore.DEInternal>
0.6732

> <Gold.Chemscore.Rot>
1.3344

> <Gold.Chemscore.Internal.Correction>
   9.000000E+99

> <Gold.Chemscore.Hbonds>
donor molecule, donor type, donor heavy atom, donor atom, acceptor molecule, acceptor atom, score
      L1  H     3    24       P1  7948  0.94
      L1  H    11    36       P1  7948  0.45
      P1  H 10752 10765       L1     9  0.01

> <Gold.Chemscore.Hbond.Weighted>
-5.8616

> <Gold.Chemscore.Metal.Weighted>
-0.0000

> <Gold.Chemscore.Lipo.Weighted>
-8.3892

> <Gold.Chemscore.Internal_Hbond.Weighted>
0.0000

> <Gold.Chemscore.DEClash.Weighted>
0.0774

> <Gold.Chemscore.DEInternal.Weighted>
0.6732

> <Gold.Chemscore.Rot.Weighted>
3.4160

> <Gold.Chemscore.Internal.Correction.Weighted>
   9.000000E+99

> <Gold.Protein.RotatedTorsions>
[ 6907 6896 6895 6894 ] final    7.95 input  -60.11 | X-H torsion
[ 7974 7965 7964 7962 ] final   -6.96 input  175.53 | X-H torsion
[ 8008 7997 7996 7995 ] final  -17.29 input   59.86 | X-H torsion
[ 10167 10162 10161 10158 ] final  -76.43 input  -65.29 | X-H torsion
[ 10718 10713 10712 10709 ] final  138.64 input   66.30 | X-H torsion
[ 10763 10752 10751 10750 ] final -165.41 input  -60.55 | X-H torsion
[ 11005 11000 10999 10996 ] final  177.27 input  -57.11 | X-H torsion

> <Gold.Protein.ActiveResidues>
 VAL166  LYS551  ARG553  GLY616  TRP617  ASP618  TYR619  PRO620  LYS621  CYS622 
 ASP623  PHE694  ASN695  SER759  ASP760  ASP761  ALA762  ILE779  LEU786  VAL792 
 PHE793  MET794  SER795  GLU796  ALA797  LYS798  CYS799  TRP800  GLU811  SER814 

> <Gold.Protein.RotatedAtoms>
  151.6981  135.0935  160.0245 H   0  0  0  0  0  0  0  0  0  0  0  0  # atno 6907 bound_to 6896
  152.3737  133.6449  159.6115 H   0  0  0  0  0  0  0  0  0  0  0  0  # atno 6908 bound_to 6896
  150.7693  133.9144  159.3420 H   0  0  0  0  0  0  0  0  0  0  0  0  # atno 6909 bound_to 6896
  146.2318  140.2249  142.8338 H   0  0  0  0  0  0  0  0  0  0  0  0  # atno 7974 bound_to 7965
  154.4989  140.2146  155.9388 H   0  0  0  0  0  0  0  0  0  0  0  0  # atno 8008 bound_to 7997
  156.1408  140.3180  155.8459 H   0  0  0  0  0  0  0  0  0  0  0  0  # atno 8009 bound_to 7997
  155.4124  140.0491  157.3021 H   0  0  0  0  0  0  0  0  0  0  0  0  # atno 8010 bound_to 7997
  140.4857  143.2391  151.7987 H   0  0  0  0  0  0  0  0  0  0  0  0  # atno 10167 bound_to 10162
  157.4231  131.1040  151.0332 H   0  0  0  0  0  0  0  0  0  0  0  0  # atno 10718 bound_to 10713
  154.6934  135.2975  154.9446 H   0  0  0  0  0  0  0  0  0  0  0  0  # atno 10763 bound_to 10752
  154.0402  135.6658  153.4793 H   0  0  0  0  0  0  0  0  0  0  0  0  # atno 10764 bound_to 10752
  153.0628  135.5105  154.8039 H   0  0  0  0  0  0  0  0  0  0  0  0  # atno 10765 bound_to 10752
  140.3823  134.6936  157.4458 H   0  0  0  0  0  0  0  0  0  0  0  0  # atno 11005 bound_to 11000
  144.9603  140.8268  143.5517 LP  0  0  0  0  0  0  0  0  0  0  0  0  # atno 17320 bound_to 7965
  145.2219  139.2155  143.5088 LP  0  0  0  0  0  0  0  0  0  0  0  0  # atno 17321 bound_to 7965
  139.4841  144.4715  151.9419 LP  0  0  0  0  0  0  0  0  0  0  0  0  # atno 17342 bound_to 10162
  140.3801  144.2747  150.5909 LP  0  0  0  0  0  0  0  0  0  0  0  0  # atno 17343 bound_to 10162
  157.1255  130.6080  149.5516 LP  0  0  0  0  0  0  0  0  0  0  0  0  # atno 17370 bound_to 10713
  155.9887  130.4932  150.7182 LP  0  0  0  0  0  0  0  0  0  0  0  0  # atno 17371 bound_to 10713
  140.0469  134.6186  155.8909 LP  0  0  0  0  0  0  0  0  0  0  0  0  # atno 17394 bound_to 11000
  141.1919  133.6573  156.5479 LP  0  0  0  0  0  0  0  0  0  0  0  0  # atno 17395 bound_to 11000

$$$$
