AV-unprocessed.smi:49|AV-procd|sdf|476|dock1
  -GOLD-   2262016343D 1   1.00000     0.00000
 Structure written by MMmdl.
 27 28  0  0  0  0  0  0  0  0  1 V2000
  153.7402  142.1402  160.6518 C   0  0  0  0  0  0  0  0  0  0  0  0
  153.1874  143.4070  159.9892 C   0  0  0  0  0  0  0  0  0  0  0  0
  152.2034  143.0978  158.9099 C   0  0  0  0  0  0  0  0  0  0  0  0
  151.9176  141.8209  158.5144 N   0  0  0  0  0  0  0  0  0  0  0  0
  151.0477  142.0648  157.5378 C   0  0  0  0  0  0  0  0  0  0  0  0
  150.3681  141.0324  156.6927 C   0  0  1  0  0  0  0  0  0  0  0  0
  149.4451  141.6453  155.6294 C   0  0  0  0  0  0  0  0  0  0  0  0
  149.4988  140.6203  154.5057 C   0  0  1  0  0  0  0  0  0  0  0  0
  149.1532  141.1607  153.2484 O   0  0  0  0  0  0  0  0  0  0  0  0
  150.9541  140.1669  154.5630 C   0  0  0  0  0  0  0  0  0  0  0  0
  151.3049  140.1543  155.9805 N   0  0  0  0  0  0  0  0  0  0  0  0
  150.8463  143.3712  157.3525 N   0  0  0  0  0  0  0  0  0  0  0  0
  151.5951  144.0697  158.2317 N   0  0  0  0  0  0  0  0  0  0  0  0
  149.7588  140.4102  157.3495 H   0  0  0  0  0  0  0  0  0  0  0  0
  148.8386  139.7821  154.7335 H   0  0  0  0  0  0  0  0  0  0  0  0
  150.2442  143.8095  156.6705 H   0  0  0  0  0  0  0  0  0  0  0  0
  154.4587  142.3917  161.4318 H   0  0  0  0  0  0  0  0  0  0  0  0
  154.2465  141.5048  159.9246 H   0  0  0  0  0  0  0  0  0  0  0  0
  152.9415  141.5560  161.1098 H   0  0  0  0  0  0  0  0  0  0  0  0
  152.7065  144.0367  160.7387 H   0  0  0  0  0  0  0  0  0  0  0  0
  154.0061  143.9943  159.5715 H   0  0  0  0  0  0  0  0  0  0  0  0
  148.4373  141.8383  155.9978 H   0  0  0  0  0  0  0  0  0  0  0  0
  149.8590  142.5915  155.2745 H   0  0  0  0  0  0  0  0  0  0  0  0
  149.3397  140.5168  152.5824 H   0  0  0  0  0  0  0  0  0  0  0  0
  151.1115  139.1955  154.0940 H   0  0  0  0  0  0  0  0  0  0  0  0
  151.5846  140.8906  154.0444 H   0  0  0  0  0  0  0  0  0  0  0  0
  151.1900  139.2097  156.3329 H   0  0  0  0  0  0  0  0  0  0  0  0
  1  2  1  0  0  0  0
  1 17  1  0  0  0  0
  1 18  1  0  0  0  0
  1 19  1  0  0  0  0
  2 20  1  0  0  0  0
  2 21  1  0  0  0  0
  2  3  1  0  0  0  0
  3  4  1  0  0  0  0
  3 13  2  0  0  0  0
  4  5  2  0  0  0  0
  5  6  1  0  0  0  0
  5 12  1  0  0  0  0
  6 14  1  0  0  0  0
  6 11  1  0  0  0  0
  6  7  1  0  0  0  0
  7  8  1  0  0  0  0
  7 22  1  0  0  0  0
  7 23  1  0  0  0  0
  8 15  1  0  0  0  0
  8  9  1  0  0  0  0
  8 10  1  0  0  0  0
  9 24  1  0  0  0  0
 10 11  1  0  0  0  0
 10 25  1  0  0  0  0
 10 26  1  0  0  0  0
 11 27  1  0  0  0  0
 12 13  1  0  0  0  0
 12 16  1  0  0  0  0
M  END
> <s_m_source_file>
AV-unprocessed.smi

> <i_m_source_file_index>
49

> <i_lp_mmshare_version>
43012

> <i_f3d_flags>
0

> <s_epik_input>
W0NIM11bQ0gyXWMxbmMobltuSF0xKVtDQEBIXTJbQ0gyXVtDQEBIXShbT0hdKVtDSDJdW05IXTI=

> <s_epik_cmdline>
J2VwaWtfcHl0aG9uJywgJy1waCcsICc3LjAnLCAnLXRuJywgJzgnLCAnLW1hJywgJzIwMCcsICctbWV0YWxfYmluZGluZycsICctaW1hZScsICc8aW5maWxlLm1hZT4nLCAnLW9tYWUnLCAnPG91dGZpbGUubWFlPic=

> <r_epik_Ionization_Penalty>
1.31544

> <r_epik_Ionization_Penalty_Charging>
0

> <r_epik_Ionization_Penalty_Neutral>
1.31544

> <r_epik_State_Penalty>
2.06074

> <r_epik_Charging_Adjusted_Penalty>
2.06074

> <i_epik_Tot_Q>
0

> <i_epik_Tot_abs_Q>
0

> <r_epik_Metal_State_Penalty>
2.32913

> <b_epik_Metal_Only>
0

> <s_lp_Force_Field>
OPLS_2005

> <r_lp_Energy>
18.1426

> <b_lp_Chiralities_Consistent>
1

> <s_lp_Variant>
AV-unprocessed.smi:49-14

> <Gold.Version>
5.8.1

> <Gold.Id.Protein>
6NUR|6NUR_protein|mol2

> <Gold.PLP.Fitness>
35.2301

> <Gold.PLP.PLP>
-26.7781

> <Gold.PLP.part.hbond>
-3.3534

> <Gold.PLP.part.metal>
0.0000

> <Gold.PLP.part.buried>
-0.7281

> <Gold.PLP.part.nonpolar>
-22.5439

> <Gold.PLP.part.repulsive>
0.1005

> <Gold.PLP.ligand.clash>
0.0000

> <Gold.PLP.ligand.torsion>
0.0156

> <Gold.PLP.Chemscore.Hbond>
2.8247

> <Gold.PLP.Chemscore.CHOScore>
0.0000

> <Gold.PLP.Chemscore.Metal>
0.0000

> <Gold.Chemscore.Hbonds>
donor molecule, donor type, donor heavy atom, donor atom, acceptor molecule, acceptor atom, score
      L1  H     9    24       P1  7957  0.98
      L1  H    12    16       P1  8028  1.00
      P1  H  8011  8017       L1     9  0.60

> <Gold.PLP.Chemscore.Internal.Correction>
0.0090

> <Gold.Rescore>
     Score         DG    S(hbond)    S(metal)    S(lipo)     H(rot)  DE(clash)    DE(int)     intcor
     14.20     -14.42       2.34        0.00      50.07       1.86       0.15       0.07       ----

> <Gold.Chemscore.Fitness>
14.2018

> <Gold.Chemscore.DG>
-14.4196

> <Gold.Chemscore.ZeroCoef>
-5.4800

> <Gold.Chemscore.Hbond>
2.3448

> <Gold.Chemscore.Metal>
0.0000

> <Gold.Chemscore.Lipo>
50.0725

> <Gold.Chemscore.Internal_Hbond>
0.0000

> <Gold.Chemscore.DEClash>
0.1524

> <Gold.Chemscore.DEInternal>
0.0654

> <Gold.Chemscore.Rot>
1.8558

> <Gold.Chemscore.Internal.Correction>
   9.000000E+99

> <Gold.Chemscore.Hbonds>
donor molecule, donor type, donor heavy atom, donor atom, acceptor molecule, acceptor atom, score
      L1  H     9    24       P1  7957  0.89
      L1  H    12    16       P1  8028  1.00
      P1  H  8011  8017       L1     9  0.04

> <Gold.Chemscore.Hbond.Weighted>
-7.8318

> <Gold.Chemscore.Metal.Weighted>
-0.0000

> <Gold.Chemscore.Lipo.Weighted>
-5.8585

> <Gold.Chemscore.Internal_Hbond.Weighted>
0.0000

> <Gold.Chemscore.DEClash.Weighted>
0.1524

> <Gold.Chemscore.DEInternal.Weighted>
0.0654

> <Gold.Chemscore.Rot.Weighted>
4.7507

> <Gold.Chemscore.Internal.Correction.Weighted>
   9.000000E+99

> <Gold.Protein.RotatedTorsions>
[ 6907 6896 6895 6894 ] final  147.14 input  -60.11 | X-H torsion
[ 7974 7965 7964 7962 ] final -173.96 input  175.53 | X-H torsion
[ 8008 7997 7996 7995 ] final  -65.74 input   59.86 | X-H torsion
[ 10167 10162 10161 10158 ] final   64.30 input  -65.29 | X-H torsion
[ 10718 10713 10712 10709 ] final -118.28 input   66.30 | X-H torsion
[ 10763 10752 10751 10750 ] final   33.04 input  -60.55 | X-H torsion
[ 11005 11000 10999 10996 ] final  -86.50 input  -57.11 | X-H torsion

> <Gold.Protein.ActiveResidues>
 VAL166  LYS551  ARG553  GLY616  TRP617  ASP618  TYR619  PRO620  LYS621  CYS622 
 ASP623  PHE694  ASN695  SER759  ASP760  ASP761  ALA762  ILE779  LEU786  VAL792 
 PHE793  MET794  SER795  GLU796  ALA797  LYS798  CYS799  TRP800  GLU811  SER814 

> <Gold.Protein.RotatedAtoms>
  152.1587  133.4568  159.4849 H   0  0  0  0  0  0  0  0  0  0  0  0  # atno 6907 bound_to 6896
  150.6904  134.2099  159.4364 H   0  0  0  0  0  0  0  0  0  0  0  0  # atno 6908 bound_to 6896
  152.0000  134.9933  160.0615 H   0  0  0  0  0  0  0  0  0  0  0  0  # atno 6909 bound_to 6896
  144.7134  140.1543  143.6381 H   0  0  0  0  0  0  0  0  0  0  0  0  # atno 7974 bound_to 7965
  154.4691  140.0927  156.7097 H   0  0  0  0  0  0  0  0  0  0  0  0  # atno 8008 bound_to 7997
  155.4775  140.3466  155.4316 H   0  0  0  0  0  0  0  0  0  0  0  0  # atno 8009 bound_to 7997
  156.1007  140.1421  156.9459 H   0  0  0  0  0  0  0  0  0  0  0  0  # atno 8010 bound_to 7997
  140.1236  144.4708  150.6906 H   0  0  0  0  0  0  0  0  0  0  0  0  # atno 10167 bound_to 10162
  156.1095  130.6237  150.9271 H   0  0  0  0  0  0  0  0  0  0  0  0  # atno 10718 bound_to 10713
  153.0232  135.6397  154.1449 H   0  0  0  0  0  0  0  0  0  0  0  0  # atno 10763 bound_to 10752
  154.1181  135.2848  155.3216 H   0  0  0  0  0  0  0  0  0  0  0  0  # atno 10764 bound_to 10752
  154.6283  135.5501  153.7714 H   0  0  0  0  0  0  0  0  0  0  0  0  # atno 10765 bound_to 10752
  141.1629  133.7458  156.9170 H   0  0  0  0  0  0  0  0  0  0  0  0  # atno 11005 bound_to 11000
  145.9088  139.2474  143.1450 LP  0  0  0  0  0  0  0  0  0  0  0  0  # atno 17320 bound_to 7965
  145.9737  140.8740  143.0150 LP  0  0  0  0  0  0  0  0  0  0  0  0  # atno 17321 bound_to 7965
  140.6858  143.2349  151.5265 LP  0  0  0  0  0  0  0  0  0  0  0  0  # atno 17342 bound_to 10162
  139.5556  144.2285  152.1605 LP  0  0  0  0  0  0  0  0  0  0  0  0  # atno 17343 bound_to 10162
  157.6275  131.0924  150.8506 LP  0  0  0  0  0  0  0  0  0  0  0  0  # atno 17370 bound_to 10713
  156.8619  130.5116  149.5303 LP  0  0  0  0  0  0  0  0  0  0  0  0  # atno 17371 bound_to 10713
  140.1477  134.9251  157.2552 LP  0  0  0  0  0  0  0  0  0  0  0  0  # atno 17394 bound_to 11000
  140.2760  134.3405  155.7358 LP  0  0  0  0  0  0  0  0  0  0  0  0  # atno 17395 bound_to 11000

$$$$
