AV-unprocessed.smi:103|AV-procd|sdf|988|dock10
  -GOLD-   2262017563D 1   1.00000     0.00000
 Structure written by MMmdl.
 53 55  0  0  0  0  0  0  0  0  1 V2000
  145.3015  136.3086  161.5499 C   0  0  0  0  0  0  0  0  0  0  0  0
  146.6983  136.5486  160.9929 C   0  0  0  0  0  0  0  0  0  0  0  0
  147.5476  137.1732  161.6287 O   0  0  0  0  0  0  0  0  0  0  0  0
  146.8619  136.0072  159.7778 O   0  0  0  0  0  0  0  0  0  0  0  0
  148.1588  135.9299  159.2098 C   0  0  0  0  0  0  0  0  0  0  0  0
  148.1151  136.4335  157.7625 C   0  0  1  0  0  0  0  0  0  0  0  0
  147.7957  137.8159  157.7506 O   0  0  0  0  0  0  0  0  0  0  0  0
  148.2703  138.3987  156.5796 C   0  0  2  0  0  0  0  0  0  0  0  0
  147.1286  138.5123  155.6032 N   0  0  0  0  0  0  0  0  0  0  0  0
  146.5471  139.6632  155.1039 C   0  0  0  0  0  0  0  0  0  0  0  0
  147.0524  141.3480  155.4395 S   0  0  0  0  0  0  0  0  0  0  0  0
  148.2856  141.6499  154.1088 C   0  0  0  0  0  0  0  0  0  0  0  0
  145.8762  142.2025  155.2128 O   0  0  0  0  0  0  0  0  0  0  0  0
  147.7324  141.3474  156.7438 O   0  0  0  0  0  0  0  0  0  0  0  0
  145.5925  139.5112  154.2280 N   0  0  0  0  0  0  0  0  0  0  0  0
  145.4311  138.1364  154.1759 C   0  0  0  0  0  0  0  0  0  0  0  0
  144.5537  137.2804  153.4636 C   0  0  0  0  0  0  0  0  0  0  0  0
  143.6232  137.7329  152.6120 N   0  0  0  0  0  0  0  0  0  0  0  0
  144.6555  135.9449  153.6529 N   0  0  0  0  0  0  0  0  0  0  0  0
  145.5734  135.4702  154.4991 C   0  0  0  0  0  0  0  0  0  0  0  0
  146.4631  136.1470  155.2287 N   0  0  0  0  0  0  0  0  0  0  0  0
  146.3674  137.4974  155.0408 C   0  0  0  0  0  0  0  0  0  0  0  0
  149.4253  137.5278  156.0525 C   0  0  1  0  0  0  0  0  0  0  0  0
  150.6560  138.2382  156.0996 O   0  0  0  0  0  0  0  0  0  0  0  0
  151.0869  138.9102  155.0173 C   0  0  0  0  0  0  0  0  0  0  0  0
  152.6058  138.9901  154.9493 C   0  0  0  0  0  0  0  0  0  0  0  0
  150.3755  139.4300  154.1573 O   0  0  0  0  0  0  0  0  0  0  0  0
  149.4612  136.3588  157.0301 C   0  0  2  0  0  0  0  0  0  0  0  0
  149.5870  135.1483  156.2938 O   0  0  0  0  0  0  0  0  0  0  0  0
  149.5721  133.9593  156.9191 C   0  0  0  0  0  0  0  0  0  0  0  0
  149.6627  132.7929  155.9447 C   0  0  0  0  0  0  0  0  0  0  0  0
  149.4886  133.7765  158.1335 O   0  0  0  0  0  0  0  0  0  0  0  0
  144.5489  136.7109  160.8716 H   0  0  0  0  0  0  0  0  0  0  0  0
  145.1871  136.7929  162.5199 H   0  0  0  0  0  0  0  0  0  0  0  0
  145.1227  135.2402  161.6727 H   0  0  0  0  0  0  0  0  0  0  0  0
  148.8363  136.5488  159.7992 H   0  0  0  0  0  0  0  0  0  0  0  0
  148.5390  134.9076  159.2410 H   0  0  0  0  0  0  0  0  0  0  0  0
  147.3368  135.9060  157.2117 H   0  0  0  0  0  0  0  0  0  0  0  0
  148.5797  139.4241  156.7675 H   0  0  0  0  0  0  0  0  0  0  0  0
  148.6646  142.6682  154.1904 H   0  0  0  0  0  0  0  0  0  0  0  0
  147.8104  141.5167  153.1370 H   0  0  0  0  0  0  0  0  0  0  0  0
  149.1121  140.9477  154.2059 H   0  0  0  0  0  0  0  0  0  0  0  0
  143.5251  138.7257  152.4554 H   0  0  0  0  0  0  0  0  0  0  0  0
  143.0210  137.0811  152.1300 H   0  0  0  0  0  0  0  0  0  0  0  0
  145.6011  134.3958  154.6059 H   0  0  0  0  0  0  0  0  0  0  0  0
  149.2252  137.1951  155.0348 H   0  0  0  0  0  0  0  0  0  0  0  0
  153.0324  137.9928  154.8398 H   0  0  0  0  0  0  0  0  0  0  0  0
  153.0031  139.4399  155.8592 H   0  0  0  0  0  0  0  0  0  0  0  0
  152.9198  139.5959  154.0992 H   0  0  0  0  0  0  0  0  0  0  0  0
  150.2770  136.5103  157.7393 H   0  0  0  0  0  0  0  0  0  0  0  0
  150.6278  132.7976  155.4378 H   0  0  0  0  0  0  0  0  0  0  0  0
  148.8758  132.8649  155.1938 H   0  0  0  0  0  0  0  0  0  0  0  0
  149.5521  131.8444  156.4710 H   0  0  0  0  0  0  0  0  0  0  0  0
  1  2  1  0  0  0  0
  1 33  1  0  0  0  0
  1 34  1  0  0  0  0
  1 35  1  0  0  0  0
  2  3  2  0  0  0  0
  2  4  1  0  0  0  0
  4  5  1  0  0  0  0
  5  6  1  0  0  0  0
  5 36  1  0  0  0  0
  5 37  1  0  0  0  0
  6 28  1  0  0  0  0
  6  7  1  0  0  0  0
  6 38  1  0  0  0  0
  7  8  1  0  0  0  0
  8  9  1  0  0  0  0
  8 23  1  0  0  0  0
  8 39  1  0  0  0  0
  9 22  1  0  0  0  0
  9 10  1  0  0  0  0
 10 11  1  0  0  0  0
 10 15  2  0  0  0  0
 11 12  1  0  0  0  0
 11 13  2  0  0  0  0
 11 14  2  0  0  0  0
 12 40  1  0  0  0  0
 12 41  1  0  0  0  0
 12 42  1  0  0  0  0
 15 16  1  0  0  0  0
 16 22  2  0  0  0  0
 16 17  1  0  0  0  0
 17 18  1  0  0  0  0
 17 19  2  0  0  0  0
 18 43  1  0  0  0  0
 18 44  1  0  0  0  0
 19 20  1  0  0  0  0
 20 21  2  0  0  0  0
 20 45  1  0  0  0  0
 21 22  1  0  0  0  0
 23 24  1  0  0  0  0
 23 28  1  0  0  0  0
 23 46  1  0  0  0  0
 24 25  1  0  0  0  0
 25 26  1  0  0  0  0
 25 27  2  0  0  0  0
 26 47  1  0  0  0  0
 26 48  1  0  0  0  0
 26 49  1  0  0  0  0
 28 29  1  0  0  0  0
 28 50  1  0  0  0  0
 29 30  1  0  0  0  0
 30 31  1  0  0  0  0
 30 32  2  0  0  0  0
 31 51  1  0  0  0  0
 31 52  1  0  0  0  0
 31 53  1  0  0  0  0
M  END
> <s_m_source_file>
AV-unprocessed.smi

> <i_m_source_file_index>
103

> <i_lp_mmshare_version>
43012

> <i_f3d_flags>
0

> <s_epik_input>
W0NIM11DKD1PKU9bQ0gyXVtDQEBIXTFPW0NASF0oW0NAQEhdKE9DKD1PKVtDSDNdKVtDQEhdMU9DKD1PKVtDSDNdKW4oYyhuMilTKD1PKSg9TylbQ0gzXSljKGMyMyluW2NIXW5jM1tOSDJd

> <s_epik_cmdline>
J2VwaWtfcHl0aG9uJywgJy1waCcsICc3LjAnLCAnLXRuJywgJzgnLCAnLW1hJywgJzIwMCcsICctbWV0YWxfYmluZGluZycsICctaW1hZScsICc8aW5maWxlLm1hZT4nLCAnLW9tYWUnLCAnPG91dGZpbGUubWFlPic=

> <r_lp_tautomer_probability>
1

> <r_epik_Ionization_Penalty>
1.51338e-05

> <r_epik_Ionization_Penalty_Charging>
0

> <r_epik_Ionization_Penalty_Neutral>
1.51338e-05

> <r_epik_State_Penalty>
-0

> <r_epik_Charging_Adjusted_Penalty>
0

> <i_epik_Tot_Q>
0

> <i_epik_Tot_abs_Q>
0

> <r_epik_Metal_State_Penalty>
-0

> <b_epik_Metal_Only>
0

> <s_epik_Chemistry_Notes>
This compound has an ester and may undergo hydrolysis at high or low pH. This compound contains an acetal/aminal-like group ( X-CH(R)-Y where X, Y are N, S, or O) that may be acid/base labile, releasing an aldehyde.

> <s_lp_Force_Field>
OPLS_2005

> <r_lp_Energy>
13.207

> <b_lp_Chiralities_Consistent>
1

> <s_lp_Variant>
AV-unprocessed.smi:103-12

> <Gold.Version>
5.8.1

> <Gold.Id.Protein>
6NUR|6NUR_protein|mol2

> <Gold.PLP.Fitness>
36.8967

> <Gold.PLP.PLP>
-24.8015

> <Gold.PLP.part.hbond>
-6.0000

> <Gold.PLP.part.metal>
0.0000

> <Gold.PLP.part.buried>
-5.5930

> <Gold.PLP.part.nonpolar>
-16.6449

> <Gold.PLP.part.repulsive>
2.9643

> <Gold.PLP.ligand.clash>
0.0000

> <Gold.PLP.ligand.torsion>
2.2757

> <Gold.PLP.Chemscore.Hbond>
4.7760

> <Gold.PLP.Chemscore.CHOScore>
0.0000

> <Gold.PLP.Chemscore.Metal>
0.0000

> <Gold.Chemscore.Hbonds>
donor molecule, donor type, donor heavy atom, donor atom, acceptor molecule, acceptor atom, score
      L1  H    18    43       P1 10175  1.00
      P1  H  6896  6909       L1    32  1.00
      P1  H  6931  6943       L1     3  0.98
      P1  H  6934  6947       L1     3  0.80
      P1  H  7989  7998       L1    27  1.00

> <Gold.PLP.Chemscore.Internal.Correction>
2.3186

> <Gold.Rescore>
     Score         DG    S(hbond)    S(metal)    S(lipo)     H(rot)  DE(clash)    DE(int)     intcor
      5.58     -13.73       4.40        0.00      37.80       4.25       1.12       7.03       ----

> <Gold.Chemscore.Fitness>
5.5804

> <Gold.Chemscore.DG>
-13.7298

> <Gold.Chemscore.ZeroCoef>
-5.4800

> <Gold.Chemscore.Hbond>
4.3999

> <Gold.Chemscore.Metal>
0.0000

> <Gold.Chemscore.Lipo>
37.8007

> <Gold.Chemscore.Internal_Hbond>
0.0000

> <Gold.Chemscore.DEClash>
1.1235

> <Gold.Chemscore.DEInternal>
7.0259

> <Gold.Chemscore.Rot>
4.2456

> <Gold.Chemscore.Internal.Correction>
   9.000000E+99

> <Gold.Chemscore.Hbonds>
donor molecule, donor type, donor heavy atom, donor atom, acceptor molecule, acceptor atom, score
      L1  H    18    43       P1 10175  1.00
      P1  H  6896  6909       L1    32  1.00
      P1  H  6931  6943       L1     3  0.93
      P1  H  6934  6947       L1     3  0.20
      P1  H  7989  7998       L1    27  0.24

> <Gold.Chemscore.Hbond.Weighted>
-14.6958

> <Gold.Chemscore.Metal.Weighted>
-0.0000

> <Gold.Chemscore.Lipo.Weighted>
-4.4227

> <Gold.Chemscore.Internal_Hbond.Weighted>
0.0000

> <Gold.Chemscore.DEClash.Weighted>
1.1235

> <Gold.Chemscore.DEInternal.Weighted>
7.0259

> <Gold.Chemscore.Rot.Weighted>
10.8687

> <Gold.Chemscore.Internal.Correction.Weighted>
   9.000000E+99

> <Gold.Protein.RotatedTorsions>
[ 6907 6896 6895 6894 ] final    9.28 input  -60.11 | X-H torsion
[ 7974 7965 7964 7962 ] final   44.65 input  175.53 | X-H torsion
[ 8008 7997 7996 7995 ] final  -52.48 input   59.86 | X-H torsion
[ 10167 10162 10161 10158 ] final   69.81 input  -65.29 | X-H torsion
[ 10718 10713 10712 10709 ] final   93.24 input   66.30 | X-H torsion
[ 10763 10752 10751 10750 ] final -124.41 input  -60.55 | X-H torsion
[ 11005 11000 10999 10996 ] final    9.82 input  -57.11 | X-H torsion

> <Gold.Protein.ActiveResidues>
 VAL166  LYS551  ARG553  GLY616  TRP617  ASP618  TYR619  PRO620  LYS621  CYS622 
 ASP623  PHE694  ASN695  SER759  ASP760  ASP761  ALA762  ILE779  LEU786  VAL792 
 PHE793  MET794  SER795  GLU796  ALA797  LYS798  CYS799  TRP800  GLU811  SER814 

> <Gold.Protein.RotatedAtoms>
  151.7196  135.0897  160.0281 H   0  0  0  0  0  0  0  0  0  0  0  0  # atno 6907 bound_to 6896
  152.3610  133.6293  159.6023 H   0  0  0  0  0  0  0  0  0  0  0  0  # atno 6908 bound_to 6896
  150.7604  133.9340  159.3477 H   0  0  0  0  0  0  0  0  0  0  0  0  # atno 6909 bound_to 6896
  146.0549  139.5051  142.9695 H   0  0  0  0  0  0  0  0  0  0  0  0  # atno 7974 bound_to 7965
  154.4108  140.1223  156.4999 H   0  0  0  0  0  0  0  0  0  0  0  0  # atno 8008 bound_to 7997
  155.6905  140.3495  155.4872 H   0  0  0  0  0  0  0  0  0  0  0  0  # atno 8009 bound_to 7997
  155.9473  140.1098  157.0996 H   0  0  0  0  0  0  0  0  0  0  0  0  # atno 8010 bound_to 7997
  140.0637  144.5211  150.7276 H   0  0  0  0  0  0  0  0  0  0  0  0  # atno 10167 bound_to 10162
  157.6955  131.0471  150.4004 H   0  0  0  0  0  0  0  0  0  0  0  0  # atno 10718 bound_to 10713
  154.8723  135.4065  154.3100 H   0  0  0  0  0  0  0  0  0  0  0  0  # atno 10763 bound_to 10752
  153.3946  135.7016  153.6475 H   0  0  0  0  0  0  0  0  0  0  0  0  # atno 10764 bound_to 10752
  153.5244  135.3680  155.2618 H   0  0  0  0  0  0  0  0  0  0  0  0  # atno 10765 bound_to 10752
  140.5215  134.0555  155.7846 H   0  0  0  0  0  0  0  0  0  0  0  0  # atno 11005 bound_to 11000
  145.6660  141.0228  143.1683 LP  0  0  0  0  0  0  0  0  0  0  0  0  # atno 17320 bound_to 7965
  144.7143  139.8255  143.7404 LP  0  0  0  0  0  0  0  0  0  0  0  0  # atno 17321 bound_to 7965
  140.7159  143.2544  151.4434 LP  0  0  0  0  0  0  0  0  0  0  0  0  # atno 17342 bound_to 10162
  139.5878  144.1566  152.2051 LP  0  0  0  0  0  0  0  0  0  0  0  0  # atno 17343 bound_to 10162
  156.4398  130.3989  149.6705 LP  0  0  0  0  0  0  0  0  0  0  0  0  # atno 17370 bound_to 10713
  156.3892  130.7619  151.2618 LP  0  0  0  0  0  0  0  0  0  0  0  0  # atno 17371 bound_to 10713
  141.1332  133.9267  157.2491 LP  0  0  0  0  0  0  0  0  0  0  0  0  # atno 17394 bound_to 11000
  139.9603  135.0156  156.9243 LP  0  0  0  0  0  0  0  0  0  0  0  0  # atno 17395 bound_to 11000

$$$$
