AV-unprocessed.smi:737|AV-procd|sdf|3537|dock3
  -GOLD-   22720 0533D 1   1.00000     0.00000
 Structure written by MMmdl.
 45 47  0  0  0  0  0  0  0  0  1 V2000
  147.2279  133.3010  152.1220 C   0  0  0  0  0  0  0  0  0  0  0  0
  148.2779  133.7203  153.0361 N   0  0  0  0  0  0  0  0  0  0  0  0
  148.9789  132.7781  153.8014 C   0  0  0  0  0  0  0  0  0  0  0  0
  148.7843  131.4561  153.5877 N   0  0  0  0  0  0  0  0  0  0  0  0
  149.4787  130.5911  154.3384 C   0  0  0  0  0  0  0  0  0  0  0  0
  150.3743  130.8405  155.3065 N   0  0  0  0  0  0  0  0  0  0  0  0
  150.5730  132.1470  155.5272 C   0  0  0  0  0  0  0  0  0  0  0  0
  151.4381  132.6906  156.4614 N   0  0  0  0  0  0  0  0  0  0  0  0
  151.2552  133.9951  156.2730 C   0  0  0  0  0  0  0  0  0  0  0  0
  150.3735  134.3690  155.3252 N   0  0  0  0  0  0  0  0  0  0  0  0
  150.0245  135.7314  154.9613 C   0  0  0  0  0  0  0  0  0  0  0  0
  151.1949  136.7161  155.1617 C   0  0  1  0  0  0  0  0  0  0  0  0
  152.0131  136.8113  154.0123 O   0  0  0  0  0  0  0  0  0  0  0  0
  150.7434  138.1271  155.5678 C   0  0  0  0  0  0  0  0  0  0  0  0
  151.8722  138.9870  155.6458 O   0  0  0  0  0  0  0  0  0  0  0  0
  151.6510  140.1259  156.3752 C   0  0  0  0  0  0  0  0  0  0  0  0
  152.3340  140.3140  157.5992 C   0  0  0  0  0  0  0  0  0  0  0  0
  153.3078  139.2664  158.1055 C   0  0  0  0  0  0  0  0  0  0  0  0
  152.1100  141.4831  158.3548 C   0  0  0  0  0  0  0  0  0  0  0  0
  151.2014  142.4568  157.9006 C   0  0  0  0  0  0  0  0  0  0  0  0
  150.5072  142.2622  156.6920 C   0  0  0  0  0  0  0  0  0  0  0  0
  150.7222  141.0963  155.9284 C   0  0  0  0  0  0  0  0  0  0  0  0
  149.9464  140.8991  154.6388 C   0  0  0  0  0  0  0  0  0  0  0  0
  149.8948  133.1702  154.7987 C   0  0  0  0  0  0  0  0  0  0  0  0
  146.8110  134.1696  151.6122 H   0  0  0  0  0  0  0  0  0  0  0  0
  146.4219  132.8030  152.6620 H   0  0  0  0  0  0  0  0  0  0  0  0
  147.6203  132.6185  151.3675 H   0  0  0  0  0  0  0  0  0  0  0  0
  148.5410  134.6950  153.0682 H   0  0  0  0  0  0  0  0  0  0  0  0
  149.2921  129.5468  154.1358 H   0  0  0  0  0  0  0  0  0  0  0  0
  151.7947  134.7243  156.8598 H   0  0  0  0  0  0  0  0  0  0  0  0
  149.6745  135.7374  153.9298 H   0  0  0  0  0  0  0  0  0  0  0  0
  149.1730  136.0415  155.5684 H   0  0  0  0  0  0  0  0  0  0  0  0
  151.8362  136.3296  155.9548 H   0  0  0  0  0  0  0  0  0  0  0  0
  151.5767  136.3768  153.2954 H   0  0  0  0  0  0  0  0  0  0  0  0
  150.0528  138.5128  154.8163 H   0  0  0  0  0  0  0  0  0  0  0  0
  150.1988  138.0999  156.5126 H   0  0  0  0  0  0  0  0  0  0  0  0
  153.5338  139.4153  159.1617 H   0  0  0  0  0  0  0  0  0  0  0  0
  154.2419  139.3175  157.5463 H   0  0  0  0  0  0  0  0  0  0  0  0
  152.8915  138.2652  157.9902 H   0  0  0  0  0  0  0  0  0  0  0  0
  152.6330  141.6371  159.2874 H   0  0  0  0  0  0  0  0  0  0  0  0
  151.0318  143.3507  158.4826 H   0  0  0  0  0  0  0  0  0  0  0  0
  149.8048  143.0102  156.3548 H   0  0  0  0  0  0  0  0  0  0  0  0
  148.9899  141.4211  154.6771 H   0  0  0  0  0  0  0  0  0  0  0  0
  149.7409  139.8436  154.4586 H   0  0  0  0  0  0  0  0  0  0  0  0
  150.5131  141.2893  153.7937 H   0  0  0  0  0  0  0  0  0  0  0  0
  1  2  1  0  0  0  0
  1 25  1  0  0  0  0
  1 26  1  0  0  0  0
  1 27  1  0  0  0  0
  2  3  1  0  0  0  0
  2 28  1  0  0  0  0
  3 24  1  0  0  0  0
  3  4  2  0  0  0  0
  4  5  1  0  0  0  0
  5  6  2  0  0  0  0
  5 29  1  0  0  0  0
  6  7  1  0  0  0  0
  7 24  2  0  0  0  0
  7  8  1  0  0  0  0
  8  9  2  0  0  0  0
  9 10  1  0  0  0  0
  9 30  1  0  0  0  0
 10 11  1  0  0  0  0
 10 24  1  0  0  0  0
 11 12  1  0  0  0  0
 11 31  1  0  0  0  0
 11 32  1  0  0  0  0
 12 13  1  0  0  0  0
 12 14  1  0  0  0  0
 12 33  1  0  0  0  0
 13 34  1  0  0  0  0
 14 15  1  0  0  0  0
 14 35  1  0  0  0  0
 14 36  1  0  0  0  0
 15 16  1  0  0  0  0
 16 22  1  0  0  0  0
 16 17  2  0  0  0  0
 17 18  1  0  0  0  0
 17 19  1  0  0  0  0
 18 37  1  0  0  0  0
 18 38  1  0  0  0  0
 18 39  1  0  0  0  0
 19 20  2  0  0  0  0
 19 40  1  0  0  0  0
 20 21  1  0  0  0  0
 20 41  1  0  0  0  0
 21 22  2  0  0  0  0
 21 42  1  0  0  0  0
 22 23  1  0  0  0  0
 23 43  1  0  0  0  0
 23 44  1  0  0  0  0
 23 45  1  0  0  0  0
M  END
> <s_m_source_file>
AV-unprocessed.smi

> <i_m_source_file_index>
737

> <i_lp_mmshare_version>
43012

> <i_f3d_flags>
0

> <s_epik_input>
bjFbY0hdbmMoW05IXVtDSDNdKWMoYzEyKW4oW2NIXW4yKVtDSDJdW0NASF0oW09IXSlbQ0gyXU9jM2MoW0NIM10pW2NIXVtjSF1bY0hdYzNbQ0gzXQ==

> <s_epik_cmdline>
J2VwaWtfcHl0aG9uJywgJy1waCcsICc3LjAnLCAnLXRuJywgJzgnLCAnLW1hJywgJzIwMCcsICctbWV0YWxfYmluZGluZycsICctaW1hZScsICc8aW5maWxlLm1hZT4nLCAnLW9tYWUnLCAnPG91dGZpbGUubWFlPic=

> <r_lp_tautomer_probability>
1

> <r_epik_Ionization_Penalty>
0.0070961

> <r_epik_Ionization_Penalty_Charging>
0

> <r_epik_Ionization_Penalty_Neutral>
0.0070961

> <r_epik_State_Penalty>
-0

> <r_epik_Charging_Adjusted_Penalty>
0

> <i_epik_Tot_Q>
0

> <i_epik_Tot_abs_Q>
0

> <r_epik_Metal_State_Penalty>
-0

> <b_epik_Metal_Only>
0

> <s_lp_Force_Field>
OPLS_2005

> <r_lp_Energy>
18.2804

> <b_lp_Chiralities_Consistent>
1

> <s_lp_Variant>
AV-unprocessed.smi:737-2

> <Gold.Version>
5.8.1

> <Gold.Id.Protein>
6NUR|6NUR_protein|mol2

> <Gold.PLP.Fitness>
47.1658

> <Gold.PLP.PLP>
-40.3463

> <Gold.PLP.part.hbond>
-2.9180

> <Gold.PLP.part.metal>
0.0000

> <Gold.PLP.part.buried>
-4.3731

> <Gold.PLP.part.nonpolar>
-33.2056

> <Gold.PLP.part.repulsive>
0.1014

> <Gold.PLP.ligand.clash>
0.0000

> <Gold.PLP.ligand.torsion>
0.9238

> <Gold.PLP.Chemscore.Hbond>
2.8160

> <Gold.PLP.Chemscore.CHOScore>
0.0000

> <Gold.PLP.Chemscore.Metal>
0.0000

> <Gold.Chemscore.Hbonds>
donor molecule, donor type, donor heavy atom, donor atom, acceptor molecule, acceptor atom, score
      L1  H     2    28       P1  7948  0.80
      L1  H    13    34       P1  7949  1.00
      P1  H 10752 10765       L1    13  0.61

> <Gold.PLP.Chemscore.Internal.Correction>
0.2191

> <Gold.Rescore>
     Score         DG    S(hbond)    S(metal)    S(lipo)     H(rot)  DE(clash)    DE(int)     intcor
     10.53     -13.64       1.84        0.00      80.96       2.91       1.34       1.78       ----

> <Gold.Chemscore.Fitness>
10.5255

> <Gold.Chemscore.DG>
-13.6410

> <Gold.Chemscore.ZeroCoef>
-5.4800

> <Gold.Chemscore.Hbond>
1.8354

> <Gold.Chemscore.Metal>
0.0000

> <Gold.Chemscore.Lipo>
80.9559

> <Gold.Chemscore.Internal_Hbond>
0.0000

> <Gold.Chemscore.DEClash>
1.3375

> <Gold.Chemscore.DEInternal>
1.7780

> <Gold.Chemscore.Rot>
2.9067

> <Gold.Chemscore.Internal.Correction>
   9.000000E+99

> <Gold.Chemscore.Hbonds>
donor molecule, donor type, donor heavy atom, donor atom, acceptor molecule, acceptor atom, score
      L1  H     2    28       P1  7948  0.31
      L1  H    13    34       P1  7949  0.92
      P1  H 10752 10765       L1    13  0.01

> <Gold.Chemscore.Hbond.Weighted>
-6.1304

> <Gold.Chemscore.Metal.Weighted>
-0.0000

> <Gold.Chemscore.Lipo.Weighted>
-9.4718

> <Gold.Chemscore.Internal_Hbond.Weighted>
0.0000

> <Gold.Chemscore.DEClash.Weighted>
1.3375

> <Gold.Chemscore.DEInternal.Weighted>
1.7780

> <Gold.Chemscore.Rot.Weighted>
7.4412

> <Gold.Chemscore.Internal.Correction.Weighted>
   9.000000E+99

> <Gold.Protein.RotatedTorsions>
[ 6907 6896 6895 6894 ] final   21.23 input  -60.11 | X-H torsion
[ 7974 7965 7964 7962 ] final   16.09 input  175.53 | X-H torsion
[ 8008 7997 7996 7995 ] final -122.69 input   59.86 | X-H torsion
[ 10167 10162 10161 10158 ] final  124.80 input  -65.29 | X-H torsion
[ 10718 10713 10712 10709 ] final   49.68 input   66.30 | X-H torsion
[ 10763 10752 10751 10750 ] final  170.23 input  -60.55 | X-H torsion
[ 11005 11000 10999 10996 ] final   65.50 input  -57.11 | X-H torsion

> <Gold.Protein.ActiveResidues>
 VAL166  LYS551  ARG553  GLY616  TRP617  ASP618  TYR619  PRO620  LYS621  CYS622 
 ASP623  PHE694  ASN695  SER759  ASP760  ASP761  ALA762  ILE779  LEU786  VAL792 
 PHE793  MET794  SER795  GLU796  ALA797  LYS798  CYS799  TRP800  GLU811  SER814 

> <Gold.Protein.RotatedAtoms>
  151.9086  135.0348  160.0512 H   0  0  0  0  0  0  0  0  0  0  0  0  # atno 6907 bound_to 6896
  152.2298  133.5044  159.5217 H   0  0  0  0  0  0  0  0  0  0  0  0  # atno 6908 bound_to 6896
  150.7022  134.1148  159.4056 H   0  0  0  0  0  0  0  0  0  0  0  0  # atno 6909 bound_to 6896
  146.2260  139.8799  142.8572 H   0  0  0  0  0  0  0  0  0  0  0  0  # atno 7974 bound_to 7965
  155.1684  140.0407  157.2857 H   0  0  0  0  0  0  0  0  0  0  0  0  # atno 8008 bound_to 7997
  154.6287  140.2518  155.7433 H   0  0  0  0  0  0  0  0  0  0  0  0  # atno 8009 bound_to 7997
  156.2473  140.2880  156.0628 H   0  0  0  0  0  0  0  0  0  0  0  0  # atno 8010 bound_to 7997
  139.5721  144.6944  151.3750 H   0  0  0  0  0  0  0  0  0  0  0  0  # atno 10167 bound_to 10162
  157.4811  130.8315  149.8094 H   0  0  0  0  0  0  0  0  0  0  0  0  # atno 10718 bound_to 10713
  154.3946  135.2754  155.2134 H   0  0  0  0  0  0  0  0  0  0  0  0  # atno 10763 bound_to 10752
  154.4185  135.6005  153.5999 H   0  0  0  0  0  0  0  0  0  0  0  0  # atno 10764 bound_to 10752
  152.9831  135.5967  154.4206 H   0  0  0  0  0  0  0  0  0  0  0  0  # atno 10765 bound_to 10752
  139.9890  134.6621  156.0124 H   0  0  0  0  0  0  0  0  0  0  0  0  # atno 11005 bound_to 11000
  145.2523  141.0048  143.3874 LP  0  0  0  0  0  0  0  0  0  0  0  0  # atno 17320 bound_to 7965
  144.9365  139.4238  143.6470 LP  0  0  0  0  0  0  0  0  0  0  0  0  # atno 17321 bound_to 7965
  140.7005  143.7642  150.7396 LP  0  0  0  0  0  0  0  0  0  0  0  0  # atno 17342 bound_to 10162
  140.1152  143.4663  152.2346 LP  0  0  0  0  0  0  0  0  0  0  0  0  # atno 17343 bound_to 10162
  156.0122  130.3828  150.2227 LP  0  0  0  0  0  0  0  0  0  0  0  0  # atno 17370 bound_to 10713
  157.0413  131.0036  151.3282 LP  0  0  0  0  0  0  0  0  0  0  0  0  # atno 17371 bound_to 10713
  141.1550  133.6544  156.4132 LP  0  0  0  0  0  0  0  0  0  0  0  0  # atno 17394 bound_to 11000
  140.4945  134.6544  157.5224 LP  0  0  0  0  0  0  0  0  0  0  0  0  # atno 17395 bound_to 11000

$$$$
