AV-unprocessed.smi:36|AV-procd|sdf|296|dock3
  -GOLD-   2262016 93D 1   1.00000     0.00000
 Structure written by MMmdl.
 63 66  0  0  0  0  0  0  0  0  2 V2000
  145.9194  133.5103  162.8749 C   0  0  0  0  0  0  0  0  0  0  0  0
  147.2400  134.1929  162.4805 C   0  0  0  0  0  0  0  0  0  0  0  0
  147.7572  135.0454  163.6509 C   0  0  0  0  0  0  0  0  0  0  0  0
  148.2877  133.1297  162.1110 C   0  0  0  0  0  0  0  0  0  0  0  0
  146.9443  135.3236  160.9687 Si  0  0  0  0  0  0  0  0  0  0  0  0
  145.4228  136.4302  161.2364 C   0  0  0  0  0  0  0  0  0  0  0  0
  148.4665  136.4035  160.6122 C   0  0  0  0  0  0  0  0  0  0  0  0
  146.6758  134.3335  159.6214 O   0  0  0  0  0  0  0  0  0  0  0  0
  146.3412  134.8180  158.3367 C   0  0  0  0  0  0  0  0  0  0  0  0
  147.1541  134.0557  157.2779 C   0  0  1  0  0  0  0  0  0  0  0  0
  147.5681  134.9112  156.2136 O   0  0  0  0  0  0  0  0  0  0  0  0
  148.8506  134.5775  155.7719 C   0  0  1  0  0  0  0  0  0  0  0  0
  149.7715  135.7078  156.1080 N   0  0  0  0  0  0  0  0  0  0  0  0
  150.8575  135.7228  156.9094 C   0  0  0  0  0  0  0  0  0  0  0  0
  151.5074  136.8779  157.0412 N   0  0  0  0  0  0  0  0  0  0  0  0
  150.7578  137.7154  156.2284 C   0  0  0  0  0  0  0  0  0  0  0  0
  150.8807  139.0923  155.8939 C   0  0  0  0  0  0  0  0  0  0  0  0
  151.8518  139.8767  156.3861 N   0  5  0  0  0  0  0  0  0  0  0  0
  151.9520  140.0724  157.7253 C   0  0  0  0  0  0  0  0  0  0  0  0
  152.0908  139.2212  158.6064 O   0  0  0  0  0  0  0  0  0  0  0  0
  151.9569  141.5269  158.1143 C   0  0  0  0  0  0  0  0  0  0  0  0
  152.7034  141.9483  159.2387 C   0  0  0  0  0  0  0  0  0  0  0  0
  152.7047  143.3006  159.6324 C   0  0  0  0  0  0  0  0  0  0  0  0
  151.9509  144.2457  158.9113 C   0  0  0  0  0  0  0  0  0  0  0  0
  151.1920  143.8361  157.7991 C   0  0  0  0  0  0  0  0  0  0  0  0
  151.1903  142.4838  157.4048 C   0  0  0  0  0  0  0  0  0  0  0  0
  149.9445  139.6070  155.0561 N   0  0  0  0  0  0  0  0  0  0  0  0
  148.9696  138.8292  154.5706 C   0  0  0  0  0  0  0  0  0  0  0  0
  148.7404  137.5311  154.7921 N   0  0  0  0  0  0  0  0  0  0  0  0
  149.6713  137.0054  155.6405 C   0  0  0  0  0  0  0  0  0  0  0  0
  149.2769  133.3119  156.5212 C   0  0  0  0  0  0  0  0  0  0  0  0
  148.4286  133.3608  157.7779 C   0  0  1  0  0  0  0  0  0  0  0  0
  149.0786  134.0807  158.8090 O   0  0  0  0  0  0  0  0  0  0  0  0
  146.0540  132.8555  163.7365 H   0  0  0  0  0  0  0  0  0  0  0  0
  145.5267  132.9025  162.0595 H   0  0  0  0  0  0  0  0  0  0  0  0
  145.1559  134.2435  163.1364 H   0  0  0  0  0  0  0  0  0  0  0  0
  147.0330  135.8079  163.9385 H   0  0  0  0  0  0  0  0  0  0  0  0
  148.6851  135.5552  163.3894 H   0  0  0  0  0  0  0  0  0  0  0  0
  147.9550  134.4326  164.5310 H   0  0  0  0  0  0  0  0  0  0  0  0
  148.5023  132.4733  162.9551 H   0  0  0  0  0  0  0  0  0  0  0  0
  149.2274  133.5904  161.8042 H   0  0  0  0  0  0  0  0  0  0  0  0
  147.9450  132.5027  161.2874 H   0  0  0  0  0  0  0  0  0  0  0  0
  145.5360  137.0619  162.1168 H   0  0  0  0  0  0  0  0  0  0  0  0
  144.5165  135.8408  161.3728 H   0  0  0  0  0  0  0  0  0  0  0  0
  145.2539  137.0902  160.3864 H   0  0  0  0  0  0  0  0  0  0  0  0
  148.7079  137.0479  161.4573 H   0  0  0  0  0  0  0  0  0  0  0  0
  148.3047  137.0487  159.7490 H   0  0  0  0  0  0  0  0  0  0  0  0
  149.3475  135.7975  160.4025 H   0  0  0  0  0  0  0  0  0  0  0  0
  145.2698  134.7360  158.1517 H   0  0  0  0  0  0  0  0  0  0  0  0
  146.5921  135.8786  158.3103 H   0  0  0  0  0  0  0  0  0  0  0  0
  146.5202  133.2879  156.8311 H   0  0  0  0  0  0  0  0  0  0  0  0
  148.8995  134.4944  154.6855 H   0  0  0  0  0  0  0  0  0  0  0  0
  151.1964  134.8369  157.4239 H   0  0  0  0  0  0  0  0  0  0  0  0
  153.2866  141.2353  159.8039 H   0  0  0  0  0  0  0  0  0  0  0  0
  153.2839  143.6119  160.4891 H   0  0  0  0  0  0  0  0  0  0  0  0
  151.9516  145.2826  159.2133 H   0  0  0  0  0  0  0  0  0  0  0  0
  150.6080  144.5587  157.2483 H   0  0  0  0  0  0  0  0  0  0  0  0
  150.5927  142.1889  156.5541 H   0  0  0  0  0  0  0  0  0  0  0  0
  148.2705  139.3192  153.9096 H   0  0  0  0  0  0  0  0  0  0  0  0
  148.9941  132.4510  155.9142 H   0  0  0  0  0  0  0  0  0  0  0  0
  150.3531  133.2722  156.6973 H   0  0  0  0  0  0  0  0  0  0  0  0
  148.2142  132.3601  158.1543 H   0  0  0  0  0  0  0  0  0  0  0  0
  148.5729  134.8555  159.0010 H   0  0  0  0  0  0  0  0  0  0  0  0
  1  2  1  0  0  0  0
  1 34  1  0  0  0  0
  1 35  1  0  0  0  0
  1 36  1  0  0  0  0
  2  3  1  0  0  0  0
  2  4  1  0  0  0  0
  2  5  1  0  0  0  0
  3 37  1  0  0  0  0
  3 38  1  0  0  0  0
  3 39  1  0  0  0  0
  4 40  1  0  0  0  0
  4 41  1  0  0  0  0
  4 42  1  0  0  0  0
  5  6  1  0  0  0  0
  5  7  1  0  0  0  0
  5  8  1  0  0  0  0
  6 43  1  0  0  0  0
  6 44  1  0  0  0  0
  6 45  1  0  0  0  0
  7 46  1  0  0  0  0
  7 47  1  0  0  0  0
  7 48  1  0  0  0  0
  8  9  1  0  0  0  0
  9 10  1  0  0  0  0
  9 49  1  0  0  0  0
  9 50  1  0  0  0  0
 10 32  1  0  0  0  0
 10 11  1  0  0  0  0
 10 51  1  0  0  0  0
 11 12  1  0  0  0  0
 12 13  1  0  0  0  0
 12 31  1  0  0  0  0
 12 52  1  0  0  0  0
 13 30  1  0  0  0  0
 13 14  1  0  0  0  0
 14 15  2  0  0  0  0
 14 53  1  0  0  0  0
 15 16  1  0  0  0  0
 16 30  2  0  0  0  0
 16 17  1  0  0  0  0
 17 18  1  0  0  0  0
 17 27  2  0  0  0  0
 18 19  1  0  0  0  0
 19 20  2  0  0  0  0
 19 21  1  0  0  0  0
 21 26  1  0  0  0  0
 21 22  2  0  0  0  0
 22 23  1  0  0  0  0
 22 54  1  0  0  0  0
 23 24  2  0  0  0  0
 23 55  1  0  0  0  0
 24 25  1  0  0  0  0
 24 56  1  0  0  0  0
 25 26  2  0  0  0  0
 25 57  1  0  0  0  0
 26 58  1  0  0  0  0
 27 28  1  0  0  0  0
 28 29  2  0  0  0  0
 28 59  1  0  0  0  0
 29 30  1  0  0  0  0
 31 32  1  0  0  0  0
 31 60  1  0  0  0  0
 31 61  1  0  0  0  0
 32 33  1  0  0  0  0
 32 62  1  0  0  0  0
 33 63  1  0  0  0  0
M  CHG  1  18  -1
M  END
> <s_m_source_file>
AV-unprocessed.smi

> <i_m_source_file_index>
36

> <i_lp_mmshare_version>
43012

> <i_f3d_flags>
0

> <s_epik_input>
W0NIM11DKFtDSDNdKShbQ0gzXSlbU2ldKFtDSDNdKShbQ0gzXSlPW0NIMl1bQ0BASF0xT1tDQEhdKFtDSDJdW0NASF0xW09IXSluKFtjSF1uMiljKGMyMyluW2NIXW5jM1tOSF1DKD1PKWM0W2NIXVtjSF1bY0hdW2NIXVtjSF00

> <s_epik_cmdline>
J2VwaWtfcHl0aG9uJywgJy1waCcsICc3LjAnLCAnLXRuJywgJzgnLCAnLW1hJywgJzIwMCcsICctbWV0YWxfYmluZGluZycsICctaW1hZScsICc8aW5maWxlLm1hZT4nLCAnLW9tYWUnLCAnPG91dGZpbGUubWFlPic=

> <r_lp_tautomer_probability>
1

> <r_epik_Ionization_Penalty>
4.75685

> <r_epik_Ionization_Penalty_Charging>
3.55822

> <r_epik_Ionization_Penalty_Neutral>
1.19863

> <r_epik_State_Penalty>
3.564

> <r_epik_Charging_Adjusted_Penalty>
7.12222

> <i_epik_Tot_Q>
-1

> <i_epik_Tot_abs_Q>
1

> <r_epik_Metal_State_Penalty>
0.523258

> <b_epik_Metal_Only>
1

> <s_epik_Chemistry_Notes>
This compound contains an acetal/aminal-like group ( X-CH(R)-Y where X, Y are N, S, or O) that may be acid/base labile, releasing an aldehyde.

> <s_lp_Force_Field>
OPLS_2005

> <r_lp_Energy>
35.5948

> <b_lp_Chiralities_Consistent>
1

> <s_lp_Variant>
AV-unprocessed.smi:36-18

> <Gold.Version>
5.8.1

> <Gold.Id.Protein>
6NUR|6NUR_protein|mol2

> <Gold.PLP.Fitness>
62.0954

> <Gold.PLP.PLP>
-51.2872

> <Gold.PLP.part.hbond>
-3.0000

> <Gold.PLP.part.metal>
0.0000

> <Gold.PLP.part.buried>
-6.1421

> <Gold.PLP.part.nonpolar>
-41.6682

> <Gold.PLP.part.repulsive>
0.3286

> <Gold.PLP.ligand.clash>
0.0000

> <Gold.PLP.ligand.torsion>
2.6331

> <Gold.PLP.Chemscore.Hbond>
4.0000

> <Gold.PLP.Chemscore.CHOScore>
1.0000

> <Gold.PLP.Chemscore.Metal>
0.0000

> <Gold.Chemscore.Hbonds>
donor molecule, donor type, donor heavy atom, donor atom, acceptor molecule, acceptor atom, score
      P1  H  6896  6908       L1    33  1.00

> <Gold.PLP.Chemscore.Internal.Correction>
1.0744

> <Gold.Rescore>
     Score         DG    S(hbond)    S(metal)    S(lipo)     H(rot)  DE(clash)    DE(int)     intcor
     14.03     -18.49       1.85        0.00     116.98       2.67       0.17       4.30       ----

> <Gold.Chemscore.Fitness>
14.0263

> <Gold.Chemscore.DG>
-18.4939

> <Gold.Chemscore.ZeroCoef>
-5.4800

> <Gold.Chemscore.Hbond>
1.8451

> <Gold.Chemscore.Metal>
0.0000

> <Gold.Chemscore.Lipo>
116.9818

> <Gold.Chemscore.Internal_Hbond>
0.0000

> <Gold.Chemscore.DEClash>
0.1686

> <Gold.Chemscore.DEInternal>
4.2990

> <Gold.Chemscore.Rot>
2.6702

> <Gold.Chemscore.Internal.Correction>
   9.000000E+99

> <Gold.Chemscore.Hbonds>
donor molecule, donor type, donor heavy atom, donor atom, acceptor molecule, acceptor atom, score
      P1  H  6896  6908       L1    33  0.70

> <Gold.Chemscore.Hbond.Weighted>
-6.1628

> <Gold.Chemscore.Metal.Weighted>
-0.0000

> <Gold.Chemscore.Lipo.Weighted>
-13.6869

> <Gold.Chemscore.Internal_Hbond.Weighted>
0.0000

> <Gold.Chemscore.DEClash.Weighted>
0.1686

> <Gold.Chemscore.DEInternal.Weighted>
4.2990

> <Gold.Chemscore.Rot.Weighted>
6.8358

> <Gold.Chemscore.Internal.Correction.Weighted>
   9.000000E+99

> <Gold.Protein.RotatedTorsions>
[ 6907 6896 6895 6894 ] final  150.59 input  -60.11 | X-H torsion
[ 7974 7965 7964 7962 ] final  138.64 input  175.53 | X-H torsion
[ 8008 7997 7996 7995 ] final -166.32 input   59.86 | X-H torsion
[ 10167 10162 10161 10158 ] final  106.97 input  -65.29 | X-H torsion
[ 10718 10713 10712 10709 ] final   48.00 input   66.30 | X-H torsion
[ 10763 10752 10751 10750 ] final    3.30 input  -60.55 | X-H torsion
[ 11005 11000 10999 10996 ] final  -46.04 input  -57.11 | X-H torsion

> <Gold.Protein.ActiveResidues>
 VAL166  LYS551  ARG553  GLY616  TRP617  ASP618  TYR619  PRO620  LYS621  CYS622 
 ASP623  PHE694  ASN695  SER759  ASP760  ASP761  ALA762  ILE779  LEU786  VAL792 
 PHE793  MET794  SER795  GLU796  ALA797  LYS798  CYS799  TRP800  GLU811  SER814 

> <Gold.Protein.RotatedAtoms>
  152.1123  133.4307  159.4636 H   0  0  0  0  0  0  0  0  0  0  0  0  # atno 6907 bound_to 6896
  150.6868  134.2633  159.4567 H   0  0  0  0  0  0  0  0  0  0  0  0  # atno 6908 bound_to 6896
  152.0503  134.9657  160.0625 H   0  0  0  0  0  0  0  0  0  0  0  0  # atno 6909 bound_to 6896
  144.9353  139.4996  143.5598 H   0  0  0  0  0  0  0  0  0  0  0  0  # atno 7974 bound_to 7965
  155.8621  140.0980  157.1606 H   0  0  0  0  0  0  0  0  0  0  0  0  # atno 8008 bound_to 7997
  154.3991  140.1363  156.4036 H   0  0  0  0  0  0  0  0  0  0  0  0  # atno 8009 bound_to 7997
  155.7845  140.3457  155.5318 H   0  0  0  0  0  0  0  0  0  0  0  0  # atno 8010 bound_to 7997
  139.6965  144.7100  151.1258 H   0  0  0  0  0  0  0  0  0  0  0  0  # atno 10167 bound_to 10162
  157.4642  130.8215  149.7919 H   0  0  0  0  0  0  0  0  0  0  0  0  # atno 10718 bound_to 10713
  153.2850  135.6944  153.7349 H   0  0  0  0  0  0  0  0  0  0  0  0  # atno 10763 bound_to 10752
  153.6321  135.3408  155.3046 H   0  0  0  0  0  0  0  0  0  0  0  0  # atno 10764 bound_to 10752
  154.8507  135.4411  154.1915 H   0  0  0  0  0  0  0  0  0  0  0  0  # atno 10765 bound_to 10752
  141.0554  133.6728  156.3098 H   0  0  0  0  0  0  0  0  0  0  0  0  # atno 11005 bound_to 11000
  146.3264  139.8334  142.8904 LP  0  0  0  0  0  0  0  0  0  0  0  0  # atno 17320 bound_to 7965
  145.3076  141.0211  143.3573 LP  0  0  0  0  0  0  0  0  0  0  0  0  # atno 17321 bound_to 7965
  140.7698  143.5484  150.9233 LP  0  0  0  0  0  0  0  0  0  0  0  0  # atno 17342 bound_to 10162
  139.9164  143.6659  152.3105 LP  0  0  0  0  0  0  0  0  0  0  0  0  # atno 17343 bound_to 10162
  156.0043  130.3864  150.2490 LP  0  0  0  0  0  0  0  0  0  0  0  0  # atno 17370 bound_to 10713
  157.0669  131.0106  151.3203 LP  0  0  0  0  0  0  0  0  0  0  0  0  # atno 17371 bound_to 10713
  140.5975  134.5589  157.5511 LP  0  0  0  0  0  0  0  0  0  0  0  0  # atno 17394 bound_to 11000
  139.9385  134.7830  156.0739 LP  0  0  0  0  0  0  0  0  0  0  0  0  # atno 17395 bound_to 11000

$$$$
