AV-unprocessed.smi:1047|AV-procd|sdf|4594|dock6
  -GOLD-   22720 3 73D 1   1.00000     0.00000
 Structure written by MMmdl.
 55 57  0  0  0  0  0  0  0  0  1 V2000
  144.1031  146.1163  158.8130 C   0  0  0  0  0  0  0  0  0  0  0  0
  144.2558  146.6682  157.3883 C   0  0  0  0  0  0  0  0  0  0  0  0
  144.0412  145.6906  156.3231 N   0  0  0  0  0  0  0  0  0  0  0  0
  144.0980  146.2898  154.9915 C   0  0  0  0  0  0  0  0  0  0  0  0
  143.9084  145.2414  153.8816 C   0  0  0  0  0  0  0  0  0  0  0  0
  144.8821  144.2139  154.0300 O   0  0  0  0  0  0  0  0  0  0  0  0
  144.8044  143.5588  155.2939 C   0  0  1  0  0  0  0  0  0  0  0  0
  145.8653  142.4506  155.3349 C   0  0  0  0  0  0  0  0  0  0  0  0
  147.0122  142.8285  154.5219 N   0  0  0  0  0  0  0  0  0  0  0  0
  147.6716  141.7246  153.8330 C   0  0  0  0  0  0  0  0  0  0  0  0
  148.7514  141.0708  154.7221 C   0  0  1  0  0  0  0  0  0  0  0  0
  149.2435  139.9362  154.0410 O   0  0  0  0  0  0  0  0  0  0  0  0
  149.9707  141.9662  155.0536 C   0  0  0  0  0  0  0  0  0  0  0  0
  150.8550  141.4015  156.0591 N   0  0  0  0  0  0  0  0  0  0  0  0
  151.5138  140.2281  155.9913 C   0  0  0  0  0  0  0  0  0  0  0  0
  152.3043  139.9122  157.0128 N   0  0  0  0  0  0  0  0  0  0  0  0
  152.1352  141.0060  157.8441 C   0  0  0  0  0  0  0  0  0  0  0  0
  152.7158  141.3023  159.0965 C   0  0  0  0  0  0  0  0  0  0  0  0
  152.3995  142.4997  159.7766 C   0  0  0  0  0  0  0  0  0  0  0  0
  153.0520  142.7814  161.1186 C   0  0  0  0  0  0  0  0  0  0  0  0
  151.4833  143.4198  159.2067 C   0  0  0  0  0  0  0  0  0  0  0  0
  151.1268  144.7119  159.9200 C   0  0  0  0  0  0  0  0  0  0  0  0
  150.8935  143.1386  157.9565 C   0  0  0  0  0  0  0  0  0  0  0  0
  151.2229  141.9481  157.2849 C   0  0  0  0  0  0  0  0  0  0  0  0
  145.0190  144.6100  156.3996 C   0  0  0  0  0  0  0  0  0  0  0  0
  144.3818  146.8722  159.5473 H   0  0  0  0  0  0  0  0  0  0  0  0
  144.7460  145.2495  158.9701 H   0  0  0  0  0  0  0  0  0  0  0  0
  143.0766  145.8200  159.0282 H   0  0  0  0  0  0  0  0  0  0  0  0
  143.5858  147.5186  157.2527 H   0  0  0  0  0  0  0  0  0  0  0  0
  145.2676  147.0669  157.3005 H   0  0  0  0  0  0  0  0  0  0  0  0
  143.3274  147.0527  154.8857 H   0  0  0  0  0  0  0  0  0  0  0  0
  145.0574  146.7910  154.8523 H   0  0  0  0  0  0  0  0  0  0  0  0
  142.9060  144.8117  153.9204 H   0  0  0  0  0  0  0  0  0  0  0  0
  144.0216  145.7020  152.9002 H   0  0  0  0  0  0  0  0  0  0  0  0
  143.8140  143.1131  155.4129 H   0  0  0  0  0  0  0  0  0  0  0  0
  146.1698  142.2522  156.3631 H   0  0  0  0  0  0  0  0  0  0  0  0
  145.4353  141.5262  154.9473 H   0  0  0  0  0  0  0  0  0  0  0  0
  147.6836  143.3358  155.0902 H   0  0  0  0  0  0  0  0  0  0  0  0
  146.9216  140.9778  153.5679 H   0  0  0  0  0  0  0  0  0  0  0  0
  148.1146  142.0667  152.8968 H   0  0  0  0  0  0  0  0  0  0  0  0
  148.2922  140.7151  155.6450 H   0  0  0  0  0  0  0  0  0  0  0  0
  149.4188  140.1776  153.1444 H   0  0  0  0  0  0  0  0  0  0  0  0
  150.5567  142.1529  154.1527 H   0  0  0  0  0  0  0  0  0  0  0  0
  149.6315  142.9401  155.4103 H   0  0  0  0  0  0  0  0  0  0  0  0
  151.4208  139.5755  155.1355 H   0  0  0  0  0  0  0  0  0  0  0  0
  153.4128  140.6006  159.5305 H   0  0  0  0  0  0  0  0  0  0  0  0
  152.2983  142.8296  161.9048 H   0  0  0  0  0  0  0  0  0  0  0  0
  153.5880  143.7307  161.0928 H   0  0  0  0  0  0  0  0  0  0  0  0
  153.7670  142.0025  161.3859 H   0  0  0  0  0  0  0  0  0  0  0  0
  150.3923  145.2878  159.3561 H   0  0  0  0  0  0  0  0  0  0  0  0
  152.0128  145.3343  160.0486 H   0  0  0  0  0  0  0  0  0  0  0  0
  150.7042  144.5020  160.9027 H   0  0  0  0  0  0  0  0  0  0  0  0
  150.1990  143.8338  157.5089 H   0  0  0  0  0  0  0  0  0  0  0  0
  146.0284  145.0180  156.3224 H   0  0  0  0  0  0  0  0  0  0  0  0
  144.9531  144.1243  157.3740 H   0  0  0  0  0  0  0  0  0  0  0  0
  1  2  1  0  0  0  0
  1 26  1  0  0  0  0
  1 27  1  0  0  0  0
  1 28  1  0  0  0  0
  2  3  1  0  0  0  0
  2 29  1  0  0  0  0
  2 30  1  0  0  0  0
  3 25  1  0  0  0  0
  3  4  1  0  0  0  0
  4  5  1  0  0  0  0
  4 31  1  0  0  0  0
  4 32  1  0  0  0  0
  5  6  1  0  0  0  0
  5 33  1  0  0  0  0
  5 34  1  0  0  0  0
  6  7  1  0  0  0  0
  7  8  1  0  0  0  0
  7 25  1  0  0  0  0
  7 35  1  0  0  0  0
  8  9  1  0  0  0  0
  8 36  1  0  0  0  0
  8 37  1  0  0  0  0
  9 10  1  0  0  0  0
  9 38  1  0  0  0  0
 10 11  1  0  0  0  0
 10 39  1  0  0  0  0
 10 40  1  0  0  0  0
 11 12  1  0  0  0  0
 11 13  1  0  0  0  0
 11 41  1  0  0  0  0
 12 42  1  0  0  0  0
 13 14  1  0  0  0  0
 13 43  1  0  0  0  0
 13 44  1  0  0  0  0
 14 24  1  0  0  0  0
 14 15  1  0  0  0  0
 15 16  2  0  0  0  0
 15 45  1  0  0  0  0
 16 17  1  0  0  0  0
 17 24  2  0  0  0  0
 17 18  1  0  0  0  0
 18 19  2  0  0  0  0
 18 46  1  0  0  0  0
 19 20  1  0  0  0  0
 19 21  1  0  0  0  0
 20 47  1  0  0  0  0
 20 48  1  0  0  0  0
 20 49  1  0  0  0  0
 21 22  1  0  0  0  0
 21 23  2  0  0  0  0
 22 50  1  0  0  0  0
 22 51  1  0  0  0  0
 22 52  1  0  0  0  0
 23 24  1  0  0  0  0
 23 53  1  0  0  0  0
 25 54  1  0  0  0  0
 25 55  1  0  0  0  0
M  END
> <s_m_source_file>
AV-unprocessed.smi

> <i_m_source_file_index>
1047

> <i_lp_mmshare_version>
43012

> <i_f3d_flags>
0

> <s_epik_input>
W0NIM11bQ0gyXU4xW0NIMl1bQ0gyXU9bQ0BIXShbQ0gyXTEpW0NIMl1bTkhdW0NIMl1bQ0BIXShbT0hdKVtDSDJdbihbY0hdbjIpYyhjMjMpW2NIXWMoW0NIM10pYyhbY0hdMylbQ0gzXQ==

> <s_epik_cmdline>
J2VwaWtfcHl0aG9uJywgJy1waCcsICc3LjAnLCAnLXRuJywgJzgnLCAnLW1hJywgJzIwMCcsICctbWV0YWxfYmluZGluZycsICctaW1hZScsICc8aW5maWxlLm1hZT4nLCAnLW9tYWUnLCAnPG91dGZpbGUubWFlPic=

> <r_epik_Ionization_Penalty>
2.74124

> <r_epik_Ionization_Penalty_Charging>
0

> <r_epik_Ionization_Penalty_Neutral>
2.74124

> <r_epik_State_Penalty>
2.37482

> <r_epik_Charging_Adjusted_Penalty>
2.37482

> <i_epik_Tot_Q>
0

> <i_epik_Tot_abs_Q>
0

> <r_epik_Metal_State_Penalty>
2.25944

> <b_epik_Metal_Only>
0

> <s_lp_Force_Field>
OPLS_2005

> <r_lp_Energy>
29.9902

> <b_lp_Chiralities_Consistent>
1

> <s_lp_Variant>
AV-unprocessed.smi:1047-35

> <Gold.Version>
5.8.1

> <Gold.Id.Protein>
6NUR|6NUR_protein|mol2

> <Gold.PLP.Fitness>
56.2476

> <Gold.PLP.PLP>
-48.7464

> <Gold.PLP.part.hbond>
-3.0000

> <Gold.PLP.part.metal>
0.0000

> <Gold.PLP.part.buried>
-6.3853

> <Gold.PLP.part.nonpolar>
-38.7111

> <Gold.PLP.part.repulsive>
0.2370

> <Gold.PLP.ligand.clash>
0.0000

> <Gold.PLP.ligand.torsion>
0.8244

> <Gold.PLP.Chemscore.Hbond>
3.0000

> <Gold.PLP.Chemscore.CHOScore>
0.0000

> <Gold.PLP.Chemscore.Metal>
0.0000

> <Gold.Chemscore.Hbonds>
donor molecule, donor type, donor heavy atom, donor atom, acceptor molecule, acceptor atom, score
      L1  H     9    38       P1  8028  1.00
      L1  H    12    42       P1  7957  1.00
      P1  H  7997  8010       L1    16  0.70

> <Gold.PLP.Chemscore.Internal.Correction>
0.1500

> <Gold.Rescore>
     Score         DG    S(hbond)    S(metal)    S(lipo)     H(rot)  DE(clash)    DE(int)     intcor
     17.13     -20.09       1.95        0.00     124.45       2.52       1.26       1.71       ----

> <Gold.Chemscore.Fitness>
17.1259

> <Gold.Chemscore.DG>
-20.0924

> <Gold.Chemscore.ZeroCoef>
-5.4800

> <Gold.Chemscore.Hbond>
1.9497

> <Gold.Chemscore.Metal>
0.0000

> <Gold.Chemscore.Lipo>
124.4540

> <Gold.Chemscore.Internal_Hbond>
0.0000

> <Gold.Chemscore.DEClash>
1.2567

> <Gold.Chemscore.DEInternal>
1.7098

> <Gold.Chemscore.Rot>
2.5237

> <Gold.Chemscore.Internal.Correction>
   9.000000E+99

> <Gold.Chemscore.Hbonds>
donor molecule, donor type, donor heavy atom, donor atom, acceptor molecule, acceptor atom, score
      L1  H     9    38       P1  8028  0.39
      L1  H    12    42       P1  7957  0.96
      P1  H  7997  8010       L1    16  0.13

> <Gold.Chemscore.Hbond.Weighted>
-6.5119

> <Gold.Chemscore.Metal.Weighted>
-0.0000

> <Gold.Chemscore.Lipo.Weighted>
-14.5611

> <Gold.Chemscore.Internal_Hbond.Weighted>
0.0000

> <Gold.Chemscore.DEClash.Weighted>
1.2567

> <Gold.Chemscore.DEInternal.Weighted>
1.7098

> <Gold.Chemscore.Rot.Weighted>
6.4607

> <Gold.Chemscore.Internal.Correction.Weighted>
   9.000000E+99

> <Gold.Protein.RotatedTorsions>
[ 6907 6896 6895 6894 ] final -152.66 input  -60.11 | X-H torsion
[ 7974 7965 7964 7962 ] final  -31.46 input  175.53 | X-H torsion
[ 8008 7997 7996 7995 ] final   55.92 input   59.86 | X-H torsion
[ 10167 10162 10161 10158 ] final -173.74 input  -65.29 | X-H torsion
[ 10718 10713 10712 10709 ] final  100.54 input   66.30 | X-H torsion
[ 10763 10752 10751 10750 ] final   13.83 input  -60.55 | X-H torsion
[ 11005 11000 10999 10996 ] final  -82.95 input  -57.11 | X-H torsion

> <Gold.Protein.ActiveResidues>
 VAL166  LYS551  ARG553  GLY616  TRP617  ASP618  TYR619  PRO620  LYS621  CYS622 
 ASP623  PHE694  ASN695  SER759  ASP760  ASP761  ALA762  ILE779  LEU786  VAL792 
 PHE793  MET794  SER795  GLU796  ALA797  LYS798  CYS799  TRP800  GLU811  SER814 

> <Gold.Protein.RotatedAtoms>
  151.2310  133.4450  159.2603 H   0  0  0  0  0  0  0  0  0  0  0  0  # atno 6907 bound_to 6896
  151.0794  134.9849  159.8359 H   0  0  0  0  0  0  0  0  0  0  0  0  # atno 6908 bound_to 6896
  152.5422  134.2250  159.8855 H   0  0  0  0  0  0  0  0  0  0  0  0  # atno 6909 bound_to 6896
  146.1065  140.5670  142.8797 H   0  0  0  0  0  0  0  0  0  0  0  0  # atno 7974 bound_to 7965
  155.5090  140.3476  155.4385 H   0  0  0  0  0  0  0  0  0  0  0  0  # atno 8008 bound_to 7997
  156.0862  140.1399  156.9677 H   0  0  0  0  0  0  0  0  0  0  0  0  # atno 8009 bound_to 7997
  154.4608  140.0935  156.6864 H   0  0  0  0  0  0  0  0  0  0  0  0  # atno 8010 bound_to 7997
  139.5672  144.1728  152.1330 H   0  0  0  0  0  0  0  0  0  0  0  0  # atno 10167 bound_to 10162
  157.6851  131.0701  150.5115 H   0  0  0  0  0  0  0  0  0  0  0  0  # atno 10718 bound_to 10713
  153.1682  135.6808  153.8645 H   0  0  0  0  0  0  0  0  0  0  0  0  # atno 10763 bound_to 10752
  153.8018  135.3155  155.3392 H   0  0  0  0  0  0  0  0  0  0  0  0  # atno 10764 bound_to 10752
  154.7980  135.4795  154.0298 H   0  0  0  0  0  0  0  0  0  0  0  0  # atno 10765 bound_to 10752
  141.1660  133.7270  156.8648 H   0  0  0  0  0  0  0  0  0  0  0  0  # atno 11005 bound_to 11000
  144.7475  140.5107  143.6825 LP  0  0  0  0  0  0  0  0  0  0  0  0  # atno 17320 bound_to 7965
  145.5750  139.1485  143.3267 LP  0  0  0  0  0  0  0  0  0  0  0  0  # atno 17321 bound_to 7965
  140.1253  144.5337  150.6837 LP  0  0  0  0  0  0  0  0  0  0  0  0  # atno 17342 bound_to 10162
  140.6956  143.2401  151.5011 LP  0  0  0  0  0  0  0  0  0  0  0  0  # atno 17343 bound_to 10162
  156.5432  130.4213  149.6143 LP  0  0  0  0  0  0  0  0  0  0  0  0  # atno 17370 bound_to 10713
  156.2967  130.7154  151.2016 LP  0  0  0  0  0  0  0  0  0  0  0  0  # atno 17371 bound_to 10713
  140.1823  134.9024  157.2963 LP  0  0  0  0  0  0  0  0  0  0  0  0  # atno 17394 bound_to 11000
  140.2381  134.3828  155.7492 LP  0  0  0  0  0  0  0  0  0  0  0  0  # atno 17395 bound_to 11000

$$$$
