AV-unprocessed.smi:283|AV-procd|sdf|2149|dock10
  -GOLD-   2262021483D 1   1.00000     0.00000
 Structure written by MMmdl.
 48 51  0  0  0  0  0  0  0  0  1 V2000
  151.3484  137.0608  155.7632 C   0  0  0  0  0  0  0  0  0  0  0  0
  149.8559  136.8636  155.4669 C   0  0  2  0  0  0  0  0  0  0  0  0
  149.6693  135.7140  154.5833 N   0  0  0  0  0  0  0  0  0  0  0  0
  149.6593  134.4573  155.0819 C   0  0  0  0  0  0  0  0  0  0  0  0
  150.2172  134.1771  156.2886 N   0  0  0  0  0  0  0  0  0  0  0  0
  150.1957  132.9273  156.7595 C   0  0  0  0  0  0  0  0  0  0  0  0
  149.6808  131.8332  156.1955 N   0  0  0  0  0  0  0  0  0  0  0  0
  149.1236  132.1059  154.9795 C   0  0  0  0  0  0  0  0  0  0  0  0
  149.0734  133.3861  154.3596 C   0  0  0  0  0  0  0  0  0  0  0  0
  148.4279  133.2931  153.1340 N   0  0  0  0  0  0  0  0  0  0  0  0
  148.1190  132.0281  153.0370 C   0  0  0  0  0  0  0  0  0  0  0  0
  148.5027  131.2398  154.0996 N   0  0  0  0  0  0  0  0  0  0  0  0
  148.2954  129.7629  154.2512 C   0  0  2  0  0  0  0  0  0  0  0  0
  148.9260  129.1125  153.1911 O   0  0  0  0  0  0  0  0  0  0  0  0
  148.1019  128.0537  152.7161 C   0  0  2  0  0  0  0  0  0  0  0  0
  148.4679  127.6731  151.2704 C   0  0  0  0  0  0  0  0  0  0  0  0
  149.4467  126.6556  151.2667 O   0  0  0  0  0  0  0  0  0  0  0  0
  146.6747  128.5824  152.9235 C   0  0  2  0  0  0  0  0  0  0  0  0
  146.2549  129.3940  151.8394 O   0  0  0  0  0  0  0  0  0  0  0  0
  146.8051  129.3617  154.2290 C   0  0  2  0  0  0  0  0  0  0  0  0
  145.8757  130.4262  154.3534 O   0  0  0  0  0  0  0  0  0  0  0  0
  149.2376  138.1599  154.9389 C   0  0  0  0  0  0  0  0  0  0  0  0
  150.0037  139.3488  154.9401 C   0  0  0  0  0  0  0  0  0  0  0  0
  149.4600  140.5543  154.4587 C   0  0  0  0  0  0  0  0  0  0  0  0
  148.1401  140.5852  153.9743 C   0  0  0  0  0  0  0  0  0  0  0  0
  147.3650  139.4108  153.9775 C   0  0  0  0  0  0  0  0  0  0  0  0
  147.9040  138.2007  154.4594 C   0  0  0  0  0  0  0  0  0  0  0  0
  146.8999  136.7931  154.4496 Cl  0  0  0  0  0  0  0  0  0  0  0  0
  148.7843  129.5172  155.1946 H   0  0  0  0  0  0  0  0  0  0  0  0
  148.2395  127.1945  153.3757 H   0  0  0  0  0  0  0  0  0  0  0  0
  145.9595  127.7647  153.0181 H   0  0  0  0  0  0  0  0  0  0  0  0
  146.6496  128.6754  155.0626 H   0  0  0  0  0  0  0  0  0  0  0  0
  151.5005  137.8663  156.4823 H   0  0  0  0  0  0  0  0  0  0  0  0
  151.9047  137.3111  154.8592 H   0  0  0  0  0  0  0  0  0  0  0  0
  151.7879  136.1567  156.1857 H   0  0  0  0  0  0  0  0  0  0  0  0
  149.3784  136.5988  156.4093 H   0  0  0  0  0  0  0  0  0  0  0  0
  149.3518  135.9294  153.6494 H   0  0  0  0  0  0  0  0  0  0  0  0
  150.6579  132.7829  157.7247 H   0  0  0  0  0  0  0  0  0  0  0  0
  147.6040  131.6285  152.1756 H   0  0  0  0  0  0  0  0  0  0  0  0
  147.5924  127.2815  150.7513 H   0  0  0  0  0  0  0  0  0  0  0  0
  148.8208  128.5386  150.7085 H   0  0  0  0  0  0  0  0  0  0  0  0
  150.2939  127.0508  151.4042 H   0  0  0  0  0  0  0  0  0  0  0  0
  147.0080  129.8419  151.4858 H   0  0  0  0  0  0  0  0  0  0  0  0
  145.0246  130.0610  154.5399 H   0  0  0  0  0  0  0  0  0  0  0  0
  151.0182  139.3414  155.3112 H   0  0  0  0  0  0  0  0  0  0  0  0
  150.0562  141.4548  154.4619 H   0  0  0  0  0  0  0  0  0  0  0  0
  147.7211  141.5090  153.6035 H   0  0  0  0  0  0  0  0  0  0  0  0
  146.3502  139.4396  153.6090 H   0  0  0  0  0  0  0  0  0  0  0  0
  1  2  1  0  0  0  0
  1 33  1  0  0  0  0
  1 34  1  0  0  0  0
  1 35  1  0  0  0  0
  2  3  1  0  0  0  0
  2 22  1  0  0  0  0
  2 36  1  0  0  0  0
  3  4  1  0  0  0  0
  3 37  1  0  0  0  0
  4  9  1  0  0  0  0
  4  5  2  0  0  0  0
  5  6  1  0  0  0  0
  6  7  2  0  0  0  0
  6 38  1  0  0  0  0
  7  8  1  0  0  0  0
  8 12  1  0  0  0  0
  8  9  2  0  0  0  0
  9 10  1  0  0  0  0
 10 11  2  0  0  0  0
 11 12  1  0  0  0  0
 11 39  1  0  0  0  0
 12 13  1  0  0  0  0
 13 29  1  0  0  0  0
 13 20  1  0  0  0  0
 13 14  1  0  0  0  0
 14 15  1  0  0  0  0
 15 30  1  0  0  0  0
 15 16  1  0  0  0  0
 15 18  1  0  0  0  0
 16 17  1  0  0  0  0
 16 40  1  0  0  0  0
 16 41  1  0  0  0  0
 17 42  1  0  0  0  0
 18 31  1  0  0  0  0
 18 19  1  0  0  0  0
 18 20  1  0  0  0  0
 19 43  1  0  0  0  0
 20 32  1  0  0  0  0
 20 21  1  0  0  0  0
 21 44  1  0  0  0  0
 22 27  1  0  0  0  0
 22 23  2  0  0  0  0
 23 24  1  0  0  0  0
 23 45  1  0  0  0  0
 24 25  2  0  0  0  0
 24 46  1  0  0  0  0
 25 26  1  0  0  0  0
 25 47  1  0  0  0  0
 26 27  2  0  0  0  0
 26 48  1  0  0  0  0
 27 28  1  0  0  0  0
M  END
> <s_m_source_file>
AV-unprocessed.smi

> <i_m_source_file_index>
283

> <i_lp_mmshare_version>
43012

> <i_f3d_flags>
0

> <s_epik_input>
Q2xjMVtjSF1bY0hdW2NIXVtjSF1jMVtDQEhdKFtDSDNdKVtOSF1jKG5bY0hdbjIpYyhjMjMpbltjSF1uM1tDQEBIXTRPW0NASF0oW0NIMl1bT0hdKVtDQEBIXShbT0hdKVtDQEhdNFtPSF0=

> <s_epik_cmdline>
J2VwaWtfcHl0aG9uJywgJy1waCcsICc3LjAnLCAnLXRuJywgJzgnLCAnLW1hJywgJzIwMCcsICctbWV0YWxfYmluZGluZycsICctaW1hZScsICc8aW5maWxlLm1hZT4nLCAnLW9tYWUnLCAnPG91dGZpbGUubWFlPic=

> <r_lp_tautomer_probability>
1

> <r_epik_Ionization_Penalty>
0.000266407

> <r_epik_Ionization_Penalty_Charging>
0

> <r_epik_Ionization_Penalty_Neutral>
0.000266407

> <r_epik_State_Penalty>
-0

> <r_epik_Charging_Adjusted_Penalty>
0

> <i_epik_Tot_Q>
0

> <i_epik_Tot_abs_Q>
0

> <r_epik_Metal_State_Penalty>
-0

> <b_epik_Metal_Only>
0

> <s_epik_Chemistry_Notes>
This compound contains an acetal/aminal-like group ( X-CH(R)-Y where X, Y are N, S, or O) that may be acid/base labile, releasing an aldehyde.

> <s_lp_Force_Field>
OPLS_2005

> <r_lp_Energy>
56.6736

> <b_lp_Chiralities_Consistent>
1

> <s_lp_Variant>
AV-unprocessed.smi:283-25

> <Gold.Version>
5.8.1

> <Gold.Id.Protein>
6NUR|6NUR_protein|mol2

> <Gold.PLP.Fitness>
48.8693

> <Gold.PLP.PLP>
-39.5679

> <Gold.PLP.part.hbond>
-3.0350

> <Gold.PLP.part.metal>
0.0000

> <Gold.PLP.part.buried>
-4.3340

> <Gold.PLP.part.nonpolar>
-32.9917

> <Gold.PLP.part.repulsive>
0.4220

> <Gold.PLP.ligand.clash>
0.0000

> <Gold.PLP.ligand.torsion>
0.9649

> <Gold.PLP.Chemscore.Hbond>
2.9913

> <Gold.PLP.Chemscore.CHOScore>
0.7330

> <Gold.PLP.Chemscore.Metal>
0.0000

> <Gold.Chemscore.Hbonds>
donor molecule, donor type, donor heavy atom, donor atom, acceptor molecule, acceptor atom, score
      L1  H     3    37       P1  7948  1.00
      L1  H    17    42       P1 10737  1.00
      L1  H    21    44       P1 10956  1.00
      L1  C    11    39       P1 10747  0.74

> <Gold.PLP.Chemscore.Internal.Correction>
0.0583

> <Gold.Rescore>
     Score         DG    S(hbond)    S(metal)    S(lipo)     H(rot)  DE(clash)    DE(int)     intcor
     11.67     -12.61       2.76        0.00      71.94       4.10       0.10       0.84       ----

> <Gold.Chemscore.Fitness>
11.6692

> <Gold.Chemscore.DG>
-12.6142

> <Gold.Chemscore.ZeroCoef>
-5.4800

> <Gold.Chemscore.Hbond>
2.7562

> <Gold.Chemscore.Metal>
0.0000

> <Gold.Chemscore.Lipo>
71.9362

> <Gold.Chemscore.Internal_Hbond>
0.0000

> <Gold.Chemscore.DEClash>
0.1013

> <Gold.Chemscore.DEInternal>
0.8437

> <Gold.Chemscore.Rot>
4.0968

> <Gold.Chemscore.Internal.Correction>
   9.000000E+99

> <Gold.Chemscore.Hbonds>
donor molecule, donor type, donor heavy atom, donor atom, acceptor molecule, acceptor atom, score
      L1  H     3    37       P1  7948  0.65
      L1  H    17    42       P1 10737  1.00
      L1  H    19    43       P1 10747  0.01
      L1  H    21    44       P1 10956  0.50

> <Gold.Chemscore.Hbond.Weighted>
-9.2056

> <Gold.Chemscore.Metal.Weighted>
-0.0000

> <Gold.Chemscore.Lipo.Weighted>
-8.4165

> <Gold.Chemscore.Internal_Hbond.Weighted>
0.0000

> <Gold.Chemscore.DEClash.Weighted>
0.1013

> <Gold.Chemscore.DEInternal.Weighted>
0.8437

> <Gold.Chemscore.Rot.Weighted>
10.4879

> <Gold.Chemscore.Internal.Correction.Weighted>
   9.000000E+99

> <Gold.Protein.RotatedTorsions>
[ 6907 6896 6895 6894 ] final  159.75 input  -60.11 | X-H torsion
[ 7974 7965 7964 7962 ] final  -44.09 input  175.53 | X-H torsion
[ 8008 7997 7996 7995 ] final  -11.95 input   59.86 | X-H torsion
[ 10167 10162 10161 10158 ] final -136.24 input  -65.29 | X-H torsion
[ 10718 10713 10712 10709 ] final   17.21 input   66.30 | X-H torsion
[ 10763 10752 10751 10750 ] final  152.72 input  -60.55 | X-H torsion
[ 11005 11000 10999 10996 ] final  -84.45 input  -57.11 | X-H torsion

> <Gold.Protein.ActiveResidues>
 VAL166  LYS551  ARG553  GLY616  TRP617  ASP618  TYR619  PRO620  LYS621  CYS622 
 ASP623  PHE694  ASN695  SER759  ASP760  ASP761  ALA762  ILE779  LEU786  VAL792 
 PHE793  MET794  SER795  GLU796  ALA797  LYS798  CYS799  TRP800  GLU811  SER814 

> <Gold.Protein.RotatedAtoms>
  151.9808  133.3757  159.4106 H   0  0  0  0  0  0  0  0  0  0  0  0  # atno 6907 bound_to 6896
  150.6935  134.4040  159.5141 H   0  0  0  0  0  0  0  0  0  0  0  0  # atno 6908 bound_to 6896
  152.1759  134.8795  160.0581 H   0  0  0  0  0  0  0  0  0  0  0  0  # atno 6909 bound_to 6896
  145.9954  140.7134  142.9296 H   0  0  0  0  0  0  0  0  0  0  0  0  # atno 7974 bound_to 7965
  154.5420  140.2289  155.8626 H   0  0  0  0  0  0  0  0  0  0  0  0  # atno 8008 bound_to 7997
  156.1867  140.3087  155.9214 H   0  0  0  0  0  0  0  0  0  0  0  0  # atno 8009 bound_to 7997
  155.3239  140.0442  157.3031 H   0  0  0  0  0  0  0  0  0  0  0  0  # atno 8010 bound_to 7997
  139.8697  143.6972  152.2641 H   0  0  0  0  0  0  0  0  0  0  0  0  # atno 10167 bound_to 10162
  157.0788  130.6379  149.5822 H   0  0  0  0  0  0  0  0  0  0  0  0  # atno 10718 bound_to 10713
  154.1247  135.2830  155.3200 H   0  0  0  0  0  0  0  0  0  0  0  0  # atno 10763 bound_to 10752
  154.6398  135.5406  153.7780 H   0  0  0  0  0  0  0  0  0  0  0  0  # atno 10764 bound_to 10752
  153.0301  135.6483  154.1399 H   0  0  0  0  0  0  0  0  0  0  0  0  # atno 10765 bound_to 10752
  141.1650  133.7346  156.8869 H   0  0  0  0  0  0  0  0  0  0  0  0  # atno 11005 bound_to 11000
  144.6902  140.3142  143.7243 LP  0  0  0  0  0  0  0  0  0  0  0  0  # atno 17320 bound_to 7965
  145.7567  139.1811  143.2290 LP  0  0  0  0  0  0  0  0  0  0  0  0  # atno 17321 bound_to 7965
  139.7295  144.7585  151.0824 LP  0  0  0  0  0  0  0  0  0  0  0  0  # atno 17342 bound_to 10162
  140.7762  143.5106  150.9658 LP  0  0  0  0  0  0  0  0  0  0  0  0  # atno 17343 bound_to 10162
  155.9929  130.4989  150.7360 LP  0  0  0  0  0  0  0  0  0  0  0  0  # atno 17370 bound_to 10713
  157.4817  131.0903  151.0528 LP  0  0  0  0  0  0  0  0  0  0  0  0  # atno 17371 bound_to 10713
  140.1676  134.9122  157.2793 LP  0  0  0  0  0  0  0  0  0  0  0  0  # atno 17394 bound_to 11000
  140.2539  134.3650  155.7431 LP  0  0  0  0  0  0  0  0  0  0  0  0  # atno 17395 bound_to 11000

$$$$
