AV-unprocessed.smi:1455|AV-procd|sdf|5916|dock10
  -GOLD-   22720 6 03D 1   1.00000     0.00000
 Structure written by MMmdl.
 31 32  0  0  0  0  0  0  0  0  2 V2000
  151.9866  141.0440  157.3357 O   0  0  0  0  0  0  0  0  0  0  0  0
  151.1612  141.7331  156.7370 C   0  0  0  0  0  0  0  0  0  0  0  0
  150.2536  141.0702  155.6861 C   0  0  0  0  0  0  0  0  0  0  0  0
  150.4982  139.6312  155.4776 N   0  0  0  0  0  0  0  0  0  0  0  0
  149.4126  138.7558  155.6572 C   0  0  0  0  0  0  0  0  0  0  0  0
  149.5338  137.4268  155.4771 C   0  0  0  0  0  0  0  0  0  0  0  0
  150.8352  136.8993  155.0863 C   0  0  0  0  0  0  0  0  0  0  0  0
  150.9652  135.6883  154.9198 O   0  0  0  0  0  0  0  0  0  0  0  0
  151.8570  137.7894  154.9210 N   0  5  0  0  0  0  0  0  0  0  0  0
  151.7182  139.1392  155.1041 C   0  0  0  0  0  0  0  0  0  0  0  0
  152.6503  139.9258  154.9376 O   0  0  0  0  0  0  0  0  0  0  0  0
  151.0070  143.0474  156.9688 N   0  0  0  0  0  0  0  0  0  0  0  0
  151.7679  143.8344  157.9332 C   0  0  0  0  0  0  0  0  0  0  0  0
  152.0198  143.0467  159.2361 C   0  0  0  0  0  0  0  0  0  0  0  0
  151.5625  143.9553  160.3792 C   0  0  0  0  0  0  0  0  0  0  0  0
  150.4756  144.8278  159.7589 C   0  0  0  0  0  0  0  0  0  0  0  0
  150.9773  145.0909  158.3393 C   0  0  0  0  0  0  0  0  0  0  0  0
  149.2137  141.2434  155.9676 H   0  0  0  0  0  0  0  0  0  0  0  0
  150.3820  141.6065  154.7449 H   0  0  0  0  0  0  0  0  0  0  0  0
  148.4834  139.2286  155.9395 H   0  0  0  0  0  0  0  0  0  0  0  0
  148.6889  136.7683  155.6152 H   0  0  0  0  0  0  0  0  0  0  0  0
  150.3097  143.5388  156.4277 H   0  0  0  0  0  0  0  0  0  0  0  0
  152.7140  144.1417  157.4840 H   0  0  0  0  0  0  0  0  0  0  0  0
  151.4283  142.1297  159.2534 H   0  0  0  0  0  0  0  0  0  0  0  0
  153.0650  142.7551  159.3426 H   0  0  0  0  0  0  0  0  0  0  0  0
  151.2087  143.3949  161.2450 H   0  0  0  0  0  0  0  0  0  0  0  0
  152.3934  144.5823  160.7049 H   0  0  0  0  0  0  0  0  0  0  0  0
  149.5362  144.2746  159.7204 H   0  0  0  0  0  0  0  0  0  0  0  0
  150.3011  145.7461  160.3198 H   0  0  0  0  0  0  0  0  0  0  0  0
  151.6505  145.9491  158.3522 H   0  0  0  0  0  0  0  0  0  0  0  0
  150.1642  145.3332  157.6532 H   0  0  0  0  0  0  0  0  0  0  0  0
  1  2  2  0  0  0  0
  2  3  1  0  0  0  0
  2 12  1  0  0  0  0
  3  4  1  0  0  0  0
  3 18  1  0  0  0  0
  3 19  1  0  0  0  0
  4 10  1  0  0  0  0
  4  5  1  0  0  0  0
  5  6  2  0  0  0  0
  5 20  1  0  0  0  0
  6  7  1  0  0  0  0
  6 21  1  0  0  0  0
  7  8  2  0  0  0  0
  7  9  1  0  0  0  0
  9 10  1  0  0  0  0
 10 11  2  0  0  0  0
 12 13  1  0  0  0  0
 12 22  1  0  0  0  0
 13 17  1  0  0  0  0
 13 14  1  0  0  0  0
 13 23  1  0  0  0  0
 14 15  1  0  0  0  0
 14 24  1  0  0  0  0
 14 25  1  0  0  0  0
 15 16  1  0  0  0  0
 15 26  1  0  0  0  0
 15 27  1  0  0  0  0
 16 17  1  0  0  0  0
 16 28  1  0  0  0  0
 16 29  1  0  0  0  0
 17 30  1  0  0  0  0
 17 31  1  0  0  0  0
M  CHG  1   9  -1
M  END
> <s_m_source_file>
AV-unprocessed.smi

> <i_m_source_file_index>
1455

> <i_lp_mmshare_version>
43012

> <i_f3d_flags>
0

> <s_epik_input>
W0NIMl0xW0NIMl1bQ0gyXVtDSDJdW0NIXTFbTkhdQyg9TylbQ0gyXW4yW2NIXVtjSF1jKD1PKVtuSF1jMj1P

> <s_epik_cmdline>
J2VwaWtfcHl0aG9uJywgJy1waCcsICc3LjAnLCAnLXRuJywgJzgnLCAnLW1hJywgJzIwMCcsICctbWV0YWxfYmluZGluZycsICctaW1hZScsICc8aW5maWxlLm1hZT4nLCAnLW9tYWUnLCAnPG91dGZpbGUubWFlPic=

> <r_lp_tautomer_probability>
0.999537

> <r_epik_Ionization_Penalty>
3.09122

> <r_epik_Ionization_Penalty_Charging>
2.83991e-08

> <r_epik_Ionization_Penalty_Neutral>
3.09122

> <r_epik_State_Penalty>
3.09028

> <r_epik_Charging_Adjusted_Penalty>
3.09028

> <i_epik_Tot_Q>
-1

> <i_epik_Tot_abs_Q>
1

> <r_epik_Metal_State_Penalty>
0.460928

> <b_epik_Metal_Only>
1

> <s_lp_Force_Field>
OPLS_2005

> <r_lp_Energy>
25.8803

> <b_lp_Chiralities_Consistent>
1

> <s_lp_Variant>
AV-unprocessed.smi:1455-2

> <Gold.Version>
5.8.1

> <Gold.Id.Protein>
6NUR|6NUR_protein|mol2

> <Gold.PLP.Fitness>
42.1773

> <Gold.PLP.PLP>
-32.8702

> <Gold.PLP.part.hbond>
-4.1823

> <Gold.PLP.part.metal>
0.0000

> <Gold.PLP.part.buried>
-4.5283

> <Gold.PLP.part.nonpolar>
-25.2096

> <Gold.PLP.part.repulsive>
0.2804

> <Gold.PLP.ligand.clash>
0.0000

> <Gold.PLP.ligand.torsion>
0.3216

> <Gold.PLP.Chemscore.Hbond>
3.3153

> <Gold.PLP.Chemscore.CHOScore>
0.0000

> <Gold.PLP.Chemscore.Metal>
0.0000

> <Gold.Chemscore.Hbonds>
donor molecule, donor type, donor heavy atom, donor atom, acceptor molecule, acceptor atom, score
      L1  H    12    22       P1  8028  1.00
      P1  H  7989  7998       L1    11  0.31
      P1  H  7997  8008       L1    11  0.94
      P1  H 10752 10764       L1     8  1.00

> <Gold.PLP.Chemscore.Internal.Correction>
0.0045

> <Gold.Rescore>
     Score         DG    S(hbond)    S(metal)    S(lipo)     H(rot)  DE(clash)    DE(int)     intcor
     11.74     -16.93       2.37        0.00      67.14       1.69       0.13       5.07       ----

> <Gold.Chemscore.Fitness>
11.7375

> <Gold.Chemscore.DG>
-16.9329

> <Gold.Chemscore.ZeroCoef>
-5.4800

> <Gold.Chemscore.Hbond>
2.3704

> <Gold.Chemscore.Metal>
0.0000

> <Gold.Chemscore.Lipo>
67.1420

> <Gold.Chemscore.Internal_Hbond>
0.0000

> <Gold.Chemscore.DEClash>
0.1261

> <Gold.Chemscore.DEInternal>
5.0693

> <Gold.Chemscore.Rot>
1.6875

> <Gold.Chemscore.Internal.Correction>
   9.000000E+99

> <Gold.Chemscore.Hbonds>
donor molecule, donor type, donor heavy atom, donor atom, acceptor molecule, acceptor atom, score
      L1  H    12    22       P1  8028  0.97
      P1  H  7989  7998       L1    11  0.02
      P1  H  7997  8008       L1    11  0.90
      P1  H 10752 10764       L1     8  0.29

> <Gold.Chemscore.Hbond.Weighted>
-7.9172

> <Gold.Chemscore.Metal.Weighted>
-0.0000

> <Gold.Chemscore.Lipo.Weighted>
-7.8556

> <Gold.Chemscore.Internal_Hbond.Weighted>
0.0000

> <Gold.Chemscore.DEClash.Weighted>
0.1261

> <Gold.Chemscore.DEInternal.Weighted>
5.0693

> <Gold.Chemscore.Rot.Weighted>
4.3200

> <Gold.Chemscore.Internal.Correction.Weighted>
   9.000000E+99

> <Gold.Protein.RotatedTorsions>
[ 6907 6896 6895 6894 ] final -164.24 input  -60.11 | X-H torsion
[ 7974 7965 7964 7962 ] final -162.81 input  175.53 | X-H torsion
[ 8008 7997 7996 7995 ] final  -15.48 input   59.86 | X-H torsion
[ 10167 10162 10161 10158 ] final   -3.33 input  -65.29 | X-H torsion
[ 10718 10713 10712 10709 ] final   43.06 input   66.30 | X-H torsion
[ 10763 10752 10751 10750 ] final  -65.82 input  -60.55 | X-H torsion
[ 11005 11000 10999 10996 ] final   10.82 input  -57.11 | X-H torsion

> <Gold.Protein.ActiveResidues>
 VAL166  LYS551  ARG553  GLY616  TRP617  ASP618  TYR619  PRO620  LYS621  CYS622 
 ASP623  PHE694  ASN695  SER759  ASP760  ASP761  ALA762  ILE779  LEU786  VAL792 
 PHE793  MET794  SER795  GLU796  ALA797  LYS798  CYS799  TRP800  GLU811  SER814 

> <Gold.Protein.RotatedAtoms>
  151.4087  133.3734  159.2740 H   0  0  0  0  0  0  0  0  0  0  0  0  # atno 6907 bound_to 6896
  150.9379  134.8792  159.7604 H   0  0  0  0  0  0  0  0  0  0  0  0  # atno 6908 bound_to 6896
  152.5058  134.4036  159.9477 H   0  0  0  0  0  0  0  0  0  0  0  0  # atno 6909 bound_to 6896
  144.7345  140.3199  143.6172 H   0  0  0  0  0  0  0  0  0  0  0  0  # atno 7974 bound_to 7965
  154.5127  140.2195  155.9125 H   0  0  0  0  0  0  0  0  0  0  0  0  # atno 8008 bound_to 7997
  156.1571  140.3149  155.8711 H   0  0  0  0  0  0  0  0  0  0  0  0  # atno 8009 bound_to 7997
  155.3824  140.0473  157.3034 H   0  0  0  0  0  0  0  0  0  0  0  0  # atno 8010 bound_to 7997
  140.6886  143.6553  150.8314 H   0  0  0  0  0  0  0  0  0  0  0  0  # atno 10167 bound_to 10162
  157.4117  130.7918  149.7436 H   0  0  0  0  0  0  0  0  0  0  0  0  # atno 10718 bound_to 10713
  154.3507  135.6137  153.5641 H   0  0  0  0  0  0  0  0  0  0  0  0  # atno 10763 bound_to 10752
  152.9798  135.5791  154.4746 H   0  0  0  0  0  0  0  0  0  0  0  0  # atno 10764 bound_to 10752
  154.4467  135.2851  155.1787 H   0  0  0  0  0  0  0  0  0  0  0  0  # atno 10765 bound_to 10752
  140.5101  134.0660  155.7816 H   0  0  0  0  0  0  0  0  0  0  0  0  # atno 11005 bound_to 11000
  145.7579  139.1815  143.2284 LP  0  0  0  0  0  0  0  0  0  0  0  0  # atno 17320 bound_to 7965
  146.1009  140.7544  142.9549 LP  0  0  0  0  0  0  0  0  0  0  0  0  # atno 17321 bound_to 7965
  140.0263  143.5490  152.2779 LP  0  0  0  0  0  0  0  0  0  0  0  0  # atno 17342 bound_to 10162
  139.6266  144.7638  151.2625 LP  0  0  0  0  0  0  0  0  0  0  0  0  # atno 17343 bound_to 10162
  155.9853  130.3984  150.3270 LP  0  0  0  0  0  0  0  0  0  0  0  0  # atno 17370 bound_to 10713
  157.1409  131.0296  151.2928 LP  0  0  0  0  0  0  0  0  0  0  0  0  # atno 17371 bound_to 10713
  141.1390  133.9172  157.2369 LP  0  0  0  0  0  0  0  0  0  0  0  0  # atno 17394 bound_to 11000
  139.9663  135.0141  156.9397 LP  0  0  0  0  0  0  0  0  0  0  0  0  # atno 17395 bound_to 11000

$$$$
