AV-unprocessed.smi:625|AV-procd|sdf|3105|dock5
  -GOLD-   22720 0 23D 1   1.00000     0.00000
 Structure written by MMmdl.
 49 51  0  0  0  0  0  0  0  0  1 V2000
  147.4094  134.2327  154.1008 C   0  0  0  0  0  0  0  0  0  0  0  0
  147.4319  135.6867  154.0655 N   0  0  0  0  0  0  0  0  0  0  0  0
  146.7982  136.4838  154.9436 C   0  0  0  0  0  0  0  0  0  0  0  0
  146.1218  136.0225  155.8636 O   0  0  0  0  0  0  0  0  0  0  0  0
  147.0030  137.9161  154.7097 C   0  0  0  0  0  0  0  0  0  0  0  0
  147.0198  138.4212  153.3508 C   0  0  0  0  0  0  0  0  0  0  0  0
  147.1608  139.7392  153.1070 C   0  0  0  0  0  0  0  0  0  0  0  0
  147.3041  140.7145  154.1925 C   0  0  0  0  0  0  0  0  0  0  0  0
  147.4059  141.9217  153.9750 O   0  0  0  0  0  0  0  0  0  0  0  0
  147.3141  140.1954  155.4573 N   0  0  0  0  0  0  0  0  0  0  0  0
  147.4117  141.0579  156.6455 C   0  0  0  0  0  0  0  0  0  0  0  0
  148.8367  141.0448  157.2082 C   0  0  0  0  0  0  0  0  0  0  0  0
  149.2316  140.0890  157.8760 O   0  0  0  0  0  0  0  0  0  0  0  0
  149.5984  142.1056  156.9002 N   0  0  0  0  0  0  0  0  0  0  0  0
  151.0324  142.2340  157.1510 C   0  0  2  0  0  0  0  0  0  0  0  0
  151.6925  140.8649  156.9195 C   0  0  0  0  0  0  0  0  0  0  0  0
  151.2489  142.7767  158.5873 C   0  0  2  0  0  0  0  0  0  0  0  0
  150.4683  144.0818  158.8962 C   0  0  0  0  0  0  0  0  0  0  0  0
  151.5559  145.0316  159.4240 C   0  0  1  0  0  0  0  0  0  0  0  0
  152.0436  144.5452  160.8004 C   0  0  0  0  0  0  0  0  0  0  0  0
  152.8660  143.2927  160.4432 C   0  0  0  0  0  0  0  0  0  0  0  0
  152.7028  143.2014  158.9132 C   0  0  2  0  0  0  0  0  0  0  0  0
  152.7293  144.6758  158.5213 C   0  0  0  0  0  0  0  0  0  0  0  0
  147.1634  138.8156  155.7040 C   0  0  0  0  0  0  0  0  0  0  0  0
  148.0150  133.8333  153.2874 H   0  0  0  0  0  0  0  0  0  0  0  0
  146.3917  133.8572  153.9864 H   0  0  0  0  0  0  0  0  0  0  0  0
  147.8155  133.8609  155.0423 H   0  0  0  0  0  0  0  0  0  0  0  0
  147.9761  136.1208  153.3342 H   0  0  0  0  0  0  0  0  0  0  0  0
  146.9173  137.7443  152.5147 H   0  0  0  0  0  0  0  0  0  0  0  0
  147.1676  140.0885  152.0848 H   0  0  0  0  0  0  0  0  0  0  0  0
  147.1214  142.0749  156.3751 H   0  0  0  0  0  0  0  0  0  0  0  0
  146.7214  140.7620  157.4369 H   0  0  0  0  0  0  0  0  0  0  0  0
  149.1700  142.8477  156.3662 H   0  0  0  0  0  0  0  0  0  0  0  0
  151.4731  142.9395  156.4450 H   0  0  0  0  0  0  0  0  0  0  0  0
  152.7760  140.9156  157.0204 H   0  0  0  0  0  0  0  0  0  0  0  0
  151.4826  140.4962  155.9148 H   0  0  0  0  0  0  0  0  0  0  0  0
  151.3258  140.1217  157.6283 H   0  0  0  0  0  0  0  0  0  0  0  0
  150.9344  141.9992  159.2857 H   0  0  0  0  0  0  0  0  0  0  0  0
  150.0222  144.5105  157.9980 H   0  0  0  0  0  0  0  0  0  0  0  0
  149.6662  143.9245  159.6179 H   0  0  0  0  0  0  0  0  0  0  0  0
  151.2630  146.0819  159.4079 H   0  0  0  0  0  0  0  0  0  0  0  0
  152.6752  145.2953  161.2781 H   0  0  0  0  0  0  0  0  0  0  0  0
  151.2163  144.3229  161.4757 H   0  0  0  0  0  0  0  0  0  0  0  0
  153.9137  143.4358  160.7110 H   0  0  0  0  0  0  0  0  0  0  0  0
  152.5112  142.3989  160.9579 H   0  0  0  0  0  0  0  0  0  0  0  0
  153.4733  142.5919  158.4426 H   0  0  0  0  0  0  0  0  0  0  0  0
  152.5308  144.8505  157.4626 H   0  0  0  0  0  0  0  0  0  0  0  0
  153.6565  145.1808  158.7982 H   0  0  0  0  0  0  0  0  0  0  0  0
  147.1657  138.5638  156.7552 H   0  0  0  0  0  0  0  0  0  0  0  0
  1  2  1  0  0  0  0
  1 25  1  0  0  0  0
  1 26  1  0  0  0  0
  1 27  1  0  0  0  0
  2  3  1  0  0  0  0
  2 28  1  0  0  0  0
  3  4  2  0  0  0  0
  3  5  1  0  0  0  0
  5 24  2  0  0  0  0
  5  6  1  0  0  0  0
  6  7  2  0  0  0  0
  6 29  1  0  0  0  0
  7  8  1  0  0  0  0
  7 30  1  0  0  0  0
  8  9  2  0  0  0  0
  8 10  1  0  0  0  0
 10 11  1  0  0  0  0
 10 24  1  0  0  0  0
 11 12  1  0  0  0  0
 11 31  1  0  0  0  0
 11 32  1  0  0  0  0
 12 13  2  0  0  0  0
 12 14  1  0  0  0  0
 14 15  1  0  0  0  0
 14 33  1  0  0  0  0
 15 16  1  0  0  0  0
 15 17  1  0  0  0  0
 15 34  1  0  0  0  0
 16 35  1  0  0  0  0
 16 36  1  0  0  0  0
 16 37  1  0  0  0  0
 17 22  1  0  0  0  0
 17 18  1  0  0  0  0
 17 38  1  0  0  0  0
 18 19  1  0  0  0  0
 18 39  1  0  0  0  0
 18 40  1  0  0  0  0
 19 23  1  0  0  0  0
 19 20  1  0  0  0  0
 19 41  1  0  0  0  0
 20 21  1  0  0  0  0
 20 42  1  0  0  0  0
 20 43  1  0  0  0  0
 21 22  1  0  0  0  0
 21 44  1  0  0  0  0
 21 45  1  0  0  0  0
 22 23  1  0  0  0  0
 22 46  1  0  0  0  0
 23 47  1  0  0  0  0
 23 48  1  0  0  0  0
 24 49  1  0  0  0  0
M  END
> <s_m_source_file>
AV-unprocessed.smi

> <i_m_source_file_index>
625

> <i_lp_mmshare_version>
43012

> <i_f3d_flags>
0

> <s_epik_input>
W0NIM11bTkhdQyg9TyljMVtjSF1bY0hdYyg9TyluKFtjSF0xKVtDSDJdQyg9TylbTkhdW0NASF0oW0NIM10pW0NASF0oW0NIMl1bQ0BIXTIzKVtDQEhdKFtDSDJdMylbQ0gyXVtDSDJdMg==

> <s_epik_cmdline>
J2VwaWtfcHl0aG9uJywgJy1waCcsICc3LjAnLCAnLXRuJywgJzgnLCAnLW1hJywgJzIwMCcsICctbWV0YWxfYmluZGluZycsICctaW1hZScsICc8aW5maWxlLm1hZT4nLCAnLW9tYWUnLCAnPG91dGZpbGUubWFlPic=

> <r_lp_tautomer_probability>
1

> <r_epik_Ionization_Penalty>
3.7129e-07

> <r_epik_Ionization_Penalty_Charging>
5.04114e-08

> <r_epik_Ionization_Penalty_Neutral>
3.20879e-07

> <r_epik_State_Penalty>
-0

> <r_epik_Charging_Adjusted_Penalty>
5.04114e-08

> <i_epik_Tot_Q>
0

> <i_epik_Tot_abs_Q>
0

> <r_epik_Metal_State_Penalty>
-0

> <b_epik_Metal_Only>
0

> <s_lp_Force_Field>
OPLS_2005

> <r_lp_Energy>
64.2087

> <b_lp_Chiralities_Consistent>
1

> <s_lp_Variant>
AV-unprocessed.smi:625-5

> <Gold.Version>
5.8.1

> <Gold.Id.Protein>
6NUR|6NUR_protein|mol2

> <Gold.PLP.Fitness>
44.2967

> <Gold.PLP.PLP>
-41.3267

> <Gold.PLP.part.hbond>
-2.0000

> <Gold.PLP.part.metal>
0.0000

> <Gold.PLP.part.buried>
-4.5664

> <Gold.PLP.part.nonpolar>
-35.0546

> <Gold.PLP.part.repulsive>
0.1973

> <Gold.PLP.ligand.clash>
0.0000

> <Gold.PLP.ligand.torsion>
1.5275

> <Gold.PLP.Chemscore.Hbond>
1.9920

> <Gold.PLP.Chemscore.CHOScore>
0.0000

> <Gold.PLP.Chemscore.Metal>
0.0000

> <Gold.Chemscore.Hbonds>
donor molecule, donor type, donor heavy atom, donor atom, acceptor molecule, acceptor atom, score
      L1  H     2    28       P1  7948  1.00
      L1  H    14    33       P1  8028  1.00

> <Gold.PLP.Chemscore.Internal.Correction>
0.0490

> <Gold.Rescore>
     Score         DG    S(hbond)    S(metal)    S(lipo)     H(rot)  DE(clash)    DE(int)     intcor
     18.66     -21.58       1.94        0.00     118.86       1.67       0.08       2.85       ----

> <Gold.Chemscore.Fitness>
18.6553

> <Gold.Chemscore.DG>
-21.5849

> <Gold.Chemscore.ZeroCoef>
-5.4800

> <Gold.Chemscore.Hbond>
1.9388

> <Gold.Chemscore.Metal>
0.0000

> <Gold.Chemscore.Lipo>
118.8615

> <Gold.Chemscore.Internal_Hbond>
0.0000

> <Gold.Chemscore.DEClash>
0.0828

> <Gold.Chemscore.DEInternal>
2.8467

> <Gold.Chemscore.Rot>
1.6709

> <Gold.Chemscore.Internal.Correction>
   9.000000E+99

> <Gold.Chemscore.Hbonds>
donor molecule, donor type, donor heavy atom, donor atom, acceptor molecule, acceptor atom, score
      L1  H     2    28       P1  7948  0.99
      L1  H    14    33       P1  8028  0.94

> <Gold.Chemscore.Hbond.Weighted>
-6.4755

> <Gold.Chemscore.Metal.Weighted>
-0.0000

> <Gold.Chemscore.Lipo.Weighted>
-13.9068

> <Gold.Chemscore.Internal_Hbond.Weighted>
0.0000

> <Gold.Chemscore.DEClash.Weighted>
0.0828

> <Gold.Chemscore.DEInternal.Weighted>
2.8467

> <Gold.Chemscore.Rot.Weighted>
4.2774

> <Gold.Chemscore.Internal.Correction.Weighted>
   9.000000E+99

> <Gold.Protein.RotatedTorsions>
[ 6907 6896 6895 6894 ] final  -56.80 input  -60.11 | X-H torsion
[ 7974 7965 7964 7962 ] final  169.74 input  175.53 | X-H torsion
[ 8008 7997 7996 7995 ] final -112.87 input   59.86 | X-H torsion
[ 10167 10162 10161 10158 ] final -108.98 input  -65.29 | X-H torsion
[ 10718 10713 10712 10709 ] final   -1.32 input   66.30 | X-H torsion
[ 10763 10752 10751 10750 ] final  147.88 input  -60.55 | X-H torsion
[ 11005 11000 10999 10996 ] final   12.03 input  -57.11 | X-H torsion

> <Gold.Protein.ActiveResidues>
 VAL166  LYS551  ARG553  GLY616  TRP617  ASP618  TYR619  PRO620  LYS621  CYS622 
 ASP623  PHE694  ASN695  SER759  ASP760  ASP761  ALA762  ILE779  LEU786  VAL792 
 PHE793  MET794  SER795  GLU796  ALA797  LYS798  CYS799  TRP800  GLU811  SER814 

> <Gold.Protein.RotatedAtoms>
  150.8138  134.7308  159.6711 H   0  0  0  0  0  0  0  0  0  0  0  0  # atno 6907 bound_to 6896
  152.4257  134.5869  159.9973 H   0  0  0  0  0  0  0  0  0  0  0  0  # atno 6908 bound_to 6896
  151.6071  133.3313  159.3095 H   0  0  0  0  0  0  0  0  0  0  0  0  # atno 6909 bound_to 6896
  144.7345  139.9098  143.6414 H   0  0  0  0  0  0  0  0  0  0  0  0  # atno 7974 bound_to 7965
  155.0120  140.0393  157.2403 H   0  0  0  0  0  0  0  0  0  0  0  0  # atno 8008 bound_to 7997
  154.7452  140.2756  155.6316 H   0  0  0  0  0  0  0  0  0  0  0  0  # atno 8009 bound_to 7997
  156.2873  140.2657  156.2191 H   0  0  0  0  0  0  0  0  0  0  0  0  # atno 8010 bound_to 7997
  140.1602  143.4126  152.1431 H   0  0  0  0  0  0  0  0  0  0  0  0  # atno 10167 bound_to 10162
  156.8074  130.5413  149.5713 H   0  0  0  0  0  0  0  0  0  0  0  0  # atno 10718 bound_to 10713
  154.0456  135.2886  155.3348 H   0  0  0  0  0  0  0  0  0  0  0  0  # atno 10763 bound_to 10752
  154.6902  135.5229  153.8384 H   0  0  0  0  0  0  0  0  0  0  0  0  # atno 10764 bound_to 10752
  153.0582  135.6603  154.0656 H   0  0  0  0  0  0  0  0  0  0  0  0  # atno 10765 bound_to 10752
  140.4965  134.0788  155.7783 H   0  0  0  0  0  0  0  0  0  0  0  0  # atno 11005 bound_to 11000
  146.1009  139.4005  143.0347 LP  0  0  0  0  0  0  0  0  0  0  0  0  # atno 17320 bound_to 7965
  145.7579  140.9947  143.1215 LP  0  0  0  0  0  0  0  0  0  0  0  0  # atno 17321 bound_to 7965
  139.5384  144.7233  151.4814 LP  0  0  0  0  0  0  0  0  0  0  0  0  # atno 17342 bound_to 10162
  140.6647  143.8423  150.6928 LP  0  0  0  0  0  0  0  0  0  0  0  0  # atno 17343 bound_to 10162
  156.1065  130.6008  150.9978 LP  0  0  0  0  0  0  0  0  0  0  0  0  # atno 17370 bound_to 10713
  157.6523  131.0895  150.8024 LP  0  0  0  0  0  0  0  0  0  0  0  0  # atno 17371 bound_to 10713
  141.1457  133.9059  157.2220 LP  0  0  0  0  0  0  0  0  0  0  0  0  # atno 17394 bound_to 11000
  139.9738  135.0120  156.9579 LP  0  0  0  0  0  0  0  0  0  0  0  0  # atno 17395 bound_to 11000

$$$$
