AV-unprocessed.smi:2845|AV-procd|sdf|10946|dock6
  -GOLD-   2272015393D 1   1.00000     0.00000
 Structure written by MMmdl.
 42 44  0  0  0  0  0  0  0  0  1 V2000
  153.0959  142.7630  160.9415 C   0  0  0  0  0  0  0  0  0  0  0  0
  152.4066  142.4122  159.6347 C   0  0  0  0  0  0  0  0  0  0  0  0
  152.8004  141.2453  158.9422 C   0  0  0  0  0  0  0  0  0  0  0  0
  152.1859  140.8841  157.7233 C   0  0  0  0  0  0  0  0  0  0  0  0
  152.4152  139.8039  156.8887 N   0  0  0  0  0  0  0  0  0  0  0  0
  151.5339  140.0247  155.9180 C   0  0  0  0  0  0  0  0  0  0  0  0
  150.7565  141.1192  156.0263 N   0  0  0  0  0  0  0  0  0  0  0  0
  149.7362  141.5579  155.0903 C   0  0  0  0  0  0  0  0  0  0  0  0
  148.3096  141.3622  155.6372 C   0  0  1  0  0  0  0  0  0  0  0  0
  148.0686  142.2884  156.6802 O   0  0  0  0  0  0  0  0  0  0  0  0
  147.2436  141.5249  154.5372 C   0  0  0  0  0  0  0  0  0  0  0  0
  146.8751  140.2574  153.9331 N   0  0  0  0  0  0  0  0  0  0  0  0
  147.1465  139.7679  152.7198 C   0  0  0  0  0  0  0  0  0  0  0  0
  146.6526  138.5560  152.5037 N   0  0  0  0  0  0  0  0  0  0  0  0
  146.0512  138.3537  153.7115 C   0  0  0  0  0  0  0  0  0  0  0  0
  145.1594  136.8093  154.0768 S   0  0  2  0  0  0  0  0  0  0  0  0
  144.1430  136.8056  152.5251 C   0  0  0  0  0  0  0  0  0  0  0  0
  144.2129  137.1326  155.2347 O   0  0  0  0  0  0  0  0  0  0  0  0
  146.1471  139.3352  154.6066 N   0  0  0  0  0  0  0  0  0  0  0  0
  151.1559  141.7275  157.2121 C   0  0  0  0  0  0  0  0  0  0  0  0
  150.7542  142.8904  157.8935 C   0  0  0  0  0  0  0  0  0  0  0  0
  151.3804  143.2377  159.1091 C   0  0  0  0  0  0  0  0  0  0  0  0
  150.9409  144.4967  159.8355 C   0  0  0  0  0  0  0  0  0  0  0  0
  153.8641  142.0319  161.1956 H   0  0  0  0  0  0  0  0  0  0  0  0
  152.3748  142.7882  161.7587 H   0  0  0  0  0  0  0  0  0  0  0  0
  153.5748  143.7397  160.8709 H   0  0  0  0  0  0  0  0  0  0  0  0
  153.5815  140.6156  159.3421 H   0  0  0  0  0  0  0  0  0  0  0  0
  151.4461  139.3503  155.0784 H   0  0  0  0  0  0  0  0  0  0  0  0
  149.9089  142.6059  154.8426 H   0  0  0  0  0  0  0  0  0  0  0  0
  149.8640  140.9948  154.1651 H   0  0  0  0  0  0  0  0  0  0  0  0
  148.2284  140.3593  156.0588 H   0  0  0  0  0  0  0  0  0  0  0  0
  148.2653  143.1572  156.3637 H   0  0  0  0  0  0  0  0  0  0  0  0
  146.3481  142.0064  154.9339 H   0  0  0  0  0  0  0  0  0  0  0  0
  147.6207  142.1732  153.7451 H   0  0  0  0  0  0  0  0  0  0  0  0
  147.7201  140.3084  151.9811 H   0  0  0  0  0  0  0  0  0  0  0  0
  144.6137  137.4010  151.7427 H   0  0  0  0  0  0  0  0  0  0  0  0
  143.1524  137.2145  152.7233 H   0  0  0  0  0  0  0  0  0  0  0  0
  144.0291  135.7860  152.1570 H   0  0  0  0  0  0  0  0  0  0  0  0
  149.9699  143.5095  157.4842 H   0  0  0  0  0  0  0  0  0  0  0  0
  150.1289  144.9976  159.3078 H   0  0  0  0  0  0  0  0  0  0  0  0
  151.7704  145.1994  159.9167 H   0  0  0  0  0  0  0  0  0  0  0  0
  150.5894  144.2571  160.8392 H   0  0  0  0  0  0  0  0  0  0  0  0
  1  2  1  0  0  0  0
  1 24  1  0  0  0  0
  1 25  1  0  0  0  0
  1 26  1  0  0  0  0
  2 22  1  0  0  0  0
  2  3  2  0  0  0  0
  3  4  1  0  0  0  0
  3 27  1  0  0  0  0
  4 20  2  0  0  0  0
  4  5  1  0  0  0  0
  5  6  2  0  0  0  0
  6  7  1  0  0  0  0
  6 28  1  0  0  0  0
  7  8  1  0  0  0  0
  7 20  1  0  0  0  0
  8  9  1  0  0  0  0
  8 29  1  0  0  0  0
  8 30  1  0  0  0  0
  9 10  1  0  0  0  0
  9 11  1  0  0  0  0
  9 31  1  0  0  0  0
 10 32  1  0  0  0  0
 11 12  1  0  0  0  0
 11 33  1  0  0  0  0
 11 34  1  0  0  0  0
 12 19  1  0  0  0  0
 12 13  1  0  0  0  0
 13 14  2  0  0  0  0
 13 35  1  0  0  0  0
 14 15  1  0  0  0  0
 15 16  1  0  0  0  0
 15 19  2  0  0  0  0
 16 17  1  0  0  0  0
 16 18  2  0  0  0  0
 17 36  1  0  0  0  0
 17 37  1  0  0  0  0
 17 38  1  0  0  0  0
 20 21  1  0  0  0  0
 21 22  2  0  0  0  0
 21 39  1  0  0  0  0
 22 23  1  0  0  0  0
 23 40  1  0  0  0  0
 23 41  1  0  0  0  0
 23 42  1  0  0  0  0
M  END
> <s_m_source_file>
AV-unprocessed.smi

> <i_m_source_file_index>
2845

> <i_lp_mmshare_version>
43012

> <i_f3d_flags>
0

> <s_epik_input>
W0NIM11jKFtjSF0xKWMoW0NIM10pW2NIXWMoYzEyKW4oW2NIXW4yKVtDSDJdW0NASF0oW09IXSlbQ0gyXW4zW2NIXW5jKG4zKVtTQF0oPU8pW0NIM10=

> <s_epik_cmdline>
J2VwaWtfcHl0aG9uJywgJy1waCcsICc3LjAnLCAnLXRuJywgJzgnLCAnLW1hJywgJzIwMCcsICctbWV0YWxfYmluZGluZycsICctaW1hZScsICc8aW5maWxlLm1hZT4nLCAnLW9tYWUnLCAnPG91dGZpbGUubWFlPic=

> <r_lp_tautomer_probability>
1

> <r_epik_Ionization_Penalty>
0.0968684

> <r_epik_Ionization_Penalty_Charging>
0

> <r_epik_Ionization_Penalty_Neutral>
0.0968684

> <r_epik_State_Penalty>
0.0870047

> <r_epik_Charging_Adjusted_Penalty>
0.0870047

> <i_epik_Tot_Q>
0

> <i_epik_Tot_abs_Q>
0

> <r_epik_Metal_State_Penalty>
0.0746849

> <b_epik_Metal_Only>
0

> <s_lp_Force_Field>
OPLS_2005

> <r_lp_Energy>
9.68664

> <b_lp_Chiralities_Consistent>
1

> <s_lp_Variant>
AV-unprocessed.smi:2845-4

> <Gold.Version>
5.8.1

> <Gold.Id.Protein>
6NUR|6NUR_protein|mol2

> <Gold.PLP.Fitness>
48.3683

> <Gold.PLP.PLP>
-40.9893

> <Gold.PLP.part.hbond>
-2.0000

> <Gold.PLP.part.metal>
0.0000

> <Gold.PLP.part.buried>
-4.0047

> <Gold.PLP.part.nonpolar>
-35.6210

> <Gold.PLP.part.repulsive>
0.4180

> <Gold.PLP.ligand.clash>
0.0000

> <Gold.PLP.ligand.torsion>
1.3133

> <Gold.PLP.Chemscore.Hbond>
1.9913

> <Gold.PLP.Chemscore.CHOScore>
1.0000

> <Gold.PLP.Chemscore.Metal>
0.0000

> <Gold.Chemscore.Hbonds>
donor molecule, donor type, donor heavy atom, donor atom, acceptor molecule, acceptor atom, score
      L1  H    10    32       P1  8028  1.00
      P1  H  7997  8009       L1     5  1.00
      L1  C    13    35       P1  7957  1.00

> <Gold.PLP.Chemscore.Internal.Correction>
1.0319

> <Gold.Rescore>
     Score         DG    S(hbond)    S(metal)    S(lipo)     H(rot)  DE(clash)    DE(int)     intcor
     11.14     -14.20       1.19        0.00      99.86       2.71       0.79       2.27       ----

> <Gold.Chemscore.Fitness>
11.1436

> <Gold.Chemscore.DG>
-14.2039

> <Gold.Chemscore.ZeroCoef>
-5.4800

> <Gold.Chemscore.Hbond>
1.1915

> <Gold.Chemscore.Metal>
0.0000

> <Gold.Chemscore.Lipo>
99.8643

> <Gold.Chemscore.Internal_Hbond>
0.0000

> <Gold.Chemscore.DEClash>
0.7865

> <Gold.Chemscore.DEInternal>
2.2738

> <Gold.Chemscore.Rot>
2.7108

> <Gold.Chemscore.Internal.Correction>
   9.000000E+99

> <Gold.Chemscore.Hbonds>
donor molecule, donor type, donor heavy atom, donor atom, acceptor molecule, acceptor atom, score
      L1  H    10    32       P1  8028  0.55
      P1  H  7997  8009       L1     5  0.25

> <Gold.Chemscore.Hbond.Weighted>
-3.9795

> <Gold.Chemscore.Metal.Weighted>
-0.0000

> <Gold.Chemscore.Lipo.Weighted>
-11.6841

> <Gold.Chemscore.Internal_Hbond.Weighted>
0.0000

> <Gold.Chemscore.DEClash.Weighted>
0.7865

> <Gold.Chemscore.DEInternal.Weighted>
2.2738

> <Gold.Chemscore.Rot.Weighted>
6.9396

> <Gold.Chemscore.Internal.Correction.Weighted>
   9.000000E+99

> <Gold.Protein.RotatedTorsions>
[ 6907 6896 6895 6894 ] final -136.99 input  -60.11 | X-H torsion
[ 7974 7965 7964 7962 ] final  113.21 input  175.53 | X-H torsion
[ 8008 7997 7996 7995 ] final -162.07 input   59.86 | X-H torsion
[ 10167 10162 10161 10158 ] final -145.15 input  -65.29 | X-H torsion
[ 10718 10713 10712 10709 ] final   84.78 input   66.30 | X-H torsion
[ 10763 10752 10751 10750 ] final   52.52 input  -60.55 | X-H torsion
[ 11005 11000 10999 10996 ] final  -12.31 input  -57.11 | X-H torsion

> <Gold.Protein.ActiveResidues>
 VAL166  LYS551  ARG553  GLY616  TRP617  ASP618  TYR619  PRO620  LYS621  CYS622 
 ASP623  PHE694  ASN695  SER759  ASP760  ASP761  ALA762  ILE779  LEU786  VAL792 
 PHE793  MET794  SER795  GLU796  ALA797  LYS798  CYS799  TRP800  GLU811  SER814 

> <Gold.Protein.RotatedAtoms>
  151.0170  133.5912  159.2675 H   0  0  0  0  0  0  0  0  0  0  0  0  # atno 6907 bound_to 6896
  151.3043  135.0776  159.9259 H   0  0  0  0  0  0  0  0  0  0  0  0  # atno 6908 bound_to 6896
  152.5314  133.9846  159.7876 H   0  0  0  0  0  0  0  0  0  0  0  0  # atno 6909 bound_to 6896
  145.2199  139.2867  143.4224 H   0  0  0  0  0  0  0  0  0  0  0  0  # atno 7974 bound_to 7965
  155.8015  140.0892  157.1954 H   0  0  0  0  0  0  0  0  0  0  0  0  # atno 8008 bound_to 7997
  154.3982  140.1471  156.3339 H   0  0  0  0  0  0  0  0  0  0  0  0  # atno 8009 bound_to 7997
  155.8458  140.3437  155.5664 H   0  0  0  0  0  0  0  0  0  0  0  0  # atno 8010 bound_to 7997
  139.7833  143.8070  152.2641 H   0  0  0  0  0  0  0  0  0  0  0  0  # atno 10167 bound_to 10162
  157.6904  131.0147  150.2723 H   0  0  0  0  0  0  0  0  0  0  0  0  # atno 10718 bound_to 10713
  152.9789  135.5810  154.4592 H   0  0  0  0  0  0  0  0  0  0  0  0  # atno 10763 bound_to 10752
  154.4170  135.2771  155.2002 H   0  0  0  0  0  0  0  0  0  0  0  0  # atno 10764 bound_to 10752
  154.3767  135.6156  153.5823 H   0  0  0  0  0  0  0  0  0  0  0  0  # atno 10765 bound_to 10752
  140.7644  133.8489  155.9152 H   0  0  0  0  0  0  0  0  0  0  0  0  # atno 11005 bound_to 11000
  146.3378  140.2501  142.8598 LP  0  0  0  0  0  0  0  0  0  0  0  0  # atno 17320 bound_to 7965
  144.9776  140.8428  143.5417 LP  0  0  0  0  0  0  0  0  0  0  0  0  # atno 17321 bound_to 7965
  139.8139  144.7324  150.9660 LP  0  0  0  0  0  0  0  0  0  0  0  0  # atno 17342 bound_to 10162
  140.7819  143.4223  151.0821 LP  0  0  0  0  0  0  0  0  0  0  0  0  # atno 17343 bound_to 10162
  156.3284  130.3796  149.7513 LP  0  0  0  0  0  0  0  0  0  0  0  0  # atno 17370 bound_to 10713
  156.5060  130.8150  151.3151 LP  0  0  0  0  0  0  0  0  0  0  0  0  # atno 17371 bound_to 10713
  140.9633  134.1627  157.4636 LP  0  0  0  0  0  0  0  0  0  0  0  0  # atno 17394 bound_to 11000
  139.8765  134.9952  156.5734 LP  0  0  0  0  0  0  0  0  0  0  0  0  # atno 17395 bound_to 11000

$$$$
