AV-unprocessed.smi:2009|AV-procd|sdf|8145|dock3
  -GOLD-   2272010383D 1   1.00000     0.00000
 Structure written by MMmdl.
 38 39  0  0  0  0  0  0  0  0  1 V2000
  152.1338  140.6750  158.6532 C   0  0  0  0  0  0  0  0  0  0  0  0
  151.3240  141.3556  157.5390 C   0  0  2  0  0  0  0  0  0  0  0  0
  150.3619  142.4484  158.0583 C   0  0  0  0  0  0  0  0  0  0  0  0
  151.0326  143.5299  158.7618 N   0  0  0  0  0  0  0  0  0  0  0  0
  151.1241  144.8577  158.3994 C   0  0  0  0  0  0  0  0  0  0  0  0
  151.8492  145.4946  159.3650 C   0  0  0  0  0  0  0  0  0  0  0  0
  152.1665  144.4583  160.2869 C   0  0  0  0  0  0  0  0  0  0  0  0
  151.6792  143.2832  159.9223 N   0  0  0  0  0  0  0  0  0  0  0  0
  150.5966  140.3307  156.7842 N   0  0  0  0  0  0  0  0  0  0  0  0
  151.4479  139.2331  155.7611 S   0  0  0  0  0  0  0  0  0  0  0  0
  150.8880  139.3127  154.4033 O   0  0  0  0  0  0  0  0  0  0  0  0
  152.8878  139.4188  155.9972 O   0  0  0  0  0  0  0  0  0  0  0  0
  150.9454  137.7367  156.4748 N   0  0  0  0  0  0  0  0  0  0  0  0
  151.0273  136.5346  155.6213 C   0  0  0  0  0  0  0  0  0  0  0  0
  150.9130  135.2438  156.4491 C   0  0  0  0  0  0  0  0  0  0  0  0
  149.6419  135.2417  157.3022 C   0  0  0  0  0  0  0  0  0  0  0  0
  149.6294  136.4893  158.1895 C   0  0  0  0  0  0  0  0  0  0  0  0
  149.7533  137.7713  157.3500 C   0  0  0  0  0  0  0  0  0  0  0  0
  152.6804  141.4110  159.2431 H   0  0  0  0  0  0  0  0  0  0  0  0
  152.8633  139.9794  158.2375 H   0  0  0  0  0  0  0  0  0  0  0  0
  151.4934  140.1124  159.3331 H   0  0  0  0  0  0  0  0  0  0  0  0
  152.0351  141.8285  156.8606 H   0  0  0  0  0  0  0  0  0  0  0  0
  149.8044  142.8728  157.2218 H   0  0  0  0  0  0  0  0  0  0  0  0
  149.6131  142.0198  158.7240 H   0  0  0  0  0  0  0  0  0  0  0  0
  150.6672  145.2335  157.4954 H   0  0  0  0  0  0  0  0  0  0  0  0
  152.1140  146.5406  159.4061 H   0  0  0  0  0  0  0  0  0  0  0  0
  152.7337  144.5242  161.2036 H   0  0  0  0  0  0  0  0  0  0  0  0
  149.8603  139.8750  157.3228 H   0  0  0  0  0  0  0  0  0  0  0  0
  150.2355  136.5780  154.8724 H   0  0  0  0  0  0  0  0  0  0  0  0
  151.9739  136.5323  155.0806 H   0  0  0  0  0  0  0  0  0  0  0  0
  150.9185  134.3771  155.7876 H   0  0  0  0  0  0  0  0  0  0  0  0
  151.7874  135.1455  157.0940 H   0  0  0  0  0  0  0  0  0  0  0  0
  148.7604  135.2311  156.6600 H   0  0  0  0  0  0  0  0  0  0  0  0
  149.5987  134.3408  157.9148 H   0  0  0  0  0  0  0  0  0  0  0  0
  148.7115  136.5184  158.7773 H   0  0  0  0  0  0  0  0  0  0  0  0
  150.4523  136.4401  158.9039 H   0  0  0  0  0  0  0  0  0  0  0  0
  149.8017  138.6328  158.0154 H   0  0  0  0  0  0  0  0  0  0  0  0
  148.8649  137.9044  156.7312 H   0  0  0  0  0  0  0  0  0  0  0  0
  1  2  1  0  0  0  0
  1 19  1  0  0  0  0
  1 20  1  0  0  0  0
  1 21  1  0  0  0  0
  2  3  1  0  0  0  0
  2  9  1  0  0  0  0
  2 22  1  0  0  0  0
  3  4  1  0  0  0  0
  3 23  1  0  0  0  0
  3 24  1  0  0  0  0
  4  8  1  0  0  0  0
  4  5  1  0  0  0  0
  5  6  2  0  0  0  0
  5 25  1  0  0  0  0
  6  7  1  0  0  0  0
  6 26  1  0  0  0  0
  7  8  2  0  0  0  0
  7 27  1  0  0  0  0
  9 10  1  0  0  0  0
  9 28  1  0  0  0  0
 10 11  2  0  0  0  0
 10 12  2  0  0  0  0
 10 13  1  0  0  0  0
 13 18  1  0  0  0  0
 13 14  1  0  0  0  0
 14 15  1  0  0  0  0
 14 29  1  0  0  0  0
 14 30  1  0  0  0  0
 15 16  1  0  0  0  0
 15 31  1  0  0  0  0
 15 32  1  0  0  0  0
 16 17  1  0  0  0  0
 16 33  1  0  0  0  0
 16 34  1  0  0  0  0
 17 18  1  0  0  0  0
 17 35  1  0  0  0  0
 17 36  1  0  0  0  0
 18 37  1  0  0  0  0
 18 38  1  0  0  0  0
M  END
> <s_m_source_file>
AV-unprocessed.smi

> <i_m_source_file_index>
2009

> <i_lp_mmshare_version>
43012

> <i_f3d_flags>
0

> <s_epik_input>
bjFbY0hdW2NIXVtjSF1uMVtDSDJdW0NAQEhdKFtDSDNdKVtOSF1TKD1PKSg9TylOMltDSDJdW0NIMl1bQ0gyXVtDSDJdW0NIMl0y

> <s_epik_cmdline>
J2VwaWtfcHl0aG9uJywgJy1waCcsICc3LjAnLCAnLXRuJywgJzgnLCAnLW1hJywgJzIwMCcsICctbWV0YWxfYmluZGluZycsICctaW1hZScsICc8aW5maWxlLm1hZT4nLCAnLW9tYWUnLCAnPG91dGZpbGUubWFlPic=

> <r_lp_tautomer_probability>
1

> <r_epik_Ionization_Penalty>
0.0313937

> <r_epik_Ionization_Penalty_Charging>
0

> <r_epik_Ionization_Penalty_Neutral>
0.0313937

> <r_epik_State_Penalty>
0.0259441

> <r_epik_Charging_Adjusted_Penalty>
0.0259441

> <i_epik_Tot_Q>
0

> <i_epik_Tot_abs_Q>
0

> <r_epik_Metal_State_Penalty>
0.365037

> <b_epik_Metal_Only>
0

> <s_lp_Force_Field>
OPLS_2005

> <r_lp_Energy>
7.7354

> <b_lp_Chiralities_Consistent>
1

> <s_lp_Variant>
AV-unprocessed.smi:2009-1

> <Gold.Version>
5.8.1

> <Gold.Id.Protein>
6NUR|6NUR_protein|mol2

> <Gold.PLP.Fitness>
37.8355

> <Gold.PLP.PLP>
-30.4645

> <Gold.PLP.part.hbond>
-2.0000

> <Gold.PLP.part.metal>
0.0000

> <Gold.PLP.part.buried>
-5.5150

> <Gold.PLP.part.nonpolar>
-23.1126

> <Gold.PLP.part.repulsive>
0.1597

> <Gold.PLP.ligand.clash>
0.0000

> <Gold.PLP.ligand.torsion>
0.9427

> <Gold.PLP.Chemscore.Hbond>
2.0000

> <Gold.PLP.Chemscore.CHOScore>
0.8249

> <Gold.PLP.Chemscore.Metal>
0.0000

> <Gold.Chemscore.Hbonds>
donor molecule, donor type, donor heavy atom, donor atom, acceptor molecule, acceptor atom, score
      P1  H  7989  7998       L1    11  1.00
      P1  H  7997  8008       L1    12  1.00
      L1  C     5    25       P1  8028  0.75
      L1  C     5    25       P1  8029  0.03

> <Gold.PLP.Chemscore.Internal.Correction>
0.7818

> <Gold.Rescore>
     Score         DG    S(hbond)    S(metal)    S(lipo)     H(rot)  DE(clash)    DE(int)     intcor
     13.89     -16.05       1.96        0.00      74.29       1.82       0.00       2.15       ----

> <Gold.Chemscore.Fitness>
13.8950

> <Gold.Chemscore.DG>
-16.0490

> <Gold.Chemscore.ZeroCoef>
-5.4800

> <Gold.Chemscore.Hbond>
1.9599

> <Gold.Chemscore.Metal>
0.0000

> <Gold.Chemscore.Lipo>
74.2851

> <Gold.Chemscore.Internal_Hbond>
0.0000

> <Gold.Chemscore.DEClash>
0.0025

> <Gold.Chemscore.DEInternal>
2.1515

> <Gold.Chemscore.Rot>
1.8237

> <Gold.Chemscore.Internal.Correction>
   9.000000E+99

> <Gold.Chemscore.Hbonds>
donor molecule, donor type, donor heavy atom, donor atom, acceptor molecule, acceptor atom, score
      P1  H  7989  7998       L1    11  0.74
      P1  H  7997  8008       L1    12  1.00

> <Gold.Chemscore.Hbond.Weighted>
-6.5462

> <Gold.Chemscore.Metal.Weighted>
-0.0000

> <Gold.Chemscore.Lipo.Weighted>
-8.6914

> <Gold.Chemscore.Internal_Hbond.Weighted>
0.0000

> <Gold.Chemscore.DEClash.Weighted>
0.0025

> <Gold.Chemscore.DEInternal.Weighted>
2.1515

> <Gold.Chemscore.Rot.Weighted>
4.6686

> <Gold.Chemscore.Internal.Correction.Weighted>
   9.000000E+99

> <Gold.Protein.RotatedTorsions>
[ 6907 6896 6895 6894 ] final  -14.12 input  -60.11 | X-H torsion
[ 7974 7965 7964 7962 ] final  -28.40 input  175.53 | X-H torsion
[ 8008 7997 7996 7995 ] final  -30.26 input   59.86 | X-H torsion
[ 10167 10162 10161 10158 ] final  169.56 input  -65.29 | X-H torsion
[ 10718 10713 10712 10709 ] final  -60.54 input   66.30 | X-H torsion
[ 10763 10752 10751 10750 ] final  -67.62 input  -60.55 | X-H torsion
[ 11005 11000 10999 10996 ] final  150.87 input  -57.11 | X-H torsion

> <Gold.Protein.ActiveResidues>
 VAL166  LYS551  ARG553  GLY616  TRP617  ASP618  TYR619  PRO620  LYS621  CYS622 
 ASP623  PHE694  ASN695  SER759  ASP760  ASP761  ALA762  ILE779  LEU786  VAL792 
 PHE793  MET794  SER795  GLU796  ALA797  LYS798  CYS799  TRP800  GLU811  SER814 

> <Gold.Protein.RotatedAtoms>
  151.3443  135.0870  159.9381 H   0  0  0  0  0  0  0  0  0  0  0  0  # atno 6907 bound_to 6896
  152.5203  133.9416  159.7639 H   0  0  0  0  0  0  0  0  0  0  0  0  # atno 6908 bound_to 6896
  150.9779  133.6222  159.2757 H   0  0  0  0  0  0  0  0  0  0  0  0  # atno 6909 bound_to 6896
  146.1291  140.5277  142.8701 H   0  0  0  0  0  0  0  0  0  0  0  0  # atno 7974 bound_to 7965
  154.4257  140.1796  156.1379 H   0  0  0  0  0  0  0  0  0  0  0  0  # atno 8008 bound_to 7997
  156.0015  140.3359  155.6826 H   0  0  0  0  0  0  0  0  0  0  0  0  # atno 8009 bound_to 7997
  155.6236  140.0662  157.2661 H   0  0  0  0  0  0  0  0  0  0  0  0  # atno 8010 bound_to 7997
  139.4995  144.3692  151.9742 H   0  0  0  0  0  0  0  0  0  0  0  0  # atno 10167 bound_to 10162
  156.0983  130.4190  150.0869 H   0  0  0  0  0  0  0  0  0  0  0  0  # atno 10718 bound_to 10713
  154.3771  135.6082  153.5771 H   0  0  0  0  0  0  0  0  0  0  0  0  # atno 10763 bound_to 10752
  152.9789  135.5852  154.4453 H   0  0  0  0  0  0  0  0  0  0  0  0  # atno 10764 bound_to 10752
  154.4217  135.2846  155.1949 H   0  0  0  0  0  0  0  0  0  0  0  0  # atno 10765 bound_to 10752
  140.1169  134.8889  157.2016 H   0  0  0  0  0  0  0  0  0  0  0  0  # atno 11005 bound_to 11000
  144.7672  140.5557  143.6695 LP  0  0  0  0  0  0  0  0  0  0  0  0  # atno 17320 bound_to 7965
  145.5301  139.1475  143.3504 LP  0  0  0  0  0  0  0  0  0  0  0  0  # atno 17321 bound_to 7965
  140.3128  144.3518  150.6029 LP  0  0  0  0  0  0  0  0  0  0  0  0  # atno 17342 bound_to 10162
  140.5785  143.2174  151.7472 LP  0  0  0  0  0  0  0  0  0  0  0  0  # atno 17343 bound_to 10162
  156.8862  130.9573  151.3594 LP  0  0  0  0  0  0  0  0  0  0  0  0  # atno 17370 bound_to 10713
  157.6148  130.8610  149.9011 LP  0  0  0  0  0  0  0  0  0  0  0  0  # atno 17371 bound_to 10713
  140.3017  134.3124  155.7288 LP  0  0  0  0  0  0  0  0  0  0  0  0  # atno 17394 bound_to 11000
  141.2143  133.7596  156.9650 LP  0  0  0  0  0  0  0  0  0  0  0  0  # atno 17395 bound_to 11000

$$$$
