AV-unprocessed.smi:1626|AV-procd|sdf|6508|dock1
  -GOLD-   22720 7173D 1   1.00000     0.00000
 Structure written by MMmdl.
 48 50  0  0  0  0  0  0  0  0  2 V2000
  153.3781  142.5247  161.7184 C   0  0  0  0  0  0  0  0  0  0  0  0
  152.6963  142.2499  160.3897 C   0  0  0  0  0  0  0  0  0  0  0  0
  152.7175  140.9380  159.8655 C   0  0  0  0  0  0  0  0  0  0  0  0
  152.0979  140.6407  158.6321 C   0  0  0  0  0  0  0  0  0  0  0  0
  152.0009  139.4458  157.9406 N   0  0  0  0  0  0  0  0  0  0  0  0
  151.3099  139.8128  156.8658 C   0  0  0  0  0  0  0  0  0  0  0  0
  150.9587  141.1100  156.7715 N   0  0  0  0  0  0  0  0  0  0  0  0
  150.2177  141.7392  155.6926 C   0  0  0  0  0  0  0  0  0  0  0  0
  149.4383  140.7227  154.8337 C   0  0  2  0  0  0  0  0  0  0  0  0
  150.3661  140.0871  153.9774 O   0  0  0  0  0  0  0  0  0  0  0  0
  148.3197  141.3636  153.9808 C   0  0  0  0  0  0  0  0  0  0  0  0
  147.3940  142.1963  154.7903 N   0  3  2  0  0  0  0  0  0  0  0  0
  147.0500  141.5590  156.0873 C   0  0  0  0  0  0  0  0  0  0  0  0
  146.2151  142.5052  156.9692 C   0  0  0  0  0  0  0  0  0  0  0  0
  144.9511  143.0000  156.2469 C   0  0  2  0  0  0  0  0  0  0  0  0
  144.0284  141.9389  156.1028 O   0  0  0  0  0  0  0  0  0  0  0  0
  145.3144  143.5791  154.8694 C   0  0  0  0  0  0  0  0  0  0  0  0
  146.1728  142.6032  154.0442 C   0  0  0  0  0  0  0  0  0  0  0  0
  151.4508  141.7003  157.9313 C   0  0  0  0  0  0  0  0  0  0  0  0
  151.4179  143.0086  158.4460 C   0  0  0  0  0  0  0  0  0  0  0  0
  152.0456  143.2891  159.6774 C   0  0  0  0  0  0  0  0  0  0  0  0
  152.0123  144.7070  160.2200 C   0  0  0  0  0  0  0  0  0  0  0  0
  153.7568  141.6067  162.1689 H   0  0  0  0  0  0  0  0  0  0  0  0
  152.6803  142.9776  162.4230 H   0  0  0  0  0  0  0  0  0  0  0  0
  154.2203  143.2031  161.5798 H   0  0  0  0  0  0  0  0  0  0  0  0
  153.2125  140.1462  160.4084 H   0  0  0  0  0  0  0  0  0  0  0  0
  151.0533  139.0987  156.0969 H   0  0  0  0  0  0  0  0  0  0  0  0
  149.5342  142.4729  156.1232 H   0  0  0  0  0  0  0  0  0  0  0  0
  150.9247  142.2950  155.0750 H   0  0  0  0  0  0  0  0  0  0  0  0
  149.0272  139.9614  155.4943 H   0  0  0  0  0  0  0  0  0  0  0  0
  149.9344  139.8598  153.1684 H   0  0  0  0  0  0  0  0  0  0  0  0
  148.7318  141.9880  153.1873 H   0  0  0  0  0  0  0  0  0  0  0  0
  147.7710  140.5664  153.4767 H   0  0  0  0  0  0  0  0  0  0  0  0
  146.5075  140.6298  155.9058 H   0  0  0  0  0  0  0  0  0  0  0  0
  147.9634  141.2929  156.6207 H   0  0  0  0  0  0  0  0  0  0  0  0
  145.9485  142.0109  157.9043 H   0  0  0  0  0  0  0  0  0  0  0  0
  146.8274  143.3649  157.2447 H   0  0  0  0  0  0  0  0  0  0  0  0
  144.4672  143.7690  156.8501 H   0  0  0  0  0  0  0  0  0  0  0  0
  143.2580  142.2646  155.6616 H   0  0  0  0  0  0  0  0  0  0  0  0
  144.4109  143.8439  154.3187 H   0  0  0  0  0  0  0  0  0  0  0  0
  145.8685  144.5086  155.0075 H   0  0  0  0  0  0  0  0  0  0  0  0
  146.4412  143.0803  153.1024 H   0  0  0  0  0  0  0  0  0  0  0  0
  145.5910  141.7169  153.7864 H   0  0  0  0  0  0  0  0  0  0  0  0
  150.9140  143.7912  157.8986 H   0  0  0  0  0  0  0  0  0  0  0  0
  151.5312  145.3900  159.5193 H   0  0  0  0  0  0  0  0  0  0  0  0
  153.0234  145.0724  160.4004 H   0  0  0  0  0  0  0  0  0  0  0  0
  151.4578  144.7433  161.1580 H   0  0  0  0  0  0  0  0  0  0  0  0
  147.8984  143.0403  155.0202 H   0  0  0  0  0  0  0  0  0  0  0  0
  1  2  1  0  0  0  0
  1 23  1  0  0  0  0
  1 24  1  0  0  0  0
  1 25  1  0  0  0  0
  2 21  1  0  0  0  0
  2  3  2  0  0  0  0
  3  4  1  0  0  0  0
  3 26  1  0  0  0  0
  4 19  2  0  0  0  0
  4  5  1  0  0  0  0
  5  6  2  0  0  0  0
  6  7  1  0  0  0  0
  6 27  1  0  0  0  0
  7  8  1  0  0  0  0
  7 19  1  0  0  0  0
  8  9  1  0  0  0  0
  8 28  1  0  0  0  0
  8 29  1  0  0  0  0
  9 10  1  0  0  0  0
  9 11  1  0  0  0  0
  9 30  1  0  0  0  0
 10 31  1  0  0  0  0
 11 12  1  0  0  0  0
 11 32  1  0  0  0  0
 11 33  1  0  0  0  0
 12 18  1  0  0  0  0
 12 13  1  0  0  0  0
 12 48  1  0  0  0  0
 13 14  1  0  0  0  0
 13 34  1  0  0  0  0
 13 35  1  0  0  0  0
 14 15  1  0  0  0  0
 14 36  1  0  0  0  0
 14 37  1  0  0  0  0
 15 16  1  0  0  0  0
 15 17  1  0  0  0  0
 15 38  1  0  0  0  0
 16 39  1  0  0  0  0
 17 18  1  0  0  0  0
 17 40  1  0  0  0  0
 17 41  1  0  0  0  0
 18 42  1  0  0  0  0
 18 43  1  0  0  0  0
 19 20  1  0  0  0  0
 20 21  2  0  0  0  0
 20 44  1  0  0  0  0
 21 22  1  0  0  0  0
 22 45  1  0  0  0  0
 22 46  1  0  0  0  0
 22 47  1  0  0  0  0
M  CHG  1  12   1
M  END
> <s_m_source_file>
AV-unprocessed.smi

> <i_m_source_file_index>
1626

> <i_lp_mmshare_version>
43012

> <i_f3d_flags>
0

> <s_epik_input>
W0NIM11jKFtjSF0xKWMoW0NIM10pW2NIXWMoYzEyKW4oW2NIXW4yKVtDSDJdW0NASF0oW09IXSlbQ0gyXU4zW0NIMl1bQ0gyXVtDSF0oW09IXSlbQ0gyXVtDSDJdMw==

> <s_epik_cmdline>
J2VwaWtfcHl0aG9uJywgJy1waCcsICc3LjAnLCAnLXRuJywgJzgnLCAnLW1hJywgJzIwMCcsICctbWV0YWxfYmluZGluZycsICctaW1hZScsICc8aW5maWxlLm1hZT4nLCAnLW9tYWUnLCAnPG91dGZpbGUubWFlPic=

> <r_epik_Ionization_Penalty>
0.106584

> <r_epik_Ionization_Penalty_Charging>
0.0185694

> <r_epik_Ionization_Penalty_Neutral>
0.0880147

> <r_epik_State_Penalty>
0.0908428

> <r_epik_Charging_Adjusted_Penalty>
0.109412

> <i_epik_Tot_Q>
1

> <i_epik_Tot_abs_Q>
1

> <r_epik_Metal_State_Penalty>
0.0153739

> <b_epik_Metal_Only>
0

> <s_lp_Force_Field>
OPLS_2005

> <r_lp_Energy>
24.9536

> <b_lp_Chiralities_Consistent>
1

> <s_lp_Variant>
AV-unprocessed.smi:1626-3

> <Gold.Version>
5.8.1

> <Gold.Id.Protein>
6NUR|6NUR_protein|mol2

> <Gold.PLP.Fitness>
59.4184

> <Gold.PLP.PLP>
-48.4091

> <Gold.PLP.part.hbond>
-2.7895

> <Gold.PLP.part.metal>
0.0000

> <Gold.PLP.part.buried>
-6.2172

> <Gold.PLP.part.nonpolar>
-39.7094

> <Gold.PLP.part.repulsive>
0.1122

> <Gold.PLP.ligand.clash>
0.0000

> <Gold.PLP.ligand.torsion>
0.5494

> <Gold.PLP.Chemscore.Hbond>
3.9920

> <Gold.PLP.Chemscore.CHOScore>
0.0000

> <Gold.PLP.Chemscore.Metal>
0.0000

> <Gold.Chemscore.Hbonds>
donor molecule, donor type, donor heavy atom, donor atom, acceptor molecule, acceptor atom, score
      L1  H    10    31       P1  7957  0.98
      L1  H    12    48       P1  8028  2.00
      P1  H  7989  7998       L1    10  0.99

> <Gold.PLP.Chemscore.Internal.Correction>
0.1319

> <Gold.Rescore>
     Score         DG    S(hbond)    S(metal)    S(lipo)     H(rot)  DE(clash)    DE(int)     intcor
     20.25     -21.07       2.46        0.00     121.51       2.67       0.22       0.60       ----

> <Gold.Chemscore.Fitness>
20.2460

> <Gold.Chemscore.DG>
-21.0659

> <Gold.Chemscore.ZeroCoef>
-5.4800

> <Gold.Chemscore.Hbond>
2.4575

> <Gold.Chemscore.Metal>
0.0000

> <Gold.Chemscore.Lipo>
121.5063

> <Gold.Chemscore.Internal_Hbond>
0.0000

> <Gold.Chemscore.DEClash>
0.2234

> <Gold.Chemscore.DEInternal>
0.5964

> <Gold.Chemscore.Rot>
2.6712

> <Gold.Chemscore.Internal.Correction>
   9.000000E+99

> <Gold.Chemscore.Hbonds>
donor molecule, donor type, donor heavy atom, donor atom, acceptor molecule, acceptor atom, score
      L1  H    10    31       P1  7957  0.90
      L1  H    12    48       P1  8028  0.78
      P1  H  7989  7998       L1    10  0.31

> <Gold.Chemscore.Hbond.Weighted>
-8.2080

> <Gold.Chemscore.Metal.Weighted>
-0.0000

> <Gold.Chemscore.Lipo.Weighted>
-14.2162

> <Gold.Chemscore.Internal_Hbond.Weighted>
0.0000

> <Gold.Chemscore.DEClash.Weighted>
0.2234

> <Gold.Chemscore.DEInternal.Weighted>
0.5964

> <Gold.Chemscore.Rot.Weighted>
6.8383

> <Gold.Chemscore.Internal.Correction.Weighted>
   9.000000E+99

> <Gold.Protein.RotatedTorsions>
[ 6907 6896 6895 6894 ] final  -21.61 input  -60.11 | X-H torsion
[ 7974 7965 7964 7962 ] final   98.15 input  175.53 | X-H torsion
[ 8008 7997 7996 7995 ] final  118.21 input   59.86 | X-H torsion
[ 10167 10162 10161 10158 ] final  -99.38 input  -65.29 | X-H torsion
[ 10718 10713 10712 10709 ] final -142.49 input   66.30 | X-H torsion
[ 10763 10752 10751 10750 ] final  -12.63 input  -60.55 | X-H torsion
[ 11005 11000 10999 10996 ] final  176.00 input  -57.11 | X-H torsion

> <Gold.Protein.ActiveResidues>
 VAL166  LYS551  ARG553  GLY616  TRP617  ASP618  TYR619  PRO620  LYS621  CYS622 
 ASP623  PHE694  ASN695  SER759  ASP760  ASP761  ALA762  ILE779  LEU786  VAL792 
 PHE793  MET794  SER795  GLU796  ALA797  LYS798  CYS799  TRP800  GLU811  SER814 

> <Gold.Protein.RotatedAtoms>
  151.2308  135.0553  159.8986 H   0  0  0  0  0  0  0  0  0  0  0  0  # atno 6907 bound_to 6896
  152.5405  134.0539  159.8132 H   0  0  0  0  0  0  0  0  0  0  0  0  # atno 6908 bound_to 6896
  151.0718  133.5411  159.2658 H   0  0  0  0  0  0  0  0  0  0  0  0  # atno 6909 bound_to 6896
  145.4159  139.2327  143.3222 H   0  0  0  0  0  0  0  0  0  0  0  0  # atno 7974 bound_to 7965
  156.2535  140.2879  156.0800 H   0  0  0  0  0  0  0  0  0  0  0  0  # atno 8008 bound_to 7997
  155.1577  140.0399  157.2853 H   0  0  0  0  0  0  0  0  0  0  0  0  # atno 8009 bound_to 7997
  154.6415  140.2523  155.7323 H   0  0  0  0  0  0  0  0  0  0  0  0  # atno 8010 bound_to 7997
  140.2630  143.3395  152.0607 H   0  0  0  0  0  0  0  0  0  0  0  0  # atno 10167 bound_to 10162
  156.3466  130.7666  151.1811 H   0  0  0  0  0  0  0  0  0  0  0  0  # atno 10718 bound_to 10713
  153.5013  135.7017  153.5830 H   0  0  0  0  0  0  0  0  0  0  0  0  # atno 10763 bound_to 10752
  153.3960  135.3884  155.1955 H   0  0  0  0  0  0  0  0  0  0  0  0  # atno 10764 bound_to 10752
  154.8710  135.3870  154.4484 H   0  0  0  0  0  0  0  0  0  0  0  0  # atno 10765 bound_to 10752
  140.3683  134.7052  157.4376 H   0  0  0  0  0  0  0  0  0  0  0  0  # atno 11005 bound_to 11000
  146.2681  140.4877  142.8826 LP  0  0  0  0  0  0  0  0  0  0  0  0  # atno 17320 bound_to 7965
  144.8277  140.6656  143.6311 LP  0  0  0  0  0  0  0  0  0  0  0  0  # atno 17321 bound_to 7965
  139.5011  144.6706  151.6251 LP  0  0  0  0  0  0  0  0  0  0  0  0  # atno 17342 bound_to 10162
  140.5951  143.9711  150.6349 LP  0  0  0  0  0  0  0  0  0  0  0  0  # atno 17343 bound_to 10162
  157.7455  131.0439  150.4768 LP  0  0  0  0  0  0  0  0  0  0  0  0  # atno 17370 bound_to 10713
  156.4957  130.4105  149.6381 LP  0  0  0  0  0  0  0  0  0  0  0  0  # atno 17371 bound_to 10713
  140.0572  134.6047  155.8792 LP  0  0  0  0  0  0  0  0  0  0  0  0  # atno 17394 bound_to 11000
  141.1962  133.6591  156.5682 LP  0  0  0  0  0  0  0  0  0  0  0  0  # atno 17395 bound_to 11000

$$$$
