AV-unprocessed.smi:1997|AV-procd|sdf|8086|dock5
  -GOLD-   2272010303D 1   1.00000     0.00000
 Structure written by MMmdl.
 37 39  0  0  0  0  0  0  0  0  1 V2000
  144.8255  136.6015  153.4824 O   0  0  0  0  0  0  0  0  0  0  0  0
  145.9374  136.5643  152.9543 C   0  0  0  0  0  0  0  0  0  0  0  0
  146.8659  137.5340  153.0258 N   0  0  0  0  0  0  0  0  0  0  0  0
  146.7863  138.7809  153.7008 C   0  0  0  0  0  0  0  0  0  0  0  0
  146.5659  138.9034  155.0169 N   0  0  0  0  0  0  0  0  0  0  0  0
  146.5374  140.2326  155.4155 N   0  0  0  0  0  0  0  0  0  0  0  0
  146.7379  141.0741  154.3944 C   0  0  0  0  0  0  0  0  0  0  0  0
  146.7522  142.5557  154.5740 C   0  0  0  0  0  0  0  0  0  0  0  0
  145.6266  143.2794  155.2807 C   0  0  0  0  0  0  0  0  0  0  0  0
  145.8064  143.4389  153.7927 C   0  0  0  0  0  0  0  0  0  0  0  0
  146.9803  140.2947  152.8341 S   0  0  0  0  0  0  0  0  0  0  0  0
  146.3727  135.5296  152.2190 N   0  0  0  0  0  0  0  0  0  0  0  0
  145.5984  134.3260  151.9069 C   0  0  2  0  0  0  0  0  0  0  0  0
  146.5201  133.3675  151.1184 C   0  0  0  0  0  0  0  0  0  0  0  0
  146.0785  131.8948  151.1781 C   0  0  0  0  0  0  0  0  0  0  0  0
  144.7284  131.5934  150.5092 C   0  0  0  0  0  0  0  0  0  0  0  0
  143.5388  132.3192  151.1606 C   0  0  0  0  0  0  0  0  0  0  0  0
  143.4693  133.7203  150.7669 N   0  0  0  0  0  0  0  0  0  0  0  0
  144.3690  134.6782  151.0370 C   0  0  0  0  0  0  0  0  0  0  0  0
  144.2175  135.8165  150.5929 O   0  0  0  0  0  0  0  0  0  0  0  0
  147.7300  137.3633  152.5329 H   0  0  0  0  0  0  0  0  0  0  0  0
  147.7672  142.9134  154.7355 H   0  0  0  0  0  0  0  0  0  0  0  0
  144.7704  142.6983  155.6175 H   0  0  0  0  0  0  0  0  0  0  0  0
  145.8923  144.1248  155.9121 H   0  0  0  0  0  0  0  0  0  0  0  0
  146.1925  144.3896  153.4310 H   0  0  0  0  0  0  0  0  0  0  0  0
  145.0796  142.9531  153.1446 H   0  0  0  0  0  0  0  0  0  0  0  0
  147.2978  135.5865  151.8195 H   0  0  0  0  0  0  0  0  0  0  0  0
  145.2771  133.8573  152.8390 H   0  0  0  0  0  0  0  0  0  0  0  0
  146.6240  133.6889  150.0805 H   0  0  0  0  0  0  0  0  0  0  0  0
  147.5257  133.4154  151.5394 H   0  0  0  0  0  0  0  0  0  0  0  0
  146.8440  131.2836  150.6990 H   0  0  0  0  0  0  0  0  0  0  0  0
  146.0482  131.5686  152.2184 H   0  0  0  0  0  0  0  0  0  0  0  0
  144.7742  131.8258  149.4443 H   0  0  0  0  0  0  0  0  0  0  0  0
  144.5530  130.5190  150.5726 H   0  0  0  0  0  0  0  0  0  0  0  0
  142.6111  131.8482  150.8351 H   0  0  0  0  0  0  0  0  0  0  0  0
  143.5647  132.2271  152.2474 H   0  0  0  0  0  0  0  0  0  0  0  0
  142.6718  133.9864  150.2075 H   0  0  0  0  0  0  0  0  0  0  0  0
  1  2  2  0  0  0  0
  2  3  1  0  0  0  0
  2 12  1  0  0  0  0
  3  4  1  0  0  0  0
  3 21  1  0  0  0  0
  4 11  1  0  0  0  0
  4  5  2  0  0  0  0
  5  6  1  0  0  0  0
  6  7  2  0  0  0  0
  7  8  1  0  0  0  0
  7 11  1  0  0  0  0
  8 10  1  0  0  0  0
  8  9  1  0  0  0  0
  8 22  1  0  0  0  0
  9 10  1  0  0  0  0
  9 23  1  0  0  0  0
  9 24  1  0  0  0  0
 10 25  1  0  0  0  0
 10 26  1  0  0  0  0
 12 13  1  0  0  0  0
 12 27  1  0  0  0  0
 13 19  1  0  0  0  0
 13 14  1  0  0  0  0
 13 28  1  0  0  0  0
 14 15  1  0  0  0  0
 14 29  1  0  0  0  0
 14 30  1  0  0  0  0
 15 16  1  0  0  0  0
 15 31  1  0  0  0  0
 15 32  1  0  0  0  0
 16 17  1  0  0  0  0
 16 33  1  0  0  0  0
 16 34  1  0  0  0  0
 17 18  1  0  0  0  0
 17 35  1  0  0  0  0
 17 36  1  0  0  0  0
 18 19  1  0  0  0  0
 18 37  1  0  0  0  0
 19 20  2  0  0  0  0
M  END
> <s_m_source_file>
AV-unprocessed.smi

> <i_m_source_file_index>
1997

> <i_lp_mmshare_version>
43012

> <i_f3d_flags>
0

> <s_epik_input>
W0NIMl0xW0NIMl1bQ0hdMWMoczIpbm5jMltOSF1DKD1PKVtOSF1bQ0BASF0zW0NIMl1bQ0gyXVtDSDJdW0NIMl1bTkhdQzM9Tw==

> <s_epik_cmdline>
J2VwaWtfcHl0aG9uJywgJy1waCcsICc3LjAnLCAnLXRuJywgJzgnLCAnLW1hJywgJzIwMCcsICctbWV0YWxfYmluZGluZycsICctaW1hZScsICc8aW5maWxlLm1hZT4nLCAnLW9tYWUnLCAnPG91dGZpbGUubWFlPic=

> <r_lp_tautomer_probability>
1

> <r_epik_Ionization_Penalty>
0.000421558

> <r_epik_Ionization_Penalty_Charging>
0

> <r_epik_Ionization_Penalty_Neutral>
0.000421558

> <r_epik_State_Penalty>
-0

> <r_epik_Charging_Adjusted_Penalty>
0

> <i_epik_Tot_Q>
0

> <i_epik_Tot_abs_Q>
0

> <r_epik_Metal_State_Penalty>
0.200761

> <b_epik_Metal_Only>
0

> <s_lp_Force_Field>
OPLS_2005

> <r_lp_Energy>
8.57521

> <b_lp_Chiralities_Consistent>
1

> <s_lp_Variant>
AV-unprocessed.smi:1997-1

> <Gold.Version>
5.8.1

> <Gold.Id.Protein>
6NUR|6NUR_protein|mol2

> <Gold.PLP.Fitness>
41.1549

> <Gold.PLP.PLP>
-33.3226

> <Gold.PLP.part.hbond>
-3.0000

> <Gold.PLP.part.metal>
0.0000

> <Gold.PLP.part.buried>
-4.4006

> <Gold.PLP.part.nonpolar>
-27.1688

> <Gold.PLP.part.repulsive>
1.9375

> <Gold.PLP.ligand.clash>
0.0000

> <Gold.PLP.ligand.torsion>
0.6351

> <Gold.PLP.Chemscore.Hbond>
2.9920

> <Gold.PLP.Chemscore.CHOScore>
0.0000

> <Gold.PLP.Chemscore.Metal>
0.0000

> <Gold.Chemscore.Hbonds>
donor molecule, donor type, donor heavy atom, donor atom, acceptor molecule, acceptor atom, score
      L1  H     3    21       P1  7948  1.00
      L1  H    12    27       P1  7948  1.00
      L1  H    18    37       P1 10186  1.00

> <Gold.PLP.Chemscore.Internal.Correction>
0.1265

> <Gold.Rescore>
     Score         DG    S(hbond)    S(metal)    S(lipo)     H(rot)  DE(clash)    DE(int)     intcor
     18.52     -20.10       2.87        0.00      71.22       1.29       0.09       1.50       ----

> <Gold.Chemscore.Fitness>
18.5219

> <Gold.Chemscore.DG>
-20.1031

> <Gold.Chemscore.ZeroCoef>
-5.4800

> <Gold.Chemscore.Hbond>
2.8692

> <Gold.Chemscore.Metal>
0.0000

> <Gold.Chemscore.Lipo>
71.2162

> <Gold.Chemscore.Internal_Hbond>
0.0000

> <Gold.Chemscore.DEClash>
0.0858

> <Gold.Chemscore.DEInternal>
1.4954

> <Gold.Chemscore.Rot>
1.2860

> <Gold.Chemscore.Internal.Correction>
   9.000000E+99

> <Gold.Chemscore.Hbonds>
donor molecule, donor type, donor heavy atom, donor atom, acceptor molecule, acceptor atom, score
      L1  H     3    21       P1  7948  0.96
      L1  H    12    27       P1  7948  0.96
      L1  H    18    37       P1 10186  0.98

> <Gold.Chemscore.Hbond.Weighted>
-9.5831

> <Gold.Chemscore.Metal.Weighted>
-0.0000

> <Gold.Chemscore.Lipo.Weighted>
-8.3323

> <Gold.Chemscore.Internal_Hbond.Weighted>
0.0000

> <Gold.Chemscore.DEClash.Weighted>
0.0858

> <Gold.Chemscore.DEInternal.Weighted>
1.4954

> <Gold.Chemscore.Rot.Weighted>
3.2923

> <Gold.Chemscore.Internal.Correction.Weighted>
   9.000000E+99

> <Gold.Protein.RotatedTorsions>
[ 6907 6896 6895 6894 ] final  -55.72 input  -60.11 | X-H torsion
[ 7974 7965 7964 7962 ] final   93.31 input  175.53 | X-H torsion
[ 8008 7997 7996 7995 ] final  122.52 input   59.86 | X-H torsion
[ 10167 10162 10161 10158 ] final  140.90 input  -65.29 | X-H torsion
[ 10718 10713 10712 10709 ] final  174.91 input   66.30 | X-H torsion
[ 10763 10752 10751 10750 ] final   -7.35 input  -60.55 | X-H torsion
[ 11005 11000 10999 10996 ] final   82.85 input  -57.11 | X-H torsion

> <Gold.Protein.ActiveResidues>
 VAL166  LYS551  ARG553  GLY616  TRP617  ASP618  TYR619  PRO620  LYS621  CYS622 
 ASP623  PHE694  ASN695  SER759  ASP760  ASP761  ALA762  ILE779  LEU786  VAL792 
 PHE793  MET794  SER795  GLU796  ALA797  LYS798  CYS799  TRP800  GLU811  SER814 

> <Gold.Protein.RotatedAtoms>
  150.8228  134.7444  159.6786 H   0  0  0  0  0  0  0  0  0  0  0  0  # atno 6907 bound_to 6896
  152.4342  134.5716  159.9932 H   0  0  0  0  0  0  0  0  0  0  0  0  # atno 6908 bound_to 6896
  151.5896  133.3330  159.3061 H   0  0  0  0  0  0  0  0  0  0  0  0  # atno 6909 bound_to 6896
  145.4806  139.2278  143.2885 H   0  0  0  0  0  0  0  0  0  0  0  0  # atno 7974 bound_to 7965
  156.2731  140.2784  156.1481 H   0  0  0  0  0  0  0  0  0  0  0  0  # atno 8008 bound_to 7997
  155.0882  140.0388  157.2678 H   0  0  0  0  0  0  0  0  0  0  0  0  # atno 8009 bound_to 7997
  154.6910  140.2629  155.6818 H   0  0  0  0  0  0  0  0  0  0  0  0  # atno 8010 bound_to 7997
  139.5035  144.6205  151.6062 H   0  0  0  0  0  0  0  0  0  0  0  0  # atno 10167 bound_to 10162
  156.9426  131.0006  151.2965 H   0  0  0  0  0  0  0  0  0  0  0  0  # atno 10718 bound_to 10713
  153.4251  135.7011  153.6268 H   0  0  0  0  0  0  0  0  0  0  0  0  # atno 10763 bound_to 10752
  153.4706  135.3715  155.2389 H   0  0  0  0  0  0  0  0  0  0  0  0  # atno 10764 bound_to 10752
  154.8723  135.4042  154.3625 H   0  0  0  0  0  0  0  0  0  0  0  0  # atno 10765 bound_to 10752
  139.9050  134.8102  156.2230 H   0  0  0  0  0  0  0  0  0  0  0  0  # atno 11005 bound_to 11000
  146.2343  140.5592  142.8961 LP  0  0  0  0  0  0  0  0  0  0  0  0  # atno 17320 bound_to 7965
  144.7891  140.5996  143.6553 LP  0  0  0  0  0  0  0  0  0  0  0  0  # atno 17321 bound_to 7965
  140.5906  143.9786  150.6322 LP  0  0  0  0  0  0  0  0  0  0  0  0  # atno 17342 bound_to 10162
  140.2965  143.3289  152.1012 LP  0  0  0  0  0  0  0  0  0  0  0  0  # atno 17343 bound_to 10162
  157.5775  130.8353  149.8476 LP  0  0  0  0  0  0  0  0  0  0  0  0  # atno 17370 bound_to 10713
  156.0397  130.3742  150.1466 LP  0  0  0  0  0  0  0  0  0  0  0  0  # atno 17371 bound_to 10713
  141.0393  133.6946  156.1570 LP  0  0  0  0  0  0  0  0  0  0  0  0  # atno 17394 bound_to 11000
  140.6979  134.4596  157.5587 LP  0  0  0  0  0  0  0  0  0  0  0  0  # atno 17395 bound_to 11000

$$$$
