AV-unprocessed.smi:3056|AV-procd|sdf|11654|dock10
  -GOLD-   2272017 53D 1   1.00000     0.00000
 Structure written by MMmdl.
 47 48  0  0  0  0  0  0  0  0  1 V2000
  145.4966  144.7344  152.9945 C   0  0  0  0  0  0  0  0  0  0  0  0
  145.8709  143.6480  153.9611 C   0  0  0  0  0  0  0  0  0  0  0  0
  145.0136  142.9322  154.8431 C   0  0  0  0  0  0  0  0  0  0  0  0
  145.6562  142.0293  155.5649 N   0  0  0  0  0  0  0  0  0  0  0  0
  146.9472  142.1384  155.1769 N   0  0  0  0  0  0  0  0  0  0  0  0
  147.9684  141.2657  155.7495 C   0  0  1  0  0  0  0  0  0  0  0  0
  147.3134  140.2363  156.6912 C   0  0  0  0  0  0  0  0  0  0  0  0
  148.8363  140.6144  154.6386 C   0  0  2  0  0  0  0  0  0  0  0  0
  148.1477  139.4175  153.9548 C   0  0  0  0  0  0  0  0  0  0  0  0
  150.0787  140.1376  155.2418 N   0  0  0  0  0  0  0  0  0  0  0  0
  150.8452  141.2076  155.8949 C   0  0  0  0  0  0  0  0  0  0  0  0
  151.6284  140.7202  157.1255 C   0  0  0  0  0  0  0  0  0  0  0  0
  152.3567  139.7311  157.0194 O   0  0  0  0  0  0  0  0  0  0  0  0
  151.4936  141.3918  158.2941 N   0  0  0  0  0  0  0  0  0  0  0  0
  150.7105  142.6225  158.4282 C   0  0  0  0  0  0  0  0  0  0  0  0
  151.6824  143.7722  158.7476 C   0  0  0  0  0  0  0  0  0  0  0  0
  152.4152  143.4684  159.9334 O   0  0  0  0  0  0  0  0  0  0  0  0
  153.1594  142.2531  159.8478 C   0  0  1  0  0  0  0  0  0  0  0  0
  153.9112  142.0566  161.1685 C   0  0  0  0  0  0  0  0  0  0  0  0
  152.1893  141.0923  159.5490 C   0  0  0  0  0  0  0  0  0  0  0  0
  147.1009  143.1060  154.2057 C   0  0  0  0  0  0  0  0  0  0  0  0
  145.1350  145.6238  153.5105 H   0  0  0  0  0  0  0  0  0  0  0  0
  144.7076  144.4129  152.3145 H   0  0  0  0  0  0  0  0  0  0  0  0
  146.3435  145.0415  152.3802 H   0  0  0  0  0  0  0  0  0  0  0  0
  143.9475  143.0402  154.9773 H   0  0  0  0  0  0  0  0  0  0  0  0
  148.6142  141.8955  156.3639 H   0  0  0  0  0  0  0  0  0  0  0  0
  148.0575  139.6967  157.2760 H   0  0  0  0  0  0  0  0  0  0  0  0
  146.7279  139.5018  156.1374 H   0  0  0  0  0  0  0  0  0  0  0  0
  146.6465  140.7267  157.4013 H   0  0  0  0  0  0  0  0  0  0  0  0
  149.0539  141.3748  153.8864 H   0  0  0  0  0  0  0  0  0  0  0  0
  147.2511  139.7261  153.4180 H   0  0  0  0  0  0  0  0  0  0  0  0
  147.8562  138.6581  154.6811 H   0  0  0  0  0  0  0  0  0  0  0  0
  148.7992  138.9414  153.2221 H   0  0  0  0  0  0  0  0  0  0  0  0
  150.6283  139.6456  154.5518 H   0  0  0  0  0  0  0  0  0  0  0  0
  151.5449  141.6475  155.1840 H   0  0  0  0  0  0  0  0  0  0  0  0
  150.1514  141.9875  156.2124 H   0  0  0  0  0  0  0  0  0  0  0  0
  150.1349  142.8624  157.5335 H   0  0  0  0  0  0  0  0  0  0  0  0
  149.9839  142.5067  159.2338 H   0  0  0  0  0  0  0  0  0  0  0  0
  152.3712  143.9393  157.9180 H   0  0  0  0  0  0  0  0  0  0  0  0
  151.1336  144.7016  158.8995 H   0  0  0  0  0  0  0  0  0  0  0  0
  153.8890  142.3391  159.0404 H   0  0  0  0  0  0  0  0  0  0  0  0
  154.5080  141.1443  161.1480 H   0  0  0  0  0  0  0  0  0  0  0  0
  153.2209  141.9871  162.0095 H   0  0  0  0  0  0  0  0  0  0  0  0
  154.5869  142.8905  161.3596 H   0  0  0  0  0  0  0  0  0  0  0  0
  151.4552  141.0007  160.3510 H   0  0  0  0  0  0  0  0  0  0  0  0
  152.7279  140.1460  159.5371 H   0  0  0  0  0  0  0  0  0  0  0  0
  148.0643  143.3239  153.7691 H   0  0  0  0  0  0  0  0  0  0  0  0
  1  2  1  0  0  0  0
  1 22  1  0  0  0  0
  1 23  1  0  0  0  0
  1 24  1  0  0  0  0
  2 21  2  0  0  0  0
  2  3  1  0  0  0  0
  3  4  2  0  0  0  0
  3 25  1  0  0  0  0
  4  5  1  0  0  0  0
  5  6  1  0  0  0  0
  5 21  1  0  0  0  0
  6  7  1  0  0  0  0
  6  8  1  0  0  0  0
  6 26  1  0  0  0  0
  7 27  1  0  0  0  0
  7 28  1  0  0  0  0
  7 29  1  0  0  0  0
  8  9  1  0  0  0  0
  8 10  1  0  0  0  0
  8 30  1  0  0  0  0
  9 31  1  0  0  0  0
  9 32  1  0  0  0  0
  9 33  1  0  0  0  0
 10 11  1  0  0  0  0
 10 34  1  0  0  0  0
 11 12  1  0  0  0  0
 11 35  1  0  0  0  0
 11 36  1  0  0  0  0
 12 13  2  0  0  0  0
 12 14  1  0  0  0  0
 14 20  1  0  0  0  0
 14 15  1  0  0  0  0
 15 16  1  0  0  0  0
 15 37  1  0  0  0  0
 15 38  1  0  0  0  0
 16 17  1  0  0  0  0
 16 39  1  0  0  0  0
 16 40  1  0  0  0  0
 17 18  1  0  0  0  0
 18 19  1  0  0  0  0
 18 20  1  0  0  0  0
 18 41  1  0  0  0  0
 19 42  1  0  0  0  0
 19 43  1  0  0  0  0
 19 44  1  0  0  0  0
 20 45  1  0  0  0  0
 20 46  1  0  0  0  0
 21 47  1  0  0  0  0
M  END
> <s_m_source_file>
AV-unprocessed.smi

> <i_m_source_file_index>
3056

> <i_lp_mmshare_version>
43012

> <i_f3d_flags>
0

> <s_epik_input>
W0NIM11jMVtjSF1ubihbY0hdMSlbQ0BIXShbQ0gzXSlbQ0BIXShbQ0gzXSlbTkhdW0NIMl1DKD1PKU4yW0NIMl1bQ0gyXU9bQ0BASF0oW0NIM10pW0NIMl0y

> <s_epik_cmdline>
J2VwaWtfcHl0aG9uJywgJy1waCcsICc3LjAnLCAnLXRuJywgJzgnLCAnLW1hJywgJzIwMCcsICctbWV0YWxfYmluZGluZycsICctaW1hZScsICc8aW5maWxlLm1hZT4nLCAnLW9tYWUnLCAnPG91dGZpbGUubWFlPic=

> <r_lp_tautomer_probability>
1

> <r_epik_Ionization_Penalty>
0.667689

> <r_epik_Ionization_Penalty_Charging>
0

> <r_epik_Ionization_Penalty_Neutral>
0.667689

> <r_epik_State_Penalty>
0.684601

> <r_epik_Charging_Adjusted_Penalty>
0.684601

> <i_epik_Tot_Q>
0

> <i_epik_Tot_abs_Q>
0

> <r_epik_Metal_State_Penalty>
0.681448

> <b_epik_Metal_Only>
0

> <s_lp_Force_Field>
OPLS_2005

> <r_lp_Energy>
29.4013

> <b_lp_Chiralities_Consistent>
1

> <s_lp_Variant>
AV-unprocessed.smi:3056-10

> <Gold.Version>
5.8.1

> <Gold.Id.Protein>
6NUR|6NUR_protein|mol2

> <Gold.PLP.Fitness>
43.2154

> <Gold.PLP.PLP>
-40.1671

> <Gold.PLP.part.hbond>
-1.1477

> <Gold.PLP.part.metal>
0.0000

> <Gold.PLP.part.buried>
-2.6551

> <Gold.PLP.part.nonpolar>
-37.2608

> <Gold.PLP.part.repulsive>
0.1362

> <Gold.PLP.ligand.clash>
0.0000

> <Gold.PLP.ligand.torsion>
0.7119

> <Gold.PLP.Chemscore.Hbond>
1.0000

> <Gold.PLP.Chemscore.CHOScore>
0.4615

> <Gold.PLP.Chemscore.Metal>
0.0000

> <Gold.Chemscore.Hbonds>
donor molecule, donor type, donor heavy atom, donor atom, acceptor molecule, acceptor atom, score
      P1  H  7997  8009       L1    13  0.86
      L1  C    21    47       P1  8028  0.31

> <Gold.PLP.Chemscore.Internal.Correction>
0.0876

> <Gold.Rescore>
     Score         DG    S(hbond)    S(metal)    S(lipo)     H(rot)  DE(clash)    DE(int)     intcor
     14.83     -15.67       0.99        0.00      95.42       1.68       0.09       0.75       ----

> <Gold.Chemscore.Fitness>
14.8299

> <Gold.Chemscore.DG>
-15.6650

> <Gold.Chemscore.ZeroCoef>
-5.4800

> <Gold.Chemscore.Hbond>
0.9940

> <Gold.Chemscore.Metal>
0.0000

> <Gold.Chemscore.Lipo>
95.4213

> <Gold.Chemscore.Internal_Hbond>
0.0000

> <Gold.Chemscore.DEClash>
0.0891

> <Gold.Chemscore.DEInternal>
0.7461

> <Gold.Chemscore.Rot>
1.6793

> <Gold.Chemscore.Internal.Correction>
   9.000000E+99

> <Gold.Chemscore.Hbonds>
donor molecule, donor type, donor heavy atom, donor atom, acceptor molecule, acceptor atom, score
      P1  H  7997  8009       L1    13  0.78

> <Gold.Chemscore.Hbond.Weighted>
-3.3198

> <Gold.Chemscore.Metal.Weighted>
-0.0000

> <Gold.Chemscore.Lipo.Weighted>
-11.1643

> <Gold.Chemscore.Internal_Hbond.Weighted>
0.0000

> <Gold.Chemscore.DEClash.Weighted>
0.0891

> <Gold.Chemscore.DEInternal.Weighted>
0.7461

> <Gold.Chemscore.Rot.Weighted>
4.2990

> <Gold.Chemscore.Internal.Correction.Weighted>
   9.000000E+99

> <Gold.Protein.RotatedTorsions>
[ 6907 6896 6895 6894 ] final  171.07 input  -60.11 | X-H torsion
[ 7974 7965 7964 7962 ] final   68.81 input  175.53 | X-H torsion
[ 8008 7997 7996 7995 ] final -170.42 input   59.86 | X-H torsion
[ 10167 10162 10161 10158 ] final  -80.67 input  -65.29 | X-H torsion
[ 10718 10713 10712 10709 ] final   31.42 input   66.30 | X-H torsion
[ 10763 10752 10751 10750 ] final   -8.93 input  -60.55 | X-H torsion
[ 11005 11000 10999 10996 ] final  -79.40 input  -57.11 | X-H torsion

> <Gold.Protein.ActiveResidues>
 VAL166  LYS551  ARG553  GLY616  TRP617  ASP618  TYR619  PRO620  LYS621  CYS622 
 ASP623  PHE694  ASN695  SER759  ASP760  ASP761  ALA762  ILE779  LEU786  VAL792 
 PHE793  MET794  SER795  GLU796  ALA797  LYS798  CYS799  TRP800  GLU811  SER814 

> <Gold.Protein.RotatedAtoms>
  151.8061  133.3376  159.3541 H   0  0  0  0  0  0  0  0  0  0  0  0  # atno 6907 bound_to 6896
  150.7342  134.5708  159.5898 H   0  0  0  0  0  0  0  0  0  0  0  0  # atno 6908 bound_to 6896
  152.3108  134.7500  160.0388 H   0  0  0  0  0  0  0  0  0  0  0  0  # atno 6909 bound_to 6896
  145.7980  139.2967  143.1171 H   0  0  0  0  0  0  0  0  0  0  0  0  # atno 7974 bound_to 7965
  155.9181  140.1069  157.1228 H   0  0  0  0  0  0  0  0  0  0  0  0  # atno 8008 bound_to 7997
  154.4050  140.1261  156.4709 H   0  0  0  0  0  0  0  0  0  0  0  0  # atno 8009 bound_to 7997
  155.7229  140.3469  155.5026 H   0  0  0  0  0  0  0  0  0  0  0  0  # atno 8010 bound_to 7997
  140.4482  143.2492  151.8527 H   0  0  0  0  0  0  0  0  0  0  0  0  # atno 10167 bound_to 10162
  157.2722  130.7213  149.6510 H   0  0  0  0  0  0  0  0  0  0  0  0  # atno 10718 bound_to 10713
  153.4475  135.7014  153.6129 H   0  0  0  0  0  0  0  0  0  0  0  0  # atno 10763 bound_to 10752
  153.4478  135.3765  155.2266 H   0  0  0  0  0  0  0  0  0  0  0  0  # atno 10764 bound_to 10752
  154.8728  135.3989  154.3883 H   0  0  0  0  0  0  0  0  0  0  0  0  # atno 10765 bound_to 10752
  141.1667  133.7104  156.8117 H   0  0  0  0  0  0  0  0  0  0  0  0  # atno 11005 bound_to 11000
  145.9907  140.8605  143.0067 LP  0  0  0  0  0  0  0  0  0  0  0  0  # atno 17320 bound_to 7965
  144.6772  140.2212  143.7366 LP  0  0  0  0  0  0  0  0  0  0  0  0  # atno 17321 bound_to 7965
  139.4794  144.5151  151.8879 LP  0  0  0  0  0  0  0  0  0  0  0  0  # atno 17342 bound_to 10162
  140.4238  144.2207  150.5887 LP  0  0  0  0  0  0  0  0  0  0  0  0  # atno 17343 bound_to 10162
  155.9663  130.4364  150.5132 LP  0  0  0  0  0  0  0  0  0  0  0  0  # atno 17370 bound_to 10713
  157.3059  131.0654  151.2036 LP  0  0  0  0  0  0  0  0  0  0  0  0  # atno 17371 bound_to 10713
  140.2183  134.8776  157.3349 LP  0  0  0  0  0  0  0  0  0  0  0  0  # atno 17394 bound_to 11000
  140.2015  134.4249  155.7660 LP  0  0  0  0  0  0  0  0  0  0  0  0  # atno 17395 bound_to 11000

$$$$
