AV-unprocessed.smi:2510|AV-procd|sdf|9876|dock5
  -GOLD-   2272013513D 1   1.00000     0.00000
 Structure written by MMmdl.
 48 49  0  0  0  0  0  0  0  0  1 V2000
  149.1541  133.1559  153.8993 C   0  0  0  0  0  0  0  0  0  0  0  0
  148.3484  133.0199  152.5939 C   0  0  0  0  0  0  0  0  0  0  0  0
  146.7994  133.1107  152.7073 C   0  0  0  0  0  0  0  0  0  0  0  0
  146.2997  132.0562  153.7189 C   0  0  0  0  0  0  0  0  0  0  0  0
  146.6379  130.6015  153.3529 C   0  0  0  0  0  0  0  0  0  0  0  0
  146.1600  134.5207  152.8542 C   0  0  1  0  0  0  0  0  0  0  0  0
  147.0060  135.5391  153.4641 N   0  0  0  0  0  0  0  0  0  0  0  0
  146.9171  135.9348  154.7428 C   0  0  0  0  0  0  0  0  0  0  0  0
  146.1362  135.4381  155.5540 O   0  0  0  0  0  0  0  0  0  0  0  0
  147.8553  137.0626  155.1728 C   0  0  0  0  0  0  0  0  0  0  0  0
  147.3807  138.3737  154.6045 C   0  0  0  0  0  0  0  0  0  0  0  0
  147.9616  139.6668  154.7692 C   0  0  0  0  0  0  0  0  0  0  0  0
  147.1492  140.4976  154.0501 C   0  0  0  0  0  0  0  0  0  0  0  0
  147.2039  141.9678  153.8091 C   0  0  0  0  0  0  0  0  0  0  0  0
  146.1620  139.7018  153.5168 N   0  0  0  0  0  0  0  0  0  0  0  0
  146.2905  138.4046  153.8502 N   0  0  0  0  0  0  0  0  0  0  0  0
  146.1125  134.6426  151.3282 C   0  0  2  0  0  0  0  0  0  0  0  0
  145.0017  135.4524  150.6712 C   0  0  0  0  0  0  0  0  0  0  0  0
  146.0866  133.1029  151.3239 C   0  0  2  0  0  0  0  0  0  0  0  0
  144.7638  132.5807  151.4037 O   0  0  0  0  0  0  0  0  0  0  0  0
  144.6896  131.2008  151.0896 C   0  0  0  0  0  0  0  0  0  0  0  0
  145.4050  140.0257  152.9317 H   0  0  0  0  0  0  0  0  0  0  0  0
  150.2215  133.1918  153.6812 H   0  0  0  0  0  0  0  0  0  0  0  0
  148.9978  132.3076  154.5649 H   0  0  0  0  0  0  0  0  0  0  0  0
  148.9062  134.0623  154.4475 H   0  0  0  0  0  0  0  0  0  0  0  0
  148.7177  133.7828  151.9091 H   0  0  0  0  0  0  0  0  0  0  0  0
  148.6274  132.0784  152.1205 H   0  0  0  0  0  0  0  0  0  0  0  0
  146.6652  132.2757  154.7215 H   0  0  0  0  0  0  0  0  0  0  0  0
  145.2159  132.1264  153.8163 H   0  0  0  0  0  0  0  0  0  0  0  0
  146.1931  129.9127  154.0711 H   0  0  0  0  0  0  0  0  0  0  0  0
  147.7122  130.4207  153.3550 H   0  0  0  0  0  0  0  0  0  0  0  0
  146.2548  130.3392  152.3666 H   0  0  0  0  0  0  0  0  0  0  0  0
  145.1514  134.4798  153.2734 H   0  0  0  0  0  0  0  0  0  0  0  0
  147.6807  135.9951  152.8673 H   0  0  0  0  0  0  0  0  0  0  0  0
  147.8964  137.0992  156.2624 H   0  0  0  0  0  0  0  0  0  0  0  0
  148.8690  136.8456  154.8336 H   0  0  0  0  0  0  0  0  0  0  0  0
  148.8450  139.9398  155.3271 H   0  0  0  0  0  0  0  0  0  0  0  0
  148.0399  142.4200  154.3434 H   0  0  0  0  0  0  0  0  0  0  0  0
  146.2871  142.4509  154.1480 H   0  0  0  0  0  0  0  0  0  0  0  0
  147.3273  142.1816  152.7472 H   0  0  0  0  0  0  0  0  0  0  0  0
  147.0801  134.9759  150.9490 H   0  0  0  0  0  0  0  0  0  0  0  0
  144.0172  135.1524  151.0310 H   0  0  0  0  0  0  0  0  0  0  0  0
  145.0120  135.3315  149.5882 H   0  0  0  0  0  0  0  0  0  0  0  0
  145.1162  136.5154  150.8832 H   0  0  0  0  0  0  0  0  0  0  0  0
  146.6879  132.6442  150.5367 H   0  0  0  0  0  0  0  0  0  0  0  0
  143.6512  130.8726  151.1292 H   0  0  0  0  0  0  0  0  0  0  0  0
  145.2566  130.6073  151.8077 H   0  0  0  0  0  0  0  0  0  0  0  0
  145.0705  130.9945  150.0894 H   0  0  0  0  0  0  0  0  0  0  0  0
  1  2  1  0  0  0  0
  1 23  1  0  0  0  0
  1 24  1  0  0  0  0
  1 25  1  0  0  0  0
  2  3  1  0  0  0  0
  2 26  1  0  0  0  0
  2 27  1  0  0  0  0
  3 19  1  0  0  0  0
  3  4  1  0  0  0  0
  3  6  1  0  0  0  0
  4  5  1  0  0  0  0
  4 28  1  0  0  0  0
  4 29  1  0  0  0  0
  5 30  1  0  0  0  0
  5 31  1  0  0  0  0
  5 32  1  0  0  0  0
  6  7  1  0  0  0  0
  6 17  1  0  0  0  0
  6 33  1  0  0  0  0
  7  8  1  0  0  0  0
  7 34  1  0  0  0  0
  8  9  2  0  0  0  0
  8 10  1  0  0  0  0
 10 11  1  0  0  0  0
 10 35  1  0  0  0  0
 10 36  1  0  0  0  0
 11 16  2  0  0  0  0
 11 12  1  0  0  0  0
 12 13  2  0  0  0  0
 12 37  1  0  0  0  0
 13 14  1  0  0  0  0
 13 15  1  0  0  0  0
 14 38  1  0  0  0  0
 14 39  1  0  0  0  0
 14 40  1  0  0  0  0
 15 22  1  0  0  0  0
 15 16  1  0  0  0  0
 17 18  1  0  0  0  0
 17 19  1  0  0  0  0
 17 41  1  0  0  0  0
 18 42  1  0  0  0  0
 18 43  1  0  0  0  0
 18 44  1  0  0  0  0
 19 20  1  0  0  0  0
 19 45  1  0  0  0  0
 20 21  1  0  0  0  0
 21 46  1  0  0  0  0
 21 47  1  0  0  0  0
 21 48  1  0  0  0  0
M  END
> <s_m_source_file>
AV-unprocessed.smi

> <i_m_source_file_index>
2510

> <i_lp_mmshare_version>
43012

> <i_f3d_flags>
0

> <s_epik_input>
W0NIM11PW0NAQEhdMVtDQEhdKFtDSDNdKVtDQEBIXShDMShbQ0gyXVtDSDNdKVtDSDJdW0NIM10pW05IXUMoPU8pW0NIMl1jMltjSF1jKFtDSDNdKVtuSF1uMg==

> <s_epik_cmdline>
J2VwaWtfcHl0aG9uJywgJy1waCcsICc3LjAnLCAnLXRuJywgJzgnLCAnLW1hJywgJzIwMCcsICctbWV0YWxfYmluZGluZycsICctaW1hZScsICc8aW5maWxlLm1hZT4nLCAnLW9tYWUnLCAnPG91dGZpbGUubWFlPic=

> <r_lp_tautomer_probability>
0.5

> <r_epik_Ionization_Penalty>
9.73156e-05

> <r_epik_Ionization_Penalty_Charging>
0

> <r_epik_Ionization_Penalty_Neutral>
9.73156e-05

> <r_epik_State_Penalty>
0.41068

> <r_epik_Charging_Adjusted_Penalty>
0.41068

> <i_epik_Tot_Q>
0

> <i_epik_Tot_abs_Q>
0

> <r_epik_Metal_State_Penalty>
0.410699

> <b_epik_Metal_Only>
0

> <s_lp_Force_Field>
OPLS_2005

> <r_lp_Energy>
28.6218

> <b_lp_Chiralities_Consistent>
1

> <s_lp_Variant>
AV-unprocessed.smi:2510-7

> <Gold.Version>
5.8.1

> <Gold.Id.Protein>
6NUR|6NUR_protein|mol2

> <Gold.PLP.Fitness>
35.8095

> <Gold.PLP.PLP>
-30.9161

> <Gold.PLP.part.hbond>
-2.0000

> <Gold.PLP.part.metal>
0.0000

> <Gold.PLP.part.buried>
-5.0144

> <Gold.PLP.part.nonpolar>
-23.8388

> <Gold.PLP.part.repulsive>
0.2898

> <Gold.PLP.ligand.clash>
0.0000

> <Gold.PLP.ligand.torsion>
0.9062

> <Gold.PLP.Chemscore.Hbond>
2.0000

> <Gold.PLP.Chemscore.CHOScore>
0.0000

> <Gold.PLP.Chemscore.Metal>
0.0000

> <Gold.Chemscore.Hbonds>
donor molecule, donor type, donor heavy atom, donor atom, acceptor molecule, acceptor atom, score
      L1  H     7    34       P1  7948  1.00
      L1  H    15    22       P1 10175  1.00

> <Gold.PLP.Chemscore.Internal.Correction>
0.7057

> <Gold.Rescore>
     Score         DG    S(hbond)    S(metal)    S(lipo)     H(rot)  DE(clash)    DE(int)     intcor
     15.81     -16.95       1.98        0.00      80.98       1.81       0.05       1.08       ----

> <Gold.Chemscore.Fitness>
15.8147

> <Gold.Chemscore.DG>
-16.9493

> <Gold.Chemscore.ZeroCoef>
-5.4800

> <Gold.Chemscore.Hbond>
1.9845

> <Gold.Chemscore.Metal>
0.0000

> <Gold.Chemscore.Lipo>
80.9845

> <Gold.Chemscore.Internal_Hbond>
0.0000

> <Gold.Chemscore.DEClash>
0.0510

> <Gold.Chemscore.DEInternal>
1.0837

> <Gold.Chemscore.Rot>
1.8102

> <Gold.Chemscore.Internal.Correction>
   9.000000E+99

> <Gold.Chemscore.Hbonds>
donor molecule, donor type, donor heavy atom, donor atom, acceptor molecule, acceptor atom, score
      L1  H     7    34       P1  7948  0.99
      L1  H    15    22       P1 10175  0.99

> <Gold.Chemscore.Hbond.Weighted>
-6.6282

> <Gold.Chemscore.Metal.Weighted>
-0.0000

> <Gold.Chemscore.Lipo.Weighted>
-9.4752

> <Gold.Chemscore.Internal_Hbond.Weighted>
0.0000

> <Gold.Chemscore.DEClash.Weighted>
0.0510

> <Gold.Chemscore.DEInternal.Weighted>
1.0837

> <Gold.Chemscore.Rot.Weighted>
4.6341

> <Gold.Chemscore.Internal.Correction.Weighted>
   9.000000E+99

> <Gold.Protein.RotatedTorsions>
[ 6907 6896 6895 6894 ] final  -51.28 input  -60.11 | X-H torsion
[ 7974 7965 7964 7962 ] final  -84.42 input  175.53 | X-H torsion
[ 8008 7997 7996 7995 ] final  -44.08 input   59.86 | X-H torsion
[ 10167 10162 10161 10158 ] final -134.12 input  -65.29 | X-H torsion
[ 10718 10713 10712 10709 ] final   -9.21 input   66.30 | X-H torsion
[ 10763 10752 10751 10750 ] final   -9.14 input  -60.55 | X-H torsion
[ 11005 11000 10999 10996 ] final   90.34 input  -57.11 | X-H torsion

> <Gold.Protein.ActiveResidues>
 VAL166  LYS551  ARG553  GLY616  TRP617  ASP618  TYR619  PRO620  LYS621  CYS622 
 ASP623  PHE694  ASN695  SER759  ASP760  ASP761  ALA762  ILE779  LEU786  VAL792 
 PHE793  MET794  SER795  GLU796  ALA797  LYS798  CYS799  TRP800  GLU811  SER814 

> <Gold.Protein.RotatedAtoms>
  150.8627  134.7982  159.7094 H   0  0  0  0  0  0  0  0  0  0  0  0  # atno 6907 bound_to 6896
  152.4658  134.5074  159.9753 H   0  0  0  0  0  0  0  0  0  0  0  0  # atno 6908 bound_to 6896
  151.5175  133.3434  159.2931 H   0  0  0  0  0  0  0  0  0  0  0  0  # atno 6909 bound_to 6896
  145.5069  140.9543  143.1729 H   0  0  0  0  0  0  0  0  0  0  0  0  # atno 7974 bound_to 7965
  154.3997  140.1431  156.3624 H   0  0  0  0  0  0  0  0  0  0  0  0  # atno 8008 bound_to 7997
  155.8169  140.3471  155.5470 H   0  0  0  0  0  0  0  0  0  0  0  0  # atno 8009 bound_to 7997
  155.8328  140.0915  157.1772 H   0  0  0  0  0  0  0  0  0  0  0  0  # atno 8010 bound_to 7997
  139.8913  143.6719  152.2611 H   0  0  0  0  0  0  0  0  0  0  0  0  # atno 10167 bound_to 10162
  156.6913  130.5066  149.5943 H   0  0  0  0  0  0  0  0  0  0  0  0  # atno 10718 bound_to 10713
  153.4506  135.7015  153.6111 H   0  0  0  0  0  0  0  0  0  0  0  0  # atno 10763 bound_to 10752
  153.4448  135.3772  155.2249 H   0  0  0  0  0  0  0  0  0  0  0  0  # atno 10764 bound_to 10752
  154.8728  135.3982  154.3917 H   0  0  0  0  0  0  0  0  0  0  0  0  # atno 10765 bound_to 10752
  139.8858  134.8607  156.3270 H   0  0  0  0  0  0  0  0  0  0  0  0  # atno 11005 bound_to 11000
  144.7749  139.6653  143.7179 LP  0  0  0  0  0  0  0  0  0  0  0  0  # atno 17320 bound_to 7965
  146.2191  139.5603  142.9630 LP  0  0  0  0  0  0  0  0  0  0  0  0  # atno 17321 bound_to 7965
  139.7107  144.7620  151.1117 LP  0  0  0  0  0  0  0  0  0  0  0  0  # atno 17342 bound_to 10162
  140.7726  143.5334  150.9396 LP  0  0  0  0  0  0  0  0  0  0  0  0  # atno 17343 bound_to 10162
  156.1796  130.6490  151.0935 LP  0  0  0  0  0  0  0  0  0  0  0  0  # atno 17370 bound_to 10713
  157.7008  131.0777  150.6827 LP  0  0  0  0  0  0  0  0  0  0  0  0  # atno 17371 bound_to 10713
  140.9748  133.7304  156.0587 LP  0  0  0  0  0  0  0  0  0  0  0  0  # atno 17394 bound_to 11000
  140.7824  134.3710  157.5484 LP  0  0  0  0  0  0  0  0  0  0  0  0  # atno 17395 bound_to 11000

$$$$
