AV-unprocessed.smi:779|AV-procd|sdf|3705|dock9
  -GOLD-   22720 1123D 1   1.00000     0.00000
 Structure written by MMmdl.
 20 20  0  0  0  0  0  0  0  0  3 V2000
  153.1875  138.9889  155.0539 O   0  0  0  0  0  0  0  0  0  0  0  0
  152.0949  138.5411  154.6381 C   0  0  0  0  0  0  0  0  0  0  0  0
  151.9355  137.4433  154.0592 O   0  5  0  0  0  0  0  0  0  0  0  0
  150.8391  139.4765  154.9132 C   0  0  0  0  0  0  0  0  0  0  0  0
  149.7259  139.4752  154.1490 C   0  0  0  0  0  0  0  0  0  0  0  0
  148.6347  140.3211  154.4021 N   0  0  0  0  0  0  0  0  0  0  0  0
  147.4833  140.2348  153.4941 C   0  0  0  0  0  0  0  0  0  0  0  0
  147.1456  138.7726  153.1632 C   0  0  0  0  0  0  0  0  0  0  0  0
  147.3884  138.5196  151.7960 O   0  0  0  0  0  0  0  0  0  0  0  0
  148.6817  141.2029  155.4413 C   0  0  0  0  0  0  0  0  0  0  0  0
  147.7235  141.9541  155.6298 O   0  0  0  0  0  0  0  0  0  0  0  0
  149.7939  141.2237  156.2362 N   0  5  0  0  0  0  0  0  0  0  0  0
  150.8824  140.4176  156.0541 C   0  0  0  0  0  0  0  0  0  0  0  0
  151.8420  140.4887  156.8216 O   0  0  0  0  0  0  0  0  0  0  0  0
  149.6053  138.8322  153.2893 H   0  0  0  0  0  0  0  0  0  0  0  0
  146.6169  140.7181  153.9484 H   0  0  0  0  0  0  0  0  0  0  0  0
  147.6737  140.7957  152.5774 H   0  0  0  0  0  0  0  0  0  0  0  0
  147.7473  138.0893  153.7633 H   0  0  0  0  0  0  0  0  0  0  0  0
  146.0979  138.5618  153.3797 H   0  0  0  0  0  0  0  0  0  0  0  0
  147.8960  137.7258  151.7258 H   0  0  0  0  0  0  0  0  0  0  0  0
  1  2  2  0  0  0  0
  2  3  1  0  0  0  0
  2  4  1  0  0  0  0
  4 13  1  0  0  0  0
  4  5  2  0  0  0  0
  5  6  1  0  0  0  0
  5 15  1  0  0  0  0
  6  7  1  0  0  0  0
  6 10  1  0  0  0  0
  7  8  1  0  0  0  0
  7 16  1  0  0  0  0
  7 17  1  0  0  0  0
  8  9  1  0  0  0  0
  8 18  1  0  0  0  0
  8 19  1  0  0  0  0
  9 20  1  0  0  0  0
 10 11  2  0  0  0  0
 10 12  1  0  0  0  0
 12 13  1  0  0  0  0
 13 14  2  0  0  0  0
M  CHG  1   3  -1
M  CHG  1  12  -1
M  END
> <s_m_source_file>
AV-unprocessed.smi

> <i_m_source_file_index>
779

> <i_lp_mmshare_version>
43012

> <i_f3d_flags>
0

> <s_epik_input>
Tz1DKFtPSF0pYzFbY0hdbihbQ0gyXVtDSDJdW09IXSljKD1PKVtuSF1jMT1P

> <s_epik_cmdline>
J2VwaWtfcHl0aG9uJywgJy1waCcsICc3LjAnLCAnLXRuJywgJzgnLCAnLW1hJywgJzIwMCcsICctbWV0YWxfYmluZGluZycsICctaW1hZScsICc8aW5maWxlLm1hZT4nLCAnLW9tYWUnLCAnPG91dGZpbGUubWFlPic=

> <r_lp_tautomer_probability>
1

> <r_epik_Ionization_Penalty>
3.89082

> <r_epik_Ionization_Penalty_Charging>
0.00124607

> <r_epik_Ionization_Penalty_Neutral>
3.88958

> <r_epik_State_Penalty>
3.88874

> <r_epik_Charging_Adjusted_Penalty>
3.88999

> <i_epik_Tot_Q>
-2

> <i_epik_Tot_abs_Q>
2

> <r_epik_Metal_State_Penalty>
0.317414

> <b_epik_Metal_Only>
1

> <s_lp_Force_Field>
OPLS_2005

> <r_lp_Energy>
29.4188

> <b_lp_Chiralities_Consistent>
1

> <s_lp_Variant>
AV-unprocessed.smi:779-2

> <Gold.Version>
5.8.1

> <Gold.Id.Protein>
6NUR|6NUR_protein|mol2

> <Gold.PLP.Fitness>
40.5896

> <Gold.PLP.PLP>
-25.4549

> <Gold.PLP.part.hbond>
-4.8311

> <Gold.PLP.part.metal>
0.0000

> <Gold.PLP.part.buried>
-3.3324

> <Gold.PLP.part.nonpolar>
-19.3559

> <Gold.PLP.part.repulsive>
1.6765

> <Gold.PLP.ligand.clash>
0.0000

> <Gold.PLP.ligand.torsion>
0.9176

> <Gold.PLP.Chemscore.Hbond>
4.9840

> <Gold.PLP.Chemscore.CHOScore>
0.6717

> <Gold.PLP.Chemscore.Metal>
0.0000

> <Gold.Chemscore.Hbonds>
donor molecule, donor type, donor heavy atom, donor atom, acceptor molecule, acceptor atom, score
      L1  H     9    20       P1  7948  1.00
      P1  H  7997  8010       L1     1  2.00
      P1  H 10752 10765       L1     3  1.97
      L1  C     5    15       P1  7957  0.68

> <Gold.PLP.Chemscore.Internal.Correction>
0.0027

> <Gold.Rescore>
     Score         DG    S(hbond)    S(metal)    S(lipo)     H(rot)  DE(clash)    DE(int)     intcor
     10.37     -12.87       2.91        0.00      27.48       2.17       0.17       2.34       ----

> <Gold.Chemscore.Fitness>
10.3666

> <Gold.Chemscore.DG>
-12.8686

> <Gold.Chemscore.ZeroCoef>
-5.4800

> <Gold.Chemscore.Hbond>
2.9104

> <Gold.Chemscore.Metal>
0.0000

> <Gold.Chemscore.Lipo>
27.4761

> <Gold.Chemscore.Internal_Hbond>
0.0000

> <Gold.Chemscore.DEClash>
0.1658

> <Gold.Chemscore.DEInternal>
2.3362

> <Gold.Chemscore.Rot>
2.1667

> <Gold.Chemscore.Internal.Correction>
   9.000000E+99

> <Gold.Chemscore.Hbonds>
donor molecule, donor type, donor heavy atom, donor atom, acceptor molecule, acceptor atom, score
      L1  H     9    20       P1  7948  1.00
      P1  H  7997  8010       L1     1  0.98
      P1  H 10752 10765       L1     3  0.86

> <Gold.Chemscore.Hbond.Weighted>
-9.7206

> <Gold.Chemscore.Metal.Weighted>
-0.0000

> <Gold.Chemscore.Lipo.Weighted>
-3.2147

> <Gold.Chemscore.Internal_Hbond.Weighted>
0.0000

> <Gold.Chemscore.DEClash.Weighted>
0.1658

> <Gold.Chemscore.DEInternal.Weighted>
2.3362

> <Gold.Chemscore.Rot.Weighted>
5.5467

> <Gold.Chemscore.Internal.Correction.Weighted>
   9.000000E+99

> <Gold.Protein.RotatedTorsions>
[ 6907 6896 6895 6894 ] final  -90.80 input  -60.11 | X-H torsion
[ 7974 7965 7964 7962 ] final   27.20 input  175.53 | X-H torsion
[ 8008 7997 7996 7995 ] final  109.14 input   59.86 | X-H torsion
[ 10167 10162 10161 10158 ] final   54.78 input  -65.29 | X-H torsion
[ 10718 10713 10712 10709 ] final   -5.01 input   66.30 | X-H torsion
[ 10763 10752 10751 10750 ] final  151.91 input  -60.55 | X-H torsion
[ 11005 11000 10999 10996 ] final -176.72 input  -57.11 | X-H torsion

> <Gold.Protein.ActiveResidues>
 VAL166  LYS551  ARG553  GLY616  TRP617  ASP618  TYR619  PRO620  LYS621  CYS622 
 ASP623  PHE694  ASN695  SER759  ASP760  ASP761  ALA762  ILE779  LEU786  VAL792 
 PHE793  MET794  SER795  GLU796  ALA797  LYS798  CYS799  TRP800  GLU811  SER814 

> <Gold.Protein.RotatedAtoms>
  150.6885  134.2376  159.4459 H   0  0  0  0  0  0  0  0  0  0  0  0  # atno 6907 bound_to 6896
  152.0323  134.9758  160.0582 H   0  0  0  0  0  0  0  0  0  0  0  0  # atno 6908 bound_to 6896
  152.1293  133.4363  159.4750 H   0  0  0  0  0  0  0  0  0  0  0  0  # atno 6909 bound_to 6896
  146.1797  139.7224  142.8909 H   0  0  0  0  0  0  0  0  0  0  0  0  # atno 7974 bound_to 7965
  156.1956  140.3063  155.9421 H   0  0  0  0  0  0  0  0  0  0  0  0  # atno 8008 bound_to 7997
  155.3073  140.0449  157.3050 H   0  0  0  0  0  0  0  0  0  0  0  0  # atno 8009 bound_to 7997
  154.5506  140.2290  155.8500 H   0  0  0  0  0  0  0  0  0  0  0  0  # atno 8010 bound_to 7997
  140.2264  144.3733  150.6431 H   0  0  0  0  0  0  0  0  0  0  0  0  # atno 10167 bound_to 10162
  156.7528  130.5245  149.5800 H   0  0  0  0  0  0  0  0  0  0  0  0  # atno 10718 bound_to 10713
  154.1114  135.2839  155.3229 H   0  0  0  0  0  0  0  0  0  0  0  0  # atno 10763 bound_to 10752
  154.6487  135.5376  153.7879 H   0  0  0  0  0  0  0  0  0  0  0  0  # atno 10764 bound_to 10752
  153.0344  135.6504  154.1272 H   0  0  0  0  0  0  0  0  0  0  0  0  # atno 10765 bound_to 10752
  140.4490  134.6361  157.4792 H   0  0  0  0  0  0  0  0  0  0  0  0  # atno 11005 bound_to 11000
  145.4111  141.0396  143.3016 LP  0  0  0  0  0  0  0  0  0  0  0  0  # atno 17320 bound_to 7965
  144.8294  139.5653  143.6950 LP  0  0  0  0  0  0  0  0  0  0  0  0  # atno 17321 bound_to 7965
  140.6217  143.2177  151.6680 LP  0  0  0  0  0  0  0  0  0  0  0  0  # atno 17342 bound_to 10162
  139.5125  144.3473  152.0685 LP  0  0  0  0  0  0  0  0  0  0  0  0  # atno 17343 bound_to 10162
  156.1390  130.6231  151.0441 LP  0  0  0  0  0  0  0  0  0  0  0  0  # atno 17370 bound_to 10713
  157.6769  131.0848  150.7470 LP  0  0  0  0  0  0  0  0  0  0  0  0  # atno 17371 bound_to 10713
  140.0019  134.6822  155.9516 LP  0  0  0  0  0  0  0  0  0  0  0  0  # atno 17394 bound_to 11000
  141.1672  133.6537  156.4523 LP  0  0  0  0  0  0  0  0  0  0  0  0  # atno 17395 bound_to 11000

$$$$
