AV-unprocessed.smi:2706|AV-procd|sdf|10447|dock7
  -GOLD-   2272014493D 1   1.00000     0.00000
 Structure written by MMmdl.
 43 46  0  0  0  0  0  0  0  0  1 V2000
  151.1725  141.1253  156.3741 C   0  0  0  0  0  0  0  0  0  0  0  0
  150.8175  140.1064  155.3909 N   0  0  0  0  0  0  0  0  0  0  0  0
  151.7320  139.0037  155.1234 C   0  0  0  0  0  0  0  0  0  0  0  0
  149.5617  140.1632  154.7447 C   0  0  0  0  0  0  0  0  0  0  0  0
  148.7803  141.3437  154.7436 C   0  0  0  0  0  0  0  0  0  0  0  0
  147.5395  141.3374  154.0815 C   0  0  0  0  0  0  0  0  0  0  0  0
  147.1131  140.1598  153.4415 C   0  0  0  0  0  0  0  0  0  0  0  0
  147.9393  139.0172  153.4817 C   0  0  0  0  0  0  0  0  0  0  0  0
  147.4285  137.8756  152.8086 N   0  0  0  0  0  0  0  0  0  0  0  0
  146.1487  137.5943  152.5058 C   0  0  0  0  0  0  0  0  0  0  0  0
  145.1815  138.3123  152.7627 O   0  0  0  0  0  0  0  0  0  0  0  0
  146.0511  136.4150  151.8774 N   0  0  0  0  0  0  0  0  0  0  0  0
  144.8438  135.8146  151.4088 C   0  0  2  0  0  0  0  0  0  0  0  0
  144.3293  134.5116  151.9934 C   0  0  2  0  0  0  0  0  0  0  0  0
  145.0732  133.3190  152.6050 C   0  0  2  0  0  0  0  0  0  0  0  0
  146.5753  133.5864  152.8290 C   0  0  0  0  0  0  0  0  0  0  0  0
  147.1228  133.6253  151.3854 C   0  0  0  0  0  0  0  0  0  0  0  0
  145.8544  133.3759  150.5446 C   0  0  1  0  0  0  0  0  0  0  0  0
  145.1362  132.3578  151.4233 C   0  0  0  0  0  0  0  0  0  0  0  0
  144.8706  134.5519  150.5662 C   0  0  2  0  0  0  0  0  0  0  0  0
  149.1324  139.0381  154.1234 N   0  0  0  0  0  0  0  0  0  0  0  0
  151.1401  142.1193  155.9265 H   0  0  0  0  0  0  0  0  0  0  0  0
  152.1781  140.9695  156.7644 H   0  0  0  0  0  0  0  0  0  0  0  0
  150.4789  141.1020  157.2152 H   0  0  0  0  0  0  0  0  0  0  0  0
  152.0406  139.0084  154.0778 H   0  0  0  0  0  0  0  0  0  0  0  0
  151.2575  138.0473  155.3453 H   0  0  0  0  0  0  0  0  0  0  0  0
  152.6305  139.0771  155.7360 H   0  0  0  0  0  0  0  0  0  0  0  0
  149.1054  142.2481  155.2351 H   0  0  0  0  0  0  0  0  0  0  0  0
  146.9233  142.2241  154.0652 H   0  0  0  0  0  0  0  0  0  0  0  0
  146.1626  140.1392  152.9281 H   0  0  0  0  0  0  0  0  0  0  0  0
  148.1172  137.1938  152.5274 H   0  0  0  0  0  0  0  0  0  0  0  0
  146.9015  135.8972  151.7108 H   0  0  0  0  0  0  0  0  0  0  0  0
  144.0620  136.5183  151.1260 H   0  0  0  0  0  0  0  0  0  0  0  0
  143.2473  134.4338  152.0845 H   0  0  0  0  0  0  0  0  0  0  0  0
  144.5594  132.9250  153.4823 H   0  0  0  0  0  0  0  0  0  0  0  0
  146.7685  134.4911  153.4039 H   0  0  0  0  0  0  0  0  0  0  0  0
  147.0288  132.7607  153.3788 H   0  0  0  0  0  0  0  0  0  0  0  0
  147.6334  134.5520  151.1268 H   0  0  0  0  0  0  0  0  0  0  0  0
  147.8401  132.8175  151.2356 H   0  0  0  0  0  0  0  0  0  0  0  0
  146.0578  133.0338  149.5296 H   0  0  0  0  0  0  0  0  0  0  0  0
  145.7169  131.4540  151.6183 H   0  0  0  0  0  0  0  0  0  0  0  0
  144.1527  132.0756  151.0424 H   0  0  0  0  0  0  0  0  0  0  0  0
  144.1229  134.4994  149.7768 H   0  0  0  0  0  0  0  0  0  0  0  0
  1  2  1  0  0  0  0
  1 22  1  0  0  0  0
  1 23  1  0  0  0  0
  1 24  1  0  0  0  0
  2  3  1  0  0  0  0
  2  4  1  0  0  0  0
  3 25  1  0  0  0  0
  3 26  1  0  0  0  0
  3 27  1  0  0  0  0
  4 21  1  0  0  0  0
  4  5  2  0  0  0  0
  5  6  1  0  0  0  0
  5 28  1  0  0  0  0
  6  7  2  0  0  0  0
  6 29  1  0  0  0  0
  7  8  1  0  0  0  0
  7 30  1  0  0  0  0
  8  9  1  0  0  0  0
  8 21  2  0  0  0  0
  9 10  1  0  0  0  0
  9 31  1  0  0  0  0
 10 11  2  0  0  0  0
 10 12  1  0  0  0  0
 12 13  1  0  0  0  0
 12 32  1  0  0  0  0
 13 20  1  0  0  0  0
 13 14  1  0  0  0  0
 13 33  1  0  0  0  0
 14 20  1  0  0  0  0
 14 15  1  0  0  0  0
 14 34  1  0  0  0  0
 15 19  1  0  0  0  0
 15 16  1  0  0  0  0
 15 35  1  0  0  0  0
 16 17  1  0  0  0  0
 16 36  1  0  0  0  0
 16 37  1  0  0  0  0
 17 18  1  0  0  0  0
 17 38  1  0  0  0  0
 17 39  1  0  0  0  0
 18 19  1  0  0  0  0
 18 20  1  0  0  0  0
 18 40  1  0  0  0  0
 19 41  1  0  0  0  0
 19 42  1  0  0  0  0
 20 43  1  0  0  0  0
M  END
> <s_m_source_file>
AV-unprocessed.smi

> <i_m_source_file_index>
2706

> <i_lp_mmshare_version>
43012

> <i_f3d_flags>
0

> <s_epik_input>
W0NIM11OKFtDSDNdKWMxW2NIXVtjSF1bY0hdYyhuMSlbTkhdQyg9TylbTkhdW0NASF0yW0NAQEhdM1tDQEBIXShbQ0gyXTQpW0NIMl1bQ0gyXVtDQEBIXTRbQ0BIXTIz

> <s_epik_cmdline>
J2VwaWtfcHl0aG9uJywgJy1waCcsICc3LjAnLCAnLXRuJywgJzgnLCAnLW1hJywgJzIwMCcsICctbWV0YWxfYmluZGluZycsICctaW1hZScsICc8aW5maWxlLm1hZT4nLCAnLW9tYWUnLCAnPG91dGZpbGUubWFlPic=

> <r_lp_tautomer_probability>
1

> <r_epik_Ionization_Penalty>
0.0296788

> <r_epik_Ionization_Penalty_Charging>
0

> <r_epik_Ionization_Penalty_Neutral>
0.0296788

> <r_epik_State_Penalty>
0.0248512

> <r_epik_Charging_Adjusted_Penalty>
0.0248512

> <i_epik_Tot_Q>
0

> <i_epik_Tot_abs_Q>
0

> <r_epik_Metal_State_Penalty>
0.0237882

> <b_epik_Metal_Only>
0

> <s_lp_Force_Field>
OPLS_2005

> <r_lp_Energy>
85.7316

> <b_lp_Chiralities_Consistent>
1

> <s_lp_Variant>
AV-unprocessed.smi:2706-4

> <Gold.Version>
5.8.1

> <Gold.Id.Protein>
6NUR|6NUR_protein|mol2

> <Gold.PLP.Fitness>
41.0029

> <Gold.PLP.PLP>
-37.0037

> <Gold.PLP.part.hbond>
-1.6698

> <Gold.PLP.part.metal>
0.0000

> <Gold.PLP.part.buried>
-3.7052

> <Gold.PLP.part.nonpolar>
-34.9571

> <Gold.PLP.part.repulsive>
3.6017

> <Gold.PLP.ligand.clash>
0.0000

> <Gold.PLP.ligand.torsion>
0.2562

> <Gold.PLP.Chemscore.Hbond>
1.4789

> <Gold.PLP.Chemscore.CHOScore>
0.0000

> <Gold.PLP.Chemscore.Metal>
0.0000

> <Gold.Chemscore.Hbonds>
donor molecule, donor type, donor heavy atom, donor atom, acceptor molecule, acceptor atom, score
      L1  H     9    31       P1  7948  0.75
      L1  H    12    32       P1  7948  0.72

> <Gold.PLP.Chemscore.Internal.Correction>
0.0750

> <Gold.Rescore>
     Score         DG    S(hbond)    S(metal)    S(lipo)     H(rot)  DE(clash)    DE(int)     intcor
     14.53     -17.80       1.79        0.00      75.98       1.00       1.54       1.73       ----

> <Gold.Chemscore.Fitness>
14.5335

> <Gold.Chemscore.DG>
-17.7971

> <Gold.Chemscore.ZeroCoef>
-5.4800

> <Gold.Chemscore.Hbond>
1.7926

> <Gold.Chemscore.Metal>
0.0000

> <Gold.Chemscore.Lipo>
75.9814

> <Gold.Chemscore.Internal_Hbond>
0.0000

> <Gold.Chemscore.DEClash>
1.5360

> <Gold.Chemscore.DEInternal>
1.7275

> <Gold.Chemscore.Rot>
1.0000

> <Gold.Chemscore.Internal.Correction>
   9.000000E+99

> <Gold.Chemscore.Hbonds>
donor molecule, donor type, donor heavy atom, donor atom, acceptor molecule, acceptor atom, score
      L1  H     9    31       P1  7948  0.75
      L1  H    12    32       P1  7948  0.68

> <Gold.Chemscore.Hbond.Weighted>
-5.9873

> <Gold.Chemscore.Metal.Weighted>
-0.0000

> <Gold.Chemscore.Lipo.Weighted>
-8.8898

> <Gold.Chemscore.Internal_Hbond.Weighted>
0.0000

> <Gold.Chemscore.DEClash.Weighted>
1.5360

> <Gold.Chemscore.DEInternal.Weighted>
1.7275

> <Gold.Chemscore.Rot.Weighted>
2.5600

> <Gold.Chemscore.Internal.Correction.Weighted>
   9.000000E+99

> <Gold.Protein.RotatedTorsions>
[ 6907 6896 6895 6894 ] final   38.39 input  -60.11 | X-H torsion
[ 7974 7965 7964 7962 ] final   -3.31 input  175.53 | X-H torsion
[ 8008 7997 7996 7995 ] final  -89.61 input   59.86 | X-H torsion
[ 10167 10162 10161 10158 ] final -141.26 input  -65.29 | X-H torsion
[ 10718 10713 10712 10709 ] final   64.77 input   66.30 | X-H torsion
[ 10763 10752 10751 10750 ] final  -73.26 input  -60.55 | X-H torsion
[ 11005 11000 10999 10996 ] final -138.05 input  -57.11 | X-H torsion

> <Gold.Protein.ActiveResidues>
 VAL166  LYS551  ARG553  GLY616  TRP617  ASP618  TYR619  PRO620  LYS621  CYS622 
 ASP623  PHE694  ASN695  SER759  ASP760  ASP761  ALA762  ILE779  LEU786  VAL792 
 PHE793  MET794  SER795  GLU796  ALA797  LYS798  CYS799  TRP800  GLU811  SER814 

> <Gold.Protein.RotatedAtoms>
  152.1558  134.8952  160.0544 H   0  0  0  0  0  0  0  0  0  0  0  0  # atno 6907 bound_to 6896
  151.9966  133.3805  159.4173 H   0  0  0  0  0  0  0  0  0  0  0  0  # atno 6908 bound_to 6896
  150.6881  134.3801  159.5074 H   0  0  0  0  0  0  0  0  0  0  0  0  # atno 6909 bound_to 6896
  146.2391  140.1701  142.8332 H   0  0  0  0  0  0  0  0  0  0  0  0  # atno 7974 bound_to 7965
  154.6886  140.0540  157.0340 H   0  0  0  0  0  0  0  0  0  0  0  0  # atno 8008 bound_to 7997
  155.0848  140.3213  155.4572 H   0  0  0  0  0  0  0  0  0  0  0  0  # atno 8009 bound_to 7997
  156.2720  140.2058  156.5976 H   0  0  0  0  0  0  0  0  0  0  0  0  # atno 8010 bound_to 7997
  139.8202  143.7584  152.2666 H   0  0  0  0  0  0  0  0  0  0  0  0  # atno 10167 bound_to 10162
  157.6062  130.9178  149.9889 H   0  0  0  0  0  0  0  0  0  0  0  0  # atno 10718 bound_to 10713
  154.4570  135.5903  153.6229 H   0  0  0  0  0  0  0  0  0  0  0  0  # atno 10763 bound_to 10752
  152.9819  135.6034  154.3534 H   0  0  0  0  0  0  0  0  0  0  0  0  # atno 10764 bound_to 10752
  154.3402  135.2842  155.2406 H   0  0  0  0  0  0  0  0  0  0  0  0  # atno 10765 bound_to 10752
  140.8653  134.2118  157.4683 H   0  0  0  0  0  0  0  0  0  0  0  0  # atno 11005 bound_to 11000
  145.0018  140.8638  143.5277 LP  0  0  0  0  0  0  0  0  0  0  0  0  # atno 17320 bound_to 7965
  145.1722  139.2398  143.5336 LP  0  0  0  0  0  0  0  0  0  0  0  0  # atno 17321 bound_to 7965
  139.7760  144.7461  151.0156 LP  0  0  0  0  0  0  0  0  0  0  0  0  # atno 17342 bound_to 10162
  140.7813  143.4593  151.0300 LP  0  0  0  0  0  0  0  0  0  0  0  0  # atno 17343 bound_to 10162
  156.1149  130.3648  149.9986 LP  0  0  0  0  0  0  0  0  0  0  0  0  # atno 17370 bound_to 10713
  156.8077  130.9313  151.3645 LP  0  0  0  0  0  0  0  0  0  0  0  0  # atno 17371 bound_to 10713
  139.8709  134.9749  156.4863 LP  0  0  0  0  0  0  0  0  0  0  0  0  # atno 17394 bound_to 11000
  140.8636  133.8041  155.9290 LP  0  0  0  0  0  0  0  0  0  0  0  0  # atno 17395 bound_to 11000

$$$$
