AV-unprocessed.smi:204|AV-procd|sdf|1598|dock7
  -GOLD-   2262019503D 1   1.00000     0.00000
 Structure written by MMmdl.
 53 56  0  0  0  0  0  0  0  0  1 V2000
  146.8262  144.6132  160.1181 C   0  0  0  0  0  0  0  0  0  0  0  0
  148.2957  144.6442  160.5251 C   0  0  0  0  0  0  0  0  0  0  0  0
  148.6291  144.3211  161.6647 O   0  0  0  0  0  0  0  0  0  0  0  0
  149.1636  145.0360  159.5821 N   0  0  0  0  0  0  0  0  0  0  0  0
  150.6051  145.1344  159.7757 C   0  0  0  0  0  0  0  0  0  0  0  0
  151.2456  143.7479  159.9721 C   0  0  2  0  0  0  0  0  0  0  0  0
  152.7878  143.8099  160.0322 C   0  0  0  0  0  0  0  0  0  0  0  0
  153.3848  142.4017  160.1816 C   0  0  0  0  0  0  0  0  0  0  0  0
  152.8786  141.4688  159.0707 C   0  0  0  0  0  0  0  0  0  0  0  0
  151.4198  141.4636  159.0335 N   0  0  0  0  0  0  0  0  0  0  0  0
  150.9127  140.5077  158.2276 C   0  0  0  0  0  0  0  0  0  0  0  0
  150.9831  139.2274  158.6661 N   0  0  0  0  0  0  0  0  0  0  0  0
  150.4992  138.2367  157.9104 C   0  0  0  0  0  0  0  0  0  0  0  0
  149.9209  138.3084  156.7093 N   0  0  0  0  0  0  0  0  0  0  0  0
  149.8560  139.5958  156.2634 C   0  0  0  0  0  0  0  0  0  0  0  0
  150.3225  140.7490  156.9552 C   0  0  0  0  0  0  0  0  0  0  0  0
  150.0851  141.8877  156.1950 N   0  0  0  0  0  0  0  0  0  0  0  0
  149.5060  141.4338  155.1173 C   0  0  0  0  0  0  0  0  0  0  0  0
  149.3392  140.0676  155.0691 N   0  0  0  0  0  0  0  0  0  0  0  0
  148.7314  139.3074  153.9871 C   0  0  0  0  0  0  0  0  0  0  0  0
  147.2756  139.7092  153.6688 C   0  0  0  0  0  0  0  0  0  0  0  0
  146.6450  138.7366  152.6563 C   0  0  0  0  0  0  0  0  0  0  0  0
  147.3794  138.6983  151.4491 O   0  0  0  0  0  0  0  0  0  0  0  0
  146.3844  140.0247  154.8793 C   0  0  0  0  0  0  0  0  0  0  0  0
  145.9679  141.2852  154.3138 O   0  0  0  0  0  0  0  0  0  0  0  0
  147.0476  141.1955  153.3603 C   0  0  0  0  0  0  0  0  0  0  0  0
  150.8053  142.7771  158.8582 C   0  0  0  0  0  0  0  0  0  0  0  0
  146.4878  145.6109  159.8370 H   0  0  0  0  0  0  0  0  0  0  0  0
  146.2025  144.2604  160.9401 H   0  0  0  0  0  0  0  0  0  0  0  0
  146.6802  143.9456  159.2685 H   0  0  0  0  0  0  0  0  0  0  0  0
  148.8032  145.2835  158.6718 H   0  0  0  0  0  0  0  0  0  0  0  0
  151.0414  145.6253  158.9044 H   0  0  0  0  0  0  0  0  0  0  0  0
  150.8163  145.7697  160.6378 H   0  0  0  0  0  0  0  0  0  0  0  0
  150.8867  143.3451  160.9210 H   0  0  0  0  0  0  0  0  0  0  0  0
  153.1740  144.2746  159.1239 H   0  0  0  0  0  0  0  0  0  0  0  0
  153.1177  144.4320  160.8645 H   0  0  0  0  0  0  0  0  0  0  0  0
  154.4736  142.4516  160.1609 H   0  0  0  0  0  0  0  0  0  0  0  0
  153.1106  141.9912  161.1543 H   0  0  0  0  0  0  0  0  0  0  0  0
  153.2670  141.7968  158.1055 H   0  0  0  0  0  0  0  0  0  0  0  0
  153.2495  140.4566  159.2390 H   0  0  0  0  0  0  0  0  0  0  0  0
  150.5893  137.2444  158.3272 H   0  0  0  0  0  0  0  0  0  0  0  0
  149.1895  142.0873  154.3172 H   0  0  0  0  0  0  0  0  0  0  0  0
  149.3623  139.4220  153.1047 H   0  0  0  0  0  0  0  0  0  0  0  0
  148.7845  138.2491  154.2451 H   0  0  0  0  0  0  0  0  0  0  0  0
  146.5658  137.7275  153.0609 H   0  0  0  0  0  0  0  0  0  0  0  0
  145.6262  139.0429  152.4157 H   0  0  0  0  0  0  0  0  0  0  0  0
  147.9664  139.4392  151.4313 H   0  0  0  0  0  0  0  0  0  0  0  0
  145.5563  139.3283  155.0167 H   0  0  0  0  0  0  0  0  0  0  0  0
  146.9294  140.1697  155.8128 H   0  0  0  0  0  0  0  0  0  0  0  0
  147.8848  141.8388  153.6361 H   0  0  0  0  0  0  0  0  0  0  0  0
  146.7237  141.3955  152.3382 H   0  0  0  0  0  0  0  0  0  0  0  0
  149.7192  142.6733  158.8634 H   0  0  0  0  0  0  0  0  0  0  0  0
  151.0821  143.1850  157.8853 H   0  0  0  0  0  0  0  0  0  0  0  0
  1  2  1  0  0  0  0
  1 28  1  0  0  0  0
  1 29  1  0  0  0  0
  1 30  1  0  0  0  0
  2  3  2  0  0  0  0
  2  4  1  0  0  0  0
  4  5  1  0  0  0  0
  4 31  1  0  0  0  0
  5  6  1  0  0  0  0
  5 32  1  0  0  0  0
  5 33  1  0  0  0  0
  6 27  1  0  0  0  0
  6  7  1  0  0  0  0
  6 34  1  0  0  0  0
  7  8  1  0  0  0  0
  7 35  1  0  0  0  0
  7 36  1  0  0  0  0
  8  9  1  0  0  0  0
  8 37  1  0  0  0  0
  8 38  1  0  0  0  0
  9 10  1  0  0  0  0
  9 39  1  0  0  0  0
  9 40  1  0  0  0  0
 10 11  1  0  0  0  0
 10 27  1  0  0  0  0
 11 16  1  0  0  0  0
 11 12  2  0  0  0  0
 12 13  1  0  0  0  0
 13 14  2  0  0  0  0
 13 41  1  0  0  0  0
 14 15  1  0  0  0  0
 15 19  1  0  0  0  0
 15 16  2  0  0  0  0
 16 17  1  0  0  0  0
 17 18  2  0  0  0  0
 18 19  1  0  0  0  0
 18 42  1  0  0  0  0
 19 20  1  0  0  0  0
 20 21  1  0  0  0  0
 20 43  1  0  0  0  0
 20 44  1  0  0  0  0
 21 26  1  0  0  0  0
 21 22  1  0  0  0  0
 21 24  1  0  0  0  0
 22 23  1  0  0  0  0
 22 45  1  0  0  0  0
 22 46  1  0  0  0  0
 23 47  1  0  0  0  0
 24 25  1  0  0  0  0
 24 48  1  0  0  0  0
 24 49  1  0  0  0  0
 25 26  1  0  0  0  0
 26 50  1  0  0  0  0
 26 51  1  0  0  0  0
 27 52  1  0  0  0  0
 27 53  1  0  0  0  0
M  END
> <s_m_source_file>
AV-unprocessed.smi

> <i_m_source_file_index>
204

> <i_lp_mmshare_version>
43012

> <i_f3d_flags>
0

> <s_epik_input>
W0NIM11DKD1PKVtOSF1bQ0gyXVtDQEBIXTFbQ0gyXVtDSDJdW0NIMl1OKFtDSDJdMSljKG5bY0hdbjIpYyhjMjMpbltjSF1uM1tDSDJdQzQoW0NIMl1bT0hdKVtDSDJdT1tDSDJdNA==

> <s_epik_cmdline>
J2VwaWtfcHl0aG9uJywgJy1waCcsICc3LjAnLCAnLXRuJywgJzgnLCAnLW1hJywgJzIwMCcsICctbWV0YWxfYmluZGluZycsICctaW1hZScsICc8aW5maWxlLm1hZT4nLCAnLW9tYWUnLCAnPG91dGZpbGUubWFlPic=

> <r_lp_tautomer_probability>
1

> <r_epik_Ionization_Penalty>
0.00166599

> <r_epik_Ionization_Penalty_Charging>
0

> <r_epik_Ionization_Penalty_Neutral>
0.00166599

> <r_epik_State_Penalty>
0.000989951

> <r_epik_Charging_Adjusted_Penalty>
0.000989951

> <i_epik_Tot_Q>
0

> <i_epik_Tot_abs_Q>
0

> <r_epik_Metal_State_Penalty>
-0

> <b_epik_Metal_Only>
0

> <s_lp_Force_Field>
OPLS_2005

> <r_lp_Energy>
36.8691

> <b_lp_Chiralities_Consistent>
1

> <s_lp_Variant>
AV-unprocessed.smi:204-1

> <Gold.Version>
5.8.1

> <Gold.Id.Protein>
6NUR|6NUR_protein|mol2

> <Gold.PLP.Fitness>
54.1503

> <Gold.PLP.PLP>
-45.1130

> <Gold.PLP.part.hbond>
-5.0000

> <Gold.PLP.part.metal>
0.0000

> <Gold.PLP.part.buried>
-8.0770

> <Gold.PLP.part.nonpolar>
-33.5567

> <Gold.PLP.part.repulsive>
1.2741

> <Gold.PLP.ligand.clash>
0.0000

> <Gold.PLP.ligand.torsion>
0.7942

> <Gold.PLP.Chemscore.Hbond>
3.3464

> <Gold.PLP.Chemscore.CHOScore>
0.0000

> <Gold.PLP.Chemscore.Metal>
0.0000

> <Gold.Chemscore.Hbonds>
donor molecule, donor type, donor heavy atom, donor atom, acceptor molecule, acceptor atom, score
      L1  H     4    31       P1  8029  1.00
      L1  H    23    47       P1  7957  0.94
      P1  H  6933  6944       L1     3  0.67
      P1  H  7954  7966       L1    23  0.63

> <Gold.PLP.Chemscore.Internal.Correction>
0.5866

> <Gold.Rescore>
     Score         DG    S(hbond)    S(metal)    S(lipo)     H(rot)  DE(clash)    DE(int)     intcor
     12.49     -16.28       2.37        0.00      97.52       3.33       0.60       3.18       ----

> <Gold.Chemscore.Fitness>
12.4938

> <Gold.Chemscore.DG>
-16.2772

> <Gold.Chemscore.ZeroCoef>
-5.4800

> <Gold.Chemscore.Hbond>
2.3660

> <Gold.Chemscore.Metal>
0.0000

> <Gold.Chemscore.Lipo>
97.5193

> <Gold.Chemscore.Internal_Hbond>
0.0000

> <Gold.Chemscore.DEClash>
0.6006

> <Gold.Chemscore.DEInternal>
3.1828

> <Gold.Chemscore.Rot>
3.3261

> <Gold.Chemscore.Internal.Correction>
   9.000000E+99

> <Gold.Chemscore.Hbonds>
donor molecule, donor type, donor heavy atom, donor atom, acceptor molecule, acceptor atom, score
      L1  H     4    31       P1  8029  1.00
      L1  H    23    47       P1  7957  0.87
      P1  H  6933  6944       L1     3  0.15
      P1  H  7954  7966       L1    23  0.05

> <Gold.Chemscore.Hbond.Weighted>
-7.9023

> <Gold.Chemscore.Metal.Weighted>
-0.0000

> <Gold.Chemscore.Lipo.Weighted>
-11.4098

> <Gold.Chemscore.Internal_Hbond.Weighted>
0.0000

> <Gold.Chemscore.DEClash.Weighted>
0.6006

> <Gold.Chemscore.DEInternal.Weighted>
3.1828

> <Gold.Chemscore.Rot.Weighted>
8.5149

> <Gold.Chemscore.Internal.Correction.Weighted>
   9.000000E+99

> <Gold.Protein.RotatedTorsions>
[ 6907 6896 6895 6894 ] final  -43.72 input  -60.11 | X-H torsion
[ 7974 7965 7964 7962 ] final   12.15 input  175.53 | X-H torsion
[ 8008 7997 7996 7995 ] final   56.50 input   59.86 | X-H torsion
[ 10167 10162 10161 10158 ] final   78.50 input  -65.29 | X-H torsion
[ 10718 10713 10712 10709 ] final  -74.05 input   66.30 | X-H torsion
[ 10763 10752 10751 10750 ] final -149.46 input  -60.55 | X-H torsion
[ 11005 11000 10999 10996 ] final   98.00 input  -57.11 | X-H torsion

> <Gold.Protein.ActiveResidues>
 VAL166  LYS551  ARG553  GLY616  TRP617  ASP618  TYR619  PRO620  LYS621  CYS622 
 ASP623  PHE694  ASN695  SER759  ASP760  ASP761  ALA762  ILE779  LEU786  VAL792 
 PHE793  MET794  SER795  GLU796  ALA797  LYS798  CYS799  TRP800  GLU811  SER814 

> <Gold.Protein.RotatedAtoms>
  150.9407  134.8816  159.7610 H   0  0  0  0  0  0  0  0  0  0  0  0  # atno 6907 bound_to 6896
  152.5079  134.3946  159.9405 H   0  0  0  0  0  0  0  0  0  0  0  0  # atno 6908 bound_to 6896
  151.3967  133.3731  159.2762 H   0  0  0  0  0  0  0  0  0  0  0  0  # atno 6909 bound_to 6896
  146.2357  139.9380  142.8487 H   0  0  0  0  0  0  0  0  0  0  0  0  # atno 7974 bound_to 7965
  155.5185  140.3479  155.4402 H   0  0  0  0  0  0  0  0  0  0  0  0  # atno 8008 bound_to 7997
  156.0801  140.1384  156.9750 H   0  0  0  0  0  0  0  0  0  0  0  0  # atno 8009 bound_to 7997
  154.4575  140.0948  156.6775 H   0  0  0  0  0  0  0  0  0  0  0  0  # atno 8010 bound_to 7997
  139.9702  144.5899  150.7992 H   0  0  0  0  0  0  0  0  0  0  0  0  # atno 10167 bound_to 10162
  156.0257  130.4408  150.2834 H   0  0  0  0  0  0  0  0  0  0  0  0  # atno 10718 bound_to 10713
  154.8176  135.3308  154.7133 H   0  0  0  0  0  0  0  0  0  0  0  0  # atno 10763 bound_to 10752
  153.7771  135.6921  153.4900 H   0  0  0  0  0  0  0  0  0  0  0  0  # atno 10764 bound_to 10752
  153.2005  135.4518  155.0209 H   0  0  0  0  0  0  0  0  0  0  0  0  # atno 10765 bound_to 10752
  139.8774  134.9028  156.4391 H   0  0  0  0  0  0  0  0  0  0  0  0  # atno 11005 bound_to 11000
  145.1980  140.9842  143.4172 LP  0  0  0  0  0  0  0  0  0  0  0  0  # atno 17320 bound_to 7965
  144.9798  139.3794  143.6267 LP  0  0  0  0  0  0  0  0  0  0  0  0  # atno 17321 bound_to 7965
  140.7524  143.2990  151.3129 LP  0  0  0  0  0  0  0  0  0  0  0  0  # atno 17342 bound_to 10162
  139.6487  144.0403  152.2610 LP  0  0  0  0  0  0  0  0  0  0  0  0  # atno 17343 bound_to 10162
  157.0938  131.0177  151.3111 LP  0  0  0  0  0  0  0  0  0  0  0  0  # atno 17370 bound_to 10713
  157.4833  130.7778  149.7436 LP  0  0  0  0  0  0  0  0  0  0  0  0  # atno 17371 bound_to 10713
  140.9012  133.7778  155.9682 LP  0  0  0  0  0  0  0  0  0  0  0  0  # atno 17394 bound_to 11000
  140.8649  134.2796  157.5218 LP  0  0  0  0  0  0  0  0  0  0  0  0  # atno 17395 bound_to 11000

$$$$
