AV-unprocessed.smi:280|AV-procd|sdf|2099|dock10
  -GOLD-   2262021383D 1   1.00000     0.00000
 Structure written by MMmdl.
 59 62  0  0  0  0  0  0  0  0  2 V2000
  149.9291  135.6820  156.5823 C   0  0  0  0  0  0  0  0  0  0  0  0
  149.8674  135.8693  155.0500 C   0  0  2  0  0  0  0  0  0  0  0  0
  150.9558  136.8411  154.5459 C   0  0  0  0  0  0  0  0  0  0  0  0
  150.6228  138.2253  154.8840 N   0  0  0  0  0  0  0  0  0  0  0  0
  151.2230  138.7915  155.9669 C   0  0  0  0  0  0  0  0  0  0  0  0
  152.2365  138.0977  156.5485 N   0  0  0  0  0  0  0  0  0  0  0  0
  152.8779  138.5869  157.6123 C   0  0  0  0  0  0  0  0  0  0  0  0
  152.6714  139.7378  158.2513 N   0  0  0  0  0  0  0  0  0  0  0  0
  151.6558  140.4448  157.6797 C   0  0  0  0  0  0  0  0  0  0  0  0
  150.8830  140.0523  156.5475 C   0  0  0  0  0  0  0  0  0  0  0  0
  149.9298  141.0305  156.2822 N   0  0  0  0  0  0  0  0  0  0  0  0
  150.1380  141.9475  157.1859 C   0  0  0  0  0  0  0  0  0  0  0  0
  151.1655  141.6824  158.0602 N   0  0  0  0  0  0  0  0  0  0  0  0
  151.6174  142.5227  159.1585 C   0  0  0  0  0  0  0  0  0  0  0  0
  151.0718  143.9673  159.1371 C   0  0  0  0  0  0  0  0  0  0  0  0
  149.5435  143.9738  159.3283 C   0  0  0  0  0  0  0  0  0  0  0  0
  149.0323  145.2816  159.4960 O   0  0  0  0  0  0  0  0  0  0  0  0
  151.8620  145.0101  159.9435 C   0  0  0  0  0  0  0  0  0  0  0  0
  152.5180  145.5159  158.7625 O   0  0  0  0  0  0  0  0  0  0  0  0
  151.5789  144.7896  157.9425 C   0  0  0  0  0  0  0  0  0  0  0  0
  149.3099  138.6660  154.4249 C   0  0  0  0  0  0  0  0  0  0  0  0
  148.2035  137.7127  154.9141 C   0  0  0  0  0  0  0  0  0  0  0  0
  148.5247  136.3030  154.5606 N   0  3  2  0  0  0  0  0  0  0  0  0
  147.4261  135.3394  154.8452 C   0  0  0  0  0  0  0  0  0  0  0  0
  147.4485  134.0967  153.9218 C   0  0  0  0  0  0  0  0  0  0  0  0
  148.7279  133.2585  154.1005 C   0  0  0  0  0  0  0  0  0  0  0  0
  146.2057  133.2284  154.1801 C   0  0  0  0  0  0  0  0  0  0  0  0
  147.3708  134.5058  152.5714 O   0  0  0  0  0  0  0  0  0  0  0  0
  150.9239  135.3577  156.8887 H   0  0  0  0  0  0  0  0  0  0  0  0
  149.2266  134.9259  156.9313 H   0  0  0  0  0  0  0  0  0  0  0  0
  149.7126  136.6042  157.1208 H   0  0  0  0  0  0  0  0  0  0  0  0
  150.0760  134.8987  154.5978 H   0  0  0  0  0  0  0  0  0  0  0  0
  151.9316  136.5368  154.9246 H   0  0  0  0  0  0  0  0  0  0  0  0
  151.0254  136.7746  153.4596 H   0  0  0  0  0  0  0  0  0  0  0  0
  153.6707  137.9683  158.0067 H   0  0  0  0  0  0  0  0  0  0  0  0
  149.5411  142.8460  157.2387 H   0  0  0  0  0  0  0  0  0  0  0  0
  151.3339  142.0264  160.0877 H   0  0  0  0  0  0  0  0  0  0  0  0
  152.7081  142.5312  159.1561 H   0  0  0  0  0  0  0  0  0  0  0  0
  149.0424  143.5441  158.4607 H   0  0  0  0  0  0  0  0  0  0  0  0
  149.2497  143.3641  160.1832 H   0  0  0  0  0  0  0  0  0  0  0  0
  148.5497  145.5170  158.7182 H   0  0  0  0  0  0  0  0  0  0  0  0
  151.2383  145.7718  160.4144 H   0  0  0  0  0  0  0  0  0  0  0  0
  152.5655  144.5897  160.6609 H   0  0  0  0  0  0  0  0  0  0  0  0
  152.0702  144.1966  157.1699 H   0  0  0  0  0  0  0  0  0  0  0  0
  150.8331  145.4531  157.5018 H   0  0  0  0  0  0  0  0  0  0  0  0
  149.1045  139.6969  154.7105 H   0  0  0  0  0  0  0  0  0  0  0  0
  149.3256  138.6650  153.3344 H   0  0  0  0  0  0  0  0  0  0  0  0
  148.0702  137.7969  155.9922 H   0  0  0  0  0  0  0  0  0  0  0  0
  147.2579  138.0131  154.4662 H   0  0  0  0  0  0  0  0  0  0  0  0
  147.5212  134.9780  155.8699 H   0  0  0  0  0  0  0  0  0  0  0  0
  146.4612  135.8474  154.8000 H   0  0  0  0  0  0  0  0  0  0  0  0
  148.8385  132.9253  155.1329 H   0  0  0  0  0  0  0  0  0  0  0  0
  149.6236  133.8219  153.8376 H   0  0  0  0  0  0  0  0  0  0  0  0
  148.7098  132.3689  153.4698 H   0  0  0  0  0  0  0  0  0  0  0  0
  146.1893  132.8581  155.2059 H   0  0  0  0  0  0  0  0  0  0  0  0
  146.1792  132.3610  153.5190 H   0  0  0  0  0  0  0  0  0  0  0  0
  145.2853  133.7914  154.0195 H   0  0  0  0  0  0  0  0  0  0  0  0
  147.8260  135.3294  152.4785 H   0  0  0  0  0  0  0  0  0  0  0  0
  148.6120  136.2986  153.5543 H   0  0  0  0  0  0  0  0  0  0  0  0
  1  2  1  0  0  0  0
  1 29  1  0  0  0  0
  1 30  1  0  0  0  0
  1 31  1  0  0  0  0
  2 23  1  0  0  0  0
  2  3  1  0  0  0  0
  2 32  1  0  0  0  0
  3  4  1  0  0  0  0
  3 33  1  0  0  0  0
  3 34  1  0  0  0  0
  4  5  1  0  0  0  0
  4 21  1  0  0  0  0
  5 10  1  0  0  0  0
  5  6  2  0  0  0  0
  6  7  1  0  0  0  0
  7  8  2  0  0  0  0
  7 35  1  0  0  0  0
  8  9  1  0  0  0  0
  9 13  1  0  0  0  0
  9 10  2  0  0  0  0
 10 11  1  0  0  0  0
 11 12  2  0  0  0  0
 12 13  1  0  0  0  0
 12 36  1  0  0  0  0
 13 14  1  0  0  0  0
 14 15  1  0  0  0  0
 14 37  1  0  0  0  0
 14 38  1  0  0  0  0
 15 20  1  0  0  0  0
 15 16  1  0  0  0  0
 15 18  1  0  0  0  0
 16 17  1  0  0  0  0
 16 39  1  0  0  0  0
 16 40  1  0  0  0  0
 17 41  1  0  0  0  0
 18 19  1  0  0  0  0
 18 42  1  0  0  0  0
 18 43  1  0  0  0  0
 19 20  1  0  0  0  0
 20 44  1  0  0  0  0
 20 45  1  0  0  0  0
 21 22  1  0  0  0  0
 21 46  1  0  0  0  0
 21 47  1  0  0  0  0
 22 23  1  0  0  0  0
 22 48  1  0  0  0  0
 22 49  1  0  0  0  0
 23 24  1  0  0  0  0
 23 59  1  0  0  0  0
 24 25  1  0  0  0  0
 24 50  1  0  0  0  0
 24 51  1  0  0  0  0
 25 26  1  0  0  0  0
 25 27  1  0  0  0  0
 25 28  1  0  0  0  0
 26 52  1  0  0  0  0
 26 53  1  0  0  0  0
 26 54  1  0  0  0  0
 27 55  1  0  0  0  0
 27 56  1  0  0  0  0
 27 57  1  0  0  0  0
 28 58  1  0  0  0  0
M  CHG  1  23   1
M  END
> <s_m_source_file>
AV-unprocessed.smi

> <i_m_source_file_index>
280

> <i_lp_mmshare_version>
43012

> <i_f3d_flags>
0

> <s_epik_input>
W0NIM11DKFtDSDNdKShbT0hdKVtDSDJdTjFbQ0gyXVtDSDJdTihbQ0gyXVtDQEhdMVtDSDNdKWMobltjSF1uMiljKGMyMyluW2NIXW4zW0NIMl1DNChbQ0gyXVtPSF0pW0NIMl1PW0NIMl00

> <s_epik_cmdline>
J2VwaWtfcHl0aG9uJywgJy1waCcsICc3LjAnLCAnLXRuJywgJzgnLCAnLW1hJywgJzIwMCcsICctbWV0YWxfYmluZGluZycsICctaW1hZScsICc8aW5maWxlLm1hZT4nLCAnLW9tYWUnLCAnPG91dGZpbGUubWFlPic=

> <r_lp_tautomer_probability>
1

> <r_epik_Ionization_Penalty>
0.00179402

> <r_epik_Ionization_Penalty_Charging>
0.00173996

> <r_epik_Ionization_Penalty_Neutral>
5.40607e-05

> <r_epik_State_Penalty>
-0

> <r_epik_Charging_Adjusted_Penalty>
0.00173996

> <i_epik_Tot_Q>
1

> <i_epik_Tot_abs_Q>
1

> <r_epik_Metal_State_Penalty>
-0

> <b_epik_Metal_Only>
0

> <s_lp_Force_Field>
OPLS_2005

> <r_lp_Energy>
53.0384

> <b_lp_Chiralities_Consistent>
1

> <s_lp_Variant>
AV-unprocessed.smi:280-3

> <Gold.Version>
5.8.1

> <Gold.Id.Protein>
6NUR|6NUR_protein|mol2

> <Gold.PLP.Fitness>
52.3161

> <Gold.PLP.PLP>
-37.8139

> <Gold.PLP.part.hbond>
-3.7848

> <Gold.PLP.part.metal>
0.0000

> <Gold.PLP.part.buried>
-0.1750

> <Gold.PLP.part.nonpolar>
-33.4783

> <Gold.PLP.part.repulsive>
0.1012

> <Gold.PLP.ligand.clash>
0.0000

> <Gold.PLP.ligand.torsion>
0.7320

> <Gold.PLP.Chemscore.Hbond>
4.0000

> <Gold.PLP.Chemscore.CHOScore>
0.9968

> <Gold.PLP.Chemscore.Metal>
0.0000

> <Gold.Chemscore.Hbonds>
donor molecule, donor type, donor heavy atom, donor atom, acceptor molecule, acceptor atom, score
      L1  H    17    41       P1  8029  1.00
      L1  H    23    59       P1  7948  2.00
      L1  H    28    58       P1  7948  1.00
      L1  C    12    36       P1  8028  1.00

> <Gold.PLP.Chemscore.Internal.Correction>
0.9758

> <Gold.Rescore>
     Score         DG    S(hbond)    S(metal)    S(lipo)     H(rot)  DE(clash)    DE(int)     intcor
     15.02     -17.73       2.92        0.00      93.52       3.30       1.15       1.57       ----

> <Gold.Chemscore.Fitness>
15.0219

> <Gold.Chemscore.DG>
-17.7337

> <Gold.Chemscore.ZeroCoef>
-5.4800

> <Gold.Chemscore.Hbond>
2.9214

> <Gold.Chemscore.Metal>
0.0000

> <Gold.Chemscore.Lipo>
93.5191

> <Gold.Chemscore.Internal_Hbond>
0.0000

> <Gold.Chemscore.DEClash>
1.1454

> <Gold.Chemscore.DEInternal>
1.5664

> <Gold.Chemscore.Rot>
3.2991

> <Gold.Chemscore.Internal.Correction>
   9.000000E+99

> <Gold.Chemscore.Hbonds>
donor molecule, donor type, donor heavy atom, donor atom, acceptor molecule, acceptor atom, score
      L1  H    17    41       P1  8029  1.00
      L1  H    23    59       P1  7948  1.00
      L1  H    28    58       P1  7948  0.89

> <Gold.Chemscore.Hbond.Weighted>
-9.7575

> <Gold.Chemscore.Metal.Weighted>
-0.0000

> <Gold.Chemscore.Lipo.Weighted>
-10.9417

> <Gold.Chemscore.Internal_Hbond.Weighted>
0.0000

> <Gold.Chemscore.DEClash.Weighted>
1.1454

> <Gold.Chemscore.DEInternal.Weighted>
1.5664

> <Gold.Chemscore.Rot.Weighted>
8.4456

> <Gold.Chemscore.Internal.Correction.Weighted>
   9.000000E+99

> <Gold.Protein.RotatedTorsions>
[ 6907 6896 6895 6894 ] final   60.29 input  -60.11 | X-H torsion
[ 7974 7965 7964 7962 ] final   82.08 input  175.53 | X-H torsion
[ 8008 7997 7996 7995 ] final  157.98 input   59.86 | X-H torsion
[ 10167 10162 10161 10158 ] final   10.44 input  -65.29 | X-H torsion
[ 10718 10713 10712 10709 ] final -154.64 input   66.30 | X-H torsion
[ 10763 10752 10751 10750 ] final -144.45 input  -60.55 | X-H torsion
[ 11005 11000 10999 10996 ] final -151.76 input  -57.11 | X-H torsion

> <Gold.Protein.ActiveResidues>
 VAL166  LYS551  ARG553  GLY616  TRP617  ASP618  TYR619  PRO620  LYS621  CYS622 
 ASP623  PHE694  ASN695  SER759  ASP760  ASP761  ALA762  ILE779  LEU786  VAL792 
 PHE793  MET794  SER795  GLU796  ALA797  LYS798  CYS799  TRP800  GLU811  SER814 

> <Gold.Protein.RotatedAtoms>
  152.3989  134.6318  160.0077 H   0  0  0  0  0  0  0  0  0  0  0  0  # atno 6907 bound_to 6896
  151.6529  133.3314  159.3164 H   0  0  0  0  0  0  0  0  0  0  0  0  # atno 6908 bound_to 6896
  150.7893  134.6946  159.6561 H   0  0  0  0  0  0  0  0  0  0  0  0  # atno 6909 bound_to 6896
  145.6297  139.2402  143.2091 H   0  0  0  0  0  0  0  0  0  0  0  0  # atno 7974 bound_to 7965
  156.2331  140.1870  156.7191 H   0  0  0  0  0  0  0  0  0  0  0  0  # atno 8008 bound_to 7997
  154.6057  140.0629  156.9456 H   0  0  0  0  0  0  0  0  0  0  0  0  # atno 8009 bound_to 7997
  155.2099  140.3299  155.4333 H   0  0  0  0  0  0  0  0  0  0  0  0  # atno 8010 bound_to 7997
  140.6194  143.8238  150.7156 H   0  0  0  0  0  0  0  0  0  0  0  0  # atno 10167 bound_to 10162
  156.5021  130.8396  151.2613 H   0  0  0  0  0  0  0  0  0  0  0  0  # atno 10718 bound_to 10713
  154.8427  135.3440  154.6348 H   0  0  0  0  0  0  0  0  0  0  0  0  # atno 10763 bound_to 10752
  153.6958  135.6972  153.5081 H   0  0  0  0  0  0  0  0  0  0  0  0  # atno 10764 bound_to 10752
  153.2560  135.4338  155.0801 H   0  0  0  0  0  0  0  0  0  0  0  0  # atno 10765 bound_to 10752
  140.7261  134.3673  157.5175 H   0  0  0  0  0  0  0  0  0  0  0  0  # atno 11005 bound_to 11000
  146.1366  140.7114  142.9387 LP  0  0  0  0  0  0  0  0  0  0  0  0  # atno 17320 bound_to 7965
  144.7198  140.4335  143.7016 LP  0  0  0  0  0  0  0  0  0  0  0  0  # atno 17321 bound_to 7965
  140.1825  143.4103  152.1923 LP  0  0  0  0  0  0  0  0  0  0  0  0  # atno 17342 bound_to 10162
  139.5425  144.7270  151.4687 LP  0  0  0  0  0  0  0  0  0  0  0  0  # atno 17343 bound_to 10162
  157.7461  130.9978  150.2830 LP  0  0  0  0  0  0  0  0  0  0  0  0  # atno 17370 bound_to 10713
  156.3323  130.3802  149.7480 LP  0  0  0  0  0  0  0  0  0  0  0  0  # atno 17371 bound_to 10713
  139.8837  134.8987  156.2751 LP  0  0  0  0  0  0  0  0  0  0  0  0  # atno 17394 bound_to 11000
  140.9962  133.7179  156.0889 LP  0  0  0  0  0  0  0  0  0  0  0  0  # atno 17395 bound_to 11000

$$$$
