AV-unprocessed.smi:1245|AV-procd|sdf|5240|dock4
  -GOLD-   22720 4353D 1   1.00000     0.00000
 Structure written by MMmdl.
 44 45  0  0  0  0  0  0  0  0  2 V2000
  151.0025  134.7570  156.0720 O   0  0  0  0  0  0  0  0  0  0  0  0
  150.4825  135.4167  155.1714 C   0  0  0  0  0  0  0  0  0  0  0  0
  150.9170  136.8604  154.9028 C   0  0  0  0  0  0  0  0  0  0  0  0
  150.6886  137.7970  156.1029 C   0  0  0  0  0  0  0  0  0  0  0  0
  151.4631  139.4594  155.8381 S   0  0  0  0  0  0  0  0  0  0  0  0
  152.9187  139.2642  155.7567 O   0  0  0  0  0  0  0  0  0  0  0  0
  150.7525  140.1423  154.7457 O   0  0  0  0  0  0  0  0  0  0  0  0
  151.1048  140.3677  157.4156 C   0  0  0  0  0  0  0  0  0  0  0  0
  150.2949  141.6595  157.1936 C   0  0  0  0  0  0  0  0  0  0  0  0
  151.1585  142.8044  157.7341 C   0  0  0  0  0  0  0  0  0  0  0  0
  152.0820  142.1486  158.7591 C   0  0  0  0  0  0  0  0  0  0  0  0
  152.3818  140.7701  158.1712 C   0  0  0  0  0  0  0  0  0  0  0  0
  149.5176  134.9350  154.3731 N   0  0  0  0  0  0  0  0  0  0  0  0
  148.9606  133.5891  154.4466 C   0  0  0  0  0  0  0  0  0  0  0  0
  148.9060  132.9181  153.0635 C   0  0  0  0  0  0  0  0  0  0  0  0
  147.5095  132.9312  152.4726 C   0  0  0  0  0  0  0  0  0  0  0  0
  146.7508  131.7513  152.3110 C   0  0  0  0  0  0  0  0  0  0  0  0
  145.4593  131.8342  151.7492 C   0  0  0  0  0  0  0  0  0  0  0  0
  144.9550  133.0926  151.3605 C   0  0  0  0  0  0  0  0  0  0  0  0
  145.7563  134.2381  151.5423 C   0  0  0  0  0  0  0  0  0  0  0  0
  146.9887  134.1177  152.0835 N   0  3  0  0  0  0  0  0  0  0  0  0
  151.9730  136.8578  154.6302 H   0  0  0  0  0  0  0  0  0  0  0  0
  150.3691  137.2321  154.0363 H   0  0  0  0  0  0  0  0  0  0  0  0
  149.6262  137.9237  156.3014 H   0  0  0  0  0  0  0  0  0  0  0  0
  151.1314  137.3714  157.0040 H   0  0  0  0  0  0  0  0  0  0  0  0
  150.5187  139.6924  158.0401 H   0  0  0  0  0  0  0  0  0  0  0  0
  150.0250  141.8206  156.1494 H   0  0  0  0  0  0  0  0  0  0  0  0
  149.3630  141.6036  157.7575 H   0  0  0  0  0  0  0  0  0  0  0  0
  151.7536  143.2344  156.9281 H   0  0  0  0  0  0  0  0  0  0  0  0
  150.5617  143.6088  158.1647 H   0  0  0  0  0  0  0  0  0  0  0  0
  152.9848  142.7313  158.9442 H   0  0  0  0  0  0  0  0  0  0  0  0
  151.5566  142.0369  159.7086 H   0  0  0  0  0  0  0  0  0  0  0  0
  152.6574  140.0436  158.9362 H   0  0  0  0  0  0  0  0  0  0  0  0
  153.2254  140.8539  157.4878 H   0  0  0  0  0  0  0  0  0  0  0  0
  149.1499  135.5435  153.6557 H   0  0  0  0  0  0  0  0  0  0  0  0
  149.5869  133.0044  155.1208 H   0  0  0  0  0  0  0  0  0  0  0  0
  147.9665  133.6207  154.8961 H   0  0  0  0  0  0  0  0  0  0  0  0
  149.5853  133.4183  152.3721 H   0  0  0  0  0  0  0  0  0  0  0  0
  149.2487  131.8848  153.1363 H   0  0  0  0  0  0  0  0  0  0  0  0
  147.1513  130.7939  152.6115 H   0  0  0  0  0  0  0  0  0  0  0  0
  144.8633  130.9429  151.6177 H   0  0  0  0  0  0  0  0  0  0  0  0
  143.9685  133.1771  150.9284 H   0  0  0  0  0  0  0  0  0  0  0  0
  145.4516  135.2391  151.2736 H   0  0  0  0  0  0  0  0  0  0  0  0
  147.5509  134.9603  152.2059 H   0  0  0  0  0  0  0  0  0  0  0  0
  1  2  2  0  0  0  0
  2  3  1  0  0  0  0
  2 13  1  0  0  0  0
  3  4  1  0  0  0  0
  3 22  1  0  0  0  0
  3 23  1  0  0  0  0
  4  5  1  0  0  0  0
  4 24  1  0  0  0  0
  4 25  1  0  0  0  0
  5  6  2  0  0  0  0
  5  7  2  0  0  0  0
  5  8  1  0  0  0  0
  8 12  1  0  0  0  0
  8  9  1  0  0  0  0
  8 26  1  0  0  0  0
  9 10  1  0  0  0  0
  9 27  1  0  0  0  0
  9 28  1  0  0  0  0
 10 11  1  0  0  0  0
 10 29  1  0  0  0  0
 10 30  1  0  0  0  0
 11 12  1  0  0  0  0
 11 31  1  0  0  0  0
 11 32  1  0  0  0  0
 12 33  1  0  0  0  0
 12 34  1  0  0  0  0
 13 14  1  0  0  0  0
 13 35  1  0  0  0  0
 14 15  1  0  0  0  0
 14 36  1  0  0  0  0
 14 37  1  0  0  0  0
 15 16  1  0  0  0  0
 15 38  1  0  0  0  0
 15 39  1  0  0  0  0
 16 21  1  0  0  0  0
 16 17  2  0  0  0  0
 17 18  1  0  0  0  0
 17 40  1  0  0  0  0
 18 19  2  0  0  0  0
 18 41  1  0  0  0  0
 19 20  1  0  0  0  0
 19 42  1  0  0  0  0
 20 21  2  0  0  0  0
 20 43  1  0  0  0  0
 21 44  1  0  0  0  0
M  CHG  1  21   1
M  END
> <s_m_source_file>
AV-unprocessed.smi

> <i_m_source_file_index>
1245

> <i_lp_mmshare_version>
43012

> <i_f3d_flags>
0

> <s_epik_input>
W0NIMl0xW0NIMl1bQ0gyXVtDSDJdW0NIXTFTKD1PKSg9TylbQ0gyXVtDSDJdQyg9TylbTkhdW0NIMl1bQ0gyXWMyW2NIXVtjSF1bY0hdW2NIXW4y

> <s_epik_cmdline>
J2VwaWtfcHl0aG9uJywgJy1waCcsICc3LjAnLCAnLXRuJywgJzgnLCAnLW1hJywgJzIwMCcsICctbWV0YWxfYmluZGluZycsICctaW1hZScsICc8aW5maWxlLm1hZT4nLCAnLW9tYWUnLCAnPG91dGZpbGUubWFlPic=

> <r_epik_Ionization_Penalty>
1.90383

> <r_epik_Ionization_Penalty_Charging>
1.90383

> <r_epik_Ionization_Penalty_Neutral>
6.52612e-08

> <r_epik_State_Penalty>
2.02532

> <r_epik_Charging_Adjusted_Penalty>
3.92915

> <i_epik_Tot_Q>
1

> <i_epik_Tot_abs_Q>
1

> <r_epik_Metal_State_Penalty>
2.0489

> <b_epik_Metal_Only>
0

> <s_lp_Force_Field>
OPLS_2005

> <r_lp_Energy>
22.4311

> <b_lp_Chiralities_Consistent>
1

> <s_lp_Variant>
AV-unprocessed.smi:1245-2

> <Gold.Version>
5.8.1

> <Gold.Id.Protein>
6NUR|6NUR_protein|mol2

> <Gold.PLP.Fitness>
53.2515

> <Gold.PLP.PLP>
-38.9984

> <Gold.PLP.part.hbond>
-3.9715

> <Gold.PLP.part.metal>
0.0000

> <Gold.PLP.part.buried>
-5.3542

> <Gold.PLP.part.nonpolar>
-29.2006

> <Gold.PLP.part.repulsive>
0.1571

> <Gold.PLP.ligand.clash>
0.0000

> <Gold.PLP.ligand.torsion>
0.5559

> <Gold.PLP.Chemscore.Hbond>
5.0000

> <Gold.PLP.Chemscore.CHOScore>
0.0000

> <Gold.PLP.Chemscore.Metal>
0.0000

> <Gold.Chemscore.Hbonds>
donor molecule, donor type, donor heavy atom, donor atom, acceptor molecule, acceptor atom, score
      L1  H    13    35       P1  7948  1.00
      L1  H    21    44       P1  7948  2.00
      P1  H  7989  7998       L1     7  1.00
      P1  H  7997  8009       L1     6  1.00

> <Gold.PLP.Chemscore.Internal.Correction>
0.3648

> <Gold.Rescore>
     Score         DG    S(hbond)    S(metal)    S(lipo)     H(rot)  DE(clash)    DE(int)     intcor
     22.25     -23.13       3.80        0.00      89.23       2.14       0.18       0.69       ----

> <Gold.Chemscore.Fitness>
22.2518

> <Gold.Chemscore.DG>
-23.1288

> <Gold.Chemscore.ZeroCoef>
-5.4800

> <Gold.Chemscore.Hbond>
3.7991

> <Gold.Chemscore.Metal>
0.0000

> <Gold.Chemscore.Lipo>
89.2333

> <Gold.Chemscore.Internal_Hbond>
0.0000

> <Gold.Chemscore.DEClash>
0.1830

> <Gold.Chemscore.DEInternal>
0.6940

> <Gold.Chemscore.Rot>
2.1408

> <Gold.Chemscore.Internal.Correction>
   9.000000E+99

> <Gold.Chemscore.Hbonds>
donor molecule, donor type, donor heavy atom, donor atom, acceptor molecule, acceptor atom, score
      L1  H    13    35       P1  7948  0.64
      L1  H    21    44       P1  7948  0.91
      P1  H  7989  7998       L1     7  0.98
      P1  H  7997  8009       L1     6  1.00

> <Gold.Chemscore.Hbond.Weighted>
-12.6890

> <Gold.Chemscore.Metal.Weighted>
-0.0000

> <Gold.Chemscore.Lipo.Weighted>
-10.4403

> <Gold.Chemscore.Internal_Hbond.Weighted>
0.0000

> <Gold.Chemscore.DEClash.Weighted>
0.1830

> <Gold.Chemscore.DEInternal.Weighted>
0.6940

> <Gold.Chemscore.Rot.Weighted>
5.4805

> <Gold.Chemscore.Internal.Correction.Weighted>
   9.000000E+99

> <Gold.Protein.RotatedTorsions>
[ 6907 6896 6895 6894 ] final  166.13 input  -60.11 | X-H torsion
[ 7974 7965 7964 7962 ] final -173.59 input  175.53 | X-H torsion
[ 8008 7997 7996 7995 ] final -152.59 input   59.86 | X-H torsion
[ 10167 10162 10161 10158 ] final -117.14 input  -65.29 | X-H torsion
[ 10718 10713 10712 10709 ] final  126.07 input   66.30 | X-H torsion
[ 10763 10752 10751 10750 ] final    4.33 input  -60.55 | X-H torsion
[ 11005 11000 10999 10996 ] final  147.59 input  -57.11 | X-H torsion

> <Gold.Protein.ActiveResidues>
 VAL166  LYS551  ARG553  GLY616  TRP617  ASP618  TYR619  PRO620  LYS621  CYS622 
 ASP623  PHE694  ASN695  SER759  ASP760  ASP761  ALA762  ILE779  LEU786  VAL792 
 PHE793  MET794  SER795  GLU796  ALA797  LYS798  CYS799  TRP800  GLU811  SER814 

> <Gold.Protein.RotatedAtoms>
  151.8836  133.3500  159.3774 H   0  0  0  0  0  0  0  0  0  0  0  0  # atno 6907 bound_to 6896
  150.7121  134.4994  159.5563 H   0  0  0  0  0  0  0  0  0  0  0  0  # atno 6908 bound_to 6896
  152.2550  134.8093  160.0491 H   0  0  0  0  0  0  0  0  0  0  0  0  # atno 6909 bound_to 6896
  144.7137  140.1599  143.6377 H   0  0  0  0  0  0  0  0  0  0  0  0  # atno 7974 bound_to 7965
  155.6576  140.0719  157.2565 H   0  0  0  0  0  0  0  0  0  0  0  0  # atno 8008 bound_to 7997
  154.4149  140.1722  156.1792 H   0  0  0  0  0  0  0  0  0  0  0  0  # atno 8009 bound_to 7997
  155.9724  140.3361  155.6591 H   0  0  0  0  0  0  0  0  0  0  0  0  # atno 8010 bound_to 7997
  140.0716  143.4872  152.1976 H   0  0  0  0  0  0  0  0  0  0  0  0  # atno 10167 bound_to 10162
  157.5450  131.1096  150.8797 H   0  0  0  0  0  0  0  0  0  0  0  0  # atno 10718 bound_to 10713
  153.2725  135.6933  153.7466 H   0  0  0  0  0  0  0  0  0  0  0  0  # atno 10763 bound_to 10752
  153.6484  135.3381  155.3093 H   0  0  0  0  0  0  0  0  0  0  0  0  # atno 10764 bound_to 10752
  154.8468  135.4448  154.1752 H   0  0  0  0  0  0  0  0  0  0  0  0  # atno 10765 bound_to 10752
  140.0888  134.9053  157.1618 H   0  0  0  0  0  0  0  0  0  0  0  0  # atno 11005 bound_to 11000
  145.9040  139.2447  143.1477 LP  0  0  0  0  0  0  0  0  0  0  0  0  # atno 17320 bound_to 7965
  145.9782  140.8704  143.0128 LP  0  0  0  0  0  0  0  0  0  0  0  0  # atno 17321 bound_to 7965
  139.5833  144.7520  151.3585 LP  0  0  0  0  0  0  0  0  0  0  0  0  # atno 17342 bound_to 10162
  140.7123  143.7359  150.7589 LP  0  0  0  0  0  0  0  0  0  0  0  0  # atno 17343 bound_to 10162
  156.9338  130.5359  149.5279 LP  0  0  0  0  0  0  0  0  0  0  0  0  # atno 17370 bound_to 10713
  156.0528  130.5595  150.9026 LP  0  0  0  0  0  0  0  0  0  0  0  0  # atno 17371 bound_to 10713
  140.3382  134.2734  155.7216 LP  0  0  0  0  0  0  0  0  0  0  0  0  # atno 17394 bound_to 11000
  141.2071  133.7814  157.0137 LP  0  0  0  0  0  0  0  0  0  0  0  0  # atno 17395 bound_to 11000

$$$$
