AV-unprocessed.smi:656|AV-procd|sdf|3219|dock4
  -GOLD-   22720 0153D 1   1.00000     0.00000
 Structure written by MMmdl.
 41 42  0  0  0  0  0  0  0  0  2 V2000
  147.7944  140.3855  152.4794 C   0  0  0  0  0  0  0  0  0  0  0  0
  147.1335  139.0910  151.9934 C   0  0  0  0  0  0  0  0  0  0  0  0
  146.6811  138.1937  153.1586 C   0  0  0  0  0  0  0  0  0  0  0  0
  147.8068  137.4483  153.7778 N   0  3  2  0  0  0  0  0  0  0  0  0
  147.3306  136.3467  154.6543 C   0  0  0  0  0  0  0  0  0  0  0  0
  148.5031  135.5014  155.1857 C   0  0  0  0  0  0  0  0  0  0  0  0
  149.5494  136.3604  155.9160 C   0  0  2  0  0  0  0  0  0  0  0  0
  149.0222  136.8298  157.1974 N   0  0  0  0  0  0  0  0  0  0  0  0
  148.8274  136.0661  158.2827 C   0  0  0  0  0  0  0  0  0  0  0  0
  149.0876  134.8634  158.3204 O   0  0  0  0  0  0  0  0  0  0  0  0
  148.3194  136.7848  159.2988 N   0  0  0  0  0  0  0  0  0  0  0  0
  148.0080  136.3434  160.6118 C   0  0  0  0  0  0  0  0  0  0  0  0
  147.7027  134.9708  160.7314 C   0  0  0  0  0  0  0  0  0  0  0  0
  147.3793  134.4682  162.0033 C   0  0  0  0  0  0  0  0  0  0  0  0
  147.3830  135.3779  163.0745 C   0  0  0  0  0  0  0  0  0  0  0  0
  147.6823  136.6852  162.9140 N   0  0  0  0  0  0  0  0  0  0  0  0
  147.9891  137.1564  161.7004 N   0  0  0  0  0  0  0  0  0  0  0  0
  149.9804  137.5270  155.0053 C   0  0  0  0  0  0  0  0  0  0  0  0
  148.7748  138.3288  154.4848 C   0  0  0  0  0  0  0  0  0  0  0  0
  148.1075  141.0017  151.6362 H   0  0  0  0  0  0  0  0  0  0  0  0
  148.6776  140.1744  153.0831 H   0  0  0  0  0  0  0  0  0  0  0  0
  147.1073  140.9768  153.0855 H   0  0  0  0  0  0  0  0  0  0  0  0
  146.2750  139.3409  151.3688 H   0  0  0  0  0  0  0  0  0  0  0  0
  147.8395  138.5634  151.3529 H   0  0  0  0  0  0  0  0  0  0  0  0
  146.1588  138.7774  153.9184 H   0  0  0  0  0  0  0  0  0  0  0  0
  145.9549  137.4796  152.7673 H   0  0  0  0  0  0  0  0  0  0  0  0
  146.7551  136.7630  155.4827 H   0  0  0  0  0  0  0  0  0  0  0  0
  146.6535  135.6992  154.0958 H   0  0  0  0  0  0  0  0  0  0  0  0
  148.1311  134.7158  155.8447 H   0  0  0  0  0  0  0  0  0  0  0  0
  148.9814  134.9916  154.3483 H   0  0  0  0  0  0  0  0  0  0  0  0
  150.4189  135.7334  156.1225 H   0  0  0  0  0  0  0  0  0  0  0  0
  148.7724  137.8060  157.2572 H   0  0  0  0  0  0  0  0  0  0  0  0
  148.1414  137.7612  159.1166 H   0  0  0  0  0  0  0  0  0  0  0  0
  147.7147  134.3161  159.8721 H   0  0  0  0  0  0  0  0  0  0  0  0
  147.1376  133.4262  162.1518 H   0  0  0  0  0  0  0  0  0  0  0  0
  147.1420  135.0536  164.0760 H   0  0  0  0  0  0  0  0  0  0  0  0
  150.6727  138.1895  155.5261 H   0  0  0  0  0  0  0  0  0  0  0  0
  150.5344  137.1278  154.1547 H   0  0  0  0  0  0  0  0  0  0  0  0
  149.1400  139.1064  153.8152 H   0  0  0  0  0  0  0  0  0  0  0  0
  148.2740  138.8370  155.3104 H   0  0  0  0  0  0  0  0  0  0  0  0
  148.3081  137.0071  153.0200 H   0  0  0  0  0  0  0  0  0  0  0  0
  1  2  1  0  0  0  0
  1 20  1  0  0  0  0
  1 21  1  0  0  0  0
  1 22  1  0  0  0  0
  2  3  1  0  0  0  0
  2 23  1  0  0  0  0
  2 24  1  0  0  0  0
  3  4  1  0  0  0  0
  3 25  1  0  0  0  0
  3 26  1  0  0  0  0
  4 19  1  0  0  0  0
  4  5  1  0  0  0  0
  4 41  1  0  0  0  0
  5  6  1  0  0  0  0
  5 27  1  0  0  0  0
  5 28  1  0  0  0  0
  6  7  1  0  0  0  0
  6 29  1  0  0  0  0
  6 30  1  0  0  0  0
  7  8  1  0  0  0  0
  7 18  1  0  0  0  0
  7 31  1  0  0  0  0
  8  9  1  0  0  0  0
  8 32  1  0  0  0  0
  9 10  2  0  0  0  0
  9 11  1  0  0  0  0
 11 12  1  0  0  0  0
 11 33  1  0  0  0  0
 12 17  1  0  0  0  0
 12 13  2  0  0  0  0
 13 14  1  0  0  0  0
 13 34  1  0  0  0  0
 14 15  2  0  0  0  0
 14 35  1  0  0  0  0
 15 16  1  0  0  0  0
 15 36  1  0  0  0  0
 16 17  2  0  0  0  0
 18 19  1  0  0  0  0
 18 37  1  0  0  0  0
 18 38  1  0  0  0  0
 19 39  1  0  0  0  0
 19 40  1  0  0  0  0
M  CHG  1   4   1
M  END
> <s_m_source_file>
AV-unprocessed.smi

> <i_m_source_file_index>
656

> <i_lp_mmshare_version>
43012

> <i_f3d_flags>
0

> <s_epik_input>
W0NIM11bQ0gyXVtDSDJdTjFbQ0gyXVtDSDJdW0NIXShbQ0gyXVtDSDJdMSlbTkhdQyg9TylbTkhdYzJbY0hdW2NIXVtjSF1ubjI=

> <s_epik_cmdline>
J2VwaWtfcHl0aG9uJywgJy1waCcsICc3LjAnLCAnLXRuJywgJzgnLCAnLW1hJywgJzIwMCcsICctbWV0YWxfYmluZGluZycsICctaW1hZScsICc8aW5maWxlLm1hZT4nLCAnLW9tYWUnLCAnPG91dGZpbGUubWFlPic=

> <r_lp_tautomer_probability>
1

> <r_epik_Ionization_Penalty>
0.00614766

> <r_epik_Ionization_Penalty_Charging>
0.00269617

> <r_epik_Ionization_Penalty_Neutral>
0.00345149

> <r_epik_State_Penalty>
-0

> <r_epik_Charging_Adjusted_Penalty>
0.00269617

> <i_epik_Tot_Q>
1

> <i_epik_Tot_abs_Q>
1

> <r_epik_Metal_State_Penalty>
-0

> <b_epik_Metal_Only>
0

> <s_lp_Force_Field>
OPLS_2005

> <r_lp_Energy>
22.9398

> <b_lp_Chiralities_Consistent>
1

> <s_lp_Variant>
AV-unprocessed.smi:656-2

> <Gold.Version>
5.8.1

> <Gold.Id.Protein>
6NUR|6NUR_protein|mol2

> <Gold.PLP.Fitness>
41.3140

> <Gold.PLP.PLP>
-28.0528

> <Gold.PLP.part.hbond>
-4.2893

> <Gold.PLP.part.metal>
0.0000

> <Gold.PLP.part.buried>
-0.5235

> <Gold.PLP.part.nonpolar>
-23.6087

> <Gold.PLP.part.repulsive>
0.1866

> <Gold.PLP.ligand.clash>
0.0000

> <Gold.PLP.ligand.torsion>
0.4387

> <Gold.PLP.Chemscore.Hbond>
4.7040

> <Gold.PLP.Chemscore.CHOScore>
0.0000

> <Gold.PLP.Chemscore.Metal>
0.0000

> <Gold.Chemscore.Hbonds>
donor molecule, donor type, donor heavy atom, donor atom, acceptor molecule, acceptor atom, score
      L1  H     4    41       P1  7948  2.00
      P1  H  6896  6907       L1    10  0.99
      P1  H  6931  6943       L1    17  0.99
      P1  H  6934  6947       L1    17  0.41

> <Gold.PLP.Chemscore.Internal.Correction>
0.0265

> <Gold.Rescore>
     Score         DG    S(hbond)    S(metal)    S(lipo)     H(rot)  DE(clash)    DE(int)     intcor
     16.25     -18.32       2.77        0.00      62.55       1.45       0.16       1.91       ----

> <Gold.Chemscore.Fitness>
16.2499

> <Gold.Chemscore.DG>
-18.3199

> <Gold.Chemscore.ZeroCoef>
-5.4800

> <Gold.Chemscore.Hbond>
2.7659

> <Gold.Chemscore.Metal>
0.0000

> <Gold.Chemscore.Lipo>
62.5494

> <Gold.Chemscore.Internal_Hbond>
0.0000

> <Gold.Chemscore.DEClash>
0.1589

> <Gold.Chemscore.DEInternal>
1.9111

> <Gold.Chemscore.Rot>
1.4518

> <Gold.Chemscore.Internal.Correction>
   9.000000E+99

> <Gold.Chemscore.Hbonds>
donor molecule, donor type, donor heavy atom, donor atom, acceptor molecule, acceptor atom, score
      L1  H     4    41       P1  7948  0.93
      P1  H  6896  6907       L1    10  0.59
      P1  H  6931  6943       L1    17  0.50
      P1  H  6934  6947       L1    17  0.18

> <Gold.Chemscore.Hbond.Weighted>
-9.2381

> <Gold.Chemscore.Metal.Weighted>
-0.0000

> <Gold.Chemscore.Lipo.Weighted>
-7.3183

> <Gold.Chemscore.Internal_Hbond.Weighted>
0.0000

> <Gold.Chemscore.DEClash.Weighted>
0.1589

> <Gold.Chemscore.DEInternal.Weighted>
1.9111

> <Gold.Chemscore.Rot.Weighted>
3.7165

> <Gold.Chemscore.Internal.Correction.Weighted>
   9.000000E+99

> <Gold.Protein.RotatedTorsions>
[ 6907 6896 6895 6894 ] final  -67.69 input  -60.11 | X-H torsion
[ 7974 7965 7964 7962 ] final  174.52 input  175.53 | X-H torsion
[ 8008 7997 7996 7995 ] final  113.13 input   59.86 | X-H torsion
[ 10167 10162 10161 10158 ] final   38.83 input  -65.29 | X-H torsion
[ 10718 10713 10712 10709 ] final -105.59 input   66.30 | X-H torsion
[ 10763 10752 10751 10750 ] final   71.27 input  -60.55 | X-H torsion
[ 11005 11000 10999 10996 ] final  -79.28 input  -57.11 | X-H torsion

> <Gold.Protein.ActiveResidues>
 VAL166  LYS551  ARG553  GLY616  TRP617  ASP618  TYR619  PRO620  LYS621  CYS622 
 ASP623  PHE694  ASN695  SER759  ASP760  ASP761  ALA762  ILE779  LEU786  VAL792 
 PHE793  MET794  SER795  GLU796  ALA797  LYS798  CYS799  TRP800  GLU811  SER814 

> <Gold.Protein.RotatedAtoms>
  150.7396  134.5845  159.5955 H   0  0  0  0  0  0  0  0  0  0  0  0  # atno 6907 bound_to 6896
  152.3250  134.7330  160.0313 H   0  0  0  0  0  0  0  0  0  0  0  0  # atno 6908 bound_to 6896
  151.7833  133.3316  159.3514 H   0  0  0  0  0  0  0  0  0  0  0  0  # atno 6909 bound_to 6896
  144.7220  139.9809  143.6438 H   0  0  0  0  0  0  0  0  0  0  0  0  # atno 7974 bound_to 7965
  156.2238  140.2985  156.0016 H   0  0  0  0  0  0  0  0  0  0  0  0  # atno 8008 bound_to 7997
  155.2411  140.0422  157.2992 H   0  0  0  0  0  0  0  0  0  0  0  0  # atno 8009 bound_to 7997
  154.5882  140.2394  155.7965 H   0  0  0  0  0  0  0  0  0  0  0  0  # atno 8010 bound_to 7997
  140.3898  144.1867  150.6131 H   0  0  0  0  0  0  0  0  0  0  0  0  # atno 10167 bound_to 10162
  156.0352  130.5571  150.7560 H   0  0  0  0  0  0  0  0  0  0  0  0  # atno 10718 bound_to 10713
  153.0389  135.5143  154.7568 H   0  0  0  0  0  0  0  0  0  0  0  0  # atno 10763 bound_to 10752
  154.6521  135.2926  154.9975 H   0  0  0  0  0  0  0  0  0  0  0  0  # atno 10764 bound_to 10752
  154.0856  135.6658  153.4897 H   0  0  0  0  0  0  0  0  0  0  0  0  # atno 10765 bound_to 10752
  141.1667  133.7099  156.8099 H   0  0  0  0  0  0  0  0  0  0  0  0  # atno 11005 bound_to 11000
  146.0489  139.3492  143.0652 LP  0  0  0  0  0  0  0  0  0  0  0  0  # atno 17320 bound_to 7965
  145.8241  140.9664  143.0883 LP  0  0  0  0  0  0  0  0  0  0  0  0  # atno 17321 bound_to 7965
  140.4851  143.2366  151.8899 LP  0  0  0  0  0  0  0  0  0  0  0  0  # atno 17342 bound_to 10162
  139.4789  144.5227  151.8778 LP  0  0  0  0  0  0  0  0  0  0  0  0  # atno 17343 bound_to 10162
  157.5092  131.0924  151.0219 LP  0  0  0  0  0  0  0  0  0  0  0  0  # atno 17370 bound_to 10713
  157.0579  130.5813  149.5381 LP  0  0  0  0  0  0  0  0  0  0  0  0  # atno 17371 bound_to 10713
  140.2195  134.8767  157.3362 LP  0  0  0  0  0  0  0  0  0  0  0  0  # atno 17394 bound_to 11000
  140.2002  134.4264  155.7667 LP  0  0  0  0  0  0  0  0  0  0  0  0  # atno 17395 bound_to 11000

$$$$
