AV-unprocessed.smi:194|AV-procd|sdf|1522|dock4
  -GOLD-   2262019363D 1   1.00000     0.00000
 Structure written by MMmdl.
 53 55  0  0  0  0  0  0  0  0  1 V2000
  153.0486  129.5804  153.9000 C   0  0  0  0  0  0  0  0  0  0  0  0
  151.9958  130.0964  154.8945 C   0  0  2  0  0  0  0  0  0  0  0  0
  151.9719  129.2416  156.1802 C   0  0  0  0  0  0  0  0  0  0  0  0
  150.9366  130.0700  157.4839 S   0  0  2  0  0  0  0  0  0  0  0  0
  149.2898  129.9648  156.6364 C   0  0  0  0  0  0  0  0  0  0  0  0
  151.3392  131.5459  157.4967 O   0  0  0  0  0  0  0  0  0  0  0  0
  150.6762  130.1914  154.2549 N   0  0  0  0  0  0  0  0  0  0  0  0
  150.1438  129.0797  153.4724 C   0  0  0  0  0  0  0  0  0  0  0  0
  150.1339  131.4241  154.0741 C   0  0  0  0  0  0  0  0  0  0  0  0
  150.7649  132.4874  154.6381 N   0  0  0  0  0  0  0  0  0  0  0  0
  150.2697  133.7202  154.5049 C   0  0  0  0  0  0  0  0  0  0  0  0
  149.1700  134.1106  153.8598 N   0  0  0  0  0  0  0  0  0  0  0  0
  148.5268  133.0515  153.2907 C   0  0  0  0  0  0  0  0  0  0  0  0
  148.9381  131.6880  153.3418 C   0  0  0  0  0  0  0  0  0  0  0  0
  148.0455  130.9048  152.6179 N   0  0  0  0  0  0  0  0  0  0  0  0
  147.1579  131.7517  152.1754 C   0  0  0  0  0  0  0  0  0  0  0  0
  147.3572  133.0610  152.5492 N   0  0  0  0  0  0  0  0  0  0  0  0
  146.5259  134.2011  152.1916 C   0  0  0  0  0  0  0  0  0  0  0  0
  145.2538  133.8778  151.3496 C   0  0  0  0  0  0  0  0  0  0  0  0
  144.4343  135.1705  151.0540 C   0  0  0  0  0  0  0  0  0  0  0  0
  145.1661  136.1660  150.3673 O   0  0  0  0  0  0  0  0  0  0  0  0
  145.6246  133.1209  150.0482 C   0  0  0  0  0  0  0  0  0  0  0  0
  144.3999  132.5004  149.3548 C   0  0  0  0  0  0  0  0  0  0  0  0
  143.7458  131.6070  150.2465 O   0  0  0  0  0  0  0  0  0  0  0  0
  143.2397  132.2567  151.4052 C   0  0  0  0  0  0  0  0  0  0  0  0
  144.3904  132.9084  152.1974 C   0  0  0  0  0  0  0  0  0  0  0  0
  154.0434  129.5868  154.3462 H   0  0  0  0  0  0  0  0  0  0  0  0
  153.0851  130.2064  153.0078 H   0  0  0  0  0  0  0  0  0  0  0  0
  152.8361  128.5591  153.5830 H   0  0  0  0  0  0  0  0  0  0  0  0
  152.3332  131.0916  155.1790 H   0  0  0  0  0  0  0  0  0  0  0  0
  151.5600  128.2527  155.9812 H   0  0  0  0  0  0  0  0  0  0  0  0
  152.9788  129.0882  156.5693 H   0  0  0  0  0  0  0  0  0  0  0  0
  148.9915  128.9295  156.4792 H   0  0  0  0  0  0  0  0  0  0  0  0
  149.3247  130.4702  155.6715 H   0  0  0  0  0  0  0  0  0  0  0  0
  148.5286  130.4466  157.2497 H   0  0  0  0  0  0  0  0  0  0  0  0
  149.0665  129.1791  153.3351 H   0  0  0  0  0  0  0  0  0  0  0  0
  150.3189  128.1272  153.9703 H   0  0  0  0  0  0  0  0  0  0  0  0
  150.6156  129.0383  152.4904 H   0  0  0  0  0  0  0  0  0  0  0  0
  150.8344  134.5055  154.9853 H   0  0  0  0  0  0  0  0  0  0  0  0
  146.3196  131.4411  151.5690 H   0  0  0  0  0  0  0  0  0  0  0  0
  146.2433  134.7000  153.1198 H   0  0  0  0  0  0  0  0  0  0  0  0
  147.1527  134.9145  151.6549 H   0  0  0  0  0  0  0  0  0  0  0  0
  143.5610  134.9579  150.4402 H   0  0  0  0  0  0  0  0  0  0  0  0
  144.0530  135.5979  151.9820 H   0  0  0  0  0  0  0  0  0  0  0  0
  144.5959  136.9025  150.2071 H   0  0  0  0  0  0  0  0  0  0  0  0
  146.1519  133.7697  149.3489 H   0  0  0  0  0  0  0  0  0  0  0  0
  146.3190  132.3145  150.2873 H   0  0  0  0  0  0  0  0  0  0  0  0
  143.7062  133.2667  149.0064 H   0  0  0  0  0  0  0  0  0  0  0  0
  144.7172  131.9416  148.4742 H   0  0  0  0  0  0  0  0  0  0  0  0
  142.4752  132.9814  151.1256 H   0  0  0  0  0  0  0  0  0  0  0  0
  142.7416  131.5125  152.0269 H   0  0  0  0  0  0  0  0  0  0  0  0
  145.0190  132.1053  152.5848 H   0  0  0  0  0  0  0  0  0  0  0  0
  143.9902  133.4227  153.0722 H   0  0  0  0  0  0  0  0  0  0  0  0
  1  2  1  0  0  0  0
  1 27  1  0  0  0  0
  1 28  1  0  0  0  0
  1 29  1  0  0  0  0
  2  3  1  0  0  0  0
  2  7  1  0  0  0  0
  2 30  1  0  0  0  0
  3  4  1  0  0  0  0
  3 31  1  0  0  0  0
  3 32  1  0  0  0  0
  4  5  1  0  0  0  0
  4  6  2  0  0  0  0
  5 33  1  0  0  0  0
  5 34  1  0  0  0  0
  5 35  1  0  0  0  0
  7  8  1  0  0  0  0
  7  9  1  0  0  0  0
  8 36  1  0  0  0  0
  8 37  1  0  0  0  0
  8 38  1  0  0  0  0
  9 14  1  0  0  0  0
  9 10  2  0  0  0  0
 10 11  1  0  0  0  0
 11 12  2  0  0  0  0
 11 39  1  0  0  0  0
 12 13  1  0  0  0  0
 13 17  1  0  0  0  0
 13 14  2  0  0  0  0
 14 15  1  0  0  0  0
 15 16  2  0  0  0  0
 16 17  1  0  0  0  0
 16 40  1  0  0  0  0
 17 18  1  0  0  0  0
 18 19  1  0  0  0  0
 18 41  1  0  0  0  0
 18 42  1  0  0  0  0
 19 26  1  0  0  0  0
 19 20  1  0  0  0  0
 19 22  1  0  0  0  0
 20 21  1  0  0  0  0
 20 43  1  0  0  0  0
 20 44  1  0  0  0  0
 21 45  1  0  0  0  0
 22 23  1  0  0  0  0
 22 46  1  0  0  0  0
 22 47  1  0  0  0  0
 23 24  1  0  0  0  0
 23 48  1  0  0  0  0
 23 49  1  0  0  0  0
 24 25  1  0  0  0  0
 25 26  1  0  0  0  0
 25 50  1  0  0  0  0
 25 51  1  0  0  0  0
 26 52  1  0  0  0  0
 26 53  1  0  0  0  0
M  END
> <s_m_source_file>
AV-unprocessed.smi

> <i_m_source_file_index>
194

> <i_lp_mmshare_version>
43012

> <i_f3d_flags>
0

> <s_epik_input>
W0NIM11bU0BAXSg9TylbQ0gyXVtDQEBIXShbQ0gzXSlOKFtDSDNdKWMobltjSF1uMSljKGMxMiluW2NIXW4yW0NIMl1DMyhbQ0gyXVtPSF0pW0NIMl1bQ0gyXU9bQ0gyXVtDSDJdMw==

> <s_epik_cmdline>
J2VwaWtfcHl0aG9uJywgJy1waCcsICc3LjAnLCAnLXRuJywgJzgnLCAnLW1hJywgJzIwMCcsICctbWV0YWxfYmluZGluZycsICctaW1hZScsICc8aW5maWxlLm1hZT4nLCAnLW9tYWUnLCAnPG91dGZpbGUubWFlPic=

> <r_lp_tautomer_probability>
1

> <r_epik_Ionization_Penalty>
0.00101625

> <r_epik_Ionization_Penalty_Charging>
0

> <r_epik_Ionization_Penalty_Neutral>
0.00101625

> <r_epik_State_Penalty>
0.000568005

> <r_epik_Charging_Adjusted_Penalty>
0.000568005

> <i_epik_Tot_Q>
0

> <i_epik_Tot_abs_Q>
0

> <r_epik_Metal_State_Penalty>
-0

> <b_epik_Metal_Only>
0

> <s_lp_Force_Field>
OPLS_2005

> <r_lp_Energy>
28.7742

> <b_lp_Chiralities_Consistent>
1

> <s_lp_Variant>
AV-unprocessed.smi:194-3

> <Gold.Version>
5.8.1

> <Gold.Id.Protein>
6NUR|6NUR_protein|mol2

> <Gold.PLP.Fitness>
47.4710

> <Gold.PLP.PLP>
-41.1405

> <Gold.PLP.part.hbond>
-4.0000

> <Gold.PLP.part.metal>
0.0000

> <Gold.PLP.part.buried>
-3.0034

> <Gold.PLP.part.nonpolar>
-36.0658

> <Gold.PLP.part.repulsive>
3.0620

> <Gold.PLP.ligand.clash>
1.3957

> <Gold.PLP.ligand.torsion>
0.4040

> <Gold.PLP.Chemscore.Hbond>
2.6365

> <Gold.PLP.Chemscore.CHOScore>
0.0000

> <Gold.PLP.Chemscore.Metal>
0.0000

> <Gold.Chemscore.Hbonds>
donor molecule, donor type, donor heavy atom, donor atom, acceptor molecule, acceptor atom, score
      L1  H    21    45       P1 10171  1.00
      P1  H 10785 10796       L1    24  0.44

> <Gold.PLP.Chemscore.Internal.Correction>
0.6248

> <Gold.Rescore>
     Score         DG    S(hbond)    S(metal)    S(lipo)     H(rot)  DE(clash)    DE(int)     intcor
      8.83     -12.89       2.05        0.00      71.17       3.03       0.72       3.34       ----

> <Gold.Chemscore.Fitness>
8.8255

> <Gold.Chemscore.DG>
-12.8852

> <Gold.Chemscore.ZeroCoef>
-5.4800

> <Gold.Chemscore.Hbond>
2.0462

> <Gold.Chemscore.Metal>
0.0000

> <Gold.Chemscore.Lipo>
71.1650

> <Gold.Chemscore.Internal_Hbond>
0.0000

> <Gold.Chemscore.DEClash>
0.7225

> <Gold.Chemscore.DEInternal>
3.3373

> <Gold.Chemscore.Rot>
3.0295

> <Gold.Chemscore.Internal.Correction>
   9.000000E+99

> <Gold.Chemscore.Hbonds>
donor molecule, donor type, donor heavy atom, donor atom, acceptor molecule, acceptor atom, score
      L1  H    21    45       P1 10171  1.00
      P1  H  6896  6909       L1     6  0.02
      P1  H 10785 10796       L1    24  0.07

> <Gold.Chemscore.Hbond.Weighted>
-6.8345

> <Gold.Chemscore.Metal.Weighted>
-0.0000

> <Gold.Chemscore.Lipo.Weighted>
-8.3263

> <Gold.Chemscore.Internal_Hbond.Weighted>
0.0000

> <Gold.Chemscore.DEClash.Weighted>
0.7225

> <Gold.Chemscore.DEInternal.Weighted>
3.3373

> <Gold.Chemscore.Rot.Weighted>
7.7555

> <Gold.Chemscore.Internal.Correction.Weighted>
   9.000000E+99

> <Gold.Protein.RotatedTorsions>
[ 6907 6896 6895 6894 ] final  -40.72 input  -60.11 | X-H torsion
[ 7974 7965 7964 7962 ] final  162.75 input  175.53 | X-H torsion
[ 8008 7997 7996 7995 ] final -108.04 input   59.86 | X-H torsion
[ 10167 10162 10161 10158 ] final  -58.50 input  -65.29 | X-H torsion
[ 10718 10713 10712 10709 ] final  -62.29 input   66.30 | X-H torsion
[ 10763 10752 10751 10750 ] final   -8.44 input  -60.55 | X-H torsion
[ 11005 11000 10999 10996 ] final  -15.35 input  -57.11 | X-H torsion

> <Gold.Protein.ActiveResidues>
 VAL166  LYS551  ARG553  GLY616  TRP617  ASP618  TYR619  PRO620  LYS621  CYS622 
 ASP623  PHE694  ASN695  SER759  ASP760  ASP761  ALA762  ILE779  LEU786  VAL792 
 PHE793  MET794  SER795  GLU796  ALA797  LYS798  CYS799  TRP800  GLU811  SER814 

> <Gold.Protein.RotatedAtoms>
  150.9751  134.9117  159.7810 H   0  0  0  0  0  0  0  0  0  0  0  0  # atno 6907 bound_to 6896
  152.5203  134.3487  159.9253 H   0  0  0  0  0  0  0  0  0  0  0  0  # atno 6908 bound_to 6896
  151.3495  133.3890  159.2713 H   0  0  0  0  0  0  0  0  0  0  0  0  # atno 6909 bound_to 6896
  144.7622  139.8084  143.6328 H   0  0  0  0  0  0  0  0  0  0  0  0  # atno 7974 bound_to 7965
  154.9383  140.0403  157.2083 H   0  0  0  0  0  0  0  0  0  0  0  0  # atno 8008 bound_to 7997
  154.8094  140.2865  155.5842 H   0  0  0  0  0  0  0  0  0  0  0  0  # atno 8009 bound_to 7997
  156.2970  140.2540  156.2979 H   0  0  0  0  0  0  0  0  0  0  0  0  # atno 8010 bound_to 7997
  140.6193  143.2414  151.5519 H   0  0  0  0  0  0  0  0  0  0  0  0  # atno 10167 bound_to 10162
  156.0865  130.4207  150.1115 H   0  0  0  0  0  0  0  0  0  0  0  0  # atno 10718 bound_to 10713
  153.4406  135.7013  153.6171 H   0  0  0  0  0  0  0  0  0  0  0  0  # atno 10763 bound_to 10752
  153.4548  135.3750  155.2305 H   0  0  0  0  0  0  0  0  0  0  0  0  # atno 10764 bound_to 10752
  154.8727  135.4005  154.3804 H   0  0  0  0  0  0  0  0  0  0  0  0  # atno 10765 bound_to 10752
  140.7957  133.8253  155.9422 H   0  0  0  0  0  0  0  0  0  0  0  0  # atno 11005 bound_to 11000
  146.1695  139.4840  142.9936 LP  0  0  0  0  0  0  0  0  0  0  0  0  # atno 17320 bound_to 7965
  145.6584  141.0246  143.1722 LP  0  0  0  0  0  0  0  0  0  0  0  0  # atno 17321 bound_to 7965
  139.5425  144.2608  152.1379 LP  0  0  0  0  0  0  0  0  0  0  0  0  # atno 17342 bound_to 10162
  140.1825  144.4831  150.6521 LP  0  0  0  0  0  0  0  0  0  0  0  0  # atno 17343 bound_to 10162
  156.9135  130.9659  151.3559 LP  0  0  0  0  0  0  0  0  0  0  0  0  # atno 17370 bound_to 10713
  157.6000  130.8506  149.8788 LP  0  0  0  0  0  0  0  0  0  0  0  0  # atno 17371 bound_to 10713
  140.9345  134.1979  157.4841 LP  0  0  0  0  0  0  0  0  0  0  0  0  # atno 17394 bound_to 11000
  139.8726  134.9846  156.5248 LP  0  0  0  0  0  0  0  0  0  0  0  0  # atno 17395 bound_to 11000

$$$$
