AV-unprocessed.smi:1586|AV-procd|sdf|6384|dock2
  -GOLD-   22720 7 13D 1   1.00000     0.00000
 Structure written by MMmdl.
 46 47  0  0  0  0  0  0  0  0  3 V2000
  150.4559  141.4100  156.0568 C   0  0  0  0  0  0  0  0  0  0  0  0
  151.1385  140.0519  155.8403 C   0  0  0  0  0  0  0  0  0  0  0  0
  150.8881  139.5209  154.4983 N   0  0  0  0  0  0  0  0  0  0  0  0
  151.6693  138.3282  154.1493 C   0  0  0  0  0  0  0  0  0  0  0  0
  151.2170  137.0786  154.9351 C   0  0  0  0  0  0  0  0  0  0  0  0
  149.7750  136.8277  154.7026 N   0  3  0  0  0  0  0  0  0  0  0  0
  149.2815  135.5280  155.2444 C   0  0  1  0  0  0  0  0  0  0  0  0
  149.7864  134.3044  154.4557 C   0  0  0  0  0  0  0  0  0  0  0  0
  149.5684  135.3958  156.7568 C   0  0  0  0  0  0  0  0  0  0  0  0
  148.6321  134.4836  157.4114 N   0  0  0  0  0  0  0  0  0  0  0  0
  148.9091  133.2579  157.8800 C   0  0  0  0  0  0  0  0  0  0  0  0
  150.0335  132.7778  157.7228 O   0  0  0  0  0  0  0  0  0  0  0  0
  147.8735  132.6773  158.5252 N   0  5  0  0  0  0  0  0  0  0  0  0
  147.4377  133.1817  159.6899 C   0  0  0  0  0  0  0  0  0  0  0  0
  148.0349  134.2518  160.4109 C   0  0  0  0  0  0  0  0  0  0  0  0
  147.2215  134.3859  161.5000 C   0  0  0  0  0  0  0  0  0  0  0  0
  147.2448  135.3003  162.6768 C   0  0  0  0  0  0  0  0  0  0  0  0
  146.2085  133.4798  161.4469 O   0  0  0  0  0  0  0  0  0  0  0  0
  146.3506  132.7170  160.2815 N   0  0  0  0  0  0  0  0  0  0  0  0
  148.9752  138.0249  155.0648 C   0  0  0  0  0  0  0  0  0  0  0  0
  149.4676  139.2467  154.2615 C   0  0  0  0  0  0  0  0  0  0  0  0
  150.5430  141.7170  157.0994 H   0  0  0  0  0  0  0  0  0  0  0  0
  149.3933  141.3627  155.8159 H   0  0  0  0  0  0  0  0  0  0  0  0
  150.9068  142.1966  155.4523 H   0  0  0  0  0  0  0  0  0  0  0  0
  152.2045  140.1282  156.0517 H   0  0  0  0  0  0  0  0  0  0  0  0
  150.7286  139.3514  156.5690 H   0  0  0  0  0  0  0  0  0  0  0  0
  151.5479  138.1423  153.0810 H   0  0  0  0  0  0  0  0  0  0  0  0
  152.7331  138.5076  154.3004 H   0  0  0  0  0  0  0  0  0  0  0  0
  151.7954  136.2208  154.5901 H   0  0  0  0  0  0  0  0  0  0  0  0
  151.4199  137.1838  156.0009 H   0  0  0  0  0  0  0  0  0  0  0  0
  148.1944  135.5388  155.1497 H   0  0  0  0  0  0  0  0  0  0  0  0
  149.3010  133.3938  154.8075 H   0  0  0  0  0  0  0  0  0  0  0  0
  150.8608  134.1598  154.5715 H   0  0  0  0  0  0  0  0  0  0  0  0
  149.5701  134.3958  153.3911 H   0  0  0  0  0  0  0  0  0  0  0  0
  150.5723  134.9971  156.9044 H   0  0  0  0  0  0  0  0  0  0  0  0
  149.5622  136.3723  157.2434 H   0  0  0  0  0  0  0  0  0  0  0  0
  147.6915  134.8239  157.5511 H   0  0  0  0  0  0  0  0  0  0  0  0
  148.9178  134.8247  160.1701 H   0  0  0  0  0  0  0  0  0  0  0  0
  147.7681  136.2264  162.4383 H   0  0  0  0  0  0  0  0  0  0  0  0
  147.7532  134.8310  163.5189 H   0  0  0  0  0  0  0  0  0  0  0  0
  146.2329  135.5565  162.9916 H   0  0  0  0  0  0  0  0  0  0  0  0
  147.9235  137.8495  154.8401 H   0  0  0  0  0  0  0  0  0  0  0  0
  149.0360  138.2219  156.1352 H   0  0  0  0  0  0  0  0  0  0  0  0
  148.8748  140.1282  154.5082 H   0  0  0  0  0  0  0  0  0  0  0  0
  149.3188  139.0665  153.1957 H   0  0  0  0  0  0  0  0  0  0  0  0
  149.6853  136.7356  153.6999 H   0  0  0  0  0  0  0  0  0  0  0  0
  1  2  1  0  0  0  0
  1 22  1  0  0  0  0
  1 23  1  0  0  0  0
  1 24  1  0  0  0  0
  2  3  1  0  0  0  0
  2 25  1  0  0  0  0
  2 26  1  0  0  0  0
  3 21  1  0  0  0  0
  3  4  1  0  0  0  0
  4  5  1  0  0  0  0
  4 27  1  0  0  0  0
  4 28  1  0  0  0  0
  5  6  1  0  0  0  0
  5 29  1  0  0  0  0
  5 30  1  0  0  0  0
  6  7  1  0  0  0  0
  6 20  1  0  0  0  0
  6 46  1  0  0  0  0
  7  8  1  0  0  0  0
  7  9  1  0  0  0  0
  7 31  1  0  0  0  0
  8 32  1  0  0  0  0
  8 33  1  0  0  0  0
  8 34  1  0  0  0  0
  9 10  1  0  0  0  0
  9 35  1  0  0  0  0
  9 36  1  0  0  0  0
 10 11  1  0  0  0  0
 10 37  1  0  0  0  0
 11 12  2  0  0  0  0
 11 13  1  0  0  0  0
 13 14  1  0  0  0  0
 14 19  2  0  0  0  0
 14 15  1  0  0  0  0
 15 16  2  0  0  0  0
 15 38  1  0  0  0  0
 16 17  1  0  0  0  0
 16 18  1  0  0  0  0
 17 39  1  0  0  0  0
 17 40  1  0  0  0  0
 17 41  1  0  0  0  0
 18 19  1  0  0  0  0
 20 21  1  0  0  0  0
 20 42  1  0  0  0  0
 20 43  1  0  0  0  0
 21 44  1  0  0  0  0
 21 45  1  0  0  0  0
M  CHG  1   6   1
M  CHG  1  13  -1
M  END
> <s_m_source_file>
AV-unprocessed.smi

> <i_m_source_file_index>
1586

> <i_lp_mmshare_version>
43012

> <i_f3d_flags>
0

> <s_epik_input>
W0NIM11bQ0gyXU4xW0NIMl1bQ0gyXU4oW0NIMl1bQ0gyXTEpW0NASF0oW0NIM10pW0NIMl1bTkhdQyg9TylbTkhdYzJbY0hdYyhbQ0gzXSlvbjI=

> <s_epik_cmdline>
J2VwaWtfcHl0aG9uJywgJy1waCcsICc3LjAnLCAnLXRuJywgJzgnLCAnLW1hJywgJzIwMCcsICctbWV0YWxfYmluZGluZycsICctaW1hZScsICc8aW5maWxlLm1hZT4nLCAnLW9tYWUnLCAnPG91dGZpbGUubWFlPic=

> <r_epik_Ionization_Penalty>
6.35599

> <r_epik_Ionization_Penalty_Charging>
6.35441

> <r_epik_Ionization_Penalty_Neutral>
0.00158318

> <r_epik_State_Penalty>
7.1902

> <r_epik_Charging_Adjusted_Penalty>
13.5446

> <i_epik_Tot_Q>
0

> <i_epik_Tot_abs_Q>
2

> <r_epik_Metal_State_Penalty>
3.12491

> <b_epik_Metal_Only>
1

> <s_lp_Force_Field>
OPLS_2005

> <r_lp_Energy>
11.5798

> <b_lp_Chiralities_Consistent>
1

> <s_lp_Variant>
AV-unprocessed.smi:1586-12

> <Gold.Version>
5.8.1

> <Gold.Id.Protein>
6NUR|6NUR_protein|mol2

> <Gold.PLP.Fitness>
41.3796

> <Gold.PLP.PLP>
-31.6582

> <Gold.PLP.part.hbond>
-3.0000

> <Gold.PLP.part.metal>
0.0000

> <Gold.PLP.part.buried>
-3.9985

> <Gold.PLP.part.nonpolar>
-24.6142

> <Gold.PLP.part.repulsive>
0.2037

> <Gold.PLP.ligand.clash>
0.0000

> <Gold.PLP.ligand.torsion>
1.1326

> <Gold.PLP.Chemscore.Hbond>
3.9325

> <Gold.PLP.Chemscore.CHOScore>
0.0000

> <Gold.PLP.Chemscore.Metal>
0.0000

> <Gold.Chemscore.Hbonds>
donor molecule, donor type, donor heavy atom, donor atom, acceptor molecule, acceptor atom, score
      L1  H     6    46       P1  7948  2.00
      P1  H  6896  6907       L1    12  1.00
      P1  H  7989  7998       L1     3  1.00

> <Gold.PLP.Chemscore.Internal.Correction>
0.1891

> <Gold.Rescore>
     Score         DG    S(hbond)    S(metal)    S(lipo)     H(rot)  DE(clash)    DE(int)     intcor
     14.85     -16.05       1.96        0.00      72.15       1.73       0.04       1.16       ----

> <Gold.Chemscore.Fitness>
14.8462

> <Gold.Chemscore.DG>
-16.0477

> <Gold.Chemscore.ZeroCoef>
-5.4800

> <Gold.Chemscore.Hbond>
1.9588

> <Gold.Chemscore.Metal>
0.0000

> <Gold.Chemscore.Lipo>
72.1478

> <Gold.Chemscore.Internal_Hbond>
0.0000

> <Gold.Chemscore.DEClash>
0.0436

> <Gold.Chemscore.DEInternal>
1.1579

> <Gold.Chemscore.Rot>
1.7250

> <Gold.Chemscore.Internal.Correction>
   9.000000E+99

> <Gold.Chemscore.Hbonds>
donor molecule, donor type, donor heavy atom, donor atom, acceptor molecule, acceptor atom, score
      L1  H     6    46       P1  7948  0.62
      P1  H  6896  6907       L1    12  0.34
      P1  H  7989  7998       L1     3  0.11

> <Gold.Chemscore.Hbond.Weighted>
-6.5425

> <Gold.Chemscore.Metal.Weighted>
-0.0000

> <Gold.Chemscore.Lipo.Weighted>
-8.4413

> <Gold.Chemscore.Internal_Hbond.Weighted>
0.0000

> <Gold.Chemscore.DEClash.Weighted>
0.0436

> <Gold.Chemscore.DEInternal.Weighted>
1.1579

> <Gold.Chemscore.Rot.Weighted>
4.4161

> <Gold.Chemscore.Internal.Correction.Weighted>
   9.000000E+99

> <Gold.Protein.RotatedTorsions>
[ 6907 6896 6895 6894 ] final -140.00 input  -60.11 | X-H torsion
[ 7974 7965 7964 7962 ] final  161.42 input  175.53 | X-H torsion
[ 8008 7997 7996 7995 ] final -125.31 input   59.86 | X-H torsion
[ 10167 10162 10161 10158 ] final -111.62 input  -65.29 | X-H torsion
[ 10718 10713 10712 10709 ] final   31.02 input   66.30 | X-H torsion
[ 10763 10752 10751 10750 ] final  113.72 input  -60.55 | X-H torsion
[ 11005 11000 10999 10996 ] final -137.43 input  -57.11 | X-H torsion

> <Gold.Protein.ActiveResidues>
 VAL166  LYS551  ARG553  GLY616  TRP617  ASP618  TYR619  PRO620  LYS621  CYS622 
 ASP623  PHE694  ASN695  SER759  ASP760  ASP761  ALA762  ILE779  LEU786  VAL792 
 PHE793  MET794  SER795  GLU796  ALA797  LYS798  CYS799  TRP800  GLU811  SER814 

> <Gold.Protein.RotatedAtoms>
  151.0551  133.5591  159.2638 H   0  0  0  0  0  0  0  0  0  0  0  0  # atno 6907 bound_to 6896
  151.2588  135.0646  159.9100 H   0  0  0  0  0  0  0  0  0  0  0  0  # atno 6908 bound_to 6896
  152.5388  134.0300  159.8074 H   0  0  0  0  0  0  0  0  0  0  0  0  # atno 6909 bound_to 6896
  144.7687  139.7895  143.6305 H   0  0  0  0  0  0  0  0  0  0  0  0  # atno 7974 bound_to 7965
  155.2112  140.0419  157.2933 H   0  0  0  0  0  0  0  0  0  0  0  0  # atno 8008 bound_to 7997
  154.6011  140.2452  155.7763 H   0  0  0  0  0  0  0  0  0  0  0  0  # atno 8009 bound_to 7997
  156.2321  140.2934  156.0225 H   0  0  0  0  0  0  0  0  0  0  0  0  # atno 8010 bound_to 7997
  140.1316  143.4356  152.1623 H   0  0  0  0  0  0  0  0  0  0  0  0  # atno 10167 bound_to 10162
  157.2671  130.7190  149.6484 H   0  0  0  0  0  0  0  0  0  0  0  0  # atno 10718 bound_to 10713
  153.4966  135.3647  155.2519 H   0  0  0  0  0  0  0  0  0  0  0  0  # atno 10763 bound_to 10752
  154.8750  135.3990  154.3527 H   0  0  0  0  0  0  0  0  0  0  0  0  # atno 10764 bound_to 10752
  153.4156  135.7079  153.6395 H   0  0  0  0  0  0  0  0  0  0  0  0  # atno 10765 bound_to 10752
  140.8712  134.2049  157.4650 H   0  0  0  0  0  0  0  0  0  0  0  0  # atno 11005 bound_to 11000
  146.1816  139.5010  142.9863 LP  0  0  0  0  0  0  0  0  0  0  0  0  # atno 17320 bound_to 7965
  145.6391  141.0288  143.1821 LP  0  0  0  0  0  0  0  0  0  0  0  0  # atno 17321 bound_to 7965
  139.5517  144.7342  151.4416 LP  0  0  0  0  0  0  0  0  0  0  0  0  # atno 17342 bound_to 10162
  140.6814  143.8074  150.7126 LP  0  0  0  0  0  0  0  0  0  0  0  0  # atno 17343 bound_to 10162
  155.9663  130.4379  150.5195 LP  0  0  0  0  0  0  0  0  0  0  0  0  # atno 17370 bound_to 10713
  157.3112  131.0664  151.2000 LP  0  0  0  0  0  0  0  0  0  0  0  0  # atno 17371 bound_to 10713
  139.8712  134.9775  156.4961 LP  0  0  0  0  0  0  0  0  0  0  0  0  # atno 17394 bound_to 11000
  140.8571  133.8088  155.9227 LP  0  0  0  0  0  0  0  0  0  0  0  0  # atno 17395 bound_to 11000

$$$$
