AV-unprocessed.smi:3166|AV-procd|sdf|12096|dock9
  -GOLD-   2272017533D 1   1.00000     0.00000
 Structure written by MMmdl.
 40 41  0  0  0  0  0  0  0  0  1 V2000
  153.0306  139.7607  159.4243 C   0  0  0  0  0  0  0  0  0  0  0  0
  152.2390  141.0764  159.3581 C   0  0  1  0  0  0  0  0  0  0  0  0
  153.1397  142.3201  159.5658 C   0  0  0  0  0  0  0  0  0  0  0  0
  152.4392  143.5847  159.4033 N   0  0  0  0  0  0  0  0  0  0  0  0
  152.3685  144.6441  160.2842 C   0  0  0  0  0  0  0  0  0  0  0  0
  151.6030  145.6110  159.6988 C   0  0  0  0  0  0  0  0  0  0  0  0
  151.2483  145.0457  158.4422 C   0  0  0  0  0  0  0  0  0  0  0  0
  151.7536  143.8356  158.2661 N   0  0  0  0  0  0  0  0  0  0  0  0
  151.4803  141.1227  158.1036 N   0  0  0  0  0  0  0  0  0  0  0  0
  150.8894  139.8539  157.6711 C   0  0  0  0  0  0  0  0  0  0  0  0
  150.4362  139.8889  156.1940 C   0  0  0  0  0  0  0  0  0  0  0  0
  151.5944  139.7072  155.3987 O   0  0  0  0  0  0  0  0  0  0  0  0
  149.4895  138.6963  155.9191 C   0  0  0  0  0  0  0  0  0  0  0  0
  148.9107  138.6999  154.4927 C   0  0  0  0  0  0  0  0  0  0  0  0
  148.2072  140.0278  154.1812 C   0  0  0  0  0  0  0  0  0  0  0  0
  149.1585  141.2136  154.3917 C   0  0  0  0  0  0  0  0  0  0  0  0
  149.7411  141.2222  155.8164 C   0  0  0  0  0  0  0  0  0  0  0  0
  153.5959  139.6907  160.3538 H   0  0  0  0  0  0  0  0  0  0  0  0
  153.7361  139.6704  158.5976 H   0  0  0  0  0  0  0  0  0  0  0  0
  152.3627  138.8999  159.3812 H   0  0  0  0  0  0  0  0  0  0  0  0
  151.5272  141.0549  160.1842 H   0  0  0  0  0  0  0  0  0  0  0  0
  153.6135  142.3110  160.5470 H   0  0  0  0  0  0  0  0  0  0  0  0
  153.9622  142.2907  158.8493 H   0  0  0  0  0  0  0  0  0  0  0  0
  152.8619  144.6206  161.2444 H   0  0  0  0  0  0  0  0  0  0  0  0
  151.3370  146.5752  160.1059 H   0  0  0  0  0  0  0  0  0  0  0  0
  150.6443  145.4764  157.6572 H   0  0  0  0  0  0  0  0  0  0  0  0
  152.0719  141.4840  157.3619 H   0  0  0  0  0  0  0  0  0  0  0  0
  151.6046  139.0426  157.8138 H   0  0  0  0  0  0  0  0  0  0  0  0
  150.0271  139.6158  158.2928 H   0  0  0  0  0  0  0  0  0  0  0  0
  152.2633  139.3077  155.9335 H   0  0  0  0  0  0  0  0  0  0  0  0
  150.0056  137.7526  156.1030 H   0  0  0  0  0  0  0  0  0  0  0  0
  148.6602  138.7267  156.6273 H   0  0  0  0  0  0  0  0  0  0  0  0
  149.7072  138.5272  153.7680 H   0  0  0  0  0  0  0  0  0  0  0  0
  148.2086  137.8737  154.3776 H   0  0  0  0  0  0  0  0  0  0  0  0
  147.8391  140.0228  153.1549 H   0  0  0  0  0  0  0  0  0  0  0  0
  147.3330  140.1403  154.8239 H   0  0  0  0  0  0  0  0  0  0  0  0
  149.9678  141.1679  153.6620 H   0  0  0  0  0  0  0  0  0  0  0  0
  148.6305  142.1488  154.2037 H   0  0  0  0  0  0  0  0  0  0  0  0
  148.9337  141.4167  156.5236 H   0  0  0  0  0  0  0  0  0  0  0  0
  150.4335  142.0593  155.9116 H   0  0  0  0  0  0  0  0  0  0  0  0
  1  2  1  0  0  0  0
  1 18  1  0  0  0  0
  1 19  1  0  0  0  0
  1 20  1  0  0  0  0
  2  3  1  0  0  0  0
  2  9  1  0  0  0  0
  2 21  1  0  0  0  0
  3  4  1  0  0  0  0
  3 22  1  0  0  0  0
  3 23  1  0  0  0  0
  4  8  1  0  0  0  0
  4  5  1  0  0  0  0
  5  6  2  0  0  0  0
  5 24  1  0  0  0  0
  6  7  1  0  0  0  0
  6 25  1  0  0  0  0
  7  8  2  0  0  0  0
  7 26  1  0  0  0  0
  9 10  1  0  0  0  0
  9 27  1  0  0  0  0
 10 11  1  0  0  0  0
 10 28  1  0  0  0  0
 10 29  1  0  0  0  0
 11 17  1  0  0  0  0
 11 12  1  0  0  0  0
 11 13  1  0  0  0  0
 12 30  1  0  0  0  0
 13 14  1  0  0  0  0
 13 31  1  0  0  0  0
 13 32  1  0  0  0  0
 14 15  1  0  0  0  0
 14 33  1  0  0  0  0
 14 34  1  0  0  0  0
 15 16  1  0  0  0  0
 15 35  1  0  0  0  0
 15 36  1  0  0  0  0
 16 17  1  0  0  0  0
 16 37  1  0  0  0  0
 16 38  1  0  0  0  0
 17 39  1  0  0  0  0
 17 40  1  0  0  0  0
M  END
> <s_m_source_file>
AV-unprocessed.smi

> <i_m_source_file_index>
3166

> <i_lp_mmshare_version>
43012

> <i_f3d_flags>
0

> <s_epik_input>
bjFbY0hdW2NIXVtjSF1uMVtDSDJdW0NAQEhdKFtDSDNdKVtOSF1bQ0gyXUMyKFtPSF0pW0NIMl1bQ0gyXVtDSDJdW0NIMl1bQ0gyXTI=

> <s_epik_cmdline>
J2VwaWtfcHl0aG9uJywgJy1waCcsICc3LjAnLCAnLXRuJywgJzgnLCAnLW1hJywgJzIwMCcsICctbWV0YWxfYmluZGluZycsICctaW1hZScsICc8aW5maWxlLm1hZT4nLCAnLW9tYWUnLCAnPG91dGZpbGUubWFlPic=

> <r_lp_tautomer_probability>
1

> <r_epik_Ionization_Penalty>
2.35964

> <r_epik_Ionization_Penalty_Charging>
0

> <r_epik_Ionization_Penalty_Neutral>
2.35964

> <r_epik_State_Penalty>
2.51455

> <r_epik_Charging_Adjusted_Penalty>
2.51455

> <i_epik_Tot_Q>
0

> <i_epik_Tot_abs_Q>
0

> <r_epik_Metal_State_Penalty>
2.51451

> <b_epik_Metal_Only>
0

> <s_lp_Force_Field>
OPLS_2005

> <r_lp_Energy>
22.3921

> <b_lp_Chiralities_Consistent>
1

> <s_lp_Variant>
AV-unprocessed.smi:3166-4

> <Gold.Version>
5.8.1

> <Gold.Id.Protein>
6NUR|6NUR_protein|mol2

> <Gold.PLP.Fitness>
43.3443

> <Gold.PLP.PLP>
-38.8215

> <Gold.PLP.part.hbond>
-1.0000

> <Gold.PLP.part.metal>
0.0000

> <Gold.PLP.part.buried>
-4.9286

> <Gold.PLP.part.nonpolar>
-33.0861

> <Gold.PLP.part.repulsive>
0.0858

> <Gold.PLP.ligand.clash>
0.0000

> <Gold.PLP.ligand.torsion>
0.4995

> <Gold.PLP.Chemscore.Hbond>
0.9120

> <Gold.PLP.Chemscore.CHOScore>
0.9172

> <Gold.PLP.Chemscore.Metal>
0.0000

> <Gold.Chemscore.Hbonds>
donor molecule, donor type, donor heavy atom, donor atom, acceptor molecule, acceptor atom, score
      P1  H  7989  7998       L1    12  0.52
      L1  C     7    26       P1  8028  0.30
      L1  C     7    26       P1  8029  0.14

> <Gold.PLP.Chemscore.Internal.Correction>
0.0342

> <Gold.Rescore>
     Score         DG    S(hbond)    S(metal)    S(lipo)     H(rot)  DE(clash)    DE(int)     intcor
     14.77     -15.23       0.96        0.00     102.31       2.12       0.08       0.39       ----

> <Gold.Chemscore.Fitness>
14.7662

> <Gold.Chemscore.DG>
-15.2344

> <Gold.Chemscore.ZeroCoef>
-5.4800

> <Gold.Chemscore.Hbond>
0.9622

> <Gold.Chemscore.Metal>
0.0000

> <Gold.Chemscore.Lipo>
102.3105

> <Gold.Chemscore.Internal_Hbond>
0.0000

> <Gold.Chemscore.DEClash>
0.0823

> <Gold.Chemscore.DEInternal>
0.3860

> <Gold.Chemscore.Rot>
2.1209

> <Gold.Chemscore.Internal.Correction>
   9.000000E+99

> <Gold.Chemscore.Hbonds>
donor molecule, donor type, donor heavy atom, donor atom, acceptor molecule, acceptor atom, score
      P1  H  7989  7998       L1    12  0.47

> <Gold.Chemscore.Hbond.Weighted>
-3.2137

> <Gold.Chemscore.Metal.Weighted>
-0.0000

> <Gold.Chemscore.Lipo.Weighted>
-11.9703

> <Gold.Chemscore.Internal_Hbond.Weighted>
0.0000

> <Gold.Chemscore.DEClash.Weighted>
0.0823

> <Gold.Chemscore.DEInternal.Weighted>
0.3860

> <Gold.Chemscore.Rot.Weighted>
5.4296

> <Gold.Chemscore.Internal.Correction.Weighted>
   9.000000E+99

> <Gold.Protein.RotatedTorsions>
[ 6907 6896 6895 6894 ] final -149.00 input  -60.11 | X-H torsion
[ 7974 7965 7964 7962 ] final   85.78 input  175.53 | X-H torsion
[ 8008 7997 7996 7995 ] final   38.30 input   59.86 | X-H torsion
[ 10167 10162 10161 10158 ] final -177.21 input  -65.29 | X-H torsion
[ 10718 10713 10712 10709 ] final   14.94 input   66.30 | X-H torsion
[ 10763 10752 10751 10750 ] final    5.87 input  -60.55 | X-H torsion
[ 11005 11000 10999 10996 ] final  -94.65 input  -57.11 | X-H torsion

> <Gold.Protein.ActiveResidues>
 VAL166  LYS551  ARG553  GLY616  TRP617  ASP618  TYR619  PRO620  LYS621  CYS622 
 ASP623  PHE694  ASN695  SER759  ASP760  ASP761  ALA762  ILE779  LEU786  VAL792 
 PHE793  MET794  SER795  GLU796  ALA797  LYS798  CYS799  TRP800  GLU811  SER814 

> <Gold.Protein.RotatedAtoms>
  151.1778  133.4744  159.2593 H   0  0  0  0  0  0  0  0  0  0  0  0  # atno 6907 bound_to 6896
  151.1290  135.0120  159.8583 H   0  0  0  0  0  0  0  0  0  0  0  0  # atno 6908 bound_to 6896
  152.5459  134.1683  159.8639 H   0  0  0  0  0  0  0  0  0  0  0  0  # atno 6909 bound_to 6896
  145.5810  139.2325  143.2352 H   0  0  0  0  0  0  0  0  0  0  0  0  # atno 7974 bound_to 7965
  155.2180  140.3328  155.4319 H   0  0  0  0  0  0  0  0  0  0  0  0  # atno 8008 bound_to 7997
  156.2344  140.1865  156.7205 H   0  0  0  0  0  0  0  0  0  0  0  0  # atno 8009 bound_to 7997
  154.6034  140.0619  156.9384 H   0  0  0  0  0  0  0  0  0  0  0  0  # atno 8010 bound_to 7997
  139.5491  144.2157  152.1044 H   0  0  0  0  0  0  0  0  0  0  0  0  # atno 10167 bound_to 10162
  157.0464  130.6252  149.5760 H   0  0  0  0  0  0  0  0  0  0  0  0  # atno 10718 bound_to 10713
  153.2544  135.6917  153.7645 H   0  0  0  0  0  0  0  0  0  0  0  0  # atno 10763 bound_to 10752
  153.6728  135.3341  155.3158 H   0  0  0  0  0  0  0  0  0  0  0  0  # atno 10764 bound_to 10752
  154.8406  135.4504  154.1512 H   0  0  0  0  0  0  0  0  0  0  0  0  # atno 10765 bound_to 10752
  141.1464  133.7971  157.0328 H   0  0  0  0  0  0  0  0  0  0  0  0  # atno 11005 bound_to 11000
  146.1716  140.6637  142.9230 LP  0  0  0  0  0  0  0  0  0  0  0  0  # atno 17320 bound_to 7965
  144.7394  140.4899  143.6880 LP  0  0  0  0  0  0  0  0  0  0  0  0  # atno 17321 bound_to 7965
  140.1649  144.4991  150.6612 LP  0  0  0  0  0  0  0  0  0  0  0  0  # atno 17342 bound_to 10162
  140.6748  143.2300  151.5534 LP  0  0  0  0  0  0  0  0  0  0  0  0  # atno 17343 bound_to 10162
  156.0021  130.5102  150.7702 LP  0  0  0  0  0  0  0  0  0  0  0  0  # atno 17370 bound_to 10713
  157.5065  131.0922  151.0251 LP  0  0  0  0  0  0  0  0  0  0  0  0  # atno 17371 bound_to 10713
  140.0743  134.9684  157.1520 LP  0  0  0  0  0  0  0  0  0  0  0  0  # atno 17394 bound_to 11000
  140.3666  134.2436  155.7182 LP  0  0  0  0  0  0  0  0  0  0  0  0  # atno 17395 bound_to 11000

$$$$
