AV-unprocessed.smi:1222|AV-procd|sdf|5120|dock4
  -GOLD-   22720 4183D 1   1.00000     0.00000
 Structure written by MMmdl.
 37 39  0  0  0  0  0  0  0  0  2 V2000
  150.3727  134.1630  155.6360 O   0  0  0  0  0  0  0  0  0  0  0  0
  149.9699  134.7313  154.6208 C   0  0  0  0  0  0  0  0  0  0  0  0
  150.3357  135.9614  154.2198 N   0  0  0  0  0  0  0  0  0  0  0  0
  151.2498  136.8514  154.8426 C   0  0  0  0  0  0  0  0  0  0  0  0
  152.0696  136.5121  155.8440 N   0  0  0  0  0  0  0  0  0  0  0  0
  152.8617  137.5854  156.2594 C   0  0  0  0  0  0  0  0  0  0  0  0
  152.6305  138.7426  155.5579 C   0  0  0  0  0  0  0  0  0  0  0  0
  151.4011  138.5291  154.3404 S   0  0  0  0  0  0  0  0  0  0  0  0
  149.0947  134.1809  153.7665 N   0  0  0  0  0  0  0  0  0  0  0  0
  148.4955  132.8579  153.9168 C   0  0  2  0  0  0  0  0  0  0  0  0
  149.5585  131.7511  153.7777 C   0  0  0  0  0  0  0  0  0  0  0  0
  148.9164  130.3550  153.8309 C   0  0  0  0  0  0  0  0  0  0  0  0
  147.8678  130.2108  152.7910 N   0  3  1  0  0  0  0  0  0  0  0  0
  147.3132  128.8404  152.7446 C   0  0  0  0  0  0  0  0  0  0  0  0
  148.0156  127.9335  151.7609 C   0  0  0  0  0  0  0  0  0  0  0  0
  146.6512  128.4967  151.4306 C   0  0  0  0  0  0  0  0  0  0  0  0
  146.8073  131.2392  152.9339 C   0  0  0  0  0  0  0  0  0  0  0  0
  147.3993  132.6567  152.8574 C   0  0  0  0  0  0  0  0  0  0  0  0
  149.9148  136.3010  153.3678 H   0  0  0  0  0  0  0  0  0  0  0  0
  153.5665  137.4369  157.0640 H   0  0  0  0  0  0  0  0  0  0  0  0
  153.1074  139.7034  155.6830 H   0  0  0  0  0  0  0  0  0  0  0  0
  148.8198  134.7180  152.9571 H   0  0  0  0  0  0  0  0  0  0  0  0
  148.0339  132.7875  154.9040 H   0  0  0  0  0  0  0  0  0  0  0  0
  150.0949  131.8679  152.8349 H   0  0  0  0  0  0  0  0  0  0  0  0
  150.3033  131.8394  154.5695 H   0  0  0  0  0  0  0  0  0  0  0  0
  149.6855  129.5961  153.6833 H   0  0  0  0  0  0  0  0  0  0  0  0
  148.4820  130.1777  154.8161 H   0  0  0  0  0  0  0  0  0  0  0  0
  146.9224  128.4441  153.6804 H   0  0  0  0  0  0  0  0  0  0  0  0
  148.8681  128.3291  151.2116 H   0  0  0  0  0  0  0  0  0  0  0  0
  148.0711  126.8744  152.0048 H   0  0  0  0  0  0  0  0  0  0  0  0
  145.8088  127.8085  151.4579 H   0  0  0  0  0  0  0  0  0  0  0  0
  146.5989  129.2652  150.6615 H   0  0  0  0  0  0  0  0  0  0  0  0
  146.0651  131.1122  152.1450 H   0  0  0  0  0  0  0  0  0  0  0  0
  146.2874  131.0990  153.8830 H   0  0  0  0  0  0  0  0  0  0  0  0
  146.6073  133.3943  152.9927 H   0  0  0  0  0  0  0  0  0  0  0  0
  147.8099  132.8229  151.8600 H   0  0  0  0  0  0  0  0  0  0  0  0
  148.3148  130.3731  151.9001 H   0  0  0  0  0  0  0  0  0  0  0  0
  1  2  2  0  0  0  0
  2  3  1  0  0  0  0
  2  9  1  0  0  0  0
  3  4  1  0  0  0  0
  3 19  1  0  0  0  0
  4  8  1  0  0  0  0
  4  5  2  0  0  0  0
  5  6  1  0  0  0  0
  6  7  2  0  0  0  0
  6 20  1  0  0  0  0
  7  8  1  0  0  0  0
  7 21  1  0  0  0  0
  9 10  1  0  0  0  0
  9 22  1  0  0  0  0
 10 18  1  0  0  0  0
 10 11  1  0  0  0  0
 10 23  1  0  0  0  0
 11 12  1  0  0  0  0
 11 24  1  0  0  0  0
 11 25  1  0  0  0  0
 12 13  1  0  0  0  0
 12 26  1  0  0  0  0
 12 27  1  0  0  0  0
 13 14  1  0  0  0  0
 13 17  1  0  0  0  0
 13 37  1  0  0  0  0
 14 16  1  0  0  0  0
 14 15  1  0  0  0  0
 14 28  1  0  0  0  0
 15 16  1  0  0  0  0
 15 29  1  0  0  0  0
 15 30  1  0  0  0  0
 16 31  1  0  0  0  0
 16 32  1  0  0  0  0
 17 18  1  0  0  0  0
 17 33  1  0  0  0  0
 17 34  1  0  0  0  0
 18 35  1  0  0  0  0
 18 36  1  0  0  0  0
M  CHG  1  13   1
M  END
> <s_m_source_file>
AV-unprocessed.smi

> <i_m_source_file_index>
1222

> <i_lp_mmshare_version>
43012

> <i_f3d_flags>
0

> <s_epik_input>
czFbY0hdW2NIXW5jMVtOSF1DKD1PKVtOSF1bQ0hdMltDSDJdW0NIMl1OKFtDSDJdW0NIMl0yKVtDSF0zW0NIMl1bQ0gyXTM=

> <s_epik_cmdline>
J2VwaWtfcHl0aG9uJywgJy1waCcsICc3LjAnLCAnLXRuJywgJzgnLCAnLW1hJywgJzIwMCcsICctbWV0YWxfYmluZGluZycsICctaW1hZScsICc8aW5maWxlLm1hZT4nLCAnLW9tYWUnLCAnPG91dGZpbGUubWFlPic=

> <r_lp_tautomer_probability>
0.999

> <r_epik_Ionization_Penalty>
0.124652

> <r_epik_Ionization_Penalty_Charging>
0.124514

> <r_epik_Ionization_Penalty_Neutral>
0.000138693

> <r_epik_State_Penalty>
0.113992

> <r_epik_Charging_Adjusted_Penalty>
0.238505

> <i_epik_Tot_Q>
1

> <i_epik_Tot_abs_Q>
1

> <r_epik_Metal_State_Penalty>
0.160715

> <b_epik_Metal_Only>
0

> <s_lp_Force_Field>
OPLS_2005

> <r_lp_Energy>
23.5858

> <b_lp_Chiralities_Consistent>
1

> <s_lp_Variant>
AV-unprocessed.smi:1222-1

> <Gold.Version>
5.8.1

> <Gold.Id.Protein>
6NUR|6NUR_protein|mol2

> <Gold.PLP.Fitness>
46.6654

> <Gold.PLP.PLP>
-34.8690

> <Gold.PLP.part.hbond>
-5.0000

> <Gold.PLP.part.metal>
0.0000

> <Gold.PLP.part.buried>
-3.4944

> <Gold.PLP.part.nonpolar>
-26.1568

> <Gold.PLP.part.repulsive>
0.1348

> <Gold.PLP.ligand.clash>
0.0000

> <Gold.PLP.ligand.torsion>
0.7211

> <Gold.PLP.Chemscore.Hbond>
3.9920

> <Gold.PLP.Chemscore.CHOScore>
0.0000

> <Gold.PLP.Chemscore.Metal>
0.0000

> <Gold.Chemscore.Hbonds>
donor molecule, donor type, donor heavy atom, donor atom, acceptor molecule, acceptor atom, score
      L1  H     3    19       P1  7948  0.70
      L1  H     9    22       P1  7948  0.80
      L1  H    13    37       P1 10747  1.00
      P1  H 10752 10765       L1     5  0.98

> <Gold.PLP.Chemscore.Internal.Correction>
1.2626

> <Gold.Rescore>
     Score         DG    S(hbond)    S(metal)    S(lipo)     H(rot)  DE(clash)    DE(int)     intcor
     18.69     -20.72       3.03        0.00      71.28       1.26       0.03       1.99       ----

> <Gold.Chemscore.Fitness>
18.6933

> <Gold.Chemscore.DG>
-20.7157

> <Gold.Chemscore.ZeroCoef>
-5.4800

> <Gold.Chemscore.Hbond>
3.0310

> <Gold.Chemscore.Metal>
0.0000

> <Gold.Chemscore.Lipo>
71.2823

> <Gold.Chemscore.Internal_Hbond>
0.0000

> <Gold.Chemscore.DEClash>
0.0331

> <Gold.Chemscore.DEInternal>
1.9894

> <Gold.Chemscore.Rot>
1.2609

> <Gold.Chemscore.Internal.Correction>
   9.000000E+99

> <Gold.Chemscore.Hbonds>
donor molecule, donor type, donor heavy atom, donor atom, acceptor molecule, acceptor atom, score
      L1  H     3    19       P1  7948  0.07
      L1  H     9    22       P1  7948  0.11
      L1  H    13    37       P1 10747  0.93
      P1  H 10752 10765       L1     5  0.15

> <Gold.Chemscore.Hbond.Weighted>
-10.1236

> <Gold.Chemscore.Metal.Weighted>
-0.0000

> <Gold.Chemscore.Lipo.Weighted>
-8.3400

> <Gold.Chemscore.Internal_Hbond.Weighted>
0.0000

> <Gold.Chemscore.DEClash.Weighted>
0.0331

> <Gold.Chemscore.DEInternal.Weighted>
1.9894

> <Gold.Chemscore.Rot.Weighted>
3.2279

> <Gold.Chemscore.Internal.Correction.Weighted>
   9.000000E+99

> <Gold.Protein.RotatedTorsions>
[ 6907 6896 6895 6894 ] final  -54.56 input  -60.11 | X-H torsion
[ 7974 7965 7964 7962 ] final   61.02 input  175.53 | X-H torsion
[ 8008 7997 7996 7995 ] final   49.70 input   59.86 | X-H torsion
[ 10167 10162 10161 10158 ] final  154.75 input  -65.29 | X-H torsion
[ 10718 10713 10712 10709 ] final  -67.24 input   66.30 | X-H torsion
[ 10763 10752 10751 10750 ] final -139.76 input  -60.55 | X-H torsion
[ 11005 11000 10999 10996 ] final   44.42 input  -57.11 | X-H torsion

> <Gold.Protein.ActiveResidues>
 VAL166  LYS551  ARG553  GLY616  TRP617  ASP618  TYR619  PRO620  LYS621  CYS622 
 ASP623  PHE694  ASN695  SER759  ASP760  ASP761  ALA762  ILE779  LEU786  VAL792 
 PHE793  MET794  SER795  GLU796  ALA797  LYS798  CYS799  TRP800  GLU811  SER814 

> <Gold.Protein.RotatedAtoms>
  150.8327  134.7588  159.6867 H   0  0  0  0  0  0  0  0  0  0  0  0  # atno 6907 bound_to 6896
  152.4429  134.5550  159.9887 H   0  0  0  0  0  0  0  0  0  0  0  0  # atno 6908 bound_to 6896
  151.5707  133.3352  159.3025 H   0  0  0  0  0  0  0  0  0  0  0  0  # atno 6909 bound_to 6896
  145.8895  139.3501  143.0658 H   0  0  0  0  0  0  0  0  0  0  0  0  # atno 7974 bound_to 7965
  155.4066  140.3440  155.4260 H   0  0  0  0  0  0  0  0  0  0  0  0  # atno 8008 bound_to 7997
  156.1473  140.1560  156.8858 H   0  0  0  0  0  0  0  0  0  0  0  0  # atno 8009 bound_to 7997
  154.5021  140.0812  156.7801 H   0  0  0  0  0  0  0  0  0  0  0  0  # atno 8010 bound_to 7997
  139.4822  144.5159  151.7951 H   0  0  0  0  0  0  0  0  0  0  0  0  # atno 10167 bound_to 10162
  156.0568  130.4275  150.1825 H   0  0  0  0  0  0  0  0  0  0  0  0  # atno 10718 bound_to 10713
  154.8599  135.3573  154.5599 H   0  0  0  0  0  0  0  0  0  0  0  0  # atno 10763 bound_to 10752
  153.6214  135.7006  153.5314 H   0  0  0  0  0  0  0  0  0  0  0  0  # atno 10764 bound_to 10752
  153.3125  135.4174  155.1308 H   0  0  0  0  0  0  0  0  0  0  0  0  # atno 10765 bound_to 10752
  140.1553  134.4409  155.8353 H   0  0  0  0  0  0  0  0  0  0  0  0  # atno 11005 bound_to 11000
  145.8926  140.9294  143.0544 LP  0  0  0  0  0  0  0  0  0  0  0  0  # atno 17320 bound_to 7965
  144.6730  140.0925  143.7464 LP  0  0  0  0  0  0  0  0  0  0  0  0  # atno 17321 bound_to 7965
  140.4668  144.1644  150.5913 LP  0  0  0  0  0  0  0  0  0  0  0  0  # atno 17342 bound_to 10162
  140.4425  143.2520  151.9454 LP  0  0  0  0  0  0  0  0  0  0  0  0  # atno 17343 bound_to 10162
  156.9900  130.9890  151.3417 LP  0  0  0  0  0  0  0  0  0  0  0  0  # atno 17370 bound_to 10713
  157.5545  130.8204  149.8187 LP  0  0  0  0  0  0  0  0  0  0  0  0  # atno 17371 bound_to 10713
  141.2204  133.6890  156.7497 LP  0  0  0  0  0  0  0  0  0  0  0  0  # atno 17394 bound_to 11000
  140.2554  134.8508  157.3708 LP  0  0  0  0  0  0  0  0  0  0  0  0  # atno 17395 bound_to 11000

$$$$
