AV-unprocessed.smi:1999|AV-procd|sdf|8095|dock4
  -GOLD-   2272010313D 1   1.00000     0.00000
 Structure written by MMmdl.
 39 40  0  0  0  0  0  0  0  0  2 V2000
  151.8635  141.5072  158.3108 C   0  0  0  0  0  0  0  0  0  0  0  0
  151.6099  140.6137  157.1450 C   0  0  0  0  0  0  0  0  0  0  0  0
  151.4300  141.0822  155.9040 N   0  0  0  0  0  0  0  0  0  0  0  0
  151.2081  140.0662  154.9852 N   0  0  0  0  0  0  0  0  0  0  0  0
  151.2291  138.8571  155.5626 C   0  0  0  0  0  0  0  0  0  0  0  0
  151.0218  137.6426  154.8565 N   0  0  0  0  0  0  0  0  0  0  0  0
  150.5176  136.4865  155.3218 C   0  0  0  0  0  0  0  0  0  0  0  0
  150.0993  136.3013  156.4647 O   0  0  0  0  0  0  0  0  0  0  0  0
  150.5325  135.5334  154.3777 N   0  0  0  0  0  0  0  0  0  0  0  0
  150.0356  134.1645  154.5278 C   0  0  1  0  0  0  0  0  0  0  0  0
  150.8127  133.4753  155.6576 C   0  0  0  0  0  0  0  0  0  0  0  0
  148.5131  134.1381  154.8011 C   0  0  0  0  0  0  0  0  0  0  0  0
  147.6948  134.3050  153.5732 N   0  3  0  0  0  0  0  0  0  0  0  0
  147.7396  133.1318  152.6669 C   0  0  0  0  0  0  0  0  0  0  0  0
  146.9389  133.4213  151.3867 C   0  0  0  0  0  0  0  0  0  0  0  0
  145.5989  133.7527  151.7308 O   0  0  0  0  0  0  0  0  0  0  0  0
  145.5291  134.9202  152.5405 C   0  0  0  0  0  0  0  0  0  0  0  0
  146.2916  134.6862  153.8561 C   0  0  0  0  0  0  0  0  0  0  0  0
  151.5173  138.8626  157.2940 S   0  0  0  0  0  0  0  0  0  0  0  0
  152.6717  142.2026  158.0830 H   0  0  0  0  0  0  0  0  0  0  0  0
  152.1457  140.9203  159.1852 H   0  0  0  0  0  0  0  0  0  0  0  0
  150.9647  142.0770  158.5467 H   0  0  0  0  0  0  0  0  0  0  0  0
  151.3017  137.6543  153.8867 H   0  0  0  0  0  0  0  0  0  0  0  0
  150.8950  135.7805  153.4682 H   0  0  0  0  0  0  0  0  0  0  0  0
  150.2488  133.6073  153.6146 H   0  0  0  0  0  0  0  0  0  0  0  0
  150.4968  132.4384  155.7750 H   0  0  0  0  0  0  0  0  0  0  0  0
  150.6598  133.9791  156.6128 H   0  0  0  0  0  0  0  0  0  0  0  0
  151.8837  133.4694  155.4516 H   0  0  0  0  0  0  0  0  0  0  0  0
  148.2268  133.2135  155.3052 H   0  0  0  0  0  0  0  0  0  0  0  0
  148.2807  134.9453  155.4976 H   0  0  0  0  0  0  0  0  0  0  0  0
  148.7690  132.8918  152.4031 H   0  0  0  0  0  0  0  0  0  0  0  0
  147.3282  132.2580  153.1744 H   0  0  0  0  0  0  0  0  0  0  0  0
  147.3942  134.2328  150.8163 H   0  0  0  0  0  0  0  0  0  0  0  0
  146.9318  132.5429  150.7411 H   0  0  0  0  0  0  0  0  0  0  0  0
  145.9383  135.7760  152.0007 H   0  0  0  0  0  0  0  0  0  0  0  0
  144.4825  135.1449  152.7470 H   0  0  0  0  0  0  0  0  0  0  0  0
  145.8076  133.9001  154.4380 H   0  0  0  0  0  0  0  0  0  0  0  0
  146.2675  135.5951  154.4583 H   0  0  0  0  0  0  0  0  0  0  0  0
  148.0995  135.0798  153.0662 H   0  0  0  0  0  0  0  0  0  0  0  0
  1  2  1  0  0  0  0
  1 20  1  0  0  0  0
  1 21  1  0  0  0  0
  1 22  1  0  0  0  0
  2 19  1  0  0  0  0
  2  3  2  0  0  0  0
  3  4  1  0  0  0  0
  4  5  2  0  0  0  0
  5  6  1  0  0  0  0
  5 19  1  0  0  0  0
  6  7  1  0  0  0  0
  6 23  1  0  0  0  0
  7  8  2  0  0  0  0
  7  9  1  0  0  0  0
  9 10  1  0  0  0  0
  9 24  1  0  0  0  0
 10 11  1  0  0  0  0
 10 12  1  0  0  0  0
 10 25  1  0  0  0  0
 11 26  1  0  0  0  0
 11 27  1  0  0  0  0
 11 28  1  0  0  0  0
 12 13  1  0  0  0  0
 12 29  1  0  0  0  0
 12 30  1  0  0  0  0
 13 18  1  0  0  0  0
 13 14  1  0  0  0  0
 13 39  1  0  0  0  0
 14 15  1  0  0  0  0
 14 31  1  0  0  0  0
 14 32  1  0  0  0  0
 15 16  1  0  0  0  0
 15 33  1  0  0  0  0
 15 34  1  0  0  0  0
 16 17  1  0  0  0  0
 17 18  1  0  0  0  0
 17 35  1  0  0  0  0
 17 36  1  0  0  0  0
 18 37  1  0  0  0  0
 18 38  1  0  0  0  0
M  CHG  1  13   1
M  END
> <s_m_source_file>
AV-unprocessed.smi

> <i_m_source_file_index>
1999

> <i_lp_mmshare_version>
43012

> <i_f3d_flags>
0

> <s_epik_input>
W0NIM11jMW5uYyhzMSlbTkhdQyg9TylbTkhdW0NASF0oW0NIM10pW0NIMl1OMltDSDJdW0NIMl1PW0NIMl1bQ0gyXTI=

> <s_epik_cmdline>
J2VwaWtfcHl0aG9uJywgJy1waCcsICc3LjAnLCAnLXRuJywgJzgnLCAnLW1hJywgJzIwMCcsICctbWV0YWxfYmluZGluZycsICctaW1hZScsICc8aW5maWxlLm1hZT4nLCAnLW9tYWUnLCAnPG91dGZpbGUubWFlPic=

> <r_lp_tautomer_probability>
1

> <r_epik_Ionization_Penalty>
0.701298

> <r_epik_Ionization_Penalty_Charging>
0.695697

> <r_epik_Ionization_Penalty_Neutral>
0.00560124

> <r_epik_State_Penalty>
0.717972

> <r_epik_Charging_Adjusted_Penalty>
1.41367

> <i_epik_Tot_Q>
1

> <i_epik_Tot_abs_Q>
1

> <r_epik_Metal_State_Penalty>
1.07748

> <b_epik_Metal_Only>
0

> <s_lp_Force_Field>
OPLS_2005

> <r_lp_Energy>
20.3005

> <b_lp_Chiralities_Consistent>
1

> <s_lp_Variant>
AV-unprocessed.smi:1999-4

> <Gold.Version>
5.8.1

> <Gold.Id.Protein>
6NUR|6NUR_protein|mol2

> <Gold.PLP.Fitness>
35.9205

> <Gold.PLP.PLP>
-25.5645

> <Gold.PLP.part.hbond>
-4.7266

> <Gold.PLP.part.metal>
0.0000

> <Gold.PLP.part.buried>
-4.0382

> <Gold.PLP.part.nonpolar>
-16.8056

> <Gold.PLP.part.repulsive>
0.4011

> <Gold.PLP.ligand.clash>
0.0000

> <Gold.PLP.ligand.torsion>
0.4714

> <Gold.PLP.Chemscore.Hbond>
3.7500

> <Gold.PLP.Chemscore.CHOScore>
0.0000

> <Gold.PLP.Chemscore.Metal>
0.0000

> <Gold.Chemscore.Hbonds>
donor molecule, donor type, donor heavy atom, donor atom, acceptor molecule, acceptor atom, score
      L1  H     9    24       P1  7949  0.70
      L1  H    13    39       P1  7948  2.00
      P1  H  7989  7998       L1     4  1.00

> <Gold.PLP.Chemscore.Internal.Correction>
0.0489

> <Gold.Rescore>
     Score         DG    S(hbond)    S(metal)    S(lipo)     H(rot)  DE(clash)    DE(int)     intcor
     11.64     -12.98       1.70        0.00      51.24       1.63       0.07       1.27       ----

> <Gold.Chemscore.Fitness>
11.6410

> <Gold.Chemscore.DG>
-12.9762

> <Gold.Chemscore.ZeroCoef>
-5.4800

> <Gold.Chemscore.Hbond>
1.7001

> <Gold.Chemscore.Metal>
0.0000

> <Gold.Chemscore.Lipo>
51.2388

> <Gold.Chemscore.Internal_Hbond>
0.0000

> <Gold.Chemscore.DEClash>
0.0655

> <Gold.Chemscore.DEInternal>
1.2697

> <Gold.Chemscore.Rot>
1.6317

> <Gold.Chemscore.Internal.Correction>
   9.000000E+99

> <Gold.Chemscore.Hbonds>
donor molecule, donor type, donor heavy atom, donor atom, acceptor molecule, acceptor atom, score
      L1  H     9    24       P1  7949  0.07
      L1  H    13    39       P1  7948  0.97
      P1  H  7989  7998       L1     4  0.30

> <Gold.Chemscore.Hbond.Weighted>
-5.6785

> <Gold.Chemscore.Metal.Weighted>
-0.0000

> <Gold.Chemscore.Lipo.Weighted>
-5.9949

> <Gold.Chemscore.Internal_Hbond.Weighted>
0.0000

> <Gold.Chemscore.DEClash.Weighted>
0.0655

> <Gold.Chemscore.DEInternal.Weighted>
1.2697

> <Gold.Chemscore.Rot.Weighted>
4.1773

> <Gold.Chemscore.Internal.Correction.Weighted>
   9.000000E+99

> <Gold.Protein.RotatedTorsions>
[ 6907 6896 6895 6894 ] final  -53.17 input  -60.11 | X-H torsion
[ 7974 7965 7964 7962 ] final  -98.55 input  175.53 | X-H torsion
[ 8008 7997 7996 7995 ] final -134.39 input   59.86 | X-H torsion
[ 10167 10162 10161 10158 ] final  100.41 input  -65.29 | X-H torsion
[ 10718 10713 10712 10709 ] final -156.00 input   66.30 | X-H torsion
[ 10763 10752 10751 10750 ] final -162.02 input  -60.55 | X-H torsion
[ 11005 11000 10999 10996 ] final   31.15 input  -57.11 | X-H torsion

> <Gold.Protein.ActiveResidues>
 VAL166  LYS551  ARG553  GLY616  TRP617  ASP618  TYR619  PRO620  LYS621  CYS622 
 ASP623  PHE694  ASN695  SER759  ASP760  ASP761  ALA762  ILE779  LEU786  VAL792 
 PHE793  MET794  SER795  GLU796  ALA797  LYS798  CYS799  TRP800  GLU811  SER814 

> <Gold.Protein.RotatedAtoms>
  150.8451  134.7757  159.6963 H   0  0  0  0  0  0  0  0  0  0  0  0  # atno 6907 bound_to 6896
  152.4530  134.5350  159.9832 H   0  0  0  0  0  0  0  0  0  0  0  0  # atno 6908 bound_to 6896
  151.5482  133.3384  159.2984 H   0  0  0  0  0  0  0  0  0  0  0  0  # atno 6909 bound_to 6896
  145.3192  140.9418  143.2725 H   0  0  0  0  0  0  0  0  0  0  0  0  # atno 7974 bound_to 7965
  155.3613  140.0483  157.3046 H   0  0  0  0  0  0  0  0  0  0  0  0  # atno 8008 bound_to 7997
  154.5176  140.2214  155.8999 H   0  0  0  0  0  0  0  0  0  0  0  0  # atno 8009 bound_to 7997
  156.1654  140.3107  155.8885 H   0  0  0  0  0  0  0  0  0  0  0  0  # atno 8010 bound_to 7997
  139.7530  144.6978  151.0404 H   0  0  0  0  0  0  0  0  0  0  0  0  # atno 10167 bound_to 10162
  156.5205  130.8476  151.2680 H   0  0  0  0  0  0  0  0  0  0  0  0  # atno 10718 bound_to 10713
  154.7252  135.3034  154.8983 H   0  0  0  0  0  0  0  0  0  0  0  0  # atno 10763 bound_to 10752
  153.9843  135.6726  153.4755 H   0  0  0  0  0  0  0  0  0  0  0  0  # atno 10764 bound_to 10752
  153.0868  135.4980  154.8532 H   0  0  0  0  0  0  0  0  0  0  0  0  # atno 10765 bound_to 10752
  140.2869  134.2909  155.7786 H   0  0  0  0  0  0  0  0  0  0  0  0  # atno 11005 bound_to 11000
  144.8953  139.4720  143.6658 LP  0  0  0  0  0  0  0  0  0  0  0  0  # atno 17320 bound_to 7965
  146.3089  139.7675  142.9035 LP  0  0  0  0  0  0  0  0  0  0  0  0  # atno 17321 bound_to 7965
  140.7800  143.4786  151.0048 LP  0  0  0  0  0  0  0  0  0  0  0  0  # atno 17342 bound_to 10162
  139.8474  143.7483  152.3179 LP  0  0  0  0  0  0  0  0  0  0  0  0  # atno 17343 bound_to 10162
  157.7437  130.9919  150.2617 LP  0  0  0  0  0  0  0  0  0  0  0  0  # atno 17370 bound_to 10713
  156.3154  130.3778  149.7623 LP  0  0  0  0  0  0  0  0  0  0  0  0  # atno 17371 bound_to 10713
  141.2153  133.7560  156.9565 LP  0  0  0  0  0  0  0  0  0  0  0  0  # atno 17394 bound_to 11000
  140.1232  134.9404  157.2232 LP  0  0  0  0  0  0  0  0  0  0  0  0  # atno 17395 bound_to 11000

$$$$
