AV-unprocessed.smi:930|AV-procd|sdf|4197|dock1
  -GOLD-   22720 2103D 1   1.00000     0.00000
 Structure written by MMmdl.
 31 32  0  0  0  0  0  0  0  0  2 V2000
  146.0059  138.0179  152.4023 C   0  0  0  0  0  0  0  0  0  0  0  0
  146.9341  138.8520  153.2164 C   0  0  0  0  0  0  0  0  0  0  0  0
  148.0247  138.3546  153.8041 N   0  0  0  0  0  0  0  0  0  0  0  0
  148.7305  139.3241  154.5022 N   0  0  0  0  0  0  0  0  0  0  0  0
  148.1710  140.5398  154.4253 C   0  0  0  0  0  0  0  0  0  0  0  0
  148.6984  141.6146  155.0346 N   0  5  0  0  0  0  0  0  0  0  0  0
  149.9257  141.5379  155.5981 C   0  0  0  0  0  0  0  0  0  0  0  0
  150.8278  140.7598  155.2793 O   0  0  0  0  0  0  0  0  0  0  0  0
  150.1193  142.4177  156.5916 N   0  0  0  0  0  0  0  0  0  0  0  0
  151.3407  142.5749  157.3774 C   0  0  0  0  0  0  0  0  0  0  0  0
  151.4220  141.4986  158.4801 C   0  0  0  0  0  0  0  0  0  0  0  0
  152.6626  141.6951  159.3665 C   0  0  0  0  0  0  0  0  0  0  0  0
  152.6993  143.1073  159.9716 C   0  0  0  0  0  0  0  0  0  0  0  0
  152.6237  144.1815  158.8755 C   0  0  0  0  0  0  0  0  0  0  0  0
  151.3819  143.9876  157.9900 C   0  0  0  0  0  0  0  0  0  0  0  0
  146.6836  140.5697  153.4780 S   0  0  0  0  0  0  0  0  0  0  0  0
  146.4181  137.8686  151.4042 H   0  0  0  0  0  0  0  0  0  0  0  0
  145.0369  138.5087  152.3118 H   0  0  0  0  0  0  0  0  0  0  0  0
  145.8606  137.0450  152.8725 H   0  0  0  0  0  0  0  0  0  0  0  0
  149.3505  143.0309  156.8197 H   0  0  0  0  0  0  0  0  0  0  0  0
  152.2038  142.4698  156.7174 H   0  0  0  0  0  0  0  0  0  0  0  0
  150.5247  141.5365  159.0995 H   0  0  0  0  0  0  0  0  0  0  0  0
  151.4467  140.5032  158.0350 H   0  0  0  0  0  0  0  0  0  0  0  0
  152.6726  140.9493  160.1617 H   0  0  0  0  0  0  0  0  0  0  0  0
  153.5628  141.5279  158.7740 H   0  0  0  0  0  0  0  0  0  0  0  0
  151.8645  143.2304  160.6627 H   0  0  0  0  0  0  0  0  0  0  0  0
  153.6089  143.2372  160.5584 H   0  0  0  0  0  0  0  0  0  0  0  0
  152.6066  145.1736  159.3274 H   0  0  0  0  0  0  0  0  0  0  0  0
  153.5221  144.1378  158.2587 H   0  0  0  0  0  0  0  0  0  0  0  0
  151.3753  144.7381  157.1987 H   0  0  0  0  0  0  0  0  0  0  0  0
  150.4840  144.1589  158.5856 H   0  0  0  0  0  0  0  0  0  0  0  0
  1  2  1  0  0  0  0
  1 17  1  0  0  0  0
  1 18  1  0  0  0  0
  1 19  1  0  0  0  0
  2 16  1  0  0  0  0
  2  3  2  0  0  0  0
  3  4  1  0  0  0  0
  4  5  2  0  0  0  0
  5  6  1  0  0  0  0
  5 16  1  0  0  0  0
  6  7  1  0  0  0  0
  7  8  2  0  0  0  0
  7  9  1  0  0  0  0
  9 10  1  0  0  0  0
  9 20  1  0  0  0  0
 10 15  1  0  0  0  0
 10 11  1  0  0  0  0
 10 21  1  0  0  0  0
 11 12  1  0  0  0  0
 11 22  1  0  0  0  0
 11 23  1  0  0  0  0
 12 13  1  0  0  0  0
 12 24  1  0  0  0  0
 12 25  1  0  0  0  0
 13 14  1  0  0  0  0
 13 26  1  0  0  0  0
 13 27  1  0  0  0  0
 14 15  1  0  0  0  0
 14 28  1  0  0  0  0
 14 29  1  0  0  0  0
 15 30  1  0  0  0  0
 15 31  1  0  0  0  0
M  CHG  1   6  -1
M  END
> <s_m_source_file>
AV-unprocessed.smi

> <i_m_source_file_index>
930

> <i_lp_mmshare_version>
43012

> <i_f3d_flags>
0

> <s_epik_input>
W0NIM11jMW5uYyhzMSlbTkhdQyg9TylbTkhdW0NIXTJbQ0gyXVtDSDJdW0NIMl1bQ0gyXVtDSDJdMg==

> <s_epik_cmdline>
J2VwaWtfcHl0aG9uJywgJy1waCcsICc3LjAnLCAnLXRuJywgJzgnLCAnLW1hJywgJzIwMCcsICctbWV0YWxfYmluZGluZycsICctaW1hZScsICc8aW5maWxlLm1hZT4nLCAnLW9tYWUnLCAnPG91dGZpbGUubWFlPic=

> <r_lp_tautomer_probability>
1

> <r_epik_Ionization_Penalty>
4.57239

> <r_epik_Ionization_Penalty_Charging>
4.41779

> <r_epik_Ionization_Penalty_Neutral>
0.154599

> <r_epik_State_Penalty>
4.41745

> <r_epik_Charging_Adjusted_Penalty>
8.83524

> <i_epik_Tot_Q>
-1

> <i_epik_Tot_abs_Q>
1

> <r_epik_Metal_State_Penalty>
0.779681

> <b_epik_Metal_Only>
1

> <s_lp_Force_Field>
OPLS_2005

> <r_lp_Energy>
6.76033

> <b_lp_Chiralities_Consistent>
1

> <s_lp_Variant>
AV-unprocessed.smi:930-2

> <Gold.Version>
5.8.1

> <Gold.Id.Protein>
6NUR|6NUR_protein|mol2

> <Gold.PLP.Fitness>
39.9878

> <Gold.PLP.PLP>
-35.2583

> <Gold.PLP.part.hbond>
-2.2627

> <Gold.PLP.part.metal>
0.0000

> <Gold.PLP.part.buried>
-4.5054

> <Gold.PLP.part.nonpolar>
-29.8407

> <Gold.PLP.part.repulsive>
0.8787

> <Gold.PLP.ligand.clash>
0.0000

> <Gold.PLP.ligand.torsion>
0.4605

> <Gold.PLP.Chemscore.Hbond>
1.8800

> <Gold.PLP.Chemscore.CHOScore>
0.0000

> <Gold.PLP.Chemscore.Metal>
0.0000

> <Gold.Chemscore.Hbonds>
donor molecule, donor type, donor heavy atom, donor atom, acceptor molecule, acceptor atom, score
      L1  H     9    20       P1  8028  0.37
      P1  H  7989  7998       L1     8  0.85

> <Gold.PLP.Chemscore.Internal.Correction>
0.0105

> <Gold.Rescore>
     Score         DG    S(hbond)    S(metal)    S(lipo)     H(rot)  DE(clash)    DE(int)     intcor
     15.57     -17.59       1.38        0.00      85.91       1.00       0.25       1.77       ----

> <Gold.Chemscore.Fitness>
15.5656

> <Gold.Chemscore.DG>
-17.5879

> <Gold.Chemscore.ZeroCoef>
-5.4800

> <Gold.Chemscore.Hbond>
1.3821

> <Gold.Chemscore.Metal>
0.0000

> <Gold.Chemscore.Lipo>
85.9125

> <Gold.Chemscore.Internal_Hbond>
0.0000

> <Gold.Chemscore.DEClash>
0.2525

> <Gold.Chemscore.DEInternal>
1.7698

> <Gold.Chemscore.Rot>
1.0000

> <Gold.Chemscore.Internal.Correction>
   9.000000E+99

> <Gold.Chemscore.Hbonds>
donor molecule, donor type, donor heavy atom, donor atom, acceptor molecule, acceptor atom, score
      L1  H     9    20       P1  8028  0.38
      P1  H  7989  7998       L1     8  0.80

> <Gold.Chemscore.Hbond.Weighted>
-4.6162

> <Gold.Chemscore.Metal.Weighted>
-0.0000

> <Gold.Chemscore.Lipo.Weighted>
-10.0518

> <Gold.Chemscore.Internal_Hbond.Weighted>
0.0000

> <Gold.Chemscore.DEClash.Weighted>
0.2525

> <Gold.Chemscore.DEInternal.Weighted>
1.7698

> <Gold.Chemscore.Rot.Weighted>
2.5600

> <Gold.Chemscore.Internal.Correction.Weighted>
   9.000000E+99

> <Gold.Protein.RotatedTorsions>
[ 6907 6896 6895 6894 ] final   41.12 input  -60.11 | X-H torsion
[ 7974 7965 7964 7962 ] final  135.32 input  175.53 | X-H torsion
[ 8008 7997 7996 7995 ] final  -50.70 input   59.86 | X-H torsion
[ 10167 10162 10161 10158 ] final  124.89 input  -65.29 | X-H torsion
[ 10718 10713 10712 10709 ] final  167.56 input   66.30 | X-H torsion
[ 10763 10752 10751 10750 ] final  -24.04 input  -60.55 | X-H torsion
[ 11005 11000 10999 10996 ] final  142.26 input  -57.11 | X-H torsion

> <Gold.Protein.ActiveResidues>
 VAL166  LYS551  ARG553  GLY616  TRP617  ASP618  TYR619  PRO620  LYS621  CYS622 
 ASP623  PHE694  ASN695  SER759  ASP760  ASP761  ALA762  ILE779  LEU786  VAL792 
 PHE793  MET794  SER795  GLU796  ALA797  LYS798  CYS799  TRP800  GLU811  SER814 

> <Gold.Protein.RotatedAtoms>
  152.1913  134.8670  160.0517 H   0  0  0  0  0  0  0  0  0  0  0  0  # atno 6907 bound_to 6896
  151.9557  133.3675  159.4025 H   0  0  0  0  0  0  0  0  0  0  0  0  # atno 6908 bound_to 6896
  150.6936  134.4217  159.5252 H   0  0  0  0  0  0  0  0  0  0  0  0  # atno 6909 bound_to 6896
  144.9675  139.4642  143.5449 H   0  0  0  0  0  0  0  0  0  0  0  0  # atno 7974 bound_to 7965
  154.4067  140.1266  156.4708 H   0  0  0  0  0  0  0  0  0  0  0  0  # atno 8008 bound_to 7997
  155.7181  140.3493  155.4984 H   0  0  0  0  0  0  0  0  0  0  0  0  # atno 8009 bound_to 7997
  155.9240  140.1057  157.1175 H   0  0  0  0  0  0  0  0  0  0  0  0  # atno 8010 bound_to 7997
  139.5716  144.6942  151.3763 H   0  0  0  0  0  0  0  0  0  0  0  0  # atno 10167 bound_to 10162
  157.0497  131.0310  151.2685 H   0  0  0  0  0  0  0  0  0  0  0  0  # atno 10718 bound_to 10713
  153.6774  135.6968  153.5128 H   0  0  0  0  0  0  0  0  0  0  0  0  # atno 10763 bound_to 10752
  153.2511  135.4275  155.0797 H   0  0  0  0  0  0  0  0  0  0  0  0  # atno 10764 bound_to 10752
  154.8410  135.3531  154.6318 H   0  0  0  0  0  0  0  0  0  0  0  0  # atno 10765 bound_to 10752
  140.0464  134.9278  157.0937 H   0  0  0  0  0  0  0  0  0  0  0  0  # atno 11005 bound_to 11000
  146.3372  139.8866  142.8816 LP  0  0  0  0  0  0  0  0  0  0  0  0  # atno 17320 bound_to 7965
  145.2608  141.0076  143.3828 LP  0  0  0  0  0  0  0  0  0  0  0  0  # atno 17321 bound_to 7965
  140.7000  143.7654  150.7388 LP  0  0  0  0  0  0  0  0  0  0  0  0  # atno 17342 bound_to 10162
  140.1162  143.4653  152.2340 LP  0  0  0  0  0  0  0  0  0  0  0  0  # atno 17343 bound_to 10162
  157.5039  130.7897  149.7634 LP  0  0  0  0  0  0  0  0  0  0  0  0  # atno 17370 bound_to 10713
  156.0011  130.3879  150.2601 LP  0  0  0  0  0  0  0  0  0  0  0  0  # atno 17371 bound_to 10713
  140.3987  134.2106  155.7164 LP  0  0  0  0  0  0  0  0  0  0  0  0  # atno 17394 bound_to 11000
  141.1909  133.8207  157.0901 LP  0  0  0  0  0  0  0  0  0  0  0  0  # atno 17395 bound_to 11000

$$$$
