AV-unprocessed.smi:193|AV-procd|sdf|1509|dock3
  -GOLD-   2262019343D 1   1.00000     0.00000
 Structure written by MMmdl.
 62 66  0  0  0  0  0  0  0  0  2 V2000
  149.8294  133.0523  155.6023 C   0  0  0  0  0  0  0  0  0  0  0  0
  149.0302  134.3294  155.3001 C   0  0  1  0  0  0  0  0  0  0  0  0
  149.9551  135.4319  154.7478 C   0  0  0  0  0  0  0  0  0  0  0  0
  149.4628  136.7729  155.0723 N   0  0  0  0  0  0  0  0  0  0  0  0
  150.4012  137.7371  155.2387 C   0  0  0  0  0  0  0  0  0  0  0  0
  151.7205  137.4299  155.1203 N   0  0  0  0  0  0  0  0  0  0  0  0
  152.6473  138.3826  155.2628 C   0  0  0  0  0  0  0  0  0  0  0  0
  152.4765  139.6819  155.5165 N   0  0  0  0  0  0  0  0  0  0  0  0
  151.1541  139.9939  155.6349 C   0  0  0  0  0  0  0  0  0  0  0  0
  150.0619  139.0902  155.5128 C   0  0  0  0  0  0  0  0  0  0  0  0
  148.8619  139.7643  155.7028 N   0  0  0  0  0  0  0  0  0  0  0  0
  149.2240  140.9998  155.9175 C   0  0  0  0  0  0  0  0  0  0  0  0
  150.5814  141.2287  155.8848 N   0  0  0  0  0  0  0  0  0  0  0  0
  151.2525  142.5044  156.0814 C   0  0  0  0  0  0  0  0  0  0  0  0
  151.1817  143.0303  157.5364 C   0  0  0  0  0  0  0  0  0  0  0  0
  149.8186  143.2713  157.8420 O   0  0  0  0  0  0  0  0  0  0  0  0
  151.7186  141.9707  158.5190 C   0  0  0  0  0  0  0  0  0  0  0  0
  151.8220  142.5123  159.9559 C   0  0  0  0  0  0  0  0  0  0  0  0
  152.6244  143.6865  159.9763 O   0  0  0  0  0  0  0  0  0  0  0  0
  152.0647  144.7490  159.2139 C   0  0  0  0  0  0  0  0  0  0  0  0
  151.9669  144.3460  157.7316 C   0  0  0  0  0  0  0  0  0  0  0  0
  148.2445  137.2731  154.4375 C   0  0  0  0  0  0  0  0  0  0  0  0
  147.0319  136.3458  154.6075 C   0  0  0  0  0  0  0  0  0  0  0  0
  147.1665  135.1526  153.7390 N   0  3  2  0  0  0  0  0  0  0  0  0
  145.8852  134.7618  153.1095 C   0  0  1  0  0  0  0  0  0  0  0  0
  145.5599  135.5562  151.8661 C   0  0  0  0  0  0  0  0  0  0  0  0
  146.0410  134.1260  151.7457 C   0  0  2  0  0  0  0  0  0  0  0  0
  145.0930  133.0395  151.2886 C   0  0  0  0  0  0  0  0  0  0  0  0
  147.8399  133.9894  154.3729 C   0  0  0  0  0  0  0  0  0  0  0  0
  150.2969  132.6526  154.7018 H   0  0  0  0  0  0  0  0  0  0  0  0
  149.1875  132.2749  156.0181 H   0  0  0  0  0  0  0  0  0  0  0  0
  150.6194  133.2449  156.3288 H   0  0  0  0  0  0  0  0  0  0  0  0
  148.6371  134.6715  156.2590 H   0  0  0  0  0  0  0  0  0  0  0  0
  150.9422  135.3077  155.1965 H   0  0  0  0  0  0  0  0  0  0  0  0
  150.0893  135.3262  153.6705 H   0  0  0  0  0  0  0  0  0  0  0  0
  153.6721  138.0586  155.1552 H   0  0  0  0  0  0  0  0  0  0  0  0
  148.5065  141.7864  156.1012 H   0  0  0  0  0  0  0  0  0  0  0  0
  152.2918  142.3925  155.7693 H   0  0  0  0  0  0  0  0  0  0  0  0
  150.8086  143.2300  155.3986 H   0  0  0  0  0  0  0  0  0  0  0  0
  149.4226  143.7202  157.1108 H   0  0  0  0  0  0  0  0  0  0  0  0
  151.0918  141.0784  158.4998 H   0  0  0  0  0  0  0  0  0  0  0  0
  152.7116  141.6523  158.1991 H   0  0  0  0  0  0  0  0  0  0  0  0
  150.8348  142.7246  160.3695 H   0  0  0  0  0  0  0  0  0  0  0  0
  152.2794  141.7642  160.6035 H   0  0  0  0  0  0  0  0  0  0  0  0
  151.0864  145.0216  159.6126 H   0  0  0  0  0  0  0  0  0  0  0  0
  152.7022  145.6271  159.3181 H   0  0  0  0  0  0  0  0  0  0  0  0
  152.9773  144.2220  157.3400 H   0  0  0  0  0  0  0  0  0  0  0  0
  151.5149  145.1585  157.1613 H   0  0  0  0  0  0  0  0  0  0  0  0
  147.9845  138.2443  154.8593 H   0  0  0  0  0  0  0  0  0  0  0  0
  148.4378  137.4472  153.3779 H   0  0  0  0  0  0  0  0  0  0  0  0
  146.8575  136.0751  155.6496 H   0  0  0  0  0  0  0  0  0  0  0  0
  146.1519  136.9118  154.2988 H   0  0  0  0  0  0  0  0  0  0  0  0
  145.0917  134.4449  153.7845 H   0  0  0  0  0  0  0  0  0  0  0  0
  144.5098  135.7546  151.6602 H   0  0  0  0  0  0  0  0  0  0  0  0
  146.2478  136.3434  151.5623 H   0  0  0  0  0  0  0  0  0  0  0  0
  147.0575  133.9977  151.3771 H   0  0  0  0  0  0  0  0  0  0  0  0
  144.0862  133.2180  151.6675 H   0  0  0  0  0  0  0  0  0  0  0  0
  145.4336  132.0695  151.6506 H   0  0  0  0  0  0  0  0  0  0  0  0
  145.0541  133.0111  150.1996 H   0  0  0  0  0  0  0  0  0  0  0  0
  148.1759  133.3326  153.5695 H   0  0  0  0  0  0  0  0  0  0  0  0
  147.1064  133.4195  154.9456 H   0  0  0  0  0  0  0  0  0  0  0  0
  147.7656  135.4452  152.9800 H   0  0  0  0  0  0  0  0  0  0  0  0
  1  2  1  0  0  0  0
  1 30  1  0  0  0  0
  1 31  1  0  0  0  0
  1 32  1  0  0  0  0
  2 29  1  0  0  0  0
  2  3  1  0  0  0  0
  2 33  1  0  0  0  0
  3  4  1  0  0  0  0
  3 34  1  0  0  0  0
  3 35  1  0  0  0  0
  4  5  1  0  0  0  0
  4 22  1  0  0  0  0
  5 10  1  0  0  0  0
  5  6  2  0  0  0  0
  6  7  1  0  0  0  0
  7  8  2  0  0  0  0
  7 36  1  0  0  0  0
  8  9  1  0  0  0  0
  9 13  1  0  0  0  0
  9 10  2  0  0  0  0
 10 11  1  0  0  0  0
 11 12  2  0  0  0  0
 12 13  1  0  0  0  0
 12 37  1  0  0  0  0
 13 14  1  0  0  0  0
 14 15  1  0  0  0  0
 14 38  1  0  0  0  0
 14 39  1  0  0  0  0
 15 21  1  0  0  0  0
 15 16  1  0  0  0  0
 15 17  1  0  0  0  0
 16 40  1  0  0  0  0
 17 18  1  0  0  0  0
 17 41  1  0  0  0  0
 17 42  1  0  0  0  0
 18 19  1  0  0  0  0
 18 43  1  0  0  0  0
 18 44  1  0  0  0  0
 19 20  1  0  0  0  0
 20 21  1  0  0  0  0
 20 45  1  0  0  0  0
 20 46  1  0  0  0  0
 21 47  1  0  0  0  0
 21 48  1  0  0  0  0
 22 23  1  0  0  0  0
 22 49  1  0  0  0  0
 22 50  1  0  0  0  0
 23 24  1  0  0  0  0
 23 51  1  0  0  0  0
 23 52  1  0  0  0  0
 24 25  1  0  0  0  0
 24 29  1  0  0  0  0
 24 62  1  0  0  0  0
 25 27  1  0  0  0  0
 25 26  1  0  0  0  0
 25 53  1  0  0  0  0
 26 27  1  0  0  0  0
 26 54  1  0  0  0  0
 26 55  1  0  0  0  0
 27 28  1  0  0  0  0
 27 56  1  0  0  0  0
 28 57  1  0  0  0  0
 28 58  1  0  0  0  0
 28 59  1  0  0  0  0
 29 60  1  0  0  0  0
 29 61  1  0  0  0  0
M  CHG  1  24   1
M  END
> <s_m_source_file>
AV-unprocessed.smi

> <i_m_source_file_index>
193

> <i_lp_mmshare_version>
43012

> <i_f3d_flags>
0

> <s_epik_input>
W0NIM11bQ0BASF0xW0NIMl1bQ0BIXTFOKFtDSDJdMilbQ0gyXVtDSDJdTihbQ0gyXVtDQEhdMltDSDNdKWMobltjSF1uMyljKGMzNCluW2NIXW40W0NIMl1DNShbT0hdKVtDSDJdW0NIMl1PW0NIMl1bQ0gyXTU=

> <s_epik_cmdline>
J2VwaWtfcHl0aG9uJywgJy1waCcsICc3LjAnLCAnLXRuJywgJzgnLCAnLW1hJywgJzIwMCcsICctbWV0YWxfYmluZGluZycsICctaW1hZScsICc8aW5maWxlLm1hZT4nLCAnLW9tYWUnLCAnPG91dGZpbGUubWFlPic=

> <r_lp_tautomer_probability>
1

> <r_epik_Ionization_Penalty>
0.0540825

> <r_epik_Ionization_Penalty_Charging>
0.0538476

> <r_epik_Ionization_Penalty_Neutral>
0.000234891

> <r_epik_State_Penalty>
0.0200719

> <r_epik_Charging_Adjusted_Penalty>
0.0739194

> <i_epik_Tot_Q>
1

> <i_epik_Tot_abs_Q>
1

> <r_epik_Metal_State_Penalty>
0.0199414

> <b_epik_Metal_Only>
0

> <s_lp_Force_Field>
OPLS_2005

> <r_lp_Energy>
55.1026

> <b_lp_Chiralities_Consistent>
1

> <s_lp_Variant>
AV-unprocessed.smi:193-14

> <Gold.Version>
5.8.1

> <Gold.Id.Protein>
6NUR|6NUR_protein|mol2

> <Gold.PLP.Fitness>
60.5369

> <Gold.PLP.PLP>
-46.7444

> <Gold.PLP.part.hbond>
-4.5048

> <Gold.PLP.part.metal>
0.0000

> <Gold.PLP.part.buried>
-4.1906

> <Gold.PLP.part.nonpolar>
-38.7540

> <Gold.PLP.part.repulsive>
0.2447

> <Gold.PLP.ligand.clash>
0.0000

> <Gold.PLP.ligand.torsion>
1.1001

> <Gold.PLP.Chemscore.Hbond>
4.7206

> <Gold.PLP.Chemscore.CHOScore>
0.0000

> <Gold.PLP.Chemscore.Metal>
0.0000

> <Gold.Chemscore.Hbonds>
donor molecule, donor type, donor heavy atom, donor atom, acceptor molecule, acceptor atom, score
      L1  H    16    40       P1  8028  1.00
      L1  H    24    62       P1  7948  2.00
      P1  H  7997  8008       L1     8  0.99
      P1  H 10752 10763       L1     6  0.41

> <Gold.PLP.Chemscore.Internal.Correction>
1.8307

> <Gold.Rescore>
     Score         DG    S(hbond)    S(metal)    S(lipo)     H(rot)  DE(clash)    DE(int)     intcor
     17.40     -23.83       3.20        0.00     113.70       2.20       2.98       3.44       ----

> <Gold.Chemscore.Fitness>
17.4020

> <Gold.Chemscore.DG>
-23.8291

> <Gold.Chemscore.ZeroCoef>
-5.4800

> <Gold.Chemscore.Hbond>
3.1985

> <Gold.Chemscore.Metal>
0.0000

> <Gold.Chemscore.Lipo>
113.6995

> <Gold.Chemscore.Internal_Hbond>
0.0000

> <Gold.Chemscore.DEClash>
2.9841

> <Gold.Chemscore.DEInternal>
3.4430

> <Gold.Chemscore.Rot>
2.2018

> <Gold.Chemscore.Internal.Correction>
   9.000000E+99

> <Gold.Chemscore.Hbonds>
donor molecule, donor type, donor heavy atom, donor atom, acceptor molecule, acceptor atom, score
      L1  H    16    40       P1  8028  0.74
      L1  H    24    62       P1  7948  1.00
      P1  H  7997  8008       L1     8  0.24
      P1  H 10752 10763       L1     6  0.16

> <Gold.Chemscore.Hbond.Weighted>
-10.6828

> <Gold.Chemscore.Metal.Weighted>
-0.0000

> <Gold.Chemscore.Lipo.Weighted>
-13.3028

> <Gold.Chemscore.Internal_Hbond.Weighted>
0.0000

> <Gold.Chemscore.DEClash.Weighted>
2.9841

> <Gold.Chemscore.DEInternal.Weighted>
3.4430

> <Gold.Chemscore.Rot.Weighted>
5.6366

> <Gold.Chemscore.Internal.Correction.Weighted>
   9.000000E+99

> <Gold.Protein.RotatedTorsions>
[ 6907 6896 6895 6894 ] final  123.46 input  -60.11 | X-H torsion
[ 7974 7965 7964 7962 ] final   19.82 input  175.53 | X-H torsion
[ 8008 7997 7996 7995 ] final  -28.31 input   59.86 | X-H torsion
[ 10167 10162 10161 10158 ] final -168.93 input  -65.29 | X-H torsion
[ 10718 10713 10712 10709 ] final -113.37 input   66.30 | X-H torsion
[ 10763 10752 10751 10750 ] final   55.04 input  -60.55 | X-H torsion
[ 11005 11000 10999 10996 ] final   16.30 input  -57.11 | X-H torsion

> <Gold.Protein.ActiveResidues>
 VAL166  LYS551  ARG553  GLY616  TRP617  ASP618  TYR619  PRO620  LYS621  CYS622 
 ASP623  PHE694  ASN695  SER759  ASP760  ASP761  ALA762  ILE779  LEU786  VAL792 
 PHE793  MET794  SER795  GLU796  ALA797  LYS798  CYS799  TRP800  GLU811  SER814 

> <Gold.Protein.RotatedAtoms>
  152.4160  133.7038  159.6439 H   0  0  0  0  0  0  0  0  0  0  0  0  # atno 6907 bound_to 6896
  150.8037  133.8539  159.3222 H   0  0  0  0  0  0  0  0  0  0  0  0  # atno 6908 bound_to 6896
  151.6269  135.1028  160.0165 H   0  0  0  0  0  0  0  0  0  0  0  0  # atno 6909 bound_to 6896
  146.2135  139.8259  142.8670 H   0  0  0  0  0  0  0  0  0  0  0  0  # atno 7974 bound_to 7965
  154.4338  140.1848  156.1070 H   0  0  0  0  0  0  0  0  0  0  0  0  # atno 8008 bound_to 7997
  156.0247  140.3337  155.7050 H   0  0  0  0  0  0  0  0  0  0  0  0  # atno 8009 bound_to 7997
  155.5925  140.0632  157.2745 H   0  0  0  0  0  0  0  0  0  0  0  0  # atno 8010 bound_to 7997
  139.5954  144.1123  152.1683 H   0  0  0  0  0  0  0  0  0  0  0  0  # atno 10167 bound_to 10162
  156.0762  130.5969  150.8633 H   0  0  0  0  0  0  0  0  0  0  0  0  # atno 10718 bound_to 10713
  152.9812  135.5724  154.5001 H   0  0  0  0  0  0  0  0  0  0  0  0  # atno 10763 bound_to 10752
  154.4522  135.2779  155.1775 H   0  0  0  0  0  0  0  0  0  0  0  0  # atno 10764 bound_to 10752
  154.3398  135.6232  153.5644 H   0  0  0  0  0  0  0  0  0  0  0  0  # atno 10765 bound_to 10752
  140.4486  134.1247  155.7699 H   0  0  0  0  0  0  0  0  0  0  0  0  # atno 11005 bound_to 11000
  145.3048  141.0204  143.3588 LP  0  0  0  0  0  0  0  0  0  0  0  0  # atno 17320 bound_to 7965
  144.8979  139.4688  143.6646 LP  0  0  0  0  0  0  0  0  0  0  0  0  # atno 17321 bound_to 7965
  140.0707  144.5781  150.7194 LP  0  0  0  0  0  0  0  0  0  0  0  0  # atno 17342 bound_to 10162
  140.7207  143.2586  151.4286 LP  0  0  0  0  0  0  0  0  0  0  0  0  # atno 17343 bound_to 10162
  157.5859  131.0945  150.9197 LP  0  0  0  0  0  0  0  0  0  0  0  0  # atno 17370 bound_to 10713
  156.9383  130.5375  149.5280 LP  0  0  0  0  0  0  0  0  0  0  0  0  # atno 17371 bound_to 10713
  141.1674  133.8676  157.1674 LP  0  0  0  0  0  0  0  0  0  0  0  0  # atno 17394 bound_to 11000
  140.0022  135.0023  157.0214 LP  0  0  0  0  0  0  0  0  0  0  0  0  # atno 17395 bound_to 11000

$$$$
