AV-unprocessed.smi:1240|AV-procd|sdf|5205|dock6
  -GOLD-   22720 4293D 1   1.00000     0.00000
 Structure written by MMmdl.
 48 50  0  0  0  0  0  0  0  0  2 V2000
  145.2939  135.1420  154.3017 O   0  0  0  0  0  0  0  0  0  0  0  0
  146.3346  135.3247  153.6706 C   0  0  0  0  0  0  0  0  0  0  0  0
  147.3194  136.1322  154.0889 N   0  0  0  0  0  0  0  0  0  0  0  0
  147.3026  136.9003  155.3316 C   0  0  0  0  0  0  0  0  0  0  0  0
  148.5579  136.6657  156.2306 C   0  0  2  0  0  0  0  0  0  0  0  0
  148.1022  136.5557  157.7264 C   0  0  1  0  0  0  0  0  0  0  0  0
  149.1406  136.4705  158.8320 C   0  0  0  0  0  0  0  0  0  0  0  0
  148.2836  136.6944  160.0718 C   0  0  0  0  0  0  0  0  0  0  0  0
  147.2948  137.6369  159.6706 O   0  0  0  0  0  0  0  0  0  0  0  0
  147.2472  137.7173  158.2476 C   0  0  0  0  0  0  0  0  0  0  0  0
  149.6734  137.6227  156.0165 N   0  0  0  0  0  0  0  0  0  0  0  0
  150.2994  137.4446  154.6993 C   0  0  0  0  0  0  0  0  0  0  0  0
  151.5248  138.3530  154.5105 C   0  0  0  0  0  0  0  0  0  0  0  0
  151.1274  139.7107  154.6566 O   0  0  0  0  0  0  0  0  0  0  0  0
  150.5247  139.9676  155.9189 C   0  0  0  0  0  0  0  0  0  0  0  0
  149.3122  139.0404  156.1215 C   0  0  0  0  0  0  0  0  0  0  0  0
  146.6277  134.7734  152.4800 N   0  0  0  0  0  0  0  0  0  0  0  0
  145.8402  133.8818  151.7016 C   0  0  0  0  0  0  0  0  0  0  0  0
  146.5071  133.0843  150.7450 C   0  0  0  0  0  0  0  0  0  0  0  0
  145.7679  132.1776  149.9582 C   0  0  0  0  0  0  0  0  0  0  0  0
  144.4332  132.0698  150.1315 N   0  3  0  0  0  0  0  0  0  0  0  0
  143.7541  132.7984  151.0431 C   0  0  0  0  0  0  0  0  0  0  0  0
  144.4395  133.7219  151.8585 C   0  0  0  0  0  0  0  0  0  0  0  0
  148.1397  136.2285  153.5081 H   0  0  0  0  0  0  0  0  0  0  0  0
  147.2079  137.9510  155.0545 H   0  0  0  0  0  0  0  0  0  0  0  0
  146.3908  136.6444  155.8718 H   0  0  0  0  0  0  0  0  0  0  0  0
  148.9294  135.6793  155.9491 H   0  0  0  0  0  0  0  0  0  0  0  0
  147.5027  135.6488  157.8193 H   0  0  0  0  0  0  0  0  0  0  0  0
  149.6807  135.5237  158.8528 H   0  0  0  0  0  0  0  0  0  0  0  0
  149.8559  137.2905  158.7711 H   0  0  0  0  0  0  0  0  0  0  0  0
  147.7889  135.7685  160.3677 H   0  0  0  0  0  0  0  0  0  0  0  0
  148.8623  137.0576  160.9213 H   0  0  0  0  0  0  0  0  0  0  0  0
  147.6670  138.6760  157.9404 H   0  0  0  0  0  0  0  0  0  0  0  0
  146.2166  137.6712  157.8951 H   0  0  0  0  0  0  0  0  0  0  0  0
  150.5964  136.4167  154.5195 H   0  0  0  0  0  0  0  0  0  0  0  0
  149.5721  137.6730  153.9185 H   0  0  0  0  0  0  0  0  0  0  0  0
  152.3040  138.1089  155.2342 H   0  0  0  0  0  0  0  0  0  0  0  0
  151.9520  138.2130  153.5173 H   0  0  0  0  0  0  0  0  0  0  0  0
  151.2576  139.8207  156.7138 H   0  0  0  0  0  0  0  0  0  0  0  0
  150.2145  141.0117  155.9585 H   0  0  0  0  0  0  0  0  0  0  0  0
  148.5408  139.2857  155.3898 H   0  0  0  0  0  0  0  0  0  0  0  0
  148.9009  139.2558  157.1073 H   0  0  0  0  0  0  0  0  0  0  0  0
  147.4870  135.0823  152.0495 H   0  0  0  0  0  0  0  0  0  0  0  0
  147.5755  133.1692  150.6072 H   0  0  0  0  0  0  0  0  0  0  0  0
  146.2012  131.5389  149.2024 H   0  0  0  0  0  0  0  0  0  0  0  0
  142.6903  132.6181  151.0969 H   0  0  0  0  0  0  0  0  0  0  0  0
  143.8797  134.2792  152.5938 H   0  0  0  0  0  0  0  0  0  0  0  0
  143.9166  131.4067  149.5529 H   0  0  0  0  0  0  0  0  0  0  0  0
  1  2  2  0  0  0  0
  2  3  1  0  0  0  0
  2 17  1  0  0  0  0
  3  4  1  0  0  0  0
  3 24  1  0  0  0  0
  4  5  1  0  0  0  0
  4 25  1  0  0  0  0
  4 26  1  0  0  0  0
  5  6  1  0  0  0  0
  5 11  1  0  0  0  0
  5 27  1  0  0  0  0
  6 10  1  0  0  0  0
  6  7  1  0  0  0  0
  6 28  1  0  0  0  0
  7  8  1  0  0  0  0
  7 29  1  0  0  0  0
  7 30  1  0  0  0  0
  8  9  1  0  0  0  0
  8 31  1  0  0  0  0
  8 32  1  0  0  0  0
  9 10  1  0  0  0  0
 10 33  1  0  0  0  0
 10 34  1  0  0  0  0
 11 16  1  0  0  0  0
 11 12  1  0  0  0  0
 12 13  1  0  0  0  0
 12 35  1  0  0  0  0
 12 36  1  0  0  0  0
 13 14  1  0  0  0  0
 13 37  1  0  0  0  0
 13 38  1  0  0  0  0
 14 15  1  0  0  0  0
 15 16  1  0  0  0  0
 15 39  1  0  0  0  0
 15 40  1  0  0  0  0
 16 41  1  0  0  0  0
 16 42  1  0  0  0  0
 17 18  1  0  0  0  0
 17 43  1  0  0  0  0
 18 23  1  0  0  0  0
 18 19  2  0  0  0  0
 19 20  1  0  0  0  0
 19 44  1  0  0  0  0
 20 21  2  0  0  0  0
 20 45  1  0  0  0  0
 21 22  1  0  0  0  0
 21 48  1  0  0  0  0
 22 23  2  0  0  0  0
 22 46  1  0  0  0  0
 23 47  1  0  0  0  0
M  CHG  1  21   1
M  END
> <s_m_source_file>
AV-unprocessed.smi

> <i_m_source_file_index>
1240

> <i_lp_mmshare_version>
43012

> <i_f3d_flags>
0

> <s_epik_input>
W2NIXTFbY0hdbltjSF1bY0hdYzFbTkhdQyg9TylbTkhdW0NIMl1bQ0BIXShbQ0BASF0yW0NIMl1bQ0gyXU9bQ0gyXTIpTjNbQ0gyXVtDSDJdT1tDSDJdW0NIMl0z

> <s_epik_cmdline>
J2VwaWtfcHl0aG9uJywgJy1waCcsICc3LjAnLCAnLXRuJywgJzgnLCAnLW1hJywgJzIwMCcsICctbWV0YWxfYmluZGluZycsICctaW1hZScsICc8aW5maWxlLm1hZT4nLCAnLW9tYWUnLCAnPG91dGZpbGUubWFlPic=

> <r_epik_Ionization_Penalty>
1.15944

> <r_epik_Ionization_Penalty_Charging>
1.0344

> <r_epik_Ionization_Penalty_Neutral>
0.125034

> <r_epik_State_Penalty>
1.2199

> <r_epik_Charging_Adjusted_Penalty>
2.25431

> <i_epik_Tot_Q>
1

> <i_epik_Tot_abs_Q>
1

> <r_epik_Metal_State_Penalty>
1.3155

> <b_epik_Metal_Only>
0

> <s_lp_Force_Field>
OPLS_2005

> <r_lp_Energy>
67.1195

> <b_lp_Chiralities_Consistent>
1

> <s_lp_Variant>
AV-unprocessed.smi:1240-11

> <Gold.Version>
5.8.1

> <Gold.Id.Protein>
6NUR|6NUR_protein|mol2

> <Gold.PLP.Fitness>
41.0255

> <Gold.PLP.PLP>
-31.0866

> <Gold.PLP.part.hbond>
-4.0000

> <Gold.PLP.part.metal>
0.0000

> <Gold.PLP.part.buried>
-6.6051

> <Gold.PLP.part.nonpolar>
-22.1059

> <Gold.PLP.part.repulsive>
0.2706

> <Gold.PLP.ligand.clash>
0.0000

> <Gold.PLP.ligand.torsion>
0.8956

> <Gold.PLP.Chemscore.Hbond>
3.8480

> <Gold.PLP.Chemscore.CHOScore>
0.0000

> <Gold.PLP.Chemscore.Metal>
0.0000

> <Gold.Chemscore.Hbonds>
donor molecule, donor type, donor heavy atom, donor atom, acceptor molecule, acceptor atom, score
      L1  H     3    24       P1  7948  1.00
      L1  H    17    43       P1  7948  1.00
      P1  H  6934  6947       L1     9  0.82
      P1  H  7989  7998       L1    14  1.00

> <Gold.PLP.Chemscore.Internal.Correction>
0.1860

> <Gold.Rescore>
     Score         DG    S(hbond)    S(metal)    S(lipo)     H(rot)  DE(clash)    DE(int)     intcor
     20.07     -22.09       3.75        0.00      72.03       1.69       0.01       2.02       ----

> <Gold.Chemscore.Fitness>
20.0695

> <Gold.Chemscore.DG>
-22.0948

> <Gold.Chemscore.ZeroCoef>
-5.4800

> <Gold.Chemscore.Hbond>
3.7475

> <Gold.Chemscore.Metal>
0.0000

> <Gold.Chemscore.Lipo>
72.0312

> <Gold.Chemscore.Internal_Hbond>
0.0000

> <Gold.Chemscore.DEClash>
0.0073

> <Gold.Chemscore.DEInternal>
2.0180

> <Gold.Chemscore.Rot>
1.6912

> <Gold.Chemscore.Internal.Correction>
   9.000000E+99

> <Gold.Chemscore.Hbonds>
donor molecule, donor type, donor heavy atom, donor atom, acceptor molecule, acceptor atom, score
      L1  H     3    24       P1  7948  0.95
      L1  H    17    43       P1  7948  0.94
      P1  H  6934  6947       L1     9  0.64
      P1  H  7989  7998       L1    14  0.97

> <Gold.Chemscore.Hbond.Weighted>
-12.5166

> <Gold.Chemscore.Metal.Weighted>
-0.0000

> <Gold.Chemscore.Lipo.Weighted>
-8.4277

> <Gold.Chemscore.Internal_Hbond.Weighted>
0.0000

> <Gold.Chemscore.DEClash.Weighted>
0.0073

> <Gold.Chemscore.DEInternal.Weighted>
2.0180

> <Gold.Chemscore.Rot.Weighted>
4.3295

> <Gold.Chemscore.Internal.Correction.Weighted>
   9.000000E+99

> <Gold.Protein.RotatedTorsions>
[ 6907 6896 6895 6894 ] final  172.73 input  -60.11 | X-H torsion
[ 7974 7965 7964 7962 ] final  -95.74 input  175.53 | X-H torsion
[ 8008 7997 7996 7995 ] final   47.21 input   59.86 | X-H torsion
[ 10167 10162 10161 10158 ] final -153.15 input  -65.29 | X-H torsion
[ 10718 10713 10712 10709 ] final   75.74 input   66.30 | X-H torsion
[ 10763 10752 10751 10750 ] final  127.42 input  -60.55 | X-H torsion
[ 11005 11000 10999 10996 ] final  142.93 input  -57.11 | X-H torsion

> <Gold.Protein.ActiveResidues>
 VAL166  LYS551  ARG553  GLY616  TRP617  ASP618  TYR619  PRO620  LYS621  CYS622 
 ASP623  PHE694  ASN695  SER759  ASP760  ASP761  ALA762  ILE779  LEU786  VAL792 
 PHE793  MET794  SER795  GLU796  ALA797  LYS798  CYS799  TRP800  GLU811  SER814 

> <Gold.Protein.RotatedAtoms>
  151.7797  133.3348  159.3467 H   0  0  0  0  0  0  0  0  0  0  0  0  # atno 6907 bound_to 6896
  150.7431  134.5942  159.6012 H   0  0  0  0  0  0  0  0  0  0  0  0  # atno 6908 bound_to 6896
  152.3285  134.7292  160.0347 H   0  0  0  0  0  0  0  0  0  0  0  0  # atno 6909 bound_to 6896
  145.3561  140.9484  143.2527 H   0  0  0  0  0  0  0  0  0  0  0  0  # atno 7974 bound_to 7965
  155.3652  140.3421  155.4241 H   0  0  0  0  0  0  0  0  0  0  0  0  # atno 8008 bound_to 7997
  156.1692  140.1626  156.8512 H   0  0  0  0  0  0  0  0  0  0  0  0  # atno 8009 bound_to 7997
  154.5216  140.0765  156.8164 H   0  0  0  0  0  0  0  0  0  0  0  0  # atno 8010 bound_to 7997
  139.7121  143.9091  152.2472 H   0  0  0  0  0  0  0  0  0  0  0  0  # atno 10167 bound_to 10162
  157.6646  130.9741  150.1396 H   0  0  0  0  0  0  0  0  0  0  0  0  # atno 10718 bound_to 10713
  153.7092  135.3271  155.3242 H   0  0  0  0  0  0  0  0  0  0  0  0  # atno 10763 bound_to 10752
  154.8390  135.4473  154.1331 H   0  0  0  0  0  0  0  0  0  0  0  0  # atno 10764 bound_to 10752
  153.2420  135.6972  153.7851 H   0  0  0  0  0  0  0  0  0  0  0  0  # atno 10765 bound_to 10752
  140.0514  134.9253  157.1024 H   0  0  0  0  0  0  0  0  0  0  0  0  # atno 11005 bound_to 11000
  144.8681  139.5078  143.6780 LP  0  0  0  0  0  0  0  0  0  0  0  0  # atno 17320 bound_to 7965
  146.2947  139.7243  142.9135 LP  0  0  0  0  0  0  0  0  0  0  0  0  # atno 17321 bound_to 7965
  139.8964  144.6937  150.8714 LP  0  0  0  0  0  0  0  0  0  0  0  0  # atno 17342 bound_to 10162
  140.7735  143.3547  151.1944 LP  0  0  0  0  0  0  0  0  0  0  0  0  # atno 17343 bound_to 10162
  156.2222  130.3675  149.8542 LP  0  0  0  0  0  0  0  0  0  0  0  0  # atno 17370 bound_to 10713
  156.6392  130.8697  151.3510 LP  0  0  0  0  0  0  0  0  0  0  0  0  # atno 17371 bound_to 10713
  140.3911  134.2183  155.7166 LP  0  0  0  0  0  0  0  0  0  0  0  0  # atno 17394 bound_to 11000
  141.1932  133.8156  157.0808 LP  0  0  0  0  0  0  0  0  0  0  0  0  # atno 17395 bound_to 11000

$$$$
