AV-unprocessed.smi:2763|AV-procd|sdf|10638|dock4
  -GOLD-   2272015 83D 1   1.00000     0.00000
 Structure written by MMmdl.
 37 38  0  0  0  0  0  0  0  0  1 V2000
  149.7365  140.4106  157.0549 O   0  0  0  0  0  0  0  0  0  0  0  0
  149.4895  141.5800  156.7583 C   0  0  0  0  0  0  0  0  0  0  0  0
  148.6941  141.9317  155.7378 N   0  0  0  0  0  0  0  0  0  0  0  0
  148.0132  141.0001  154.8465 C   0  0  0  0  0  0  0  0  0  0  0  0
  147.2455  141.7389  153.7371 C   0  0  0  0  0  0  0  0  0  0  0  0
  146.4825  142.9669  154.2583 C   0  0  2  0  0  0  0  0  0  0  0  0
  145.5694  142.6163  155.4495 C   0  0  0  0  0  0  0  0  0  0  0  0
  144.7686  143.8454  155.8947 C   0  0  0  0  0  0  0  0  0  0  0  0
  144.0306  144.4443  154.6927 C   0  0  0  0  0  0  0  0  0  0  0  0
  145.0120  144.6985  153.5376 C   0  0  0  0  0  0  0  0  0  0  0  0
  145.6836  143.4893  153.1978 O   0  0  0  0  0  0  0  0  0  0  0  0
  149.9708  142.6630  157.3939 N   0  0  0  0  0  0  0  0  0  0  0  0
  150.8189  142.7099  158.5321 C   0  0  0  0  0  0  0  0  0  0  0  0
  151.5942  141.5478  158.7475 C   0  0  0  0  0  0  0  0  0  0  0  0
  152.4712  141.4936  159.8483 C   0  0  0  0  0  0  0  0  0  0  0  0
  152.5497  142.6059  160.7048 C   0  0  0  0  0  0  0  0  0  0  0  0
  153.3790  142.6005  161.7753 F   0  0  0  0  0  0  0  0  0  0  0  0
  151.7446  143.7243  160.4204 C   0  0  0  0  0  0  0  0  0  0  0  0
  150.9034  143.7773  159.3657 N   0  0  0  0  0  0  0  0  0  0  0  0
  148.5471  142.9151  155.5641 H   0  0  0  0  0  0  0  0  0  0  0  0
  148.7295  140.2987  154.4154 H   0  0  0  0  0  0  0  0  0  0  0  0
  147.3235  140.4071  155.4476 H   0  0  0  0  0  0  0  0  0  0  0  0
  147.9360  142.0437  152.9494 H   0  0  0  0  0  0  0  0  0  0  0  0
  146.5365  141.0513  153.2740 H   0  0  0  0  0  0  0  0  0  0  0  0
  147.2062  143.7231  154.5688 H   0  0  0  0  0  0  0  0  0  0  0  0
  144.8833  141.8171  155.1657 H   0  0  0  0  0  0  0  0  0  0  0  0
  146.1621  142.2381  156.2828 H   0  0  0  0  0  0  0  0  0  0  0  0
  144.0630  143.5765  156.6812 H   0  0  0  0  0  0  0  0  0  0  0  0
  145.4439  144.5892  156.3193 H   0  0  0  0  0  0  0  0  0  0  0  0
  143.2501  143.7578  154.3621 H   0  0  0  0  0  0  0  0  0  0  0  0
  143.5329  145.3716  154.9775 H   0  0  0  0  0  0  0  0  0  0  0  0
  144.4744  145.0611  152.6613 H   0  0  0  0  0  0  0  0  0  0  0  0
  145.7386  145.4675  153.8048 H   0  0  0  0  0  0  0  0  0  0  0  0
  149.6903  143.5596  157.0253 H   0  0  0  0  0  0  0  0  0  0  0  0
  151.5209  140.7029  158.0780 H   0  0  0  0  0  0  0  0  0  0  0  0
  153.0721  140.6148  160.0305 H   0  0  0  0  0  0  0  0  0  0  0  0
  151.7758  144.5987  161.0537 H   0  0  0  0  0  0  0  0  0  0  0  0
  1  2  2  0  0  0  0
  2  3  1  0  0  0  0
  2 12  1  0  0  0  0
  3  4  1  0  0  0  0
  3 20  1  0  0  0  0
  4  5  1  0  0  0  0
  4 21  1  0  0  0  0
  4 22  1  0  0  0  0
  5  6  1  0  0  0  0
  5 23  1  0  0  0  0
  5 24  1  0  0  0  0
  6 11  1  0  0  0  0
  6  7  1  0  0  0  0
  6 25  1  0  0  0  0
  7  8  1  0  0  0  0
  7 26  1  0  0  0  0
  7 27  1  0  0  0  0
  8  9  1  0  0  0  0
  8 28  1  0  0  0  0
  8 29  1  0  0  0  0
  9 10  1  0  0  0  0
  9 30  1  0  0  0  0
  9 31  1  0  0  0  0
 10 11  1  0  0  0  0
 10 32  1  0  0  0  0
 10 33  1  0  0  0  0
 12 13  1  0  0  0  0
 12 34  1  0  0  0  0
 13 19  1  0  0  0  0
 13 14  2  0  0  0  0
 14 15  1  0  0  0  0
 14 35  1  0  0  0  0
 15 16  2  0  0  0  0
 15 36  1  0  0  0  0
 16 17  1  0  0  0  0
 16 18  1  0  0  0  0
 18 19  2  0  0  0  0
 18 37  1  0  0  0  0
M  END
> <s_m_source_file>
AV-unprocessed.smi

> <i_m_source_file_index>
2763

> <i_lp_mmshare_version>
43012

> <i_f3d_flags>
0

> <s_epik_input>
bjFbY0hdYyhGKVtjSF1bY0hdYzFbTkhdQyg9TylbTkhdW0NIMl1bQ0gyXVtDQEBIXTJbQ0gyXVtDSDJdW0NIMl1bQ0gyXU8y

> <s_epik_cmdline>
J2VwaWtfcHl0aG9uJywgJy1waCcsICc3LjAnLCAnLXRuJywgJzgnLCAnLW1hJywgJzIwMCcsICctbWV0YWxfYmluZGluZycsICctaW1hZScsICc8aW5maWxlLm1hZT4nLCAnLW9tYWUnLCAnPG91dGZpbGUubWFlPic=

> <r_lp_tautomer_probability>
1

> <r_epik_Ionization_Penalty>
3.67849e-05

> <r_epik_Ionization_Penalty_Charging>
0

> <r_epik_Ionization_Penalty_Neutral>
3.67849e-05

> <r_epik_State_Penalty>
-0

> <r_epik_Charging_Adjusted_Penalty>
0

> <i_epik_Tot_Q>
0

> <i_epik_Tot_abs_Q>
0

> <r_epik_Metal_State_Penalty>
-0

> <b_epik_Metal_Only>
0

> <s_lp_Force_Field>
OPLS_2005

> <r_lp_Energy>
12.1233

> <b_lp_Chiralities_Consistent>
1

> <s_lp_Variant>
AV-unprocessed.smi:2763-1

> <Gold.Version>
5.8.1

> <Gold.Id.Protein>
6NUR|6NUR_protein|mol2

> <Gold.PLP.Fitness>
42.7930

> <Gold.PLP.PLP>
-37.2111

> <Gold.PLP.part.hbond>
-2.0000

> <Gold.PLP.part.metal>
0.0000

> <Gold.PLP.part.buried>
-6.6850

> <Gold.PLP.part.nonpolar>
-28.4618

> <Gold.PLP.part.repulsive>
0.4381

> <Gold.PLP.ligand.clash>
0.0000

> <Gold.PLP.ligand.torsion>
0.2120

> <Gold.PLP.Chemscore.Hbond>
2.0000

> <Gold.PLP.Chemscore.CHOScore>
0.0000

> <Gold.PLP.Chemscore.Metal>
0.0000

> <Gold.Chemscore.Hbonds>
donor molecule, donor type, donor heavy atom, donor atom, acceptor molecule, acceptor atom, score
      L1  H     3    20       P1  8028  1.00
      L1  H    12    34       P1  8028  1.00

> <Gold.PLP.Chemscore.Internal.Correction>
0.0059

> <Gold.Rescore>
     Score         DG    S(hbond)    S(metal)    S(lipo)     H(rot)  DE(clash)    DE(int)     intcor
     15.68     -17.51       1.96        0.00      80.62       1.54       0.18       1.65       ----

> <Gold.Chemscore.Fitness>
15.6788

> <Gold.Chemscore.DG>
-17.5094

> <Gold.Chemscore.ZeroCoef>
-5.4800

> <Gold.Chemscore.Hbond>
1.9566

> <Gold.Chemscore.Metal>
0.0000

> <Gold.Chemscore.Lipo>
80.6217

> <Gold.Chemscore.Internal_Hbond>
0.0000

> <Gold.Chemscore.DEClash>
0.1772

> <Gold.Chemscore.DEInternal>
1.6534

> <Gold.Chemscore.Rot>
1.5384

> <Gold.Chemscore.Internal.Correction>
   9.000000E+99

> <Gold.Chemscore.Hbonds>
donor molecule, donor type, donor heavy atom, donor atom, acceptor molecule, acceptor atom, score
      L1  H     3    20       P1  8028  0.99
      L1  H    12    34       P1  8028  0.92

> <Gold.Chemscore.Hbond.Weighted>
-6.5349

> <Gold.Chemscore.Metal.Weighted>
-0.0000

> <Gold.Chemscore.Lipo.Weighted>
-9.4327

> <Gold.Chemscore.Internal_Hbond.Weighted>
0.0000

> <Gold.Chemscore.DEClash.Weighted>
0.1772

> <Gold.Chemscore.DEInternal.Weighted>
1.6534

> <Gold.Chemscore.Rot.Weighted>
3.9382

> <Gold.Chemscore.Internal.Correction.Weighted>
   9.000000E+99

> <Gold.Protein.RotatedTorsions>
[ 6907 6896 6895 6894 ] final   84.47 input  -60.11 | X-H torsion
[ 7974 7965 7964 7962 ] final  144.58 input  175.53 | X-H torsion
[ 8008 7997 7996 7995 ] final -102.28 input   59.86 | X-H torsion
[ 10167 10162 10161 10158 ] final   85.21 input  -65.29 | X-H torsion
[ 10718 10713 10712 10709 ] final -108.98 input   66.30 | X-H torsion
[ 10763 10752 10751 10750 ] final -156.80 input  -60.55 | X-H torsion
[ 11005 11000 10999 10996 ] final  149.92 input  -57.11 | X-H torsion

> <Gold.Protein.ActiveResidues>
 VAL166  LYS551  ARG553  GLY616  TRP617  ASP618  TYR619  PRO620  LYS621  CYS622 
 ASP623  PHE694  ASN695  SER759  ASP760  ASP761  ALA762  ILE779  LEU786  VAL792 
 PHE793  MET794  SER795  GLU796  ALA797  LYS798  CYS799  TRP800  GLU811  SER814 

> <Gold.Protein.RotatedAtoms>
  152.5353  134.2736  159.8980 H   0  0  0  0  0  0  0  0  0  0  0  0  # atno 6907 bound_to 6896
  151.2692  133.4257  159.2628 H   0  0  0  0  0  0  0  0  0  0  0  0  # atno 6908 bound_to 6896
  151.0383  134.9604  159.8204 H   0  0  0  0  0  0  0  0  0  0  0  0  # atno 6909 bound_to 6896
  144.8824  139.5679  143.5836 H   0  0  0  0  0  0  0  0  0  0  0  0  # atno 7974 bound_to 7965
  154.8544  140.0429  157.1625 H   0  0  0  0  0  0  0  0  0  0  0  0  # atno 8008 bound_to 7997
  154.8907  140.2986  155.5352 H   0  0  0  0  0  0  0  0  0  0  0  0  # atno 8009 bound_to 7997
  156.2997  140.2394  156.3922 H   0  0  0  0  0  0  0  0  0  0  0  0  # atno 8010 bound_to 7997
  139.9001  144.6335  150.8646 H   0  0  0  0  0  0  0  0  0  0  0  0  # atno 10167 bound_to 10162
  156.0513  130.5741  150.8037 H   0  0  0  0  0  0  0  0  0  0  0  0  # atno 10718 bound_to 10713
  154.7685  135.3138  154.8237 H   0  0  0  0  0  0  0  0  0  0  0  0  # atno 10763 bound_to 10752
  153.8979  135.6819  153.4761 H   0  0  0  0  0  0  0  0  0  0  0  0  # atno 10764 bound_to 10752
  153.1295  135.4786  154.9260 H   0  0  0  0  0  0  0  0  0  0  0  0  # atno 10765 bound_to 10752
  140.1086  134.8938  157.1903 H   0  0  0  0  0  0  0  0  0  0  0  0  # atno 11005 bound_to 11000
  146.3003  139.7405  142.9096 LP  0  0  0  0  0  0  0  0  0  0  0  0  # atno 17320 bound_to 7965
  145.3930  141.0375  143.3113 LP  0  0  0  0  0  0  0  0  0  0  0  0  # atno 17321 bound_to 7965
  140.7708  143.3443  151.2142 LP  0  0  0  0  0  0  0  0  0  0  0  0  # atno 17342 bound_to 10162
  139.7033  143.9497  152.2915 LP  0  0  0  0  0  0  0  0  0  0  0  0  # atno 17343 bound_to 10162
  157.5442  131.0942  150.9785 LP  0  0  0  0  0  0  0  0  0  0  0  0  # atno 17370 bound_to 10713
  157.0060  130.5618  149.5316 LP  0  0  0  0  0  0  0  0  0  0  0  0  # atno 17371 bound_to 10713
  140.3122  134.3011  155.7264 LP  0  0  0  0  0  0  0  0  0  0  0  0  # atno 17394 bound_to 11000
  141.2124  133.7657  156.9792 LP  0  0  0  0  0  0  0  0  0  0  0  0  # atno 17395 bound_to 11000

$$$$
