AV-unprocessed.smi:3141|AV-procd|sdf|11969|dock6
  -GOLD-   2272017373D 1   1.00000     0.00000
 Structure written by MMmdl.
 35 37  0  0  0  0  0  0  0  0  1 V2000
  150.4739  141.2548  157.9884 O   0  0  0  0  0  0  0  0  0  0  0  0
  150.1142  142.2824  157.4137 C   0  0  0  0  0  0  0  0  0  0  0  0
  150.5678  143.5087  157.7045 N   0  0  0  0  0  0  0  0  0  0  0  0
  151.5305  143.8175  158.7114 C   0  0  0  0  0  0  0  0  0  0  0  0
  151.7667  145.2781  159.0297 C   0  0  0  0  0  0  0  0  0  0  0  0
  152.8092  144.4998  158.2757 C   0  0  0  0  0  0  0  0  0  0  0  0
  149.2199  142.3110  156.4163 N   0  0  0  0  0  0  0  0  0  0  0  0
  148.5617  141.1393  155.8453 C   0  0  1  0  0  0  0  0  0  0  0  0
  147.0735  141.4135  155.5439 C   0  0  0  0  0  0  0  0  0  0  0  0
  146.9192  141.3442  154.0221 C   0  0  0  0  0  0  0  0  0  0  0  0
  148.0337  140.4070  153.5668 C   0  0  0  0  0  0  0  0  0  0  0  0
  149.2021  140.7630  154.4926 C   0  0  2  0  0  0  0  0  0  0  0  0
  150.2046  139.7147  154.6036 N   0  0  0  0  0  0  0  0  0  0  0  0
  150.3077  138.5799  153.8090 C   0  0  0  0  0  0  0  0  0  0  0  0
  151.4079  137.8830  154.2541 C   0  0  0  0  0  0  0  0  0  0  0  0
  152.0006  138.5689  155.3109 N   0  0  0  0  0  0  0  0  0  0  0  0
  151.2369  139.6438  155.4577 C   0  0  0  0  0  0  0  0  0  0  0  0
  150.2057  144.2857  157.1718 H   0  0  0  0  0  0  0  0  0  0  0  0
  151.6191  143.1258  159.5481 H   0  0  0  0  0  0  0  0  0  0  0  0
  151.1957  146.0200  158.4747 H   0  0  0  0  0  0  0  0  0  0  0  0
  151.9832  145.5366  160.0641 H   0  0  0  0  0  0  0  0  0  0  0  0
  153.7223  144.2387  158.8066 H   0  0  0  0  0  0  0  0  0  0  0  0
  152.9336  144.7207  157.2173 H   0  0  0  0  0  0  0  0  0  0  0  0
  148.9877  143.2057  156.0108 H   0  0  0  0  0  0  0  0  0  0  0  0
  148.6286  140.3017  156.5428 H   0  0  0  0  0  0  0  0  0  0  0  0
  146.4658  140.6340  156.0055 H   0  0  0  0  0  0  0  0  0  0  0  0
  146.7201  142.3668  155.9398 H   0  0  0  0  0  0  0  0  0  0  0  0
  145.9305  141.0013  153.7161 H   0  0  0  0  0  0  0  0  0  0  0  0
  147.0759  142.3345  153.5921 H   0  0  0  0  0  0  0  0  0  0  0  0
  147.7165  139.3739  153.7133 H   0  0  0  0  0  0  0  0  0  0  0  0
  148.2816  140.5327  152.5124 H   0  0  0  0  0  0  0  0  0  0  0  0
  149.6870  141.6446  154.0681 H   0  0  0  0  0  0  0  0  0  0  0  0
  149.6094  138.3673  153.0131 H   0  0  0  0  0  0  0  0  0  0  0  0
  151.8177  136.9505  153.8948 H   0  0  0  0  0  0  0  0  0  0  0  0
  151.4367  140.3996  156.2034 H   0  0  0  0  0  0  0  0  0  0  0  0
  1  2  2  0  0  0  0
  2  3  1  0  0  0  0
  2  7  1  0  0  0  0
  3  4  1  0  0  0  0
  3 18  1  0  0  0  0
  4  6  1  0  0  0  0
  4  5  1  0  0  0  0
  4 19  1  0  0  0  0
  5  6  1  0  0  0  0
  5 20  1  0  0  0  0
  5 21  1  0  0  0  0
  6 22  1  0  0  0  0
  6 23  1  0  0  0  0
  7  8  1  0  0  0  0
  7 24  1  0  0  0  0
  8 12  1  0  0  0  0
  8  9  1  0  0  0  0
  8 25  1  0  0  0  0
  9 10  1  0  0  0  0
  9 26  1  0  0  0  0
  9 27  1  0  0  0  0
 10 11  1  0  0  0  0
 10 28  1  0  0  0  0
 10 29  1  0  0  0  0
 11 12  1  0  0  0  0
 11 30  1  0  0  0  0
 11 31  1  0  0  0  0
 12 13  1  0  0  0  0
 12 32  1  0  0  0  0
 13 17  1  0  0  0  0
 13 14  1  0  0  0  0
 14 15  2  0  0  0  0
 14 33  1  0  0  0  0
 15 16  1  0  0  0  0
 15 34  1  0  0  0  0
 16 17  2  0  0  0  0
 17 35  1  0  0  0  0
M  END
> <s_m_source_file>
AV-unprocessed.smi

> <i_m_source_file_index>
3141

> <i_lp_mmshare_version>
43012

> <i_f3d_flags>
0

> <s_epik_input>
W0NIMl0xW0NIMl1bQ0hdMVtOSF1DKD1PKVtOSF1bQ0BASF0yW0NIMl1bQ0gyXVtDSDJdW0NASF0ybjNbY0hdW2NIXW5bY0hdMw==

> <s_epik_cmdline>
J2VwaWtfcHl0aG9uJywgJy1waCcsICc3LjAnLCAnLXRuJywgJzgnLCAnLW1hJywgJzIwMCcsICctbWV0YWxfYmluZGluZycsICctaW1hZScsICc8aW5maWxlLm1hZT4nLCAnLW9tYWUnLCAnPG91dGZpbGUubWFlPic=

> <r_lp_tautomer_probability>
1

> <r_epik_Ionization_Penalty>
0.728419

> <r_epik_Ionization_Penalty_Charging>
0.728357

> <r_epik_Ionization_Penalty_Neutral>
6.27871e-05

> <r_epik_State_Penalty>
0.753408

> <r_epik_Charging_Adjusted_Penalty>
1.48176

> <i_epik_Tot_Q>
0

> <i_epik_Tot_abs_Q>
0

> <r_epik_Metal_State_Penalty>
0.332413

> <b_epik_Metal_Only>
0

> <s_lp_Force_Field>
OPLS_2005

> <r_lp_Energy>
34.7591

> <b_lp_Chiralities_Consistent>
1

> <s_lp_Variant>
AV-unprocessed.smi:3141-8

> <Gold.Version>
5.8.1

> <Gold.Id.Protein>
6NUR|6NUR_protein|mol2

> <Gold.PLP.Fitness>
48.2058

> <Gold.PLP.PLP>
-36.9280

> <Gold.PLP.part.hbond>
-2.0000

> <Gold.PLP.part.metal>
0.0000

> <Gold.PLP.part.buried>
-0.9858

> <Gold.PLP.part.nonpolar>
-34.6962

> <Gold.PLP.part.repulsive>
0.1049

> <Gold.PLP.ligand.clash>
0.0000

> <Gold.PLP.ligand.torsion>
0.5145

> <Gold.PLP.Chemscore.Hbond>
1.8640

> <Gold.PLP.Chemscore.CHOScore>
2.2239

> <Gold.PLP.Chemscore.Metal>
0.0000

> <Gold.Chemscore.Hbonds>
donor molecule, donor type, donor heavy atom, donor atom, acceptor molecule, acceptor atom, score
      L1  H     3    18       P1  8028  0.86
      L1  H     7    24       P1  8028  1.00
      L1  C    14    33       P1  7948  1.00
      L1  C    14    33       P1  7957  0.70
      L1  C    15    34       P1  7949  0.55

> <Gold.PLP.Chemscore.Internal.Correction>
0.0429

> <Gold.Rescore>
     Score         DG    S(hbond)    S(metal)    S(lipo)     H(rot)  DE(clash)    DE(int)     intcor
     16.86     -17.28       1.77        0.00      84.60       1.57       0.09       0.33       ----

> <Gold.Chemscore.Fitness>
16.8597

> <Gold.Chemscore.DG>
-17.2755

> <Gold.Chemscore.ZeroCoef>
-5.4800

> <Gold.Chemscore.Hbond>
1.7719

> <Gold.Chemscore.Metal>
0.0000

> <Gold.Chemscore.Lipo>
84.5970

> <Gold.Chemscore.Internal_Hbond>
0.0000

> <Gold.Chemscore.DEClash>
0.0872

> <Gold.Chemscore.DEInternal>
0.3285

> <Gold.Chemscore.Rot>
1.5705

> <Gold.Chemscore.Internal.Correction>
   9.000000E+99

> <Gold.Chemscore.Hbonds>
donor molecule, donor type, donor heavy atom, donor atom, acceptor molecule, acceptor atom, score
      L1  H     3    18       P1  8028  0.62
      L1  H     7    24       P1  8028  0.96

> <Gold.Chemscore.Hbond.Weighted>
-5.9183

> <Gold.Chemscore.Metal.Weighted>
-0.0000

> <Gold.Chemscore.Lipo.Weighted>
-9.8978

> <Gold.Chemscore.Internal_Hbond.Weighted>
0.0000

> <Gold.Chemscore.DEClash.Weighted>
0.0872

> <Gold.Chemscore.DEInternal.Weighted>
0.3285

> <Gold.Chemscore.Rot.Weighted>
4.0206

> <Gold.Chemscore.Internal.Correction.Weighted>
   9.000000E+99

> <Gold.Protein.RotatedTorsions>
[ 6907 6896 6895 6894 ] final  110.04 input  -60.11 | X-H torsion
[ 7974 7965 7964 7962 ] final  179.62 input  175.53 | X-H torsion
[ 8008 7997 7996 7995 ] final  -57.48 input   59.86 | X-H torsion
[ 10167 10162 10161 10158 ] final   59.53 input  -65.29 | X-H torsion
[ 10718 10713 10712 10709 ] final  112.26 input   66.30 | X-H torsion
[ 10763 10752 10751 10750 ] final  156.39 input  -60.55 | X-H torsion
[ 11005 11000 10999 10996 ] final   26.42 input  -57.11 | X-H torsion

> <Gold.Protein.ActiveResidues>
 VAL166  LYS551  ARG553  GLY616  TRP617  ASP618  TYR619  PRO620  LYS621  CYS622 
 ASP623  PHE694  ASN695  SER759  ASP760  ASP761  ALA762  ILE779  LEU786  VAL792 
 PHE793  MET794  SER795  GLU796  ALA797  LYS798  CYS799  TRP800  GLU811  SER814 

> <Gold.Protein.RotatedAtoms>
  152.5039  133.8858  159.7368 H   0  0  0  0  0  0  0  0  0  0  0  0  # atno 6907 bound_to 6896
  150.9309  133.6759  159.2818 H   0  0  0  0  0  0  0  0  0  0  0  0  # atno 6908 bound_to 6896
  151.4104  135.0989  159.9636 H   0  0  0  0  0  0  0  0  0  0  0  0  # atno 6909 bound_to 6896
  144.7144  140.0576  143.6433 H   0  0  0  0  0  0  0  0  0  0  0  0  # atno 7974 bound_to 7965
  154.4269  140.1106  156.5803 H   0  0  0  0  0  0  0  0  0  0  0  0  # atno 8008 bound_to 7997
  155.6119  140.3494  155.4606 H   0  0  0  0  0  0  0  0  0  0  0  0  # atno 8009 bound_to 7997
  156.0093  140.1215  157.0460 H   0  0  0  0  0  0  0  0  0  0  0  0  # atno 8010 bound_to 7997
  140.1754  144.4235  150.6641 H   0  0  0  0  0  0  0  0  0  0  0  0  # atno 10167 bound_to 10162
  157.6402  131.0964  150.6869 H   0  0  0  0  0  0  0  0  0  0  0  0  # atno 10718 bound_to 10713
  154.1836  135.2798  155.3044 H   0  0  0  0  0  0  0  0  0  0  0  0  # atno 10763 bound_to 10752
  154.5983  135.5538  153.7352 H   0  0  0  0  0  0  0  0  0  0  0  0  # atno 10764 bound_to 10752
  153.0131  135.6385  154.1975 H   0  0  0  0  0  0  0  0  0  0  0  0  # atno 10765 bound_to 10752
  140.3372  134.2372  155.7694 H   0  0  0  0  0  0  0  0  0  0  0  0  # atno 11005 bound_to 11000
  145.9891  139.3001  143.0995 LP  0  0  0  0  0  0  0  0  0  0  0  0  # atno 17320 bound_to 7965
  145.8923  140.9296  143.0545 LP  0  0  0  0  0  0  0  0  0  0  0  0  # atno 17321 bound_to 7965
  140.6554  143.2236  151.5980 LP  0  0  0  0  0  0  0  0  0  0  0  0  # atno 17342 bound_to 10162
  139.5319  144.2891  152.1167 LP  0  0  0  0  0  0  0  0  0  0  0  0  # atno 17343 bound_to 10162
  156.7194  130.4676  149.5527 LP  0  0  0  0  0  0  0  0  0  0  0  0  # atno 17370 bound_to 10713
  156.1676  130.6415  151.0797 LP  0  0  0  0  0  0  0  0  0  0  0  0  # atno 17371 bound_to 10713
  141.2048  133.7877  157.0268 LP  0  0  0  0  0  0  0  0  0  0  0  0  # atno 17394 bound_to 11000
  140.0811  134.9648  157.1625 LP  0  0  0  0  0  0  0  0  0  0  0  0  # atno 17395 bound_to 11000

$$$$
