AV-unprocessed.smi:155|AV-procd|sdf|1285|dock1
  -GOLD-   2262018563D 1   1.00000     0.00000
 Structure written by MMmdl.
 64 67  0  0  0  0  0  0  0  0  3 V2000
  145.9159  131.8352  149.3978 C   0  0  0  0  0  0  0  0  0  0  0  0
  145.7100  133.0940  150.1510 N   0  3  0  0  0  0  0  0  0  0  0  0
  144.2720  133.3627  150.3754 C   0  0  0  0  0  0  0  0  0  0  0  0
  146.4923  133.1602  151.4118 C   0  0  0  0  0  0  0  0  0  0  0  0
  146.2586  134.4719  152.1918 C   0  0  0  0  0  0  0  0  0  0  0  0
  147.2870  134.7196  153.2379 N   0  3  2  0  0  0  0  0  0  0  0  0
  147.8036  133.4624  153.8416 C   0  0  0  0  0  0  0  0  0  0  0  0
  149.3290  133.5373  154.0203 C   0  0  0  0  0  0  0  0  0  0  0  0
  149.7988  134.4352  155.1749 C   0  0  0  0  0  0  0  0  0  0  0  0
  149.2313  135.7828  155.0990 N   0  0  0  0  0  0  0  0  0  0  0  0
  150.0230  136.8715  155.2840 C   0  0  0  0  0  0  0  0  0  0  0  0
  151.3745  136.7255  155.3022 N   0  0  0  0  0  0  0  0  0  0  0  0
  152.1685  137.7827  155.4956 C   0  0  0  0  0  0  0  0  0  0  0  0
  151.8270  139.0576  155.6890 N   0  0  0  0  0  0  0  0  0  0  0  0
  150.4728  139.2136  155.6671 C   0  0  0  0  0  0  0  0  0  0  0  0
  149.5066  138.1860  155.4729 C   0  0  0  0  0  0  0  0  0  0  0  0
  148.2275  138.7318  155.5021 N   0  0  0  0  0  0  0  0  0  0  0  0
  148.4267  140.0047  155.7124 C   0  0  0  0  0  0  0  0  0  0  0  0
  149.7460  140.3797  155.8212 N   0  0  0  0  0  0  0  0  0  0  0  0
  150.2588  141.7195  156.0474 C   0  0  0  0  0  0  0  0  0  0  0  0
  150.0338  142.1970  157.4983 C   0  0  1  0  0  0  0  0  0  0  0  0
  149.7149  141.0657  158.2867 O   0  0  0  0  0  0  0  0  0  0  0  0
  151.2778  142.8678  158.1143 C   0  0  1  0  0  0  0  0  0  0  0  0
  151.6838  144.1902  157.4579 C   0  0  0  0  0  0  0  0  0  0  0  0
  152.4203  144.9352  158.5599 C   0  0  0  0  0  0  0  0  0  0  0  0
  152.0330  144.1834  159.8346 C   0  0  0  0  0  0  0  0  0  0  0  0
  150.9940  143.3010  159.4364 O   0  0  0  0  0  0  0  0  0  0  0  0
  147.8159  135.9264  155.4357 C   0  0  0  0  0  0  0  0  0  0  0  0
  146.8604  135.7371  154.2391 C   0  0  0  0  0  0  0  0  0  0  0  0
  145.6106  130.9703  149.9882 H   0  0  0  0  0  0  0  0  0  0  0  0
  146.9604  131.7070  149.1151 H   0  0  0  0  0  0  0  0  0  0  0  0
  145.3319  131.8394  148.4767 H   0  0  0  0  0  0  0  0  0  0  0  0
  143.8267  132.5998  151.0155 H   0  0  0  0  0  0  0  0  0  0  0  0
  143.7290  133.3744  149.4294 H   0  0  0  0  0  0  0  0  0  0  0  0
  144.1269  134.3344  150.8488 H   0  0  0  0  0  0  0  0  0  0  0  0
  146.1875  132.3259  152.0459 H   0  0  0  0  0  0  0  0  0  0  0  0
  147.5508  133.0154  151.1911 H   0  0  0  0  0  0  0  0  0  0  0  0
  146.2122  135.3280  151.5175 H   0  0  0  0  0  0  0  0  0  0  0  0
  145.2844  134.3996  152.6778 H   0  0  0  0  0  0  0  0  0  0  0  0
  147.2945  133.2305  154.7782 H   0  0  0  0  0  0  0  0  0  0  0  0
  147.5994  132.6190  153.1810 H   0  0  0  0  0  0  0  0  0  0  0  0
  149.7127  132.5319  154.1971 H   0  0  0  0  0  0  0  0  0  0  0  0
  149.7887  133.8697  153.0885 H   0  0  0  0  0  0  0  0  0  0  0  0
  149.5169  133.9889  156.1293 H   0  0  0  0  0  0  0  0  0  0  0  0
  150.8886  134.4539  155.1582 H   0  0  0  0  0  0  0  0  0  0  0  0
  153.2292  137.5776  155.4968 H   0  0  0  0  0  0  0  0  0  0  0  0
  147.6129  140.7112  155.7882 H   0  0  0  0  0  0  0  0  0  0  0  0
  151.3210  141.7360  155.7988 H   0  0  0  0  0  0  0  0  0  0  0  0
  149.7638  142.3851  155.3399 H   0  0  0  0  0  0  0  0  0  0  0  0
  149.1930  142.8918  157.5230 H   0  0  0  0  0  0  0  0  0  0  0  0
  149.6805  141.3319  159.1926 H   0  0  0  0  0  0  0  0  0  0  0  0
  152.1296  142.1841  158.1238 H   0  0  0  0  0  0  0  0  0  0  0  0
  152.2938  144.0485  156.5653 H   0  0  0  0  0  0  0  0  0  0  0  0
  150.7954  144.7552  157.1718 H   0  0  0  0  0  0  0  0  0  0  0  0
  153.5004  144.9075  158.4111 H   0  0  0  0  0  0  0  0  0  0  0  0
  152.1113  145.9803  158.5970 H   0  0  0  0  0  0  0  0  0  0  0  0
  152.8763  143.6007  160.2080 H   0  0  0  0  0  0  0  0  0  0  0  0
  151.6991  144.8491  160.6306 H   0  0  0  0  0  0  0  0  0  0  0  0
  147.5793  135.1774  156.1923 H   0  0  0  0  0  0  0  0  0  0  0  0
  147.6172  136.8832  155.9206 H   0  0  0  0  0  0  0  0  0  0  0  0
  146.7672  136.6942  153.7282 H   0  0  0  0  0  0  0  0  0  0  0  0
  145.8659  135.4934  154.6152 H   0  0  0  0  0  0  0  0  0  0  0  0
  146.0433  133.8434  149.5612 H   0  0  0  0  0  0  0  0  0  0  0  0
  148.0793  135.1179  152.7539 H   0  0  0  0  0  0  0  0  0  0  0  0
  1  2  1  0  0  0  0
  1 30  1  0  0  0  0
  1 31  1  0  0  0  0
  1 32  1  0  0  0  0
  2  3  1  0  0  0  0
  2  4  1  0  0  0  0
  2 63  1  0  0  0  0
  3 33  1  0  0  0  0
  3 34  1  0  0  0  0
  3 35  1  0  0  0  0
  4  5  1  0  0  0  0
  4 36  1  0  0  0  0
  4 37  1  0  0  0  0
  5  6  1  0  0  0  0
  5 38  1  0  0  0  0
  5 39  1  0  0  0  0
  6 29  1  0  0  0  0
  6  7  1  0  0  0  0
  6 64  1  0  0  0  0
  7  8  1  0  0  0  0
  7 40  1  0  0  0  0
  7 41  1  0  0  0  0
  8  9  1  0  0  0  0
  8 42  1  0  0  0  0
  8 43  1  0  0  0  0
  9 10  1  0  0  0  0
  9 44  1  0  0  0  0
  9 45  1  0  0  0  0
 10 11  1  0  0  0  0
 10 28  1  0  0  0  0
 11 16  1  0  0  0  0
 11 12  2  0  0  0  0
 12 13  1  0  0  0  0
 13 14  2  0  0  0  0
 13 46  1  0  0  0  0
 14 15  1  0  0  0  0
 15 19  1  0  0  0  0
 15 16  2  0  0  0  0
 16 17  1  0  0  0  0
 17 18  2  0  0  0  0
 18 19  1  0  0  0  0
 18 47  1  0  0  0  0
 19 20  1  0  0  0  0
 20 21  1  0  0  0  0
 20 48  1  0  0  0  0
 20 49  1  0  0  0  0
 21 22  1  0  0  0  0
 21 23  1  0  0  0  0
 21 50  1  0  0  0  0
 22 51  1  0  0  0  0
 23 27  1  0  0  0  0
 23 24  1  0  0  0  0
 23 52  1  0  0  0  0
 24 25  1  0  0  0  0
 24 53  1  0  0  0  0
 24 54  1  0  0  0  0
 25 26  1  0  0  0  0
 25 55  1  0  0  0  0
 25 56  1  0  0  0  0
 26 27  1  0  0  0  0
 26 57  1  0  0  0  0
 26 58  1  0  0  0  0
 28 29  1  0  0  0  0
 28 59  1  0  0  0  0
 28 60  1  0  0  0  0
 29 61  1  0  0  0  0
 29 62  1  0  0  0  0
M  CHG  1   2   1
M  CHG  1   6   1
M  END
> <s_m_source_file>
AV-unprocessed.smi

> <i_m_source_file_index>
155

> <i_lp_mmshare_version>
43012

> <i_f3d_flags>
0

> <s_epik_input>
W0NIM11OKFtDSDNdKVtDSDJdW0NIMl1OMVtDSDJdW0NIMl1bQ0gyXU4oW0NIMl1bQ0gyXTEpYyhuW2NIXW4yKWMoYzIzKW5bY0hdbjNbQ0gyXVtDQEhdKFtPSF0pW0NAQEhdNFtDSDJdW0NIMl1bQ0gyXU80

> <s_epik_cmdline>
J2VwaWtfcHl0aG9uJywgJy1waCcsICc3LjAnLCAnLXRuJywgJzgnLCAnLW1hJywgJzIwMCcsICctbWV0YWxfYmluZGluZycsICctaW1hZScsICc8aW5maWxlLm1hZT4nLCAnLW9tYWUnLCAnPG91dGZpbGUubWFlPic=

> <r_lp_tautomer_probability>
1

> <r_epik_Ionization_Penalty>
3.0333

> <r_epik_Ionization_Penalty_Charging>
3.03317

> <r_epik_Ionization_Penalty_Neutral>
0.000131872

> <r_epik_State_Penalty>
1.99939

> <r_epik_Charging_Adjusted_Penalty>
5.03256

> <i_epik_Tot_Q>
2

> <i_epik_Tot_abs_Q>
2

> <r_epik_Metal_State_Penalty>
2.00021

> <b_epik_Metal_Only>
0

> <s_lp_Force_Field>
OPLS_2005

> <r_lp_Energy>
63.1179

> <b_lp_Chiralities_Consistent>
1

> <s_lp_Variant>
AV-unprocessed.smi:155-19

> <Gold.Version>
5.8.1

> <Gold.Id.Protein>
6NUR|6NUR_protein|mol2

> <Gold.PLP.Fitness>
58.0256

> <Gold.PLP.PLP>
-49.0614

> <Gold.PLP.part.hbond>
-2.9537

> <Gold.PLP.part.metal>
0.0000

> <Gold.PLP.part.buried>
-4.7152

> <Gold.PLP.part.nonpolar>
-42.5935

> <Gold.PLP.part.repulsive>
0.2920

> <Gold.PLP.ligand.clash>
0.0000

> <Gold.PLP.ligand.torsion>
1.2056

> <Gold.PLP.Chemscore.Hbond>
3.6182

> <Gold.PLP.Chemscore.CHOScore>
0.0000

> <Gold.PLP.Chemscore.Metal>
0.0000

> <Gold.Chemscore.Hbonds>
donor molecule, donor type, donor heavy atom, donor atom, acceptor molecule, acceptor atom, score
      L1  H     2    63       P1  7921  0.56
      L1  H     6    64       P1  7948  2.00
      P1  H 10752 10765       L1    12  0.53

> <Gold.PLP.Chemscore.Internal.Correction>
0.5209

> <Gold.Rescore>
     Score         DG    S(hbond)    S(metal)    S(lipo)     H(rot)  DE(clash)    DE(int)     intcor
     14.62     -17.14       1.57        0.00     115.05       2.75       0.07       2.45       ----

> <Gold.Chemscore.Fitness>
14.6185

> <Gold.Chemscore.DG>
-17.1428

> <Gold.Chemscore.ZeroCoef>
-5.4800

> <Gold.Chemscore.Hbond>
1.5690

> <Gold.Chemscore.Metal>
0.0000

> <Gold.Chemscore.Lipo>
115.0475

> <Gold.Chemscore.Internal_Hbond>
0.0000

> <Gold.Chemscore.DEClash>
0.0706

> <Gold.Chemscore.DEInternal>
2.4537

> <Gold.Chemscore.Rot>
2.7493

> <Gold.Chemscore.Internal.Correction>
   9.000000E+99

> <Gold.Chemscore.Hbonds>
donor molecule, donor type, donor heavy atom, donor atom, acceptor molecule, acceptor atom, score
      L1  H     2    63       P1  7921  0.08
      L1  H     6    64       P1  7948  0.95
      P1  H 10752 10765       L1    12  0.03

> <Gold.Chemscore.Hbond.Weighted>
-5.2405

> <Gold.Chemscore.Metal.Weighted>
-0.0000

> <Gold.Chemscore.Lipo.Weighted>
-13.4606

> <Gold.Chemscore.Internal_Hbond.Weighted>
0.0000

> <Gold.Chemscore.DEClash.Weighted>
0.0706

> <Gold.Chemscore.DEInternal.Weighted>
2.4537

> <Gold.Chemscore.Rot.Weighted>
7.0383

> <Gold.Chemscore.Internal.Correction.Weighted>
   9.000000E+99

> <Gold.Protein.RotatedTorsions>
[ 6907 6896 6895 6894 ] final  -22.35 input  -60.11 | X-H torsion
[ 7974 7965 7964 7962 ] final  131.68 input  175.53 | X-H torsion
[ 8008 7997 7996 7995 ] final   21.71 input   59.86 | X-H torsion
[ 10167 10162 10161 10158 ] final  -14.31 input  -65.29 | X-H torsion
[ 10718 10713 10712 10709 ] final   12.44 input   66.30 | X-H torsion
[ 10763 10752 10751 10750 ] final -173.84 input  -60.55 | X-H torsion
[ 11005 11000 10999 10996 ] final   89.98 input  -57.11 | X-H torsion

> <Gold.Protein.ActiveResidues>
 VAL166  LYS551  ARG553  GLY616  TRP617  ASP618  TYR619  PRO620  LYS621  CYS622 
 ASP623  PHE694  ASN695  SER759  ASP760  ASP761  ALA762  ILE779  LEU786  VAL792 
 PHE793  MET794  SER795  GLU796  ALA797  LYS798  CYS799  TRP800  GLU811  SER814 

> <Gold.Protein.RotatedAtoms>
  151.2199  135.0514  159.8945 H   0  0  0  0  0  0  0  0  0  0  0  0  # atno 6907 bound_to 6896
  152.5416  134.0652  159.8180 H   0  0  0  0  0  0  0  0  0  0  0  0  # atno 6908 bound_to 6896
  151.0817  133.5337  159.2652 H   0  0  0  0  0  0  0  0  0  0  0  0  # atno 6909 bound_to 6896
  145.0047  139.4278  143.5274 H   0  0  0  0  0  0  0  0  0  0  0  0  # atno 7974 bound_to 7965
  154.9547  140.3070  155.5058 H   0  0  0  0  0  0  0  0  0  0  0  0  # atno 8008 bound_to 7997
  156.2983  140.2312  156.4566 H   0  0  0  0  0  0  0  0  0  0  0  0  # atno 8009 bound_to 7997
  154.8021  140.0433  157.1269 H   0  0  0  0  0  0  0  0  0  0  0  0  # atno 8010 bound_to 7997
  140.7199  143.5335  150.9492 H   0  0  0  0  0  0  0  0  0  0  0  0  # atno 10167 bound_to 10162
  157.0102  130.6114  149.5707 H   0  0  0  0  0  0  0  0  0  0  0  0  # atno 10718 bound_to 10713
  154.6032  135.2856  155.0513 H   0  0  0  0  0  0  0  0  0  0  0  0  # atno 10763 bound_to 10752
  154.1771  135.6463  153.5028 H   0  0  0  0  0  0  0  0  0  0  0  0  # atno 10764 bound_to 10752
  153.0165  135.5414  154.6758 H   0  0  0  0  0  0  0  0  0  0  0  0  # atno 10765 bound_to 10752
  139.8865  134.8585  156.3219 H   0  0  0  0  0  0  0  0  0  0  0  0  # atno 11005 bound_to 11000
  146.3459  139.9456  142.8735 LP  0  0  0  0  0  0  0  0  0  0  0  0  # atno 17320 bound_to 7965
  145.2104  140.9893  143.4103 LP  0  0  0  0  0  0  0  0  0  0  0  0  # atno 17321 bound_to 7965
  139.9056  143.6783  152.3124 LP  0  0  0  0  0  0  0  0  0  0  0  0  # atno 17342 bound_to 10162
  139.7148  144.7614  151.1053 LP  0  0  0  0  0  0  0  0  0  0  0  0  # atno 17343 bound_to 10162
  156.0139  130.5232  150.8074 LP  0  0  0  0  0  0  0  0  0  0  0  0  # atno 17370 bound_to 10713
  157.5326  131.0937  150.9935 LP  0  0  0  0  0  0  0  0  0  0  0  0  # atno 17371 bound_to 10713
  140.9781  133.7285  156.0631 LP  0  0  0  0  0  0  0  0  0  0  0  0  # atno 17394 bound_to 11000
  140.7785  134.3752  157.5492 LP  0  0  0  0  0  0  0  0  0  0  0  0  # atno 17395 bound_to 11000

$$$$
