AV-unprocessed.smi:148|AV-procd|sdf|1223|dock8
  -GOLD-   2262018413D 1   1.00000     0.00000
 Structure written by MMmdl.
 63 67  0  0  0  0  0  0  0  0  1 V2000
  143.8069  133.5572  156.6289 O   0  0  0  0  0  0  0  0  0  0  0  0
  144.3702  133.0816  157.8337 C   0  0  0  0  0  0  0  0  0  0  0  0
  145.3935  134.0892  158.4158 C   0  0  1  0  0  0  0  0  0  0  0  0
  144.9113  135.5611  158.2994 C   0  0  0  0  0  0  0  0  0  0  0  0
  145.9977  136.5027  158.0975 N   0  0  0  0  0  0  0  0  0  0  0  0
  146.4589  137.4362  158.9980 C   0  0  0  0  0  0  0  0  0  0  0  0
  147.4295  138.1933  158.5650 N   0  0  0  0  0  0  0  0  0  0  0  0
  147.6590  137.7398  157.2714 C   0  0  0  0  0  0  0  0  0  0  0  0
  148.5363  138.1299  156.2207 C   0  0  0  0  0  0  0  0  0  0  0  0
  149.4146  139.1528  156.2930 N   0  0  0  0  0  0  0  0  0  0  0  0
  150.4496  138.8190  157.2739 C   0  0  0  0  0  0  0  0  0  0  0  0
  151.6228  139.8010  157.2091 C   0  0  0  0  0  0  0  0  0  0  0  0
  151.1117  141.2301  157.3923 C   0  0  0  0  0  0  0  0  0  0  0  0
  150.0349  141.5353  156.3439 C   0  0  0  0  0  0  0  0  0  0  0  0
  148.8580  140.5214  156.3746 C   0  0  1  0  0  0  0  0  0  0  0  0
  147.8259  140.8637  155.2417 C   0  0  1  0  0  0  0  0  0  0  0  0
  147.5210  142.3563  154.9833 C   0  0  0  0  0  0  0  0  0  0  0  0
  147.0076  142.4714  153.5410 C   0  0  0  0  0  0  0  0  0  0  0  0
  147.2244  141.0981  152.9000 C   0  0  0  0  0  0  0  0  0  0  0  0
  148.1970  140.3678  153.8272 C   0  0  1  0  0  0  0  0  0  0  0  0
  149.5179  140.7433  153.4785 O   0  0  0  0  0  0  0  0  0  0  0  0
  148.4979  137.4261  155.0624 N   0  0  0  0  0  0  0  0  0  0  0  0
  147.6310  136.4184  154.9237 C   0  0  0  0  0  0  0  0  0  0  0  0
  146.7324  135.9627  155.7996 N   0  0  0  0  0  0  0  0  0  0  0  0
  146.7833  136.6603  156.9706 C   0  0  0  0  0  0  0  0  0  0  0  0
  145.8331  133.6923  159.8531 C   0  0  1  0  0  0  0  0  0  0  0  0
  146.8625  134.5849  160.5226 C   0  0  0  0  0  0  0  0  0  0  0  0
  146.7598  134.1169  161.9690 C   0  0  0  0  0  0  0  0  0  0  0  0
  145.3751  133.8577  162.1712 O   0  0  0  0  0  0  0  0  0  0  0  0
  144.7323  133.6219  160.9198 C   0  0  0  0  0  0  0  0  0  0  0  0
  143.4470  132.8234  156.1545 H   0  0  0  0  0  0  0  0  0  0  0  0
  143.5397  132.9155  158.5196 H   0  0  0  0  0  0  0  0  0  0  0  0
  144.8353  132.1114  157.6573 H   0  0  0  0  0  0  0  0  0  0  0  0
  146.2856  134.0143  157.7920 H   0  0  0  0  0  0  0  0  0  0  0  0
  144.2104  135.6774  157.4736 H   0  0  0  0  0  0  0  0  0  0  0  0
  144.3836  135.8684  159.2015 H   0  0  0  0  0  0  0  0  0  0  0  0
  146.0376  137.5509  159.9863 H   0  0  0  0  0  0  0  0  0  0  0  0
  150.0198  138.8318  158.2768 H   0  0  0  0  0  0  0  0  0  0  0  0
  150.8185  137.8065  157.1005 H   0  0  0  0  0  0  0  0  0  0  0  0
  152.3561  139.5611  157.9794 H   0  0  0  0  0  0  0  0  0  0  0  0
  152.1328  139.7073  156.2494 H   0  0  0  0  0  0  0  0  0  0  0  0
  150.6973  141.3518  158.3937 H   0  0  0  0  0  0  0  0  0  0  0  0
  151.9356  141.9388  157.3040 H   0  0  0  0  0  0  0  0  0  0  0  0
  149.6830  142.5509  156.5187 H   0  0  0  0  0  0  0  0  0  0  0  0
  150.4905  141.5341  155.3526 H   0  0  0  0  0  0  0  0  0  0  0  0
  148.3609  140.6239  157.3399 H   0  0  0  0  0  0  0  0  0  0  0  0
  146.8822  140.3806  155.5022 H   0  0  0  0  0  0  0  0  0  0  0  0
  146.7855  142.7606  155.6774 H   0  0  0  0  0  0  0  0  0  0  0  0
  148.4312  142.9483  155.0842 H   0  0  0  0  0  0  0  0  0  0  0  0
  145.9532  142.7484  153.5115 H   0  0  0  0  0  0  0  0  0  0  0  0
  147.5621  143.2430  153.0053 H   0  0  0  0  0  0  0  0  0  0  0  0
  146.2758  140.5598  152.8817 H   0  0  0  0  0  0  0  0  0  0  0  0
  147.5780  141.1628  151.8701 H   0  0  0  0  0  0  0  0  0  0  0  0
  148.0942  139.2871  153.7254 H   0  0  0  0  0  0  0  0  0  0  0  0
  149.9084  140.0386  152.9846 H   0  0  0  0  0  0  0  0  0  0  0  0
  147.6546  135.9097  153.9712 H   0  0  0  0  0  0  0  0  0  0  0  0
  146.2879  132.7017  159.8012 H   0  0  0  0  0  0  0  0  0  0  0  0
  147.8645  134.4695  160.1086 H   0  0  0  0  0  0  0  0  0  0  0  0
  146.5862  135.6371  160.4692 H   0  0  0  0  0  0  0  0  0  0  0  0
  147.3164  133.1895  162.1108 H   0  0  0  0  0  0  0  0  0  0  0  0
  147.1379  134.8533  162.6785 H   0  0  0  0  0  0  0  0  0  0  0  0
  143.9736  134.3908  160.7822 H   0  0  0  0  0  0  0  0  0  0  0  0
  144.2284  132.6550  160.9176 H   0  0  0  0  0  0  0  0  0  0  0  0
  1  2  1  0  0  0  0
  1 31  1  0  0  0  0
  2  3  1  0  0  0  0
  2 32  1  0  0  0  0
  2 33  1  0  0  0  0
  3  4  1  0  0  0  0
  3 26  1  0  0  0  0
  3 34  1  0  0  0  0
  4  5  1  0  0  0  0
  4 35  1  0  0  0  0
  4 36  1  0  0  0  0
  5 25  1  0  0  0  0
  5  6  1  0  0  0  0
  6  7  2  0  0  0  0
  6 37  1  0  0  0  0
  7  8  1  0  0  0  0
  8 25  2  0  0  0  0
  8  9  1  0  0  0  0
  9 10  1  0  0  0  0
  9 22  2  0  0  0  0
 10 15  1  0  0  0  0
 10 11  1  0  0  0  0
 11 12  1  0  0  0  0
 11 38  1  0  0  0  0
 11 39  1  0  0  0  0
 12 13  1  0  0  0  0
 12 40  1  0  0  0  0
 12 41  1  0  0  0  0
 13 14  1  0  0  0  0
 13 42  1  0  0  0  0
 13 43  1  0  0  0  0
 14 15  1  0  0  0  0
 14 44  1  0  0  0  0
 14 45  1  0  0  0  0
 15 16  1  0  0  0  0
 15 46  1  0  0  0  0
 16 20  1  0  0  0  0
 16 17  1  0  0  0  0
 16 47  1  0  0  0  0
 17 18  1  0  0  0  0
 17 48  1  0  0  0  0
 17 49  1  0  0  0  0
 18 19  1  0  0  0  0
 18 50  1  0  0  0  0
 18 51  1  0  0  0  0
 19 20  1  0  0  0  0
 19 52  1  0  0  0  0
 19 53  1  0  0  0  0
 20 21  1  0  0  0  0
 20 54  1  0  0  0  0
 21 55  1  0  0  0  0
 22 23  1  0  0  0  0
 23 24  2  0  0  0  0
 23 56  1  0  0  0  0
 24 25  1  0  0  0  0
 26 30  1  0  0  0  0
 26 27  1  0  0  0  0
 26 57  1  0  0  0  0
 27 28  1  0  0  0  0
 27 58  1  0  0  0  0
 27 59  1  0  0  0  0
 28 29  1  0  0  0  0
 28 60  1  0  0  0  0
 28 61  1  0  0  0  0
 29 30  1  0  0  0  0
 30 62  1  0  0  0  0
 30 63  1  0  0  0  0
M  END
> <s_m_source_file>
AV-unprocessed.smi

> <i_m_source_file_index>
148

> <i_lp_mmshare_version>
43012

> <i_f3d_flags>
0

> <s_epik_input>
W0NIMl0xT1tDSDJdW0NIMl1bQ0BIXTFbQ0BIXShbQ0gyXVtPSF0pW0NIMl1uKFtjSF1uMiljKGMyMyluW2NIXW5jM040W0NIMl1bQ0gyXVtDSDJdW0NIMl1bQ0BIXTRbQ0BASF01W0NIMl1bQ0gyXVtDSDJdW0NASF01W09IXQ==

> <s_epik_cmdline>
J2VwaWtfcHl0aG9uJywgJy1waCcsICc3LjAnLCAnLXRuJywgJzgnLCAnLW1hJywgJzIwMCcsICctbWV0YWxfYmluZGluZycsICctaW1hZScsICc8aW5maWxlLm1hZT4nLCAnLW9tYWUnLCAnPG91dGZpbGUubWFlPic=

> <r_lp_tautomer_probability>
1

> <r_epik_Ionization_Penalty>
0.00556303

> <r_epik_Ionization_Penalty_Charging>
0

> <r_epik_Ionization_Penalty_Neutral>
0.00556303

> <r_epik_State_Penalty>
0.00401767

> <r_epik_Charging_Adjusted_Penalty>
0.00401767

> <i_epik_Tot_Q>
0

> <i_epik_Tot_abs_Q>
0

> <r_epik_Metal_State_Penalty>
-0

> <b_epik_Metal_Only>
0

> <s_lp_Force_Field>
OPLS_2005

> <r_lp_Energy>
70.5845

> <b_lp_Chiralities_Consistent>
1

> <s_lp_Variant>
AV-unprocessed.smi:148-22

> <Gold.Version>
5.8.1

> <Gold.Id.Protein>
6NUR|6NUR_protein|mol2

> <Gold.PLP.Fitness>
37.0329

> <Gold.PLP.PLP>
-28.3639

> <Gold.PLP.part.hbond>
-4.9240

> <Gold.PLP.part.metal>
0.0000

> <Gold.PLP.part.buried>
-3.1175

> <Gold.PLP.part.nonpolar>
-19.7198

> <Gold.PLP.part.repulsive>
0.1553

> <Gold.PLP.ligand.clash>
0.0000

> <Gold.PLP.ligand.torsion>
1.0373

> <Gold.PLP.Chemscore.Hbond>
2.4057

> <Gold.PLP.Chemscore.CHOScore>
1.0000

> <Gold.PLP.Chemscore.Metal>
0.0000

> <Gold.Chemscore.Hbonds>
donor molecule, donor type, donor heavy atom, donor atom, acceptor molecule, acceptor atom, score
      L1  H     1    31       P1 10957  1.00
      L1  H    21    55       P1  7957  0.34
      P1  H  8011  8017       L1    21  0.98
      L1  C    23    56       P1  7948  1.00

> <Gold.PLP.Chemscore.Internal.Correction>
0.5267

> <Gold.Rescore>
     Score         DG    S(hbond)    S(metal)    S(lipo)     H(rot)  DE(clash)    DE(int)     intcor
      9.47     -12.61       1.92        0.00      78.76       3.32       1.13       2.01       ----

> <Gold.Chemscore.Fitness>
9.4682

> <Gold.Chemscore.DG>
-12.6106

> <Gold.Chemscore.ZeroCoef>
-5.4800

> <Gold.Chemscore.Hbond>
1.9208

> <Gold.Chemscore.Metal>
0.0000

> <Gold.Chemscore.Lipo>
78.7630

> <Gold.Chemscore.Internal_Hbond>
0.0000

> <Gold.Chemscore.DEClash>
1.1329

> <Gold.Chemscore.DEInternal>
2.0095

> <Gold.Chemscore.Rot>
3.3203

> <Gold.Chemscore.Internal.Correction>
   9.000000E+99

> <Gold.Chemscore.Hbonds>
donor molecule, donor type, donor heavy atom, donor atom, acceptor molecule, acceptor atom, score
      L1  H     1    31       P1 10957  1.00
      L1  H    21    55       P1  7957  0.34
      P1  H  8011  8017       L1    21  0.44

> <Gold.Chemscore.Hbond.Weighted>
-6.4154

> <Gold.Chemscore.Metal.Weighted>
-0.0000

> <Gold.Chemscore.Lipo.Weighted>
-9.2153

> <Gold.Chemscore.Internal_Hbond.Weighted>
0.0000

> <Gold.Chemscore.DEClash.Weighted>
1.1329

> <Gold.Chemscore.DEInternal.Weighted>
2.0095

> <Gold.Chemscore.Rot.Weighted>
8.5000

> <Gold.Chemscore.Internal.Correction.Weighted>
   9.000000E+99

> <Gold.Protein.RotatedTorsions>
[ 6907 6896 6895 6894 ] final -149.61 input  -60.11 | X-H torsion
[ 7974 7965 7964 7962 ] final  -29.86 input  175.53 | X-H torsion
[ 8008 7997 7996 7995 ] final  -65.88 input   59.86 | X-H torsion
[ 10167 10162 10161 10158 ] final   83.49 input  -65.29 | X-H torsion
[ 10718 10713 10712 10709 ] final   27.03 input   66.30 | X-H torsion
[ 10763 10752 10751 10750 ] final   17.79 input  -60.55 | X-H torsion
[ 11005 11000 10999 10996 ] final   98.62 input  -57.11 | X-H torsion

> <Gold.Protein.ActiveResidues>
 VAL166  LYS551  ARG553  GLY616  TRP617  ASP618  TYR619  PRO620  LYS621  CYS622 
 ASP623  PHE694  ASN695  SER759  ASP760  ASP761  ALA762  ILE779  LEU786  VAL792 
 PHE793  MET794  SER795  GLU796  ALA797  LYS798  CYS799  TRP800  GLU811  SER814 

> <Gold.Protein.RotatedAtoms>
  151.1866  133.4692  159.2594 H   0  0  0  0  0  0  0  0  0  0  0  0  # atno 6907 bound_to 6896
  151.1205  135.0076  159.8546 H   0  0  0  0  0  0  0  0  0  0  0  0  # atno 6908 bound_to 6896
  152.5455  134.1778  159.8676 H   0  0  0  0  0  0  0  0  0  0  0  0  # atno 6909 bound_to 6896
  146.1185  140.5466  142.8746 H   0  0  0  0  0  0  0  0  0  0  0  0  # atno 7974 bound_to 7965
  154.4699  140.0924  156.7117 H   0  0  0  0  0  0  0  0  0  0  0  0  # atno 8008 bound_to 7997
  155.4753  140.3466  155.4313 H   0  0  0  0  0  0  0  0  0  0  0  0  # atno 8009 bound_to 7997
  156.1021  140.1425  156.9442 H   0  0  0  0  0  0  0  0  0  0  0  0  # atno 8010 bound_to 7997
  139.9178  144.6231  150.8471 H   0  0  0  0  0  0  0  0  0  0  0  0  # atno 10167 bound_to 10162
  157.2147  130.6950  149.6244 H   0  0  0  0  0  0  0  0  0  0  0  0  # atno 10718 bound_to 10713
  153.1307  135.6739  153.9183 H   0  0  0  0  0  0  0  0  0  0  0  0  # atno 10763 bound_to 10752
  153.8670  135.3074  155.3441 H   0  0  0  0  0  0  0  0  0  0  0  0  # atno 10764 bound_to 10752
  154.7704  135.4942  153.9720 H   0  0  0  0  0  0  0  0  0  0  0  0  # atno 10765 bound_to 10752
  139.8772  134.9057  156.4483 H   0  0  0  0  0  0  0  0  0  0  0  0  # atno 11005 bound_to 11000
  144.7575  140.5343  143.6758 LP  0  0  0  0  0  0  0  0  0  0  0  0  # atno 17320 bound_to 7965
  145.5515  139.1477  143.3391 LP  0  0  0  0  0  0  0  0  0  0  0  0  # atno 17321 bound_to 7965
  140.7670  143.3318  151.2393 LP  0  0  0  0  0  0  0  0  0  0  0  0  # atno 17342 bound_to 10162
  139.6887  143.9729  152.2848 LP  0  0  0  0  0  0  0  0  0  0  0  0  # atno 17343 bound_to 10162
  155.9687  130.4539  150.5831 LP  0  0  0  0  0  0  0  0  0  0  0  0  # atno 17370 bound_to 10713
  157.3637  131.0754  151.1616 LP  0  0  0  0  0  0  0  0  0  0  0  0  # atno 17371 bound_to 10713
  140.8950  133.7820  155.9615 LP  0  0  0  0  0  0  0  0  0  0  0  0  # atno 17394 bound_to 11000
  140.8713  134.2723  157.5189 LP  0  0  0  0  0  0  0  0  0  0  0  0  # atno 17395 bound_to 11000

$$$$
