AV-unprocessed.smi:2627|AV-procd|sdf|10242|dock1
  -GOLD-   2272014253D 1   1.00000     0.00000
 Structure written by MMmdl.
 40 42  0  0  0  0  0  0  0  0  2 V2000
  152.0125  137.5719  156.0463 C   0  0  0  0  0  0  0  0  0  0  0  0
  151.7163  137.7863  154.5562 C   0  0  1  0  0  0  0  0  0  0  0  0
  151.4420  136.5320  153.9675 O   0  0  0  0  0  0  0  0  0  0  0  0
  150.5849  138.7506  154.3728 C   0  0  0  0  0  0  0  0  0  0  0  0
  149.5057  138.5570  153.5618 N   0  3  0  0  0  0  0  0  0  0  0  0
  148.6335  139.6400  153.6639 C   0  0  0  0  0  0  0  0  0  0  0  0
  147.4160  139.8907  153.0386 C   0  0  0  0  0  0  0  0  0  0  0  0
  146.7699  141.0986  153.3736 C   0  0  0  0  0  0  0  0  0  0  0  0
  147.3348  142.0009  154.2983 C   0  0  0  0  0  0  0  0  0  0  0  0
  148.5703  141.7356  154.9251 C   0  0  0  0  0  0  0  0  0  0  0  0
  149.2050  140.5408  154.5854 C   0  0  0  0  0  0  0  0  0  0  0  0
  150.4104  139.9558  154.9919 N   0  0  0  0  0  0  0  0  0  0  0  0
  151.2507  140.6606  155.9708 C   0  0  0  0  0  0  0  0  0  0  0  0
  150.5876  140.7229  157.3516 C   0  0  0  0  0  0  0  0  0  0  0  0
  151.5867  141.0052  158.3205 O   0  0  0  0  0  0  0  0  0  0  0  0
  151.8016  142.3213  158.6701 C   0  0  0  0  0  0  0  0  0  0  0  0
  151.5051  143.2987  157.6974 C   0  0  0  0  0  0  0  0  0  0  0  0
  151.6985  144.6673  157.9676 C   0  0  0  0  0  0  0  0  0  0  0  0
  152.1932  145.0737  159.2203 C   0  0  0  0  0  0  0  0  0  0  0  0
  152.4916  144.1099  160.2011 C   0  0  0  0  0  0  0  0  0  0  0  0
  152.2971  142.7411  159.9310 C   0  0  0  0  0  0  0  0  0  0  0  0
  152.2735  138.5112  156.5344 H   0  0  0  0  0  0  0  0  0  0  0  0
  152.8484  136.8860  156.1866 H   0  0  0  0  0  0  0  0  0  0  0  0
  151.1500  137.1558  156.5683 H   0  0  0  0  0  0  0  0  0  0  0  0
  152.6086  138.1804  154.0713 H   0  0  0  0  0  0  0  0  0  0  0  0
  151.2747  136.6622  153.0462 H   0  0  0  0  0  0  0  0  0  0  0  0
  146.9803  139.1990  152.3327 H   0  0  0  0  0  0  0  0  0  0  0  0
  145.8214  141.3368  152.9139 H   0  0  0  0  0  0  0  0  0  0  0  0
  146.8096  142.9158  154.5321 H   0  0  0  0  0  0  0  0  0  0  0  0
  148.9906  142.4333  155.6342 H   0  0  0  0  0  0  0  0  0  0  0  0
  152.2074  140.1429  156.0336 H   0  0  0  0  0  0  0  0  0  0  0  0
  151.4735  141.6606  155.5980 H   0  0  0  0  0  0  0  0  0  0  0  0
  149.8216  141.4999  157.3629 H   0  0  0  0  0  0  0  0  0  0  0  0
  150.1094  139.7673  157.5712 H   0  0  0  0  0  0  0  0  0  0  0  0
  151.1266  142.9961  156.7321 H   0  0  0  0  0  0  0  0  0  0  0  0
  151.4684  145.4047  157.2128 H   0  0  0  0  0  0  0  0  0  0  0  0
  152.3438  146.1228  159.4286 H   0  0  0  0  0  0  0  0  0  0  0  0
  152.8715  144.4208  161.1631 H   0  0  0  0  0  0  0  0  0  0  0  0
  152.5369  142.0328  160.7092 H   0  0  0  0  0  0  0  0  0  0  0  0
  149.3796  137.7353  152.9844 H   0  0  0  0  0  0  0  0  0  0  0  0
  1  2  1  0  0  0  0
  1 22  1  0  0  0  0
  1 23  1  0  0  0  0
  1 24  1  0  0  0  0
  2  3  1  0  0  0  0
  2  4  1  0  0  0  0
  2 25  1  0  0  0  0
  3 26  1  0  0  0  0
  4 12  1  0  0  0  0
  4  5  2  0  0  0  0
  5  6  1  0  0  0  0
  5 40  1  0  0  0  0
  6 11  2  0  0  0  0
  6  7  1  0  0  0  0
  7  8  2  0  0  0  0
  7 27  1  0  0  0  0
  8  9  1  0  0  0  0
  8 28  1  0  0  0  0
  9 10  2  0  0  0  0
  9 29  1  0  0  0  0
 10 11  1  0  0  0  0
 10 30  1  0  0  0  0
 11 12  1  0  0  0  0
 12 13  1  0  0  0  0
 13 14  1  0  0  0  0
 13 31  1  0  0  0  0
 13 32  1  0  0  0  0
 14 15  1  0  0  0  0
 14 33  1  0  0  0  0
 14 34  1  0  0  0  0
 15 16  1  0  0  0  0
 16 21  1  0  0  0  0
 16 17  2  0  0  0  0
 17 18  1  0  0  0  0
 17 35  1  0  0  0  0
 18 19  2  0  0  0  0
 18 36  1  0  0  0  0
 19 20  1  0  0  0  0
 19 37  1  0  0  0  0
 20 21  2  0  0  0  0
 20 38  1  0  0  0  0
 21 39  1  0  0  0  0
M  CHG  1   5   1
M  END
> <s_m_source_file>
AV-unprocessed.smi

> <i_m_source_file_index>
2627

> <i_lp_mmshare_version>
43012

> <i_f3d_flags>
0

> <s_epik_input>
W2NIXTFbY0hdW2NIXVtjSF1jKGMxMiluKGMobjIpW0NASF0oW0NIM10pW09IXSlbQ0gyXVtDSDJdT2MzW2NIXVtjSF1bY0hdW2NIXVtjSF0z

> <s_epik_cmdline>
J2VwaWtfcHl0aG9uJywgJy1waCcsICc3LjAnLCAnLXRuJywgJzgnLCAnLW1hJywgJzIwMCcsICctbWV0YWxfYmluZGluZycsICctaW1hZScsICc8aW5maWxlLm1hZT4nLCAnLW9tYWUnLCAnPG91dGZpbGUubWFlPic=

> <r_lp_tautomer_probability>
1

> <r_epik_Ionization_Penalty>
1.52183

> <r_epik_Ionization_Penalty_Charging>
1.5218

> <r_epik_Ionization_Penalty_Neutral>
2.92192e-05

> <r_epik_State_Penalty>
1.61369

> <r_epik_Charging_Adjusted_Penalty>
3.13549

> <i_epik_Tot_Q>
1

> <i_epik_Tot_abs_Q>
1

> <r_epik_Metal_State_Penalty>
5.66625

> <b_epik_Metal_Only>
0

> <s_lp_Force_Field>
OPLS_2005

> <r_lp_Energy>
19.8189

> <b_lp_Chiralities_Consistent>
1

> <s_lp_Variant>
AV-unprocessed.smi:2627-4

> <Gold.Version>
5.8.1

> <Gold.Id.Protein>
6NUR|6NUR_protein|mol2

> <Gold.PLP.Fitness>
61.4748

> <Gold.PLP.PLP>
-51.3504

> <Gold.PLP.part.hbond>
-4.4082

> <Gold.PLP.part.metal>
0.0000

> <Gold.PLP.part.buried>
1.0716

> <Gold.PLP.part.nonpolar>
-48.1130

> <Gold.PLP.part.repulsive>
0.0750

> <Gold.PLP.ligand.clash>
0.0000

> <Gold.PLP.ligand.torsion>
0.9837

> <Gold.PLP.Chemscore.Hbond>
3.9520

> <Gold.PLP.Chemscore.CHOScore>
0.0000

> <Gold.PLP.Chemscore.Metal>
0.0000

> <Gold.Chemscore.Hbonds>
donor molecule, donor type, donor heavy atom, donor atom, acceptor molecule, acceptor atom, score
      L1  H     3    26       P1  7949  0.96
      L1  H     5    40       P1  7948  2.00
      P1  H 10752 10763       L1     3  0.99

> <Gold.PLP.Chemscore.Internal.Correction>
0.2358

> <Gold.Rescore>
     Score         DG    S(hbond)    S(metal)    S(lipo)     H(rot)  DE(clash)    DE(int)     intcor
     22.27     -23.34       2.36        0.00     131.82       2.13       0.31       0.77       ----

> <Gold.Chemscore.Fitness>
22.2657

> <Gold.Chemscore.DG>
-23.3375

> <Gold.Chemscore.ZeroCoef>
-5.4800

> <Gold.Chemscore.Hbond>
2.3615

> <Gold.Chemscore.Metal>
0.0000

> <Gold.Chemscore.Lipo>
131.8182

> <Gold.Chemscore.Internal_Hbond>
0.0000

> <Gold.Chemscore.DEClash>
0.3052

> <Gold.Chemscore.DEInternal>
0.7666

> <Gold.Chemscore.Rot>
2.1299

> <Gold.Chemscore.Internal.Correction>
   9.000000E+99

> <Gold.Chemscore.Hbonds>
donor molecule, donor type, donor heavy atom, donor atom, acceptor molecule, acceptor atom, score
      L1  H     3    26       P1  7949  0.60
      L1  H     5    40       P1  7948  0.93
      P1  H 10752 10763       L1     3  0.11

> <Gold.Chemscore.Hbond.Weighted>
-7.8873

> <Gold.Chemscore.Metal.Weighted>
-0.0000

> <Gold.Chemscore.Lipo.Weighted>
-15.4227

> <Gold.Chemscore.Internal_Hbond.Weighted>
0.0000

> <Gold.Chemscore.DEClash.Weighted>
0.3052

> <Gold.Chemscore.DEInternal.Weighted>
0.7666

> <Gold.Chemscore.Rot.Weighted>
5.4526

> <Gold.Chemscore.Internal.Correction.Weighted>
   9.000000E+99

> <Gold.Protein.RotatedTorsions>
[ 6907 6896 6895 6894 ] final -127.85 input  -60.11 | X-H torsion
[ 7974 7965 7964 7962 ] final -109.40 input  175.53 | X-H torsion
[ 8008 7997 7996 7995 ] final  -85.53 input   59.86 | X-H torsion
[ 10167 10162 10161 10158 ] final    3.70 input  -65.29 | X-H torsion
[ 10718 10713 10712 10709 ] final -140.01 input   66.30 | X-H torsion
[ 10763 10752 10751 10750 ] final   15.25 input  -60.55 | X-H torsion
[ 11005 11000 10999 10996 ] final   -0.54 input  -57.11 | X-H torsion

> <Gold.Protein.ActiveResidues>
 VAL166  LYS551  ARG553  GLY616  TRP617  ASP618  TYR619  PRO620  LYS621  CYS622 
 ASP623  PHE694  ASN695  SER759  ASP760  ASP761  ALA762  ILE779  LEU786  VAL792 
 PHE793  MET794  SER795  GLU796  ALA797  LYS798  CYS799  TRP800  GLU811  SER814 

> <Gold.Protein.RotatedAtoms>
  150.9117  133.6990  159.2853 H   0  0  0  0  0  0  0  0  0  0  0  0  # atno 6907 bound_to 6896
  151.4474  135.1025  159.9697 H   0  0  0  0  0  0  0  0  0  0  0  0  # atno 6908 bound_to 6896
  152.4933  133.8510  159.7257 H   0  0  0  0  0  0  0  0  0  0  0  0  # atno 6909 bound_to 6896
  145.1809  140.8971  143.3480 H   0  0  0  0  0  0  0  0  0  0  0  0  # atno 7974 bound_to 7965
  154.6418  140.0590  156.9854 H   0  0  0  0  0  0  0  0  0  0  0  0  # atno 8008 bound_to 7997
  155.1505  140.3273  155.4414 H   0  0  0  0  0  0  0  0  0  0  0  0  # atno 8009 bound_to 7997
  156.2534  140.1948  156.6617 H   0  0  0  0  0  0  0  0  0  0  0  0  # atno 8010 bound_to 7997
  140.6572  143.7396  150.7675 H   0  0  0  0  0  0  0  0  0  0  0  0  # atno 10167 bound_to 10162
  156.3173  130.7515  151.1605 H   0  0  0  0  0  0  0  0  0  0  0  0  # atno 10718 bound_to 10713
  153.1543  135.6784  153.8835 H   0  0  0  0  0  0  0  0  0  0  0  0  # atno 10763 bound_to 10752
  153.8251  135.3125  155.3415 H   0  0  0  0  0  0  0  0  0  0  0  0  # atno 10764 bound_to 10752
  154.7886  135.4848  154.0088 H   0  0  0  0  0  0  0  0  0  0  0  0  # atno 10765 bound_to 10752
  140.6374  133.9520  155.8307 H   0  0  0  0  0  0  0  0  0  0  0  0  # atno 11005 bound_to 11000
  145.0137  139.3487  143.6107 LP  0  0  0  0  0  0  0  0  0  0  0  0  # atno 17320 bound_to 7965
  146.3453  139.9409  142.8741 LP  0  0  0  0  0  0  0  0  0  0  0  0  # atno 17321 bound_to 7965
  140.1058  143.4745  152.2399 LP  0  0  0  0  0  0  0  0  0  0  0  0  # atno 17342 bound_to 10162
  139.5798  144.7505  151.3670 LP  0  0  0  0  0  0  0  0  0  0  0  0  # atno 17343 bound_to 10162
  157.7404  131.0517  150.5166 LP  0  0  0  0  0  0  0  0  0  0  0  0  # atno 17370 bound_to 10713
  156.5314  130.4185  149.6200 LP  0  0  0  0  0  0  0  0  0  0  0  0  # atno 17371 bound_to 10713
  141.0631  134.0316  157.3631 LP  0  0  0  0  0  0  0  0  0  0  0  0  # atno 17394 bound_to 11000
  139.9093  135.0187  156.7622 LP  0  0  0  0  0  0  0  0  0  0  0  0  # atno 17395 bound_to 11000

$$$$
