AV-unprocessed.smi:500|AV-procd|sdf|2734|dock3
  -GOLD-   2262023183D 1   1.00000     0.00000
 Structure written by MMmdl.
 45 47  0  0  0  0  0  0  0  0  1 V2000
  154.3253  137.1022  164.1199 C   0  0  0  0  0  0  0  0  0  0  0  0
  154.3645  136.2807  162.8239 C   0  0  0  0  0  0  0  0  0  0  0  0
  154.4174  137.1108  161.6720 O   0  0  0  0  0  0  0  0  0  0  0  0
  153.1717  137.2721  161.0115 C   0  0  0  0  0  0  0  0  0  0  0  0
  153.4291  137.8401  159.6104 C   0  0  0  0  0  0  0  0  0  0  0  0
  152.4837  138.8942  159.2735 N   0  0  0  0  0  0  0  0  0  0  0  0
  151.2217  138.7776  158.7823 C   0  0  0  0  0  0  0  0  0  0  0  0
  150.5749  137.4445  158.4966 C   0  0  2  0  0  0  0  0  0  0  0  0
  149.8857  137.4163  157.1253 C   0  0  0  0  0  0  0  0  0  0  0  0
  149.6091  137.1653  159.5563 N   0  0  0  0  0  0  0  0  0  0  0  0
  148.9656  135.9993  159.7286 C   0  0  0  0  0  0  0  0  0  0  0  0
  149.1022  135.0321  158.9792 O   0  0  0  0  0  0  0  0  0  0  0  0
  148.0568  135.9329  160.8882 C   0  0  0  0  0  0  0  0  0  0  0  0
  147.4351  134.8719  161.4927 C   0  0  0  0  0  0  0  0  0  0  0  0
  146.6631  135.4073  162.5605 C   0  0  0  0  0  0  0  0  0  0  0  0
  146.8654  136.7570  162.5304 C   0  0  0  0  0  0  0  0  0  0  0  0
  147.7084  137.0933  161.5168 O   0  0  0  0  0  0  0  0  0  0  0  0
  150.5763  139.9291  158.5777 N   0  0  0  0  0  0  0  0  0  0  0  0
  151.5048  140.8755  158.9602 C   0  0  0  0  0  0  0  0  0  0  0  0
  151.4238  142.2864  158.9737 C   0  0  0  0  0  0  0  0  0  0  0  0
  152.5189  143.0598  159.4108 C   0  0  0  0  0  0  0  0  0  0  0  0
  153.7075  142.4345  159.8397 C   0  0  0  0  0  0  0  0  0  0  0  0
  153.8082  141.0299  159.8349 C   0  0  0  0  0  0  0  0  0  0  0  0
  152.7115  140.2618  159.3985 C   0  0  0  0  0  0  0  0  0  0  0  0
  154.3820  136.4487  164.9907 H   0  0  0  0  0  0  0  0  0  0  0  0
  153.4067  137.6816  164.2077 H   0  0  0  0  0  0  0  0  0  0  0  0
  155.1662  137.7942  164.1690 H   0  0  0  0  0  0  0  0  0  0  0  0
  155.2654  135.6669  162.8258 H   0  0  0  0  0  0  0  0  0  0  0  0
  153.5209  135.5909  162.7704 H   0  0  0  0  0  0  0  0  0  0  0  0
  152.6616  136.3107  160.9343 H   0  0  0  0  0  0  0  0  0  0  0  0
  152.5240  137.9431  161.5747 H   0  0  0  0  0  0  0  0  0  0  0  0
  154.4455  138.2229  159.5207 H   0  0  0  0  0  0  0  0  0  0  0  0
  153.3467  137.0445  158.8697 H   0  0  0  0  0  0  0  0  0  0  0  0
  151.3200  136.6504  158.4951 H   0  0  0  0  0  0  0  0  0  0  0  0
  150.5994  137.6176  156.3259 H   0  0  0  0  0  0  0  0  0  0  0  0
  149.0941  138.1635  157.0592 H   0  0  0  0  0  0  0  0  0  0  0  0
  149.4392  136.4408  156.9308 H   0  0  0  0  0  0  0  0  0  0  0  0
  149.4372  137.9042  160.2223 H   0  0  0  0  0  0  0  0  0  0  0  0
  147.5223  133.8351  161.2021 H   0  0  0  0  0  0  0  0  0  0  0  0
  146.0376  134.8730  163.2602 H   0  0  0  0  0  0  0  0  0  0  0  0
  146.5046  137.5839  163.1240 H   0  0  0  0  0  0  0  0  0  0  0  0
  150.5176  142.7744  158.6467 H   0  0  0  0  0  0  0  0  0  0  0  0
  152.4468  144.1375  159.4163 H   0  0  0  0  0  0  0  0  0  0  0  0
  154.5422  143.0337  160.1727 H   0  0  0  0  0  0  0  0  0  0  0  0
  154.7188  140.5508  160.1627 H   0  0  0  0  0  0  0  0  0  0  0  0
  1  2  1  0  0  0  0
  1 25  1  0  0  0  0
  1 26  1  0  0  0  0
  1 27  1  0  0  0  0
  2  3  1  0  0  0  0
  2 28  1  0  0  0  0
  2 29  1  0  0  0  0
  3  4  1  0  0  0  0
  4  5  1  0  0  0  0
  4 30  1  0  0  0  0
  4 31  1  0  0  0  0
  5  6  1  0  0  0  0
  5 32  1  0  0  0  0
  5 33  1  0  0  0  0
  6 24  1  0  0  0  0
  6  7  1  0  0  0  0
  7  8  1  0  0  0  0
  7 18  2  0  0  0  0
  8  9  1  0  0  0  0
  8 10  1  0  0  0  0
  8 34  1  0  0  0  0
  9 35  1  0  0  0  0
  9 36  1  0  0  0  0
  9 37  1  0  0  0  0
 10 11  1  0  0  0  0
 10 38  1  0  0  0  0
 11 12  2  0  0  0  0
 11 13  1  0  0  0  0
 13 17  1  0  0  0  0
 13 14  2  0  0  0  0
 14 15  1  0  0  0  0
 14 39  1  0  0  0  0
 15 16  2  0  0  0  0
 15 40  1  0  0  0  0
 16 17  1  0  0  0  0
 16 41  1  0  0  0  0
 18 19  1  0  0  0  0
 19 24  2  0  0  0  0
 19 20  1  0  0  0  0
 20 21  2  0  0  0  0
 20 42  1  0  0  0  0
 21 22  1  0  0  0  0
 21 43  1  0  0  0  0
 22 23  2  0  0  0  0
 22 44  1  0  0  0  0
 23 24  1  0  0  0  0
 23 45  1  0  0  0  0
M  END
> <s_m_source_file>
AV-unprocessed.smi

> <i_m_source_file_index>
500

> <i_lp_mmshare_version>
43012

> <i_f3d_flags>
0

> <s_epik_input>
W0NIM11bQ0gyXU9bQ0gyXVtDSDJdbihjKGMxMilbY0hdW2NIXVtjSF1bY0hdMiljKG4xKVtDQEhdKFtDSDNdKVtOSF1DKD1PKWMzW2NIXVtjSF1bY0hdbzM=

> <s_epik_cmdline>
J2VwaWtfcHl0aG9uJywgJy1waCcsICc3LjAnLCAnLXRuJywgJzgnLCAnLW1hJywgJzIwMCcsICctbWV0YWxfYmluZGluZycsICctaW1hZScsICc8aW5maWxlLm1hZT4nLCAnLW9tYWUnLCAnPG91dGZpbGUubWFlPic=

> <r_epik_Ionization_Penalty>
0.109801

> <r_epik_Ionization_Penalty_Charging>
0

> <r_epik_Ionization_Penalty_Neutral>
0.109801

> <r_epik_State_Penalty>
0.0995533

> <r_epik_Charging_Adjusted_Penalty>
0.0995533

> <i_epik_Tot_Q>
0

> <i_epik_Tot_abs_Q>
0

> <r_epik_Metal_State_Penalty>
0.0918163

> <b_epik_Metal_Only>
0

> <s_lp_Force_Field>
OPLS_2005

> <r_lp_Energy>
8.25657

> <b_lp_Chiralities_Consistent>
1

> <s_lp_Variant>
AV-unprocessed.smi:500-1

> <Gold.Version>
5.8.1

> <Gold.Id.Protein>
6NUR|6NUR_protein|mol2

> <Gold.PLP.Fitness>
53.8041

> <Gold.PLP.PLP>
-48.1342

> <Gold.PLP.part.hbond>
-3.0000

> <Gold.PLP.part.metal>
0.0000

> <Gold.PLP.part.buried>
-6.2853

> <Gold.PLP.part.nonpolar>
-38.9239

> <Gold.PLP.part.repulsive>
0.2386

> <Gold.PLP.ligand.clash>
0.0000

> <Gold.PLP.ligand.torsion>
1.4602

> <Gold.PLP.Chemscore.Hbond>
2.8160

> <Gold.PLP.Chemscore.CHOScore>
0.0000

> <Gold.PLP.Chemscore.Metal>
0.0000

> <Gold.Chemscore.Hbonds>
donor molecule, donor type, donor heavy atom, donor atom, acceptor molecule, acceptor atom, score
      P1  H  6896  6907       L1    12  1.00
      P1  H  6931  6943       L1    17  1.00
      P1  H  6934  6947       L1    17  0.69

> <Gold.PLP.Chemscore.Internal.Correction>
0.1422

> <Gold.Rescore>
     Score         DG    S(hbond)    S(metal)    S(lipo)     H(rot)  DE(clash)    DE(int)     intcor
     19.96     -21.75       2.04        0.00     122.66       1.92       0.19       1.60       ----

> <Gold.Chemscore.Fitness>
19.9642

> <Gold.Chemscore.DG>
-21.7533

> <Gold.Chemscore.ZeroCoef>
-5.4800

> <Gold.Chemscore.Hbond>
2.0436

> <Gold.Chemscore.Metal>
0.0000

> <Gold.Chemscore.Lipo>
122.6636

> <Gold.Chemscore.Internal_Hbond>
0.0000

> <Gold.Chemscore.DEClash>
0.1875

> <Gold.Chemscore.DEInternal>
1.6015

> <Gold.Chemscore.Rot>
1.9156

> <Gold.Chemscore.Internal.Correction>
   9.000000E+99

> <Gold.Chemscore.Hbonds>
donor molecule, donor type, donor heavy atom, donor atom, acceptor molecule, acceptor atom, score
      P1  H  6896  6907       L1    12  0.59
      P1  H  6931  6943       L1    17  0.88
      P1  H  6934  6947       L1    17  0.37

> <Gold.Chemscore.Hbond.Weighted>
-6.8257

> <Gold.Chemscore.Metal.Weighted>
-0.0000

> <Gold.Chemscore.Lipo.Weighted>
-14.3516

> <Gold.Chemscore.Internal_Hbond.Weighted>
0.0000

> <Gold.Chemscore.DEClash.Weighted>
0.1875

> <Gold.Chemscore.DEInternal.Weighted>
1.6015

> <Gold.Chemscore.Rot.Weighted>
4.9041

> <Gold.Chemscore.Internal.Correction.Weighted>
   9.000000E+99

> <Gold.Protein.RotatedTorsions>
[ 6907 6896 6895 6894 ] final  -91.72 input  -60.11 | X-H torsion
[ 7974 7965 7964 7962 ] final  -91.13 input  175.53 | X-H torsion
[ 8008 7997 7996 7995 ] final   55.80 input   59.86 | X-H torsion
[ 10167 10162 10161 10158 ] final   56.71 input  -65.29 | X-H torsion
[ 10718 10713 10712 10709 ] final   42.41 input   66.30 | X-H torsion
[ 10763 10752 10751 10750 ] final  -27.74 input  -60.55 | X-H torsion
[ 11005 11000 10999 10996 ] final  166.90 input  -57.11 | X-H torsion

> <Gold.Protein.ActiveResidues>
 VAL166  LYS551  ARG553  GLY616  TRP617  ASP618  TYR619  PRO620  LYS621  CYS622 
 ASP623  PHE694  ASN695  SER759  ASP760  ASP761  ALA762  ILE779  LEU786  VAL792 
 PHE793  MET794  SER795  GLU796  ALA797  LYS798  CYS799  TRP800  GLU811  SER814 

> <Gold.Protein.RotatedAtoms>
  150.6896  134.2234  159.4405 H   0  0  0  0  0  0  0  0  0  0  0  0  # atno 6907 bound_to 6896
  152.0189  134.9832  160.0579 H   0  0  0  0  0  0  0  0  0  0  0  0  # atno 6908 bound_to 6896
  152.1417  133.4433  159.4807 H   0  0  0  0  0  0  0  0  0  0  0  0  # atno 6909 bound_to 6896
  145.4173  140.9549  143.2201 H   0  0  0  0  0  0  0  0  0  0  0  0  # atno 7974 bound_to 7965
  155.5070  140.3476  155.4381 H   0  0  0  0  0  0  0  0  0  0  0  0  # atno 8008 bound_to 7997
  156.0875  140.1402  156.9662 H   0  0  0  0  0  0  0  0  0  0  0  0  # atno 8009 bound_to 7997
  154.4615  140.0933  156.6883 H   0  0  0  0  0  0  0  0  0  0  0  0  # atno 8010 bound_to 7997
  140.2058  144.3941  150.6510 H   0  0  0  0  0  0  0  0  0  0  0  0  # atno 10167 bound_to 10162
  157.4045  130.7879  149.7376 H   0  0  0  0  0  0  0  0  0  0  0  0  # atno 10718 bound_to 10713
  153.7370  135.6935  153.4976 H   0  0  0  0  0  0  0  0  0  0  0  0  # atno 10763 bound_to 10752
  153.2096  135.4407  155.0362 H   0  0  0  0  0  0  0  0  0  0  0  0  # atno 10764 bound_to 10752
  154.8234  135.3433  154.6897 H   0  0  0  0  0  0  0  0  0  0  0  0  # atno 10765 bound_to 10752
  140.2712  134.7825  157.3677 H   0  0  0  0  0  0  0  0  0  0  0  0  # atno 11005 bound_to 11000
  144.8269  139.5695  143.6961 LP  0  0  0  0  0  0  0  0  0  0  0  0  # atno 17320 bound_to 7965
  146.2674  139.6554  142.9319 LP  0  0  0  0  0  0  0  0  0  0  0  0  # atno 17321 bound_to 7965
  140.6359  143.2195  151.6396 LP  0  0  0  0  0  0  0  0  0  0  0  0  # atno 17342 bound_to 10162
  139.5199  144.3238  152.0887 LP  0  0  0  0  0  0  0  0  0  0  0  0  # atno 17343 bound_to 10162
  155.9832  130.4002  150.3374 LP  0  0  0  0  0  0  0  0  0  0  0  0  # atno 17370 bound_to 10713
  157.1505  131.0320  151.2887 LP  0  0  0  0  0  0  0  0  0  0  0  0  # atno 17371 bound_to 10713
  140.1371  134.5020  155.8060 LP  0  0  0  0  0  0  0  0  0  0  0  0  # atno 17394 bound_to 11000
  141.2177  133.6811  156.7143 LP  0  0  0  0  0  0  0  0  0  0  0  0  # atno 17395 bound_to 11000

$$$$
