AV-unprocessed.smi:3017|AV-procd|sdf|11478|dock6
  -GOLD-   2272016413D 1   1.00000     0.00000
 Structure written by MMmdl.
 37 38  0  0  0  0  0  0  0  0  1 V2000
  152.5848  143.2580  162.1543 C   0  0  0  0  0  0  0  0  0  0  0  0
  152.0649  143.5404  160.7377 C   0  0  1  0  0  0  0  0  0  0  0  0
  151.7882  145.0414  160.5262 C   0  0  0  0  0  0  0  0  0  0  0  0
  151.2707  145.3244  159.1073 C   0  0  0  0  0  0  0  0  0  0  0  0
  152.2405  144.7894  158.0407 C   0  0  0  0  0  0  0  0  0  0  0  0
  152.5325  143.2909  158.2334 C   0  0  2  0  0  0  0  0  0  0  0  0
  151.3293  142.5792  157.9708 O   0  0  0  0  0  0  0  0  0  0  0  0
  151.4923  141.1776  157.7902 C   0  0  0  0  0  0  0  0  0  0  0  0
  150.8585  140.7475  156.4650 C   0  0  0  0  0  0  0  0  0  0  0  0
  151.5728  140.2416  155.5999 O   0  0  0  0  0  0  0  0  0  0  0  0
  149.5370  140.9682  156.3276 N   0  0  0  0  0  0  0  0  0  0  0  0
  148.7024  140.6499  155.2250 C   0  0  0  0  0  0  0  0  0  0  0  0
  147.7205  141.6154  154.9001 C   0  0  0  0  0  0  0  0  0  0  0  0
  146.8478  141.4538  153.8805 N   0  0  0  0  0  0  0  0  0  0  0  0
  146.9537  140.3100  153.1711 C   0  0  0  0  0  0  0  0  0  0  0  0
  147.9255  139.3374  153.4800 C   0  0  0  0  0  0  0  0  0  0  0  0
  148.7951  139.5058  154.4999 N   0  0  0  0  0  0  0  0  0  0  0  0
  153.0413  143.0168  159.6651 C   0  0  0  0  0  0  0  0  0  0  0  0
  153.5316  143.7666  162.3388 H   0  0  0  0  0  0  0  0  0  0  0  0
  152.7451  142.1903  162.3068 H   0  0  0  0  0  0  0  0  0  0  0  0
  151.8727  143.5945  162.9083 H   0  0  0  0  0  0  0  0  0  0  0  0
  151.1207  143.0052  160.6253 H   0  0  0  0  0  0  0  0  0  0  0  0
  151.0598  145.3941  161.2574 H   0  0  0  0  0  0  0  0  0  0  0  0
  152.7009  145.6130  160.6999 H   0  0  0  0  0  0  0  0  0  0  0  0
  150.2902  144.8641  158.9774 H   0  0  0  0  0  0  0  0  0  0  0  0
  151.1268  146.3965  158.9719 H   0  0  0  0  0  0  0  0  0  0  0  0
  151.8336  144.9655  157.0445 H   0  0  0  0  0  0  0  0  0  0  0  0
  153.1759  145.3482  158.0929 H   0  0  0  0  0  0  0  0  0  0  0  0
  153.2939  142.9962  157.5090 H   0  0  0  0  0  0  0  0  0  0  0  0
  152.5517  140.9184  157.7774 H   0  0  0  0  0  0  0  0  0  0  0  0
  151.0220  140.6206  158.6005 H   0  0  0  0  0  0  0  0  0  0  0  0
  149.0759  141.4003  157.1156 H   0  0  0  0  0  0  0  0  0  0  0  0
  147.6308  142.5310  155.4667 H   0  0  0  0  0  0  0  0  0  0  0  0
  146.2609  140.1695  152.3547 H   0  0  0  0  0  0  0  0  0  0  0  0
  148.0050  138.4242  152.9092 H   0  0  0  0  0  0  0  0  0  0  0  0
  154.0095  143.5027  159.7939 H   0  0  0  0  0  0  0  0  0  0  0  0
  153.2234  141.9527  159.8121 H   0  0  0  0  0  0  0  0  0  0  0  0
  1  2  1  0  0  0  0
  1 19  1  0  0  0  0
  1 20  1  0  0  0  0
  1 21  1  0  0  0  0
  2 18  1  0  0  0  0
  2  3  1  0  0  0  0
  2 22  1  0  0  0  0
  3  4  1  0  0  0  0
  3 23  1  0  0  0  0
  3 24  1  0  0  0  0
  4  5  1  0  0  0  0
  4 25  1  0  0  0  0
  4 26  1  0  0  0  0
  5  6  1  0  0  0  0
  5 27  1  0  0  0  0
  5 28  1  0  0  0  0
  6  7  1  0  0  0  0
  6 18  1  0  0  0  0
  6 29  1  0  0  0  0
  7  8  1  0  0  0  0
  8  9  1  0  0  0  0
  8 30  1  0  0  0  0
  8 31  1  0  0  0  0
  9 10  2  0  0  0  0
  9 11  1  0  0  0  0
 11 12  1  0  0  0  0
 11 32  1  0  0  0  0
 12 17  1  0  0  0  0
 12 13  2  0  0  0  0
 13 14  1  0  0  0  0
 13 33  1  0  0  0  0
 14 15  2  0  0  0  0
 15 16  1  0  0  0  0
 15 34  1  0  0  0  0
 16 17  2  0  0  0  0
 16 35  1  0  0  0  0
 18 36  1  0  0  0  0
 18 37  1  0  0  0  0
M  END
> <s_m_source_file>
AV-unprocessed.smi

> <i_m_source_file_index>
3017

> <i_lp_mmshare_version>
43012

> <i_f3d_flags>
0

> <s_epik_input>
W0NIM11bQ0BASF0xW0NIMl1bQ0gyXVtDSDJdW0NASF0oW0NIMl0xKU9bQ0gyXUMoPU8pW05IXWMyW2NIXW5bY0hdW2NIXW4y

> <s_epik_cmdline>
J2VwaWtfcHl0aG9uJywgJy1waCcsICc3LjAnLCAnLXRuJywgJzgnLCAnLW1hJywgJzIwMCcsICctbWV0YWxfYmluZGluZycsICctaW1hZScsICc8aW5maWxlLm1hZT4nLCAnLW9tYWUnLCAnPG91dGZpbGUubWFlPic=

> <r_lp_tautomer_probability>
1

> <r_epik_Ionization_Penalty>
2.89243e-06

> <r_epik_Ionization_Penalty_Charging>
0

> <r_epik_Ionization_Penalty_Neutral>
2.89243e-06

> <r_epik_State_Penalty>
-0

> <r_epik_Charging_Adjusted_Penalty>
0

> <i_epik_Tot_Q>
0

> <i_epik_Tot_abs_Q>
0

> <r_epik_Metal_State_Penalty>
-0

> <b_epik_Metal_Only>
0

> <s_lp_Force_Field>
OPLS_2005

> <r_lp_Energy>
20.5114

> <b_lp_Chiralities_Consistent>
1

> <s_lp_Variant>
AV-unprocessed.smi:3017-4

> <Gold.Version>
5.8.1

> <Gold.Id.Protein>
6NUR|6NUR_protein|mol2

> <Gold.PLP.Fitness>
49.9893

> <Gold.PLP.PLP>
-40.6938

> <Gold.PLP.part.hbond>
-1.0000

> <Gold.PLP.part.metal>
0.0000

> <Gold.PLP.part.buried>
-4.9818

> <Gold.PLP.part.nonpolar>
-36.5697

> <Gold.PLP.part.repulsive>
0.4025

> <Gold.PLP.ligand.clash>
0.0000

> <Gold.PLP.ligand.torsion>
0.7584

> <Gold.PLP.Chemscore.Hbond>
0.8480

> <Gold.PLP.Chemscore.CHOScore>
2.7533

> <Gold.PLP.Chemscore.Metal>
0.0000

> <Gold.Chemscore.Hbonds>
donor molecule, donor type, donor heavy atom, donor atom, acceptor molecule, acceptor atom, score
      P1  H  7989  7998       L1    10  0.55
      L1  C    13    33       P1  8028  1.00
      L1  C    15    34       P1 10175  0.80
      L1  C    16    35       P1  7948  0.85
      L1  C    16    35       P1  7957  0.02

> <Gold.PLP.Chemscore.Internal.Correction>
0.0083

> <Gold.Rescore>
     Score         DG    S(hbond)    S(metal)    S(lipo)     H(rot)  DE(clash)    DE(int)     intcor
     15.61     -17.52       0.82        0.00     112.73       1.51       0.43       1.48       ----

> <Gold.Chemscore.Fitness>
15.6067

> <Gold.Chemscore.DG>
-17.5214

> <Gold.Chemscore.ZeroCoef>
-5.4800

> <Gold.Chemscore.Hbond>
0.8153

> <Gold.Chemscore.Metal>
0.0000

> <Gold.Chemscore.Lipo>
112.7258

> <Gold.Chemscore.Internal_Hbond>
0.0000

> <Gold.Chemscore.DEClash>
0.4320

> <Gold.Chemscore.DEInternal>
1.4826

> <Gold.Chemscore.Rot>
1.5119

> <Gold.Chemscore.Internal.Correction>
   9.000000E+99

> <Gold.Chemscore.Hbonds>
donor molecule, donor type, donor heavy atom, donor atom, acceptor molecule, acceptor atom, score
      P1  H  7989  7998       L1    10  0.52

> <Gold.Chemscore.Hbond.Weighted>
-2.7230

> <Gold.Chemscore.Metal.Weighted>
-0.0000

> <Gold.Chemscore.Lipo.Weighted>
-13.1889

> <Gold.Chemscore.Internal_Hbond.Weighted>
0.0000

> <Gold.Chemscore.DEClash.Weighted>
0.4320

> <Gold.Chemscore.DEInternal.Weighted>
1.4826

> <Gold.Chemscore.Rot.Weighted>
3.8706

> <Gold.Chemscore.Internal.Correction.Weighted>
   9.000000E+99

> <Gold.Protein.RotatedTorsions>
[ 6907 6896 6895 6894 ] final  -22.66 input  -60.11 | X-H torsion
[ 7974 7965 7964 7962 ] final -121.69 input  175.53 | X-H torsion
[ 8008 7997 7996 7995 ] final   15.47 input   59.86 | X-H torsion
[ 10167 10162 10161 10158 ] final  119.91 input  -65.29 | X-H torsion
[ 10718 10713 10712 10709 ] final    1.31 input   66.30 | X-H torsion
[ 10763 10752 10751 10750 ] final -147.39 input  -60.55 | X-H torsion
[ 11005 11000 10999 10996 ] final  -97.23 input  -57.11 | X-H torsion

> <Gold.Protein.ActiveResidues>
 VAL166  LYS551  ARG553  GLY616  TRP617  ASP618  TYR619  PRO620  LYS621  CYS622 
 ASP623  PHE694  ASN695  SER759  ASP760  ASP761  ALA762  ILE779  LEU786  VAL792 
 PHE793  MET794  SER795  GLU796  ALA797  LYS798  CYS799  TRP800  GLU811  SER814 

> <Gold.Protein.RotatedAtoms>
  151.2154  135.0498  159.8927 H   0  0  0  0  0  0  0  0  0  0  0  0  # atno 6907 bound_to 6896
  152.5420  134.0699  159.8199 H   0  0  0  0  0  0  0  0  0  0  0  0  # atno 6908 bound_to 6896
  151.0858  133.5306  159.2649 H   0  0  0  0  0  0  0  0  0  0  0  0  # atno 6909 bound_to 6896
  145.0375  140.8118  143.4286 H   0  0  0  0  0  0  0  0  0  0  0  0  # atno 7974 bound_to 7965
  154.8631  140.2947  155.5527 H   0  0  0  0  0  0  0  0  0  0  0  0  # atno 8008 bound_to 7997
  156.3020  140.2474  156.3541 H   0  0  0  0  0  0  0  0  0  0  0  0  # atno 8009 bound_to 7997
  154.8897  140.0395  157.1820 H   0  0  0  0  0  0  0  0  0  0  0  0  # atno 8010 bound_to 7997
  139.6015  144.7058  151.3051 H   0  0  0  0  0  0  0  0  0  0  0  0  # atno 10167 bound_to 10162
  156.8463  130.5538  149.5673 H   0  0  0  0  0  0  0  0  0  0  0  0  # atno 10718 bound_to 10713
  154.8288  135.3361  154.6811 H   0  0  0  0  0  0  0  0  0  0  0  0  # atno 10763 bound_to 10752
  153.7433  135.6944  153.4966 H   0  0  0  0  0  0  0  0  0  0  0  0  # atno 10764 bound_to 10752
  153.2228  135.4443  155.0460 H   0  0  0  0  0  0  0  0  0  0  0  0  # atno 10765 bound_to 10752
  141.1386  133.8155  157.0678 H   0  0  0  0  0  0  0  0  0  0  0  0  # atno 11005 bound_to 11000
  145.1690  139.2415  143.5352 LP  0  0  0  0  0  0  0  0  0  0  0  0  # atno 17320 bound_to 7965
  146.3506  140.1436  142.8594 LP  0  0  0  0  0  0  0  0  0  0  0  0  # atno 17321 bound_to 7965
  140.7253  143.7020  150.7837 LP  0  0  0  0  0  0  0  0  0  0  0  0  # atno 17342 bound_to 10162
  140.0598  143.5166  152.2633 LP  0  0  0  0  0  0  0  0  0  0  0  0  # atno 17343 bound_to 10162
  156.0853  130.5853  150.9636 LP  0  0  0  0  0  0  0  0  0  0  0  0  # atno 17370 bound_to 10713
  157.6328  131.0919  150.8407 LP  0  0  0  0  0  0  0  0  0  0  0  0  # atno 17371 bound_to 10713
  140.0530  134.9795  157.1171 LP  0  0  0  0  0  0  0  0  0  0  0  0  # atno 17394 bound_to 11000
  140.3961  134.2132  155.7164 LP  0  0  0  0  0  0  0  0  0  0  0  0  # atno 17395 bound_to 11000

$$$$
