AV-unprocessed.smi:2923|AV-procd|sdf|11205|dock6
  -GOLD-   2272016 93D 1   1.00000     0.00000
 Structure written by MMmdl.
 47 49  0  0  0  0  0  0  0  0  2 V2000
  147.8082  127.9862  152.2008 C   0  0  0  0  0  0  0  0  0  0  0  0
  146.9251  129.1424  152.3039 N   0  0  0  0  0  0  0  0  0  0  0  0
  145.5110  129.0192  151.9747 C   0  0  0  0  0  0  0  0  0  0  0  0
  147.4578  130.4026  152.6519 C   0  0  0  0  0  0  0  0  0  0  0  0
  148.5541  130.5651  153.5336 C   0  0  0  0  0  0  0  0  0  0  0  0
  149.0262  131.8590  153.8344 C   0  0  0  0  0  0  0  0  0  0  0  0
  148.4028  132.9871  153.2617 C   0  0  0  0  0  0  0  0  0  0  0  0
  148.9233  134.2672  153.5974 N   0  0  0  0  0  0  0  0  0  0  0  0
  149.5883  134.6471  154.7022 C   0  0  0  0  0  0  0  0  0  0  0  0
  149.8792  133.9163  155.6484 O   0  0  0  0  0  0  0  0  0  0  0  0
  149.9099  135.9463  154.6493 N   0  0  0  0  0  0  0  0  0  0  0  0
  150.6262  136.6709  155.7005 C   0  0  1  0  0  0  0  0  0  0  0  0
  150.7639  138.1813  155.4045 C   0  0  1  0  0  0  0  0  0  0  0  0
  150.4235  138.7920  154.0665 C   0  0  0  0  0  0  0  0  0  0  0  0
  149.0013  139.3160  154.2853 C   0  0  0  0  0  0  0  0  0  0  0  0
  148.5055  138.5710  155.3954 O   0  0  0  0  0  0  0  0  0  0  0  0
  149.5752  138.4081  156.3240 C   0  0  1  0  0  0  0  0  0  0  0  0
  149.7426  137.0010  156.9341 C   0  0  0  0  0  0  0  0  0  0  0  0
  148.4499  136.2051  157.1619 C   0  0  0  0  0  0  0  0  0  0  0  0
  150.4978  136.9818  158.2662 C   0  0  0  0  0  0  0  0  0  0  0  0
  147.3182  132.7722  152.3778 C   0  0  0  0  0  0  0  0  0  0  0  0
  146.8988  131.5153  152.1171 N   0  3  0  0  0  0  0  0  0  0  0  0
  148.2687  127.7694  153.1652 H   0  0  0  0  0  0  0  0  0  0  0  0
  148.5984  128.1702  151.4723 H   0  0  0  0  0  0  0  0  0  0  0  0
  147.2634  127.0971  151.8832 H   0  0  0  0  0  0  0  0  0  0  0  0
  145.2637  129.6377  151.1116 H   0  0  0  0  0  0  0  0  0  0  0  0
  144.8926  129.3301  152.8171 H   0  0  0  0  0  0  0  0  0  0  0  0
  145.2483  127.9891  151.7331 H   0  0  0  0  0  0  0  0  0  0  0  0
  149.0433  129.7166  153.9876 H   0  0  0  0  0  0  0  0  0  0  0  0
  149.8629  131.9802  154.5070 H   0  0  0  0  0  0  0  0  0  0  0  0
  148.8025  134.9798  152.8926 H   0  0  0  0  0  0  0  0  0  0  0  0
  149.6304  136.4802  153.8394 H   0  0  0  0  0  0  0  0  0  0  0  0
  151.5848  136.2213  155.9668 H   0  0  0  0  0  0  0  0  0  0  0  0
  151.6788  138.5790  155.8465 H   0  0  0  0  0  0  0  0  0  0  0  0
  151.1021  139.6023  153.7985 H   0  0  0  0  0  0  0  0  0  0  0  0
  150.4576  138.0614  153.2588 H   0  0  0  0  0  0  0  0  0  0  0  0
  149.0201  140.3742  154.5496 H   0  0  0  0  0  0  0  0  0  0  0  0
  148.3674  139.1942  153.4066 H   0  0  0  0  0  0  0  0  0  0  0  0
  149.6937  139.2491  157.0088 H   0  0  0  0  0  0  0  0  0  0  0  0
  147.8682  136.6167  157.9872 H   0  0  0  0  0  0  0  0  0  0  0  0
  148.6600  135.1612  157.3964 H   0  0  0  0  0  0  0  0  0  0  0  0
  147.7999  136.2146  156.2869 H   0  0  0  0  0  0  0  0  0  0  0  0
  149.9137  137.4385  159.0658 H   0  0  0  0  0  0  0  0  0  0  0  0
  151.4388  137.5293  158.2042 H   0  0  0  0  0  0  0  0  0  0  0  0
  150.7388  135.9634  158.5731 H   0  0  0  0  0  0  0  0  0  0  0  0
  146.7692  133.5430  151.8594 H   0  0  0  0  0  0  0  0  0  0  0  0
  146.1134  131.3978  151.4768 H   0  0  0  0  0  0  0  0  0  0  0  0
  1  2  1  0  0  0  0
  1 23  1  0  0  0  0
  1 24  1  0  0  0  0
  1 25  1  0  0  0  0
  2  3  1  0  0  0  0
  2  4  1  0  0  0  0
  3 26  1  0  0  0  0
  3 27  1  0  0  0  0
  3 28  1  0  0  0  0
  4 22  1  0  0  0  0
  4  5  2  0  0  0  0
  5  6  1  0  0  0  0
  5 29  1  0  0  0  0
  6  7  2  0  0  0  0
  6 30  1  0  0  0  0
  7  8  1  0  0  0  0
  7 21  1  0  0  0  0
  8  9  1  0  0  0  0
  8 31  1  0  0  0  0
  9 10  2  0  0  0  0
  9 11  1  0  0  0  0
 11 12  1  0  0  0  0
 11 32  1  0  0  0  0
 12 18  1  0  0  0  0
 12 13  1  0  0  0  0
 12 33  1  0  0  0  0
 13 17  1  0  0  0  0
 13 14  1  0  0  0  0
 13 34  1  0  0  0  0
 14 15  1  0  0  0  0
 14 35  1  0  0  0  0
 14 36  1  0  0  0  0
 15 16  1  0  0  0  0
 15 37  1  0  0  0  0
 15 38  1  0  0  0  0
 16 17  1  0  0  0  0
 17 18  1  0  0  0  0
 17 39  1  0  0  0  0
 18 19  1  0  0  0  0
 18 20  1  0  0  0  0
 19 40  1  0  0  0  0
 19 41  1  0  0  0  0
 19 42  1  0  0  0  0
 20 43  1  0  0  0  0
 20 44  1  0  0  0  0
 20 45  1  0  0  0  0
 21 22  2  0  0  0  0
 21 46  1  0  0  0  0
 22 47  1  0  0  0  0
M  CHG  1  22   1
M  END
> <s_m_source_file>
AV-unprocessed.smi

> <i_m_source_file_index>
2923

> <i_lp_mmshare_version>
43012

> <i_f3d_flags>
0

> <s_epik_input>
W0NIM11OKFtDSDNdKWMxW2NIXVtjSF1jKFtjSF1uMSlbTkhdQyg9TylbTkhdW0NASF0yQyhbQ0gzXSkoW0NIM10pW0NAQEhdKFtDQEhdMjMpT1tDSDJdW0NIMl0z

> <s_epik_cmdline>
J2VwaWtfcHl0aG9uJywgJy1waCcsICc3LjAnLCAnLXRuJywgJzgnLCAnLW1hJywgJzIwMCcsICctbWV0YWxfYmluZGluZycsICctaW1hZScsICc8aW5maWxlLm1hZT4nLCAnLW9tYWUnLCAnPG91dGZpbGUubWFlPic=

> <r_lp_tautomer_probability>
0.999994

> <r_epik_Ionization_Penalty>
0.252205

> <r_epik_Ionization_Penalty_Charging>
0.252185

> <r_epik_Ionization_Penalty_Neutral>
1.99479e-05

> <r_epik_State_Penalty>
0.243573

> <r_epik_Charging_Adjusted_Penalty>
0.495758

> <i_epik_Tot_Q>
1

> <i_epik_Tot_abs_Q>
1

> <r_epik_Metal_State_Penalty>
0.534372

> <b_epik_Metal_Only>
0

> <s_lp_Force_Field>
OPLS_2005

> <r_lp_Energy>
46.5408

> <b_lp_Chiralities_Consistent>
1

> <s_lp_Variant>
AV-unprocessed.smi:2923-4

> <Gold.Version>
5.8.1

> <Gold.Id.Protein>
6NUR|6NUR_protein|mol2

> <Gold.PLP.Fitness>
36.4178

> <Gold.PLP.PLP>
-32.4129

> <Gold.PLP.part.hbond>
-3.0000

> <Gold.PLP.part.metal>
0.0000

> <Gold.PLP.part.buried>
-0.1151

> <Gold.PLP.part.nonpolar>
-28.8892

> <Gold.PLP.part.repulsive>
0.1352

> <Gold.PLP.ligand.clash>
0.0000

> <Gold.PLP.ligand.torsion>
0.6651

> <Gold.PLP.Chemscore.Hbond>
1.7160

> <Gold.PLP.Chemscore.CHOScore>
0.0000

> <Gold.PLP.Chemscore.Metal>
0.0000

> <Gold.Chemscore.Hbonds>
donor molecule, donor type, donor heavy atom, donor atom, acceptor molecule, acceptor atom, score
      L1  H     8    31       P1  7948  0.95
      L1  H    11    32       P1  7948  0.73

> <Gold.PLP.Chemscore.Internal.Correction>
0.1871

> <Gold.Rescore>
     Score         DG    S(hbond)    S(metal)    S(lipo)     H(rot)  DE(clash)    DE(int)     intcor
     13.67     -15.71       1.33        0.00      71.23       1.00       0.05       1.99       ----

> <Gold.Chemscore.Fitness>
13.6677

> <Gold.Chemscore.DG>
-15.7074

> <Gold.Chemscore.ZeroCoef>
-5.4800

> <Gold.Chemscore.Hbond>
1.3335

> <Gold.Chemscore.Metal>
0.0000

> <Gold.Chemscore.Lipo>
71.2262

> <Gold.Chemscore.Internal_Hbond>
0.0000

> <Gold.Chemscore.DEClash>
0.0544

> <Gold.Chemscore.DEInternal>
1.9853

> <Gold.Chemscore.Rot>
1.0000

> <Gold.Chemscore.Internal.Correction>
   9.000000E+99

> <Gold.Chemscore.Hbonds>
donor molecule, donor type, donor heavy atom, donor atom, acceptor molecule, acceptor atom, score
      L1  H     8    31       P1  7948  0.21
      L1  H    11    32       P1  7948  0.45

> <Gold.Chemscore.Hbond.Weighted>
-4.4540

> <Gold.Chemscore.Metal.Weighted>
-0.0000

> <Gold.Chemscore.Lipo.Weighted>
-8.3335

> <Gold.Chemscore.Internal_Hbond.Weighted>
0.0000

> <Gold.Chemscore.DEClash.Weighted>
0.0544

> <Gold.Chemscore.DEInternal.Weighted>
1.9853

> <Gold.Chemscore.Rot.Weighted>
2.5600

> <Gold.Chemscore.Internal.Correction.Weighted>
   9.000000E+99

> <Gold.Protein.RotatedTorsions>
[ 6907 6896 6895 6894 ] final   41.09 input  -60.11 | X-H torsion
[ 7974 7965 7964 7962 ] final   24.56 input  175.53 | X-H torsion
[ 8008 7997 7996 7995 ] final   54.37 input   59.86 | X-H torsion
[ 10167 10162 10161 10158 ] final   13.51 input  -65.29 | X-H torsion
[ 10718 10713 10712 10709 ] final -162.74 input   66.30 | X-H torsion
[ 10763 10752 10751 10750 ] final  111.40 input  -60.55 | X-H torsion
[ 11005 11000 10999 10996 ] final  -44.37 input  -57.11 | X-H torsion

> <Gold.Protein.ActiveResidues>
 VAL166  LYS551  ARG553  GLY616  TRP617  ASP618  TYR619  PRO620  LYS621  CYS622 
 ASP623  PHE694  ASN695  SER759  ASP760  ASP761  ALA762  ILE779  LEU786  VAL792 
 PHE793  MET794  SER795  GLU796  ALA797  LYS798  CYS799  TRP800  GLU811  SER814 

> <Gold.Protein.RotatedAtoms>
  152.1908  134.8674  160.0517 H   0  0  0  0  0  0  0  0  0  0  0  0  # atno 6907 bound_to 6896
  151.9563  133.3676  159.4027 H   0  0  0  0  0  0  0  0  0  0  0  0  # atno 6908 bound_to 6896
  150.6935  134.4211  159.5249 H   0  0  0  0  0  0  0  0  0  0  0  0  # atno 6909 bound_to 6896
  146.1931  139.7587  142.8817 H   0  0  0  0  0  0  0  0  0  0  0  0  # atno 7974 bound_to 7965
  155.4836  140.3469  155.4344 H   0  0  0  0  0  0  0  0  0  0  0  0  # atno 8008 bound_to 7997
  156.1023  140.1438  156.9480 H   0  0  0  0  0  0  0  0  0  0  0  0  # atno 8009 bound_to 7997
  154.4701  140.0903  156.7101 H   0  0  0  0  0  0  0  0  0  0  0  0  # atno 8010 bound_to 7997
  140.5997  143.8629  150.6953 H   0  0  0  0  0  0  0  0  0  0  0  0  # atno 10167 bound_to 10162
  156.6148  130.8865  151.2944 H   0  0  0  0  0  0  0  0  0  0  0  0  # atno 10718 bound_to 10713
  153.4629  135.3718  155.2348 H   0  0  0  0  0  0  0  0  0  0  0  0  # atno 10763 bound_to 10752
  154.8757  135.3913  154.3904 H   0  0  0  0  0  0  0  0  0  0  0  0  # atno 10764 bound_to 10752
  153.4480  135.7085  153.6191 H   0  0  0  0  0  0  0  0  0  0  0  0  # atno 10765 bound_to 10752
  141.0446  133.6766  156.2862 H   0  0  0  0  0  0  0  0  0  0  0  0  # atno 11005 bound_to 11000
  145.3729  141.0346  143.3221 LP  0  0  0  0  0  0  0  0  0  0  0  0  # atno 17320 bound_to 7965
  144.8526  139.5298  143.6849 LP  0  0  0  0  0  0  0  0  0  0  0  0  # atno 17321 bound_to 7965
  140.2172  143.3837  152.1672 LP  0  0  0  0  0  0  0  0  0  0  0  0  # atno 17342 bound_to 10162
  139.5283  144.7129  151.5149 LP  0  0  0  0  0  0  0  0  0  0  0  0  # atno 17343 bound_to 10162
  157.7244  130.9602  150.1573 LP  0  0  0  0  0  0  0  0  0  0  0  0  # atno 17370 bound_to 10713
  156.2360  130.3686  149.8390 LP  0  0  0  0  0  0  0  0  0  0  0  0  # atno 17371 bound_to 10713
  140.6171  134.5399  157.5542 LP  0  0  0  0  0  0  0  0  0  0  0  0  # atno 17394 bound_to 11000
  139.9301  134.7979  156.0954 LP  0  0  0  0  0  0  0  0  0  0  0  0  # atno 17395 bound_to 11000

$$$$
