AV-unprocessed.smi:2229|AV-procd|sdf|9031|dock10
  -GOLD-   2272012233D 1   1.00000     0.00000
 Structure written by MMmdl.
 43 44  0  0  0  0  0  0  0  0  2 V2000
  151.0793  145.5538  159.7817 C   0  0  0  0  0  0  0  0  0  0  0  0
  152.0416  144.4237  159.3856 C   0  0  0  0  0  0  0  0  0  0  0  0
  151.4145  143.5519  158.2829 C   0  0  0  0  0  0  0  0  0  0  0  0
  152.4520  143.5996  160.6235 C   0  0  0  0  0  0  0  0  0  0  0  0
  153.2371  142.3190  160.2901 C   0  0  0  0  0  0  0  0  0  0  0  0
  153.6386  141.5089  161.5366 C   0  0  2  0  0  0  0  0  0  0  0  0
  154.3550  142.3094  162.6269 C   0  0  0  0  0  0  0  0  0  0  0  0
  155.0195  141.2370  163.4863 C   0  0  0  0  0  0  0  0  0  0  0  0
  155.4591  140.1536  162.4961 C   0  0  0  0  0  0  0  0  0  0  0  0
  154.5934  140.3360  161.2341 C   0  0  1  0  0  0  0  0  0  0  0  0
  153.8412  139.1230  160.9269 N   0  0  0  0  0  0  0  0  0  0  0  0
  153.9610  138.4067  159.7989 C   0  0  0  0  0  0  0  0  0  0  0  0
  154.8069  138.6381  158.9341 O   0  0  0  0  0  0  0  0  0  0  0  0
  152.9761  137.2452  159.6274 C   0  0  0  0  0  0  0  0  0  0  0  0
  153.4930  136.2024  158.7370 N   0  0  0  0  0  0  0  0  0  0  0  0
  153.5595  134.8794  159.0950 C   0  0  0  0  0  0  0  0  0  0  0  0
  154.0403  134.1717  158.1367 N   0  0  0  0  0  0  0  0  0  0  0  0
  154.3166  135.0770  157.0628 N   0  5  0  0  0  0  0  0  0  0  0  0
  153.9607  136.3083  157.4911 C   0  0  0  0  0  0  0  0  0  0  0  0
  154.0294  137.3770  156.8847 O   0  0  0  0  0  0  0  0  0  0  0  0
  150.1554  145.1572  160.2042 H   0  0  0  0  0  0  0  0  0  0  0  0
  150.8145  146.1662  158.9193 H   0  0  0  0  0  0  0  0  0  0  0  0
  151.5292  146.2131  160.5245 H   0  0  0  0  0  0  0  0  0  0  0  0
  152.9379  144.8917  158.9761 H   0  0  0  0  0  0  0  0  0  0  0  0
  150.5404  143.0141  158.6515 H   0  0  0  0  0  0  0  0  0  0  0  0
  152.1178  142.8152  157.8963 H   0  0  0  0  0  0  0  0  0  0  0  0
  151.0947  144.1605  157.4368 H   0  0  0  0  0  0  0  0  0  0  0  0
  153.0690  144.2199  161.2746 H   0  0  0  0  0  0  0  0  0  0  0  0
  151.5621  143.3477  161.2019 H   0  0  0  0  0  0  0  0  0  0  0  0
  152.6243  141.6809  159.6555 H   0  0  0  0  0  0  0  0  0  0  0  0
  154.1229  142.5683  159.7049 H   0  0  0  0  0  0  0  0  0  0  0  0
  152.7301  141.1015  161.9853 H   0  0  0  0  0  0  0  0  0  0  0  0
  155.1165  142.9532  162.1841 H   0  0  0  0  0  0  0  0  0  0  0  0
  153.6755  142.9386  163.2025 H   0  0  0  0  0  0  0  0  0  0  0  0
  155.8490  141.6272  164.0767 H   0  0  0  0  0  0  0  0  0  0  0  0
  154.2864  140.8217  164.1790 H   0  0  0  0  0  0  0  0  0  0  0  0
  156.5102  140.2890  162.2390 H   0  0  0  0  0  0  0  0  0  0  0  0
  155.3651  139.1602  162.9372 H   0  0  0  0  0  0  0  0  0  0  0  0
  155.2572  140.6011  160.4086 H   0  0  0  0  0  0  0  0  0  0  0  0
  153.1253  138.8516  161.5851 H   0  0  0  0  0  0  0  0  0  0  0  0
  152.7466  136.8385  160.6134 H   0  0  0  0  0  0  0  0  0  0  0  0
  152.0335  137.6135  159.2186 H   0  0  0  0  0  0  0  0  0  0  0  0
  153.2273  134.5590  160.0838 H   0  0  0  0  0  0  0  0  0  0  0  0
  1  2  1  0  0  0  0
  1 21  1  0  0  0  0
  1 22  1  0  0  0  0
  1 23  1  0  0  0  0
  2  3  1  0  0  0  0
  2  4  1  0  0  0  0
  2 24  1  0  0  0  0
  3 25  1  0  0  0  0
  3 26  1  0  0  0  0
  3 27  1  0  0  0  0
  4  5  1  0  0  0  0
  4 28  1  0  0  0  0
  4 29  1  0  0  0  0
  5  6  1  0  0  0  0
  5 30  1  0  0  0  0
  5 31  1  0  0  0  0
  6 10  1  0  0  0  0
  6  7  1  0  0  0  0
  6 32  1  0  0  0  0
  7  8  1  0  0  0  0
  7 33  1  0  0  0  0
  7 34  1  0  0  0  0
  8  9  1  0  0  0  0
  8 35  1  0  0  0  0
  8 36  1  0  0  0  0
  9 10  1  0  0  0  0
  9 37  1  0  0  0  0
  9 38  1  0  0  0  0
 10 11  1  0  0  0  0
 10 39  1  0  0  0  0
 11 12  1  0  0  0  0
 11 40  1  0  0  0  0
 12 13  2  0  0  0  0
 12 14  1  0  0  0  0
 14 15  1  0  0  0  0
 14 41  1  0  0  0  0
 14 42  1  0  0  0  0
 15 19  1  0  0  0  0
 15 16  1  0  0  0  0
 16 17  2  0  0  0  0
 16 43  1  0  0  0  0
 17 18  1  0  0  0  0
 18 19  1  0  0  0  0
 19 20  2  0  0  0  0
M  CHG  1  18  -1
M  END
> <s_m_source_file>
AV-unprocessed.smi

> <i_m_source_file_index>
2229

> <i_lp_mmshare_version>
43012

> <i_f3d_flags>
0

> <s_epik_input>
W0NIM11bQ0hdKFtDSDNdKVtDSDJdW0NIMl1bQ0BASF0xW0NIMl1bQ0gyXVtDSDJdW0NASF0xW05IXUMoPU8pW0NIMl1uMltjSF1uW25IXWMyPU8=

> <s_epik_cmdline>
J2VwaWtfcHl0aG9uJywgJy1waCcsICc3LjAnLCAnLXRuJywgJzgnLCAnLW1hJywgJzIwMCcsICctbWV0YWxfYmluZGluZycsICctaW1hZScsICc8aW5maWxlLm1hZT4nLCAnLW9tYWUnLCAnPG91dGZpbGUubWFlPic=

> <r_lp_tautomer_probability>
1

> <r_epik_Ionization_Penalty>
13.6733

> <r_epik_Ionization_Penalty_Charging>
13.6725

> <r_epik_Ionization_Penalty_Neutral>
0.000837689

> <r_epik_State_Penalty>
5.67062

> <r_epik_Charging_Adjusted_Penalty>
19.3431

> <i_epik_Tot_Q>
-1

> <i_epik_Tot_abs_Q>
1

> <r_epik_Metal_State_Penalty>
1.61781

> <b_epik_Metal_Only>
1

> <s_lp_Force_Field>
OPLS_2005

> <r_lp_Energy>
25.828

> <b_lp_Chiralities_Consistent>
1

> <s_lp_Variant>
AV-unprocessed.smi:2229-5

> <Gold.Version>
5.8.1

> <Gold.Id.Protein>
6NUR|6NUR_protein|mol2

> <Gold.PLP.Fitness>
44.3724

> <Gold.PLP.PLP>
-36.3104

> <Gold.PLP.part.hbond>
-2.5909

> <Gold.PLP.part.metal>
0.0000

> <Gold.PLP.part.buried>
-0.4675

> <Gold.PLP.part.nonpolar>
-31.3515

> <Gold.PLP.part.repulsive>
0.0326

> <Gold.PLP.ligand.clash>
0.0000

> <Gold.PLP.ligand.torsion>
0.4867

> <Gold.PLP.Chemscore.Hbond>
3.0000

> <Gold.PLP.Chemscore.CHOScore>
0.0000

> <Gold.PLP.Chemscore.Metal>
0.0000

> <Gold.Chemscore.Hbonds>
donor molecule, donor type, donor heavy atom, donor atom, acceptor molecule, acceptor atom, score
      P1  H  7997  8009       L1    13  0.68
      P1  H 10752 10763       L1    18  0.43

> <Gold.PLP.Chemscore.Internal.Correction>
0.0355

> <Gold.Rescore>
     Score         DG    S(hbond)    S(metal)    S(lipo)     H(rot)  DE(clash)    DE(int)     intcor
     12.93     -16.91       1.69        0.00     106.30       2.59       1.15       2.84       ----

> <Gold.Chemscore.Fitness>
12.9259

> <Gold.Chemscore.DG>
-16.9089

> <Gold.Chemscore.ZeroCoef>
-5.4800

> <Gold.Chemscore.Hbond>
1.6862

> <Gold.Chemscore.Metal>
0.0000

> <Gold.Chemscore.Lipo>
106.3043

> <Gold.Chemscore.Internal_Hbond>
0.0000

> <Gold.Chemscore.DEClash>
1.1464

> <Gold.Chemscore.DEInternal>
2.8366

> <Gold.Chemscore.Rot>
2.5939

> <Gold.Chemscore.Internal.Correction>
   9.000000E+99

> <Gold.Chemscore.Hbonds>
donor molecule, donor type, donor heavy atom, donor atom, acceptor molecule, acceptor atom, score
      P1  H  7997  8009       L1    13  0.68
      P1  H 10752 10763       L1    18  0.11

> <Gold.Chemscore.Hbond.Weighted>
-5.6318

> <Gold.Chemscore.Metal.Weighted>
-0.0000

> <Gold.Chemscore.Lipo.Weighted>
-12.4376

> <Gold.Chemscore.Internal_Hbond.Weighted>
0.0000

> <Gold.Chemscore.DEClash.Weighted>
1.1464

> <Gold.Chemscore.DEInternal.Weighted>
2.8366

> <Gold.Chemscore.Rot.Weighted>
6.6405

> <Gold.Chemscore.Internal.Correction.Weighted>
   9.000000E+99

> <Gold.Protein.RotatedTorsions>
[ 6907 6896 6895 6894 ] final   94.54 input  -60.11 | X-H torsion
[ 7974 7965 7964 7962 ] final   25.22 input  175.53 | X-H torsion
[ 8008 7997 7996 7995 ] final  105.32 input   59.86 | X-H torsion
[ 10167 10162 10161 10158 ] final    8.10 input  -65.29 | X-H torsion
[ 10718 10713 10712 10709 ] final   45.99 input   66.30 | X-H torsion
[ 10763 10752 10751 10750 ] final -164.03 input  -60.55 | X-H torsion
[ 11005 11000 10999 10996 ] final  -11.02 input  -57.11 | X-H torsion

> <Gold.Protein.ActiveResidues>
 VAL166  LYS551  ARG553  GLY616  TRP617  ASP618  TYR619  PRO620  LYS621  CYS622 
 ASP623  PHE694  ASN695  SER759  ASP760  ASP761  ALA762  ILE779  LEU786  VAL792 
 PHE793  MET794  SER795  GLU796  ALA797  LYS798  CYS799  TRP800  GLU811  SER814 

> <Gold.Protein.RotatedAtoms>
  152.5449  134.1178  159.8385 H   0  0  0  0  0  0  0  0  0  0  0  0  # atno 6907 bound_to 6896
  151.1237  133.5078  159.2608 H   0  0  0  0  0  0  0  0  0  0  0  0  # atno 6908 bound_to 6896
  151.1750  135.0345  159.8823 H   0  0  0  0  0  0  0  0  0  0  0  0  # atno 6909 bound_to 6896
  146.1899  139.7496  142.8839 H   0  0  0  0  0  0  0  0  0  0  0  0  # atno 7974 bound_to 7965
  156.1649  140.3132  155.8872 H   0  0  0  0  0  0  0  0  0  0  0  0  # atno 8008 bound_to 7997
  155.3706  140.0482  157.3062 H   0  0  0  0  0  0  0  0  0  0  0  0  # atno 8009 bound_to 7997
  154.5183  140.2189  155.9035 H   0  0  0  0  0  0  0  0  0  0  0  0  # atno 8010 bound_to 7997
  140.6334  143.7942  150.7326 H   0  0  0  0  0  0  0  0  0  0  0  0  # atno 10167 bound_to 10162
  157.4434  130.8095  149.7717 H   0  0  0  0  0  0  0  0  0  0  0  0  # atno 10718 bound_to 10713
  154.7066  135.2998  154.9260 H   0  0  0  0  0  0  0  0  0  0  0  0  # atno 10763 bound_to 10752
  154.0175  135.6687  153.4774 H   0  0  0  0  0  0  0  0  0  0  0  0  # atno 10764 bound_to 10752
  153.0722  135.5054  154.8241 H   0  0  0  0  0  0  0  0  0  0  0  0  # atno 10765 bound_to 10752
  140.7508  133.8593  155.9043 H   0  0  0  0  0  0  0  0  0  0  0  0  # atno 11005 bound_to 11000
  145.3824  141.0360  143.3170 LP  0  0  0  0  0  0  0  0  0  0  0  0  # atno 17320 bound_to 7965
  144.8467  139.5385  143.6875 LP  0  0  0  0  0  0  0  0  0  0  0  0  # atno 17321 bound_to 7965
  140.1558  143.4318  152.2100 LP  0  0  0  0  0  0  0  0  0  0  0  0  # atno 17342 bound_to 10162
  139.5546  144.7363  151.4333 LP  0  0  0  0  0  0  0  0  0  0  0  0  # atno 17343 bound_to 10162
  155.9958  130.3910  150.2805 LP  0  0  0  0  0  0  0  0  0  0  0  0  # atno 17370 bound_to 10713
  157.0972  131.0186  151.3099 LP  0  0  0  0  0  0  0  0  0  0  0  0  # atno 17371 bound_to 10713
  140.9752  134.1478  157.4542 LP  0  0  0  0  0  0  0  0  0  0  0  0  # atno 17394 bound_to 11000
  139.8788  134.9992  156.5942 LP  0  0  0  0  0  0  0  0  0  0  0  0  # atno 17395 bound_to 11000

$$$$
