AV-unprocessed.smi:72|AV-procd|sdf|742|dock8
  -GOLD-   2262017 73D 1   1.00000     0.00000
 Structure written by MMmdl.
 28 29  0  0  0  0  0  0  0  0  2 V2000
  144.8251  138.1499  153.4769 N   0  0  0  0  0  0  0  0  0  0  0  0
  144.7775  136.9676  153.0410 C   0  0  0  0  0  0  0  0  0  0  0  0
  143.8271  136.6148  152.0088 N   0  0  0  0  0  0  0  0  0  0  0  0
  143.8003  135.3810  151.6076 C   0  0  0  0  0  0  0  0  0  0  0  0
  144.6797  134.3687  152.1766 N   0  0  0  0  0  0  0  0  0  0  0  0
  144.6528  132.9354  151.6905 C   0  0  1  0  0  0  0  0  0  0  0  0
  143.6690  132.7969  150.7052 O   0  0  0  0  0  0  0  0  0  0  0  0
  144.1963  132.1006  149.5801 C   0  0  1  0  0  0  0  0  0  0  0  0
  143.4346  132.5113  148.3106 C   0  0  0  0  0  0  0  0  0  0  0  0
  143.4984  133.9104  148.1340 O   0  0  0  0  0  0  0  0  0  0  0  0
  145.6620  132.5351  149.5810 C   0  0  2  0  0  0  0  0  0  0  0  0
  146.5007  131.6804  148.8264 O   0  0  0  0  0  0  0  0  0  0  0  0
  146.0059  132.5596  151.0656 C   0  0  2  0  0  0  0  0  0  0  0  0
  146.4530  131.3059  151.5479 O   0  0  0  0  0  0  0  0  0  0  0  0
  145.6280  134.7506  153.1620 C   0  0  0  0  0  0  0  0  0  0  0  0
  146.3970  133.8907  153.5929 O   0  0  0  0  0  0  0  0  0  0  0  0
  145.6527  136.0482  153.5766 N   0  5  0  0  0  0  0  0  0  0  0  0
  144.3730  132.3258  152.5513 H   0  0  0  0  0  0  0  0  0  0  0  0
  144.1309  131.0249  149.7559 H   0  0  0  0  0  0  0  0  0  0  0  0
  145.7417  133.5480  149.1831 H   0  0  0  0  0  0  0  0  0  0  0  0
  146.7688  133.3067  151.2901 H   0  0  0  0  0  0  0  0  0  0  0  0
  144.1525  138.7577  153.0327 H   0  0  0  0  0  0  0  0  0  0  0  0
  143.1283  135.0308  150.8235 H   0  0  0  0  0  0  0  0  0  0  0  0
  143.8251  131.9985  147.4310 H   0  0  0  0  0  0  0  0  0  0  0  0
  142.3820  132.2424  148.4012 H   0  0  0  0  0  0  0  0  0  0  0  0
  144.3831  134.1433  147.8974 H   0  0  0  0  0  0  0  0  0  0  0  0
  147.1663  131.3340  149.4007 H   0  0  0  0  0  0  0  0  0  0  0  0
  147.2592  131.0880  151.1047 H   0  0  0  0  0  0  0  0  0  0  0  0
  1  2  2  0  0  0  0
  1 22  1  0  0  0  0
  2 17  1  0  0  0  0
  2  3  1  0  0  0  0
  3  4  2  0  0  0  0
  4  5  1  0  0  0  0
  4 23  1  0  0  0  0
  5  6  1  0  0  0  0
  5 15  1  0  0  0  0
  6 18  1  0  0  0  0
  6 13  1  0  0  0  0
  6  7  1  0  0  0  0
  7  8  1  0  0  0  0
  8 19  1  0  0  0  0
  8  9  1  0  0  0  0
  8 11  1  0  0  0  0
  9 10  1  0  0  0  0
  9 24  1  0  0  0  0
  9 25  1  0  0  0  0
 10 26  1  0  0  0  0
 11 20  1  0  0  0  0
 11 12  1  0  0  0  0
 11 13  1  0  0  0  0
 12 27  1  0  0  0  0
 13 21  1  0  0  0  0
 13 14  1  0  0  0  0
 14 28  1  0  0  0  0
 15 16  2  0  0  0  0
 15 17  1  0  0  0  0
M  CHG  1  17  -1
M  END
> <s_m_source_file>
AV-unprocessed.smi

> <i_m_source_file_index>
72

> <i_lp_mmshare_version>
43012

> <i_f3d_flags>
0

> <s_epik_input>
W05IMl1jMW5bY0hdbihjKD1PKW4xKVtDQEBIXTJPW0NASF0oW0NIMl1bT0hdKVtDQEBIXShbT0hdKVtDQEhdMltPSF0=

> <s_epik_cmdline>
J2VwaWtfcHl0aG9uJywgJy1waCcsICc3LjAnLCAnLXRuJywgJzgnLCAnLW1hJywgJzIwMCcsICctbWV0YWxfYmluZGluZycsICctaW1hZScsICc8aW5maWxlLm1hZT4nLCAnLW9tYWUnLCAnPG91dGZpbGUubWFlPic=

> <r_lp_tautomer_probability>
7.17554e-07

> <r_epik_Ionization_Penalty>
12.8705

> <r_epik_Ionization_Penalty_Charging>
5.64144

> <r_epik_Ionization_Penalty_Neutral>
7.22905

> <r_epik_State_Penalty>
3.30104

> <r_epik_Charging_Adjusted_Penalty>
8.94249

> <i_epik_Tot_Q>
-1

> <i_epik_Tot_abs_Q>
1

> <r_epik_Metal_State_Penalty>
0.529074

> <b_epik_Metal_Only>
1

> <s_epik_Chemistry_Notes>
This compound contains an acetal/aminal-like group ( X-CH(R)-Y where X, Y are N, S, or O) that may be acid/base labile, releasing an aldehyde.

> <s_lp_Force_Field>
OPLS_2005

> <r_lp_Energy>
36.1714

> <b_lp_Chiralities_Consistent>
1

> <s_lp_Variant>
AV-unprocessed.smi:72-80

> <Gold.Version>
5.8.1

> <Gold.Id.Protein>
6NUR|6NUR_protein|mol2

> <Gold.PLP.Fitness>
42.1623

> <Gold.PLP.PLP>
-26.1831

> <Gold.PLP.part.hbond>
-6.4958

> <Gold.PLP.part.metal>
0.0000

> <Gold.PLP.part.buried>
-2.5916

> <Gold.PLP.part.nonpolar>
-18.1256

> <Gold.PLP.part.repulsive>
1.7172

> <Gold.PLP.ligand.clash>
0.0000

> <Gold.PLP.ligand.torsion>
0.0121

> <Gold.PLP.Chemscore.Hbond>
4.6413

> <Gold.PLP.Chemscore.CHOScore>
0.6861

> <Gold.PLP.Chemscore.Metal>
0.0000

> <Gold.Chemscore.Hbonds>
donor molecule, donor type, donor heavy atom, donor atom, acceptor molecule, acceptor atom, score
      L1  H     1    22       P1 10175  1.00
      L1  H    10    26       P1  7921  1.00
      L1  H    12    27       P1 10747  0.99
      L1  H    14    28       P1 10747  1.00
      P1  H 10192 10197       L1    10  0.65
      L1  C     4    23       P1 10186  0.69

> <Gold.PLP.Chemscore.Internal.Correction>
0.0215

> <Gold.Rescore>
     Score         DG    S(hbond)    S(metal)    S(lipo)     H(rot)  DE(clash)    DE(int)     intcor
     13.62     -15.49       4.52        0.00      44.84       4.04       0.62       1.25       ----

> <Gold.Chemscore.Fitness>
13.6244

> <Gold.Chemscore.DG>
-15.4946

> <Gold.Chemscore.ZeroCoef>
-5.4800

> <Gold.Chemscore.Hbond>
4.5244

> <Gold.Chemscore.Metal>
0.0000

> <Gold.Chemscore.Lipo>
44.8407

> <Gold.Chemscore.Internal_Hbond>
0.0000

> <Gold.Chemscore.DEClash>
0.6247

> <Gold.Chemscore.DEInternal>
1.2456

> <Gold.Chemscore.Rot>
4.0403

> <Gold.Chemscore.Internal.Correction>
   9.000000E+99

> <Gold.Chemscore.Hbonds>
donor molecule, donor type, donor heavy atom, donor atom, acceptor molecule, acceptor atom, score
      L1  H     1    22       P1 10175  0.94
      L1  H    10    26       P1  7921  1.00
      L1  H    12    27       P1 10747  0.92
      L1  H    14    28       P1 10747  1.00
      P1  H 10192 10197       L1    10  0.55

> <Gold.Chemscore.Hbond.Weighted>
-15.1113

> <Gold.Chemscore.Metal.Weighted>
-0.0000

> <Gold.Chemscore.Lipo.Weighted>
-5.2464

> <Gold.Chemscore.Internal_Hbond.Weighted>
0.0000

> <Gold.Chemscore.DEClash.Weighted>
0.6247

> <Gold.Chemscore.DEInternal.Weighted>
1.2456

> <Gold.Chemscore.Rot.Weighted>
10.3431

> <Gold.Chemscore.Internal.Correction.Weighted>
   9.000000E+99

> <Gold.Protein.RotatedTorsions>
[ 6907 6896 6895 6894 ] final   67.76 input  -60.11 | X-H torsion
[ 7974 7965 7964 7962 ] final   -5.80 input  175.53 | X-H torsion
[ 8008 7997 7996 7995 ] final -128.10 input   59.86 | X-H torsion
[ 10167 10162 10161 10158 ] final   88.14 input  -65.29 | X-H torsion
[ 10718 10713 10712 10709 ] final  117.90 input   66.30 | X-H torsion
[ 10763 10752 10751 10750 ] final  -67.76 input  -60.55 | X-H torsion
[ 11005 11000 10999 10996 ] final  -64.52 input  -57.11 | X-H torsion

> <Gold.Protein.ActiveResidues>
 VAL166  LYS551  ARG553  GLY616  TRP617  ASP618  TYR619  PRO620  LYS621  CYS622 
 ASP623  PHE694  ASN695  SER759  ASP760  ASP761  ALA762  ILE779  LEU786  VAL792 
 PHE793  MET794  SER795  GLU796  ALA797  LYS798  CYS799  TRP800  GLU811  SER814 

> <Gold.Protein.RotatedAtoms>
  152.4574  134.5261  159.9796 H   0  0  0  0  0  0  0  0  0  0  0  0  # atno 6907 bound_to 6896
  151.5319  133.3442  159.2927 H   0  0  0  0  0  0  0  0  0  0  0  0  # atno 6908 bound_to 6896
  150.8523  134.7882  159.7081 H   0  0  0  0  0  0  0  0  0  0  0  0  # atno 6909 bound_to 6896
  146.2345  140.2075  142.8334 H   0  0  0  0  0  0  0  0  0  0  0  0  # atno 7974 bound_to 7965
  155.2571  140.0434  157.2993 H   0  0  0  0  0  0  0  0  0  0  0  0  # atno 8008 bound_to 7997
  154.5733  140.2380  155.8129 H   0  0  0  0  0  0  0  0  0  0  0  0  # atno 8009 bound_to 7997
  156.2139  140.2990  155.9802 H   0  0  0  0  0  0  0  0  0  0  0  0  # atno 8010 bound_to 7997
  139.8703  144.6496  150.8957 H   0  0  0  0  0  0  0  0  0  0  0  0  # atno 10167 bound_to 10162
  157.6066  131.1042  150.7680 H   0  0  0  0  0  0  0  0  0  0  0  0  # atno 10718 bound_to 10713
  154.3792  135.6078  153.5781 H   0  0  0  0  0  0  0  0  0  0  0  0  # atno 10763 bound_to 10752
  152.9788  135.5856  154.4430 H   0  0  0  0  0  0  0  0  0  0  0  0  # atno 10764 bound_to 10752
  154.4197  135.2845  155.1961 H   0  0  0  0  0  0  0  0  0  0  0  0  # atno 10765 bound_to 10752
  141.1427  133.6667  156.5845 H   0  0  0  0  0  0  0  0  0  0  0  0  # atno 11005 bound_to 11000
  144.9733  140.8389  143.5442 LP  0  0  0  0  0  0  0  0  0  0  0  0  # atno 17320 bound_to 7965
  145.2059  139.2228  143.5168 LP  0  0  0  0  0  0  0  0  0  0  0  0  # atno 17321 bound_to 7965
  140.7761  143.3669  151.1721 LP  0  0  0  0  0  0  0  0  0  0  0  0  # atno 17342 bound_to 10162
  139.7290  143.9102  152.3013 LP  0  0  0  0  0  0  0  0  0  0  0  0  # atno 17343 bound_to 10162
  156.8067  130.4939  149.5362 LP  0  0  0  0  0  0  0  0  0  0  0  0  # atno 17370 bound_to 10713
  156.1154  130.6071  151.0113 LP  0  0  0  0  0  0  0  0  0  0  0  0  # atno 17371 bound_to 10713
  140.3811  134.7522  157.4662 LP  0  0  0  0  0  0  0  0  0  0  0  0  # atno 17394 bound_to 11000
  140.0637  134.5960  155.8720 LP  0  0  0  0  0  0  0  0  0  0  0  0  # atno 17395 bound_to 11000

$$$$
