AV-unprocessed.smi:244|AV-procd|sdf|1868|dock8
  -GOLD-   2262020503D 1   1.00000     0.00000
 Structure written by MMmdl.
 57 61  0  0  0  0  0  0  0  0  2 V2000
  141.1975  136.5829  154.4308 C   0  0  0  0  0  0  0  0  0  0  0  0
  142.1773  135.7849  153.6636 N   0  3  1  0  0  0  0  0  0  0  0  0
  141.5578  134.6123  152.9985 C   0  0  0  0  0  0  0  0  0  0  0  0
  142.6315  133.7237  152.3522 C   0  0  0  0  0  0  0  0  0  0  0  0
  143.5078  134.5343  151.3723 C   0  0  2  0  0  0  0  0  0  0  0  0
  144.5428  133.7475  150.7785 O   0  0  0  0  0  0  0  0  0  0  0  0
  145.5872  133.3629  151.6705 C   0  0  0  0  0  0  0  0  0  0  0  0
  146.2013  134.6054  152.3310 C   0  0  0  0  0  0  0  0  0  0  0  0
  145.1629  135.4003  152.9761 N   0  0  0  0  0  0  0  0  0  0  0  0
  145.6716  136.3924  153.7382 C   0  0  0  0  0  0  0  0  0  0  0  0
  145.5874  136.2370  155.0818 N   0  0  0  0  0  0  0  0  0  0  0  0
  146.0559  137.1907  155.8927 C   0  0  0  0  0  0  0  0  0  0  0  0
  146.6279  138.3529  155.5709 N   0  0  0  0  0  0  0  0  0  0  0  0
  146.7064  138.5126  154.2185 C   0  0  0  0  0  0  0  0  0  0  0  0
  146.2568  137.5881  153.2352 C   0  0  0  0  0  0  0  0  0  0  0  0
  146.4992  138.0912  151.9630 N   0  0  0  0  0  0  0  0  0  0  0  0
  147.0707  139.2441  152.1818 C   0  0  0  0  0  0  0  0  0  0  0  0
  147.2225  139.5819  153.5081 N   0  0  0  0  0  0  0  0  0  0  0  0
  147.8134  140.8022  154.0359 C   0  0  0  0  0  0  0  0  0  0  0  0
  149.1700  140.5879  154.7528 C   0  0  0  0  0  0  0  0  0  0  0  0
  150.0927  140.0893  153.7994 O   0  0  0  0  0  0  0  0  0  0  0  0
  149.7058  141.9287  155.2941 C   0  0  0  0  0  0  0  0  0  0  0  0
  150.9607  141.7451  156.1657 C   0  0  0  0  0  0  0  0  0  0  0  0
  150.6884  140.8329  157.2223 O   0  0  0  0  0  0  0  0  0  0  0  0
  150.3642  139.5301  156.7531 C   0  0  0  0  0  0  0  0  0  0  0  0
  149.0748  139.5737  155.9138 C   0  0  0  0  0  0  0  0  0  0  0  0
  144.0976  135.7939  152.0488 C   0  0  2  0  0  0  0  0  0  0  0  0
  142.9567  136.6107  152.7076 C   0  0  0  0  0  0  0  0  0  0  0  0
  140.4446  137.0174  153.7721 H   0  0  0  0  0  0  0  0  0  0  0  0
  141.6956  137.3927  154.9652 H   0  0  0  0  0  0  0  0  0  0  0  0
  140.6900  135.9622  155.1699 H   0  0  0  0  0  0  0  0  0  0  0  0
  140.9968  134.0293  153.7301 H   0  0  0  0  0  0  0  0  0  0  0  0
  140.8428  134.9507  152.2469 H   0  0  0  0  0  0  0  0  0  0  0  0
  143.2343  133.2873  153.1479 H   0  0  0  0  0  0  0  0  0  0  0  0
  142.1612  132.8907  151.8292 H   0  0  0  0  0  0  0  0  0  0  0  0
  142.8663  134.8602  150.5526 H   0  0  0  0  0  0  0  0  0  0  0  0
  145.2200  132.6635  152.4211 H   0  0  0  0  0  0  0  0  0  0  0  0
  146.3503  132.8294  151.1037 H   0  0  0  0  0  0  0  0  0  0  0  0
  146.9528  134.3047  153.0624 H   0  0  0  0  0  0  0  0  0  0  0  0
  146.7108  135.2036  151.5747 H   0  0  0  0  0  0  0  0  0  0  0  0
  145.9564  136.9973  156.9507 H   0  0  0  0  0  0  0  0  0  0  0  0
  147.3904  139.8895  151.3764 H   0  0  0  0  0  0  0  0  0  0  0  0
  147.9271  141.5109  153.2142 H   0  0  0  0  0  0  0  0  0  0  0  0
  147.0952  141.2511  154.7235 H   0  0  0  0  0  0  0  0  0  0  0  0
  149.6457  139.9878  152.9729 H   0  0  0  0  0  0  0  0  0  0  0  0
  149.9166  142.6166  154.4740 H   0  0  0  0  0  0  0  0  0  0  0  0
  148.9346  142.4054  155.9007 H   0  0  0  0  0  0  0  0  0  0  0  0
  151.8057  141.3923  155.5723 H   0  0  0  0  0  0  0  0  0  0  0  0
  151.2570  142.7013  156.5970 H   0  0  0  0  0  0  0  0  0  0  0  0
  151.1954  139.1218  156.1762 H   0  0  0  0  0  0  0  0  0  0  0  0
  150.2260  138.8733  157.6120 H   0  0  0  0  0  0  0  0  0  0  0  0
  148.2454  139.8515  156.5656 H   0  0  0  0  0  0  0  0  0  0  0  0
  148.8499  138.5739  155.5408 H   0  0  0  0  0  0  0  0  0  0  0  0
  144.5531  136.4127  151.2742 H   0  0  0  0  0  0  0  0  0  0  0  0
  142.2828  136.9825  151.9340 H   0  0  0  0  0  0  0  0  0  0  0  0
  143.3479  137.4967  153.2093 H   0  0  0  0  0  0  0  0  0  0  0  0
  142.8387  135.4231  154.3365 H   0  0  0  0  0  0  0  0  0  0  0  0
  1  2  1  0  0  0  0
  1 29  1  0  0  0  0
  1 30  1  0  0  0  0
  1 31  1  0  0  0  0
  2 28  1  0  0  0  0
  2  3  1  0  0  0  0
  2 57  1  0  0  0  0
  3  4  1  0  0  0  0
  3 32  1  0  0  0  0
  3 33  1  0  0  0  0
  4  5  1  0  0  0  0
  4 34  1  0  0  0  0
  4 35  1  0  0  0  0
  5 27  1  0  0  0  0
  5  6  1  0  0  0  0
  5 36  1  0  0  0  0
  6  7  1  0  0  0  0
  7  8  1  0  0  0  0
  7 37  1  0  0  0  0
  7 38  1  0  0  0  0
  8  9  1  0  0  0  0
  8 39  1  0  0  0  0
  8 40  1  0  0  0  0
  9 10  1  0  0  0  0
  9 27  1  0  0  0  0
 10 15  1  0  0  0  0
 10 11  2  0  0  0  0
 11 12  1  0  0  0  0
 12 13  2  0  0  0  0
 12 41  1  0  0  0  0
 13 14  1  0  0  0  0
 14 18  1  0  0  0  0
 14 15  2  0  0  0  0
 15 16  1  0  0  0  0
 16 17  2  0  0  0  0
 17 18  1  0  0  0  0
 17 42  1  0  0  0  0
 18 19  1  0  0  0  0
 19 20  1  0  0  0  0
 19 43  1  0  0  0  0
 19 44  1  0  0  0  0
 20 26  1  0  0  0  0
 20 21  1  0  0  0  0
 20 22  1  0  0  0  0
 21 45  1  0  0  0  0
 22 23  1  0  0  0  0
 22 46  1  0  0  0  0
 22 47  1  0  0  0  0
 23 24  1  0  0  0  0
 23 48  1  0  0  0  0
 23 49  1  0  0  0  0
 24 25  1  0  0  0  0
 25 26  1  0  0  0  0
 25 50  1  0  0  0  0
 25 51  1  0  0  0  0
 26 52  1  0  0  0  0
 26 53  1  0  0  0  0
 27 28  1  0  0  0  0
 27 54  1  0  0  0  0
 28 55  1  0  0  0  0
 28 56  1  0  0  0  0
M  CHG  1   2   1
M  END
> <s_m_source_file>
AV-unprocessed.smi

> <i_m_source_file_index>
244

> <i_lp_mmshare_version>
43012

> <i_f3d_flags>
0

> <s_epik_input>
W0NIMl0xW0NIMl1OKFtDSDNdKVtDSDJdW0NAQEhdKFtDQEhdMTIpTihbQ0gyXVtDSDJdTzIpYyhuW2NIXW4zKWMoYzM0KW5bY0hdbjRbQ0gyXUM1KFtPSF0pW0NIMl1bQ0gyXU9bQ0gyXVtDSDJdNQ==

> <s_epik_cmdline>
J2VwaWtfcHl0aG9uJywgJy1waCcsICc3LjAnLCAnLXRuJywgJzgnLCAnLW1hJywgJzIwMCcsICctbWV0YWxfYmluZGluZycsICctaW1hZScsICc8aW5maWxlLm1hZT4nLCAnLW9tYWUnLCAnPG91dGZpbGUubWFlPic=

> <r_lp_tautomer_probability>
1

> <r_epik_Ionization_Penalty>
0.0136215

> <r_epik_Ionization_Penalty_Charging>
0.0131385

> <r_epik_Ionization_Penalty_Neutral>
0.000483022

> <r_epik_State_Penalty>
0.0104001

> <r_epik_Charging_Adjusted_Penalty>
0.0235387

> <i_epik_Tot_Q>
1

> <i_epik_Tot_abs_Q>
1

> <r_epik_Metal_State_Penalty>
0.0104469

> <b_epik_Metal_Only>
0

> <s_lp_Force_Field>
OPLS_2005

> <r_lp_Energy>
48.7962

> <b_lp_Chiralities_Consistent>
1

> <s_lp_Variant>
AV-unprocessed.smi:244-5

> <Gold.Version>
5.8.1

> <Gold.Id.Protein>
6NUR|6NUR_protein|mol2

> <Gold.PLP.Fitness>
38.9029

> <Gold.PLP.PLP>
-31.5919

> <Gold.PLP.part.hbond>
-2.0000

> <Gold.PLP.part.metal>
0.0000

> <Gold.PLP.part.buried>
-0.4786

> <Gold.PLP.part.nonpolar>
-30.1956

> <Gold.PLP.part.repulsive>
1.0755

> <Gold.PLP.ligand.clash>
0.0000

> <Gold.PLP.ligand.torsion>
0.2310

> <Gold.PLP.Chemscore.Hbond>
1.8320

> <Gold.PLP.Chemscore.CHOScore>
0.7141

> <Gold.PLP.Chemscore.Metal>
0.0000

> <Gold.Chemscore.Hbonds>
donor molecule, donor type, donor heavy atom, donor atom, acceptor molecule, acceptor atom, score
      L1  H    21    45       P1  7957  1.00
      P1  H  7989  7998       L1    21  0.82
      L1  C    17    42       P1  7957  0.71

> <Gold.PLP.Chemscore.Internal.Correction>
0.1345

> <Gold.Rescore>
     Score         DG    S(hbond)    S(metal)    S(lipo)     H(rot)  DE(clash)    DE(int)     intcor
     11.26     -14.91       1.56        0.00      81.72       2.09       2.04       1.60       ----

> <Gold.Chemscore.Fitness>
11.2597

> <Gold.Chemscore.DG>
-14.9085

> <Gold.Chemscore.ZeroCoef>
-5.4800

> <Gold.Chemscore.Hbond>
1.5629

> <Gold.Chemscore.Metal>
0.0000

> <Gold.Chemscore.Lipo>
81.7230

> <Gold.Chemscore.Internal_Hbond>
0.0000

> <Gold.Chemscore.DEClash>
2.0442

> <Gold.Chemscore.DEInternal>
1.6046

> <Gold.Chemscore.Rot>
2.0911

> <Gold.Chemscore.Internal.Correction>
   9.000000E+99

> <Gold.Chemscore.Hbonds>
donor molecule, donor type, donor heavy atom, donor atom, acceptor molecule, acceptor atom, score
      L1  H    21    45       P1  7957  0.95
      P1  H  7989  7998       L1    21  0.49

> <Gold.Chemscore.Hbond.Weighted>
-5.2200

> <Gold.Chemscore.Metal.Weighted>
-0.0000

> <Gold.Chemscore.Lipo.Weighted>
-9.5616

> <Gold.Chemscore.Internal_Hbond.Weighted>
0.0000

> <Gold.Chemscore.DEClash.Weighted>
2.0442

> <Gold.Chemscore.DEInternal.Weighted>
1.6046

> <Gold.Chemscore.Rot.Weighted>
5.3531

> <Gold.Chemscore.Internal.Correction.Weighted>
   9.000000E+99

> <Gold.Protein.RotatedTorsions>
[ 6907 6896 6895 6894 ] final   53.89 input  -60.11 | X-H torsion
[ 7974 7965 7964 7962 ] final  -25.92 input  175.53 | X-H torsion
[ 8008 7997 7996 7995 ] final  -89.57 input   59.86 | X-H torsion
[ 10167 10162 10161 10158 ] final  146.67 input  -65.29 | X-H torsion
[ 10718 10713 10712 10709 ] final   69.69 input   66.30 | X-H torsion
[ 10763 10752 10751 10750 ] final  161.26 input  -60.55 | X-H torsion
[ 11005 11000 10999 10996 ] final   63.36 input  -57.11 | X-H torsion

> <Gold.Protein.ActiveResidues>
 VAL166  LYS551  ARG553  GLY616  TRP617  ASP618  TYR619  PRO620  LYS621  CYS622 
 ASP623  PHE694  ASN695  SER759  ASP760  ASP761  ALA762  ILE779  LEU786  VAL792 
 PHE793  MET794  SER795  GLU796  ALA797  LYS798  CYS799  TRP800  GLU811  SER814 

> <Gold.Protein.RotatedAtoms>
  152.3383  134.7168  160.0270 H   0  0  0  0  0  0  0  0  0  0  0  0  # atno 6907 bound_to 6896
  151.7562  133.3325  159.3413 H   0  0  0  0  0  0  0  0  0  0  0  0  # atno 6908 bound_to 6896
  150.7464  134.6080  159.6115 H   0  0  0  0  0  0  0  0  0  0  0  0  # atno 6909 bound_to 6896
  146.1459  140.4951  142.8632 H   0  0  0  0  0  0  0  0  0  0  0  0  # atno 7974 bound_to 7965
  154.6882  140.0540  157.0336 H   0  0  0  0  0  0  0  0  0  0  0  0  # atno 8008 bound_to 7997
  155.0854  140.3214  155.4570 H   0  0  0  0  0  0  0  0  0  0  0  0  # atno 8009 bound_to 7997
  156.2719  140.2057  156.5982 H   0  0  0  0  0  0  0  0  0  0  0  0  # atno 8010 bound_to 7997
  139.4903  144.5812  151.6867 H   0  0  0  0  0  0  0  0  0  0  0  0  # atno 10167 bound_to 10162
  157.6359  130.9439  150.0548 H   0  0  0  0  0  0  0  0  0  0  0  0  # atno 10718 bound_to 10713
  154.2603  135.2768  155.2781 H   0  0  0  0  0  0  0  0  0  0  0  0  # atno 10763 bound_to 10752
  154.5390  135.5708  153.6826 H   0  0  0  0  0  0  0  0  0  0  0  0  # atno 10764 bound_to 10752
  152.9963  135.6246  154.2753 H   0  0  0  0  0  0  0  0  0  0  0  0  # atno 10765 bound_to 10752
  140.0030  134.6413  155.9901 H   0  0  0  0  0  0  0  0  0  0  0  0  # atno 11005 bound_to 11000
  144.7846  140.5910  143.6582 LP  0  0  0  0  0  0  0  0  0  0  0  0  # atno 17320 bound_to 7965
  145.4938  139.1487  143.3695 LP  0  0  0  0  0  0  0  0  0  0  0  0  # atno 17321 bound_to 7965
  140.5419  144.0565  150.6092 LP  0  0  0  0  0  0  0  0  0  0  0  0  # atno 17342 bound_to 10162
  140.3590  143.2919  152.0404 LP  0  0  0  0  0  0  0  0  0  0  0  0  # atno 17343 bound_to 10162
  156.1599  130.3643  149.9315 LP  0  0  0  0  0  0  0  0  0  0  0  0  # atno 17370 bound_to 10713
  156.7315  130.9045  151.3626 LP  0  0  0  0  0  0  0  0  0  0  0  0  # atno 17371 bound_to 10713
  141.1656  133.6537  156.4467 LP  0  0  0  0  0  0  0  0  0  0  0  0  # atno 17394 bound_to 11000
  140.4693  134.6768  157.5122 LP  0  0  0  0  0  0  0  0  0  0  0  0  # atno 17395 bound_to 11000

$$$$
