AV-unprocessed.smi:1245|AV-procd|sdf|5240|dock8
  -GOLD-   22720 4353D 1   1.00000     0.00000
 Structure written by MMmdl.
 44 45  0  0  0  0  0  0  0  0  2 V2000
  150.7882  134.9336  155.9721 O   0  0  0  0  0  0  0  0  0  0  0  0
  150.2829  135.5792  155.0529 C   0  0  0  0  0  0  0  0  0  0  0  0
  150.6865  137.0346  154.7998 C   0  0  0  0  0  0  0  0  0  0  0  0
  150.5868  137.9200  156.0551 C   0  0  0  0  0  0  0  0  0  0  0  0
  151.4731  139.5322  155.8345 S   0  0  0  0  0  0  0  0  0  0  0  0
  152.9170  139.2571  155.8875 O   0  0  0  0  0  0  0  0  0  0  0  0
  150.9016  140.2296  154.6719 O   0  0  0  0  0  0  0  0  0  0  0  0
  151.0270  140.4913  157.3587 C   0  0  0  0  0  0  0  0  0  0  0  0
  150.2770  141.8003  157.0460 C   0  0  0  0  0  0  0  0  0  0  0  0
  151.1335  142.9327  157.6228 C   0  0  0  0  0  0  0  0  0  0  0  0
  151.9570  142.2767  158.7296 C   0  0  0  0  0  0  0  0  0  0  0  0
  152.2563  140.8752  158.1986 C   0  0  0  0  0  0  0  0  0  0  0  0
  149.3615  135.0713  154.2204 N   0  0  0  0  0  0  0  0  0  0  0  0
  148.8399  133.7103  154.2741 C   0  0  0  0  0  0  0  0  0  0  0  0
  148.8849  133.0274  152.8965 C   0  0  0  0  0  0  0  0  0  0  0  0
  147.5892  133.1980  152.1273 C   0  0  0  0  0  0  0  0  0  0  0  0
  146.7691  132.1011  151.7840 C   0  0  0  0  0  0  0  0  0  0  0  0
  145.5786  132.3301  151.0626 C   0  0  0  0  0  0  0  0  0  0  0  0
  145.2344  133.6486  150.6991 C   0  0  0  0  0  0  0  0  0  0  0  0
  146.0911  134.7065  151.0656 C   0  0  0  0  0  0  0  0  0  0  0  0
  147.2231  134.4466  151.7563 N   0  3  0  0  0  0  0  0  0  0  0  0
  151.7076  137.0478  154.4168 H   0  0  0  0  0  0  0  0  0  0  0  0
  150.0497  137.4393  154.0124 H   0  0  0  0  0  0  0  0  0  0  0  0
  149.5477  138.1142  156.3131 H   0  0  0  0  0  0  0  0  0  0  0  0
  151.0374  137.4152  156.9103 H   0  0  0  0  0  0  0  0  0  0  0  0
  150.3751  139.8500  157.9531 H   0  0  0  0  0  0  0  0  0  0  0  0
  150.0908  141.9422  155.9811 H   0  0  0  0  0  0  0  0  0  0  0  0
  149.3044  141.7866  157.5394 H   0  0  0  0  0  0  0  0  0  0  0  0
  151.8003  143.3239  156.8540 H   0  0  0  0  0  0  0  0  0  0  0  0
  150.5319  143.7654  157.9883 H   0  0  0  0  0  0  0  0  0  0  0  0
  152.8615  142.8369  158.9683 H   0  0  0  0  0  0  0  0  0  0  0  0
  151.3591  142.2051  159.6392 H   0  0  0  0  0  0  0  0  0  0  0  0
  152.4511  140.1608  158.9991 H   0  0  0  0  0  0  0  0  0  0  0  0
  153.1507  140.9162  157.5788 H   0  0  0  0  0  0  0  0  0  0  0  0
  149.0032  135.6697  153.4899 H   0  0  0  0  0  0  0  0  0  0  0  0
  149.4425  133.1494  154.9888 H   0  0  0  0  0  0  0  0  0  0  0  0
  147.8208  133.7164  154.6651 H   0  0  0  0  0  0  0  0  0  0  0  0
  149.7041  133.4308  152.2998 H   0  0  0  0  0  0  0  0  0  0  0  0
  149.0874  131.9619  153.0147 H   0  0  0  0  0  0  0  0  0  0  0  0
  147.0468  131.0962  152.0675 H   0  0  0  0  0  0  0  0  0  0  0  0
  144.9377  131.5040  150.7909 H   0  0  0  0  0  0  0  0  0  0  0  0
  144.3270  133.8448  150.1465 H   0  0  0  0  0  0  0  0  0  0  0  0
  145.9069  135.7444  150.8293 H   0  0  0  0  0  0  0  0  0  0  0  0
  147.8281  135.2277  152.0110 H   0  0  0  0  0  0  0  0  0  0  0  0
  1  2  2  0  0  0  0
  2  3  1  0  0  0  0
  2 13  1  0  0  0  0
  3  4  1  0  0  0  0
  3 22  1  0  0  0  0
  3 23  1  0  0  0  0
  4  5  1  0  0  0  0
  4 24  1  0  0  0  0
  4 25  1  0  0  0  0
  5  6  2  0  0  0  0
  5  7  2  0  0  0  0
  5  8  1  0  0  0  0
  8 12  1  0  0  0  0
  8  9  1  0  0  0  0
  8 26  1  0  0  0  0
  9 10  1  0  0  0  0
  9 27  1  0  0  0  0
  9 28  1  0  0  0  0
 10 11  1  0  0  0  0
 10 29  1  0  0  0  0
 10 30  1  0  0  0  0
 11 12  1  0  0  0  0
 11 31  1  0  0  0  0
 11 32  1  0  0  0  0
 12 33  1  0  0  0  0
 12 34  1  0  0  0  0
 13 14  1  0  0  0  0
 13 35  1  0  0  0  0
 14 15  1  0  0  0  0
 14 36  1  0  0  0  0
 14 37  1  0  0  0  0
 15 16  1  0  0  0  0
 15 38  1  0  0  0  0
 15 39  1  0  0  0  0
 16 21  1  0  0  0  0
 16 17  2  0  0  0  0
 17 18  1  0  0  0  0
 17 40  1  0  0  0  0
 18 19  2  0  0  0  0
 18 41  1  0  0  0  0
 19 20  1  0  0  0  0
 19 42  1  0  0  0  0
 20 21  2  0  0  0  0
 20 43  1  0  0  0  0
 21 44  1  0  0  0  0
M  CHG  1  21   1
M  END
> <s_m_source_file>
AV-unprocessed.smi

> <i_m_source_file_index>
1245

> <i_lp_mmshare_version>
43012

> <i_f3d_flags>
0

> <s_epik_input>
W0NIMl0xW0NIMl1bQ0gyXVtDSDJdW0NIXTFTKD1PKSg9TylbQ0gyXVtDSDJdQyg9TylbTkhdW0NIMl1bQ0gyXWMyW2NIXVtjSF1bY0hdW2NIXW4y

> <s_epik_cmdline>
J2VwaWtfcHl0aG9uJywgJy1waCcsICc3LjAnLCAnLXRuJywgJzgnLCAnLW1hJywgJzIwMCcsICctbWV0YWxfYmluZGluZycsICctaW1hZScsICc8aW5maWxlLm1hZT4nLCAnLW9tYWUnLCAnPG91dGZpbGUubWFlPic=

> <r_epik_Ionization_Penalty>
1.90383

> <r_epik_Ionization_Penalty_Charging>
1.90383

> <r_epik_Ionization_Penalty_Neutral>
6.52612e-08

> <r_epik_State_Penalty>
2.02532

> <r_epik_Charging_Adjusted_Penalty>
3.92915

> <i_epik_Tot_Q>
1

> <i_epik_Tot_abs_Q>
1

> <r_epik_Metal_State_Penalty>
2.0489

> <b_epik_Metal_Only>
0

> <s_lp_Force_Field>
OPLS_2005

> <r_lp_Energy>
22.4311

> <b_lp_Chiralities_Consistent>
1

> <s_lp_Variant>
AV-unprocessed.smi:1245-2

> <Gold.Version>
5.8.1

> <Gold.Id.Protein>
6NUR|6NUR_protein|mol2

> <Gold.PLP.Fitness>
52.9701

> <Gold.PLP.PLP>
-38.8552

> <Gold.PLP.part.hbond>
-4.0000

> <Gold.PLP.part.metal>
0.0000

> <Gold.PLP.part.buried>
-6.0365

> <Gold.PLP.part.nonpolar>
-29.2987

> <Gold.PLP.part.repulsive>
0.1625

> <Gold.PLP.ligand.clash>
0.0000

> <Gold.PLP.ligand.torsion>
0.5584

> <Gold.PLP.Chemscore.Hbond>
4.9760

> <Gold.PLP.Chemscore.CHOScore>
0.0000

> <Gold.PLP.Chemscore.Metal>
0.0000

> <Gold.Chemscore.Hbonds>
donor molecule, donor type, donor heavy atom, donor atom, acceptor molecule, acceptor atom, score
      L1  H    13    35       P1  7948  1.00
      L1  H    21    44       P1  7948  1.72
      P1  H  7989  7998       L1     7  0.98
      P1  H  7997  8010       L1     6  1.00

> <Gold.PLP.Chemscore.Internal.Correction>
0.3037

> <Gold.Rescore>
     Score         DG    S(hbond)    S(metal)    S(lipo)     H(rot)  DE(clash)    DE(int)     intcor
     22.34     -22.88       3.66        0.00      91.15       2.14       0.02       0.52       ----

> <Gold.Chemscore.Fitness>
22.3438

> <Gold.Chemscore.DG>
-22.8814

> <Gold.Chemscore.ZeroCoef>
-5.4800

> <Gold.Chemscore.Hbond>
3.6578

> <Gold.Chemscore.Metal>
0.0000

> <Gold.Chemscore.Lipo>
91.1528

> <Gold.Chemscore.Internal_Hbond>
0.0000

> <Gold.Chemscore.DEClash>
0.0159

> <Gold.Chemscore.DEInternal>
0.5217

> <Gold.Chemscore.Rot>
2.1408

> <Gold.Chemscore.Internal.Correction>
   9.000000E+99

> <Gold.Chemscore.Hbonds>
donor molecule, donor type, donor heavy atom, donor atom, acceptor molecule, acceptor atom, score
      L1  H    13    35       P1  7948  0.78
      L1  H    21    44       P1  7948  0.75
      P1  H  7989  7998       L1     7  0.92
      P1  H  7997  8010       L1     6  1.00

> <Gold.Chemscore.Hbond.Weighted>
-12.2170

> <Gold.Chemscore.Metal.Weighted>
-0.0000

> <Gold.Chemscore.Lipo.Weighted>
-10.6649

> <Gold.Chemscore.Internal_Hbond.Weighted>
0.0000

> <Gold.Chemscore.DEClash.Weighted>
0.0159

> <Gold.Chemscore.DEInternal.Weighted>
0.5217

> <Gold.Chemscore.Rot.Weighted>
5.4805

> <Gold.Chemscore.Internal.Correction.Weighted>
   9.000000E+99

> <Gold.Protein.RotatedTorsions>
[ 6907 6896 6895 6894 ] final  -57.87 input  -60.11 | X-H torsion
[ 7974 7965 7964 7962 ] final  -61.63 input  175.53 | X-H torsion
[ 8008 7997 7996 7995 ] final   71.76 input   59.86 | X-H torsion
[ 10167 10162 10161 10158 ] final  -54.15 input  -65.29 | X-H torsion
[ 10718 10713 10712 10709 ] final -155.96 input   66.30 | X-H torsion
[ 10763 10752 10751 10750 ] final   -2.52 input  -60.55 | X-H torsion
[ 11005 11000 10999 10996 ] final  -92.08 input  -57.11 | X-H torsion

> <Gold.Protein.ActiveResidues>
 VAL166  LYS551  ARG553  GLY616  TRP617  ASP618  TYR619  PRO620  LYS621  CYS622 
 ASP623  PHE694  ASN695  SER759  ASP760  ASP761  ALA762  ILE779  LEU786  VAL792 
 PHE793  MET794  SER795  GLU796  ALA797  LYS798  CYS799  TRP800  GLU811  SER814 

> <Gold.Protein.RotatedAtoms>
  150.8052  134.7172  159.6636 H   0  0  0  0  0  0  0  0  0  0  0  0  # atno 6907 bound_to 6896
  152.4171  134.6019  160.0012 H   0  0  0  0  0  0  0  0  0  0  0  0  # atno 6908 bound_to 6896
  151.6245  133.3299  159.3131 H   0  0  0  0  0  0  0  0  0  0  0  0  # atno 6909 bound_to 6896
  145.8012  140.8654  143.0230 H   0  0  0  0  0  0  0  0  0  0  0  0  # atno 7974 bound_to 7965
  155.7587  140.3487  155.5187 H   0  0  0  0  0  0  0  0  0  0  0  0  # atno 8008 bound_to 7997
  155.8935  140.1022  157.1423 H   0  0  0  0  0  0  0  0  0  0  0  0  # atno 8009 bound_to 7997
  154.4036  140.1300  156.4332 H   0  0  0  0  0  0  0  0  0  0  0  0  # atno 8010 bound_to 7997
  140.6446  143.2527  151.4895 H   0  0  0  0  0  0  0  0  0  0  0  0  # atno 10167 bound_to 10162
  156.5201  130.8474  151.2679 H   0  0  0  0  0  0  0  0  0  0  0  0  # atno 10718 bound_to 10713
  153.3591  135.6989  153.6726 H   0  0  0  0  0  0  0  0  0  0  0  0  # atno 10763 bound_to 10752
  153.5422  135.3570  155.2724 H   0  0  0  0  0  0  0  0  0  0  0  0  # atno 10764 bound_to 10752
  154.8665  135.4206  154.2845 H   0  0  0  0  0  0  0  0  0  0  0  0  # atno 10765 bound_to 10752
  141.1530  133.7798  156.9970 H   0  0  0  0  0  0  0  0  0  0  0  0  # atno 11005 bound_to 11000
  144.6768  140.0261  143.7483 LP  0  0  0  0  0  0  0  0  0  0  0  0  # atno 17320 bound_to 7965
  145.9876  139.2990  143.1004 LP  0  0  0  0  0  0  0  0  0  0  0  0  # atno 17321 bound_to 7965
  139.5656  144.2051  152.1759 LP  0  0  0  0  0  0  0  0  0  0  0  0  # atno 17342 bound_to 10162
  140.1331  144.5270  150.6790 LP  0  0  0  0  0  0  0  0  0  0  0  0  # atno 17343 bound_to 10162
  157.7438  130.9920  150.2622 LP  0  0  0  0  0  0  0  0  0  0  0  0  # atno 17370 bound_to 10713
  156.3158  130.3778  149.7620 LP  0  0  0  0  0  0  0  0  0  0  0  0  # atno 17371 bound_to 10713
  140.0965  134.9561  157.1857 LP  0  0  0  0  0  0  0  0  0  0  0  0  # atno 17394 bound_to 11000
  140.3376  134.2740  155.7217 LP  0  0  0  0  0  0  0  0  0  0  0  0  # atno 17395 bound_to 11000

$$$$
