AV-unprocessed.smi:1492|AV-procd|sdf|6046|dock7
  -GOLD-   22720 6163D 1   1.00000     0.00000
 Structure written by MMmdl.
 52 53  0  0  0  0  0  0  0  0  3 V2000
  149.3147  134.0994  154.1812 C   0  0  0  0  0  0  0  0  0  0  0  0
  148.1029  133.8200  153.2730 C   0  0  0  0  0  0  0  0  0  0  0  0
  146.8627  133.1154  153.9207 C   0  0  1  0  0  0  0  0  0  0  0  0
  147.3243  131.7850  154.5653 C   0  0  0  0  0  0  0  0  0  0  0  0
  146.2800  134.0305  155.0434 C   0  0  0  0  0  0  0  0  0  0  0  0
  147.0798  133.9585  156.2601 N   0  0  0  0  0  0  0  0  0  0  0  0
  146.9498  134.7284  157.3499 C   0  0  0  0  0  0  0  0  0  0  0  0
  145.9850  135.4618  157.5600 O   0  0  0  0  0  0  0  0  0  0  0  0
  148.1379  134.7154  158.3135 C   0  0  0  0  0  0  0  0  0  0  0  0
  147.8140  135.2858  159.6953 C   0  0  0  0  0  0  0  0  0  0  0  0
  147.7652  134.5353  160.8335 C   0  0  0  0  0  0  0  0  0  0  0  0
  147.9604  133.0294  160.8446 C   0  0  0  0  0  0  0  0  0  0  0  0
  147.5585  135.1336  162.0879 N   0  0  0  0  0  0  0  0  0  0  0  0
  147.4425  136.4041  162.1691 C   0  0  0  0  0  0  0  0  0  0  0  0
  147.2423  137.0429  163.5266 C   0  0  0  0  0  0  0  0  0  0  0  0
  147.4952  137.2506  161.0847 N   0  5  0  0  0  0  0  0  0  0  0  0
  147.6487  136.7432  159.8296 C   0  0  0  0  0  0  0  0  0  0  0  0
  147.6716  137.4616  158.8315 O   0  0  0  0  0  0  0  0  0  0  0  0
  145.8069  132.8641  152.8641 N   0  3  0  0  0  0  0  0  0  0  0  0
  145.2611  134.0708  152.1745 C   0  0  0  0  0  0  0  0  0  0  0  0
  144.1163  133.6991  151.2133 C   0  0  0  0  0  0  0  0  0  0  0  0
  144.5453  132.7105  150.2892 O   0  0  0  0  0  0  0  0  0  0  0  0
  144.9450  131.5209  150.9522 C   0  0  0  0  0  0  0  0  0  0  0  0
  146.1542  131.8316  151.8455 C   0  0  0  0  0  0  0  0  0  0  0  0
  150.1384  134.5034  153.5924 H   0  0  0  0  0  0  0  0  0  0  0  0
  149.6808  133.1974  154.6698 H   0  0  0  0  0  0  0  0  0  0  0  0
  149.0882  134.8379  154.9498 H   0  0  0  0  0  0  0  0  0  0  0  0
  147.7962  134.7694  152.8310 H   0  0  0  0  0  0  0  0  0  0  0  0
  148.4763  133.2129  152.4481 H   0  0  0  0  0  0  0  0  0  0  0  0
  148.1097  131.9487  155.3022 H   0  0  0  0  0  0  0  0  0  0  0  0
  147.7197  131.0889  153.8259 H   0  0  0  0  0  0  0  0  0  0  0  0
  146.5167  131.2824  155.0973 H   0  0  0  0  0  0  0  0  0  0  0  0
  146.1644  135.0617  154.7121 H   0  0  0  0  0  0  0  0  0  0  0  0
  145.2649  133.7270  155.2967 H   0  0  0  0  0  0  0  0  0  0  0  0
  147.9032  133.3753  156.2117 H   0  0  0  0  0  0  0  0  0  0  0  0
  148.5140  133.6963  158.4159 H   0  0  0  0  0  0  0  0  0  0  0  0
  148.9516  135.2742  157.8527 H   0  0  0  0  0  0  0  0  0  0  0  0
  147.1724  132.5397  160.2721 H   0  0  0  0  0  0  0  0  0  0  0  0
  147.9285  132.6349  161.8609 H   0  0  0  0  0  0  0  0  0  0  0  0
  148.9240  132.7590  160.4133 H   0  0  0  0  0  0  0  0  0  0  0  0
  146.4931  137.8339  163.4737 H   0  0  0  0  0  0  0  0  0  0  0  0
  148.1790  137.4760  163.8784 H   0  0  0  0  0  0  0  0  0  0  0  0
  146.9069  136.3073  164.2591 H   0  0  0  0  0  0  0  0  0  0  0  0
  144.8492  134.7878  152.8823 H   0  0  0  0  0  0  0  0  0  0  0  0
  146.0550  134.5749  151.6230 H   0  0  0  0  0  0  0  0  0  0  0  0
  143.2443  133.3420  151.7599 H   0  0  0  0  0  0  0  0  0  0  0  0
  143.7950  134.5813  150.6592 H   0  0  0  0  0  0  0  0  0  0  0  0
  144.1208  131.1046  151.5330 H   0  0  0  0  0  0  0  0  0  0  0  0
  145.2147  130.7757  150.2036 H   0  0  0  0  0  0  0  0  0  0  0  0
  146.9723  132.1810  151.2155 H   0  0  0  0  0  0  0  0  0  0  0  0
  146.4810  130.9023  152.3048 H   0  0  0  0  0  0  0  0  0  0  0  0
  145.0213  132.4837  153.3737 H   0  0  0  0  0  0  0  0  0  0  0  0
  1  2  1  0  0  0  0
  1 25  1  0  0  0  0
  1 26  1  0  0  0  0
  1 27  1  0  0  0  0
  2  3  1  0  0  0  0
  2 28  1  0  0  0  0
  2 29  1  0  0  0  0
  3  4  1  0  0  0  0
  3  5  1  0  0  0  0
  3 19  1  0  0  0  0
  4 30  1  0  0  0  0
  4 31  1  0  0  0  0
  4 32  1  0  0  0  0
  5  6  1  0  0  0  0
  5 33  1  0  0  0  0
  5 34  1  0  0  0  0
  6  7  1  0  0  0  0
  6 35  1  0  0  0  0
  7  8  2  0  0  0  0
  7  9  1  0  0  0  0
  9 10  1  0  0  0  0
  9 36  1  0  0  0  0
  9 37  1  0  0  0  0
 10 17  1  0  0  0  0
 10 11  2  0  0  0  0
 11 12  1  0  0  0  0
 11 13  1  0  0  0  0
 12 38  1  0  0  0  0
 12 39  1  0  0  0  0
 12 40  1  0  0  0  0
 13 14  2  0  0  0  0
 14 15  1  0  0  0  0
 14 16  1  0  0  0  0
 15 41  1  0  0  0  0
 15 42  1  0  0  0  0
 15 43  1  0  0  0  0
 16 17  1  0  0  0  0
 17 18  2  0  0  0  0
 19 24  1  0  0  0  0
 19 20  1  0  0  0  0
 19 52  1  0  0  0  0
 20 21  1  0  0  0  0
 20 44  1  0  0  0  0
 20 45  1  0  0  0  0
 21 22  1  0  0  0  0
 21 46  1  0  0  0  0
 21 47  1  0  0  0  0
 22 23  1  0  0  0  0
 23 24  1  0  0  0  0
 23 48  1  0  0  0  0
 23 49  1  0  0  0  0
 24 50  1  0  0  0  0
 24 51  1  0  0  0  0
M  CHG  1  16  -1
M  CHG  1  19   1
M  END
> <s_m_source_file>
AV-unprocessed.smi

> <i_m_source_file_index>
1492

> <i_lp_mmshare_version>
43012

> <i_f3d_flags>
0

> <s_epik_input>
W0NIMl0xW0NIMl1PW0NIMl1bQ0gyXU4xW0NAQF0oW0NIM10pKFtDSDJdW0NIM10pW0NIMl1bTkhdQyg9TylbQ0gyXWMyYyhbQ0gzXSluYyhbQ0gzXSlbbkhdYzI9Tw==

> <s_epik_cmdline>
J2VwaWtfcHl0aG9uJywgJy1waCcsICc3LjAnLCAnLXRuJywgJzgnLCAnLW1hJywgJzIwMCcsICctbWV0YWxfYmluZGluZycsICctaW1hZScsICc8aW5maWxlLm1hZT4nLCAnLW9tYWUnLCAnPG91dGZpbGUubWFlPic=

> <r_lp_tautomer_probability>
0.839158

> <r_epik_Ionization_Penalty>
6.90614

> <r_epik_Ionization_Penalty_Charging>
0.570079

> <r_epik_Ionization_Penalty_Neutral>
6.33607

> <r_epik_State_Penalty>
4.81716

> <r_epik_Charging_Adjusted_Penalty>
5.38724

> <i_epik_Tot_Q>
0

> <i_epik_Tot_abs_Q>
2

> <r_epik_Metal_State_Penalty>
1.25629

> <b_epik_Metal_Only>
1

> <s_lp_Force_Field>
OPLS_2005

> <r_lp_Energy>
28.2979

> <b_lp_Chiralities_Consistent>
1

> <s_lp_Variant>
AV-unprocessed.smi:1492-11

> <Gold.Version>
5.8.1

> <Gold.Id.Protein>
6NUR|6NUR_protein|mol2

> <Gold.PLP.Fitness>
42.4224

> <Gold.PLP.PLP>
-32.6400

> <Gold.PLP.part.hbond>
-2.0000

> <Gold.PLP.part.metal>
0.0000

> <Gold.PLP.part.buried>
-7.0043

> <Gold.PLP.part.nonpolar>
-25.2139

> <Gold.PLP.part.repulsive>
0.1469

> <Gold.PLP.ligand.clash>
0.0000

> <Gold.PLP.ligand.torsion>
0.6913

> <Gold.PLP.Chemscore.Hbond>
3.6652

> <Gold.PLP.Chemscore.CHOScore>
0.0000

> <Gold.PLP.Chemscore.Metal>
0.0000

> <Gold.Chemscore.Hbonds>
donor molecule, donor type, donor heavy atom, donor atom, acceptor molecule, acceptor atom, score
      P1  H  6931  6943       L1    16  0.93
      P1  H  6934  6947       L1    16  1.95

> <Gold.PLP.Chemscore.Internal.Correction>
0.1696

> <Gold.Rescore>
     Score         DG    S(hbond)    S(metal)    S(lipo)     H(rot)  DE(clash)    DE(int)     intcor
     11.08     -12.04       0.93        0.00      75.87       2.12       0.11       0.84       ----

> <Gold.Chemscore.Fitness>
11.0824

> <Gold.Chemscore.DG>
-12.0383

> <Gold.Chemscore.ZeroCoef>
-5.4800

> <Gold.Chemscore.Hbond>
0.9333

> <Gold.Chemscore.Metal>
0.0000

> <Gold.Chemscore.Lipo>
75.8727

> <Gold.Chemscore.Internal_Hbond>
0.0000

> <Gold.Chemscore.DEClash>
0.1136

> <Gold.Chemscore.DEInternal>
0.8424

> <Gold.Chemscore.Rot>
2.1235

> <Gold.Chemscore.Internal.Correction>
   9.000000E+99

> <Gold.Chemscore.Hbonds>
donor molecule, donor type, donor heavy atom, donor atom, acceptor molecule, acceptor atom, score
      P1  H  6931  6943       L1    16  0.02
      P1  H  6934  6947       L1    16  0.61

> <Gold.Chemscore.Hbond.Weighted>
-3.1173

> <Gold.Chemscore.Metal.Weighted>
-0.0000

> <Gold.Chemscore.Lipo.Weighted>
-8.8771

> <Gold.Chemscore.Internal_Hbond.Weighted>
0.0000

> <Gold.Chemscore.DEClash.Weighted>
0.1136

> <Gold.Chemscore.DEInternal.Weighted>
0.8424

> <Gold.Chemscore.Rot.Weighted>
5.4360

> <Gold.Chemscore.Internal.Correction.Weighted>
   9.000000E+99

> <Gold.Protein.RotatedTorsions>
[ 6907 6896 6895 6894 ] final   46.62 input  -60.11 | X-H torsion
[ 7974 7965 7964 7962 ] final -101.18 input  175.53 | X-H torsion
[ 8008 7997 7996 7995 ] final   98.68 input   59.86 | X-H torsion
[ 10167 10162 10161 10158 ] final   40.40 input  -65.29 | X-H torsion
[ 10718 10713 10712 10709 ] final -117.89 input   66.30 | X-H torsion
[ 10763 10752 10751 10750 ] final   92.83 input  -60.55 | X-H torsion
[ 11005 11000 10999 10996 ] final -151.69 input  -57.11 | X-H torsion

> <Gold.Protein.ActiveResidues>
 VAL166  LYS551  ARG553  GLY616  TRP617  ASP618  TYR619  PRO620  LYS621  CYS622 
 ASP623  PHE694  ASN695  SER759  ASP760  ASP761  ALA762  ILE779  LEU786  VAL792 
 PHE793  MET794  SER795  GLU796  ALA797  LYS798  CYS799  TRP800  GLU811  SER814 

> <Gold.Protein.RotatedAtoms>
  152.2585  134.8058  160.0434 H   0  0  0  0  0  0  0  0  0  0  0  0  # atno 6907 bound_to 6896
  151.8713  133.3471  159.3744 H   0  0  0  0  0  0  0  0  0  0  0  0  # atno 6908 bound_to 6896
  150.7108  134.5037  159.5618 H   0  0  0  0  0  0  0  0  0  0  0  0  # atno 6909 bound_to 6896
  145.2849  140.9337  143.2911 H   0  0  0  0  0  0  0  0  0  0  0  0  # atno 7974 bound_to 7965
  156.1028  140.3240  155.7965 H   0  0  0  0  0  0  0  0  0  0  0  0  # atno 8008 bound_to 7997
  155.4807  140.0554  157.2985 H   0  0  0  0  0  0  0  0  0  0  0  0  # atno 8009 bound_to 7997
  154.4708  140.2010  156.0015 H   0  0  0  0  0  0  0  0  0  0  0  0  # atno 8010 bound_to 7997
  140.3746  144.2060  150.6132 H   0  0  0  0  0  0  0  0  0  0  0  0  # atno 10167 bound_to 10162
  156.1066  130.6215  150.9221 H   0  0  0  0  0  0  0  0  0  0  0  0  # atno 10718 bound_to 10713
  153.2236  135.4347  155.0516 H   0  0  0  0  0  0  0  0  0  0  0  0  # atno 10763 bound_to 10752
  154.8262  135.3362  154.6891 H   0  0  0  0  0  0  0  0  0  0  0  0  # atno 10764 bound_to 10752
  153.7322  135.7010  153.5043 H   0  0  0  0  0  0  0  0  0  0  0  0  # atno 10765 bound_to 10752
  140.7269  134.3665  157.5174 H   0  0  0  0  0  0  0  0  0  0  0  0  # atno 11005 bound_to 11000
  144.9221  139.4399  143.6536 LP  0  0  0  0  0  0  0  0  0  0  0  0  # atno 17320 bound_to 7965
  146.3204  139.8088  142.8950 LP  0  0  0  0  0  0  0  0  0  0  0  0  # atno 17321 bound_to 7965
  140.4999  143.2321  151.8694 LP  0  0  0  0  0  0  0  0  0  0  0  0  # atno 17342 bound_to 10162
  139.4800  144.5071  151.8983 LP  0  0  0  0  0  0  0  0  0  0  0  0  # atno 17343 bound_to 10162
  157.6244  131.0927  150.8562 LP  0  0  0  0  0  0  0  0  0  0  0  0  # atno 17370 bound_to 10713
  156.8680  130.5136  149.5299 LP  0  0  0  0  0  0  0  0  0  0  0  0  # atno 17371 bound_to 10713
  139.8835  134.8992  156.2762 LP  0  0  0  0  0  0  0  0  0  0  0  0  # atno 17394 bound_to 11000
  140.9955  133.7183  156.0879 LP  0  0  0  0  0  0  0  0  0  0  0  0  # atno 17395 bound_to 11000

$$$$
