AV-unprocessed.smi:112|AV-procd|sdf|1083|dock10
  -GOLD-   2262018173D 1   1.00000     0.00000
 Structure written by MMmdl.
 54 57  0  0  0  0  0  0  0  0  3 V2000
  146.2277  140.8706  158.0604 C   0  0  0  0  0  0  0  0  0  0  0  0
  147.3684  140.7330  157.0640 C   0  0  0  0  0  0  0  0  0  0  0  0
  147.2685  139.9596  155.9583 C   0  0  0  0  0  0  0  0  0  0  0  0
  148.2866  139.8151  155.0328 N   0  0  0  0  0  0  0  0  0  0  0  0
  148.1298  138.9657  153.7899 C   0  0  2  0  0  0  0  0  0  0  0  0
  147.3187  139.7170  152.7239 C   0  0  0  0  0  0  0  0  0  0  0  0
  146.3583  138.6558  152.2232 C   0  0  1  0  0  0  0  0  0  0  0  0
  146.9281  137.9331  151.1481 O   0  0  0  0  0  0  0  0  0  0  0  0
  146.1634  137.7854  153.4709 C   0  0  1  0  0  0  0  0  0  0  0  0
  145.6609  136.3488  153.2470 C   0  0  0  0  0  0  0  0  0  0  0  0
  146.5352  135.6525  152.3845 O   0  0  0  0  0  0  0  0  0  0  0  0
  147.4406  137.7889  154.1013 O   0  0  0  0  0  0  0  0  0  0  0  0
  149.4993  140.5084  155.2174 C   0  0  0  0  0  0  0  0  0  0  0  0
  150.4082  140.4199  154.3883 O   0  0  0  0  0  0  0  0  0  0  0  0
  149.6399  141.3167  156.3677 N   0  0  0  0  0  0  0  0  0  0  0  0
  150.9066  142.0586  156.5591 C   0  0  0  0  0  0  0  0  0  0  0  0
  151.8188  141.4583  157.6518 C   0  0  0  0  0  0  0  0  0  0  0  0
  152.3790  140.3832  157.4345 O   0  0  0  0  0  0  0  0  0  0  0  0
  151.9612  142.1506  158.8093 N   0  0  0  0  0  0  0  0  0  0  0  0
  151.3039  143.4434  159.0696 C   0  0  0  0  0  0  0  0  0  0  0  0
  151.7308  143.8691  160.4913 C   0  0  0  0  0  0  0  0  0  0  0  0
  152.6211  142.7439  160.9293 C   0  0  0  0  0  0  0  0  0  0  0  0
  153.2815  142.6284  162.1643 C   0  0  0  0  0  0  0  0  0  0  0  0
  154.0842  141.4859  162.4073 C   0  0  0  0  0  0  0  0  0  0  0  0
  154.7901  141.3288  163.6945 N   0  3  0  0  0  0  0  0  0  0  0  0
  154.6912  142.2259  164.5255 O   0  0  0  0  0  0  0  0  0  0  0  0
  155.4460  140.3080  163.8766 O   0  5  0  0  0  0  0  0  0  0  0  0
  154.1985  140.4950  161.3962 C   0  0  0  0  0  0  0  0  0  0  0  0
  153.5282  140.6279  160.1605 C   0  0  0  0  0  0  0  0  0  0  0  0
  152.7330  141.7734  159.9405 C   0  0  0  0  0  0  0  0  0  0  0  0
  148.6052  141.4742  157.3222 C   0  0  0  0  0  0  0  0  0  0  0  0
  148.7598  142.2079  158.3006 O   0  0  0  0  0  0  0  0  0  0  0  0
  145.3673  140.2622  157.7800 H   0  0  0  0  0  0  0  0  0  0  0  0
  145.8971  141.9081  158.1197 H   0  0  0  0  0  0  0  0  0  0  0  0
  146.5479  140.5552  159.0542 H   0  0  0  0  0  0  0  0  0  0  0  0
  146.3377  139.4368  155.8008 H   0  0  0  0  0  0  0  0  0  0  0  0
  149.1369  138.6949  153.4683 H   0  0  0  0  0  0  0  0  0  0  0  0
  146.7607  140.5285  153.1942 H   0  0  0  0  0  0  0  0  0  0  0  0
  147.9667  140.1394  151.9549 H   0  0  0  0  0  0  0  0  0  0  0  0
  145.4175  139.0902  151.8839 H   0  0  0  0  0  0  0  0  0  0  0  0
  146.7217  137.0176  151.2606 H   0  0  0  0  0  0  0  0  0  0  0  0
  145.4734  138.3001  154.1416 H   0  0  0  0  0  0  0  0  0  0  0  0
  145.5612  135.8067  154.1875 H   0  0  0  0  0  0  0  0  0  0  0  0
  144.6725  136.3701  152.7878 H   0  0  0  0  0  0  0  0  0  0  0  0
  146.0232  135.0706  151.8434 H   0  0  0  0  0  0  0  0  0  0  0  0
  151.4642  142.1136  155.6234 H   0  0  0  0  0  0  0  0  0  0  0  0
  150.6960  143.1003  156.8054 H   0  0  0  0  0  0  0  0  0  0  0  0
  151.6178  144.1912  158.3401 H   0  0  0  0  0  0  0  0  0  0  0  0
  150.2189  143.3453  159.0150 H   0  0  0  0  0  0  0  0  0  0  0  0
  152.2799  144.8112  160.4863 H   0  0  0  0  0  0  0  0  0  0  0  0
  150.8754  143.9623  161.1613 H   0  0  0  0  0  0  0  0  0  0  0  0
  153.1687  143.4049  162.9064 H   0  0  0  0  0  0  0  0  0  0  0  0
  154.8051  139.6163  161.5593 H   0  0  0  0  0  0  0  0  0  0  0  0
  153.6413  139.8515  159.4205 H   0  0  0  0  0  0  0  0  0  0  0  0
  1  2  1  0  0  0  0
  1 33  1  0  0  0  0
  1 34  1  0  0  0  0
  1 35  1  0  0  0  0
  2 31  1  0  0  0  0
  2  3  2  0  0  0  0
  3  4  1  0  0  0  0
  3 36  1  0  0  0  0
  4  5  1  0  0  0  0
  4 13  1  0  0  0  0
  5 12  1  0  0  0  0
  5  6  1  0  0  0  0
  5 37  1  0  0  0  0
  6  7  1  0  0  0  0
  6 38  1  0  0  0  0
  6 39  1  0  0  0  0
  7  8  1  0  0  0  0
  7  9  1  0  0  0  0
  7 40  1  0  0  0  0
  8 41  1  0  0  0  0
  9 10  1  0  0  0  0
  9 12  1  0  0  0  0
  9 42  1  0  0  0  0
 10 11  1  0  0  0  0
 10 43  1  0  0  0  0
 10 44  1  0  0  0  0
 11 45  1  0  0  0  0
 13 14  2  0  0  0  0
 13 15  1  0  0  0  0
 15 16  1  0  0  0  0
 15 31  1  0  0  0  0
 16 17  1  0  0  0  0
 16 46  1  0  0  0  0
 16 47  1  0  0  0  0
 17 18  2  0  0  0  0
 17 19  1  0  0  0  0
 19 30  1  0  0  0  0
 19 20  1  0  0  0  0
 20 21  1  0  0  0  0
 20 48  1  0  0  0  0
 20 49  1  0  0  0  0
 21 22  1  0  0  0  0
 21 50  1  0  0  0  0
 21 51  1  0  0  0  0
 22 30  2  0  0  0  0
 22 23  1  0  0  0  0
 23 24  2  0  0  0  0
 23 52  1  0  0  0  0
 24 25  1  0  0  0  0
 24 28  1  0  0  0  0
 25 26  2  0  0  0  0
 25 27  1  0  0  0  0
 28 29  2  0  0  0  0
 28 53  1  0  0  0  0
 29 30  1  0  0  0  0
 29 54  1  0  0  0  0
 31 32  2  0  0  0  0
M  CHG  1  25   1
M  CHG  1  27  -1
M  END
> <s_m_source_file>
AV-unprocessed.smi

> <i_m_source_file_index>
112

> <i_lp_mmshare_version>
43012

> <i_f3d_flags>
0

> <s_epik_input>
W09IXVtDSDJdW0NAQEhdKE8xKVtDQEhdKFtPSF0pW0NIMl1bQ0BIXTFuKFtjSF1jMltDSDNdKWMoPU8pbihjMj1PKVtDSDJdQyg9TylOKFtDSDJdW0NIMl0zKWMoYzM0KVtjSF1bY0hdYyhbY0hdNClbTitdKD1PKVtPLV0=

> <s_epik_cmdline>
J2VwaWtfcHl0aG9uJywgJy1waCcsICc3LjAnLCAnLXRuJywgJzgnLCAnLW1hJywgJzIwMCcsICctbWV0YWxfYmluZGluZycsICctaW1hZScsICc8aW5maWxlLm1hZT4nLCAnLW9tYWUnLCAnPG91dGZpbGUubWFlPic=

> <r_lp_tautomer_probability>
1

> <r_epik_Ionization_Penalty>
2.5696e-07

> <r_epik_Ionization_Penalty_Charging>
1.04886e-08

> <r_epik_Ionization_Penalty_Neutral>
2.46472e-07

> <r_epik_State_Penalty>
-0

> <r_epik_Charging_Adjusted_Penalty>
1.04886e-08

> <i_epik_Tot_Q>
0

> <i_epik_Tot_abs_Q>
2

> <r_epik_Metal_State_Penalty>
-0

> <b_epik_Metal_Only>
0

> <s_epik_Chemistry_Notes>
This compound contains an acetal/aminal-like group ( X-CH(R)-Y where X, Y are N, S, or O) that may be acid/base labile, releasing an aldehyde.

> <s_lp_Force_Field>
OPLS_2005

> <r_lp_Energy>
59.5699

> <b_lp_Chiralities_Consistent>
1

> <s_lp_Variant>
AV-unprocessed.smi:112-1

> <Gold.Version>
5.8.1

> <Gold.Id.Protein>
6NUR|6NUR_protein|mol2

> <Gold.PLP.Fitness>
57.5229

> <Gold.PLP.PLP>
-50.7509

> <Gold.PLP.part.hbond>
-5.3017

> <Gold.PLP.part.metal>
0.0000

> <Gold.PLP.part.buried>
-1.7352

> <Gold.PLP.part.nonpolar>
-42.8424

> <Gold.PLP.part.repulsive>
0.3965

> <Gold.PLP.ligand.clash>
0.0000

> <Gold.PLP.ligand.torsion>
0.8515

> <Gold.PLP.Chemscore.Hbond>
2.8181

> <Gold.PLP.Chemscore.CHOScore>
0.0000

> <Gold.PLP.Chemscore.Metal>
0.0000

> <Gold.Chemscore.Hbonds>
donor molecule, donor type, donor heavy atom, donor atom, acceptor molecule, acceptor atom, score
      P1  H  7954  7966       L1     8  1.00
      P1  H  7989  7998       L1    14  1.00
      P1  H  7997  8010       L1    18  0.63

> <Gold.PLP.Chemscore.Internal.Correction>
0.0209

> <Gold.Rescore>
     Score         DG    S(hbond)    S(metal)    S(lipo)     H(rot)  DE(clash)    DE(int)     intcor
     14.11     -19.07       2.63        0.00     113.04       3.29       1.68       3.28       ----

> <Gold.Chemscore.Fitness>
14.1102

> <Gold.Chemscore.DG>
-19.0689

> <Gold.Chemscore.ZeroCoef>
-5.4800

> <Gold.Chemscore.Hbond>
2.6317

> <Gold.Chemscore.Metal>
0.0000

> <Gold.Chemscore.Lipo>
113.0393

> <Gold.Chemscore.Internal_Hbond>
0.0000

> <Gold.Chemscore.DEClash>
1.6803

> <Gold.Chemscore.DEInternal>
3.2785

> <Gold.Chemscore.Rot>
3.2916

> <Gold.Chemscore.Internal.Correction>
   9.000000E+99

> <Gold.Chemscore.Hbonds>
donor molecule, donor type, donor heavy atom, donor atom, acceptor molecule, acceptor atom, score
      P1  H  7954  7966       L1     8  0.35
      P1  H  7989  7998       L1    14  0.92
      P1  H  7997  8010       L1    18  0.61

> <Gold.Chemscore.Hbond.Weighted>
-8.7898

> <Gold.Chemscore.Metal.Weighted>
-0.0000

> <Gold.Chemscore.Lipo.Weighted>
-13.2256

> <Gold.Chemscore.Internal_Hbond.Weighted>
0.0000

> <Gold.Chemscore.DEClash.Weighted>
1.6803

> <Gold.Chemscore.DEInternal.Weighted>
3.2785

> <Gold.Chemscore.Rot.Weighted>
8.4265

> <Gold.Chemscore.Internal.Correction.Weighted>
   9.000000E+99

> <Gold.Protein.RotatedTorsions>
[ 6907 6896 6895 6894 ] final   -5.07 input  -60.11 | X-H torsion
[ 7974 7965 7964 7962 ] final   11.38 input  175.53 | X-H torsion
[ 8008 7997 7996 7995 ] final   58.40 input   59.86 | X-H torsion
[ 10167 10162 10161 10158 ] final -160.32 input  -65.29 | X-H torsion
[ 10718 10713 10712 10709 ] final -162.25 input   66.30 | X-H torsion
[ 10763 10752 10751 10750 ] final  -70.69 input  -60.55 | X-H torsion
[ 11005 11000 10999 10996 ] final -173.23 input  -57.11 | X-H torsion

> <Gold.Protein.ActiveResidues>
 VAL166  LYS551  ARG553  GLY616  TRP617  ASP618  TYR619  PRO620  LYS621  CYS622 
 ASP623  PHE694  ASN695  SER759  ASP760  ASP761  ALA762  ILE779  LEU786  VAL792 
 PHE793  MET794  SER795  GLU796  ALA797  LYS798  CYS799  TRP800  GLU811  SER814 

> <Gold.Protein.RotatedAtoms>
  151.4875  135.1055  159.9794 H   0  0  0  0  0  0  0  0  0  0  0  0  # atno 6907 bound_to 6896
  152.4754  133.8123  159.7020 H   0  0  0  0  0  0  0  0  0  0  0  0  # atno 6908 bound_to 6896
  150.8789  133.7337  159.2964 H   0  0  0  0  0  0  0  0  0  0  0  0  # atno 6909 bound_to 6896
  146.2372  139.9494  142.8472 H   0  0  0  0  0  0  0  0  0  0  0  0  # atno 7974 bound_to 7965
  155.5494  140.3486  155.4465 H   0  0  0  0  0  0  0  0  0  0  0  0  # atno 8008 bound_to 7997
  156.0594  140.1336  156.9984 H   0  0  0  0  0  0  0  0  0  0  0  0  # atno 8009 bound_to 7997
  154.4472  140.0988  156.6480 H   0  0  0  0  0  0  0  0  0  0  0  0  # atno 8010 bound_to 7997
  139.6548  144.0019  152.2186 H   0  0  0  0  0  0  0  0  0  0  0  0  # atno 10167 bound_to 10162
  156.6077  130.8837  151.2929 H   0  0  0  0  0  0  0  0  0  0  0  0  # atno 10718 bound_to 10713
  154.4212  135.5986  153.6011 H   0  0  0  0  0  0  0  0  0  0  0  0  # atno 10763 bound_to 10752
  152.9794  135.5953  154.3952 H   0  0  0  0  0  0  0  0  0  0  0  0  # atno 10764 bound_to 10752
  154.3778  135.2841  155.2207 H   0  0  0  0  0  0  0  0  0  0  0  0  # atno 10765 bound_to 10752
  140.4881  134.6011  157.4944 H   0  0  0  0  0  0  0  0  0  0  0  0  # atno 11005 bound_to 11000
  145.1876  140.9796  143.4230 LP  0  0  0  0  0  0  0  0  0  0  0  0  # atno 17320 bound_to 7965
  144.9886  139.3712  143.6226 LP  0  0  0  0  0  0  0  0  0  0  0  0  # atno 17321 bound_to 7965
  139.9742  144.6473  150.7960 LP  0  0  0  0  0  0  0  0  0  0  0  0  # atno 17342 bound_to 10162
  140.7554  143.3046  151.2995 LP  0  0  0  0  0  0  0  0  0  0  0  0  # atno 17343 bound_to 10162
  157.7262  130.9627  150.1649 LP  0  0  0  0  0  0  0  0  0  0  0  0  # atno 17370 bound_to 10713
  156.2416  130.3691  149.8331 LP  0  0  0  0  0  0  0  0  0  0  0  0  # atno 17371 bound_to 10713
  139.9786  134.7175  155.9903 LP  0  0  0  0  0  0  0  0  0  0  0  0  # atno 17394 bound_to 11000
  141.1498  133.6550  156.3977 LP  0  0  0  0  0  0  0  0  0  0  0  0  # atno 17395 bound_to 11000

$$$$
