AV-unprocessed.smi:3228|AV-procd|sdf|12326|dock2
  -GOLD-   2272018173D 1   1.00000     0.00000
 Structure written by MMmdl.
 30 31  0  0  0  0  0  0  0  0  2 V2000
  149.3125  135.9747  159.0022 O   0  0  0  0  0  0  0  0  0  0  0  0
  148.7514  137.0251  159.3231 C   0  0  0  0  0  0  0  0  0  0  0  0
  148.9091  138.1217  158.5703 N   0  0  0  0  0  0  0  0  0  0  0  0
  149.7155  138.2010  157.3584 C   0  0  0  0  0  0  0  0  0  0  0  0
  148.8548  138.6042  156.1480 C   0  0  1  0  0  0  0  0  0  0  0  0
  148.1678  139.9699  156.2960 C   0  0  0  0  0  0  0  0  0  0  0  0
  147.9475  140.4973  154.8697 C   0  0  0  0  0  0  0  0  0  0  0  0
  148.7164  139.5545  153.9342 C   0  0  0  0  0  0  0  0  0  0  0  0
  149.6459  138.7486  154.8446 C   0  0  2  0  0  0  0  0  0  0  0  0
  149.9721  137.4988  154.2724 O   0  0  0  0  0  0  0  0  0  0  0  0
  147.9536  137.2131  160.3991 N   0  5  0  0  0  0  0  0  0  0  0  0
  147.5238  136.1575  161.1090 C   0  0  0  0  0  0  0  0  0  0  0  0
  147.2669  134.9648  160.5596 N   0  0  0  0  0  0  0  0  0  0  0  0
  146.8383  134.0090  161.4824 C   0  0  0  0  0  0  0  0  0  0  0  0
  146.7760  134.4825  162.7661 C   0  0  0  0  0  0  0  0  0  0  0  0
  147.2559  136.1533  162.8546 S   0  0  0  0  0  0  0  0  0  0  0  0
  148.4357  138.9631  158.8648 H   0  0  0  0  0  0  0  0  0  0  0  0
  150.5218  138.9211  157.5071 H   0  0  0  0  0  0  0  0  0  0  0  0
  150.1822  137.2319  157.1753 H   0  0  0  0  0  0  0  0  0  0  0  0
  148.0775  137.8521  155.9980 H   0  0  0  0  0  0  0  0  0  0  0  0
  147.2355  139.8993  156.8575 H   0  0  0  0  0  0  0  0  0  0  0  0
  148.8187  140.6593  156.8360 H   0  0  0  0  0  0  0  0  0  0  0  0
  146.8880  140.5130  154.6125 H   0  0  0  0  0  0  0  0  0  0  0  0
  148.3183  141.5194  154.7844 H   0  0  0  0  0  0  0  0  0  0  0  0
  148.0065  138.8891  153.4402 H   0  0  0  0  0  0  0  0  0  0  0  0
  149.2605  140.0893  153.1551 H   0  0  0  0  0  0  0  0  0  0  0  0
  150.5621  139.3136  155.0232 H   0  0  0  0  0  0  0  0  0  0  0  0
  149.5031  137.4115  153.4567 H   0  0  0  0  0  0  0  0  0  0  0  0
  146.5999  133.0139  161.1373 H   0  0  0  0  0  0  0  0  0  0  0  0
  146.4800  133.9548  163.6600 H   0  0  0  0  0  0  0  0  0  0  0  0
  1  2  2  0  0  0  0
  2  3  1  0  0  0  0
  2 11  1  0  0  0  0
  3  4  1  0  0  0  0
  3 17  1  0  0  0  0
  4  5  1  0  0  0  0
  4 18  1  0  0  0  0
  4 19  1  0  0  0  0
  5  9  1  0  0  0  0
  5  6  1  0  0  0  0
  5 20  1  0  0  0  0
  6  7  1  0  0  0  0
  6 21  1  0  0  0  0
  6 22  1  0  0  0  0
  7  8  1  0  0  0  0
  7 23  1  0  0  0  0
  7 24  1  0  0  0  0
  8  9  1  0  0  0  0
  8 25  1  0  0  0  0
  8 26  1  0  0  0  0
  9 10  1  0  0  0  0
  9 27  1  0  0  0  0
 10 28  1  0  0  0  0
 11 12  1  0  0  0  0
 12 16  1  0  0  0  0
 12 13  2  0  0  0  0
 13 14  1  0  0  0  0
 14 15  2  0  0  0  0
 14 29  1  0  0  0  0
 15 16  1  0  0  0  0
 15 30  1  0  0  0  0
M  CHG  1  11  -1
M  END
> <s_m_source_file>
AV-unprocessed.smi

> <i_m_source_file_index>
3228

> <i_lp_mmshare_version>
43012

> <i_f3d_flags>
0

> <s_epik_input>
czFbY0hdW2NIXW5jMVtOSF1DKD1PKVtOSF1bQ0gyXVtDQEBIXTJbQ0gyXVtDSDJdW0NIMl1bQ0BIXTJbT0hd

> <s_epik_cmdline>
J2VwaWtfcHl0aG9uJywgJy1waCcsICc3LjAnLCAnLXRuJywgJzgnLCAnLW1hJywgJzIwMCcsICctbWV0YWxfYmluZGluZycsICctaW1hZScsICc8aW5maWxlLm1hZT4nLCAnLW9tYWUnLCAnPG91dGZpbGUubWFlPic=

> <r_lp_tautomer_probability>
0.999

> <r_epik_Ionization_Penalty>
8.49756

> <r_epik_Ionization_Penalty_Charging>
6.79645

> <r_epik_Ionization_Penalty_Neutral>
1.70111

> <r_epik_State_Penalty>
6.79662

> <r_epik_Charging_Adjusted_Penalty>
13.5931

> <i_epik_Tot_Q>
-1

> <i_epik_Tot_abs_Q>
1

> <r_epik_Metal_State_Penalty>
2.71629

> <b_epik_Metal_Only>
1

> <s_lp_Force_Field>
OPLS_2005

> <r_lp_Energy>
17.8369

> <b_lp_Chiralities_Consistent>
1

> <s_lp_Variant>
AV-unprocessed.smi:3228-8

> <Gold.Version>
5.8.1

> <Gold.Id.Protein>
6NUR|6NUR_protein|mol2

> <Gold.PLP.Fitness>
38.9462

> <Gold.PLP.PLP>
-24.8638

> <Gold.PLP.part.hbond>
-4.0000

> <Gold.PLP.part.metal>
0.0000

> <Gold.PLP.part.buried>
-2.1587

> <Gold.PLP.part.nonpolar>
-20.1477

> <Gold.PLP.part.repulsive>
0.1838

> <Gold.PLP.ligand.clash>
0.0000

> <Gold.PLP.ligand.torsion>
0.2576

> <Gold.PLP.Chemscore.Hbond>
4.8526

> <Gold.PLP.Chemscore.CHOScore>
0.0000

> <Gold.PLP.Chemscore.Metal>
0.0000

> <Gold.Chemscore.Hbonds>
donor molecule, donor type, donor heavy atom, donor atom, acceptor molecule, acceptor atom, score
      L1  H    10    28       P1  7948  0.96
      P1  H  6896  6908       L1     1  1.00
      P1  H  6931  6943       L1    11  1.12
      P1  H  6934  6947       L1    11  1.57

> <Gold.PLP.Chemscore.Internal.Correction>
0.0398

> <Gold.Rescore>
     Score         DG    S(hbond)    S(metal)    S(lipo)     H(rot)  DE(clash)    DE(int)     intcor
     13.99     -15.71       2.86        0.00      46.27       1.85       0.04       1.68       ----

> <Gold.Chemscore.Fitness>
13.9879

> <Gold.Chemscore.DG>
-15.7102

> <Gold.Chemscore.ZeroCoef>
-5.4800

> <Gold.Chemscore.Hbond>
2.8587

> <Gold.Chemscore.Metal>
0.0000

> <Gold.Chemscore.Lipo>
46.2677

> <Gold.Chemscore.Internal_Hbond>
0.0000

> <Gold.Chemscore.DEClash>
0.0431

> <Gold.Chemscore.DEInternal>
1.6791

> <Gold.Chemscore.Rot>
1.8481

> <Gold.Chemscore.Internal.Correction>
   9.000000E+99

> <Gold.Chemscore.Hbonds>
donor molecule, donor type, donor heavy atom, donor atom, acceptor molecule, acceptor atom, score
      L1  H    10    28       P1  7948  0.78
      P1  H  6896  6908       L1     1  0.97
      P1  H  6931  6943       L1    11  0.12
      P1  H  6934  6947       L1    11  0.68

> <Gold.Chemscore.Hbond.Weighted>
-9.5481

> <Gold.Chemscore.Metal.Weighted>
-0.0000

> <Gold.Chemscore.Lipo.Weighted>
-5.4133

> <Gold.Chemscore.Internal_Hbond.Weighted>
0.0000

> <Gold.Chemscore.DEClash.Weighted>
0.0431

> <Gold.Chemscore.DEInternal.Weighted>
1.6791

> <Gold.Chemscore.Rot.Weighted>
4.7313

> <Gold.Chemscore.Internal.Correction.Weighted>
   9.000000E+99

> <Gold.Protein.RotatedTorsions>
[ 6907 6896 6895 6894 ] final  176.22 input  -60.11 | X-H torsion
[ 7974 7965 7964 7962 ] final    5.46 input  175.53 | X-H torsion
[ 8008 7997 7996 7995 ] final   82.98 input   59.86 | X-H torsion
[ 10167 10162 10161 10158 ] final  -54.53 input  -65.29 | X-H torsion
[ 10718 10713 10712 10709 ] final    0.42 input   66.30 | X-H torsion
[ 10763 10752 10751 10750 ] final  167.05 input  -60.55 | X-H torsion
[ 11005 11000 10999 10996 ] final   33.24 input  -57.11 | X-H torsion

> <Gold.Protein.ActiveResidues>
 VAL166  LYS551  ARG553  GLY616  TRP617  ASP618  TYR619  PRO620  LYS621  CYS622 
 ASP623  PHE694  ASN695  SER759  ASP760  ASP761  ALA762  ILE779  LEU786  VAL792 
 PHE793  MET794  SER795  GLU796  ALA797  LYS798  CYS799  TRP800  GLU811  SER814 

> <Gold.Protein.RotatedAtoms>
  151.7237  133.3315  159.3321 H   0  0  0  0  0  0  0  0  0  0  0  0  # atno 6907 bound_to 6896
  150.7642  134.6425  159.6254 H   0  0  0  0  0  0  0  0  0  0  0  0  # atno 6908 bound_to 6896
  152.3636  134.6839  160.0251 H   0  0  0  0  0  0  0  0  0  0  0  0  # atno 6909 bound_to 6896
  146.2440  140.0381  142.8384 H   0  0  0  0  0  0  0  0  0  0  0  0  # atno 7974 bound_to 7965
  155.9179  140.3423  155.6149 H   0  0  0  0  0  0  0  0  0  0  0  0  # atno 8008 bound_to 7997
  155.7309  140.0795  157.2308 H   0  0  0  0  0  0  0  0  0  0  0  0  # atno 8009 bound_to 7997
  154.4065  140.1588  156.2495 H   0  0  0  0  0  0  0  0  0  0  0  0  # atno 8010 bound_to 7997
  140.6425  143.2516  151.4950 H   0  0  0  0  0  0  0  0  0  0  0  0  # atno 10167 bound_to 10162
  156.8331  130.5495  149.5685 H   0  0  0  0  0  0  0  0  0  0  0  0  # atno 10718 bound_to 10713
  154.3480  135.2753  155.2387 H   0  0  0  0  0  0  0  0  0  0  0  0  # atno 10763 bound_to 10752
  154.4629  135.5902  153.6271 H   0  0  0  0  0  0  0  0  0  0  0  0  # atno 10764 bound_to 10752
  152.9852  135.6069  154.3688 H   0  0  0  0  0  0  0  0  0  0  0  0  # atno 10765 bound_to 10752
  140.2652  134.3146  155.7845 H   0  0  0  0  0  0  0  0  0  0  0  0  # atno 11005 bound_to 11000
  145.1094  140.9396  143.4665 LP  0  0  0  0  0  0  0  0  0  0  0  0  # atno 17320 bound_to 7965
  145.0591  139.3119  143.5889 LP  0  0  0  0  0  0  0  0  0  0  0  0  # atno 17321 bound_to 7965
  139.5634  144.2100  152.1728 LP  0  0  0  0  0  0  0  0  0  0  0  0  # atno 17342 bound_to 10162
  140.1375  144.5233  150.6764 LP  0  0  0  0  0  0  0  0  0  0  0  0  # atno 17343 bound_to 10162
  156.0923  130.5905  150.9753 LP  0  0  0  0  0  0  0  0  0  0  0  0  # atno 17370 bound_to 10713
  157.6396  131.0912  150.8279 LP  0  0  0  0  0  0  0  0  0  0  0  0  # atno 17371 bound_to 10713
  141.2185  133.7433  156.9248 LP  0  0  0  0  0  0  0  0  0  0  0  0  # atno 17394 bound_to 11000
  140.1426  134.9283  157.2487 LP  0  0  0  0  0  0  0  0  0  0  0  0  # atno 17395 bound_to 11000

$$$$
