AV-unprocessed.smi:1952|AV-procd|sdf|7889|dock8
  -GOLD-   2272010 43D 1   1.00000     0.00000
 Structure written by MMmdl.
 39 40  0  0  0  0  0  0  0  0  3 V2000
  153.8956  141.0634  159.9807 C   0  0  0  0  0  0  0  0  0  0  0  0
  152.8416  141.1398  158.9300 C   0  0  0  0  0  0  0  0  0  0  0  0
  151.8641  142.0545  158.6579 C   0  0  0  0  0  0  0  0  0  0  0  0
  151.2208  141.5107  157.5133 C   0  0  0  0  0  0  0  0  0  0  0  0
  150.1753  142.0494  156.8670 N   0  5  0  0  0  0  0  0  0  0  0  0
  149.6692  141.4414  155.7713 C   0  0  0  0  0  0  0  0  0  0  0  0
  150.2062  140.5399  155.1238 O   0  0  0  0  0  0  0  0  0  0  0  0
  148.4504  141.8832  155.4252 N   0  0  0  0  0  0  0  0  0  0  0  0
  147.5996  141.3578  154.3555 C   0  0  2  0  0  0  0  0  0  0  0  0
  146.7853  142.5065  153.7456 C   0  0  0  0  0  0  0  0  0  0  0  0
  146.6820  140.2338  154.8885 C   0  0  0  0  0  0  0  0  0  0  0  0
  146.1331  139.3824  153.8036 N   0  3  0  0  0  0  0  0  0  0  0  0
  147.1372  138.9974  152.7858 C   0  0  0  0  0  0  0  0  0  0  0  0
  146.4572  138.2156  151.6488 C   0  0  0  0  0  0  0  0  0  0  0  0
  145.7915  137.0762  152.1819 O   0  0  0  0  0  0  0  0  0  0  0  0
  144.7750  137.4368  153.1106 C   0  0  0  0  0  0  0  0  0  0  0  0
  145.4058  138.1878  154.2943 C   0  0  0  0  0  0  0  0  0  0  0  0
  151.7512  140.3600  157.1325 N   0  0  0  0  0  0  0  0  0  0  0  0
  152.7963  140.1189  158.0324 O   0  0  0  0  0  0  0  0  0  0  0  0
  153.8975  140.0832  160.4573 H   0  0  0  0  0  0  0  0  0  0  0  0
  153.7299  141.8143  160.7532 H   0  0  0  0  0  0  0  0  0  0  0  0
  154.8825  141.2329  159.5500 H   0  0  0  0  0  0  0  0  0  0  0  0
  151.6448  142.9679  159.1903 H   0  0  0  0  0  0  0  0  0  0  0  0
  148.0635  142.6314  155.9821 H   0  0  0  0  0  0  0  0  0  0  0  0
  148.2258  140.9562  153.5577 H   0  0  0  0  0  0  0  0  0  0  0  0
  146.1599  142.1518  152.9260 H   0  0  0  0  0  0  0  0  0  0  0  0
  147.4396  143.2829  153.3475 H   0  0  0  0  0  0  0  0  0  0  0  0
  146.1324  142.9698  154.4863 H   0  0  0  0  0  0  0  0  0  0  0  0
  147.2713  139.6106  155.5630 H   0  0  0  0  0  0  0  0  0  0  0  0
  145.8684  140.6445  155.4883 H   0  0  0  0  0  0  0  0  0  0  0  0
  147.6152  139.8894  152.3790 H   0  0  0  0  0  0  0  0  0  0  0  0
  147.9186  138.3928  153.2487 H   0  0  0  0  0  0  0  0  0  0  0  0
  145.7472  138.8479  151.1127 H   0  0  0  0  0  0  0  0  0  0  0  0
  147.2000  137.8843  150.9230 H   0  0  0  0  0  0  0  0  0  0  0  0
  144.0158  138.0490  152.6207 H   0  0  0  0  0  0  0  0  0  0  0  0
  144.2784  136.5319  153.4608 H   0  0  0  0  0  0  0  0  0  0  0  0
  146.0929  137.5327  154.8319 H   0  0  0  0  0  0  0  0  0  0  0  0
  144.6269  138.4800  154.9981 H   0  0  0  0  0  0  0  0  0  0  0  0
  145.4559  139.9574  153.3207 H   0  0  0  0  0  0  0  0  0  0  0  0
  1  2  1  0  0  0  0
  1 20  1  0  0  0  0
  1 21  1  0  0  0  0
  1 22  1  0  0  0  0
  2 19  1  0  0  0  0
  2  3  2  0  0  0  0
  3  4  1  0  0  0  0
  3 23  1  0  0  0  0
  4  5  1  0  0  0  0
  4 18  2  0  0  0  0
  5  6  1  0  0  0  0
  6  7  2  0  0  0  0
  6  8  1  0  0  0  0
  8  9  1  0  0  0  0
  8 24  1  0  0  0  0
  9 10  1  0  0  0  0
  9 11  1  0  0  0  0
  9 25  1  0  0  0  0
 10 26  1  0  0  0  0
 10 27  1  0  0  0  0
 10 28  1  0  0  0  0
 11 12  1  0  0  0  0
 11 29  1  0  0  0  0
 11 30  1  0  0  0  0
 12 17  1  0  0  0  0
 12 13  1  0  0  0  0
 12 39  1  0  0  0  0
 13 14  1  0  0  0  0
 13 31  1  0  0  0  0
 13 32  1  0  0  0  0
 14 15  1  0  0  0  0
 14 33  1  0  0  0  0
 14 34  1  0  0  0  0
 15 16  1  0  0  0  0
 16 17  1  0  0  0  0
 16 35  1  0  0  0  0
 16 36  1  0  0  0  0
 17 37  1  0  0  0  0
 17 38  1  0  0  0  0
 18 19  1  0  0  0  0
M  CHG  1   5  -1
M  CHG  1  12   1
M  END
> <s_m_source_file>
AV-unprocessed.smi

> <i_m_source_file_index>
1952

> <i_lp_mmshare_version>
43012

> <i_f3d_flags>
0

> <s_epik_input>
W0NIM11jMVtjSF1jKG5vMSlbTkhdQyg9TylbTkhdW0NASF0oW0NIM10pW0NIMl1OMltDSDJdW0NIMl1PW0NIMl1bQ0gyXTI=

> <s_epik_cmdline>
J2VwaWtfcHl0aG9uJywgJy1waCcsICc3LjAnLCAnLXRuJywgJzgnLCAnLW1hJywgJzIwMCcsICctbWV0YWxfYmluZGluZycsICctaW1hZScsICc8aW5maWxlLm1hZT4nLCAnLW9tYWUnLCAnPG91dGZpbGUubWFlPic=

> <r_epik_Ionization_Penalty>
6.62152

> <r_epik_Ionization_Penalty_Charging>
6.62142

> <r_epik_Ionization_Penalty_Neutral>
9.8734e-05

> <r_epik_State_Penalty>
6.82189

> <r_epik_Charging_Adjusted_Penalty>
13.4433

> <i_epik_Tot_Q>
0

> <i_epik_Tot_abs_Q>
2

> <r_epik_Metal_State_Penalty>
2.76365

> <b_epik_Metal_Only>
1

> <s_lp_Force_Field>
OPLS_2005

> <r_lp_Energy>
7.85486

> <b_lp_Chiralities_Consistent>
1

> <s_lp_Variant>
AV-unprocessed.smi:1952-7

> <Gold.Version>
5.8.1

> <Gold.Id.Protein>
6NUR|6NUR_protein|mol2

> <Gold.PLP.Fitness>
39.7552

> <Gold.PLP.PLP>
-29.6914

> <Gold.PLP.part.hbond>
-4.0000

> <Gold.PLP.part.metal>
0.0000

> <Gold.PLP.part.buried>
-1.9758

> <Gold.PLP.part.nonpolar>
-24.4995

> <Gold.PLP.part.repulsive>
0.5780

> <Gold.PLP.ligand.clash>
0.0000

> <Gold.PLP.ligand.torsion>
0.6440

> <Gold.PLP.Chemscore.Hbond>
3.7602

> <Gold.PLP.Chemscore.CHOScore>
0.0000

> <Gold.PLP.Chemscore.Metal>
0.0000

> <Gold.Chemscore.Hbonds>
donor molecule, donor type, donor heavy atom, donor atom, acceptor molecule, acceptor atom, score
      L1  H     8    24       P1  8028  0.17
      L1  H    12    39       P1 10175  1.98
      P1  H  7989  7998       L1     7  0.58
      P1  H  7997  8010       L1    19  0.98

> <Gold.PLP.Chemscore.Internal.Correction>
0.0712

> <Gold.Rescore>
     Score         DG    S(hbond)    S(metal)    S(lipo)     H(rot)  DE(clash)    DE(int)     intcor
     14.86     -17.39       2.40        0.00      67.76       1.58       0.23       2.31       ----

> <Gold.Chemscore.Fitness>
14.8564

> <Gold.Chemscore.DG>
-17.3944

> <Gold.Chemscore.ZeroCoef>
-5.4800

> <Gold.Chemscore.Hbond>
2.4046

> <Gold.Chemscore.Metal>
0.0000

> <Gold.Chemscore.Lipo>
67.7552

> <Gold.Chemscore.Internal_Hbond>
0.0000

> <Gold.Chemscore.DEClash>
0.2276

> <Gold.Chemscore.DEInternal>
2.3104

> <Gold.Chemscore.Rot>
1.5798

> <Gold.Chemscore.Internal.Correction>
   9.000000E+99

> <Gold.Chemscore.Hbonds>
donor molecule, donor type, donor heavy atom, donor atom, acceptor molecule, acceptor atom, score
      L1  H     8    24       P1  8028  0.14
      L1  H    12    39       P1 10175  0.92
      P1  H  7989  7998       L1     7  0.57
      P1  H  7997  8010       L1    19  0.32

> <Gold.Chemscore.Hbond.Weighted>
-8.0313

> <Gold.Chemscore.Metal.Weighted>
-0.0000

> <Gold.Chemscore.Lipo.Weighted>
-7.9274

> <Gold.Chemscore.Internal_Hbond.Weighted>
0.0000

> <Gold.Chemscore.DEClash.Weighted>
0.2276

> <Gold.Chemscore.DEInternal.Weighted>
2.3104

> <Gold.Chemscore.Rot.Weighted>
4.0442

> <Gold.Chemscore.Internal.Correction.Weighted>
   9.000000E+99

> <Gold.Protein.RotatedTorsions>
[ 6907 6896 6895 6894 ] final   -0.07 input  -60.11 | X-H torsion
[ 7974 7965 7964 7962 ] final   90.53 input  175.53 | X-H torsion
[ 8008 7997 7996 7995 ] final   46.90 input   59.86 | X-H torsion
[ 10167 10162 10161 10158 ] final  -47.85 input  -65.29 | X-H torsion
[ 10718 10713 10712 10709 ] final  152.99 input   66.30 | X-H torsion
[ 10763 10752 10751 10750 ] final -141.61 input  -60.55 | X-H torsion
[ 11005 11000 10999 10996 ] final -138.63 input  -57.11 | X-H torsion

> <Gold.Protein.ActiveResidues>
 VAL166  LYS551  ARG553  GLY616  TRP617  ASP618  TYR619  PRO620  LYS621  CYS622 
 ASP623  PHE694  ASN695  SER759  ASP760  ASP761  ALA762  ILE779  LEU786  VAL792 
 PHE793  MET794  SER795  GLU796  ALA797  LYS798  CYS799  TRP800  GLU811  SER814 

> <Gold.Protein.RotatedAtoms>
  151.5681  135.1063  159.9988 H   0  0  0  0  0  0  0  0  0  0  0  0  # atno 6907 bound_to 6896
  152.4414  133.7451  159.6673 H   0  0  0  0  0  0  0  0  0  0  0  0  # atno 6908 bound_to 6896
  150.8320  133.8006  159.3118 H   0  0  0  0  0  0  0  0  0  0  0  0  # atno 6909 bound_to 6896
  145.5178  139.2278  143.2689 H   0  0  0  0  0  0  0  0  0  0  0  0  # atno 7974 bound_to 7965
  155.3601  140.3418  155.4240 H   0  0  0  0  0  0  0  0  0  0  0  0  # atno 8008 bound_to 7997
  156.1718  140.1634  156.8468 H   0  0  0  0  0  0  0  0  0  0  0  0  # atno 8009 bound_to 7997
  154.5241  140.0760  156.8208 H   0  0  0  0  0  0  0  0  0  0  0  0  # atno 8010 bound_to 7997
  140.6757  143.2766  151.3987 H   0  0  0  0  0  0  0  0  0  0  0  0  # atno 10167 bound_to 10162
  157.2506  131.0778  151.1732 H   0  0  0  0  0  0  0  0  0  0  0  0  # atno 10718 bound_to 10713
  154.8539  135.3519  154.5896 H   0  0  0  0  0  0  0  0  0  0  0  0  # atno 10763 bound_to 10752
  153.6506  135.6994  153.5215 H   0  0  0  0  0  0  0  0  0  0  0  0  # atno 10764 bound_to 10752
  153.2897  135.4238  155.1113 H   0  0  0  0  0  0  0  0  0  0  0  0  # atno 10765 bound_to 10752
  140.8597  134.2184  157.4714 H   0  0  0  0  0  0  0  0  0  0  0  0  # atno 11005 bound_to 11000
  146.2126  140.5988  142.9053 LP  0  0  0  0  0  0  0  0  0  0  0  0  # atno 17320 bound_to 7965
  144.7692  140.5600  143.6681 LP  0  0  0  0  0  0  0  0  0  0  0  0  # atno 17321 bound_to 7965
  139.6048  144.1220  152.2237 LP  0  0  0  0  0  0  0  0  0  0  0  0  # atno 17342 bound_to 10162
  140.0616  144.5852  150.7259 LP  0  0  0  0  0  0  0  0  0  0  0  0  # atno 17343 bound_to 10162
  157.3282  130.6971  149.6308 LP  0  0  0  0  0  0  0  0  0  0  0  0  # atno 17370 bound_to 10713
  155.9666  130.4315  150.4924 LP  0  0  0  0  0  0  0  0  0  0  0  0  # atno 17371 bound_to 10713
  139.8706  134.9723  156.4770 LP  0  0  0  0  0  0  0  0  0  0  0  0  # atno 17394 bound_to 11000
  140.8697  133.7998  155.9351 LP  0  0  0  0  0  0  0  0  0  0  0  0  # atno 17395 bound_to 11000

$$$$
