AV-unprocessed.smi:2376|AV-procd|sdf|9444|dock4
  -GOLD-   2272013 73D 1   1.00000     0.00000
 Structure written by MMmdl.
 28 29  0  0  0  0  0  0  0  0  1 V2000
  147.4223  138.7034  152.1570 N   0  0  0  0  0  0  0  0  0  0  0  0
  147.8622  139.5946  153.0560 C   0  0  0  0  0  0  0  0  0  0  0  0
  147.1213  140.7068  153.2757 N   0  0  0  0  0  0  0  0  0  0  0  0
  147.5400  141.6140  154.1650 C   0  0  0  0  0  0  0  0  0  0  0  0
  148.6420  141.5984  154.9208 N   0  0  0  0  0  0  0  0  0  0  0  0
  149.3821  140.4740  154.6959 C   0  0  0  0  0  0  0  0  0  0  0  0
  149.0666  139.4280  153.7851 C   0  0  0  0  0  0  0  0  0  0  0  0
  150.0498  138.4477  153.8201 N   0  0  0  0  0  0  0  0  0  0  0  0
  150.9026  138.8902  154.7046 C   0  0  0  0  0  0  0  0  0  0  0  0
  150.5794  140.1000  155.2793 N   0  0  0  0  0  0  0  0  0  0  0  0
  151.3451  140.8224  156.2774 C   0  0  0  0  0  0  0  0  0  0  0  0
  150.4468  141.7410  157.1139 C   0  0  0  0  0  0  0  0  0  0  0  0
  151.0040  143.0442  157.1282 O   0  0  0  0  0  0  0  0  0  0  0  0
  150.6877  143.7607  158.3116 C   0  0  0  0  0  0  0  0  0  0  0  0
  151.9782  144.2579  158.9740 C   0  0  0  0  0  0  0  0  0  0  0  0
  152.8027  144.7215  158.0356 F   0  0  0  0  0  0  0  0  0  0  0  0
  151.7076  145.2426  159.8303 F   0  0  0  0  0  0  0  0  0  0  0  0
  152.5810  143.2581  159.6169 F   0  0  0  0  0  0  0  0  0  0  0  0
  147.9584  137.8671  151.9749 H   0  0  0  0  0  0  0  0  0  0  0  0
  146.5588  138.8711  151.6616 H   0  0  0  0  0  0  0  0  0  0  0  0
  146.9005  142.4756  154.2891 H   0  0  0  0  0  0  0  0  0  0  0  0
  151.7984  138.3437  154.9614 H   0  0  0  0  0  0  0  0  0  0  0  0
  151.8551  140.1011  156.9174 H   0  0  0  0  0  0  0  0  0  0  0  0
  152.1203  141.4029  155.7753 H   0  0  0  0  0  0  0  0  0  0  0  0
  149.4418  141.7701  156.6894 H   0  0  0  0  0  0  0  0  0  0  0  0
  150.3640  141.3586  158.1327 H   0  0  0  0  0  0  0  0  0  0  0  0
  150.0437  144.6089  158.0738 H   0  0  0  0  0  0  0  0  0  0  0  0
  150.1396  143.1172  159.0018 H   0  0  0  0  0  0  0  0  0  0  0  0
  1  2  1  0  0  0  0
  1 19  1  0  0  0  0
  1 20  1  0  0  0  0
  2  7  1  0  0  0  0
  2  3  2  0  0  0  0
  3  4  1  0  0  0  0
  4  5  2  0  0  0  0
  4 21  1  0  0  0  0
  5  6  1  0  0  0  0
  6 10  1  0  0  0  0
  6  7  2  0  0  0  0
  7  8  1  0  0  0  0
  8  9  2  0  0  0  0
  9 10  1  0  0  0  0
  9 22  1  0  0  0  0
 10 11  1  0  0  0  0
 11 12  1  0  0  0  0
 11 23  1  0  0  0  0
 11 24  1  0  0  0  0
 12 13  1  0  0  0  0
 12 25  1  0  0  0  0
 12 26  1  0  0  0  0
 13 14  1  0  0  0  0
 14 15  1  0  0  0  0
 14 27  1  0  0  0  0
 14 28  1  0  0  0  0
 15 16  1  0  0  0  0
 15 17  1  0  0  0  0
 15 18  1  0  0  0  0
M  END
> <s_m_source_file>
AV-unprocessed.smi

> <i_m_source_file_index>
2376

> <i_lp_mmshare_version>
43012

> <i_f3d_flags>
0

> <s_epik_input>
bjFbY0hdbmMoW05IMl0pYyhjMTIpbltjSF1uMltDSDJdW0NIMl1PW0NIMl1DKEYpKEYpRg==

> <s_epik_cmdline>
J2VwaWtfcHl0aG9uJywgJy1waCcsICc3LjAnLCAnLXRuJywgJzgnLCAnLW1hJywgJzIwMCcsICctbWV0YWxfYmluZGluZycsICctaW1hZScsICc8aW5maWxlLm1hZT4nLCAnLW9tYWUnLCAnPG91dGZpbGUubWFlPic=

> <r_lp_tautomer_probability>
1

> <r_epik_Ionization_Penalty>
0.000856314

> <r_epik_Ionization_Penalty_Charging>
0

> <r_epik_Ionization_Penalty_Neutral>
0.000856314

> <r_epik_State_Penalty>
-0

> <r_epik_Charging_Adjusted_Penalty>
0

> <i_epik_Tot_Q>
0

> <i_epik_Tot_abs_Q>
0

> <r_epik_Metal_State_Penalty>
-0

> <b_epik_Metal_Only>
0

> <s_lp_Force_Field>
OPLS_2005

> <r_lp_Energy>
6.06006

> <b_lp_Chiralities_Consistent>
1

> <s_lp_Variant>
AV-unprocessed.smi:2376-1

> <Gold.Version>
5.8.1

> <Gold.Id.Protein>
6NUR|6NUR_protein|mol2

> <Gold.PLP.Fitness>
40.7775

> <Gold.PLP.PLP>
-40.7320

> <Gold.PLP.part.hbond>
-2.0000

> <Gold.PLP.part.metal>
0.0000

> <Gold.PLP.part.buried>
-0.5814

> <Gold.PLP.part.nonpolar>
-40.0770

> <Gold.PLP.part.repulsive>
1.3359

> <Gold.PLP.ligand.clash>
0.0000

> <Gold.PLP.ligand.torsion>
1.4862

> <Gold.PLP.Chemscore.Hbond>
1.0000

> <Gold.PLP.Chemscore.CHOScore>
0.0000

> <Gold.PLP.Chemscore.Metal>
0.0000

> <Gold.Chemscore.Hbonds>
donor molecule, donor type, donor heavy atom, donor atom, acceptor molecule, acceptor atom, score
      L1  H     1    19       P1  7948  1.00

> <Gold.PLP.Chemscore.Internal.Correction>
0.0180

> <Gold.Rescore>
     Score         DG    S(hbond)    S(metal)    S(lipo)     H(rot)  DE(clash)    DE(int)     intcor
      3.94      -6.69       1.00        0.00      41.40       2.72       0.07       2.69       ----

> <Gold.Chemscore.Fitness>
3.9384

> <Gold.Chemscore.DG>
-6.6946

> <Gold.Chemscore.ZeroCoef>
-5.4800

> <Gold.Chemscore.Hbond>
0.9986

> <Gold.Chemscore.Metal>
0.0000

> <Gold.Chemscore.Lipo>
41.3997

> <Gold.Chemscore.Internal_Hbond>
0.0000

> <Gold.Chemscore.DEClash>
0.0666

> <Gold.Chemscore.DEInternal>
2.6896

> <Gold.Chemscore.Rot>
2.7204

> <Gold.Chemscore.Internal.Correction>
   9.000000E+99

> <Gold.Chemscore.Hbonds>
donor molecule, donor type, donor heavy atom, donor atom, acceptor molecule, acceptor atom, score
      L1  H     1    19       P1  7948  1.00

> <Gold.Chemscore.Hbond.Weighted>
-3.3352

> <Gold.Chemscore.Metal.Weighted>
-0.0000

> <Gold.Chemscore.Lipo.Weighted>
-4.8438

> <Gold.Chemscore.Internal_Hbond.Weighted>
0.0000

> <Gold.Chemscore.DEClash.Weighted>
0.0666

> <Gold.Chemscore.DEInternal.Weighted>
2.6896

> <Gold.Chemscore.Rot.Weighted>
6.9644

> <Gold.Chemscore.Internal.Correction.Weighted>
   9.000000E+99

> <Gold.Protein.RotatedTorsions>
[ 6907 6896 6895 6894 ] final -158.68 input  -60.11 | X-H torsion
[ 7974 7965 7964 7962 ] final  -39.52 input  175.53 | X-H torsion
[ 8008 7997 7996 7995 ] final   82.14 input   59.86 | X-H torsion
[ 10167 10162 10161 10158 ] final  116.73 input  -65.29 | X-H torsion
[ 10718 10713 10712 10709 ] final -131.10 input   66.30 | X-H torsion
[ 10763 10752 10751 10750 ] final  120.51 input  -60.55 | X-H torsion
[ 11005 11000 10999 10996 ] final  -72.73 input  -57.11 | X-H torsion

> <Gold.Protein.ActiveResidues>
 VAL166  LYS551  ARG553  GLY616  TRP617  ASP618  TYR619  PRO620  LYS621  CYS622 
 ASP623  PHE694  ASN695  SER759  ASP760  ASP761  ALA762  ILE779  LEU786  VAL792 
 PHE793  MET794  SER795  GLU796  ALA797  LYS798  CYS799  TRP800  GLU811  SER814 

> <Gold.Protein.RotatedAtoms>
  151.3219  133.4036  159.2654 H   0  0  0  0  0  0  0  0  0  0  0  0  # atno 6907 bound_to 6896
  151.0027  134.9335  159.7973 H   0  0  0  0  0  0  0  0  0  0  0  0  # atno 6908 bound_to 6896
  152.5279  134.3184  159.9192 H   0  0  0  0  0  0  0  0  0  0  0  0  # atno 6909 bound_to 6896
  146.0389  140.6635  142.9097 H   0  0  0  0  0  0  0  0  0  0  0  0  # atno 7974 bound_to 7965
  155.9067  140.3430  155.6067 H   0  0  0  0  0  0  0  0  0  0  0  0  # atno 8008 bound_to 7997
  155.7436  140.0811  157.2253 H   0  0  0  0  0  0  0  0  0  0  0  0  # atno 8009 bound_to 7997
  154.4050  140.1566  156.2632 H   0  0  0  0  0  0  0  0  0  0  0  0  # atno 8010 bound_to 7997
  139.6227  144.7103  151.2600 H   0  0  0  0  0  0  0  0  0  0  0  0  # atno 10167 bound_to 10162
  156.2210  130.6978  151.0756 H   0  0  0  0  0  0  0  0  0  0  0  0  # atno 10718 bound_to 10713
  153.5997  135.3450  155.2941 H   0  0  0  0  0  0  0  0  0  0  0  0  # atno 10763 bound_to 10752
  154.8638  135.4224  154.2426 H   0  0  0  0  0  0  0  0  0  0  0  0  # atno 10764 bound_to 10752
  153.3252  135.7041  153.7067 H   0  0  0  0  0  0  0  0  0  0  0  0  # atno 10765 bound_to 10752
  141.1613  133.6856  156.7103 H   0  0  0  0  0  0  0  0  0  0  0  0  # atno 11005 bound_to 11000
  144.7065  140.3871  143.7114 LP  0  0  0  0  0  0  0  0  0  0  0  0  # atno 17320 bound_to 7965
  145.6918  139.1641  143.2643 LP  0  0  0  0  0  0  0  0  0  0  0  0  # atno 17321 bound_to 7965
  140.7392  143.6626  150.8151 LP  0  0  0  0  0  0  0  0  0  0  0  0  # atno 17342 bound_to 10162
  140.0239  143.5513  152.2789 LP  0  0  0  0  0  0  0  0  0  0  0  0  # atno 17343 bound_to 10162
  157.7087  131.0744  150.6575 LP  0  0  0  0  0  0  0  0  0  0  0  0  # atno 17370 bound_to 10713
  156.6639  130.4520  149.5679 LP  0  0  0  0  0  0  0  0  0  0  0  0  # atno 17371 bound_to 10713
  140.2892  134.8254  157.4002 LP  0  0  0  0  0  0  0  0  0  0  0  0  # atno 17394 bound_to 11000
  140.1362  134.5031  155.8066 LP  0  0  0  0  0  0  0  0  0  0  0  0  # atno 17395 bound_to 11000

$$$$
