AV-unprocessed.smi:945|AV-procd|sdf|4233|dock3
  -GOLD-   22720 2143D 1   1.00000     0.00000
 Structure written by MMmdl.
 31 32  0  0  0  0  0  0  0  0  1 V2000
  153.4454  142.2603  161.8529 C   0  0  0  0  0  0  0  0  0  0  0  0
  152.5177  143.4651  161.6622 C   0  0  0  0  0  0  0  0  0  0  0  0
  151.9587  143.5433  160.2810 C   0  0  0  0  0  0  0  0  0  0  0  0
  151.3914  142.5073  159.6573 N   0  0  0  0  0  0  0  0  0  0  0  0
  150.9785  142.8206  158.3586 C   0  0  0  0  0  0  0  0  0  0  0  0
  150.3249  141.7736  157.5089 C   0  0  0  0  0  0  0  0  0  0  0  0
  151.0350  141.6032  156.1557 C   0  0  0  0  0  0  0  0  0  0  0  0
  150.6218  140.3803  155.4770 N   0  0  0  0  0  0  0  0  0  0  0  0
  151.4550  139.4515  154.9837 C   0  0  0  0  0  0  0  0  0  0  0  0
  152.6816  139.5493  155.0459 O   0  0  0  0  0  0  0  0  0  0  0  0
  150.7607  138.2877  154.3552 C   0  0  0  0  0  0  0  0  0  0  0  0
  149.6567  137.6189  155.1488 C   0  0  0  0  0  0  0  0  0  0  0  0
  150.9805  136.9198  154.9687 C   0  0  0  0  0  0  0  0  0  0  0  0
  151.2526  144.1174  158.0017 C   0  0  0  0  0  0  0  0  0  0  0  0
  152.0451  144.9908  159.2838 S   0  0  0  0  0  0  0  0  0  0  0  0
  153.8373  142.2287  162.8695 H   0  0  0  0  0  0  0  0  0  0  0  0
  154.2935  142.3042  161.1689 H   0  0  0  0  0  0  0  0  0  0  0  0
  152.9161  141.3245  161.6709 H   0  0  0  0  0  0  0  0  0  0  0  0
  151.6932  143.4170  162.3745 H   0  0  0  0  0  0  0  0  0  0  0  0
  153.0591  144.3877  161.8728 H   0  0  0  0  0  0  0  0  0  0  0  0
  150.3158  140.8197  158.0381 H   0  0  0  0  0  0  0  0  0  0  0  0
  149.2786  142.0335  157.3452 H   0  0  0  0  0  0  0  0  0  0  0  0
  150.8491  142.4677  155.5156 H   0  0  0  0  0  0  0  0  0  0  0  0
  152.1139  141.5555  156.3056 H   0  0  0  0  0  0  0  0  0  0  0  0
  149.6284  140.2239  155.3843 H   0  0  0  0  0  0  0  0  0  0  0  0
  150.6315  138.3238  153.2745 H   0  0  0  0  0  0  0  0  0  0  0  0
  149.4242  138.0012  156.1413 H   0  0  0  0  0  0  0  0  0  0  0  0
  148.8017  137.2462  154.5884 H   0  0  0  0  0  0  0  0  0  0  0  0
  151.0228  136.0742  154.2855 H   0  0  0  0  0  0  0  0  0  0  0  0
  151.6251  136.8376  155.8421 H   0  0  0  0  0  0  0  0  0  0  0  0
  151.0437  144.6075  157.0622 H   0  0  0  0  0  0  0  0  0  0  0  0
  1  2  1  0  0  0  0
  1 16  1  0  0  0  0
  1 17  1  0  0  0  0
  1 18  1  0  0  0  0
  2  3  1  0  0  0  0
  2 19  1  0  0  0  0
  2 20  1  0  0  0  0
  3 15  1  0  0  0  0
  3  4  2  0  0  0  0
  4  5  1  0  0  0  0
  5  6  1  0  0  0  0
  5 14  2  0  0  0  0
  6  7  1  0  0  0  0
  6 21  1  0  0  0  0
  6 22  1  0  0  0  0
  7  8  1  0  0  0  0
  7 23  1  0  0  0  0
  7 24  1  0  0  0  0
  8  9  1  0  0  0  0
  8 25  1  0  0  0  0
  9 10  2  0  0  0  0
  9 11  1  0  0  0  0
 11 13  1  0  0  0  0
 11 12  1  0  0  0  0
 11 26  1  0  0  0  0
 12 13  1  0  0  0  0
 12 27  1  0  0  0  0
 12 28  1  0  0  0  0
 13 29  1  0  0  0  0
 13 30  1  0  0  0  0
 14 15  1  0  0  0  0
 14 31  1  0  0  0  0
M  END
> <s_m_source_file>
AV-unprocessed.smi

> <i_m_source_file_index>
945

> <i_lp_mmshare_version>
43012

> <i_f3d_flags>
0

> <s_epik_input>
W0NIM11bQ0gyXWMxbmMoW2NIXXMxKVtDSDJdW0NIMl1bTkhdQyg9TylbQ0hdMltDSDJdW0NIMl0y

> <s_epik_cmdline>
J2VwaWtfcHl0aG9uJywgJy1waCcsICc3LjAnLCAnLXRuJywgJzgnLCAnLW1hJywgJzIwMCcsICctbWV0YWxfYmluZGluZycsICctaW1hZScsICc8aW5maWxlLm1hZT4nLCAnLW9tYWUnLCAnPG91dGZpbGUubWFlPic=

> <r_epik_Ionization_Penalty>
0.00109668

> <r_epik_Ionization_Penalty_Charging>
0

> <r_epik_Ionization_Penalty_Neutral>
0.00109668

> <r_epik_State_Penalty>
0.000719322

> <r_epik_Charging_Adjusted_Penalty>
0.000719322

> <i_epik_Tot_Q>
0

> <i_epik_Tot_abs_Q>
0

> <r_epik_Metal_State_Penalty>
-0

> <b_epik_Metal_Only>
0

> <s_lp_Force_Field>
OPLS_2005

> <r_lp_Energy>
-3.93776

> <b_lp_Chiralities_Consistent>
1

> <s_lp_Variant>
AV-unprocessed.smi:945-1

> <Gold.Version>
5.8.1

> <Gold.Id.Protein>
6NUR|6NUR_protein|mol2

> <Gold.PLP.Fitness>
44.1625

> <Gold.PLP.PLP>
-38.6905

> <Gold.PLP.part.hbond>
-2.4463

> <Gold.PLP.part.metal>
0.0000

> <Gold.PLP.part.buried>
-4.9410

> <Gold.PLP.part.nonpolar>
-31.4740

> <Gold.PLP.part.repulsive>
0.1379

> <Gold.PLP.ligand.clash>
0.0000

> <Gold.PLP.ligand.torsion>
0.3138

> <Gold.PLP.Chemscore.Hbond>
1.0000

> <Gold.PLP.Chemscore.CHOScore>
0.9959

> <Gold.PLP.Chemscore.Metal>
0.0000

> <Gold.Chemscore.Hbonds>
donor molecule, donor type, donor heavy atom, donor atom, acceptor molecule, acceptor atom, score
      P1  H  7997  8008       L1    10  0.93
      L1  C    14    31       P1  8028  0.98

> <Gold.PLP.Chemscore.Internal.Correction>
0.1118

> <Gold.Rescore>
     Score         DG    S(hbond)    S(metal)    S(lipo)     H(rot)  DE(clash)    DE(int)     intcor
     16.16     -16.43       1.00        0.00      99.58       1.58       0.02       0.25       ----

> <Gold.Chemscore.Fitness>
16.1630

> <Gold.Chemscore.DG>
-16.4320

> <Gold.Chemscore.ZeroCoef>
-5.4800

> <Gold.Chemscore.Hbond>
0.9988

> <Gold.Chemscore.Metal>
0.0000

> <Gold.Chemscore.Lipo>
99.5764

> <Gold.Chemscore.Internal_Hbond>
0.0000

> <Gold.Chemscore.DEClash>
0.0201

> <Gold.Chemscore.DEInternal>
0.2489

> <Gold.Chemscore.Rot>
1.5760

> <Gold.Chemscore.Internal.Correction>
   9.000000E+99

> <Gold.Chemscore.Hbonds>
donor molecule, donor type, donor heavy atom, donor atom, acceptor molecule, acceptor atom, score
      P1  H  7997  8008       L1    10  0.89

> <Gold.Chemscore.Hbond.Weighted>
-3.3361

> <Gold.Chemscore.Metal.Weighted>
-0.0000

> <Gold.Chemscore.Lipo.Weighted>
-11.6504

> <Gold.Chemscore.Internal_Hbond.Weighted>
0.0000

> <Gold.Chemscore.DEClash.Weighted>
0.0201

> <Gold.Chemscore.DEInternal.Weighted>
0.2489

> <Gold.Chemscore.Rot.Weighted>
4.0346

> <Gold.Chemscore.Internal.Correction.Weighted>
   9.000000E+99

> <Gold.Protein.RotatedTorsions>
[ 6907 6896 6895 6894 ] final  111.29 input  -60.11 | X-H torsion
[ 7974 7965 7964 7962 ] final   94.56 input  175.53 | X-H torsion
[ 8008 7997 7996 7995 ] final  -21.33 input   59.86 | X-H torsion
[ 10167 10162 10161 10158 ] final   42.63 input  -65.29 | X-H torsion
[ 10718 10713 10712 10709 ] final  165.25 input   66.30 | X-H torsion
[ 10763 10752 10751 10750 ] final  138.05 input  -60.55 | X-H torsion
[ 11005 11000 10999 10996 ] final  -24.54 input  -57.11 | X-H torsion

> <Gold.Protein.ActiveResidues>
 VAL166  LYS551  ARG553  GLY616  TRP617  ASP618  TYR619  PRO620  LYS621  CYS622 
 ASP623  PHE694  ASN695  SER759  ASP760  ASP761  ALA762  ILE779  LEU786  VAL792 
 PHE793  MET794  SER795  GLU796  ALA797  LYS798  CYS799  TRP800  GLU811  SER814 

> <Gold.Protein.RotatedAtoms>
  152.4977  133.8679  159.7283 H   0  0  0  0  0  0  0  0  0  0  0  0  # atno 6907 bound_to 6896
  150.9173  133.6914  159.2847 H   0  0  0  0  0  0  0  0  0  0  0  0  # atno 6908 bound_to 6896
  151.4303  135.1013  159.9693 H   0  0  0  0  0  0  0  0  0  0  0  0  # atno 6909 bound_to 6896
  145.4639  139.2285  143.2972 H   0  0  0  0  0  0  0  0  0  0  0  0  # atno 7974 bound_to 7965
  154.4712  140.2037  155.9990 H   0  0  0  0  0  0  0  0  0  0  0  0  # atno 8008 bound_to 7997
  156.1014  140.3243  155.7918 H   0  0  0  0  0  0  0  0  0  0  0  0  # atno 8009 bound_to 7997
  155.4791  140.0537  157.2960 H   0  0  0  0  0  0  0  0  0  0  0  0  # atno 8010 bound_to 7997
  140.3524  144.2333  150.6144 H   0  0  0  0  0  0  0  0  0  0  0  0  # atno 10167 bound_to 10162
  157.0828  131.0397  151.2568 H   0  0  0  0  0  0  0  0  0  0  0  0  # atno 10718 bound_to 10713
  153.8831  135.3042  155.3446 H   0  0  0  0  0  0  0  0  0  0  0  0  # atno 10763 bound_to 10752
  154.7752  135.4865  153.9732 H   0  0  0  0  0  0  0  0  0  0  0  0  # atno 10764 bound_to 10752
  153.1340  135.6810  153.9230 H   0  0  0  0  0  0  0  0  0  0  0  0  # atno 10765 bound_to 10752
  140.8855  133.7624  156.0355 H   0  0  0  0  0  0  0  0  0  0  0  0  # atno 11005 bound_to 11000
  146.2435  140.5411  142.8924 LP  0  0  0  0  0  0  0  0  0  0  0  0  # atno 17320 bound_to 7965
  144.7986  140.6169  143.6493 LP  0  0  0  0  0  0  0  0  0  0  0  0  # atno 17321 bound_to 7965
  140.5206  143.2267  151.8395 LP  0  0  0  0  0  0  0  0  0  0  0  0  # atno 17342 bound_to 10162
  139.4824  144.4842  151.9268 LP  0  0  0  0  0  0  0  0  0  0  0  0  # atno 17343 bound_to 10162
  157.4786  130.7751  149.7392 LP  0  0  0  0  0  0  0  0  0  0  0  0  # atno 17370 bound_to 10713
  155.9919  130.3934  150.2966 LP  0  0  0  0  0  0  0  0  0  0  0  0  # atno 17371 bound_to 10713
  140.8410  134.3066  157.5313 LP  0  0  0  0  0  0  0  0  0  0  0  0  # atno 17394 bound_to 11000
  139.8724  134.9416  156.3801 LP  0  0  0  0  0  0  0  0  0  0  0  0  # atno 17395 bound_to 11000

$$$$
