AV-unprocessed.smi:256|AV-procd|sdf|1962|dock5
  -GOLD-   2262021113D 1   1.00000     0.00000
 Structure written by MMmdl.
 61 64  0  0  0  0  0  0  0  0  1 V2000
  146.0822  135.5383  156.8663 C   0  0  0  0  0  0  0  0  0  0  0  0
  146.2664  135.4553  155.3430 C   0  0  0  0  0  0  0  0  0  0  0  0
  147.7350  135.2869  154.8660 C   0  0  1  0  0  0  0  0  0  0  0  0
  148.5642  136.5114  155.3362 C   0  0  0  0  0  0  0  0  0  0  0  0
  149.9550  136.4188  154.8982 N   0  0  0  0  0  0  0  0  0  0  0  0
  150.7365  137.5229  155.0111 C   0  0  0  0  0  0  0  0  0  0  0  0
  152.0404  137.4777  154.6262 N   0  0  0  0  0  0  0  0  0  0  0  0
  152.8139  138.5624  154.7293 C   0  0  0  0  0  0  0  0  0  0  0  0
  152.4946  139.7744  155.1868 N   0  0  0  0  0  0  0  0  0  0  0  0
  151.1906  139.8248  155.5828 C   0  0  0  0  0  0  0  0  0  0  0  0
  150.2506  138.7571  155.5284 C   0  0  0  0  0  0  0  0  0  0  0  0
  149.0248  139.1819  156.0280 N   0  0  0  0  0  0  0  0  0  0  0  0
  149.2271  140.4294  156.3532 C   0  0  0  0  0  0  0  0  0  0  0  0
  150.5024  140.8953  156.1266 N   0  0  0  0  0  0  0  0  0  0  0  0
  151.0026  142.2331  156.4040 C   0  0  0  0  0  0  0  0  0  0  0  0
  151.2425  142.5116  157.9086 C   0  0  0  0  0  0  0  0  0  0  0  0
  150.0019  142.3564  158.5769 O   0  0  0  0  0  0  0  0  0  0  0  0
  152.2638  141.5390  158.5390 C   0  0  0  0  0  0  0  0  0  0  0  0
  152.6444  141.9487  159.9728 C   0  0  0  0  0  0  0  0  0  0  0  0
  153.1218  143.2886  159.9896 O   0  0  0  0  0  0  0  0  0  0  0  0
  152.1371  144.2287  159.5776 C   0  0  0  0  0  0  0  0  0  0  0  0
  151.7289  143.9594  158.1181 C   0  0  0  0  0  0  0  0  0  0  0  0
  150.5916  135.1756  155.3088 C   0  0  0  0  0  0  0  0  0  0  0  0
  149.7580  133.9878  154.8165 C   0  0  0  0  0  0  0  0  0  0  0  0
  148.3723  134.0206  155.3021 N   0  0  0  0  0  0  0  0  0  0  0  0
  147.6429  132.8236  154.8542 C   0  0  0  0  0  0  0  0  0  0  0  0
  147.9611  132.3347  153.4301 C   0  0  0  0  0  0  0  0  0  0  0  0
  146.7516  132.0537  152.7440 O   0  0  0  0  0  0  0  0  0  0  0  0
  146.1997  133.2012  152.1235 C   0  0  0  0  0  0  0  0  0  0  0  0
  145.0541  135.8046  157.1124 H   0  0  0  0  0  0  0  0  0  0  0  0
  146.7326  136.2969  157.3025 H   0  0  0  0  0  0  0  0  0  0  0  0
  146.2894  134.5872  157.3561 H   0  0  0  0  0  0  0  0  0  0  0  0
  145.6523  134.6454  154.9476 H   0  0  0  0  0  0  0  0  0  0  0  0
  145.8460  136.3787  154.9499 H   0  0  0  0  0  0  0  0  0  0  0  0
  147.7237  135.3013  153.7748 H   0  0  0  0  0  0  0  0  0  0  0  0
  148.1434  137.4294  154.9265 H   0  0  0  0  0  0  0  0  0  0  0  0
  148.5298  136.5929  156.4238 H   0  0  0  0  0  0  0  0  0  0  0  0
  153.8349  138.4417  154.3984 H   0  0  0  0  0  0  0  0  0  0  0  0
  148.4491  141.0464  156.7790 H   0  0  0  0  0  0  0  0  0  0  0  0
  151.9300  142.3695  155.8461 H   0  0  0  0  0  0  0  0  0  0  0  0
  150.2941  142.9538  155.9929 H   0  0  0  0  0  0  0  0  0  0  0  0
  149.3993  143.0046  158.2455 H   0  0  0  0  0  0  0  0  0  0  0  0
  151.8816  140.5175  158.5400 H   0  0  0  0  0  0  0  0  0  0  0  0
  153.1693  141.5268  157.9307 H   0  0  0  0  0  0  0  0  0  0  0  0
  151.7955  141.8446  160.6502 H   0  0  0  0  0  0  0  0  0  0  0  0
  153.4291  141.2925  160.3502 H   0  0  0  0  0  0  0  0  0  0  0  0
  151.2737  144.1843  160.2433 H   0  0  0  0  0  0  0  0  0  0  0  0
  152.5526  145.2325  159.6682 H   0  0  0  0  0  0  0  0  0  0  0  0
  152.5938  144.1452  157.4800 H   0  0  0  0  0  0  0  0  0  0  0  0
  150.9622  144.6700  157.8064 H   0  0  0  0  0  0  0  0  0  0  0  0
  151.6040  135.0948  154.9150 H   0  0  0  0  0  0  0  0  0  0  0  0
  150.6718  135.1549  156.3968 H   0  0  0  0  0  0  0  0  0  0  0  0
  149.7695  133.9594  153.7257 H   0  0  0  0  0  0  0  0  0  0  0  0
  150.2586  133.0830  155.1571 H   0  0  0  0  0  0  0  0  0  0  0  0
  147.8842  131.9826  155.4996 H   0  0  0  0  0  0  0  0  0  0  0  0
  146.5686  132.9862  154.9508 H   0  0  0  0  0  0  0  0  0  0  0  0
  148.5101  133.1127  152.8979 H   0  0  0  0  0  0  0  0  0  0  0  0
  148.6076  131.4569  153.4480 H   0  0  0  0  0  0  0  0  0  0  0  0
  145.2716  132.9338  151.6185 H   0  0  0  0  0  0  0  0  0  0  0  0
  146.8820  133.6116  151.3781 H   0  0  0  0  0  0  0  0  0  0  0  0
  145.9732  133.9765  152.8567 H   0  0  0  0  0  0  0  0  0  0  0  0
  1  2  1  0  0  0  0
  1 30  1  0  0  0  0
  1 31  1  0  0  0  0
  1 32  1  0  0  0  0
  2  3  1  0  0  0  0
  2 33  1  0  0  0  0
  2 34  1  0  0  0  0
  3 25  1  0  0  0  0
  3  4  1  0  0  0  0
  3 35  1  0  0  0  0
  4  5  1  0  0  0  0
  4 36  1  0  0  0  0
  4 37  1  0  0  0  0
  5  6  1  0  0  0  0
  5 23  1  0  0  0  0
  6 11  1  0  0  0  0
  6  7  2  0  0  0  0
  7  8  1  0  0  0  0
  8  9  2  0  0  0  0
  8 38  1  0  0  0  0
  9 10  1  0  0  0  0
 10 14  1  0  0  0  0
 10 11  2  0  0  0  0
 11 12  1  0  0  0  0
 12 13  2  0  0  0  0
 13 14  1  0  0  0  0
 13 39  1  0  0  0  0
 14 15  1  0  0  0  0
 15 16  1  0  0  0  0
 15 40  1  0  0  0  0
 15 41  1  0  0  0  0
 16 22  1  0  0  0  0
 16 17  1  0  0  0  0
 16 18  1  0  0  0  0
 17 42  1  0  0  0  0
 18 19  1  0  0  0  0
 18 43  1  0  0  0  0
 18 44  1  0  0  0  0
 19 20  1  0  0  0  0
 19 45  1  0  0  0  0
 19 46  1  0  0  0  0
 20 21  1  0  0  0  0
 21 22  1  0  0  0  0
 21 47  1  0  0  0  0
 21 48  1  0  0  0  0
 22 49  1  0  0  0  0
 22 50  1  0  0  0  0
 23 24  1  0  0  0  0
 23 51  1  0  0  0  0
 23 52  1  0  0  0  0
 24 25  1  0  0  0  0
 24 53  1  0  0  0  0
 24 54  1  0  0  0  0
 25 26  1  0  0  0  0
 26 27  1  0  0  0  0
 26 55  1  0  0  0  0
 26 56  1  0  0  0  0
 27 28  1  0  0  0  0
 27 57  1  0  0  0  0
 27 58  1  0  0  0  0
 28 29  1  0  0  0  0
 29 59  1  0  0  0  0
 29 60  1  0  0  0  0
 29 61  1  0  0  0  0
M  END
> <s_m_source_file>
AV-unprocessed.smi

> <i_m_source_file_index>
256

> <i_lp_mmshare_version>
43012

> <i_f3d_flags>
0

> <s_epik_input>
W0NIM11PW0NIMl1bQ0gyXU4xW0NIMl1bQ0gyXU4oW0NIMl1bQ0BIXTFbQ0gyXVtDSDNdKWMobltjSF1uMiljKGMyMyluW2NIXW4zW0NIMl1DNChbT0hdKVtDSDJdW0NIMl1PW0NIMl1bQ0gyXTQ=

> <s_epik_cmdline>
J2VwaWtfcHl0aG9uJywgJy1waCcsICc3LjAnLCAnLXRuJywgJzgnLCAnLW1hJywgJzIwMCcsICctbWV0YWxfYmluZGluZycsICctaW1hZScsICc8aW5maWxlLm1hZT4nLCAnLW9tYWUnLCAnPG91dGZpbGUubWFlPic=

> <r_lp_tautomer_probability>
1

> <r_epik_Ionization_Penalty>
0.676279

> <r_epik_Ionization_Penalty_Charging>
0

> <r_epik_Ionization_Penalty_Neutral>
0.676279

> <r_epik_State_Penalty>
0.6855

> <r_epik_Charging_Adjusted_Penalty>
0.6855

> <i_epik_Tot_Q>
0

> <i_epik_Tot_abs_Q>
0

> <r_epik_Metal_State_Penalty>
0.678557

> <b_epik_Metal_Only>
0

> <s_lp_Force_Field>
OPLS_2005

> <r_lp_Energy>
58.0034

> <b_lp_Chiralities_Consistent>
1

> <s_lp_Variant>
AV-unprocessed.smi:256-6

> <Gold.Version>
5.8.1

> <Gold.Id.Protein>
6NUR|6NUR_protein|mol2

> <Gold.PLP.Fitness>
48.8590

> <Gold.PLP.PLP>
-46.1025

> <Gold.PLP.part.hbond>
-3.0000

> <Gold.PLP.part.metal>
0.0000

> <Gold.PLP.part.buried>
-7.0371

> <Gold.PLP.part.nonpolar>
-37.4471

> <Gold.PLP.part.repulsive>
0.6134

> <Gold.PLP.ligand.clash>
0.0000

> <Gold.PLP.ligand.torsion>
1.1256

> <Gold.PLP.Chemscore.Hbond>
1.5340

> <Gold.PLP.Chemscore.CHOScore>
0.0000

> <Gold.PLP.Chemscore.Metal>
0.0000

> <Gold.Chemscore.Hbonds>
donor molecule, donor type, donor heavy atom, donor atom, acceptor molecule, acceptor atom, score
      P1  H  7989  7998       L1     9  0.02
      P1  H  7997  8009       L1     9  0.53
      P1  H 10752 10763       L1     7  0.80

> <Gold.PLP.Chemscore.Internal.Correction>
0.4057

> <Gold.Rescore>
     Score         DG    S(hbond)    S(metal)    S(lipo)     H(rot)  DE(clash)    DE(int)     intcor
      9.96     -13.30       1.09        0.00      98.40       2.87       0.73       2.61       ----

> <Gold.Chemscore.Fitness>
9.9559

> <Gold.Chemscore.DG>
-13.2988

> <Gold.Chemscore.ZeroCoef>
-5.4800

> <Gold.Chemscore.Hbond>
1.0938

> <Gold.Chemscore.Metal>
0.0000

> <Gold.Chemscore.Lipo>
98.3992

> <Gold.Chemscore.Internal_Hbond>
0.0000

> <Gold.Chemscore.DEClash>
0.7305

> <Gold.Chemscore.DEInternal>
2.6123

> <Gold.Chemscore.Rot>
2.8700

> <Gold.Chemscore.Internal.Correction>
   9.000000E+99

> <Gold.Chemscore.Hbonds>
donor molecule, donor type, donor heavy atom, donor atom, acceptor molecule, acceptor atom, score
      P1  H  7997  8009       L1     9  0.06
      P1  H 10752 10763       L1     7  0.71

> <Gold.Chemscore.Hbond.Weighted>
-3.6533

> <Gold.Chemscore.Metal.Weighted>
-0.0000

> <Gold.Chemscore.Lipo.Weighted>
-11.5127

> <Gold.Chemscore.Internal_Hbond.Weighted>
0.0000

> <Gold.Chemscore.DEClash.Weighted>
0.7305

> <Gold.Chemscore.DEInternal.Weighted>
2.6123

> <Gold.Chemscore.Rot.Weighted>
7.3472

> <Gold.Chemscore.Internal.Correction.Weighted>
   9.000000E+99

> <Gold.Protein.RotatedTorsions>
[ 6907 6896 6895 6894 ] final   20.76 input  -60.11 | X-H torsion
[ 7974 7965 7964 7962 ] final  165.85 input  175.53 | X-H torsion
[ 8008 7997 7996 7995 ] final -133.93 input   59.86 | X-H torsion
[ 10167 10162 10161 10158 ] final -153.80 input  -65.29 | X-H torsion
[ 10718 10713 10712 10709 ] final  165.99 input   66.30 | X-H torsion
[ 10763 10752 10751 10750 ] final   45.86 input  -60.55 | X-H torsion
[ 11005 11000 10999 10996 ] final   67.16 input  -57.11 | X-H torsion

> <Gold.Protein.ActiveResidues>
 VAL166  LYS551  ARG553  GLY616  TRP617  ASP618  TYR619  PRO620  LYS621  CYS622 
 ASP623  PHE694  ASN695  SER759  ASP760  ASP761  ALA762  ILE779  LEU786  VAL792 
 PHE793  MET794  SER795  GLU796  ALA797  LYS798  CYS799  TRP800  GLU811  SER814 

> <Gold.Protein.RotatedAtoms>
  151.9013  135.0377  160.0506 H   0  0  0  0  0  0  0  0  0  0  0  0  # atno 6907 bound_to 6896
  152.2356  133.5088  159.5249 H   0  0  0  0  0  0  0  0  0  0  0  0  # atno 6908 bound_to 6896
  150.7038  134.1075  159.4030 H   0  0  0  0  0  0  0  0  0  0  0  0  # atno 6909 bound_to 6896
  144.7486  139.8530  143.6374 H   0  0  0  0  0  0  0  0  0  0  0  0  # atno 7974 bound_to 7965
  155.3537  140.0479  157.3046 H   0  0  0  0  0  0  0  0  0  0  0  0  # atno 8008 bound_to 7997
  154.5214  140.2226  155.8933 H   0  0  0  0  0  0  0  0  0  0  0  0  # atno 8009 bound_to 7997
  156.1693  140.3099  155.8951 H   0  0  0  0  0  0  0  0  0  0  0  0  # atno 8010 bound_to 7997
  139.7066  143.9176  152.2451 H   0  0  0  0  0  0  0  0  0  0  0  0  # atno 10167 bound_to 10162
  157.0723  131.0369  151.2607 H   0  0  0  0  0  0  0  0  0  0  0  0  # atno 10718 bound_to 10713
  152.9818  135.6026  154.3505 H   0  0  0  0  0  0  0  0  0  0  0  0  # atno 10763 bound_to 10752
  154.3195  135.2770  155.2528 H   0  0  0  0  0  0  0  0  0  0  0  0  # atno 10764 bound_to 10752
  154.4702  135.5944  153.6372 H   0  0  0  0  0  0  0  0  0  0  0  0  # atno 10765 bound_to 10752
  139.9787  134.6779  156.0303 H   0  0  0  0  0  0  0  0  0  0  0  0  # atno 11005 bound_to 11000
  146.1403  139.4458  143.0113 LP  0  0  0  0  0  0  0  0  0  0  0  0  # atno 17320 bound_to 7965
  145.7029  141.0130  143.1495 LP  0  0  0  0  0  0  0  0  0  0  0  0  # atno 17321 bound_to 7965
  139.9033  144.6899  150.8641 LP  0  0  0  0  0  0  0  0  0  0  0  0  # atno 17342 bound_to 10162
  140.7723  143.3497  151.2039 LP  0  0  0  0  0  0  0  0  0  0  0  0  # atno 17343 bound_to 10162
  157.4868  130.7798  149.7468 LP  0  0  0  0  0  0  0  0  0  0  0  0  # atno 17370 bound_to 10713
  155.9947  130.3916  150.2849 LP  0  0  0  0  0  0  0  0  0  0  0  0  # atno 17371 bound_to 10713
  141.1462  133.6555  156.3874 LP  0  0  0  0  0  0  0  0  0  0  0  0  # atno 17394 bound_to 11000
  140.5141  134.6367  157.5295 LP  0  0  0  0  0  0  0  0  0  0  0  0  # atno 17395 bound_to 11000

$$$$
