AV-unprocessed.smi:707|AV-procd|sdf|3455|dock10
  -GOLD-   22720 0443D 1   1.00000     0.00000
 Structure written by MMmdl.
 44 45  0  0  0  0  0  0  0  0  1 V2000
  145.7891  143.2913  157.4362 C   0  0  0  0  0  0  0  0  0  0  0  0
  145.1911  143.8859  156.2026 C   0  0  0  0  0  0  0  0  0  0  0  0
  144.4939  145.0281  156.1901 N   0  0  0  0  0  0  0  0  0  0  0  0
  144.1255  145.2235  154.8734 N   0  0  0  0  0  0  0  0  0  0  0  0
  144.6373  144.1789  154.2234 C   0  0  0  0  0  0  0  0  0  0  0  0
  145.3106  143.3077  154.9902 N   0  0  0  0  0  0  0  0  0  0  0  0
  145.9804  142.0833  154.5930 C   0  0  0  0  0  0  0  0  0  0  0  0
  147.3959  142.3587  154.0684 C   0  0  0  0  0  0  0  0  0  0  0  0
  148.3791  142.1622  155.1239 N   0  0  0  0  0  0  0  0  0  0  0  0
  149.4947  141.4295  154.9949 C   0  0  0  0  0  0  0  0  0  0  0  0
  149.8050  140.8471  153.9561 O   0  0  0  0  0  0  0  0  0  0  0  0
  150.4091  141.3544  156.2163 C   0  0  0  0  0  0  0  0  0  0  0  0
  150.9476  142.6453  156.4711 O   0  0  0  0  0  0  0  0  0  0  0  0
  151.1739  142.9266  157.8463 C   0  0  2  0  0  0  0  0  0  0  0  0
  151.8149  144.3177  158.0278 C   0  0  0  0  0  0  0  0  0  0  0  0
  152.1824  144.5731  159.4976 C   0  0  0  0  0  0  0  0  0  0  0  0
  153.0990  143.4682  160.0460 C   0  0  0  0  0  0  0  0  0  0  0  0
  152.4680  142.0735  159.8721 C   0  0  2  0  0  0  0  0  0  0  0  0
  153.3871  140.9697  160.4146 C   0  0  0  0  0  0  0  0  0  0  0  0
  152.1044  141.8299  158.3941 C   0  0  0  0  0  0  0  0  0  0  0  0
  145.6266  143.9463  158.2925 H   0  0  0  0  0  0  0  0  0  0  0  0
  146.8625  143.1526  157.3076 H   0  0  0  0  0  0  0  0  0  0  0  0
  145.3307  142.3252  157.6476 H   0  0  0  0  0  0  0  0  0  0  0  0
  144.5185  144.0460  153.1580 H   0  0  0  0  0  0  0  0  0  0  0  0
  146.0105  141.4055  155.4469 H   0  0  0  0  0  0  0  0  0  0  0  0
  145.3789  141.5952  153.8246 H   0  0  0  0  0  0  0  0  0  0  0  0
  147.6261  141.6917  153.2361 H   0  0  0  0  0  0  0  0  0  0  0  0
  147.4640  143.3803  153.6912 H   0  0  0  0  0  0  0  0  0  0  0  0
  148.1999  142.6053  156.0135 H   0  0  0  0  0  0  0  0  0  0  0  0
  149.8400  140.9889  157.0713 H   0  0  0  0  0  0  0  0  0  0  0  0
  151.2084  140.6393  156.0167 H   0  0  0  0  0  0  0  0  0  0  0  0
  150.2310  142.8793  158.3944 H   0  0  0  0  0  0  0  0  0  0  0  0
  152.7107  144.3919  157.4098 H   0  0  0  0  0  0  0  0  0  0  0  0
  151.1397  145.1024  157.6878 H   0  0  0  0  0  0  0  0  0  0  0  0
  152.6713  145.5429  159.5949 H   0  0  0  0  0  0  0  0  0  0  0  0
  151.2727  144.6241  160.0971 H   0  0  0  0  0  0  0  0  0  0  0  0
  154.0602  143.5058  159.5315 H   0  0  0  0  0  0  0  0  0  0  0  0
  153.3060  143.6558  161.1002 H   0  0  0  0  0  0  0  0  0  0  0  0
  151.5453  142.0467  160.4538 H   0  0  0  0  0  0  0  0  0  0  0  0
  154.3323  140.9379  159.8717 H   0  0  0  0  0  0  0  0  0  0  0  0
  152.9181  139.9895  160.3249 H   0  0  0  0  0  0  0  0  0  0  0  0
  153.6140  141.1305  161.4690 H   0  0  0  0  0  0  0  0  0  0  0  0
  151.6231  140.8572  158.2862 H   0  0  0  0  0  0  0  0  0  0  0  0
  153.0152  141.7909  157.7943 H   0  0  0  0  0  0  0  0  0  0  0  0
  1  2  1  0  0  0  0
  1 21  1  0  0  0  0
  1 22  1  0  0  0  0
  1 23  1  0  0  0  0
  2  6  1  0  0  0  0
  2  3  2  0  0  0  0
  3  4  1  0  0  0  0
  4  5  2  0  0  0  0
  5  6  1  0  0  0  0
  5 24  1  0  0  0  0
  6  7  1  0  0  0  0
  7  8  1  0  0  0  0
  7 25  1  0  0  0  0
  7 26  1  0  0  0  0
  8  9  1  0  0  0  0
  8 27  1  0  0  0  0
  8 28  1  0  0  0  0
  9 10  1  0  0  0  0
  9 29  1  0  0  0  0
 10 11  2  0  0  0  0
 10 12  1  0  0  0  0
 12 13  1  0  0  0  0
 12 30  1  0  0  0  0
 12 31  1  0  0  0  0
 13 14  1  0  0  0  0
 14 20  1  0  0  0  0
 14 15  1  0  0  0  0
 14 32  1  0  0  0  0
 15 16  1  0  0  0  0
 15 33  1  0  0  0  0
 15 34  1  0  0  0  0
 16 17  1  0  0  0  0
 16 35  1  0  0  0  0
 16 36  1  0  0  0  0
 17 18  1  0  0  0  0
 17 37  1  0  0  0  0
 17 38  1  0  0  0  0
 18 19  1  0  0  0  0
 18 20  1  0  0  0  0
 18 39  1  0  0  0  0
 19 40  1  0  0  0  0
 19 41  1  0  0  0  0
 19 42  1  0  0  0  0
 20 43  1  0  0  0  0
 20 44  1  0  0  0  0
M  END
> <s_m_source_file>
AV-unprocessed.smi

> <i_m_source_file_index>
707

> <i_lp_mmshare_version>
43012

> <i_f3d_flags>
0

> <s_epik_input>
W0NIM11jMW5uW2NIXW4xW0NIMl1bQ0gyXVtOSF1DKD1PKVtDSDJdT1tDQEBIXTJbQ0gyXVtDSDJdW0NIMl1bQ0BASF0oW0NIM10pW0NIMl0y

> <s_epik_cmdline>
J2VwaWtfcHl0aG9uJywgJy1waCcsICc3LjAnLCAnLXRuJywgJzgnLCAnLW1hJywgJzIwMCcsICctbWV0YWxfYmluZGluZycsICctaW1hZScsICc8aW5maWxlLm1hZT4nLCAnLW9tYWUnLCAnPG91dGZpbGUubWFlPic=

> <r_lp_tautomer_probability>
1

> <r_epik_Ionization_Penalty>
0.000271783

> <r_epik_Ionization_Penalty_Charging>
0

> <r_epik_Ionization_Penalty_Neutral>
0.000271783

> <r_epik_State_Penalty>
-0

> <r_epik_Charging_Adjusted_Penalty>
0

> <i_epik_Tot_Q>
0

> <i_epik_Tot_abs_Q>
0

> <r_epik_Metal_State_Penalty>
-0

> <b_epik_Metal_Only>
0

> <s_lp_Force_Field>
OPLS_2005

> <r_lp_Energy>
13.3138

> <b_lp_Chiralities_Consistent>
1

> <s_lp_Variant>
AV-unprocessed.smi:707-3

> <Gold.Version>
5.8.1

> <Gold.Id.Protein>
6NUR|6NUR_protein|mol2

> <Gold.PLP.Fitness>
47.7052

> <Gold.PLP.PLP>
-43.9423

> <Gold.PLP.part.hbond>
-2.6263

> <Gold.PLP.part.metal>
0.0000

> <Gold.PLP.part.buried>
-5.9896

> <Gold.PLP.part.nonpolar>
-37.6498

> <Gold.PLP.part.repulsive>
2.6754

> <Gold.PLP.ligand.clash>
0.0000

> <Gold.PLP.ligand.torsion>
0.9012

> <Gold.PLP.Chemscore.Hbond>
0.9236

> <Gold.PLP.Chemscore.CHOScore>
0.9207

> <Gold.PLP.Chemscore.Metal>
0.0000

> <Gold.Chemscore.Hbonds>
donor molecule, donor type, donor heavy atom, donor atom, acceptor molecule, acceptor atom, score
      L1  H     9    29       P1  8028  0.03
      P1  H  7989  7998       L1    11  0.51
      P1  H  8011  8017       L1    11  0.40
      L1  C     5    24       P1 10174  0.70

> <Gold.PLP.Chemscore.Internal.Correction>
0.0326

> <Gold.Rescore>
     Score         DG    S(hbond)    S(metal)    S(lipo)     H(rot)  DE(clash)    DE(int)     intcor
     12.04     -14.03       1.10        0.00      94.63       2.42       1.15       0.84       ----

> <Gold.Chemscore.Fitness>
12.0418

> <Gold.Chemscore.DG>
-14.0332

> <Gold.Chemscore.ZeroCoef>
-5.4800

> <Gold.Chemscore.Hbond>
1.1000

> <Gold.Chemscore.Metal>
0.0000

> <Gold.Chemscore.Lipo>
94.6325

> <Gold.Chemscore.Internal_Hbond>
0.0000

> <Gold.Chemscore.DEClash>
1.1523

> <Gold.Chemscore.DEInternal>
0.8392

> <Gold.Chemscore.Rot>
2.4191

> <Gold.Chemscore.Internal.Correction>
   9.000000E+99

> <Gold.Chemscore.Hbonds>
donor molecule, donor type, donor heavy atom, donor atom, acceptor molecule, acceptor atom, score
      L1  H     9    29       P1  8028  0.04
      P1  H  7989  7998       L1    11  0.47
      P1  H  8011  8017       L1    11  0.22

> <Gold.Chemscore.Hbond.Weighted>
-3.6741

> <Gold.Chemscore.Metal.Weighted>
-0.0000

> <Gold.Chemscore.Lipo.Weighted>
-11.0720

> <Gold.Chemscore.Internal_Hbond.Weighted>
0.0000

> <Gold.Chemscore.DEClash.Weighted>
1.1523

> <Gold.Chemscore.DEInternal.Weighted>
0.8392

> <Gold.Chemscore.Rot.Weighted>
6.1929

> <Gold.Chemscore.Internal.Correction.Weighted>
   9.000000E+99

> <Gold.Protein.RotatedTorsions>
[ 6907 6896 6895 6894 ] final    0.97 input  -60.11 | X-H torsion
[ 7974 7965 7964 7962 ] final   -4.34 input  175.53 | X-H torsion
[ 8008 7997 7996 7995 ] final -170.08 input   59.86 | X-H torsion
[ 10167 10162 10161 10158 ] final -148.37 input  -65.29 | X-H torsion
[ 10718 10713 10712 10709 ] final  -19.67 input   66.30 | X-H torsion
[ 10763 10752 10751 10750 ] final -149.70 input  -60.55 | X-H torsion
[ 11005 11000 10999 10996 ] final   -4.35 input  -57.11 | X-H torsion

> <Gold.Protein.ActiveResidues>
 VAL166  LYS551  ARG553  GLY616  TRP617  ASP618  TYR619  PRO620  LYS621  CYS622 
 ASP623  PHE694  ASN695  SER759  ASP760  ASP761  ALA762  ILE779  LEU786  VAL792 
 PHE793  MET794  SER795  GLU796  ALA797  LYS798  CYS799  TRP800  GLU811  SER814 

> <Gold.Protein.RotatedAtoms>
  151.5850  135.1056  160.0025 H   0  0  0  0  0  0  0  0  0  0  0  0  # atno 6907 bound_to 6896
  152.4335  133.7315  159.6600 H   0  0  0  0  0  0  0  0  0  0  0  0  # atno 6908 bound_to 6896
  150.8230  133.8150  159.3154 H   0  0  0  0  0  0  0  0  0  0  0  0  # atno 6909 bound_to 6896
  146.2374  140.1857  142.8332 H   0  0  0  0  0  0  0  0  0  0  0  0  # atno 7974 bound_to 7965
  155.9136  140.1061  157.1261 H   0  0  0  0  0  0  0  0  0  0  0  0  # atno 8008 bound_to 7997
  154.4043  140.1269  156.4653 H   0  0  0  0  0  0  0  0  0  0  0  0  # atno 8009 bound_to 7997
  155.7281  140.3469  155.5049 H   0  0  0  0  0  0  0  0  0  0  0  0  # atno 8010 bound_to 7997
  139.7538  143.8478  152.2592 H   0  0  0  0  0  0  0  0  0  0  0  0  # atno 10167 bound_to 10162
  156.5425  130.4681  149.6492 H   0  0  0  0  0  0  0  0  0  0  0  0  # atno 10718 bound_to 10713
  154.8162  135.3303  154.7169 H   0  0  0  0  0  0  0  0  0  0  0  0  # atno 10763 bound_to 10752
  153.7809  135.6918  153.4893 H   0  0  0  0  0  0  0  0  0  0  0  0  # atno 10764 bound_to 10752
  153.1981  135.4526  155.0180 H   0  0  0  0  0  0  0  0  0  0  0  0  # atno 10765 bound_to 10752
  140.6793  133.9168  155.8544 H   0  0  0  0  0  0  0  0  0  0  0  0  # atno 11005 bound_to 11000
  144.9898  140.8537  143.5346 LP  0  0  0  0  0  0  0  0  0  0  0  0  # atno 17320 bound_to 7965
  145.1861  139.2325  143.5267 LP  0  0  0  0  0  0  0  0  0  0  0  0  # atno 17321 bound_to 7965
  139.8464  144.7185  150.9267 LP  0  0  0  0  0  0  0  0  0  0  0  0  # atno 17342 bound_to 10162
  140.7800  143.3937  151.1266 LP  0  0  0  0  0  0  0  0  0  0  0  0  # atno 17343 bound_to 10162
  156.2959  130.7150  151.2010 LP  0  0  0  0  0  0  0  0  0  0  0  0  # atno 17370 bound_to 10713
  157.7403  131.0519  150.5177 LP  0  0  0  0  0  0  0  0  0  0  0  0  # atno 17371 bound_to 10713
  141.0330  134.0728  157.3991 LP  0  0  0  0  0  0  0  0  0  0  0  0  # atno 17394 bound_to 11000
  139.8957  135.0142  156.7014 LP  0  0  0  0  0  0  0  0  0  0  0  0  # atno 17395 bound_to 11000

$$$$
