AV-unprocessed.smi:784|AV-procd|sdf|3718|dock9
  -GOLD-   22720 1143D 1   1.00000     0.00000
 Structure written by MMmdl.
 38 39  0  0  0  0  0  0  0  0  1 V2000
  144.3609  143.7778  154.7336 C   0  0  0  0  0  0  0  0  0  0  0  0
  145.6485  143.0228  154.8831 C   0  0  0  0  0  0  0  0  0  0  0  0
  146.5782  142.6507  153.8735 C   0  0  0  0  0  0  0  0  0  0  0  0
  147.5576  141.9948  154.5636 C   0  0  0  0  0  0  0  0  0  0  0  0
  148.8327  141.3444  154.1477 C   0  0  0  0  0  0  0  0  0  0  0  0
  149.8038  140.8912  155.6471 S   0  0  0  0  0  0  0  0  0  0  0  0
  148.9353  140.1133  156.5439 O   0  0  0  0  0  0  0  0  0  0  0  0
  151.1053  140.3500  155.2264 O   0  0  0  0  0  0  0  0  0  0  0  0
  150.0852  142.4170  156.4017 N   0  0  0  0  0  0  0  0  0  0  0  0
  151.3100  142.6755  157.1627 C   0  0  0  0  0  0  0  0  0  0  0  0
  151.3532  141.7268  158.3774 C   0  0  0  0  0  0  0  0  0  0  0  0
  152.7361  141.6689  159.0475 C   0  0  0  0  0  0  0  0  0  0  0  0
  153.0002  142.7428  160.1177 C   0  0  0  0  0  0  0  0  0  0  0  0
  152.4750  144.1582  159.8183 C   0  0  0  0  0  0  0  0  0  0  0  0
  152.5798  144.6046  158.3509 C   0  0  0  0  0  0  0  0  0  0  0  0
  151.3660  144.1746  157.5095 C   0  0  0  0  0  0  0  0  0  0  0  0
  147.2569  141.9618  155.8871 O   0  0  0  0  0  0  0  0  0  0  0  0
  146.0380  142.6205  156.0813 N   0  0  0  0  0  0  0  0  0  0  0  0
  144.0333  143.7944  153.6941 H   0  0  0  0  0  0  0  0  0  0  0  0
  144.4741  144.8110  155.0622 H   0  0  0  0  0  0  0  0  0  0  0  0
  143.5640  143.3243  155.3240 H   0  0  0  0  0  0  0  0  0  0  0  0
  146.5359  142.8401  152.8115 H   0  0  0  0  0  0  0  0  0  0  0  0
  148.6355  140.4426  153.5683 H   0  0  0  0  0  0  0  0  0  0  0  0
  149.4302  142.0193  153.5354 H   0  0  0  0  0  0  0  0  0  0  0  0
  149.6892  143.2185  155.9109 H   0  0  0  0  0  0  0  0  0  0  0  0
  152.1602  142.4410  156.5209 H   0  0  0  0  0  0  0  0  0  0  0  0
  150.5787  141.9776  159.1033 H   0  0  0  0  0  0  0  0  0  0  0  0
  151.1185  140.7202  158.0274 H   0  0  0  0  0  0  0  0  0  0  0  0
  152.8595  140.6928  159.5180 H   0  0  0  0  0  0  0  0  0  0  0  0
  153.5124  141.7152  158.2829 H   0  0  0  0  0  0  0  0  0  0  0  0
  152.5708  142.4159  161.0654 H   0  0  0  0  0  0  0  0  0  0  0  0
  154.0763  142.7911  160.2880 H   0  0  0  0  0  0  0  0  0  0  0  0
  151.4385  144.2399  160.1480 H   0  0  0  0  0  0  0  0  0  0  0  0
  153.0284  144.8601  160.4430 H   0  0  0  0  0  0  0  0  0  0  0  0
  152.6207  145.6942  158.3354 H   0  0  0  0  0  0  0  0  0  0  0  0
  153.5133  144.2655  157.9003 H   0  0  0  0  0  0  0  0  0  0  0  0
  151.3803  144.7421  156.5781 H   0  0  0  0  0  0  0  0  0  0  0  0
  150.4490  144.4725  158.0195 H   0  0  0  0  0  0  0  0  0  0  0  0
  1  2  1  0  0  0  0
  1 19  1  0  0  0  0
  1 20  1  0  0  0  0
  1 21  1  0  0  0  0
  2 18  2  0  0  0  0
  2  3  1  0  0  0  0
  3  4  2  0  0  0  0
  3 22  1  0  0  0  0
  4  5  1  0  0  0  0
  4 17  1  0  0  0  0
  5  6  1  0  0  0  0
  5 23  1  0  0  0  0
  5 24  1  0  0  0  0
  6  7  2  0  0  0  0
  6  8  2  0  0  0  0
  6  9  1  0  0  0  0
  9 10  1  0  0  0  0
  9 25  1  0  0  0  0
 10 16  1  0  0  0  0
 10 11  1  0  0  0  0
 10 26  1  0  0  0  0
 11 12  1  0  0  0  0
 11 27  1  0  0  0  0
 11 28  1  0  0  0  0
 12 13  1  0  0  0  0
 12 29  1  0  0  0  0
 12 30  1  0  0  0  0
 13 14  1  0  0  0  0
 13 31  1  0  0  0  0
 13 32  1  0  0  0  0
 14 15  1  0  0  0  0
 14 33  1  0  0  0  0
 14 34  1  0  0  0  0
 15 16  1  0  0  0  0
 15 35  1  0  0  0  0
 15 36  1  0  0  0  0
 16 37  1  0  0  0  0
 16 38  1  0  0  0  0
 17 18  1  0  0  0  0
M  END
> <s_m_source_file>
AV-unprocessed.smi

> <i_m_source_file_index>
784

> <i_lp_mmshare_version>
43012

> <i_f3d_flags>
0

> <s_epik_input>
W0NIM11jMVtjSF1jKG9uMSlbQ0gyXVMoPU8pKD1PKVtOSF1bQ0hdMltDSDJdW0NIMl1bQ0gyXVtDSDJdW0NIMl1bQ0gyXTI=

> <s_epik_cmdline>
J2VwaWtfcHl0aG9uJywgJy1waCcsICc3LjAnLCAnLXRuJywgJzgnLCAnLW1hJywgJzIwMCcsICctbWV0YWxfYmluZGluZycsICctaW1hZScsICc8aW5maWxlLm1hZT4nLCAnLW9tYWUnLCAnPG91dGZpbGUubWFlPic=

> <r_lp_tautomer_probability>
1

> <r_epik_Ionization_Penalty>
4.92328e-05

> <r_epik_Ionization_Penalty_Charging>
0

> <r_epik_Ionization_Penalty_Neutral>
4.92328e-05

> <r_epik_State_Penalty>
-0

> <r_epik_Charging_Adjusted_Penalty>
0

> <i_epik_Tot_Q>
0

> <i_epik_Tot_abs_Q>
0

> <r_epik_Metal_State_Penalty>
0.0438012

> <b_epik_Metal_Only>
0

> <s_lp_Force_Field>
OPLS_2005

> <r_lp_Energy>
5.5121

> <b_lp_Chiralities_Consistent>
1

> <s_lp_Variant>
AV-unprocessed.smi:784-1

> <Gold.Version>
5.8.1

> <Gold.Id.Protein>
6NUR|6NUR_protein|mol2

> <Gold.PLP.Fitness>
47.9270

> <Gold.PLP.PLP>
-42.3154

> <Gold.PLP.part.hbond>
-2.0000

> <Gold.PLP.part.metal>
0.0000

> <Gold.PLP.part.buried>
-3.8286

> <Gold.PLP.part.nonpolar>
-36.6741

> <Gold.PLP.part.repulsive>
0.4095

> <Gold.PLP.ligand.clash>
0.0000

> <Gold.PLP.ligand.torsion>
0.7478

> <Gold.PLP.Chemscore.Hbond>
2.0000

> <Gold.PLP.Chemscore.CHOScore>
0.0000

> <Gold.PLP.Chemscore.Metal>
0.0000

> <Gold.Chemscore.Hbonds>
donor molecule, donor type, donor heavy atom, donor atom, acceptor molecule, acceptor atom, score
      L1  H     9    25       P1  8028  1.00
      P1  H  7989  7998       L1     8  1.00

> <Gold.PLP.Chemscore.Internal.Correction>
1.1072

> <Gold.Rescore>
     Score         DG    S(hbond)    S(metal)    S(lipo)     H(rot)  DE(clash)    DE(int)     intcor
     18.21     -20.92       1.92        0.00     107.12       1.37       0.01       2.70       ----

> <Gold.Chemscore.Fitness>
18.2126

> <Gold.Chemscore.DG>
-20.9243

> <Gold.Chemscore.ZeroCoef>
-5.4800

> <Gold.Chemscore.Hbond>
1.9246

> <Gold.Chemscore.Metal>
0.0000

> <Gold.Chemscore.Lipo>
107.1204

> <Gold.Chemscore.Internal_Hbond>
0.0000

> <Gold.Chemscore.DEClash>
0.0135

> <Gold.Chemscore.DEInternal>
2.6982

> <Gold.Chemscore.Rot>
1.3738

> <Gold.Chemscore.Internal.Correction>
   9.000000E+99

> <Gold.Chemscore.Hbonds>
donor molecule, donor type, donor heavy atom, donor atom, acceptor molecule, acceptor atom, score
      L1  H     9    25       P1  8028  1.00
      P1  H  7989  7998       L1     8  0.85

> <Gold.Chemscore.Hbond.Weighted>
-6.4281

> <Gold.Chemscore.Metal.Weighted>
-0.0000

> <Gold.Chemscore.Lipo.Weighted>
-12.5331

> <Gold.Chemscore.Internal_Hbond.Weighted>
0.0000

> <Gold.Chemscore.DEClash.Weighted>
0.0135

> <Gold.Chemscore.DEInternal.Weighted>
2.6982

> <Gold.Chemscore.Rot.Weighted>
3.5168

> <Gold.Chemscore.Internal.Correction.Weighted>
   9.000000E+99

> <Gold.Protein.RotatedTorsions>
[ 6907 6896 6895 6894 ] final   82.09 input  -60.11 | X-H torsion
[ 7974 7965 7964 7962 ] final  125.71 input  175.53 | X-H torsion
[ 8008 7997 7996 7995 ] final  -70.84 input   59.86 | X-H torsion
[ 10167 10162 10161 10158 ] final -166.70 input  -65.29 | X-H torsion
[ 10718 10713 10712 10709 ] final  114.54 input   66.30 | X-H torsion
[ 10763 10752 10751 10750 ] final  -98.84 input  -60.55 | X-H torsion
[ 11005 11000 10999 10996 ] final   32.87 input  -57.11 | X-H torsion

> <Gold.Protein.ActiveResidues>
 VAL166  LYS551  ARG553  GLY616  TRP617  ASP618  TYR619  PRO620  LYS621  CYS622 
 ASP623  PHE694  ASN695  SER759  ASP760  ASP761  ALA762  ILE779  LEU786  VAL792 
 PHE793  MET794  SER795  GLU796  ALA797  LYS798  CYS799  TRP800  GLU811  SER814 

> <Gold.Protein.RotatedAtoms>
  152.5289  134.3103  159.9110 H   0  0  0  0  0  0  0  0  0  0  0  0  # atno 6907 bound_to 6896
  151.3052  133.4098  159.2650 H   0  0  0  0  0  0  0  0  0  0  0  0  # atno 6908 bound_to 6896
  151.0085  134.9394  159.8051 H   0  0  0  0  0  0  0  0  0  0  0  0  # atno 6909 bound_to 6896
  145.0699  139.3738  143.4963 H   0  0  0  0  0  0  0  0  0  0  0  0  # atno 7974 bound_to 7965
  154.5042  140.0827  156.7860 H   0  0  0  0  0  0  0  0  0  0  0  0  # atno 8008 bound_to 7997
  155.3933  140.3433  155.4234 H   0  0  0  0  0  0  0  0  0  0  0  0  # atno 8009 bound_to 7997
  156.1494  140.1554  156.8781 H   0  0  0  0  0  0  0  0  0  0  0  0  # atno 8010 bound_to 7997
  139.6098  144.0839  152.1830 H   0  0  0  0  0  0  0  0  0  0  0  0  # atno 10167 bound_to 10162
  157.6275  131.1000  150.7201 H   0  0  0  0  0  0  0  0  0  0  0  0  # atno 10718 bound_to 10713
  154.7448  135.4994  153.9185 H   0  0  0  0  0  0  0  0  0  0  0  0  # atno 10763 bound_to 10752
  153.1081  135.6702  153.9558 H   0  0  0  0  0  0  0  0  0  0  0  0  # atno 10764 bound_to 10752
  153.9325  135.3076  155.3424 H   0  0  0  0  0  0  0  0  0  0  0  0  # atno 10765 bound_to 10752
  140.2690  134.3104  155.7834 H   0  0  0  0  0  0  0  0  0  0  0  0  # atno 11005 bound_to 11000
  146.3528  140.0439  142.8641 LP  0  0  0  0  0  0  0  0  0  0  0  0  # atno 17320 bound_to 7965
  145.1305  140.9515  143.4547 LP  0  0  0  0  0  0  0  0  0  0  0  0  # atno 17321 bound_to 7965
  140.0454  144.5974  150.7377 LP  0  0  0  0  0  0  0  0  0  0  0  0  # atno 17342 bound_to 10162
  140.7311  143.2690  151.3949 LP  0  0  0  0  0  0  0  0  0  0  0  0  # atno 17343 bound_to 10162
  156.7546  130.4779  149.5449 LP  0  0  0  0  0  0  0  0  0  0  0  0  # atno 17370 bound_to 10713
  156.1456  130.6275  151.0527 LP  0  0  0  0  0  0  0  0  0  0  0  0  # atno 17371 bound_to 10713
  141.2180  133.7455  156.9305 LP  0  0  0  0  0  0  0  0  0  0  0  0  # atno 17394 bound_to 11000
  140.1391  134.9305  157.2443 LP  0  0  0  0  0  0  0  0  0  0  0  0  # atno 17395 bound_to 11000

$$$$
