AV-unprocessed.smi:3351|AV-procd|sdf|12950|dock7
  -GOLD-   2272019383D 1   1.00000     0.00000
 Structure written by MMmdl.
 34 35  0  0  0  0  0  0  0  0  1 V2000
  153.9862  140.4429  161.0001 C   0  0  0  0  0  0  0  0  0  0  0  0
  153.0694  141.3415  160.1539 C   0  0  1  0  0  0  0  0  0  0  0  0
  153.4973  142.8250  160.1620 C   0  0  0  0  0  0  0  0  0  0  0  0
  152.4714  143.7080  159.6399 N   0  0  0  0  0  0  0  0  0  0  0  0
  152.0862  143.8488  158.3134 C   0  0  0  0  0  0  0  0  0  0  0  0
  151.0870  144.7958  158.2926 C   0  0  0  0  0  0  0  0  0  0  0  0
  150.8468  145.2522  159.5866 N   0  0  0  0  0  0  0  0  0  0  0  0
  151.7056  144.5655  160.3289 C   0  0  0  0  0  0  0  0  0  0  0  0
  153.0354  140.8347  158.7848 N   0  0  0  0  0  0  0  0  0  0  0  0
  151.9807  140.2468  158.1995 C   0  0  0  0  0  0  0  0  0  0  0  0
  150.8962  140.0901  158.7621 O   0  0  0  0  0  0  0  0  0  0  0  0
  152.1814  139.7944  156.7477 C   0  0  0  0  0  0  0  0  0  0  0  0
  151.0318  140.0946  155.8924 N   0  0  0  0  0  0  0  0  0  0  0  0
  150.6186  139.1250  154.8853 C   0  0  0  0  0  0  0  0  0  0  0  0
  149.2234  139.5196  154.3970 C   0  0  0  0  0  0  0  0  0  0  0  0
  149.0059  141.2796  154.7259 S   0  0  0  0  0  0  0  0  0  0  0  0
  150.3439  141.3007  155.9230 C   0  0  0  0  0  0  0  0  0  0  0  0
  150.5705  142.2753  156.6380 O   0  0  0  0  0  0  0  0  0  0  0  0
  153.9628  140.7256  162.0527 H   0  0  0  0  0  0  0  0  0  0  0  0
  155.0211  140.5021  160.6620 H   0  0  0  0  0  0  0  0  0  0  0  0
  153.6751  139.3994  160.9401 H   0  0  0  0  0  0  0  0  0  0  0  0
  152.0649  141.2664  160.5749 H   0  0  0  0  0  0  0  0  0  0  0  0
  153.7448  143.1416  161.1765 H   0  0  0  0  0  0  0  0  0  0  0  0
  154.3977  142.9669  159.5626 H   0  0  0  0  0  0  0  0  0  0  0  0
  152.5409  143.2780  157.5170 H   0  0  0  0  0  0  0  0  0  0  0  0
  150.5285  145.1819  157.4529 H   0  0  0  0  0  0  0  0  0  0  0  0
  151.7761  144.6863  161.4000 H   0  0  0  0  0  0  0  0  0  0  0  0
  153.8846  140.9253  158.2458 H   0  0  0  0  0  0  0  0  0  0  0  0
  153.0739  140.2838  156.3560 H   0  0  0  0  0  0  0  0  0  0  0  0
  152.3809  138.7218  156.7179 H   0  0  0  0  0  0  0  0  0  0  0  0
  151.3313  139.1619  154.0605 H   0  0  0  0  0  0  0  0  0  0  0  0
  150.6225  138.1084  155.2802 H   0  0  0  0  0  0  0  0  0  0  0  0
  149.0774  139.2945  153.3405 H   0  0  0  0  0  0  0  0  0  0  0  0
  148.4646  138.9768  154.9615 H   0  0  0  0  0  0  0  0  0  0  0  0
  1  2  1  0  0  0  0
  1 19  1  0  0  0  0
  1 20  1  0  0  0  0
  1 21  1  0  0  0  0
  2  3  1  0  0  0  0
  2  9  1  0  0  0  0
  2 22  1  0  0  0  0
  3  4  1  0  0  0  0
  3 23  1  0  0  0  0
  3 24  1  0  0  0  0
  4  8  1  0  0  0  0
  4  5  1  0  0  0  0
  5  6  2  0  0  0  0
  5 25  1  0  0  0  0
  6  7  1  0  0  0  0
  6 26  1  0  0  0  0
  7  8  2  0  0  0  0
  8 27  1  0  0  0  0
  9 10  1  0  0  0  0
  9 28  1  0  0  0  0
 10 11  2  0  0  0  0
 10 12  1  0  0  0  0
 12 13  1  0  0  0  0
 12 29  1  0  0  0  0
 12 30  1  0  0  0  0
 13 17  1  0  0  0  0
 13 14  1  0  0  0  0
 14 15  1  0  0  0  0
 14 31  1  0  0  0  0
 14 32  1  0  0  0  0
 15 16  1  0  0  0  0
 15 33  1  0  0  0  0
 15 34  1  0  0  0  0
 16 17  1  0  0  0  0
 17 18  2  0  0  0  0
M  END
> <s_m_source_file>
AV-unprocessed.smi

> <i_m_source_file_index>
3351

> <i_lp_mmshare_version>
43012

> <i_f3d_flags>
0

> <s_epik_input>
W2NIXTFuW2NIXVtjSF1uMVtDSDJdW0NAQEhdKFtDSDNdKVtOSF1DKD1PKVtDSDJdTjJbQ0gyXVtDSDJdU0MyPU8=

> <s_epik_cmdline>
J2VwaWtfcHl0aG9uJywgJy1waCcsICc3LjAnLCAnLXRuJywgJzgnLCAnLW1hJywgJzIwMCcsICctbWV0YWxfYmluZGluZycsICctaW1hZScsICc8aW5maWxlLm1hZT4nLCAnLW9tYWUnLCAnPG91dGZpbGUubWFlPic=

> <r_lp_tautomer_probability>
1

> <r_epik_Ionization_Penalty>
0.618163

> <r_epik_Ionization_Penalty_Charging>
0.618163

> <r_epik_Ionization_Penalty_Neutral>
6.6929e-08

> <r_epik_State_Penalty>
0.633954

> <r_epik_Charging_Adjusted_Penalty>
1.25212

> <i_epik_Tot_Q>
0

> <i_epik_Tot_abs_Q>
0

> <r_epik_Metal_State_Penalty>
0.305924

> <b_epik_Metal_Only>
0

> <s_lp_Force_Field>
OPLS_2005

> <r_lp_Energy>
4.61171

> <b_lp_Chiralities_Consistent>
1

> <s_lp_Variant>
AV-unprocessed.smi:3351-4

> <Gold.Version>
5.8.1

> <Gold.Id.Protein>
6NUR|6NUR_protein|mol2

> <Gold.PLP.Fitness>
43.9707

> <Gold.PLP.PLP>
-42.5108

> <Gold.PLP.part.hbond>
-0.0585

> <Gold.PLP.part.metal>
0.0000

> <Gold.PLP.part.buried>
-4.0742

> <Gold.PLP.part.nonpolar>
-38.5397

> <Gold.PLP.part.repulsive>
0.3713

> <Gold.PLP.ligand.clash>
0.0000

> <Gold.PLP.ligand.torsion>
0.7876

> <Gold.PLP.Chemscore.Hbond>
0.0000

> <Gold.PLP.Chemscore.CHOScore>
0.9981

> <Gold.PLP.Chemscore.Metal>
0.0000

> <Gold.Chemscore.Hbonds>
donor molecule, donor type, donor heavy atom, donor atom, acceptor molecule, acceptor atom, score
      L1  C     6    26       P1  8028  0.76
      L1  C     6    26       P1  8029  0.06

> <Gold.PLP.Chemscore.Internal.Correction>
0.0408

> <Gold.Rescore>
     Score         DG    S(hbond)    S(metal)    S(lipo)     H(rot)  DE(clash)    DE(int)     intcor
      8.14      -8.96       0.00        0.00      80.76       2.33       0.04       0.78       ----

> <Gold.Chemscore.Fitness>
8.1424

> <Gold.Chemscore.DG>
-8.9598

> <Gold.Chemscore.ZeroCoef>
-5.4800

> <Gold.Chemscore.Hbond>
0.0000

> <Gold.Chemscore.Metal>
0.0000

> <Gold.Chemscore.Lipo>
80.7607

> <Gold.Chemscore.Internal_Hbond>
0.0000

> <Gold.Chemscore.DEClash>
0.0392

> <Gold.Chemscore.DEInternal>
0.7782

> <Gold.Chemscore.Rot>
2.3317

> <Gold.Chemscore.Internal.Correction>
   9.000000E+99

> <Gold.Chemscore.Hbond.Weighted>
-0.0000

> <Gold.Chemscore.Metal.Weighted>
-0.0000

> <Gold.Chemscore.Lipo.Weighted>
-9.4490

> <Gold.Chemscore.Internal_Hbond.Weighted>
0.0000

> <Gold.Chemscore.DEClash.Weighted>
0.0392

> <Gold.Chemscore.DEInternal.Weighted>
0.7782

> <Gold.Chemscore.Rot.Weighted>
5.9692

> <Gold.Chemscore.Internal.Correction.Weighted>
   9.000000E+99

> <Gold.Protein.RotatedTorsions>
[ 6907 6896 6895 6894 ] final    6.76 input  -60.11 | X-H torsion
[ 7974 7965 7964 7962 ] final  -76.70 input  175.53 | X-H torsion
[ 8008 7997 7996 7995 ] final   19.08 input   59.86 | X-H torsion
[ 10167 10162 10161 10158 ] final  -52.56 input  -65.29 | X-H torsion
[ 10718 10713 10712 10709 ] final -166.71 input   66.30 | X-H torsion
[ 10763 10752 10751 10750 ] final  171.18 input  -60.55 | X-H torsion
[ 11005 11000 10999 10996 ] final  133.02 input  -57.11 | X-H torsion

> <Gold.Protein.ActiveResidues>
 VAL166  LYS551  ARG553  GLY616  TRP617  ASP618  TYR619  PRO620  LYS621  CYS622 
 ASP623  PHE694  ASN695  SER759  ASP760  ASP761  ALA762  ILE779  LEU786  VAL792 
 PHE793  MET794  SER795  GLU796  ALA797  LYS798  CYS799  TRP800  GLU811  SER814 

> <Gold.Protein.RotatedAtoms>
  151.6789  135.0965  160.0211 H   0  0  0  0  0  0  0  0  0  0  0  0  # atno 6907 bound_to 6896
  152.3847  133.6591  159.6198 H   0  0  0  0  0  0  0  0  0  0  0  0  # atno 6908 bound_to 6896
  150.7776  133.8971  159.3371 H   0  0  0  0  0  0  0  0  0  0  0  0  # atno 6909 bound_to 6896
  145.6094  140.9390  143.1198 H   0  0  0  0  0  0  0  0  0  0  0  0  # atno 7974 bound_to 7965
  154.9154  140.3020  155.5244 H   0  0  0  0  0  0  0  0  0  0  0  0  # atno 8008 bound_to 7997
  156.3013  140.2381  156.4134 H   0  0  0  0  0  0  0  0  0  0  0  0  # atno 8009 bound_to 7997
  154.8384  140.0415  157.1513 H   0  0  0  0  0  0  0  0  0  0  0  0  # atno 8010 bound_to 7997
  140.6531  143.2580  151.4665 H   0  0  0  0  0  0  0  0  0  0  0  0  # atno 10167 bound_to 10162
  156.6718  130.9087  151.3045 H   0  0  0  0  0  0  0  0  0  0  0  0  # atno 10718 bound_to 10713
  154.4082  135.2756  155.2054 H   0  0  0  0  0  0  0  0  0  0  0  0  # atno 10763 bound_to 10752
  154.4051  135.6035  153.5923 H   0  0  0  0  0  0  0  0  0  0  0  0  # atno 10764 bound_to 10752
  152.9831  135.5936  154.4359 H   0  0  0  0  0  0  0  0  0  0  0  0  # atno 10765 bound_to 10752
  139.9826  134.9543  156.9666 H   0  0  0  0  0  0  0  0  0  0  0  0  # atno 11005 bound_to 11000
  144.7276  139.7826  143.7359 LP  0  0  0  0  0  0  0  0  0  0  0  0  # atno 17320 bound_to 7965
  146.1516  139.4601  143.0045 LP  0  0  0  0  0  0  0  0  0  0  0  0  # atno 17321 bound_to 7965
  139.5749  144.1842  152.1889 LP  0  0  0  0  0  0  0  0  0  0  0  0  # atno 17342 bound_to 10162
  140.1150  144.5424  150.6900 LP  0  0  0  0  0  0  0  0  0  0  0  0  # atno 17343 bound_to 10162
  157.7074  130.9401  150.0977 LP  0  0  0  0  0  0  0  0  0  0  0  0  # atno 17370 bound_to 10713
  156.1933  130.3656  149.8881 LP  0  0  0  0  0  0  0  0  0  0  0  0  # atno 17371 bound_to 10713
  140.5066  134.1044  155.7261 LP  0  0  0  0  0  0  0  0  0  0  0  0  # atno 17394 bound_to 11000
  141.1496  133.8993  157.2131 LP  0  0  0  0  0  0  0  0  0  0  0  0  # atno 17395 bound_to 11000

$$$$
