AV-unprocessed.smi:1221|AV-procd|sdf|5119|dock6
  -GOLD-   22720 4173D 1   1.00000     0.00000
 Structure written by MMmdl.
 39 40  0  0  0  0  0  0  0  0  2 V2000
  143.7346  143.4532  162.8676 C   0  0  0  0  0  0  0  0  0  0  0  0
  144.8732  143.2254  161.9332 C   0  0  0  0  0  0  0  0  0  0  0  0
  145.4120  143.9753  160.9265 C   0  0  0  0  0  0  0  0  0  0  0  0
  146.4770  143.1627  160.4499 C   0  0  0  0  0  0  0  0  0  0  0  0
  147.3056  143.4583  159.4367 N   0  5  0  0  0  0  0  0  0  0  0  0
  147.8487  142.4715  158.6865 C   0  0  0  0  0  0  0  0  0  0  0  0
  147.4476  141.3083  158.6051 O   0  0  0  0  0  0  0  0  0  0  0  0
  148.9266  142.8580  157.9894 N   0  0  0  0  0  0  0  0  0  0  0  0
  149.7212  142.0151  157.1036 C   0  0  0  0  0  0  0  0  0  0  0  0
  151.0685  142.6743  156.7565 C   0  0  0  0  0  0  0  0  0  0  0  0
  151.7890  143.0865  157.9666 N   0  0  0  0  0  0  0  0  0  0  0  0
  152.1013  144.5206  158.0744 C   0  0  0  0  0  0  0  0  0  0  0  0
  151.3010  145.2557  159.1744 C   0  0  0  0  0  0  0  0  0  0  0  0
  150.8824  144.4108  160.3941 C   0  0  0  0  0  0  0  0  0  0  0  0
  152.0280  143.6348  161.0770 C   0  0  0  0  0  0  0  0  0  0  0  0
  152.8814  142.7201  160.1663 C   0  0  0  0  0  0  0  0  0  0  0  0
  152.1433  142.1947  158.9241 C   0  0  0  0  0  0  0  0  0  0  0  0
  151.9016  140.9900  158.8441 O   0  0  0  0  0  0  0  0  0  0  0  0
  146.5660  142.0144  161.0997 N   0  0  0  0  0  0  0  0  0  0  0  0
  145.5446  142.0490  162.0564 O   0  0  0  0  0  0  0  0  0  0  0  0
  142.7830  143.3354  162.3497 H   0  0  0  0  0  0  0  0  0  0  0  0
  143.7716  144.4600  163.2836 H   0  0  0  0  0  0  0  0  0  0  0  0
  143.7586  142.7451  163.6964 H   0  0  0  0  0  0  0  0  0  0  0  0
  145.0976  144.9501  160.5856 H   0  0  0  0  0  0  0  0  0  0  0  0
  149.2175  143.8197  158.0854 H   0  0  0  0  0  0  0  0  0  0  0  0
  149.8704  141.0302  157.5493 H   0  0  0  0  0  0  0  0  0  0  0  0
  149.1407  141.8583  156.1943 H   0  0  0  0  0  0  0  0  0  0  0  0
  151.6816  141.9839  156.1753 H   0  0  0  0  0  0  0  0  0  0  0  0
  150.9098  143.5331  156.1015 H   0  0  0  0  0  0  0  0  0  0  0  0
  153.1697  144.6393  158.2556 H   0  0  0  0  0  0  0  0  0  0  0  0
  151.9432  145.0259  157.1207 H   0  0  0  0  0  0  0  0  0  0  0  0
  151.8756  146.1205  159.5081 H   0  0  0  0  0  0  0  0  0  0  0  0
  150.3934  145.6625  158.7271 H   0  0  0  0  0  0  0  0  0  0  0  0
  150.4131  145.0647  161.1297 H   0  0  0  0  0  0  0  0  0  0  0  0
  150.0978  143.7134  160.0970 H   0  0  0  0  0  0  0  0  0  0  0  0
  152.6905  144.3456  161.5721 H   0  0  0  0  0  0  0  0  0  0  0  0
  151.6001  143.0299  161.8772 H   0  0  0  0  0  0  0  0  0  0  0  0
  153.7814  143.2445  159.8463 H   0  0  0  0  0  0  0  0  0  0  0  0
  153.2468  141.8743  160.7502 H   0  0  0  0  0  0  0  0  0  0  0  0
  1  2  1  0  0  0  0
  1 21  1  0  0  0  0
  1 22  1  0  0  0  0
  1 23  1  0  0  0  0
  2 20  1  0  0  0  0
  2  3  2  0  0  0  0
  3  4  1  0  0  0  0
  3 24  1  0  0  0  0
  4  5  1  0  0  0  0
  4 19  2  0  0  0  0
  5  6  1  0  0  0  0
  6  7  2  0  0  0  0
  6  8  1  0  0  0  0
  8  9  1  0  0  0  0
  8 25  1  0  0  0  0
  9 10  1  0  0  0  0
  9 26  1  0  0  0  0
  9 27  1  0  0  0  0
 10 11  1  0  0  0  0
 10 28  1  0  0  0  0
 10 29  1  0  0  0  0
 11 17  1  0  0  0  0
 11 12  1  0  0  0  0
 12 13  1  0  0  0  0
 12 30  1  0  0  0  0
 12 31  1  0  0  0  0
 13 14  1  0  0  0  0
 13 32  1  0  0  0  0
 13 33  1  0  0  0  0
 14 15  1  0  0  0  0
 14 34  1  0  0  0  0
 14 35  1  0  0  0  0
 15 16  1  0  0  0  0
 15 36  1  0  0  0  0
 15 37  1  0  0  0  0
 16 17  1  0  0  0  0
 16 38  1  0  0  0  0
 16 39  1  0  0  0  0
 17 18  2  0  0  0  0
 19 20  1  0  0  0  0
M  CHG  1   5  -1
M  END
> <s_m_source_file>
AV-unprocessed.smi

> <i_m_source_file_index>
1221

> <i_lp_mmshare_version>
43012

> <i_f3d_flags>
0

> <s_epik_input>
W0NIM11jMVtjSF1jKG5vMSlbTkhdQyg9TylbTkhdW0NIMl1bQ0gyXU4yW0NIMl1bQ0gyXVtDSDJdW0NIMl1bQ0gyXUMyPU8=

> <s_epik_cmdline>
J2VwaWtfcHl0aG9uJywgJy1waCcsICc3LjAnLCAnLXRuJywgJzgnLCAnLW1hJywgJzIwMCcsICctbWV0YWxfYmluZGluZycsICctaW1hZScsICc8aW5maWxlLm1hZT4nLCAnLW9tYWUnLCAnPG91dGZpbGUubWFlPic=

> <r_lp_tautomer_probability>
1

> <r_epik_Ionization_Penalty>
6.46803

> <r_epik_Ionization_Penalty_Charging>
6.46791

> <r_epik_Ionization_Penalty_Neutral>
0.00012322

> <r_epik_State_Penalty>
6.4679

> <r_epik_Charging_Adjusted_Penalty>
12.9358

> <i_epik_Tot_Q>
-1

> <i_epik_Tot_abs_Q>
1

> <r_epik_Metal_State_Penalty>
2.39627

> <b_epik_Metal_Only>
1

> <s_lp_Force_Field>
OPLS_2005

> <r_lp_Energy>
15.4009

> <b_lp_Chiralities_Consistent>
1

> <s_lp_Variant>
AV-unprocessed.smi:1221-2

> <Gold.Version>
5.8.1

> <Gold.Id.Protein>
6NUR|6NUR_protein|mol2

> <Gold.PLP.Fitness>
47.9282

> <Gold.PLP.PLP>
-44.1422

> <Gold.PLP.part.hbond>
-5.1067

> <Gold.PLP.part.metal>
0.0000

> <Gold.PLP.part.buried>
-3.1561

> <Gold.PLP.part.nonpolar>
-35.1384

> <Gold.PLP.part.repulsive>
0.8341

> <Gold.PLP.ligand.clash>
0.0000

> <Gold.PLP.ligand.torsion>
0.3532

> <Gold.PLP.Chemscore.Hbond>
1.4912

> <Gold.PLP.Chemscore.CHOScore>
0.0000

> <Gold.PLP.Chemscore.Metal>
0.0000

> <Gold.Chemscore.Hbonds>
donor molecule, donor type, donor heavy atom, donor atom, acceptor molecule, acceptor atom, score
      P1  H  6933  6944       L1    19  0.23
      P1  H  6934  6946       L1    19  0.24

> <Gold.PLP.Chemscore.Internal.Correction>
0.0189

> <Gold.Rescore>
     Score         DG    S(hbond)    S(metal)    S(lipo)     H(rot)  DE(clash)    DE(int)     intcor
     14.65     -16.72       1.44        0.00      90.00       1.60       0.17       1.91       ----

> <Gold.Chemscore.Fitness>
14.6469

> <Gold.Chemscore.DG>
-16.7206

> <Gold.Chemscore.ZeroCoef>
-5.4800

> <Gold.Chemscore.Hbond>
1.4375

> <Gold.Chemscore.Metal>
0.0000

> <Gold.Chemscore.Lipo>
89.9952

> <Gold.Chemscore.Internal_Hbond>
0.0000

> <Gold.Chemscore.DEClash>
0.1681

> <Gold.Chemscore.DEInternal>
1.9055

> <Gold.Chemscore.Rot>
1.5978

> <Gold.Chemscore.Internal.Correction>
   9.000000E+99

> <Gold.Chemscore.Hbonds>
donor molecule, donor type, donor heavy atom, donor atom, acceptor molecule, acceptor atom, score
      P1  H  6933  6944       L1    19  0.02
      P1  H  6934  6946       L1    19  0.20

> <Gold.Chemscore.Hbond.Weighted>
-4.8014

> <Gold.Chemscore.Metal.Weighted>
-0.0000

> <Gold.Chemscore.Lipo.Weighted>
-10.5294

> <Gold.Chemscore.Internal_Hbond.Weighted>
0.0000

> <Gold.Chemscore.DEClash.Weighted>
0.1681

> <Gold.Chemscore.DEInternal.Weighted>
1.9055

> <Gold.Chemscore.Rot.Weighted>
4.0902

> <Gold.Chemscore.Internal.Correction.Weighted>
   9.000000E+99

> <Gold.Protein.RotatedTorsions>
[ 6907 6896 6895 6894 ] final  164.50 input  -60.11 | X-H torsion
[ 7974 7965 7964 7962 ] final   56.97 input  175.53 | X-H torsion
[ 8008 7997 7996 7995 ] final  -78.45 input   59.86 | X-H torsion
[ 10167 10162 10161 10158 ] final -131.00 input  -65.29 | X-H torsion
[ 10718 10713 10712 10709 ] final   54.99 input   66.30 | X-H torsion
[ 10763 10752 10751 10750 ] final  175.27 input  -60.55 | X-H torsion
[ 11005 11000 10999 10996 ] final  -52.34 input  -57.11 | X-H torsion

> <Gold.Protein.ActiveResidues>
 VAL166  LYS551  ARG553  GLY616  TRP617  ASP618  TYR619  PRO620  LYS621  CYS622 
 ASP623  PHE694  ASN695  SER759  ASP760  ASP761  ALA762  ILE779  LEU786  VAL792 
 PHE793  MET794  SER795  GLU796  ALA797  LYS798  CYS799  TRP800  GLU811  SER814 

> <Gold.Protein.RotatedAtoms>
  151.9089  133.3556  159.3856 H   0  0  0  0  0  0  0  0  0  0  0  0  # atno 6907 bound_to 6896
  150.7063  134.4753  159.5454 H   0  0  0  0  0  0  0  0  0  0  0  0  # atno 6908 bound_to 6896
  152.2355  134.8280  160.0518 H   0  0  0  0  0  0  0  0  0  0  0  0  # atno 6909 bound_to 6896
  145.9341  139.3832  143.0403 H   0  0  0  0  0  0  0  0  0  0  0  0  # atno 7974 bound_to 7965
  154.5690  140.0694  156.8936 H   0  0  0  0  0  0  0  0  0  0  0  0  # atno 8008 bound_to 7997
  155.2669  140.3362  155.4250 H   0  0  0  0  0  0  0  0  0  0  0  0  # atno 8009 bound_to 7997
  156.2103  140.1756  156.7694 H   0  0  0  0  0  0  0  0  0  0  0  0  # atno 8010 bound_to 7997
  139.9234  143.6355  152.2548 H   0  0  0  0  0  0  0  0  0  0  0  0  # atno 10167 bound_to 10162
  157.5306  130.8628  149.8682 H   0  0  0  0  0  0  0  0  0  0  0  0  # atno 10718 bound_to 10713
  154.4653  135.2769  155.1683 H   0  0  0  0  0  0  0  0  0  0  0  0  # atno 10763 bound_to 10752
  154.3454  135.6161  153.5620 H   0  0  0  0  0  0  0  0  0  0  0  0  # atno 10764 bound_to 10752
  152.9858  135.5798  154.5023 H   0  0  0  0  0  0  0  0  0  0  0  0  # atno 10765 bound_to 10752
  141.0919  133.6631  156.4010 H   0  0  0  0  0  0  0  0  0  0  0  0  # atno 11005 bound_to 11000
  145.8387  140.9592  143.0811 LP  0  0  0  0  0  0  0  0  0  0  0  0  # atno 17320 bound_to 7965
  144.6769  140.0256  143.7483 LP  0  0  0  0  0  0  0  0  0  0  0  0  # atno 17321 bound_to 7965
  139.6842  144.7653  151.1553 LP  0  0  0  0  0  0  0  0  0  0  0  0  # atno 17342 bound_to 10162
  140.7656  143.5681  150.9026 LP  0  0  0  0  0  0  0  0  0  0  0  0  # atno 17343 bound_to 10162
  156.0420  130.3737  150.1413 LP  0  0  0  0  0  0  0  0  0  0  0  0  # atno 17370 bound_to 10713
  156.9597  130.9801  151.3481 LP  0  0  0  0  0  0  0  0  0  0  0  0  # atno 17371 bound_to 10713
  140.5232  134.6284  157.5325 LP  0  0  0  0  0  0  0  0  0  0  0  0  # atno 17394 bound_to 11000
  139.9747  134.7235  155.9973 LP  0  0  0  0  0  0  0  0  0  0  0  0  # atno 17395 bound_to 11000

$$$$
