AV-unprocessed.smi:799|AV-procd|sdf|3786|dock2
  -GOLD-   22720 1223D 1   1.00000     0.00000
 Structure written by MMmdl.
 47 48  0  0  0  0  0  0  0  0  1 V2000
  143.5211  132.0868  150.2016 C   0  0  0  0  0  0  0  0  0  0  0  0
  144.6377  132.8222  150.8817 C   0  0  0  0  0  0  0  0  0  0  0  0
  144.7621  134.2257  151.0952 C   0  0  0  0  0  0  0  0  0  0  0  0
  145.9576  134.3261  151.7529 C   0  0  0  0  0  0  0  0  0  0  0  0
  146.5906  135.4455  152.1934 N   0  0  0  0  0  0  0  0  0  0  0  0
  146.0698  136.4987  152.8464 C   0  0  0  0  0  0  0  0  0  0  0  0
  144.8898  136.6143  153.1774 O   0  0  0  0  0  0  0  0  0  0  0  0
  147.0182  137.4154  153.1069 N   0  0  0  0  0  0  0  0  0  0  0  0
  146.8963  138.6821  153.8493 C   0  0  2  0  0  0  0  0  0  0  0  0
  146.2768  138.3218  155.2200 C   0  0  0  0  0  0  0  0  0  0  0  0
  145.9221  139.6330  153.0932 C   0  0  0  0  0  0  0  0  0  0  0  0
  146.3303  139.8742  151.7593 O   0  0  0  0  0  0  0  0  0  0  0  0
  148.3061  139.3559  154.0275 C   0  0  0  0  0  0  0  0  0  0  0  0
  149.4201  138.3888  154.5118 C   0  0  0  0  0  0  0  0  0  0  0  0
  150.7960  139.0735  154.5478 C   0  0  0  0  0  0  0  0  0  0  0  0
  150.7714  140.3282  155.4307 C   0  0  0  0  0  0  0  0  0  0  0  0
  149.6794  141.3009  154.9666 C   0  0  0  0  0  0  0  0  0  0  0  0
  148.3023  140.6182  154.9288 C   0  0  0  0  0  0  0  0  0  0  0  0
  146.4930  133.0640  151.8982 N   0  0  0  0  0  0  0  0  0  0  0  0
  147.7333  132.6372  152.5172 C   0  0  0  0  0  0  0  0  0  0  0  0
  145.6694  132.1377  151.3624 N   0  0  0  0  0  0  0  0  0  0  0  0
  142.7785  132.7788  149.8038 H   0  0  0  0  0  0  0  0  0  0  0  0
  143.0123  131.4172  150.8953 H   0  0  0  0  0  0  0  0  0  0  0  0
  143.8938  131.4874  149.3709 H   0  0  0  0  0  0  0  0  0  0  0  0
  144.0806  135.0103  150.8027 H   0  0  0  0  0  0  0  0  0  0  0  0
  147.5876  135.4669  152.0378 H   0  0  0  0  0  0  0  0  0  0  0  0
  147.9494  137.2010  152.7823 H   0  0  0  0  0  0  0  0  0  0  0  0
  146.0674  139.2081  155.8183 H   0  0  0  0  0  0  0  0  0  0  0  0
  146.9255  137.6718  155.8063 H   0  0  0  0  0  0  0  0  0  0  0  0
  145.3299  137.7935  155.1024 H   0  0  0  0  0  0  0  0  0  0  0  0
  144.9198  139.2088  153.0462 H   0  0  0  0  0  0  0  0  0  0  0  0
  145.8270  140.5915  153.6037 H   0  0  0  0  0  0  0  0  0  0  0  0
  147.2745  139.8985  151.7344 H   0  0  0  0  0  0  0  0  0  0  0  0
  148.6147  139.7038  153.0414 H   0  0  0  0  0  0  0  0  0  0  0  0
  149.1880  138.0137  155.5082 H   0  0  0  0  0  0  0  0  0  0  0  0
  149.4922  137.5155  153.8643 H   0  0  0  0  0  0  0  0  0  0  0  0
  151.5488  138.3762  154.9163 H   0  0  0  0  0  0  0  0  0  0  0  0
  151.0962  139.3441  153.5346 H   0  0  0  0  0  0  0  0  0  0  0  0
  150.5920  140.0433  156.4681 H   0  0  0  0  0  0  0  0  0  0  0  0
  151.7439  140.8205  155.4069 H   0  0  0  0  0  0  0  0  0  0  0  0
  149.6467  142.1645  155.6314 H   0  0  0  0  0  0  0  0  0  0  0  0
  149.9265  141.6841  153.9756 H   0  0  0  0  0  0  0  0  0  0  0  0
  147.5739  141.3473  154.5779 H   0  0  0  0  0  0  0  0  0  0  0  0
  148.0145  140.3566  155.9471 H   0  0  0  0  0  0  0  0  0  0  0  0
  148.3224  133.4973  152.8355 H   0  0  0  0  0  0  0  0  0  0  0  0
  148.3186  132.0547  151.8053 H   0  0  0  0  0  0  0  0  0  0  0  0
  147.5136  132.0190  153.3883 H   0  0  0  0  0  0  0  0  0  0  0  0
  1  2  1  0  0  0  0
  1 22  1  0  0  0  0
  1 23  1  0  0  0  0
  1 24  1  0  0  0  0
  2 21  2  0  0  0  0
  2  3  1  0  0  0  0
  3  4  2  0  0  0  0
  3 25  1  0  0  0  0
  4  5  1  0  0  0  0
  4 19  1  0  0  0  0
  5  6  1  0  0  0  0
  5 26  1  0  0  0  0
  6  7  2  0  0  0  0
  6  8  1  0  0  0  0
  8  9  1  0  0  0  0
  8 27  1  0  0  0  0
  9 10  1  0  0  0  0
  9 11  1  0  0  0  0
  9 13  1  0  0  0  0
 10 28  1  0  0  0  0
 10 29  1  0  0  0  0
 10 30  1  0  0  0  0
 11 12  1  0  0  0  0
 11 31  1  0  0  0  0
 11 32  1  0  0  0  0
 12 33  1  0  0  0  0
 13 18  1  0  0  0  0
 13 14  1  0  0  0  0
 13 34  1  0  0  0  0
 14 15  1  0  0  0  0
 14 35  1  0  0  0  0
 14 36  1  0  0  0  0
 15 16  1  0  0  0  0
 15 37  1  0  0  0  0
 15 38  1  0  0  0  0
 16 17  1  0  0  0  0
 16 39  1  0  0  0  0
 16 40  1  0  0  0  0
 17 18  1  0  0  0  0
 17 41  1  0  0  0  0
 17 42  1  0  0  0  0
 18 43  1  0  0  0  0
 18 44  1  0  0  0  0
 19 20  1  0  0  0  0
 19 21  1  0  0  0  0
 20 45  1  0  0  0  0
 20 46  1  0  0  0  0
 20 47  1  0  0  0  0
M  END
> <s_m_source_file>
AV-unprocessed.smi

> <i_m_source_file_index>
799

> <i_lp_mmshare_version>
43012

> <i_f3d_flags>
0

> <s_epik_input>
W0NIM11jMVtjSF1jKG4objEpW0NIM10pW05IXUMoPU8pW05IXVtDQEBdKFtDSDNdKShbQ0gyXVtPSF0pW0NIXTJbQ0gyXVtDSDJdW0NIMl1bQ0gyXVtDSDJdMg==

> <s_epik_cmdline>
J2VwaWtfcHl0aG9uJywgJy1waCcsICc3LjAnLCAnLXRuJywgJzgnLCAnLW1hJywgJzIwMCcsICctbWV0YWxfYmluZGluZycsICctaW1hZScsICc8aW5maWxlLm1hZT4nLCAnLW9tYWUnLCAnPG91dGZpbGUubWFlPic=

> <r_lp_tautomer_probability>
1

> <r_epik_Ionization_Penalty>
9.86025e-05

> <r_epik_Ionization_Penalty_Charging>
0

> <r_epik_Ionization_Penalty_Neutral>
9.86025e-05

> <r_epik_State_Penalty>
-0

> <r_epik_Charging_Adjusted_Penalty>
0

> <i_epik_Tot_Q>
0

> <i_epik_Tot_abs_Q>
0

> <r_epik_Metal_State_Penalty>
-0

> <b_epik_Metal_Only>
0

> <s_lp_Force_Field>
OPLS_2005

> <r_lp_Energy>
22.5502

> <b_lp_Chiralities_Consistent>
1

> <s_lp_Variant>
AV-unprocessed.smi:799-2

> <Gold.Version>
5.8.1

> <Gold.Id.Protein>
6NUR|6NUR_protein|mol2

> <Gold.PLP.Fitness>
39.5387

> <Gold.PLP.PLP>
-31.8773

> <Gold.PLP.part.hbond>
-2.6615

> <Gold.PLP.part.metal>
0.0000

> <Gold.PLP.part.buried>
1.5350

> <Gold.PLP.part.nonpolar>
-31.6830

> <Gold.PLP.part.repulsive>
0.3889

> <Gold.PLP.ligand.clash>
0.0000

> <Gold.PLP.ligand.torsion>
0.5511

> <Gold.PLP.Chemscore.Hbond>
2.8880

> <Gold.PLP.Chemscore.CHOScore>
0.0000

> <Gold.PLP.Chemscore.Metal>
0.0000

> <Gold.Chemscore.Hbonds>
donor molecule, donor type, donor heavy atom, donor atom, acceptor molecule, acceptor atom, score
      L1  H     5    26       P1  7948  1.00
      L1  H     8    27       P1  7948  0.98
      L1  H    12    33       P1  7957  0.15

> <Gold.PLP.Chemscore.Internal.Correction>
0.0997

> <Gold.Rescore>
     Score         DG    S(hbond)    S(metal)    S(lipo)     H(rot)  DE(clash)    DE(int)     intcor
     15.84     -19.47       2.83        0.00      82.80       2.01       1.96       1.67       ----

> <Gold.Chemscore.Fitness>
15.8397

> <Gold.Chemscore.DG>
-19.4654

> <Gold.Chemscore.ZeroCoef>
-5.4800

> <Gold.Chemscore.Hbond>
2.8307

> <Gold.Chemscore.Metal>
0.0000

> <Gold.Chemscore.Lipo>
82.8011

> <Gold.Chemscore.Internal_Hbond>
0.0000

> <Gold.Chemscore.DEClash>
1.9560

> <Gold.Chemscore.DEInternal>
1.6696

> <Gold.Chemscore.Rot>
2.0144

> <Gold.Chemscore.Internal.Correction>
   9.000000E+99

> <Gold.Chemscore.Hbonds>
donor molecule, donor type, donor heavy atom, donor atom, acceptor molecule, acceptor atom, score
      L1  H     5    26       P1  7948  0.92
      L1  H     8    27       P1  7948  0.93
      L1  H    12    33       P1  7957  0.18

> <Gold.Chemscore.Hbond.Weighted>
-9.4545

> <Gold.Chemscore.Metal.Weighted>
-0.0000

> <Gold.Chemscore.Lipo.Weighted>
-9.6877

> <Gold.Chemscore.Internal_Hbond.Weighted>
0.0000

> <Gold.Chemscore.DEClash.Weighted>
1.9560

> <Gold.Chemscore.DEInternal.Weighted>
1.6696

> <Gold.Chemscore.Rot.Weighted>
5.1568

> <Gold.Chemscore.Internal.Correction.Weighted>
   9.000000E+99

> <Gold.Protein.RotatedTorsions>
[ 6907 6896 6895 6894 ] final -123.09 input  -60.11 | X-H torsion
[ 7974 7965 7964 7962 ] final  174.57 input  175.53 | X-H torsion
[ 8008 7997 7996 7995 ] final   63.28 input   59.86 | X-H torsion
[ 10167 10162 10161 10158 ] final   29.18 input  -65.29 | X-H torsion
[ 10718 10713 10712 10709 ] final -126.37 input   66.30 | X-H torsion
[ 10763 10752 10751 10750 ] final -163.37 input  -60.55 | X-H torsion
[ 11005 11000 10999 10996 ] final  -82.33 input  -57.11 | X-H torsion

> <Gold.Protein.ActiveResidues>
 VAL166  LYS551  ARG553  GLY616  TRP617  ASP618  TYR619  PRO620  LYS621  CYS622 
 ASP623  PHE694  ASN695  SER759  ASP760  ASP761  ALA762  ILE779  LEU786  VAL792 
 PHE793  MET794  SER795  GLU796  ALA797  LYS798  CYS799  TRP800  GLU811  SER814 

> <Gold.Protein.RotatedAtoms>
  150.8637  133.7605  159.2983 H   0  0  0  0  0  0  0  0  0  0  0  0  # atno 6907 bound_to 6896
  151.5239  135.1066  159.9895 H   0  0  0  0  0  0  0  0  0  0  0  0  # atno 6908 bound_to 6896
  152.4645  133.7850  159.6927 H   0  0  0  0  0  0  0  0  0  0  0  0  # atno 6909 bound_to 6896
  144.7219  139.9817  143.6439 H   0  0  0  0  0  0  0  0  0  0  0  0  # atno 7974 bound_to 7965
  155.6278  140.3496  155.4673 H   0  0  0  0  0  0  0  0  0  0  0  0  # atno 8008 bound_to 7997
  156.0028  140.1217  157.0555 H   0  0  0  0  0  0  0  0  0  0  0  0  # atno 8009 bound_to 7997
  154.4254  140.1097  156.5706 H   0  0  0  0  0  0  0  0  0  0  0  0  # atno 8010 bound_to 7997
  140.4788  144.0649  150.6259 H   0  0  0  0  0  0  0  0  0  0  0  0  # atno 10167 bound_to 10162
  156.1759  130.6699  151.0242 H   0  0  0  0  0  0  0  0  0  0  0  0  # atno 10718 bound_to 10713
  154.7128  135.3010  154.9170 H   0  0  0  0  0  0  0  0  0  0  0  0  # atno 10763 bound_to 10752
  154.0066  135.6700  153.4766 H   0  0  0  0  0  0  0  0  0  0  0  0  # atno 10764 bound_to 10752
  153.0769  135.5030  154.8337 H   0  0  0  0  0  0  0  0  0  0  0  0  # atno 10765 bound_to 10752
  141.1663  133.7239  156.8555 H   0  0  0  0  0  0  0  0  0  0  0  0  # atno 11005 bound_to 11000
  146.0483  139.3486  143.0655 LP  0  0  0  0  0  0  0  0  0  0  0  0  # atno 17320 bound_to 7965
  145.8248  140.9661  143.0880 LP  0  0  0  0  0  0  0  0  0  0  0  0  # atno 17321 bound_to 7965
  140.3885  143.2765  152.0088 LP  0  0  0  0  0  0  0  0  0  0  0  0  # atno 17342 bound_to 10162
  139.4830  144.6097  151.7456 LP  0  0  0  0  0  0  0  0  0  0  0  0  # atno 17343 bound_to 10162
  157.6835  131.0831  150.7305 LP  0  0  0  0  0  0  0  0  0  0  0  0  # atno 17370 bound_to 10713
  156.7363  130.4725  149.5488 LP  0  0  0  0  0  0  0  0  0  0  0  0  # atno 17371 bound_to 10713
  140.1885  134.8982  157.3033 LP  0  0  0  0  0  0  0  0  0  0  0  0  # atno 17394 bound_to 11000
  140.2316  134.3902  155.7519 LP  0  0  0  0  0  0  0  0  0  0  0  0  # atno 17395 bound_to 11000

$$$$
