AV-unprocessed.smi:2757|AV-procd|sdf|10621|dock6
  -GOLD-   2272015 63D 1   1.00000     0.00000
 Structure written by MMmdl.
 32 33  0  0  0  0  0  0  0  0  2 V2000
  147.2858  138.8801  157.0241 C   0  0  0  0  0  0  0  0  0  0  0  0
  146.9435  138.4854  155.6665 N   0  0  0  0  0  0  0  0  0  0  0  0
  146.7843  137.2151  155.2663 C   0  0  0  0  0  0  0  0  0  0  0  0
  146.9160  136.2429  156.0106 O   0  0  0  0  0  0  0  0  0  0  0  0
  146.4091  137.0452  153.8234 C   0  0  0  0  0  0  0  0  0  0  0  0
  146.2318  138.1787  152.9771 C   0  0  0  0  0  0  0  0  0  0  0  0
  145.9087  137.6383  151.7657 C   0  0  0  0  0  0  0  0  0  0  0  0
  145.9010  136.2670  151.9135 N   0  0  0  0  0  0  0  0  0  0  0  0
  145.6116  135.2565  150.9073 C   0  0  1  0  0  0  0  0  0  0  0  0
  145.9576  133.8388  151.4068 C   0  0  0  0  0  0  0  0  0  0  0  0
  145.6227  132.7971  150.3286 C   0  0  0  0  0  0  0  0  0  0  0  0
  144.1566  132.9221  149.8802 C   0  0  0  0  0  0  0  0  0  0  0  0
  143.8651  134.2963  149.4163 N   0  3  0  0  0  0  0  0  0  0  0  0
  144.1405  135.3240  150.4446 C   0  0  0  0  0  0  0  0  0  0  0  0
  146.2027  135.9031  153.1801 N   0  0  0  0  0  0  0  0  0  0  0  0
  147.3896  139.9637  157.0814 H   0  0  0  0  0  0  0  0  0  0  0  0
  148.2296  138.4299  157.3347 H   0  0  0  0  0  0  0  0  0  0  0  0
  146.5069  138.5746  157.7237 H   0  0  0  0  0  0  0  0  0  0  0  0
  146.8105  139.2203  154.9870 H   0  0  0  0  0  0  0  0  0  0  0  0
  146.3294  139.2270  153.2193 H   0  0  0  0  0  0  0  0  0  0  0  0
  145.6869  138.1126  150.8210 H   0  0  0  0  0  0  0  0  0  0  0  0
  146.2462  135.4734  150.0462 H   0  0  0  0  0  0  0  0  0  0  0  0
  147.0143  133.7776  151.6692 H   0  0  0  0  0  0  0  0  0  0  0  0
  145.3974  133.6092  152.3142 H   0  0  0  0  0  0  0  0  0  0  0  0
  146.2828  132.9325  149.4708 H   0  0  0  0  0  0  0  0  0  0  0  0
  145.8122  131.7930  150.7095 H   0  0  0  0  0  0  0  0  0  0  0  0
  143.9468  132.2208  149.0721 H   0  0  0  0  0  0  0  0  0  0  0  0
  143.4855  132.6716  150.7028 H   0  0  0  0  0  0  0  0  0  0  0  0
  144.4368  134.4906  148.6066 H   0  0  0  0  0  0  0  0  0  0  0  0
  143.4607  135.1721  151.2844 H   0  0  0  0  0  0  0  0  0  0  0  0
  143.9175  136.3071  150.0288 H   0  0  0  0  0  0  0  0  0  0  0  0
  142.8925  134.3526  149.1494 H   0  0  0  0  0  0  0  0  0  0  0  0
  1  2  1  0  0  0  0
  1 16  1  0  0  0  0
  1 17  1  0  0  0  0
  1 18  1  0  0  0  0
  2  3  1  0  0  0  0
  2 19  1  0  0  0  0
  3  4  2  0  0  0  0
  3  5  1  0  0  0  0
  5 15  2  0  0  0  0
  5  6  1  0  0  0  0
  6  7  2  0  0  0  0
  6 20  1  0  0  0  0
  7  8  1  0  0  0  0
  7 21  1  0  0  0  0
  8  9  1  0  0  0  0
  8 15  1  0  0  0  0
  9 14  1  0  0  0  0
  9 10  1  0  0  0  0
  9 22  1  0  0  0  0
 10 11  1  0  0  0  0
 10 23  1  0  0  0  0
 10 24  1  0  0  0  0
 11 12  1  0  0  0  0
 11 25  1  0  0  0  0
 11 26  1  0  0  0  0
 12 13  1  0  0  0  0
 12 27  1  0  0  0  0
 12 28  1  0  0  0  0
 13 14  1  0  0  0  0
 13 29  1  0  0  0  0
 13 32  1  0  0  0  0
 14 30  1  0  0  0  0
 14 31  1  0  0  0  0
M  CHG  1  13   1
M  END
> <s_m_source_file>
AV-unprocessed.smi

> <i_m_source_file_index>
2757

> <i_lp_mmshare_version>
43012

> <i_f3d_flags>
0

> <s_epik_input>
W0NIM11bTkhdQyg9TyljMVtjSF1bY0hdbihuMSlbQ0BASF0yW0NIMl1bQ0gyXVtDSDJdW05IXVtDSDJdMg==

> <s_epik_cmdline>
J2VwaWtfcHl0aG9uJywgJy1waCcsICc3LjAnLCAnLXRuJywgJzgnLCAnLW1hJywgJzIwMCcsICctbWV0YWxfYmluZGluZycsICctaW1hZScsICc8aW5maWxlLm1hZT4nLCAnLW9tYWUnLCAnPG91dGZpbGUubWFlPic=

> <r_lp_tautomer_probability>
1

> <r_epik_Ionization_Penalty>
0.000652722

> <r_epik_Ionization_Penalty_Charging>
0.000651447

> <r_epik_Ionization_Penalty_Neutral>
1.27533e-06

> <r_epik_State_Penalty>
0.000412577

> <r_epik_Charging_Adjusted_Penalty>
0.00106402

> <i_epik_Tot_Q>
1

> <i_epik_Tot_abs_Q>
1

> <r_epik_Metal_State_Penalty>
-0

> <b_epik_Metal_Only>
0

> <s_lp_Force_Field>
OPLS_2005

> <r_lp_Energy>
20.0976

> <b_lp_Chiralities_Consistent>
1

> <s_lp_Variant>
AV-unprocessed.smi:2757-2

> <Gold.Version>
5.8.1

> <Gold.Id.Protein>
6NUR|6NUR_protein|mol2

> <Gold.PLP.Fitness>
32.4879

> <Gold.PLP.PLP>
-20.7552

> <Gold.PLP.part.hbond>
-2.0000

> <Gold.PLP.part.metal>
0.0000

> <Gold.PLP.part.buried>
-0.9704

> <Gold.PLP.part.nonpolar>
-18.9797

> <Gold.PLP.part.repulsive>
0.2952

> <Gold.PLP.ligand.clash>
0.0000

> <Gold.PLP.ligand.torsion>
0.1431

> <Gold.PLP.Chemscore.Hbond>
3.0000

> <Gold.PLP.Chemscore.CHOScore>
1.0000

> <Gold.PLP.Chemscore.Metal>
0.0000

> <Gold.Chemscore.Hbonds>
donor molecule, donor type, donor heavy atom, donor atom, acceptor molecule, acceptor atom, score
      L1  H    13    29       P1  7921  1.00
      L1  H    13    32       P1 10186  2.00
      L1  C     7    21       P1 10171  1.00

> <Gold.PLP.Chemscore.Internal.Correction>
0.0189

> <Gold.Rescore>
     Score         DG    S(hbond)    S(metal)    S(lipo)     H(rot)  DE(clash)    DE(int)     intcor
     14.95     -15.43       1.91        0.00      52.38       1.00       0.33       0.15       ----

> <Gold.Chemscore.Fitness>
14.9518

> <Gold.Chemscore.DG>
-15.4314

> <Gold.Chemscore.ZeroCoef>
-5.4800

> <Gold.Chemscore.Hbond>
1.9111

> <Gold.Chemscore.Metal>
0.0000

> <Gold.Chemscore.Lipo>
52.3803

> <Gold.Chemscore.Internal_Hbond>
0.0000

> <Gold.Chemscore.DEClash>
0.3293

> <Gold.Chemscore.DEInternal>
0.1503

> <Gold.Chemscore.Rot>
1.0000

> <Gold.Chemscore.Internal.Correction>
   9.000000E+99

> <Gold.Chemscore.Hbonds>
donor molecule, donor type, donor heavy atom, donor atom, acceptor molecule, acceptor atom, score
      L1  H    13    29       P1  7921  0.96
      L1  H    13    32       P1 10186  0.97

> <Gold.Chemscore.Hbond.Weighted>
-6.3829

> <Gold.Chemscore.Metal.Weighted>
-0.0000

> <Gold.Chemscore.Lipo.Weighted>
-6.1285

> <Gold.Chemscore.Internal_Hbond.Weighted>
0.0000

> <Gold.Chemscore.DEClash.Weighted>
0.3293

> <Gold.Chemscore.DEInternal.Weighted>
0.1503

> <Gold.Chemscore.Rot.Weighted>
2.5600

> <Gold.Chemscore.Internal.Correction.Weighted>
   9.000000E+99

> <Gold.Protein.RotatedTorsions>
[ 6907 6896 6895 6894 ] final   41.71 input  -60.11 | X-H torsion
[ 7974 7965 7964 7962 ] final  -60.25 input  175.53 | X-H torsion
[ 8008 7997 7996 7995 ] final  -22.60 input   59.86 | X-H torsion
[ 10167 10162 10161 10158 ] final -132.22 input  -65.29 | X-H torsion
[ 10718 10713 10712 10709 ] final  -37.34 input   66.30 | X-H torsion
[ 10763 10752 10751 10750 ] final  -97.13 input  -60.55 | X-H torsion
[ 11005 11000 10999 10996 ] final  -74.37 input  -57.11 | X-H torsion

> <Gold.Protein.ActiveResidues>
 VAL166  LYS551  ARG553  GLY616  TRP617  ASP618  TYR619  PRO620  LYS621  CYS622 
 ASP623  PHE694  ASN695  SER759  ASP760  ASP761  ALA762  ILE779  LEU786  VAL792 
 PHE793  MET794  SER795  GLU796  ALA797  LYS798  CYS799  TRP800  GLU811  SER814 

> <Gold.Protein.RotatedAtoms>
  152.1987  134.8607  160.0509 H   0  0  0  0  0  0  0  0  0  0  0  0  # atno 6907 bound_to 6896
  151.9468  133.3649  159.3993 H   0  0  0  0  0  0  0  0  0  0  0  0  # atno 6908 bound_to 6896
  150.6950  134.4305  159.5290 H   0  0  0  0  0  0  0  0  0  0  0  0  # atno 6909 bound_to 6896
  145.8178  140.8559  143.0148 H   0  0  0  0  0  0  0  0  0  0  0  0  # atno 7974 bound_to 7965
  154.4634  140.2003  156.0183 H   0  0  0  0  0  0  0  0  0  0  0  0  # atno 8008 bound_to 7997
  156.0883  140.3262  155.7753 H   0  0  0  0  0  0  0  0  0  0  0  0  # atno 8009 bound_to 7997
  155.4999  140.0553  157.2931 H   0  0  0  0  0  0  0  0  0  0  0  0  # atno 8010 bound_to 7997
  139.9108  143.6496  152.2576 H   0  0  0  0  0  0  0  0  0  0  0  0  # atno 10167 bound_to 10162
  156.3163  130.4259  149.8002 H   0  0  0  0  0  0  0  0  0  0  0  0  # atno 10718 bound_to 10713
  154.7301  135.5058  153.8950 H   0  0  0  0  0  0  0  0  0  0  0  0  # atno 10763 bound_to 10752
  153.0942  135.6667  153.9804 H   0  0  0  0  0  0  0  0  0  0  0  0  # atno 10764 bound_to 10752
  153.9607  135.3048  155.3413 H   0  0  0  0  0  0  0  0  0  0  0  0  # atno 10765 bound_to 10752
  141.1634  133.6909  156.7355 H   0  0  0  0  0  0  0  0  0  0  0  0  # atno 11005 bound_to 11000
  144.6750  140.0489  143.7479 LP  0  0  0  0  0  0  0  0  0  0  0  0  # atno 17320 bound_to 7965
  145.9708  139.2868  143.1100 LP  0  0  0  0  0  0  0  0  0  0  0  0  # atno 17321 bound_to 7965
  139.6944  144.7643  151.1382 LP  0  0  0  0  0  0  0  0  0  0  0  0  # atno 17342 bound_to 10162
  140.7686  143.5544  150.9169 LP  0  0  0  0  0  0  0  0  0  0  0  0  # atno 17343 bound_to 10162
  156.5326  130.8264  151.3242 LP  0  0  0  0  0  0  0  0  0  0  0  0  # atno 17370 bound_to 10713
  157.7402  130.9846  150.2364 LP  0  0  0  0  0  0  0  0  0  0  0  0  # atno 17371 bound_to 10713
  140.2713  134.8389  157.3850 LP  0  0  0  0  0  0  0  0  0  0  0  0  # atno 17394 bound_to 11000
  140.1518  134.4839  155.7955 LP  0  0  0  0  0  0  0  0  0  0  0  0  # atno 17395 bound_to 11000

$$$$
