AV-unprocessed.smi:2387|AV-procd|sdf|9470|dock7
  -GOLD-   2272013103D 1   1.00000     0.00000
 Structure written by MMmdl.
 48 50  0  0  0  0  0  0  0  0  2 V2000
  143.7505  132.6711  148.1570 C   0  0  0  0  0  0  0  0  0  0  0  0
  144.2268  132.6816  149.5943 C   0  0  0  0  0  0  0  0  0  0  0  0
  145.4656  132.1310  149.9835 C   0  0  0  0  0  0  0  0  0  0  0  0
  145.8452  132.1739  151.3411 C   0  0  0  0  0  0  0  0  0  0  0  0
  144.9715  132.7605  152.2919 C   0  0  0  0  0  0  0  0  0  0  0  0
  145.2642  132.8663  153.6790 N   0  0  0  0  0  0  0  0  0  0  0  0
  146.4525  133.0960  154.2639 C   0  0  0  0  0  0  0  0  0  0  0  0
  147.5180  133.2439  153.6663 O   0  0  0  0  0  0  0  0  0  0  0  0
  146.3368  133.1326  155.6033 N   0  0  0  0  0  0  0  0  0  0  0  0
  147.4124  133.3263  156.5933 C   0  0  0  0  0  0  0  0  0  0  0  0
  146.9723  132.9660  158.0396 C   0  0  0  0  0  0  0  0  0  0  0  0
  146.4947  131.8561  158.2784 O   0  0  0  0  0  0  0  0  0  0  0  0
  147.1131  133.9033  158.9928 N   0  0  0  0  0  0  0  0  0  0  0  0
  146.7489  133.7409  160.3937 C   0  0  0  0  0  0  0  0  0  0  0  0
  147.5824  134.5488  161.3701 C   0  0  0  0  0  0  0  0  0  0  0  0
  147.0756  134.8576  162.7589 C   0  0  0  0  0  0  0  0  0  0  0  0
  147.1821  135.9595  161.7321 C   0  0  0  0  0  0  0  0  0  0  0  0
  148.6212  132.4344  156.1898 C   0  0  0  0  0  0  0  0  0  0  0  0
  149.7844  133.3649  155.8329 C   0  0  0  0  0  0  0  0  0  0  0  0
  149.4967  134.6530  156.5899 C   0  0  0  0  0  0  0  0  0  0  0  0
  147.9762  134.7748  156.5178 C   0  0  0  0  0  0  0  0  0  0  0  0
  143.7537  133.3086  151.8350 C   0  0  0  0  0  0  0  0  0  0  0  0
  143.4275  133.2466  150.5255 N   0  3  0  0  0  0  0  0  0  0  0  0
  144.4861  132.2023  147.5026 H   0  0  0  0  0  0  0  0  0  0  0  0
  143.5814  133.6889  147.8045 H   0  0  0  0  0  0  0  0  0  0  0  0
  142.8161  132.1159  148.0708 H   0  0  0  0  0  0  0  0  0  0  0  0
  146.1230  131.6829  149.2525 H   0  0  0  0  0  0  0  0  0  0  0  0
  146.8043  131.7667  151.6224 H   0  0  0  0  0  0  0  0  0  0  0  0
  144.4918  132.6820  154.3023 H   0  0  0  0  0  0  0  0  0  0  0  0
  145.4132  132.9988  155.9879 H   0  0  0  0  0  0  0  0  0  0  0  0
  147.5041  134.7940  158.7239 H   0  0  0  0  0  0  0  0  0  0  0  0
  145.6988  134.0037  160.5299 H   0  0  0  0  0  0  0  0  0  0  0  0
  146.8317  132.6826  160.6423 H   0  0  0  0  0  0  0  0  0  0  0  0
  148.6534  134.3793  161.2778 H   0  0  0  0  0  0  0  0  0  0  0  0
  146.0784  134.5122  163.0241 H   0  0  0  0  0  0  0  0  0  0  0  0
  147.8010  134.8535  163.5699 H   0  0  0  0  0  0  0  0  0  0  0  0
  147.9781  136.6904  161.8591 H   0  0  0  0  0  0  0  0  0  0  0  0
  146.2549  136.3475  161.3153 H   0  0  0  0  0  0  0  0  0  0  0  0
  148.9343  131.7847  157.0095 H   0  0  0  0  0  0  0  0  0  0  0  0
  148.3951  131.7700  155.3541 H   0  0  0  0  0  0  0  0  0  0  0  0
  150.7556  132.9385  156.0850 H   0  0  0  0  0  0  0  0  0  0  0  0
  149.7780  133.5644  154.7605 H   0  0  0  0  0  0  0  0  0  0  0  0
  149.8154  134.5539  157.6283 H   0  0  0  0  0  0  0  0  0  0  0  0
  150.0084  135.5158  156.1627 H   0  0  0  0  0  0  0  0  0  0  0  0
  147.7184  135.2382  155.5641 H   0  0  0  0  0  0  0  0  0  0  0  0
  147.5880  135.4355  157.2946 H   0  0  0  0  0  0  0  0  0  0  0  0
  143.0271  133.7873  152.4755 H   0  0  0  0  0  0  0  0  0  0  0  0
  142.5370  133.6446  150.2256 H   0  0  0  0  0  0  0  0  0  0  0  0
  1  2  1  0  0  0  0
  1 24  1  0  0  0  0
  1 25  1  0  0  0  0
  1 26  1  0  0  0  0
  2 23  1  0  0  0  0
  2  3  2  0  0  0  0
  3  4  1  0  0  0  0
  3 27  1  0  0  0  0
  4  5  2  0  0  0  0
  4 28  1  0  0  0  0
  5  6  1  0  0  0  0
  5 22  1  0  0  0  0
  6  7  1  0  0  0  0
  6 29  1  0  0  0  0
  7  8  2  0  0  0  0
  7  9  1  0  0  0  0
  9 10  1  0  0  0  0
  9 30  1  0  0  0  0
 10 21  1  0  0  0  0
 10 11  1  0  0  0  0
 10 18  1  0  0  0  0
 11 12  2  0  0  0  0
 11 13  1  0  0  0  0
 13 14  1  0  0  0  0
 13 31  1  0  0  0  0
 14 15  1  0  0  0  0
 14 32  1  0  0  0  0
 14 33  1  0  0  0  0
 15 17  1  0  0  0  0
 15 16  1  0  0  0  0
 15 34  1  0  0  0  0
 16 17  1  0  0  0  0
 16 35  1  0  0  0  0
 16 36  1  0  0  0  0
 17 37  1  0  0  0  0
 17 38  1  0  0  0  0
 18 19  1  0  0  0  0
 18 39  1  0  0  0  0
 18 40  1  0  0  0  0
 19 20  1  0  0  0  0
 19 41  1  0  0  0  0
 19 42  1  0  0  0  0
 20 21  1  0  0  0  0
 20 43  1  0  0  0  0
 20 44  1  0  0  0  0
 21 45  1  0  0  0  0
 21 46  1  0  0  0  0
 22 23  2  0  0  0  0
 22 47  1  0  0  0  0
 23 48  1  0  0  0  0
M  CHG  1  23   1
M  END
> <s_m_source_file>
AV-unprocessed.smi

> <i_m_source_file_index>
2387

> <i_lp_mmshare_version>
43012

> <i_f3d_flags>
0

> <s_epik_input>
W0NIM11jMVtjSF1bY0hdYyhbY0hdbjEpW05IXUMoPU8pW05IXUMyKFtDSDJdW0NIMl1bQ0gyXVtDSDJdMilDKD1PKVtOSF1bQ0gyXVtDSF0zW0NIMl1bQ0gyXTM=

> <s_epik_cmdline>
J2VwaWtfcHl0aG9uJywgJy1waCcsICc3LjAnLCAnLXRuJywgJzgnLCAnLW1hJywgJzIwMCcsICctbWV0YWxfYmluZGluZycsICctaW1hZScsICc8aW5maWxlLm1hZT4nLCAnLW9tYWUnLCAnPG91dGZpbGUubWFlPic=

> <r_epik_Ionization_Penalty>
2.1018

> <r_epik_Ionization_Penalty_Charging>
2.10178

> <r_epik_Ionization_Penalty_Neutral>
2.02976e-05

> <r_epik_State_Penalty>
2.23801

> <r_epik_Charging_Adjusted_Penalty>
4.33979

> <i_epik_Tot_Q>
1

> <i_epik_Tot_abs_Q>
1

> <r_epik_Metal_State_Penalty>
2.25493

> <b_epik_Metal_Only>
0

> <s_lp_Force_Field>
OPLS_2005

> <r_lp_Energy>
37.3987

> <b_lp_Chiralities_Consistent>
1

> <s_lp_Variant>
AV-unprocessed.smi:2387-2

> <Gold.Version>
5.8.1

> <Gold.Id.Protein>
6NUR|6NUR_protein|mol2

> <Gold.PLP.Fitness>
41.4459

> <Gold.PLP.PLP>
-34.4012

> <Gold.PLP.part.hbond>
-1.9970

> <Gold.PLP.part.metal>
0.0000

> <Gold.PLP.part.buried>
-4.9746

> <Gold.PLP.part.nonpolar>
-27.4992

> <Gold.PLP.part.repulsive>
0.1474

> <Gold.PLP.ligand.clash>
0.0000

> <Gold.PLP.ligand.torsion>
1.0094

> <Gold.PLP.Chemscore.Hbond>
2.8125

> <Gold.PLP.Chemscore.CHOScore>
0.0000

> <Gold.PLP.Chemscore.Metal>
0.0000

> <Gold.Chemscore.Hbonds>
donor molecule, donor type, donor heavy atom, donor atom, acceptor molecule, acceptor atom, score
      L1  H     6    29       P1 10957  0.86
      L1  H    23    48       P1 10186  2.00

> <Gold.PLP.Chemscore.Internal.Correction>
0.6261

> <Gold.Rescore>
     Score         DG    S(hbond)    S(metal)    S(lipo)     H(rot)  DE(clash)    DE(int)     intcor
     16.08     -18.95       1.82        0.00      98.92       1.63       0.00       2.87       ----

> <Gold.Chemscore.Fitness>
16.0800

> <Gold.Chemscore.DG>
-18.9535

> <Gold.Chemscore.ZeroCoef>
-5.4800

> <Gold.Chemscore.Hbond>
1.8170

> <Gold.Chemscore.Metal>
0.0000

> <Gold.Chemscore.Lipo>
98.9215

> <Gold.Chemscore.Internal_Hbond>
0.0000

> <Gold.Chemscore.DEClash>
0.0000

> <Gold.Chemscore.DEInternal>
2.8735

> <Gold.Chemscore.Rot>
1.6286

> <Gold.Chemscore.Internal.Correction>
   9.000000E+99

> <Gold.Chemscore.Hbonds>
donor molecule, donor type, donor heavy atom, donor atom, acceptor molecule, acceptor atom, score
      L1  H     6    29       P1 10957  0.71
      L1  H    23    48       P1 10186  1.00

> <Gold.Chemscore.Hbond.Weighted>
-6.0689

> <Gold.Chemscore.Metal.Weighted>
-0.0000

> <Gold.Chemscore.Lipo.Weighted>
-11.5738

> <Gold.Chemscore.Internal_Hbond.Weighted>
0.0000

> <Gold.Chemscore.DEClash.Weighted>
0.0000

> <Gold.Chemscore.DEInternal.Weighted>
2.8735

> <Gold.Chemscore.Rot.Weighted>
4.1692

> <Gold.Chemscore.Internal.Correction.Weighted>
   9.000000E+99

> <Gold.Protein.RotatedTorsions>
[ 6907 6896 6895 6894 ] final -163.61 input  -60.11 | X-H torsion
[ 7974 7965 7964 7962 ] final -146.13 input  175.53 | X-H torsion
[ 8008 7997 7996 7995 ] final  -83.97 input   59.86 | X-H torsion
[ 10167 10162 10161 10158 ] final  -37.82 input  -65.29 | X-H torsion
[ 10718 10713 10712 10709 ] final   48.42 input   66.30 | X-H torsion
[ 10763 10752 10751 10750 ] final -167.10 input  -60.55 | X-H torsion
[ 11005 11000 10999 10996 ] final  134.24 input  -57.11 | X-H torsion

> <Gold.Protein.ActiveResidues>
 VAL166  LYS551  ARG553  GLY616  TRP617  ASP618  TYR619  PRO620  LYS621  CYS622 
 ASP623  PHE694  ASN695  SER759  ASP760  ASP761  ALA762  ILE779  LEU786  VAL792 
 PHE793  MET794  SER795  GLU796  ALA797  LYS798  CYS799  TRP800  GLU811  SER814 

> <Gold.Protein.RotatedAtoms>
  151.3987  133.3764  159.2729 H   0  0  0  0  0  0  0  0  0  0  0  0  # atno 6907 bound_to 6896
  150.9450  134.8857  159.7646 H   0  0  0  0  0  0  0  0  0  0  0  0  # atno 6908 bound_to 6896
  152.5087  134.3940  159.9446 H   0  0  0  0  0  0  0  0  0  0  0  0  # atno 6909 bound_to 6896
  144.8180  140.5496  143.5597 H   0  0  0  0  0  0  0  0  0  0  0  0  # atno 7974 bound_to 7965
  154.6248  140.0611  156.9660 H   0  0  0  0  0  0  0  0  0  0  0  0  # atno 8008 bound_to 7997
  155.1759  140.3295  155.4365 H   0  0  0  0  0  0  0  0  0  0  0  0  # atno 8009 bound_to 7997
  156.2451  140.1906  156.6859 H   0  0  0  0  0  0  0  0  0  0  0  0  # atno 8010 bound_to 7997
  140.7108  143.3317  151.2555 H   0  0  0  0  0  0  0  0  0  0  0  0  # atno 10167 bound_to 10162
  157.4685  130.8240  149.7962 H   0  0  0  0  0  0  0  0  0  0  0  0  # atno 10718 bound_to 10713
  154.6766  135.2948  154.9670 H   0  0  0  0  0  0  0  0  0  0  0  0  # atno 10763 bound_to 10752
  154.0679  135.6622  153.4824 H   0  0  0  0  0  0  0  0  0  0  0  0  # atno 10764 bound_to 10752
  153.0520  135.5168  154.7788 H   0  0  0  0  0  0  0  0  0  0  0  0  # atno 10765 bound_to 10752
  139.9902  134.9517  156.9839 H   0  0  0  0  0  0  0  0  0  0  0  0  # atno 11005 bound_to 11000
  145.5169  139.1477  143.3573 LP  0  0  0  0  0  0  0  0  0  0  0  0  # atno 17320 bound_to 7965
  146.2484  140.5310  142.8904 LP  0  0  0  0  0  0  0  0  0  0  0  0  # atno 17321 bound_to 7965
  139.6800  143.9870  152.2803 LP  0  0  0  0  0  0  0  0  0  0  0  0  # atno 17342 bound_to 10162
  139.9497  144.6628  150.8184 LP  0  0  0  0  0  0  0  0  0  0  0  0  # atno 17343 bound_to 10162
  156.0062  130.3854  150.2424 LP  0  0  0  0  0  0  0  0  0  0  0  0  # atno 17370 bound_to 10713
  157.0605  131.0088  151.3224 LP  0  0  0  0  0  0  0  0  0  0  0  0  # atno 17371 bound_to 10713
  140.4923  134.1181  155.7235 LP  0  0  0  0  0  0  0  0  0  0  0  0  # atno 17394 bound_to 11000
  141.1559  133.8883  157.1977 LP  0  0  0  0  0  0  0  0  0  0  0  0  # atno 17395 bound_to 11000

$$$$
