AV-unprocessed.smi:1783|AV-procd|sdf|7192|dock5
  -GOLD-   22720 8433D 1   1.00000     0.00000
 Structure written by MMmdl.
 30 31  0  0  0  0  0  0  0  0  1 V2000
  151.4713  140.2123  154.8979 O   0  0  0  0  0  0  0  0  0  0  0  0
  150.3446  140.4470  155.3349 C   0  0  0  0  0  0  0  0  0  0  0  0
  150.0758  141.0564  156.5066 N   0  0  0  0  0  0  0  0  0  0  0  0
  150.9563  141.5712  157.4738 C   0  0  0  0  0  0  0  0  0  0  0  0
  150.7701  142.7274  158.1633 C   0  0  0  0  0  0  0  0  0  0  0  0
  151.7244  143.1985  159.1530 C   0  0  0  0  0  0  0  0  0  0  0  0
  151.4765  144.4670  159.9547 C   0  0  0  0  0  0  0  0  0  0  0  0
  150.1972  144.8392  159.8927 F   0  0  0  0  0  0  0  0  0  0  0  0
  151.7879  144.2624  161.2338 F   0  0  0  0  0  0  0  0  0  0  0  0
  152.2267  145.4716  159.5016 F   0  0  0  0  0  0  0  0  0  0  0  0
  152.7944  142.4136  159.3762 C   0  0  0  0  0  0  0  0  0  0  0  0
  152.9938  141.2239  158.6727 N   0  0  0  0  0  0  0  0  0  0  0  0
  152.1458  140.7437  157.7358 C   0  0  0  0  0  0  0  0  0  0  0  0
  152.3900  139.6819  157.1637 O   0  0  0  0  0  0  0  0  0  0  0  0
  149.1158  140.0246  154.5208 C   0  0  2  0  0  0  0  0  0  0  0  0
  148.2473  141.2006  154.0339 C   0  0  0  0  0  0  0  0  0  0  0  0
  146.9615  141.0529  154.8245 C   0  0  0  0  0  0  0  0  0  0  0  0
  146.9180  139.5530  155.0763 C   0  0  0  0  0  0  0  0  0  0  0  0
  148.2719  139.2423  155.3628 O   0  0  0  0  0  0  0  0  0  0  0  0
  153.8261  140.6956  158.8913 H   0  0  0  0  0  0  0  0  0  0  0  0
  149.0987  141.1303  156.7514 H   0  0  0  0  0  0  0  0  0  0  0  0
  149.8952  143.3358  158.0063 H   0  0  0  0  0  0  0  0  0  0  0  0
  153.5664  142.6277  160.1007 H   0  0  0  0  0  0  0  0  0  0  0  0
  149.4186  139.4182  153.6653 H   0  0  0  0  0  0  0  0  0  0  0  0
  148.7015  142.1824  154.1752 H   0  0  0  0  0  0  0  0  0  0  0  0
  148.0444  141.0886  152.9682 H   0  0  0  0  0  0  0  0  0  0  0  0
  147.0402  141.5873  155.7720 H   0  0  0  0  0  0  0  0  0  0  0  0
  146.0852  141.4237  154.2921 H   0  0  0  0  0  0  0  0  0  0  0  0
  146.2593  139.2804  155.9009 H   0  0  0  0  0  0  0  0  0  0  0  0
  146.5983  139.0150  154.1825 H   0  0  0  0  0  0  0  0  0  0  0  0
  1  2  2  0  0  0  0
  2  3  1  0  0  0  0
  2 15  1  0  0  0  0
  3  4  1  0  0  0  0
  3 21  1  0  0  0  0
  4 13  1  0  0  0  0
  4  5  2  0  0  0  0
  5  6  1  0  0  0  0
  5 22  1  0  0  0  0
  6  7  1  0  0  0  0
  6 11  2  0  0  0  0
  7  8  1  0  0  0  0
  7  9  1  0  0  0  0
  7 10  1  0  0  0  0
 11 12  1  0  0  0  0
 11 23  1  0  0  0  0
 12 20  1  0  0  0  0
 12 13  1  0  0  0  0
 13 14  2  0  0  0  0
 15 19  1  0  0  0  0
 15 16  1  0  0  0  0
 15 24  1  0  0  0  0
 16 17  1  0  0  0  0
 16 25  1  0  0  0  0
 16 26  1  0  0  0  0
 17 18  1  0  0  0  0
 17 27  1  0  0  0  0
 17 28  1  0  0  0  0
 18 19  1  0  0  0  0
 18 29  1  0  0  0  0
 18 30  1  0  0  0  0
M  END
> <s_m_source_file>
AV-unprocessed.smi

> <i_m_source_file_index>
1783

> <i_lp_mmshare_version>
43012

> <i_f3d_flags>
0

> <s_epik_input>
TzFbQ0gyXVtDSDJdW0NIMl1bQ0BIXTFDKD1PKVtOSF1jMltjSF1jKEMoRikoRilGKVtjSF1bbkhdYzI9Tw==

> <s_epik_cmdline>
J2VwaWtfcHl0aG9uJywgJy1waCcsICc3LjAnLCAnLXRuJywgJzgnLCAnLW1hJywgJzIwMCcsICctbWV0YWxfYmluZGluZycsICctaW1hZScsICc8aW5maWxlLm1hZT4nLCAnLW9tYWUnLCAnPG91dGZpbGUubWFlPic=

> <r_lp_tautomer_probability>
0.999

> <r_epik_Ionization_Penalty>
0.00885957

> <r_epik_Ionization_Penalty_Charging>
0.00885947

> <r_epik_Ionization_Penalty_Neutral>
9.33956e-08

> <r_epik_State_Penalty>
0.00669851

> <r_epik_Charging_Adjusted_Penalty>
0.015558

> <i_epik_Tot_Q>
0

> <i_epik_Tot_abs_Q>
0

> <r_epik_Metal_State_Penalty>
0.320804

> <b_epik_Metal_Only>
0

> <s_lp_Force_Field>
OPLS_2005

> <r_lp_Energy>
32.169

> <b_lp_Chiralities_Consistent>
1

> <s_lp_Variant>
AV-unprocessed.smi:1783-1

> <Gold.Version>
5.8.1

> <Gold.Id.Protein>
6NUR|6NUR_protein|mol2

> <Gold.PLP.Fitness>
40.3991

> <Gold.PLP.PLP>
-36.5880

> <Gold.PLP.part.hbond>
-2.0000

> <Gold.PLP.part.metal>
0.0000

> <Gold.PLP.part.buried>
-3.9034

> <Gold.PLP.part.nonpolar>
-30.4707

> <Gold.PLP.part.repulsive>
0.2230

> <Gold.PLP.ligand.clash>
0.0000

> <Gold.PLP.ligand.torsion>
1.1134

> <Gold.PLP.Chemscore.Hbond>
2.0000

> <Gold.PLP.Chemscore.CHOScore>
0.0000

> <Gold.PLP.Chemscore.Metal>
0.0000

> <Gold.Chemscore.Hbonds>
donor molecule, donor type, donor heavy atom, donor atom, acceptor molecule, acceptor atom, score
      P1  H  7989  7998       L1     1  1.00
      P1  H  7997  8008       L1    14  0.70

> <Gold.PLP.Chemscore.Internal.Correction>
0.0380

> <Gold.Rescore>
     Score         DG    S(hbond)    S(metal)    S(lipo)     H(rot)  DE(clash)    DE(int)     intcor
      9.16     -14.70       1.27        0.00      64.48       1.00       0.18       5.37       ----

> <Gold.Chemscore.Fitness>
9.1573

> <Gold.Chemscore.DG>
-14.7032

> <Gold.Chemscore.ZeroCoef>
-5.4800

> <Gold.Chemscore.Hbond>
1.2691

> <Gold.Chemscore.Metal>
0.0000

> <Gold.Chemscore.Lipo>
64.4823

> <Gold.Chemscore.Internal_Hbond>
0.0000

> <Gold.Chemscore.DEClash>
0.1755

> <Gold.Chemscore.DEInternal>
5.3703

> <Gold.Chemscore.Rot>
1.0000

> <Gold.Chemscore.Internal.Correction>
   9.000000E+99

> <Gold.Chemscore.Hbonds>
donor molecule, donor type, donor heavy atom, donor atom, acceptor molecule, acceptor atom, score
      P1  H  7989  7998       L1     1  0.69
      P1  H  7997  8008       L1    14  0.12

> <Gold.Chemscore.Hbond.Weighted>
-4.2388

> <Gold.Chemscore.Metal.Weighted>
-0.0000

> <Gold.Chemscore.Lipo.Weighted>
-7.5444

> <Gold.Chemscore.Internal_Hbond.Weighted>
0.0000

> <Gold.Chemscore.DEClash.Weighted>
0.1755

> <Gold.Chemscore.DEInternal.Weighted>
5.3703

> <Gold.Chemscore.Rot.Weighted>
2.5600

> <Gold.Chemscore.Internal.Correction.Weighted>
   9.000000E+99

> <Gold.Protein.RotatedTorsions>
[ 6907 6896 6895 6894 ] final  133.84 input  -60.11 | X-H torsion
[ 7974 7965 7964 7962 ] final  128.44 input  175.53 | X-H torsion
[ 8008 7997 7996 7995 ] final  -66.95 input   59.86 | X-H torsion
[ 10167 10162 10161 10158 ] final   48.90 input  -65.29 | X-H torsion
[ 10718 10713 10712 10709 ] final   84.44 input   66.30 | X-H torsion
[ 10763 10752 10751 10750 ] final  -42.90 input  -60.55 | X-H torsion
[ 11005 11000 10999 10996 ] final   18.26 input  -57.11 | X-H torsion

> <Gold.Protein.ActiveResidues>
 VAL166  LYS551  ARG553  GLY616  TRP617  ASP618  TYR619  PRO620  LYS621  CYS622 
 ASP623  PHE694  ASN695  SER759  ASP760  ASP761  ALA762  ILE779  LEU786  VAL792 
 PHE793  MET794  SER795  GLU796  ALA797  LYS798  CYS799  TRP800  GLU811  SER814 

> <Gold.Protein.RotatedAtoms>
  152.3177  133.5819  159.5722 H   0  0  0  0  0  0  0  0  0  0  0  0  # atno 6907 bound_to 6896
  150.7355  134.0058  159.3662 H   0  0  0  0  0  0  0  0  0  0  0  0  # atno 6908 bound_to 6896
  151.7946  135.0727  160.0443 H   0  0  0  0  0  0  0  0  0  0  0  0  # atno 6909 bound_to 6896
  145.0395  139.3976  143.5109 H   0  0  0  0  0  0  0  0  0  0  0  0  # atno 7974 bound_to 7965
  154.4768  140.0902  156.7280 H   0  0  0  0  0  0  0  0  0  0  0  0  # atno 8008 bound_to 7997
  155.4576  140.3460  155.4290 H   0  0  0  0  0  0  0  0  0  0  0  0  # atno 8009 bound_to 7997
  156.1128  140.1452  156.9303 H   0  0  0  0  0  0  0  0  0  0  0  0  # atno 8010 bound_to 7997
  140.2884  144.3074  150.6246 H   0  0  0  0  0  0  0  0  0  0  0  0  # atno 10167 bound_to 10162
  157.6898  131.0133  150.2672 H   0  0  0  0  0  0  0  0  0  0  0  0  # atno 10718 bound_to 10713
  153.9867  135.6710  153.4752 H   0  0  0  0  0  0  0  0  0  0  0  0  # atno 10763 bound_to 10752
  153.0723  135.4967  154.8328 H   0  0  0  0  0  0  0  0  0  0  0  0  # atno 10764 bound_to 10752
  154.7133  135.3102  154.9125 H   0  0  0  0  0  0  0  0  0  0  0  0  # atno 10765 bound_to 10752
  140.4268  134.1461  155.7677 H   0  0  0  0  0  0  0  0  0  0  0  0  # atno 11005 bound_to 11000
  146.3508  139.9988  142.8678 LP  0  0  0  0  0  0  0  0  0  0  0  0  # atno 17320 bound_to 7965
  145.1666  140.9700  143.4346 LP  0  0  0  0  0  0  0  0  0  0  0  0  # atno 17321 bound_to 7965
  140.5753  143.2177  151.7527 LP  0  0  0  0  0  0  0  0  0  0  0  0  # atno 17342 bound_to 10162
  139.4944  144.4159  152.0030 LP  0  0  0  0  0  0  0  0  0  0  0  0  # atno 17343 bound_to 10162
  156.3241  130.3790  149.7548 LP  0  0  0  0  0  0  0  0  0  0  0  0  # atno 17370 bound_to 10713
  156.5109  130.8171  151.3168 LP  0  0  0  0  0  0  0  0  0  0  0  0  # atno 17371 bound_to 10713
  141.1762  133.8510  157.1414 LP  0  0  0  0  0  0  0  0  0  0  0  0  # atno 17394 bound_to 11000
  140.0162  134.9966  157.0497 LP  0  0  0  0  0  0  0  0  0  0  0  0  # atno 17395 bound_to 11000

$$$$
