AV-unprocessed.smi:2955|AV-procd|sdf|11304|dock3
  -GOLD-   2272016203D 1   1.00000     0.00000
 Structure written by MMmdl.
 46 48  0  0  0  0  0  0  0  0  2 V2000
  155.2445  139.0341  160.7086 C   0  0  0  0  0  0  0  0  0  0  0  0
  154.3261  140.2105  160.4472 C   0  0  0  0  0  0  0  0  0  0  0  0
  154.3737  141.3442  161.2824 C   0  0  0  0  0  0  0  0  0  0  0  0
  153.5191  142.4343  161.0362 C   0  0  0  0  0  0  0  0  0  0  0  0
  152.6179  142.3927  159.9558 C   0  0  0  0  0  0  0  0  0  0  0  0
  152.5591  141.2676  159.1083 C   0  0  0  0  0  0  0  0  0  0  0  0
  151.6483  141.3116  158.0754 O   0  0  0  0  0  0  0  0  0  0  0  0
  151.5086  140.1642  157.2476 C   0  0  0  0  0  0  0  0  0  0  0  0
  151.5299  140.5998  155.7759 C   0  0  0  0  0  0  0  0  0  0  0  0
  150.6266  139.7903  154.9436 N   0  0  0  0  0  0  0  0  0  0  0  0
  150.7319  138.4978  154.5143 C   0  0  0  0  0  0  0  0  0  0  0  0
  151.8570  137.5406  154.7835 C   0  0  1  0  0  0  0  0  0  0  0  0
  153.1968  138.1170  154.3034 C   0  0  0  0  0  0  0  0  0  0  0  0
  151.9455  137.1995  156.1976 N   0  0  0  0  0  0  0  0  0  0  0  0
  152.9462  136.4936  156.7384 C   0  0  0  0  0  0  0  0  0  0  0  0
  153.8952  136.0664  156.0866 O   0  0  0  0  0  0  0  0  0  0  0  0
  149.6274  138.2368  153.7575 N   0  3  0  0  0  0  0  0  0  0  0  0
  148.8001  139.3588  153.7211 C   0  0  0  0  0  0  0  0  0  0  0  0
  147.5764  139.5683  153.0929 C   0  0  0  0  0  0  0  0  0  0  0  0
  146.9888  140.8393  153.2603 C   0  0  0  0  0  0  0  0  0  0  0  0
  147.6155  141.8422  154.0283 C   0  0  0  0  0  0  0  0  0  0  0  0
  148.8570  141.6180  154.6593 C   0  0  0  0  0  0  0  0  0  0  0  0
  149.4328  140.3595  154.4860 C   0  0  0  0  0  0  0  0  0  0  0  0
  153.4245  140.1735  159.3631 C   0  0  0  0  0  0  0  0  0  0  0  0
  155.5732  139.0159  161.7482 H   0  0  0  0  0  0  0  0  0  0  0  0
  156.1263  139.0958  160.0707 H   0  0  0  0  0  0  0  0  0  0  0  0
  154.7342  138.0932  160.5006 H   0  0  0  0  0  0  0  0  0  0  0  0
  155.0634  141.3814  162.1130 H   0  0  0  0  0  0  0  0  0  0  0  0
  153.5542  143.3029  161.6770 H   0  0  0  0  0  0  0  0  0  0  0  0
  151.9640  143.2334  159.7770 H   0  0  0  0  0  0  0  0  0  0  0  0
  152.3222  139.4620  157.4360 H   0  0  0  0  0  0  0  0  0  0  0  0
  150.5668  139.6562  157.4597 H   0  0  0  0  0  0  0  0  0  0  0  0
  151.2636  141.6520  155.6758 H   0  0  0  0  0  0  0  0  0  0  0  0
  152.5370  140.5059  155.3703 H   0  0  0  0  0  0  0  0  0  0  0  0
  151.6809  136.6216  154.2235 H   0  0  0  0  0  0  0  0  0  0  0  0
  153.1607  138.3539  153.2396 H   0  0  0  0  0  0  0  0  0  0  0  0
  154.0067  137.4022  154.4528 H   0  0  0  0  0  0  0  0  0  0  0  0
  153.4584  139.0306  154.8384 H   0  0  0  0  0  0  0  0  0  0  0  0
  151.2059  137.5250  156.8032 H   0  0  0  0  0  0  0  0  0  0  0  0
  152.8119  136.3525  157.8222 H   0  0  0  0  0  0  0  0  0  0  0  0
  147.0938  138.8006  152.5060 H   0  0  0  0  0  0  0  0  0  0  0  0
  146.0380  141.0488  152.7917 H   0  0  0  0  0  0  0  0  0  0  0  0
  147.1343  142.8036  154.1357 H   0  0  0  0  0  0  0  0  0  0  0  0
  149.3259  142.3927  155.2472 H   0  0  0  0  0  0  0  0  0  0  0  0
  153.4134  139.2927  158.7393 H   0  0  0  0  0  0  0  0  0  0  0  0
  149.4539  137.3496  153.3032 H   0  0  0  0  0  0  0  0  0  0  0  0
  1  2  1  0  0  0  0
  1 25  1  0  0  0  0
  1 26  1  0  0  0  0
  1 27  1  0  0  0  0
  2 24  1  0  0  0  0
  2  3  2  0  0  0  0
  3  4  1  0  0  0  0
  3 28  1  0  0  0  0
  4  5  2  0  0  0  0
  4 29  1  0  0  0  0
  5  6  1  0  0  0  0
  5 30  1  0  0  0  0
  6  7  1  0  0  0  0
  6 24  2  0  0  0  0
  7  8  1  0  0  0  0
  8  9  1  0  0  0  0
  8 31  1  0  0  0  0
  8 32  1  0  0  0  0
  9 10  1  0  0  0  0
  9 33  1  0  0  0  0
  9 34  1  0  0  0  0
 10 23  1  0  0  0  0
 10 11  1  0  0  0  0
 11 12  1  0  0  0  0
 11 17  2  0  0  0  0
 12 13  1  0  0  0  0
 12 14  1  0  0  0  0
 12 35  1  0  0  0  0
 13 36  1  0  0  0  0
 13 37  1  0  0  0  0
 13 38  1  0  0  0  0
 14 15  1  0  0  0  0
 14 39  1  0  0  0  0
 15 16  2  0  0  0  0
 15 40  1  0  0  0  0
 17 18  1  0  0  0  0
 17 46  1  0  0  0  0
 18 23  2  0  0  0  0
 18 19  1  0  0  0  0
 19 20  2  0  0  0  0
 19 41  1  0  0  0  0
 20 21  1  0  0  0  0
 20 42  1  0  0  0  0
 21 22  2  0  0  0  0
 21 43  1  0  0  0  0
 22 23  1  0  0  0  0
 22 44  1  0  0  0  0
 24 45  1  0  0  0  0
M  CHG  1  17   1
M  END
> <s_m_source_file>
AV-unprocessed.smi

> <i_m_source_file_index>
2955

> <i_lp_mmshare_version>
43012

> <i_f3d_flags>
0

> <s_epik_input>
W0NIM11jMVtjSF1bY0hdW2NIXWMoW2NIXTEpT1tDSDJdW0NIMl1uKGMobjIpW0NASF0oW0NIM10pW05IXVtDSF09TyljKGMyMylbY0hdW2NIXVtjSF1bY0hdMw==

> <s_epik_cmdline>
J2VwaWtfcHl0aG9uJywgJy1waCcsICc3LjAnLCAnLXRuJywgJzgnLCAnLW1hJywgJzIwMCcsICctbWV0YWxfYmluZGluZycsICctaW1hZScsICc8aW5maWxlLm1hZT4nLCAnLW9tYWUnLCAnPG91dGZpbGUubWFlPic=

> <r_lp_tautomer_probability>
1

> <r_epik_Ionization_Penalty>
1.15027

> <r_epik_Ionization_Penalty_Charging>
1.15027

> <r_epik_Ionization_Penalty_Neutral>
5.5802e-08

> <r_epik_State_Penalty>
1.21159

> <r_epik_Charging_Adjusted_Penalty>
2.36186

> <i_epik_Tot_Q>
1

> <i_epik_Tot_abs_Q>
1

> <r_epik_Metal_State_Penalty>
1.29223

> <b_epik_Metal_Only>
0

> <s_lp_Force_Field>
OPLS_2005

> <r_lp_Energy>
16.9999

> <b_lp_Chiralities_Consistent>
1

> <s_lp_Variant>
AV-unprocessed.smi:2955-4

> <Gold.Version>
5.8.1

> <Gold.Id.Protein>
6NUR|6NUR_protein|mol2

> <Gold.PLP.Fitness>
58.3215

> <Gold.PLP.PLP>
-51.1943

> <Gold.PLP.part.hbond>
-2.3696

> <Gold.PLP.part.metal>
0.0000

> <Gold.PLP.part.buried>
0.6009

> <Gold.PLP.part.nonpolar>
-49.2757

> <Gold.PLP.part.repulsive>
0.1578

> <Gold.PLP.ligand.clash>
0.0000

> <Gold.PLP.ligand.torsion>
0.8618

> <Gold.PLP.Chemscore.Hbond>
2.9120

> <Gold.PLP.Chemscore.CHOScore>
0.0000

> <Gold.PLP.Chemscore.Metal>
0.0000

> <Gold.Chemscore.Hbonds>
donor molecule, donor type, donor heavy atom, donor atom, acceptor molecule, acceptor atom, score
      L1  H    17    46       P1  7948  2.00

> <Gold.PLP.Chemscore.Internal.Correction>
0.1148

> <Gold.Rescore>
     Score         DG    S(hbond)    S(metal)    S(lipo)     H(rot)  DE(clash)    DE(int)     intcor
     17.69     -20.18       1.60        0.00     130.85       2.32       0.09       2.41       ----

> <Gold.Chemscore.Fitness>
17.6871

> <Gold.Chemscore.DG>
-20.1831

> <Gold.Chemscore.ZeroCoef>
-5.4800

> <Gold.Chemscore.Hbond>
1.5983

> <Gold.Chemscore.Metal>
0.0000

> <Gold.Chemscore.Lipo>
130.8532

> <Gold.Chemscore.Internal_Hbond>
0.0000

> <Gold.Chemscore.DEClash>
0.0908

> <Gold.Chemscore.DEInternal>
2.4052

> <Gold.Chemscore.Rot>
2.3223

> <Gold.Chemscore.Internal.Correction>
   9.000000E+99

> <Gold.Chemscore.Hbonds>
donor molecule, donor type, donor heavy atom, donor atom, acceptor molecule, acceptor atom, score
      L1  H    17    46       P1  7948  0.91

> <Gold.Chemscore.Hbond.Weighted>
-5.3383

> <Gold.Chemscore.Metal.Weighted>
-0.0000

> <Gold.Chemscore.Lipo.Weighted>
-15.3098

> <Gold.Chemscore.Internal_Hbond.Weighted>
0.0000

> <Gold.Chemscore.DEClash.Weighted>
0.0908

> <Gold.Chemscore.DEInternal.Weighted>
2.4052

> <Gold.Chemscore.Rot.Weighted>
5.9450

> <Gold.Chemscore.Internal.Correction.Weighted>
   9.000000E+99

> <Gold.Protein.RotatedTorsions>
[ 6907 6896 6895 6894 ] final   25.37 input  -60.11 | X-H torsion
[ 7974 7965 7964 7962 ] final   69.06 input  175.53 | X-H torsion
[ 8008 7997 7996 7995 ] final    0.46 input   59.86 | X-H torsion
[ 10167 10162 10161 10158 ] final -178.41 input  -65.29 | X-H torsion
[ 10718 10713 10712 10709 ] final  -43.61 input   66.30 | X-H torsion
[ 10763 10752 10751 10750 ] final -106.77 input  -60.55 | X-H torsion
[ 11005 11000 10999 10996 ] final   19.81 input  -57.11 | X-H torsion

> <Gold.Protein.ActiveResidues>
 VAL166  LYS551  ARG553  GLY616  TRP617  ASP618  TYR619  PRO620  LYS621  CYS622 
 ASP623  PHE694  ASN695  SER759  ASP760  ASP761  ALA762  ILE779  LEU786  VAL792 
 PHE793  MET794  SER795  GLU796  ALA797  LYS798  CYS799  TRP800  GLU811  SER814 

> <Gold.Protein.RotatedAtoms>
  151.9715  135.0074  160.0552 H   0  0  0  0  0  0  0  0  0  0  0  0  # atno 6907 bound_to 6896
  152.1779  133.4682  159.4951 H   0  0  0  0  0  0  0  0  0  0  0  0  # atno 6908 bound_to 6896
  150.6912  134.1788  159.4283 H   0  0  0  0  0  0  0  0  0  0  0  0  # atno 6909 bound_to 6896
  145.7950  139.2953  143.1188 H   0  0  0  0  0  0  0  0  0  0  0  0  # atno 7974 bound_to 7965
  154.6684  140.2606  155.7033 H   0  0  0  0  0  0  0  0  0  0  0  0  # atno 8008 bound_to 7997
  156.2648  140.2834  156.1105 H   0  0  0  0  0  0  0  0  0  0  0  0  # atno 8009 bound_to 7997
  155.1205  140.0377  157.2739 H   0  0  0  0  0  0  0  0  0  0  0  0  # atno 8010 bound_to 7997
  139.5434  144.2302  152.0940 H   0  0  0  0  0  0  0  0  0  0  0  0  # atno 10167 bound_to 10162
  156.2472  130.4185  149.8691 H   0  0  0  0  0  0  0  0  0  0  0  0  # atno 10718 bound_to 10713
  154.8033  135.4700  154.0329 H   0  0  0  0  0  0  0  0  0  0  0  0  # atno 10763 bound_to 10752
  153.1818  135.6841  153.8475 H   0  0  0  0  0  0  0  0  0  0  0  0  # atno 10764 bound_to 10752
  153.8022  135.3228  155.3369 H   0  0  0  0  0  0  0  0  0  0  0  0  # atno 10765 bound_to 10752
  140.4095  134.1633  155.7666 H   0  0  0  0  0  0  0  0  0  0  0  0  # atno 11005 bound_to 11000
  145.9937  140.8580  143.0053 LP  0  0  0  0  0  0  0  0  0  0  0  0  # atno 17320 bound_to 7965
  144.6776  140.2253  143.7361 LP  0  0  0  0  0  0  0  0  0  0  0  0  # atno 17321 bound_to 7965
  140.1784  144.4868  150.6541 LP  0  0  0  0  0  0  0  0  0  0  0  0  # atno 17342 bound_to 10162
  140.6673  143.2272  151.5712 LP  0  0  0  0  0  0  0  0  0  0  0  0  # atno 17343 bound_to 10162
  156.6253  130.8643  151.3484 LP  0  0  0  0  0  0  0  0  0  0  0  0  # atno 17370 bound_to 10713
  157.7200  130.9546  150.1400 LP  0  0  0  0  0  0  0  0  0  0  0  0  # atno 17371 bound_to 10713
  141.1826  133.8381  157.1202 LP  0  0  0  0  0  0  0  0  0  0  0  0  # atno 17394 bound_to 11000
  140.0278  134.9916  157.0720 LP  0  0  0  0  0  0  0  0  0  0  0  0  # atno 17395 bound_to 11000

$$$$
