AV-unprocessed.smi:1699|AV-procd|sdf|6815|dock9
  -GOLD-   22720 7593D 1   1.00000     0.00000
 Structure written by MMmdl.
 37 38  0  0  0  0  0  0  0  0  1 V2000
  151.3168  145.0328  158.0545 C   0  0  0  0  0  0  0  0  0  0  0  0
  151.7879  143.6932  158.5972 C   0  0  0  0  0  0  0  0  0  0  0  0
  152.8047  143.6641  159.5753 C   0  0  0  0  0  0  0  0  0  0  0  0
  153.2382  142.4252  160.0771 C   0  0  0  0  0  0  0  0  0  0  0  0
  152.6333  141.2602  159.5752 C   0  0  0  0  0  0  0  0  0  0  0  0
  151.6622  141.2785  158.6400 N   0  0  0  0  0  0  0  0  0  0  0  0
  151.2312  142.4664  158.1455 C   0  0  0  0  0  0  0  0  0  0  0  0
  150.2078  142.5628  157.1607 N   0  0  0  0  0  0  0  0  0  0  0  0
  149.4524  141.5811  156.6372 C   0  0  0  0  0  0  0  0  0  0  0  0
  149.5446  140.3854  156.9154 O   0  0  0  0  0  0  0  0  0  0  0  0
  148.5675  142.0737  155.7580 N   0  0  0  0  0  0  0  0  0  0  0  0
  147.5780  141.2986  155.0114 C   0  0  2  0  0  0  0  0  0  0  0  0
  147.9909  141.2423  153.5329 C   0  0  0  0  0  0  0  0  0  0  0  0
  146.1788  141.9168  155.1992 C   0  0  2  0  0  0  0  0  0  0  0  0
  145.9436  143.2092  154.4128 C   0  0  0  0  0  0  0  0  0  0  0  0
  144.8614  143.8746  155.2305 C   0  0  0  0  0  0  0  0  0  0  0  0
  145.2956  143.5315  156.6514 C   0  0  0  0  0  0  0  0  0  0  0  0
  145.9665  142.2771  156.5633 O   0  0  0  0  0  0  0  0  0  0  0  0
  151.8397  145.8615  158.5329 H   0  0  0  0  0  0  0  0  0  0  0  0
  150.2491  145.1639  158.2328 H   0  0  0  0  0  0  0  0  0  0  0  0
  151.5005  145.0945  156.9814 H   0  0  0  0  0  0  0  0  0  0  0  0
  153.2491  144.5789  159.9392 H   0  0  0  0  0  0  0  0  0  0  0  0
  154.0135  142.3693  160.8269 H   0  0  0  0  0  0  0  0  0  0  0  0
  152.9363  140.2875  159.9335 H   0  0  0  0  0  0  0  0  0  0  0  0
  150.0217  143.4955  156.8236 H   0  0  0  0  0  0  0  0  0  0  0  0
  148.5711  143.0698  155.5952 H   0  0  0  0  0  0  0  0  0  0  0  0
  147.5417  140.2754  155.3895 H   0  0  0  0  0  0  0  0  0  0  0  0
  147.2835  140.6533  152.9488 H   0  0  0  0  0  0  0  0  0  0  0  0
  148.9728  140.7823  153.4168 H   0  0  0  0  0  0  0  0  0  0  0  0
  148.0349  142.2395  153.0938 H   0  0  0  0  0  0  0  0  0  0  0  0
  145.4082  141.1936  154.9266 H   0  0  0  0  0  0  0  0  0  0  0  0
  146.8421  143.8283  154.4109 H   0  0  0  0  0  0  0  0  0  0  0  0
  145.6485  143.0318  153.3783 H   0  0  0  0  0  0  0  0  0  0  0  0
  144.7865  144.9480  155.0543 H   0  0  0  0  0  0  0  0  0  0  0  0
  143.8938  143.4214  155.0110 H   0  0  0  0  0  0  0  0  0  0  0  0
  146.0016  144.2747  157.0237 H   0  0  0  0  0  0  0  0  0  0  0  0
  144.4543  143.4871  157.3433 H   0  0  0  0  0  0  0  0  0  0  0  0
  1  2  1  0  0  0  0
  1 19  1  0  0  0  0
  1 20  1  0  0  0  0
  1 21  1  0  0  0  0
  2  7  1  0  0  0  0
  2  3  2  0  0  0  0
  3  4  1  0  0  0  0
  3 22  1  0  0  0  0
  4  5  2  0  0  0  0
  4 23  1  0  0  0  0
  5  6  1  0  0  0  0
  5 24  1  0  0  0  0
  6  7  2  0  0  0  0
  7  8  1  0  0  0  0
  8  9  1  0  0  0  0
  8 25  1  0  0  0  0
  9 10  2  0  0  0  0
  9 11  1  0  0  0  0
 11 12  1  0  0  0  0
 11 26  1  0  0  0  0
 12 13  1  0  0  0  0
 12 14  1  0  0  0  0
 12 27  1  0  0  0  0
 13 28  1  0  0  0  0
 13 29  1  0  0  0  0
 13 30  1  0  0  0  0
 14 18  1  0  0  0  0
 14 15  1  0  0  0  0
 14 31  1  0  0  0  0
 15 16  1  0  0  0  0
 15 32  1  0  0  0  0
 15 33  1  0  0  0  0
 16 17  1  0  0  0  0
 16 34  1  0  0  0  0
 16 35  1  0  0  0  0
 17 18  1  0  0  0  0
 17 36  1  0  0  0  0
 17 37  1  0  0  0  0
M  END
> <s_m_source_file>
AV-unprocessed.smi

> <i_m_source_file_index>
1699

> <i_lp_mmshare_version>
43012

> <i_f3d_flags>
0

> <s_epik_input>
W0NIM11jMVtjSF1bY0hdW2NIXW5jMVtOSF1DKD1PKVtOSF1bQ0BIXShbQ0gzXSlbQ0BASF0yW0NIMl1bQ0gyXVtDSDJdTzI=

> <s_epik_cmdline>
J2VwaWtfcHl0aG9uJywgJy1waCcsICc3LjAnLCAnLXRuJywgJzgnLCAnLW1hJywgJzIwMCcsICctbWV0YWxfYmluZGluZycsICctaW1hZScsICc8aW5maWxlLm1hZT4nLCAnLW9tYWUnLCAnPG91dGZpbGUubWFlPic=

> <r_lp_tautomer_probability>
1

> <r_epik_Ionization_Penalty>
5.52788e-05

> <r_epik_Ionization_Penalty_Charging>
0

> <r_epik_Ionization_Penalty_Neutral>
5.52788e-05

> <r_epik_State_Penalty>
-0

> <r_epik_Charging_Adjusted_Penalty>
0

> <i_epik_Tot_Q>
0

> <i_epik_Tot_abs_Q>
0

> <r_epik_Metal_State_Penalty>
-0

> <b_epik_Metal_Only>
0

> <s_lp_Force_Field>
OPLS_2005

> <r_lp_Energy>
20.4349

> <b_lp_Chiralities_Consistent>
1

> <s_lp_Variant>
AV-unprocessed.smi:1699-1

> <Gold.Version>
5.8.1

> <Gold.Id.Protein>
6NUR|6NUR_protein|mol2

> <Gold.PLP.Fitness>
40.6401

> <Gold.PLP.PLP>
-35.2815

> <Gold.PLP.part.hbond>
-2.0000

> <Gold.PLP.part.metal>
0.0000

> <Gold.PLP.part.buried>
-4.8763

> <Gold.PLP.part.nonpolar>
-28.2612

> <Gold.PLP.part.repulsive>
0.2306

> <Gold.PLP.ligand.clash>
0.0000

> <Gold.PLP.ligand.torsion>
0.3146

> <Gold.PLP.Chemscore.Hbond>
1.9920

> <Gold.PLP.Chemscore.CHOScore>
0.0000

> <Gold.PLP.Chemscore.Metal>
0.0000

> <Gold.Chemscore.Hbonds>
donor molecule, donor type, donor heavy atom, donor atom, acceptor molecule, acceptor atom, score
      L1  H     8    25       P1  8028  0.98
      L1  H    11    26       P1  8028  1.00

> <Gold.PLP.Chemscore.Internal.Correction>
0.0118

> <Gold.Rescore>
     Score         DG    S(hbond)    S(metal)    S(lipo)     H(rot)  DE(clash)    DE(int)     intcor
     17.10     -18.80       1.94        0.00      85.33       1.22       0.10       1.61       ----

> <Gold.Chemscore.Fitness>
17.0967

> <Gold.Chemscore.DG>
-18.8038

> <Gold.Chemscore.ZeroCoef>
-5.4800

> <Gold.Chemscore.Hbond>
1.9353

> <Gold.Chemscore.Metal>
0.0000

> <Gold.Chemscore.Lipo>
85.3262

> <Gold.Chemscore.Internal_Hbond>
0.0000

> <Gold.Chemscore.DEClash>
0.0998

> <Gold.Chemscore.DEInternal>
1.6074

> <Gold.Chemscore.Rot>
1.2200

> <Gold.Chemscore.Internal.Correction>
   9.000000E+99

> <Gold.Chemscore.Hbonds>
donor molecule, donor type, donor heavy atom, donor atom, acceptor molecule, acceptor atom, score
      L1  H     8    25       P1  8028  0.87
      L1  H    11    26       P1  8028  1.00

> <Gold.Chemscore.Hbond.Weighted>
-6.4638

> <Gold.Chemscore.Metal.Weighted>
-0.0000

> <Gold.Chemscore.Lipo.Weighted>
-9.9832

> <Gold.Chemscore.Internal_Hbond.Weighted>
0.0000

> <Gold.Chemscore.DEClash.Weighted>
0.0998

> <Gold.Chemscore.DEInternal.Weighted>
1.6074

> <Gold.Chemscore.Rot.Weighted>
3.1232

> <Gold.Chemscore.Internal.Correction.Weighted>
   9.000000E+99

> <Gold.Protein.RotatedTorsions>
[ 6907 6896 6895 6894 ] final   55.64 input  -60.11 | X-H torsion
[ 7974 7965 7964 7962 ] final  131.32 input  175.53 | X-H torsion
[ 8008 7997 7996 7995 ] final   99.01 input   59.86 | X-H torsion
[ 10167 10162 10161 10158 ] final -177.12 input  -65.29 | X-H torsion
[ 10718 10713 10712 10709 ] final  -25.84 input   66.30 | X-H torsion
[ 10763 10752 10751 10750 ] final  132.09 input  -60.55 | X-H torsion
[ 11005 11000 10999 10996 ] final  164.30 input  -57.11 | X-H torsion

> <Gold.Protein.ActiveResidues>
 VAL166  LYS551  ARG553  GLY616  TRP617  ASP618  TYR619  PRO620  LYS621  CYS622 
 ASP623  PHE694  ASN695  SER759  ASP760  ASP761  ALA762  ILE779  LEU786  VAL792 
 PHE793  MET794  SER795  GLU796  ALA797  LYS798  CYS799  TRP800  GLU811  SER814 

> <Gold.Protein.RotatedAtoms>
  152.3558  134.6941  160.0222 H   0  0  0  0  0  0  0  0  0  0  0  0  # atno 6907 bound_to 6896
  151.7281  133.3311  159.3341 H   0  0  0  0  0  0  0  0  0  0  0  0  # atno 6908 bound_to 6896
  150.7571  134.6322  159.6237 H   0  0  0  0  0  0  0  0  0  0  0  0  # atno 6909 bound_to 6896
  145.0086  139.4242  143.5256 H   0  0  0  0  0  0  0  0  0  0  0  0  # atno 7974 bound_to 7965
  156.1062  140.3235  155.8010 H   0  0  0  0  0  0  0  0  0  0  0  0  # atno 8008 bound_to 7997
  155.4751  140.0549  157.2992 H   0  0  0  0  0  0  0  0  0  0  0  0  # atno 8009 bound_to 7997
  154.4729  140.2019  155.9964 H   0  0  0  0  0  0  0  0  0  0  0  0  # atno 8010 bound_to 7997
  139.5496  144.2145  152.1052 H   0  0  0  0  0  0  0  0  0  0  0  0  # atno 10167 bound_to 10162
  156.4591  130.4500  149.6940 H   0  0  0  0  0  0  0  0  0  0  0  0  # atno 10718 bound_to 10713
  153.7851  135.3163  155.3371 H   0  0  0  0  0  0  0  0  0  0  0  0  # atno 10763 bound_to 10752
  154.8147  135.4644  154.0614 H   0  0  0  0  0  0  0  0  0  0  0  0  # atno 10764 bound_to 10752
  153.1914  135.6909  153.8433 H   0  0  0  0  0  0  0  0  0  0  0  0  # atno 10765 bound_to 10752
  140.2445  134.8025  157.3443 H   0  0  0  0  0  0  0  0  0  0  0  0  # atno 11005 bound_to 11000
  146.3466  139.9516  142.8728 LP  0  0  0  0  0  0  0  0  0  0  0  0  # atno 17320 bound_to 7965
  145.2054  140.9873  143.4131 LP  0  0  0  0  0  0  0  0  0  0  0  0  # atno 17321 bound_to 7965
  140.1638  144.5001  150.6618 LP  0  0  0  0  0  0  0  0  0  0  0  0  # atno 17342 bound_to 10162
  140.6754  143.2303  151.5519 LP  0  0  0  0  0  0  0  0  0  0  0  0  # atno 17343 bound_to 10162
  156.3736  130.7543  151.2529 LP  0  0  0  0  0  0  0  0  0  0  0  0  # atno 17370 bound_to 10713
  157.7499  131.0316  150.4189 LP  0  0  0  0  0  0  0  0  0  0  0  0  # atno 17371 bound_to 10713
  140.1620  134.4717  155.7888 LP  0  0  0  0  0  0  0  0  0  0  0  0  # atno 17394 bound_to 11000
  141.2207  133.6905  156.7560 LP  0  0  0  0  0  0  0  0  0  0  0  0  # atno 17395 bound_to 11000

$$$$
