AV-unprocessed.smi:186|AV-procd|sdf|1466|dock5
  -GOLD-   2262019273D 1   1.00000     0.00000
 Structure written by MMmdl.
 48 51  0  0  0  0  0  0  0  0  1 V2000
  152.0168  145.3541  160.0428 C   0  0  0  0  0  0  0  0  0  0  0  0
  151.5039  144.1321  159.5420 O   0  0  0  0  0  0  0  0  0  0  0  0
  151.9434  143.8595  158.2200 C   0  0  0  0  0  0  0  0  0  0  0  0
  151.3469  142.5350  157.7406 C   0  0  0  0  0  0  0  0  0  0  0  0
  151.6541  141.4715  158.2802 O   0  0  0  0  0  0  0  0  0  0  0  0
  150.4883  142.6152  156.7141 N   0  0  0  0  0  0  0  0  0  0  0  0
  149.8147  141.4706  156.1151 C   0  0  0  0  0  0  0  0  0  0  0  0
  150.7619  140.3475  155.6873 C   0  0  0  0  0  0  0  0  0  0  0  0
  150.0133  140.2915  154.4324 N   0  0  0  0  0  0  0  0  0  0  0  0
  149.0727  139.2163  154.4024 C   0  0  0  0  0  0  0  0  0  0  0  0
  149.3423  138.1890  155.2489 N   0  0  0  0  0  0  0  0  0  0  0  0
  148.5481  137.1189  155.3259 C   0  0  0  0  0  0  0  0  0  0  0  0
  147.4301  136.8633  154.6493 N   0  0  0  0  0  0  0  0  0  0  0  0
  147.1370  137.8796  153.7913 C   0  0  0  0  0  0  0  0  0  0  0  0
  147.8913  139.0769  153.6058 C   0  0  0  0  0  0  0  0  0  0  0  0
  147.2604  139.8680  152.6506 N   0  0  0  0  0  0  0  0  0  0  0  0
  146.2091  139.1838  152.2940 C   0  0  0  0  0  0  0  0  0  0  0  0
  146.0608  137.9723  152.9258 N   0  0  0  0  0  0  0  0  0  0  0  0
  144.9874  137.0113  152.7220 C   0  0  0  0  0  0  0  0  0  0  0  0
  145.2204  136.0780  151.5111 C   0  0  1  0  0  0  0  0  0  0  0  0
  146.1684  136.6773  150.6442 O   0  0  0  0  0  0  0  0  0  0  0  0
  145.7165  134.6836  151.8829 C   0  0  0  0  0  0  0  0  0  0  0  0
  145.1167  133.8082  150.7916 C   0  0  0  0  0  0  0  0  0  0  0  0
  143.8280  134.3721  150.6178 O   0  0  0  0  0  0  0  0  0  0  0  0
  143.9382  135.7895  150.7047 C   0  0  0  0  0  0  0  0  0  0  0  0
  149.5185  141.6546  154.6266 C   0  0  0  0  0  0  0  0  0  0  0  0
  151.6548  145.5141  161.0582 H   0  0  0  0  0  0  0  0  0  0  0  0
  151.6911  146.1974  159.4324 H   0  0  0  0  0  0  0  0  0  0  0  0
  153.1071  145.3423  160.0718 H   0  0  0  0  0  0  0  0  0  0  0  0
  151.6339  144.6603  157.5464 H   0  0  0  0  0  0  0  0  0  0  0  0
  153.0320  143.7936  158.1886 H   0  0  0  0  0  0  0  0  0  0  0  0
  150.2890  143.5246  156.3235 H   0  0  0  0  0  0  0  0  0  0  0  0
  148.9557  141.1099  156.6840 H   0  0  0  0  0  0  0  0  0  0  0  0
  151.7905  140.6744  155.5272 H   0  0  0  0  0  0  0  0  0  0  0  0
  150.7078  139.4494  156.3045 H   0  0  0  0  0  0  0  0  0  0  0  0
  148.8531  136.3596  156.0308 H   0  0  0  0  0  0  0  0  0  0  0  0
  145.5104  139.5439  151.5529 H   0  0  0  0  0  0  0  0  0  0  0  0
  144.8791  136.4226  153.6338 H   0  0  0  0  0  0  0  0  0  0  0  0
  144.0528  137.5607  152.6022 H   0  0  0  0  0  0  0  0  0  0  0  0
  147.0025  136.2517  150.7730 H   0  0  0  0  0  0  0  0  0  0  0  0
  146.8024  134.6045  151.9537 H   0  0  0  0  0  0  0  0  0  0  0  0
  145.2980  134.3775  152.8421 H   0  0  0  0  0  0  0  0  0  0  0  0
  145.6847  133.8903  149.8635 H   0  0  0  0  0  0  0  0  0  0  0  0
  145.0629  132.7567  151.0743 H   0  0  0  0  0  0  0  0  0  0  0  0
  143.0453  136.1859  151.1888 H   0  0  0  0  0  0  0  0  0  0  0  0
  143.9794  136.2151  149.7006 H   0  0  0  0  0  0  0  0  0  0  0  0
  148.4791  141.8376  154.3612 H   0  0  0  0  0  0  0  0  0  0  0  0
  150.1773  142.3775  154.1430 H   0  0  0  0  0  0  0  0  0  0  0  0
  1  2  1  0  0  0  0
  1 27  1  0  0  0  0
  1 28  1  0  0  0  0
  1 29  1  0  0  0  0
  2  3  1  0  0  0  0
  3  4  1  0  0  0  0
  3 30  1  0  0  0  0
  3 31  1  0  0  0  0
  4  5  2  0  0  0  0
  4  6  1  0  0  0  0
  6  7  1  0  0  0  0
  6 32  1  0  0  0  0
  7 26  1  0  0  0  0
  7  8  1  0  0  0  0
  7 33  1  0  0  0  0
  8  9  1  0  0  0  0
  8 34  1  0  0  0  0
  8 35  1  0  0  0  0
  9 10  1  0  0  0  0
  9 26  1  0  0  0  0
 10 15  1  0  0  0  0
 10 11  2  0  0  0  0
 11 12  1  0  0  0  0
 12 13  2  0  0  0  0
 12 36  1  0  0  0  0
 13 14  1  0  0  0  0
 14 18  1  0  0  0  0
 14 15  2  0  0  0  0
 15 16  1  0  0  0  0
 16 17  2  0  0  0  0
 17 18  1  0  0  0  0
 17 37  1  0  0  0  0
 18 19  1  0  0  0  0
 19 20  1  0  0  0  0
 19 38  1  0  0  0  0
 19 39  1  0  0  0  0
 20 25  1  0  0  0  0
 20 21  1  0  0  0  0
 20 22  1  0  0  0  0
 21 40  1  0  0  0  0
 22 23  1  0  0  0  0
 22 41  1  0  0  0  0
 22 42  1  0  0  0  0
 23 24  1  0  0  0  0
 23 43  1  0  0  0  0
 23 44  1  0  0  0  0
 24 25  1  0  0  0  0
 25 45  1  0  0  0  0
 25 46  1  0  0  0  0
 26 47  1  0  0  0  0
 26 48  1  0  0  0  0
M  END
> <s_m_source_file>
AV-unprocessed.smi

> <i_m_source_file_index>
186

> <i_lp_mmshare_version>
43012

> <i_f3d_flags>
0

> <s_epik_input>
W0NIM11PW0NIMl1DKD1PKVtOSF1bQ0hdMVtDSDJdTihbQ0gyXTEpYyhuW2NIXW4yKWMoYzIzKW5bY0hdbjNbQ0gyXVtDQEBdNChbT0hdKVtDSDJdW0NIMl1PW0NIMl00

> <s_epik_cmdline>
J2VwaWtfcHl0aG9uJywgJy1waCcsICc3LjAnLCAnLXRuJywgJzgnLCAnLW1hJywgJzIwMCcsICctbWV0YWxfYmluZGluZycsICctaW1hZScsICc8aW5maWxlLm1hZT4nLCAnLW9tYWUnLCAnPG91dGZpbGUubWFlPic=

> <r_lp_tautomer_probability>
1

> <r_epik_Ionization_Penalty>
0.00138671

> <r_epik_Ionization_Penalty_Charging>
0

> <r_epik_Ionization_Penalty_Neutral>
0.00138671

> <r_epik_State_Penalty>
0.000746021

> <r_epik_Charging_Adjusted_Penalty>
0.000746021

> <i_epik_Tot_Q>
0

> <i_epik_Tot_abs_Q>
0

> <r_epik_Metal_State_Penalty>
-0

> <b_epik_Metal_Only>
0

> <s_lp_Force_Field>
OPLS_2005

> <r_lp_Energy>
46.8047

> <b_lp_Chiralities_Consistent>
1

> <s_lp_Variant>
AV-unprocessed.smi:186-1

> <Gold.Version>
5.8.1

> <Gold.Id.Protein>
6NUR|6NUR_protein|mol2

> <Gold.PLP.Fitness>
46.9644

> <Gold.PLP.PLP>
-38.1224

> <Gold.PLP.part.hbond>
-3.1027

> <Gold.PLP.part.metal>
0.0000

> <Gold.PLP.part.buried>
-1.8788

> <Gold.PLP.part.nonpolar>
-34.3849

> <Gold.PLP.part.repulsive>
2.0877

> <Gold.PLP.ligand.clash>
0.0000

> <Gold.PLP.ligand.torsion>
1.7973

> <Gold.PLP.Chemscore.Hbond>
2.2204

> <Gold.PLP.Chemscore.CHOScore>
1.7251

> <Gold.PLP.Chemscore.Metal>
0.0000

> <Gold.Chemscore.Hbonds>
donor molecule, donor type, donor heavy atom, donor atom, acceptor molecule, acceptor atom, score
      L1  H     6    32       P1  8028  0.93
      L1  H    21    40       P1  7948  0.62
      P1  H  7989  7998       L1     9  0.28
      L1  C    17    37       P1 10171  0.95
      L1  C    17    37       P1 10175  0.68

> <Gold.PLP.Chemscore.Internal.Correction>
0.6000

> <Gold.Rescore>
     Score         DG    S(hbond)    S(metal)    S(lipo)     H(rot)  DE(clash)    DE(int)     intcor
      8.86     -12.08       1.97        0.00      73.66       3.36       0.18       3.05       ----

> <Gold.Chemscore.Fitness>
8.8573

> <Gold.Chemscore.DG>
-12.0832

> <Gold.Chemscore.ZeroCoef>
-5.4800

> <Gold.Chemscore.Hbond>
1.9737

> <Gold.Chemscore.Metal>
0.0000

> <Gold.Chemscore.Lipo>
73.6551

> <Gold.Chemscore.Internal_Hbond>
0.0000

> <Gold.Chemscore.DEClash>
0.1781

> <Gold.Chemscore.DEInternal>
3.0478

> <Gold.Chemscore.Rot>
3.3620

> <Gold.Chemscore.Internal.Correction>
   9.000000E+99

> <Gold.Chemscore.Hbonds>
donor molecule, donor type, donor heavy atom, donor atom, acceptor molecule, acceptor atom, score
      L1  H     6    32       P1  8028  0.89
      L1  H    21    40       P1  7948  0.55

> <Gold.Chemscore.Hbond.Weighted>
-6.5923

> <Gold.Chemscore.Metal.Weighted>
-0.0000

> <Gold.Chemscore.Lipo.Weighted>
-8.6176

> <Gold.Chemscore.Internal_Hbond.Weighted>
0.0000

> <Gold.Chemscore.DEClash.Weighted>
0.1781

> <Gold.Chemscore.DEInternal.Weighted>
3.0478

> <Gold.Chemscore.Rot.Weighted>
8.6067

> <Gold.Chemscore.Internal.Correction.Weighted>
   9.000000E+99

> <Gold.Protein.RotatedTorsions>
[ 6907 6896 6895 6894 ] final -123.07 input  -60.11 | X-H torsion
[ 7974 7965 7964 7962 ] final -122.53 input  175.53 | X-H torsion
[ 8008 7997 7996 7995 ] final  -97.55 input   59.86 | X-H torsion
[ 10167 10162 10161 10158 ] final  106.43 input  -65.29 | X-H torsion
[ 10718 10713 10712 10709 ] final  118.39 input   66.30 | X-H torsion
[ 10763 10752 10751 10750 ] final   27.06 input  -60.55 | X-H torsion
[ 11005 11000 10999 10996 ] final  111.84 input  -57.11 | X-H torsion

> <Gold.Protein.ActiveResidues>
 VAL166  LYS551  ARG553  GLY616  TRP617  ASP618  TYR619  PRO620  LYS621  CYS622 
 ASP623  PHE694  ASN695  SER759  ASP760  ASP761  ALA762  ILE779  LEU786  VAL792 
 PHE793  MET794  SER795  GLU796  ALA797  LYS798  CYS799  TRP800  GLU811  SER814 

> <Gold.Protein.RotatedAtoms>
  150.8636  133.7607  159.2983 H   0  0  0  0  0  0  0  0  0  0  0  0  # atno 6907 bound_to 6896
  151.5242  135.1066  159.9895 H   0  0  0  0  0  0  0  0  0  0  0  0  # atno 6908 bound_to 6896
  152.4644  133.7848  159.6926 H   0  0  0  0  0  0  0  0  0  0  0  0  # atno 6909 bound_to 6896
  145.0285  140.8047  143.4338 H   0  0  0  0  0  0  0  0  0  0  0  0  # atno 7974 bound_to 7965
  154.7892  140.0462  157.1188 H   0  0  0  0  0  0  0  0  0  0  0  0  # atno 8008 bound_to 7997
  154.9611  140.3077  155.5011 H   0  0  0  0  0  0  0  0  0  0  0  0  # atno 8009 bound_to 7997
  156.2947  140.2270  156.4697 H   0  0  0  0  0  0  0  0  0  0  0  0  # atno 8010 bound_to 7997
  139.7010  144.7094  151.1186 H   0  0  0  0  0  0  0  0  0  0  0  0  # atno 10167 bound_to 10162
  157.6033  131.1047  150.7750 H   0  0  0  0  0  0  0  0  0  0  0  0  # atno 10718 bound_to 10713
  153.0581  135.6546  154.0529 H   0  0  0  0  0  0  0  0  0  0  0  0  # atno 10763 bound_to 10752
  154.0203  135.2920  155.3383 H   0  0  0  0  0  0  0  0  0  0  0  0  # atno 10764 bound_to 10752
  154.6906  135.5284  153.8454 H   0  0  0  0  0  0  0  0  0  0  0  0  # atno 10765 bound_to 10752
  139.8913  134.9517  156.6494 H   0  0  0  0  0  0  0  0  0  0  0  0  # atno 11005 bound_to 11000
  145.1802  139.2356  143.5296 LP  0  0  0  0  0  0  0  0  0  0  0  0  # atno 17320 bound_to 7965
  146.3495  140.1574  142.8591 LP  0  0  0  0  0  0  0  0  0  0  0  0  # atno 17321 bound_to 7965
  140.7709  143.5424  150.9297 LP  0  0  0  0  0  0  0  0  0  0  0  0  # atno 17342 bound_to 10162
  139.9106  143.6725  152.3116 LP  0  0  0  0  0  0  0  0  0  0  0  0  # atno 17343 bound_to 10162
  156.8144  130.4963  149.5351 LP  0  0  0  0  0  0  0  0  0  0  0  0  # atno 17370 bound_to 10713
  156.1112  130.6041  151.0050 LP  0  0  0  0  0  0  0  0  0  0  0  0  # atno 17371 bound_to 10713
  140.7532  133.8879  155.8363 LP  0  0  0  0  0  0  0  0  0  0  0  0  # atno 17394 bound_to 11000
  140.9983  134.1185  157.4342 LP  0  0  0  0  0  0  0  0  0  0  0  0  # atno 17395 bound_to 11000

$$$$
