AV-unprocessed.smi:1563|AV-procd|sdf|6292|dock5
  -GOLD-   22720 6493D 1   1.00000     0.00000
 Structure written by MMmdl.
 44 45  0  0  0  0  0  0  0  0  2 V2000
  151.5835  143.7547  157.7102 C   0  0  0  0  0  0  0  0  0  0  0  0
  151.1911  142.3490  157.2693 C   0  0  0  0  0  0  0  0  0  0  0  0
  151.7272  141.3680  157.7851 O   0  0  0  0  0  0  0  0  0  0  0  0
  150.2561  142.2665  156.3104 N   0  0  0  0  0  0  0  0  0  0  0  0
  149.7445  141.0223  155.7474 C   0  0  1  0  0  0  0  0  0  0  0  0
  148.6448  141.3009  154.6962 C   0  0  0  0  0  0  0  0  0  0  0  0
  148.2106  140.0177  153.9578 C   0  0  0  0  0  0  0  0  0  0  0  0
  149.4309  139.2208  153.4595 C   0  0  0  0  0  0  0  0  0  0  0  0
  150.3142  138.9579  154.6067 N   0  0  0  0  0  0  0  0  0  0  0  0
  150.3911  137.8019  155.3115 C   0  0  0  0  0  0  0  0  0  0  0  0
  150.8164  137.7452  156.4663 O   0  0  0  0  0  0  0  0  0  0  0  0
  149.8789  136.7272  154.6851 N   0  0  0  0  0  0  0  0  0  0  0  0
  149.6323  135.4254  155.3027 C   0  0  0  0  0  0  0  0  0  0  0  0
  150.0732  134.2546  154.3980 C   0  0  0  0  0  0  0  0  0  0  0  0
  148.9206  133.4544  153.8120 C   0  0  0  0  0  0  0  0  0  0  0  0
  148.7168  132.0915  154.1221 C   0  0  0  0  0  0  0  0  0  0  0  0
  147.6520  131.3963  153.5119 C   0  0  0  0  0  0  0  0  0  0  0  0
  146.8135  132.0770  152.6058 C   0  0  0  0  0  0  0  0  0  0  0  0
  147.0558  133.4402  152.3397 C   0  0  0  0  0  0  0  0  0  0  0  0
  148.0844  134.0722  152.9466 N   0  3  0  0  0  0  0  0  0  0  0  0
  150.8916  140.2044  155.1210 C   0  0  0  0  0  0  0  0  0  0  0  0
  150.6983  144.3713  157.8670 H   0  0  0  0  0  0  0  0  0  0  0  0
  152.2050  144.2291  156.9506 H   0  0  0  0  0  0  0  0  0  0  0  0
  152.1463  143.7245  158.6437 H   0  0  0  0  0  0  0  0  0  0  0  0
  149.8726  143.1263  155.9450 H   0  0  0  0  0  0  0  0  0  0  0  0
  149.3155  140.4219  156.5509 H   0  0  0  0  0  0  0  0  0  0  0  0
  147.7795  141.7704  155.1653 H   0  0  0  0  0  0  0  0  0  0  0  0
  149.0223  142.0151  153.9630 H   0  0  0  0  0  0  0  0  0  0  0  0
  147.6210  139.3938  154.6297 H   0  0  0  0  0  0  0  0  0  0  0  0
  147.5589  140.2709  153.1213 H   0  0  0  0  0  0  0  0  0  0  0  0
  149.1131  138.3158  152.9408 H   0  0  0  0  0  0  0  0  0  0  0  0
  149.9735  139.8030  152.7131 H   0  0  0  0  0  0  0  0  0  0  0  0
  149.5535  136.8486  153.7370 H   0  0  0  0  0  0  0  0  0  0  0  0
  150.1750  135.3828  156.2472 H   0  0  0  0  0  0  0  0  0  0  0  0
  148.5768  135.3199  155.5587 H   0  0  0  0  0  0  0  0  0  0  0  0
  150.6788  134.6429  153.5781 H   0  0  0  0  0  0  0  0  0  0  0  0
  150.7227  133.5812  154.9584 H   0  0  0  0  0  0  0  0  0  0  0  0
  149.3745  131.5787  154.8085 H   0  0  0  0  0  0  0  0  0  0  0  0
  147.4869  130.3507  153.7269 H   0  0  0  0  0  0  0  0  0  0  0  0
  145.9993  131.5591  152.1202 H   0  0  0  0  0  0  0  0  0  0  0  0
  146.4669  134.0377  151.6594 H   0  0  0  0  0  0  0  0  0  0  0  0
  151.3623  140.7596  154.3078 H   0  0  0  0  0  0  0  0  0  0  0  0
  151.6800  140.0293  155.8548 H   0  0  0  0  0  0  0  0  0  0  0  0
  148.2480  135.0553  152.7280 H   0  0  0  0  0  0  0  0  0  0  0  0
  1  2  1  0  0  0  0
  1 22  1  0  0  0  0
  1 23  1  0  0  0  0
  1 24  1  0  0  0  0
  2  3  2  0  0  0  0
  2  4  1  0  0  0  0
  4  5  1  0  0  0  0
  4 25  1  0  0  0  0
  5 21  1  0  0  0  0
  5  6  1  0  0  0  0
  5 26  1  0  0  0  0
  6  7  1  0  0  0  0
  6 27  1  0  0  0  0
  6 28  1  0  0  0  0
  7  8  1  0  0  0  0
  7 29  1  0  0  0  0
  7 30  1  0  0  0  0
  8  9  1  0  0  0  0
  8 31  1  0  0  0  0
  8 32  1  0  0  0  0
  9 10  1  0  0  0  0
  9 21  1  0  0  0  0
 10 11  2  0  0  0  0
 10 12  1  0  0  0  0
 12 13  1  0  0  0  0
 12 33  1  0  0  0  0
 13 14  1  0  0  0  0
 13 34  1  0  0  0  0
 13 35  1  0  0  0  0
 14 15  1  0  0  0  0
 14 36  1  0  0  0  0
 14 37  1  0  0  0  0
 15 20  1  0  0  0  0
 15 16  2  0  0  0  0
 16 17  1  0  0  0  0
 16 38  1  0  0  0  0
 17 18  2  0  0  0  0
 17 39  1  0  0  0  0
 18 19  1  0  0  0  0
 18 40  1  0  0  0  0
 19 20  2  0  0  0  0
 19 41  1  0  0  0  0
 20 44  1  0  0  0  0
 21 42  1  0  0  0  0
 21 43  1  0  0  0  0
M  CHG  1  20   1
M  END
> <s_m_source_file>
AV-unprocessed.smi

> <i_m_source_file_index>
1563

> <i_lp_mmshare_version>
43012

> <i_f3d_flags>
0

> <s_epik_input>
W0NIM11DKD1PKVtOSF1bQ0BASF0xW0NIMl1bQ0gyXVtDSDJdTihbQ0gyXTEpQyg9TylbTkhdW0NIMl1bQ0gyXWMyW2NIXVtjSF1bY0hdW2NIXW4y

> <s_epik_cmdline>
J2VwaWtfcHl0aG9uJywgJy1waCcsICc3LjAnLCAnLXRuJywgJzgnLCAnLW1hJywgJzIwMCcsICctbWV0YWxfYmluZGluZycsICctaW1hZScsICc8aW5maWxlLm1hZT4nLCAnLW9tYWUnLCAnPG91dGZpbGUubWFlPic=

> <r_epik_Ionization_Penalty>
1.56048

> <r_epik_Ionization_Penalty_Charging>
1.56043

> <r_epik_Ionization_Penalty_Neutral>
4.90601e-05

> <r_epik_State_Penalty>
1.65539

> <r_epik_Charging_Adjusted_Penalty>
3.21583

> <i_epik_Tot_Q>
1

> <i_epik_Tot_abs_Q>
1

> <r_epik_Metal_State_Penalty>
1.6969

> <b_epik_Metal_Only>
0

> <s_lp_Force_Field>
OPLS_2005

> <r_lp_Energy>
29.938

> <b_lp_Chiralities_Consistent>
1

> <s_lp_Variant>
AV-unprocessed.smi:1563-4

> <Gold.Version>
5.8.1

> <Gold.Id.Protein>
6NUR|6NUR_protein|mol2

> <Gold.PLP.Fitness>
44.8611

> <Gold.PLP.PLP>
-33.9634

> <Gold.PLP.part.hbond>
-2.9846

> <Gold.PLP.part.metal>
0.0000

> <Gold.PLP.part.buried>
3.6892

> <Gold.PLP.part.nonpolar>
-34.5001

> <Gold.PLP.part.repulsive>
0.1283

> <Gold.PLP.ligand.clash>
0.0000

> <Gold.PLP.ligand.torsion>
0.5784

> <Gold.PLP.Chemscore.Hbond>
3.9913

> <Gold.PLP.Chemscore.CHOScore>
0.0000

> <Gold.PLP.Chemscore.Metal>
0.0000

> <Gold.Chemscore.Hbonds>
donor molecule, donor type, donor heavy atom, donor atom, acceptor molecule, acceptor atom, score
      L1  H     4    25       P1  8028  1.00
      L1  H    12    33       P1  7948  0.99
      L1  H    20    44       P1  7948  1.98

> <Gold.PLP.Chemscore.Internal.Correction>
0.0808

> <Gold.Rescore>
     Score         DG    S(hbond)    S(metal)    S(lipo)     H(rot)  DE(clash)    DE(int)     intcor
     17.52     -19.65       2.74        0.00      81.42       1.77       1.49       0.64       ----

> <Gold.Chemscore.Fitness>
17.5210

> <Gold.Chemscore.DG>
-19.6504

> <Gold.Chemscore.ZeroCoef>
-5.4800

> <Gold.Chemscore.Hbond>
2.7442

> <Gold.Chemscore.Metal>
0.0000

> <Gold.Chemscore.Lipo>
81.4164

> <Gold.Chemscore.Internal_Hbond>
0.0000

> <Gold.Chemscore.DEClash>
1.4942

> <Gold.Chemscore.DEInternal>
0.6352

> <Gold.Chemscore.Rot>
1.7661

> <Gold.Chemscore.Internal.Correction>
   9.000000E+99

> <Gold.Chemscore.Hbonds>
donor molecule, donor type, donor heavy atom, donor atom, acceptor molecule, acceptor atom, score
      L1  H     4    25       P1  8028  1.00
      L1  H    12    33       P1  7948  0.74
      L1  H    20    44       P1  7948  0.76

> <Gold.Chemscore.Hbond.Weighted>
-9.1658

> <Gold.Chemscore.Metal.Weighted>
-0.0000

> <Gold.Chemscore.Lipo.Weighted>
-9.5257

> <Gold.Chemscore.Internal_Hbond.Weighted>
0.0000

> <Gold.Chemscore.DEClash.Weighted>
1.4942

> <Gold.Chemscore.DEInternal.Weighted>
0.6352

> <Gold.Chemscore.Rot.Weighted>
4.5211

> <Gold.Chemscore.Internal.Correction.Weighted>
   9.000000E+99

> <Gold.Protein.RotatedTorsions>
[ 6907 6896 6895 6894 ] final  -54.37 input  -60.11 | X-H torsion
[ 7974 7965 7964 7962 ] final   31.25 input  175.53 | X-H torsion
[ 8008 7997 7996 7995 ] final  -25.68 input   59.86 | X-H torsion
[ 10167 10162 10161 10158 ] final   71.80 input  -65.29 | X-H torsion
[ 10718 10713 10712 10709 ] final  122.38 input   66.30 | X-H torsion
[ 10763 10752 10751 10750 ] final   65.87 input  -60.55 | X-H torsion
[ 11005 11000 10999 10996 ] final   13.79 input  -57.11 | X-H torsion

> <Gold.Protein.ActiveResidues>
 VAL166  LYS551  ARG553  GLY616  TRP617  ASP618  TYR619  PRO620  LYS621  CYS622 
 ASP623  PHE694  ASN695  SER759  ASP760  ASP761  ALA762  ILE779  LEU786  VAL792 
 PHE793  MET794  SER795  GLU796  ALA797  LYS798  CYS799  TRP800  GLU811  SER814 

> <Gold.Protein.RotatedAtoms>
  150.8344  134.7611  159.6880 H   0  0  0  0  0  0  0  0  0  0  0  0  # atno 6907 bound_to 6896
  152.4443  134.5523  159.9880 H   0  0  0  0  0  0  0  0  0  0  0  0  # atno 6908 bound_to 6896
  151.5677  133.3356  159.3019 H   0  0  0  0  0  0  0  0  0  0  0  0  # atno 6909 bound_to 6896
  146.1561  139.6681  142.9065 H   0  0  0  0  0  0  0  0  0  0  0  0  # atno 7974 bound_to 7965
  154.4463  140.1920  156.0657 H   0  0  0  0  0  0  0  0  0  0  0  0  # atno 8008 bound_to 7997
  156.0549  140.3304  155.7367 H   0  0  0  0  0  0  0  0  0  0  0  0  # atno 8009 bound_to 7997
  155.5501  140.0594  157.2842 H   0  0  0  0  0  0  0  0  0  0  0  0  # atno 8010 bound_to 7997
  140.0422  144.5380  150.7426 H   0  0  0  0  0  0  0  0  0  0  0  0  # atno 10167 bound_to 10162
  157.5746  131.1080  150.8302 H   0  0  0  0  0  0  0  0  0  0  0  0  # atno 10718 bound_to 10713
  153.0115  135.5341  154.6734 H   0  0  0  0  0  0  0  0  0  0  0  0  # atno 10763 bound_to 10752
  154.5913  135.2859  155.0635 H   0  0  0  0  0  0  0  0  0  0  0  0  # atno 10764 bound_to 10752
  154.1727  135.6529  153.5066 H   0  0  0  0  0  0  0  0  0  0  0  0  # atno 10765 bound_to 10752
  140.4768  134.0976  155.7743 H   0  0  0  0  0  0  0  0  0  0  0  0  # atno 11005 bound_to 11000
  145.4704  141.0436  143.2702 LP  0  0  0  0  0  0  0  0  0  0  0  0  # atno 17320 bound_to 7965
  144.7966  139.6223  143.7090 LP  0  0  0  0  0  0  0  0  0  0  0  0  # atno 17321 bound_to 7965
  140.7255  143.2632  151.4135 LP  0  0  0  0  0  0  0  0  0  0  0  0  # atno 17342 bound_to 10162
  139.6006  144.1303  152.2194 LP  0  0  0  0  0  0  0  0  0  0  0  0  # atno 17343 bound_to 10162
  156.8764  130.5164  149.5293 LP  0  0  0  0  0  0  0  0  0  0  0  0  # atno 17370 bound_to 10713
  156.0791  130.5806  150.9530 LP  0  0  0  0  0  0  0  0  0  0  0  0  # atno 17371 bound_to 10713
  141.1551  133.8898  157.1999 LP  0  0  0  0  0  0  0  0  0  0  0  0  # atno 17394 bound_to 11000
  139.9851  135.0085  156.9843 LP  0  0  0  0  0  0  0  0  0  0  0  0  # atno 17395 bound_to 11000

$$$$
