AV-unprocessed.smi:1895|AV-procd|sdf|7680|dock9
  -GOLD-   22720 9423D 1   1.00000     0.00000
 Structure written by MMmdl.
 36 37  0  0  0  0  0  0  0  0  1 V2000
  153.8102  140.4342  160.9539 C   0  0  0  0  0  0  0  0  0  0  0  0
  153.1220  141.3169  159.9553 C   0  0  0  0  0  0  0  0  0  0  0  0
  153.2893  142.7151  159.7516 C   0  0  0  0  0  0  0  0  0  0  0  0
  152.4264  143.0142  158.7352 C   0  0  0  0  0  0  0  0  0  0  0  0
  152.1333  144.3214  158.0749 C   0  0  0  0  0  0  0  0  0  0  0  0
  151.7999  141.8322  158.3797 N   0  0  0  0  0  0  0  0  0  0  0  0
  150.7764  141.6016  157.3701 C   0  0  0  0  0  0  0  0  0  0  0  0
  151.2289  140.5394  156.3669 C   0  0  0  0  0  0  0  0  0  0  0  0
  150.9180  140.6390  155.1803 O   0  0  0  0  0  0  0  0  0  0  0  0
  151.9377  139.5146  156.8643 N   0  0  0  0  0  0  0  0  0  0  0  0
  152.3229  138.3221  156.1208 C   0  0  0  0  0  0  0  0  0  0  0  0
  151.1176  137.3952  155.8831 C   0  0  2  0  0  0  0  0  0  0  0  0
  150.7931  136.4541  157.0451 C   0  0  0  0  0  0  0  0  0  0  0  0
  150.1185  135.2689  156.3708 C   0  0  0  0  0  0  0  0  0  0  0  0
  150.3821  135.4837  154.8774 C   0  0  0  0  0  0  0  0  0  0  0  0
  151.3780  136.4947  154.8197 O   0  0  0  0  0  0  0  0  0  0  0  0
  152.2298  140.7942  159.1305 N   0  0  0  0  0  0  0  0  0  0  0  0
  154.5918  140.9764  161.4860 H   0  0  0  0  0  0  0  0  0  0  0  0
  154.2747  139.5761  160.4676 H   0  0  0  0  0  0  0  0  0  0  0  0
  153.1046  140.0581  161.6953 H   0  0  0  0  0  0  0  0  0  0  0  0
  153.9416  143.3972  160.2764 H   0  0  0  0  0  0  0  0  0  0  0  0
  152.7892  145.1048  158.4545 H   0  0  0  0  0  0  0  0  0  0  0  0
  151.1040  144.6282  158.2609 H   0  0  0  0  0  0  0  0  0  0  0  0
  152.2797  144.2561  156.9968 H   0  0  0  0  0  0  0  0  0  0  0  0
  149.8553  141.2889  157.8632 H   0  0  0  0  0  0  0  0  0  0  0  0
  150.5584  142.5341  156.8472 H   0  0  0  0  0  0  0  0  0  0  0  0
  152.1508  139.5245  157.8516 H   0  0  0  0  0  0  0  0  0  0  0  0
  152.7848  138.5989  155.1719 H   0  0  0  0  0  0  0  0  0  0  0  0
  153.0867  137.7987  156.6967 H   0  0  0  0  0  0  0  0  0  0  0  0
  150.2334  137.9832  155.6288 H   0  0  0  0  0  0  0  0  0  0  0  0
  151.7113  136.1222  157.5317 H   0  0  0  0  0  0  0  0  0  0  0  0
  150.1651  136.9263  157.8018 H   0  0  0  0  0  0  0  0  0  0  0  0
  150.5509  134.3311  156.7209 H   0  0  0  0  0  0  0  0  0  0  0  0
  149.0478  135.2423  156.5755 H   0  0  0  0  0  0  0  0  0  0  0  0
  150.7121  134.5748  154.3740 H   0  0  0  0  0  0  0  0  0  0  0  0
  149.4806  135.8410  154.3774 H   0  0  0  0  0  0  0  0  0  0  0  0
  1  2  1  0  0  0  0
  1 18  1  0  0  0  0
  1 19  1  0  0  0  0
  1 20  1  0  0  0  0
  2 17  2  0  0  0  0
  2  3  1  0  0  0  0
  3  4  2  0  0  0  0
  3 21  1  0  0  0  0
  4  5  1  0  0  0  0
  4  6  1  0  0  0  0
  5 22  1  0  0  0  0
  5 23  1  0  0  0  0
  5 24  1  0  0  0  0
  6  7  1  0  0  0  0
  6 17  1  0  0  0  0
  7  8  1  0  0  0  0
  7 25  1  0  0  0  0
  7 26  1  0  0  0  0
  8  9  2  0  0  0  0
  8 10  1  0  0  0  0
 10 11  1  0  0  0  0
 10 27  1  0  0  0  0
 11 12  1  0  0  0  0
 11 28  1  0  0  0  0
 11 29  1  0  0  0  0
 12 16  1  0  0  0  0
 12 13  1  0  0  0  0
 12 30  1  0  0  0  0
 13 14  1  0  0  0  0
 13 31  1  0  0  0  0
 13 32  1  0  0  0  0
 14 15  1  0  0  0  0
 14 33  1  0  0  0  0
 14 34  1  0  0  0  0
 15 16  1  0  0  0  0
 15 35  1  0  0  0  0
 15 36  1  0  0  0  0
M  END
> <s_m_source_file>
AV-unprocessed.smi

> <i_m_source_file_index>
1895

> <i_lp_mmshare_version>
43012

> <i_f3d_flags>
0

> <s_epik_input>
W0NIM11jMVtjSF1jKFtDSDNdKW4objEpW0NIMl1DKD1PKVtOSF1bQ0gyXVtDQEBIXTJbQ0gyXVtDSDJdW0NIMl1PMg==

> <s_epik_cmdline>
J2VwaWtfcHl0aG9uJywgJy1waCcsICc3LjAnLCAnLXRuJywgJzgnLCAnLW1hJywgJzIwMCcsICctbWV0YWxfYmluZGluZycsICctaW1hZScsICc8aW5maWxlLm1hZT4nLCAnLW9tYWUnLCAnPG91dGZpbGUubWFlPic=

> <r_lp_tautomer_probability>
1

> <r_epik_Ionization_Penalty>
0.000408438

> <r_epik_Ionization_Penalty_Charging>
0

> <r_epik_Ionization_Penalty_Neutral>
0.000408438

> <r_epik_State_Penalty>
-0

> <r_epik_Charging_Adjusted_Penalty>
0

> <i_epik_Tot_Q>
0

> <i_epik_Tot_abs_Q>
0

> <r_epik_Metal_State_Penalty>
-0

> <b_epik_Metal_Only>
0

> <s_lp_Force_Field>
OPLS_2005

> <r_lp_Energy>
14.7864

> <b_lp_Chiralities_Consistent>
1

> <s_lp_Variant>
AV-unprocessed.smi:1895-1

> <Gold.Version>
5.8.1

> <Gold.Id.Protein>
6NUR|6NUR_protein|mol2

> <Gold.PLP.Fitness>
39.0296

> <Gold.PLP.PLP>
-34.4439

> <Gold.PLP.part.hbond>
-2.0000

> <Gold.PLP.part.metal>
0.0000

> <Gold.PLP.part.buried>
-4.6884

> <Gold.PLP.part.nonpolar>
-28.6160

> <Gold.PLP.part.repulsive>
0.3094

> <Gold.PLP.ligand.clash>
0.0000

> <Gold.PLP.ligand.torsion>
0.6308

> <Gold.PLP.Chemscore.Hbond>
1.9440

> <Gold.PLP.Chemscore.CHOScore>
0.0000

> <Gold.PLP.Chemscore.Metal>
0.0000

> <Gold.Chemscore.Hbonds>
donor molecule, donor type, donor heavy atom, donor atom, acceptor molecule, acceptor atom, score
      P1  H  7989  7998       L1     9  0.91
      P1  H 10752 10763       L1    16  1.00

> <Gold.PLP.Chemscore.Internal.Correction>
0.0153

> <Gold.Rescore>
     Score         DG    S(hbond)    S(metal)    S(lipo)     H(rot)  DE(clash)    DE(int)     intcor
     15.94     -18.09       1.96        0.00      85.41       1.54       0.04       2.11       ----

> <Gold.Chemscore.Fitness>
15.9432

> <Gold.Chemscore.DG>
-18.0921

> <Gold.Chemscore.ZeroCoef>
-5.4800

> <Gold.Chemscore.Hbond>
1.9636

> <Gold.Chemscore.Metal>
0.0000

> <Gold.Chemscore.Lipo>
85.4079

> <Gold.Chemscore.Internal_Hbond>
0.0000

> <Gold.Chemscore.DEClash>
0.0351

> <Gold.Chemscore.DEInternal>
2.1138

> <Gold.Chemscore.Rot>
1.5387

> <Gold.Chemscore.Internal.Correction>
   9.000000E+99

> <Gold.Chemscore.Hbonds>
donor molecule, donor type, donor heavy atom, donor atom, acceptor molecule, acceptor atom, score
      P1  H  7989  7998       L1     9  0.90
      P1  H 10752 10763       L1    16  0.44

> <Gold.Chemscore.Hbond.Weighted>
-6.5585

> <Gold.Chemscore.Metal.Weighted>
-0.0000

> <Gold.Chemscore.Lipo.Weighted>
-9.9927

> <Gold.Chemscore.Internal_Hbond.Weighted>
0.0000

> <Gold.Chemscore.DEClash.Weighted>
0.0351

> <Gold.Chemscore.DEInternal.Weighted>
2.1138

> <Gold.Chemscore.Rot.Weighted>
3.9392

> <Gold.Chemscore.Internal.Correction.Weighted>
   9.000000E+99

> <Gold.Protein.RotatedTorsions>
[ 6907 6896 6895 6894 ] final  114.51 input  -60.11 | X-H torsion
[ 7974 7965 7964 7962 ] final   -4.81 input  175.53 | X-H torsion
[ 8008 7997 7996 7995 ] final   46.94 input   59.86 | X-H torsion
[ 10167 10162 10161 10158 ] final -138.30 input  -65.29 | X-H torsion
[ 10718 10713 10712 10709 ] final  -38.31 input   66.30 | X-H torsion
[ 10763 10752 10751 10750 ] final   65.75 input  -60.55 | X-H torsion
[ 11005 11000 10999 10996 ] final -106.15 input  -57.11 | X-H torsion

> <Gold.Protein.ActiveResidues>
 VAL166  LYS551  ARG553  GLY616  TRP617  ASP618  TYR619  PRO620  LYS621  CYS622 
 ASP623  PHE694  ASN695  SER759  ASP760  ASP761  ALA762  ILE779  LEU786  VAL792 
 PHE793  MET794  SER795  GLU796  ALA797  LYS798  CYS799  TRP800  GLU811  SER814 

> <Gold.Protein.RotatedAtoms>
  152.4798  133.8226  159.7061 H   0  0  0  0  0  0  0  0  0  0  0  0  # atno 6907 bound_to 6896
  150.8839  133.7325  159.2930 H   0  0  0  0  0  0  0  0  0  0  0  0  # atno 6908 bound_to 6896
  151.4819  135.1056  159.9832 H   0  0  0  0  0  0  0  0  0  0  0  0  # atno 6909 bound_to 6896
  146.2365  140.1928  142.8333 H   0  0  0  0  0  0  0  0  0  0  0  0  # atno 7974 bound_to 7965
  155.3608  140.3418  155.4241 H   0  0  0  0  0  0  0  0  0  0  0  0  # atno 8008 bound_to 7997
  156.1714  140.1633  156.8474 H   0  0  0  0  0  0  0  0  0  0  0  0  # atno 8009 bound_to 7997
  154.5237  140.0761  156.8202 H   0  0  0  0  0  0  0  0  0  0  0  0  # atno 8010 bound_to 7997
  139.8492  143.7221  152.2659 H   0  0  0  0  0  0  0  0  0  0  0  0  # atno 10167 bound_to 10162
  156.3052  130.4245  149.8104 H   0  0  0  0  0  0  0  0  0  0  0  0  # atno 10718 bound_to 10713
  153.0110  135.5345  154.6716 H   0  0  0  0  0  0  0  0  0  0  0  0  # atno 10763 bound_to 10752
  154.5899  135.2858  155.0648 H   0  0  0  0  0  0  0  0  0  0  0  0  # atno 10764 bound_to 10752
  154.1745  135.6526  153.5070 H   0  0  0  0  0  0  0  0  0  0  0  0  # atno 10765 bound_to 10752
  141.1018  133.8869  157.1821 H   0  0  0  0  0  0  0  0  0  0  0  0  # atno 11005 bound_to 11000
  144.9844  140.8489  143.5377 LP  0  0  0  0  0  0  0  0  0  0  0  0  # atno 17320 bound_to 7965
  145.1925  139.2293  143.5235 LP  0  0  0  0  0  0  0  0  0  0  0  0  # atno 17321 bound_to 7965
  139.7482  144.7541  151.0546 LP  0  0  0  0  0  0  0  0  0  0  0  0  # atno 17342 bound_to 10162
  140.7789  143.4891  150.9917 LP  0  0  0  0  0  0  0  0  0  0  0  0  # atno 17343 bound_to 10162
  156.5468  130.8324  151.3286 LP  0  0  0  0  0  0  0  0  0  0  0  0  # atno 17370 bound_to 10713
  157.7378  130.9802  150.2213 LP  0  0  0  0  0  0  0  0  0  0  0  0  # atno 17371 bound_to 10713
  139.9873  135.0077  156.9893 LP  0  0  0  0  0  0  0  0  0  0  0  0  # atno 17394 bound_to 11000
  140.5002  134.1105  155.7249 LP  0  0  0  0  0  0  0  0  0  0  0  0  # atno 17395 bound_to 11000

$$$$
