AV-unprocessed.smi:2061|AV-procd|sdf|8389|dock9
  -GOLD-   2272011 73D 1   1.00000     0.00000
 Structure written by MMmdl.
 45 46  0  0  0  0  0  0  0  0  3 V2000
  152.3773  140.1545  159.1027 C   0  0  0  0  0  0  0  0  0  0  0  0
  151.6219  140.0616  157.8217 C   0  0  0  0  0  0  0  0  0  0  0  0
  150.2929  139.9275  157.5331 C   0  0  0  0  0  0  0  0  0  0  0  0
  150.2738  139.8992  156.1131 C   0  0  0  0  0  0  0  0  0  0  0  0
  149.0487  139.7617  155.4083 N   0  0  0  0  0  0  0  0  0  0  0  0
  148.5466  140.5409  154.4330 C   0  0  0  0  0  0  0  0  0  0  0  0
  149.1668  141.5399  154.0488 O   0  0  0  0  0  0  0  0  0  0  0  0
  147.3505  140.0827  153.9707 N   0  5  0  0  0  0  0  0  0  0  0  0
  146.8861  138.6987  154.0823 C   0  0  0  0  0  0  0  0  0  0  0  0
  146.3356  138.1826  152.7230 C   0  0  1  0  0  0  0  0  0  0  0  0
  146.8815  138.9451  151.4892 C   0  0  0  0  0  0  0  0  0  0  0  0
  146.5060  136.7002  152.6128 N   0  3  1  0  0  0  0  0  0  0  0  0
  146.2921  135.9819  153.8937 C   0  0  0  0  0  0  0  0  0  0  0  0
  146.6719  134.4960  153.7455 C   0  0  1  0  0  0  0  0  0  0  0  0
  146.3831  133.6956  155.0204 C   0  0  0  0  0  0  0  0  0  0  0  0
  145.9202  133.9199  152.6823 O   0  0  0  0  0  0  0  0  0  0  0  0
  146.1740  134.5445  151.4284 C   0  0  1  0  0  0  0  0  0  0  0  0
  145.3906  133.7879  150.3501 C   0  0  0  0  0  0  0  0  0  0  0  0
  145.7581  136.0235  151.5170 C   0  0  0  0  0  0  0  0  0  0  0  0
  151.4833  140.0102  155.5837 N   0  0  0  0  0  0  0  0  0  0  0  0
  152.3529  140.1156  156.6757 O   0  0  0  0  0  0  0  0  0  0  0  0
  151.7250  139.9615  159.9546 H   0  0  0  0  0  0  0  0  0  0  0  0
  152.8086  141.1481  159.2245 H   0  0  0  0  0  0  0  0  0  0  0  0
  153.1884  139.4267  159.1271 H   0  0  0  0  0  0  0  0  0  0  0  0
  149.4687  139.8574  158.2273 H   0  0  0  0  0  0  0  0  0  0  0  0
  148.4867  138.9628  155.6626 H   0  0  0  0  0  0  0  0  0  0  0  0
  147.6877  138.0383  154.4135 H   0  0  0  0  0  0  0  0  0  0  0  0
  146.1074  138.5981  154.8401 H   0  0  0  0  0  0  0  0  0  0  0  0
  145.2598  138.3634  152.7490 H   0  0  0  0  0  0  0  0  0  0  0  0
  146.6015  139.9998  151.5086 H   0  0  0  0  0  0  0  0  0  0  0  0
  146.4726  138.5352  150.5656 H   0  0  0  0  0  0  0  0  0  0  0  0
  147.9693  138.9004  151.4127 H   0  0  0  0  0  0  0  0  0  0  0  0
  146.9011  136.4312  154.6794 H   0  0  0  0  0  0  0  0  0  0  0  0
  145.2492  136.0801  154.1992 H   0  0  0  0  0  0  0  0  0  0  0  0
  147.7361  134.4114  153.5174 H   0  0  0  0  0  0  0  0  0  0  0  0
  146.9427  134.0913  155.8682 H   0  0  0  0  0  0  0  0  0  0  0  0
  146.6649  132.6498  154.8953 H   0  0  0  0  0  0  0  0  0  0  0  0
  145.3232  133.7264  155.2750 H   0  0  0  0  0  0  0  0  0  0  0  0
  147.2388  134.4738  151.1983 H   0  0  0  0  0  0  0  0  0  0  0  0
  145.5582  134.2232  149.3645 H   0  0  0  0  0  0  0  0  0  0  0  0
  144.3188  133.8135  150.5490 H   0  0  0  0  0  0  0  0  0  0  0  0
  145.6968  132.7424  150.3075 H   0  0  0  0  0  0  0  0  0  0  0  0
  144.6847  136.0874  151.7007 H   0  0  0  0  0  0  0  0  0  0  0  0
  145.9503  136.5137  150.5622 H   0  0  0  0  0  0  0  0  0  0  0  0
  147.4860  136.5749  152.4016 H   0  0  0  0  0  0  0  0  0  0  0  0
  1  2  1  0  0  0  0
  1 22  1  0  0  0  0
  1 23  1  0  0  0  0
  1 24  1  0  0  0  0
  2 21  1  0  0  0  0
  2  3  2  0  0  0  0
  3  4  1  0  0  0  0
  3 25  1  0  0  0  0
  4  5  1  0  0  0  0
  4 20  2  0  0  0  0
  5  6  1  0  0  0  0
  5 26  1  0  0  0  0
  6  7  2  0  0  0  0
  6  8  1  0  0  0  0
  8  9  1  0  0  0  0
  9 10  1  0  0  0  0
  9 27  1  0  0  0  0
  9 28  1  0  0  0  0
 10 11  1  0  0  0  0
 10 12  1  0  0  0  0
 10 29  1  0  0  0  0
 11 30  1  0  0  0  0
 11 31  1  0  0  0  0
 11 32  1  0  0  0  0
 12 19  1  0  0  0  0
 12 13  1  0  0  0  0
 12 45  1  0  0  0  0
 13 14  1  0  0  0  0
 13 33  1  0  0  0  0
 13 34  1  0  0  0  0
 14 15  1  0  0  0  0
 14 16  1  0  0  0  0
 14 35  1  0  0  0  0
 15 36  1  0  0  0  0
 15 37  1  0  0  0  0
 15 38  1  0  0  0  0
 16 17  1  0  0  0  0
 17 18  1  0  0  0  0
 17 19  1  0  0  0  0
 17 39  1  0  0  0  0
 18 40  1  0  0  0  0
 18 41  1  0  0  0  0
 18 42  1  0  0  0  0
 19 43  1  0  0  0  0
 19 44  1  0  0  0  0
 20 21  1  0  0  0  0
M  CHG  1   8  -1
M  CHG  1  12   1
M  END
> <s_m_source_file>
AV-unprocessed.smi

> <i_m_source_file_index>
2061

> <i_lp_mmshare_version>
43012

> <i_f3d_flags>
0

> <s_epik_input>
W0NIM11jMVtjSF1jKG5vMSlbTkhdQyg9TylbTkhdW0NIMl1bQ0BIXShbQ0gzXSlOMltDSDJdW0NAQEhdKFtDSDNdKU9bQ0BASF0oW0NIM10pW0NIMl0y

> <s_epik_cmdline>
J2VwaWtfcHl0aG9uJywgJy1waCcsICc3LjAnLCAnLXRuJywgJzgnLCAnLW1hJywgJzIwMCcsICctbWV0YWxfYmluZGluZycsICctaW1hZScsICc8aW5maWxlLm1hZT4nLCAnLW9tYWUnLCAnPG91dGZpbGUubWFlPic=

> <r_epik_Ionization_Penalty>
6.8073

> <r_epik_Ionization_Penalty_Charging>
6.80729

> <r_epik_Ionization_Penalty_Neutral>
5.65391e-06

> <r_epik_State_Penalty>
7.47323

> <r_epik_Charging_Adjusted_Penalty>
14.2805

> <i_epik_Tot_Q>
0

> <i_epik_Tot_abs_Q>
2

> <r_epik_Metal_State_Penalty>
3.40035

> <b_epik_Metal_Only>
1

> <s_lp_Force_Field>
OPLS_2005

> <r_lp_Energy>
16.6672

> <b_lp_Chiralities_Consistent>
1

> <s_lp_Variant>
AV-unprocessed.smi:2061-30

> <Gold.Version>
5.8.1

> <Gold.Id.Protein>
6NUR|6NUR_protein|mol2

> <Gold.PLP.Fitness>
40.5769

> <Gold.PLP.PLP>
-28.9165

> <Gold.PLP.part.hbond>
-5.0000

> <Gold.PLP.part.metal>
0.0000

> <Gold.PLP.part.buried>
-0.2505

> <Gold.PLP.part.nonpolar>
-23.0825

> <Gold.PLP.part.repulsive>
0.8880

> <Gold.PLP.ligand.clash>
0.0000

> <Gold.PLP.ligand.torsion>
1.3045

> <Gold.PLP.Chemscore.Hbond>
4.7040

> <Gold.PLP.Chemscore.CHOScore>
0.0000

> <Gold.PLP.Chemscore.Metal>
0.0000

> <Gold.Chemscore.Hbonds>
donor molecule, donor type, donor heavy atom, donor atom, acceptor molecule, acceptor atom, score
      L1  H    12    45       P1  7948  2.00
      P1  H  7989  7998       L1    20  0.44
      P1  H  7997  8010       L1    21  0.95
      P1  H  8011  8017       L1     7  0.66

> <Gold.PLP.Chemscore.Internal.Correction>
0.1574

> <Gold.Rescore>
     Score         DG    S(hbond)    S(metal)    S(lipo)     H(rot)  DE(clash)    DE(int)     intcor
     19.03     -20.27       3.64        0.00      56.39       1.56       0.11       1.12       ----

> <Gold.Chemscore.Fitness>
19.0276

> <Gold.Chemscore.DG>
-20.2671

> <Gold.Chemscore.ZeroCoef>
-5.4800

> <Gold.Chemscore.Hbond>
3.6439

> <Gold.Chemscore.Metal>
0.0000

> <Gold.Chemscore.Lipo>
56.3869

> <Gold.Chemscore.Internal_Hbond>
0.0000

> <Gold.Chemscore.DEClash>
0.1150

> <Gold.Chemscore.DEInternal>
1.1245

> <Gold.Chemscore.Rot>
1.5550

> <Gold.Chemscore.Internal.Correction>
   9.000000E+99

> <Gold.Chemscore.Hbonds>
donor molecule, donor type, donor heavy atom, donor atom, acceptor molecule, acceptor atom, score
      L1  H    12    45       P1  7948  0.98
      P1  H  7989  7998       L1    20  0.39
      P1  H  7997  8010       L1    21  0.80
      P1  H  8011  8017       L1     7  0.62

> <Gold.Chemscore.Hbond.Weighted>
-12.1707

> <Gold.Chemscore.Metal.Weighted>
-0.0000

> <Gold.Chemscore.Lipo.Weighted>
-6.5973

> <Gold.Chemscore.Internal_Hbond.Weighted>
0.0000

> <Gold.Chemscore.DEClash.Weighted>
0.1150

> <Gold.Chemscore.DEInternal.Weighted>
1.1245

> <Gold.Chemscore.Rot.Weighted>
3.9809

> <Gold.Chemscore.Internal.Correction.Weighted>
   9.000000E+99

> <Gold.Protein.RotatedTorsions>
[ 6907 6896 6895 6894 ] final  -53.65 input  -60.11 | X-H torsion
[ 7974 7965 7964 7962 ] final  -79.05 input  175.53 | X-H torsion
[ 8008 7997 7996 7995 ] final   84.70 input   59.86 | X-H torsion
[ 10167 10162 10161 10158 ] final   59.49 input  -65.29 | X-H torsion
[ 10718 10713 10712 10709 ] final -172.66 input   66.30 | X-H torsion
[ 10763 10752 10751 10750 ] final  172.07 input  -60.55 | X-H torsion
[ 11005 11000 10999 10996 ] final  165.42 input  -57.11 | X-H torsion

> <Gold.Protein.ActiveResidues>
 VAL166  LYS551  ARG553  GLY616  TRP617  ASP618  TYR619  PRO620  LYS621  CYS622 
 ASP623  PHE694  ASN695  SER759  ASP760  ASP761  ALA762  ILE779  LEU786  VAL792 
 PHE793  MET794  SER795  GLU796  ALA797  LYS798  CYS799  TRP800  GLU811  SER814 

> <Gold.Protein.RotatedAtoms>
  150.8408  134.7699  159.6930 H   0  0  0  0  0  0  0  0  0  0  0  0  # atno 6907 bound_to 6896
  152.4496  134.5419  159.9851 H   0  0  0  0  0  0  0  0  0  0  0  0  # atno 6908 bound_to 6896
  151.5560  133.3372  159.2998 H   0  0  0  0  0  0  0  0  0  0  0  0  # atno 6909 bound_to 6896
  145.5783  140.9453  143.1358 H   0  0  0  0  0  0  0  0  0  0  0  0  # atno 7974 bound_to 7965
  155.9405  140.3408  155.6323 H   0  0  0  0  0  0  0  0  0  0  0  0  # atno 8008 bound_to 7997
  155.7045  140.0764  157.2415 H   0  0  0  0  0  0  0  0  0  0  0  0  # atno 8009 bound_to 7997
  154.4102  140.1634  156.2215 H   0  0  0  0  0  0  0  0  0  0  0  0  # atno 8010 bound_to 7997
  140.1758  144.4231  150.6639 H   0  0  0  0  0  0  0  0  0  0  0  0  # atno 10167 bound_to 10162
  156.7588  130.9405  151.3117 H   0  0  0  0  0  0  0  0  0  0  0  0  # atno 10718 bound_to 10713
  154.4209  135.2758  155.1976 H   0  0  0  0  0  0  0  0  0  0  0  0  # atno 10763 bound_to 10752
  154.3922  135.6063  153.5853 H   0  0  0  0  0  0  0  0  0  0  0  0  # atno 10764 bound_to 10752
  152.9833  135.5906  154.4505 H   0  0  0  0  0  0  0  0  0  0  0  0  # atno 10765 bound_to 10752
  140.2560  134.7940  157.3546 H   0  0  0  0  0  0  0  0  0  0  0  0  # atno 11005 bound_to 11000
  144.7405  139.7461  143.7312 LP  0  0  0  0  0  0  0  0  0  0  0  0  # atno 17320 bound_to 7965
  146.1734  139.4895  142.9913 LP  0  0  0  0  0  0  0  0  0  0  0  0  # atno 17321 bound_to 7965
  140.6552  143.2235  151.5985 LP  0  0  0  0  0  0  0  0  0  0  0  0  # atno 17342 bound_to 10162
  139.5317  144.2896  152.1163 LP  0  0  0  0  0  0  0  0  0  0  0  0  # atno 17343 bound_to 10162
  157.6744  130.9081  150.0115 LP  0  0  0  0  0  0  0  0  0  0  0  0  # atno 17370 bound_to 10713
  156.1353  130.3643  149.9667 LP  0  0  0  0  0  0  0  0  0  0  0  0  # atno 17371 bound_to 10713
  140.1511  134.4848  155.7960 LP  0  0  0  0  0  0  0  0  0  0  0  0  # atno 17394 bound_to 11000
  141.2196  133.6863  156.7381 LP  0  0  0  0  0  0  0  0  0  0  0  0  # atno 17395 bound_to 11000

$$$$
