AV-unprocessed.smi:2546|AV-procd|sdf|9997|dock1
  -GOLD-   2272014 43D 1   1.00000     0.00000
 Structure written by MMmdl.
 17 17  0  0  0  0  0  0  0  0  2 V2000
  142.1387  132.7533  148.1279 N   0  3  0  0  0  0  0  0  0  0  0  0
  143.5580  132.7737  148.5195 C   0  0  0  0  0  0  0  0  0  0  0  0
  143.7337  132.4554  150.0108 C   0  0  0  0  0  0  0  0  0  0  0  0
  145.1448  132.6456  150.4594 C   0  0  0  0  0  0  0  0  0  0  0  0
  145.9821  131.6120  150.5600 N   0  0  0  0  0  0  0  0  0  0  0  0
  147.1034  132.2020  151.0282 N   0  0  0  0  0  0  0  0  0  0  0  0
  146.8688  133.5036  151.1873 C   0  0  0  0  0  0  0  0  0  0  0  0
  145.6355  133.8603  150.8533 N   0  0  0  0  0  0  0  0  0  0  0  0
  141.6526  133.5107  148.5867 H   0  0  0  0  0  0  0  0  0  0  0  0
  141.7242  131.8739  148.4022 H   0  0  0  0  0  0  0  0  0  0  0  0
  144.0990  132.0481  147.9108 H   0  0  0  0  0  0  0  0  0  0  0  0
  143.9697  133.7574  148.2911 H   0  0  0  0  0  0  0  0  0  0  0  0
  143.0801  133.0901  150.6113 H   0  0  0  0  0  0  0  0  0  0  0  0
  143.4357  131.4255  150.2126 H   0  0  0  0  0  0  0  0  0  0  0  0
  147.6085  134.1988  151.5565 H   0  0  0  0  0  0  0  0  0  0  0  0
  142.0628  132.8639  147.1267 H   0  0  0  0  0  0  0  0  0  0  0  0
  147.9586  131.6990  151.2186 H   0  0  0  0  0  0  0  0  0  0  0  0
  1  2  1  0  0  0  0
  1  9  1  0  0  0  0
  1 10  1  0  0  0  0
  1 16  1  0  0  0  0
  2  3  1  0  0  0  0
  2 11  1  0  0  0  0
  2 12  1  0  0  0  0
  3 13  1  0  0  0  0
  3 14  1  0  0  0  0
  3  4  1  0  0  0  0
  4  8  1  0  0  0  0
  4  5  2  0  0  0  0
  5  6  1  0  0  0  0
  6  7  1  0  0  0  0
  6 17  1  0  0  0  0
  7  8  2  0  0  0  0
  7 15  1  0  0  0  0
M  CHG  1   1   1
M  END
> <s_m_source_file>
AV-unprocessed.smi

> <i_m_source_file_index>
2546

> <i_lp_mmshare_version>
43012

> <i_f3d_flags>
0

> <s_epik_input>
W05IMl1bQ0gyXVtDSDJdYzFubltjSF1bbkhdMQ==

> <s_epik_cmdline>
J2VwaWtfcHl0aG9uJywgJy1waCcsICc3LjAnLCAnLXRuJywgJzgnLCAnLW1hJywgJzIwMCcsICctbWV0YWxfYmluZGluZycsICctaW1hZScsICc8aW5maWxlLm1hZT4nLCAnLW9tYWUnLCAnPG91dGZpbGUubWFlPic=

> <r_lp_tautomer_probability>
0.948284

> <r_epik_Ionization_Penalty>
0.0140863

> <r_epik_Ionization_Penalty_Charging>
0.00364136

> <r_epik_Ionization_Penalty_Neutral>
0.0104449

> <r_epik_State_Penalty>
0.423825

> <r_epik_Charging_Adjusted_Penalty>
0.427466

> <i_epik_Tot_Q>
1

> <i_epik_Tot_abs_Q>
1

> <r_epik_Metal_State_Penalty>
0.652581

> <b_epik_Metal_Only>
0

> <s_lp_Force_Field>
OPLS_2005

> <r_lp_Energy>
-0.0945918

> <b_lp_Chiralities_Consistent>
1

> <s_lp_Variant>
AV-unprocessed.smi:2546-1

> <Gold.Version>
5.8.1

> <Gold.Id.Protein>
6NUR|6NUR_protein|mol2

> <Gold.PLP.Fitness>
35.4259

> <Gold.PLP.PLP>
-19.2372

> <Gold.PLP.part.hbond>
-3.9691

> <Gold.PLP.part.metal>
0.0000

> <Gold.PLP.part.buried>
-5.0558

> <Gold.PLP.part.nonpolar>
-11.6584

> <Gold.PLP.part.repulsive>
0.9637

> <Gold.PLP.ligand.clash>
0.0000

> <Gold.PLP.ligand.torsion>
0.3447

> <Gold.PLP.Chemscore.Hbond>
4.6240

> <Gold.PLP.Chemscore.CHOScore>
1.0000

> <Gold.PLP.Chemscore.Metal>
0.0000

> <Gold.Chemscore.Hbonds>
donor molecule, donor type, donor heavy atom, donor atom, acceptor molecule, acceptor atom, score
      L1  H     1     9       P1 10186  1.56
      L1  H     1    10       P1 10952  0.83
      L1  H     1    16       P1 10195  1.00
      L1  H     6    17       P1 10747  0.66
      L1  C     7    15       P1  7948  0.74

> <Gold.PLP.Chemscore.Internal.Correction>
0.0061

> <Gold.Rescore>
     Score         DG    S(hbond)    S(metal)    S(lipo)     H(rot)  DE(clash)    DE(int)     intcor
     16.46     -16.97       3.77        0.00      26.96       1.67       0.11       0.39       ----

> <Gold.Chemscore.Fitness>
16.4643

> <Gold.Chemscore.DG>
-16.9656

> <Gold.Chemscore.ZeroCoef>
-5.4800

> <Gold.Chemscore.Hbond>
3.7729

> <Gold.Chemscore.Metal>
0.0000

> <Gold.Chemscore.Lipo>
26.9566

> <Gold.Chemscore.Internal_Hbond>
0.0000

> <Gold.Chemscore.DEClash>
0.1140

> <Gold.Chemscore.DEInternal>
0.3872

> <Gold.Chemscore.Rot>
1.6679

> <Gold.Chemscore.Internal.Correction>
   9.000000E+99

> <Gold.Chemscore.Hbonds>
donor molecule, donor type, donor heavy atom, donor atom, acceptor molecule, acceptor atom, score
      L1  H     1     9       P1 10186  0.77
      L1  H     1    10       P1 10952  0.82
      L1  H     1    16       P1 10195  0.98
      L1  H     6    17       P1 10747  0.65

> <Gold.Chemscore.Hbond.Weighted>
-12.6014

> <Gold.Chemscore.Metal.Weighted>
-0.0000

> <Gold.Chemscore.Lipo.Weighted>
-3.1539

> <Gold.Chemscore.Internal_Hbond.Weighted>
0.0000

> <Gold.Chemscore.DEClash.Weighted>
0.1140

> <Gold.Chemscore.DEInternal.Weighted>
0.3872

> <Gold.Chemscore.Rot.Weighted>
4.2697

> <Gold.Chemscore.Internal.Correction.Weighted>
   9.000000E+99

> <Gold.Protein.RotatedTorsions>
[ 6907 6896 6895 6894 ] final -136.67 input  -60.11 | X-H torsion
[ 7974 7965 7964 7962 ] final  161.95 input  175.53 | X-H torsion
[ 8008 7997 7996 7995 ] final -114.47 input   59.86 | X-H torsion
[ 10167 10162 10161 10158 ] final   -2.04 input  -65.29 | X-H torsion
[ 10718 10713 10712 10709 ] final  -83.28 input   66.30 | X-H torsion
[ 10763 10752 10751 10750 ] final   54.80 input  -60.55 | X-H torsion
[ 11005 11000 10999 10996 ] final  177.16 input  -57.11 | X-H torsion

> <Gold.Protein.ActiveResidues>
 VAL166  LYS551  ARG553  GLY616  TRP617  ASP618  TYR619  PRO620  LYS621  CYS622 
 ASP623  PHE694  ASN695  SER759  ASP760  ASP761  ALA762  ILE779  LEU786  VAL792 
 PHE793  MET794  SER795  GLU796  ALA797  LYS798  CYS799  TRP800  GLU811  SER814 

> <Gold.Protein.RotatedAtoms>
  151.0129  133.5948  159.2680 H   0  0  0  0  0  0  0  0  0  0  0  0  # atno 6907 bound_to 6896
  151.3093  135.0789  159.9276 H   0  0  0  0  0  0  0  0  0  0  0  0  # atno 6908 bound_to 6896
  152.5304  133.9797  159.7855 H   0  0  0  0  0  0  0  0  0  0  0  0  # atno 6909 bound_to 6896
  144.7660  139.7971  143.6315 H   0  0  0  0  0  0  0  0  0  0  0  0  # atno 7974 bound_to 7965
  155.0368  140.0392  157.2495 H   0  0  0  0  0  0  0  0  0  0  0  0  # atno 8008 bound_to 7997
  154.7250  140.2719  155.6483 H   0  0  0  0  0  0  0  0  0  0  0  0  # atno 8009 bound_to 7997
  156.2826  140.2695  156.1933 H   0  0  0  0  0  0  0  0  0  0  0  0  # atno 8010 bound_to 7997
  140.6835  143.6703  150.8190 H   0  0  0  0  0  0  0  0  0  0  0  0  # atno 10167 bound_to 10162
  156.0020  130.4660  150.4233 H   0  0  0  0  0  0  0  0  0  0  0  0  # atno 10718 bound_to 10713
  152.9809  135.5732  154.4964 H   0  0  0  0  0  0  0  0  0  0  0  0  # atno 10763 bound_to 10752
  154.4490  135.2778  155.1796 H   0  0  0  0  0  0  0  0  0  0  0  0  # atno 10764 bound_to 10752
  154.3432  135.6225  153.5660 H   0  0  0  0  0  0  0  0  0  0  0  0  # atno 10765 bound_to 10752
  140.3810  134.6946  157.4451 H   0  0  0  0  0  0  0  0  0  0  0  0  # atno 11005 bound_to 11000
  146.1768  139.4942  142.9892 LP  0  0  0  0  0  0  0  0  0  0  0  0  # atno 17320 bound_to 7965
  145.6468  141.0272  143.1782 LP  0  0  0  0  0  0  0  0  0  0  0  0  # atno 17321 bound_to 7965
  140.0407  143.5349  152.2719 LP  0  0  0  0  0  0  0  0  0  0  0  0  # atno 17342 bound_to 10162
  139.6175  144.7622  151.2814 LP  0  0  0  0  0  0  0  0  0  0  0  0  # atno 17343 bound_to 10162
  157.2287  131.0499  151.2504 LP  0  0  0  0  0  0  0  0  0  0  0  0  # atno 17370 bound_to 10713
  157.3731  130.7191  149.6578 LP  0  0  0  0  0  0  0  0  0  0  0  0  # atno 17371 bound_to 10713
  140.0478  134.6174  155.8899 LP  0  0  0  0  0  0  0  0  0  0  0  0  # atno 17394 bound_to 11000
  141.1923  133.6575  156.5497 LP  0  0  0  0  0  0  0  0  0  0  0  0  # atno 17395 bound_to 11000

$$$$
