AV-unprocessed.smi:710|AV-procd|sdf|3462|dock3
  -GOLD-   22720 0453D 1   1.00000     0.00000
 Structure written by MMmdl.
 40 41  0  0  0  0  0  0  0  0  1 V2000
  150.8521  145.4413  159.2282 C   0  0  0  0  0  0  0  0  0  0  0  0
  151.5823  144.3106  159.8949 C   0  0  0  0  0  0  0  0  0  0  0  0
  151.8712  144.3932  161.1830 N   0  0  0  0  0  0  0  0  0  0  0  0
  152.5059  143.2385  161.4681 N   0  0  0  0  0  0  0  0  0  0  0  0
  152.9624  142.9932  162.8222 C   0  0  0  0  0  0  0  0  0  0  0  0
  152.6247  142.4277  160.3560 C   0  0  0  0  0  0  0  0  0  0  0  0
  153.2855  141.0876  160.4155 C   0  0  0  0  0  0  0  0  0  0  0  0
  152.0345  143.0905  159.3123 C   0  0  0  0  0  0  0  0  0  0  0  0
  151.8784  142.6510  157.8772 C   0  0  0  0  0  0  0  0  0  0  0  0
  150.5733  141.8719  157.7074 C   0  0  0  0  0  0  0  0  0  0  0  0
  150.4102  140.8010  158.2910 O   0  0  0  0  0  0  0  0  0  0  0  0
  149.6516  142.4241  156.9062 N   0  0  0  0  0  0  0  0  0  0  0  0
  148.3598  141.8329  156.5844 C   0  0  0  0  0  0  0  0  0  0  0  0
  148.3010  141.3708  155.1126 C   0  0  1  0  0  0  0  0  0  0  0  0
  148.7263  142.4531  154.3025 O   0  0  0  0  0  0  0  0  0  0  0  0
  149.2490  140.1915  154.8395 C   0  0  0  0  0  0  0  0  0  0  0  0
  148.9042  139.6197  153.4600 C   0  0  0  0  0  0  0  0  0  0  0  0
  147.1223  139.8243  153.2095 S   0  0  0  0  0  0  0  0  0  0  0  0
  146.9088  140.9028  154.6508 C   0  0  0  0  0  0  0  0  0  0  0  0
  150.0408  145.0668  158.6038 H   0  0  0  0  0  0  0  0  0  0  0  0
  151.5243  146.0151  158.5901 H   0  0  0  0  0  0  0  0  0  0  0  0
  150.4173  146.1276  159.9559 H   0  0  0  0  0  0  0  0  0  0  0  0
  152.5916  142.0270  163.1655 H   0  0  0  0  0  0  0  0  0  0  0  0
  152.5990  143.7688  163.4980 H   0  0  0  0  0  0  0  0  0  0  0  0
  154.0524  142.9862  162.8449 H   0  0  0  0  0  0  0  0  0  0  0  0
  153.4497  140.6819  159.4177 H   0  0  0  0  0  0  0  0  0  0  0  0
  152.6672  140.3784  160.9662 H   0  0  0  0  0  0  0  0  0  0  0  0
  154.2542  141.1505  160.9114 H   0  0  0  0  0  0  0  0  0  0  0  0
  151.8731  143.5066  157.2008 H   0  0  0  0  0  0  0  0  0  0  0  0
  152.7094  142.0221  157.5565 H   0  0  0  0  0  0  0  0  0  0  0  0
  149.8748  143.3020  156.4603 H   0  0  0  0  0  0  0  0  0  0  0  0
  148.1480  141.0015  157.2595 H   0  0  0  0  0  0  0  0  0  0  0  0
  147.5922  142.5875  156.7643 H   0  0  0  0  0  0  0  0  0  0  0  0
  149.0439  143.1419  154.8664 H   0  0  0  0  0  0  0  0  0  0  0  0
  150.2997  140.4770  154.9086 H   0  0  0  0  0  0  0  0  0  0  0  0
  149.0839  139.4153  155.5882 H   0  0  0  0  0  0  0  0  0  0  0  0
  149.4232  140.1789  152.6809 H   0  0  0  0  0  0  0  0  0  0  0  0
  149.1952  138.5734  153.3658 H   0  0  0  0  0  0  0  0  0  0  0  0
  146.4378  140.3078  155.4341 H   0  0  0  0  0  0  0  0  0  0  0  0
  146.2370  141.7314  154.4227 H   0  0  0  0  0  0  0  0  0  0  0  0
  1  2  1  0  0  0  0
  1 20  1  0  0  0  0
  1 21  1  0  0  0  0
  1 22  1  0  0  0  0
  2  8  1  0  0  0  0
  2  3  2  0  0  0  0
  3  4  1  0  0  0  0
  4  5  1  0  0  0  0
  4  6  1  0  0  0  0
  5 23  1  0  0  0  0
  5 24  1  0  0  0  0
  5 25  1  0  0  0  0
  6  7  1  0  0  0  0
  6  8  2  0  0  0  0
  7 26  1  0  0  0  0
  7 27  1  0  0  0  0
  7 28  1  0  0  0  0
  8  9  1  0  0  0  0
  9 10  1  0  0  0  0
  9 29  1  0  0  0  0
  9 30  1  0  0  0  0
 10 11  2  0  0  0  0
 10 12  1  0  0  0  0
 12 13  1  0  0  0  0
 12 31  1  0  0  0  0
 13 14  1  0  0  0  0
 13 32  1  0  0  0  0
 13 33  1  0  0  0  0
 14 19  1  0  0  0  0
 14 15  1  0  0  0  0
 14 16  1  0  0  0  0
 15 34  1  0  0  0  0
 16 17  1  0  0  0  0
 16 35  1  0  0  0  0
 16 36  1  0  0  0  0
 17 18  1  0  0  0  0
 17 37  1  0  0  0  0
 17 38  1  0  0  0  0
 18 19  1  0  0  0  0
 19 39  1  0  0  0  0
 19 40  1  0  0  0  0
M  END
> <s_m_source_file>
AV-unprocessed.smi

> <i_m_source_file_index>
710

> <i_lp_mmshare_version>
43012

> <i_f3d_flags>
0

> <s_epik_input>
W0NIM11jMW5uKFtDSDNdKWMoW0NIM10pYzFbQ0gyXUMoPU8pW05IXVtDSDJdW0NAQF0yKFtPSF0pW0NIMl1bQ0gyXVNbQ0gyXTI=

> <s_epik_cmdline>
J2VwaWtfcHl0aG9uJywgJy1waCcsICc3LjAnLCAnLXRuJywgJzgnLCAnLW1hJywgJzIwMCcsICctbWV0YWxfYmluZGluZycsICctaW1hZScsICc8aW5maWxlLm1hZT4nLCAnLW9tYWUnLCAnPG91dGZpbGUubWFlPic=

> <r_lp_tautomer_probability>
1

> <r_epik_Ionization_Penalty>
0.00343686

> <r_epik_Ionization_Penalty_Charging>
0

> <r_epik_Ionization_Penalty_Neutral>
0.00343686

> <r_epik_State_Penalty>
0.00243544

> <r_epik_Charging_Adjusted_Penalty>
0.00243544

> <i_epik_Tot_Q>
0

> <i_epik_Tot_abs_Q>
0

> <r_epik_Metal_State_Penalty>
-0

> <b_epik_Metal_Only>
0

> <s_lp_Force_Field>
OPLS_2005

> <r_lp_Energy>
10.7161

> <b_lp_Chiralities_Consistent>
1

> <s_lp_Variant>
AV-unprocessed.smi:710-1

> <Gold.Version>
5.8.1

> <Gold.Id.Protein>
6NUR|6NUR_protein|mol2

> <Gold.PLP.Fitness>
46.6895

> <Gold.PLP.PLP>
-42.0788

> <Gold.PLP.part.hbond>
-3.0000

> <Gold.PLP.part.metal>
0.0000

> <Gold.PLP.part.buried>
-2.3404

> <Gold.PLP.part.nonpolar>
-37.0478

> <Gold.PLP.part.repulsive>
0.1664

> <Gold.PLP.ligand.clash>
0.0000

> <Gold.PLP.ligand.torsion>
0.4855

> <Gold.PLP.Chemscore.Hbond>
1.8562

> <Gold.PLP.Chemscore.CHOScore>
0.0000

> <Gold.PLP.Chemscore.Metal>
0.0000

> <Gold.Chemscore.Hbonds>
donor molecule, donor type, donor heavy atom, donor atom, acceptor molecule, acceptor atom, score
      L1  H    12    31       P1  8028  0.72
      L1  H    15    34       P1  8028  1.00
      P1  H  8011  8017       L1    15  0.08

> <Gold.PLP.Chemscore.Internal.Correction>
0.0133

> <Gold.Rescore>
     Score         DG    S(hbond)    S(metal)    S(lipo)     H(rot)  DE(clash)    DE(int)     intcor
     16.94     -19.43       1.93        0.00     109.63       2.07       2.01       0.48       ----

> <Gold.Chemscore.Fitness>
16.9442

> <Gold.Chemscore.DG>
-19.4286

> <Gold.Chemscore.ZeroCoef>
-5.4800

> <Gold.Chemscore.Hbond>
1.9262

> <Gold.Chemscore.Metal>
0.0000

> <Gold.Chemscore.Lipo>
109.6339

> <Gold.Chemscore.Internal_Hbond>
0.0000

> <Gold.Chemscore.DEClash>
2.0088

> <Gold.Chemscore.DEInternal>
0.4756

> <Gold.Chemscore.Rot>
2.0750

> <Gold.Chemscore.Internal.Correction>
   9.000000E+99

> <Gold.Chemscore.Hbonds>
donor molecule, donor type, donor heavy atom, donor atom, acceptor molecule, acceptor atom, score
      L1  H    12    31       P1  8028  0.72
      L1  H    15    34       P1  8028  0.95
      P1  H  8011  8017       L1    15  0.07

> <Gold.Chemscore.Hbond.Weighted>
-6.4334

> <Gold.Chemscore.Metal.Weighted>
-0.0000

> <Gold.Chemscore.Lipo.Weighted>
-12.8272

> <Gold.Chemscore.Internal_Hbond.Weighted>
0.0000

> <Gold.Chemscore.DEClash.Weighted>
2.0088

> <Gold.Chemscore.DEInternal.Weighted>
0.4756

> <Gold.Chemscore.Rot.Weighted>
5.3120

> <Gold.Chemscore.Internal.Correction.Weighted>
   9.000000E+99

> <Gold.Protein.RotatedTorsions>
[ 6907 6896 6895 6894 ] final -110.87 input  -60.11 | X-H torsion
[ 7974 7965 7964 7962 ] final -124.51 input  175.53 | X-H torsion
[ 8008 7997 7996 7995 ] final -164.57 input   59.86 | X-H torsion
[ 10167 10162 10161 10158 ] final  -86.03 input  -65.29 | X-H torsion
[ 10718 10713 10712 10709 ] final   43.14 input   66.30 | X-H torsion
[ 10763 10752 10751 10750 ] final -103.42 input  -60.55 | X-H torsion
[ 11005 11000 10999 10996 ] final  -90.61 input  -57.11 | X-H torsion

> <Gold.Protein.ActiveResidues>
 VAL166  LYS551  ARG553  GLY616  TRP617  ASP618  TYR619  PRO620  LYS621  CYS622 
 ASP623  PHE694  ASN695  SER759  ASP760  ASP761  ALA762  ILE779  LEU786  VAL792 
 PHE793  MET794  SER795  GLU796  ALA797  LYS798  CYS799  TRP800  GLU811  SER814 

> <Gold.Protein.RotatedAtoms>
  150.7653  133.9318  159.3428 H   0  0  0  0  0  0  0  0  0  0  0  0  # atno 6907 bound_to 6896
  151.7217  135.0891  160.0294 H   0  0  0  0  0  0  0  0  0  0  0  0  # atno 6908 bound_to 6896
  152.3646  133.6302  159.6076 H   0  0  0  0  0  0  0  0  0  0  0  0  # atno 6909 bound_to 6896
  145.0074  140.7875  143.4459 H   0  0  0  0  0  0  0  0  0  0  0  0  # atno 7974 bound_to 7965
  155.8375  140.0943  157.1755 H   0  0  0  0  0  0  0  0  0  0  0  0  # atno 8008 bound_to 7997
  154.3981  140.1407  156.3750 H   0  0  0  0  0  0  0  0  0  0  0  0  # atno 8009 bound_to 7997
  155.8100  140.3450  155.5454 H   0  0  0  0  0  0  0  0  0  0  0  0  # atno 8010 bound_to 7997
  140.3981  143.2675  151.9178 H   0  0  0  0  0  0  0  0  0  0  0  0  # atno 10167 bound_to 10162
  157.4126  130.7923  149.7444 H   0  0  0  0  0  0  0  0  0  0  0  0  # atno 10718 bound_to 10713
  154.7806  135.4824  153.9837 H   0  0  0  0  0  0  0  0  0  0  0  0  # atno 10763 bound_to 10752
  153.1489  135.6787  153.8920 H   0  0  0  0  0  0  0  0  0  0  0  0  # atno 10764 bound_to 10752
  153.8571  135.3160  155.3414 H   0  0  0  0  0  0  0  0  0  0  0  0  # atno 10765 bound_to 10752
  141.1562  133.7703  156.9761 H   0  0  0  0  0  0  0  0  0  0  0  0  # atno 11005 bound_to 11000
  145.2070  139.2223  143.5163 LP  0  0  0  0  0  0  0  0  0  0  0  0  # atno 17320 bound_to 7965
  146.3463  140.1900  142.8589 LP  0  0  0  0  0  0  0  0  0  0  0  0  # atno 17321 bound_to 7965
  139.4786  144.5661  151.8163 LP  0  0  0  0  0  0  0  0  0  0  0  0  # atno 17342 bound_to 10162
  140.4769  144.1506  150.5926 LP  0  0  0  0  0  0  0  0  0  0  0  0  # atno 17343 bound_to 10162
  155.9855  130.3982  150.3257 LP  0  0  0  0  0  0  0  0  0  0  0  0  # atno 17370 bound_to 10713
  157.1396  131.0293  151.2933 LP  0  0  0  0  0  0  0  0  0  0  0  0  # atno 17371 bound_to 10713
  140.1097  134.9485  157.2046 LP  0  0  0  0  0  0  0  0  0  0  0  0  # atno 17394 bound_to 11000
  140.3210  134.2916  155.7246 LP  0  0  0  0  0  0  0  0  0  0  0  0  # atno 17395 bound_to 11000

$$$$
