AV-unprocessed.smi:196|AV-procd|sdf|1534|dock4
  -GOLD-   2262019383D 1   1.00000     0.00000
 Structure written by MMmdl.
 47 50  0  0  0  0  0  0  0  0  1 V2000
  151.9348  144.9511  160.7484 C   0  0  0  0  0  0  0  0  0  0  0  0
  152.6214  144.1605  159.6216 C   0  0  2  0  0  0  0  0  0  0  0  0
  152.7617  145.0533  158.5150 O   0  0  0  0  0  0  0  0  0  0  0  0
  152.3147  144.4313  157.3198 C   0  0  0  0  0  0  0  0  0  0  0  0
  151.2354  143.4760  157.8021 C   0  0  0  0  0  0  0  0  0  0  0  0
  151.8434  142.9287  159.0891 C   0  0  2  0  0  0  0  0  0  0  0  0
  150.7935  142.5216  159.9501 O   0  0  0  0  0  0  0  0  0  0  0  0
  152.7943  141.7206  158.8753 C   0  0  0  0  0  0  0  0  0  0  0  0
  153.5103  141.3061  160.0719 N   0  0  0  0  0  0  0  0  0  0  0  0
  153.3494  141.8023  161.3460 C   0  0  0  0  0  0  0  0  0  0  0  0
  154.1151  141.2620  162.2544 N   0  0  0  0  0  0  0  0  0  0  0  0
  154.8684  140.3301  161.5520 C   0  0  0  0  0  0  0  0  0  0  0  0
  155.8840  139.4044  161.9126 C   0  0  0  0  0  0  0  0  0  0  0  0
  156.3037  139.2542  163.1933 N   0  0  0  0  0  0  0  0  0  0  0  0
  156.8015  137.9333  163.5715 C   0  0  0  0  0  0  0  0  0  0  0  0
  155.7315  137.3448  164.4816 C   0  0  1  0  0  0  0  0  0  0  0  0
  156.2068  136.3976  165.2897 F   0  0  0  0  0  0  0  0  0  0  0  0
  155.2514  138.5748  165.2391 C   0  0  0  0  0  0  0  0  0  0  0  0
  155.3220  139.7068  164.1936 C   0  0  1  0  0  0  0  0  0  0  0  0
  155.6721  141.0540  164.8508 C   0  0  0  0  0  0  0  0  0  0  0  0
  156.8217  141.1631  165.5244 N   0  0  0  0  0  0  0  0  0  0  0  0
  154.8977  142.0020  164.7430 O   0  0  0  0  0  0  0  0  0  0  0  0
  156.4099  138.6283  160.9273 N   0  0  0  0  0  0  0  0  0  0  0  0
  155.9783  138.7572  159.6691 C   0  0  0  0  0  0  0  0  0  0  0  0
  155.0416  139.5774  159.1882 N   0  0  0  0  0  0  0  0  0  0  0  0
  154.5072  140.3517  160.1759 C   0  0  0  0  0  0  0  0  0  0  0  0
  154.9191  136.9125  163.8955 H   0  0  0  0  0  0  0  0  0  0  0  0
  154.3372  139.8089  163.7313 H   0  0  0  0  0  0  0  0  0  0  0  0
  151.8285  144.3466  161.6494 H   0  0  0  0  0  0  0  0  0  0  0  0
  150.9424  145.2899  160.4488 H   0  0  0  0  0  0  0  0  0  0  0  0
  152.5183  145.8329  161.0132 H   0  0  0  0  0  0  0  0  0  0  0  0
  153.6165  143.8677  159.9595 H   0  0  0  0  0  0  0  0  0  0  0  0
  151.9415  145.1626  156.6026 H   0  0  0  0  0  0  0  0  0  0  0  0
  153.1404  143.8886  156.8579 H   0  0  0  0  0  0  0  0  0  0  0  0
  150.3329  144.0491  158.0222 H   0  0  0  0  0  0  0  0  0  0  0  0
  150.9680  142.7209  157.0643 H   0  0  0  0  0  0  0  0  0  0  0  0
  150.0367  143.0589  159.7735 H   0  0  0  0  0  0  0  0  0  0  0  0
  152.2377  140.8608  158.5005 H   0  0  0  0  0  0  0  0  0  0  0  0
  153.5302  141.9563  158.1052 H   0  0  0  0  0  0  0  0  0  0  0  0
  152.6385  142.5809  161.5828 H   0  0  0  0  0  0  0  0  0  0  0  0
  157.0276  137.2798  162.7272 H   0  0  0  0  0  0  0  0  0  0  0  0
  157.7323  138.0743  164.1223 H   0  0  0  0  0  0  0  0  0  0  0  0
  154.2492  138.4438  165.6487 H   0  0  0  0  0  0  0  0  0  0  0  0
  155.9266  138.7712  166.0746 H   0  0  0  0  0  0  0  0  0  0  0  0
  157.0633  142.0377  165.9676 H   0  0  0  0  0  0  0  0  0  0  0  0
  157.4404  140.3684  165.5933 H   0  0  0  0  0  0  0  0  0  0  0  0
  156.4486  138.1083  158.9450 H   0  0  0  0  0  0  0  0  0  0  0  0
  1  2  1  0  0  0  0
  1 29  1  0  0  0  0
  1 30  1  0  0  0  0
  1 31  1  0  0  0  0
  2  6  1  0  0  0  0
  2  3  1  0  0  0  0
  2 32  1  0  0  0  0
  3  4  1  0  0  0  0
  4  5  1  0  0  0  0
  4 33  1  0  0  0  0
  4 34  1  0  0  0  0
  5  6  1  0  0  0  0
  5 35  1  0  0  0  0
  5 36  1  0  0  0  0
  6  7  1  0  0  0  0
  6  8  1  0  0  0  0
  7 37  1  0  0  0  0
  8  9  1  0  0  0  0
  8 38  1  0  0  0  0
  8 39  1  0  0  0  0
  9 26  1  0  0  0  0
  9 10  1  0  0  0  0
 10 11  2  0  0  0  0
 10 40  1  0  0  0  0
 11 12  1  0  0  0  0
 12 26  2  0  0  0  0
 12 13  1  0  0  0  0
 13 14  1  0  0  0  0
 13 23  2  0  0  0  0
 14 19  1  0  0  0  0
 14 15  1  0  0  0  0
 15 16  1  0  0  0  0
 15 41  1  0  0  0  0
 15 42  1  0  0  0  0
 16 27  1  0  0  0  0
 16 17  1  0  0  0  0
 16 18  1  0  0  0  0
 18 19  1  0  0  0  0
 18 43  1  0  0  0  0
 18 44  1  0  0  0  0
 19 28  1  0  0  0  0
 19 20  1  0  0  0  0
 20 21  1  0  0  0  0
 20 22  2  0  0  0  0
 21 45  1  0  0  0  0
 21 46  1  0  0  0  0
 23 24  1  0  0  0  0
 24 25  2  0  0  0  0
 24 47  1  0  0  0  0
 25 26  1  0  0  0  0
M  END
> <s_m_source_file>
AV-unprocessed.smi

> <i_m_source_file_index>
196

> <i_lp_mmshare_version>
43012

> <i_f3d_flags>
0

> <s_epik_input>
W0NIMl0xW0NIMl1PW0NAQEhdKFtDSDNdKVtDQEBdMShbT0hdKVtDSDJdbihbY0hdbjIpYyhjMjMpbltjSF1uYzNONFtDSDJdW0NASF0oRilbQ0gyXVtDQEhdNEMoPU8pW05IMl0=

> <s_epik_cmdline>
J2VwaWtfcHl0aG9uJywgJy1waCcsICc3LjAnLCAnLXRuJywgJzgnLCAnLW1hJywgJzIwMCcsICctbWV0YWxfYmluZGluZycsICctaW1hZScsICc8aW5maWxlLm1hZT4nLCAnLW9tYWUnLCAnPG91dGZpbGUubWFlPic=

> <r_lp_tautomer_probability>
1

> <r_epik_Ionization_Penalty>
0.000857933

> <r_epik_Ionization_Penalty_Charging>
0

> <r_epik_Ionization_Penalty_Neutral>
0.000857933

> <r_epik_State_Penalty>
0.000462053

> <r_epik_Charging_Adjusted_Penalty>
0.000462053

> <i_epik_Tot_Q>
0

> <i_epik_Tot_abs_Q>
0

> <r_epik_Metal_State_Penalty>
-0

> <b_epik_Metal_Only>
0

> <s_lp_Force_Field>
OPLS_2005

> <r_lp_Energy>
47.3735

> <b_lp_Chiralities_Consistent>
1

> <s_lp_Variant>
AV-unprocessed.smi:196-7

> <Gold.Version>
5.8.1

> <Gold.Id.Protein>
6NUR|6NUR_protein|mol2

> <Gold.PLP.Fitness>
43.2841

> <Gold.PLP.PLP>
-41.6961

> <Gold.PLP.part.hbond>
-3.7771

> <Gold.PLP.part.metal>
0.0000

> <Gold.PLP.part.buried>
-3.4729

> <Gold.PLP.part.nonpolar>
-34.9407

> <Gold.PLP.part.repulsive>
0.0294

> <Gold.PLP.ligand.clash>
0.0080

> <Gold.PLP.ligand.torsion>
0.7592

> <Gold.PLP.Chemscore.Hbond>
1.0000

> <Gold.PLP.Chemscore.CHOScore>
0.0000

> <Gold.PLP.Chemscore.Metal>
0.0000

> <Gold.Chemscore.Hbonds>
donor molecule, donor type, donor heavy atom, donor atom, acceptor molecule, acceptor atom, score
      P1  H  7997  8009       L1    25  1.00

> <Gold.PLP.Chemscore.Internal.Correction>
0.1143

> <Gold.Rescore>
     Score         DG    S(hbond)    S(metal)    S(lipo)     H(rot)  DE(clash)    DE(int)     intcor
      5.15     -11.55       0.97        0.00      90.87       3.04       0.37       6.03       ----

> <Gold.Chemscore.Fitness>
5.1502

> <Gold.Chemscore.DG>
-11.5545

> <Gold.Chemscore.ZeroCoef>
-5.4800

> <Gold.Chemscore.Hbond>
0.9666

> <Gold.Chemscore.Metal>
0.0000

> <Gold.Chemscore.Lipo>
90.8701

> <Gold.Chemscore.Internal_Hbond>
0.0000

> <Gold.Chemscore.DEClash>
0.3747

> <Gold.Chemscore.DEInternal>
6.0295

> <Gold.Chemscore.Rot>
3.0413

> <Gold.Chemscore.Internal.Correction>
   9.000000E+99

> <Gold.Chemscore.Hbonds>
donor molecule, donor type, donor heavy atom, donor atom, acceptor molecule, acceptor atom, score
      P1  H  7997  8009       L1    25  0.82

> <Gold.Chemscore.Hbond.Weighted>
-3.2283

> <Gold.Chemscore.Metal.Weighted>
-0.0000

> <Gold.Chemscore.Lipo.Weighted>
-10.6318

> <Gold.Chemscore.Internal_Hbond.Weighted>
0.0000

> <Gold.Chemscore.DEClash.Weighted>
0.3747

> <Gold.Chemscore.DEInternal.Weighted>
6.0295

> <Gold.Chemscore.Rot.Weighted>
7.7856

> <Gold.Chemscore.Internal.Correction.Weighted>
   9.000000E+99

> <Gold.Protein.RotatedTorsions>
[ 6907 6896 6895 6894 ] final   73.40 input  -60.11 | X-H torsion
[ 7974 7965 7964 7962 ] final -112.68 input  175.53 | X-H torsion
[ 8008 7997 7996 7995 ] final  105.48 input   59.86 | X-H torsion
[ 10167 10162 10161 10158 ] final   89.48 input  -65.29 | X-H torsion
[ 10718 10713 10712 10709 ] final   54.90 input   66.30 | X-H torsion
[ 10763 10752 10751 10750 ] final  -73.87 input  -60.55 | X-H torsion
[ 11005 11000 10999 10996 ] final  -52.03 input  -57.11 | X-H torsion

> <Gold.Protein.ActiveResidues>
 VAL166  LYS551  ARG553  GLY616  TRP617  ASP618  TYR619  PRO620  LYS621  CYS622 
 ASP623  PHE694  ASN695  SER759  ASP760  ASP761  ALA762  ILE779  LEU786  VAL792 
 PHE793  MET794  SER795  GLU796  ALA797  LYS798  CYS799  TRP800  GLU811  SER814 

> <Gold.Protein.RotatedAtoms>
  152.4921  134.4427  159.9548 H   0  0  0  0  0  0  0  0  0  0  0  0  # atno 6907 bound_to 6896
  151.4412  133.3637  159.2790 H   0  0  0  0  0  0  0  0  0  0  0  0  # atno 6908 bound_to 6896
  150.9086  134.8526  159.7470 H   0  0  0  0  0  0  0  0  0  0  0  0  # atno 6909 bound_to 6896
  145.1411  140.8778  143.3701 H   0  0  0  0  0  0  0  0  0  0  0  0  # atno 7974 bound_to 7965
  156.1663  140.3129  155.8894 H   0  0  0  0  0  0  0  0  0  0  0  0  # atno 8008 bound_to 7997
  155.3680  140.0480  157.3063 H   0  0  0  0  0  0  0  0  0  0  0  0  # atno 8009 bound_to 7997
  154.5196  140.2193  155.9012 H   0  0  0  0  0  0  0  0  0  0  0  0  # atno 8010 bound_to 7997
  139.8568  144.6565  150.9105 H   0  0  0  0  0  0  0  0  0  0  0  0  # atno 10167 bound_to 10162
  157.5297  130.8622  149.8671 H   0  0  0  0  0  0  0  0  0  0  0  0  # atno 10718 bound_to 10713
  154.4654  135.5883  153.6284 H   0  0  0  0  0  0  0  0  0  0  0  0  # atno 10763 bound_to 10752
  152.9828  135.6054  154.3434 H   0  0  0  0  0  0  0  0  0  0  0  0  # atno 10764 bound_to 10752
  154.3310  135.2842  155.2450 H   0  0  0  0  0  0  0  0  0  0  0  0  # atno 10765 bound_to 10752
  141.0902  133.6634  156.3964 H   0  0  0  0  0  0  0  0  0  0  0  0  # atno 11005 bound_to 11000
  145.0531  139.3165  143.5918 LP  0  0  0  0  0  0  0  0  0  0  0  0  # atno 17320 bound_to 7965
  146.3505  139.9946  142.8682 LP  0  0  0  0  0  0  0  0  0  0  0  0  # atno 17321 bound_to 7965
  140.7780  143.3779  151.1530 LP  0  0  0  0  0  0  0  0  0  0  0  0  # atno 17342 bound_to 10162
  139.7412  143.8922  152.3050 LP  0  0  0  0  0  0  0  0  0  0  0  0  # atno 17343 bound_to 10162
  156.0413  130.3738  150.1427 LP  0  0  0  0  0  0  0  0  0  0  0  0  # atno 17370 bound_to 10713
  156.9613  130.9805  151.3478 LP  0  0  0  0  0  0  0  0  0  0  0  0  # atno 17371 bound_to 10713
  140.5269  134.6250  157.5337 LP  0  0  0  0  0  0  0  0  0  0  0  0  # atno 17394 bound_to 11000
  139.9727  134.7266  156.0010 LP  0  0  0  0  0  0  0  0  0  0  0  0  # atno 17395 bound_to 11000

$$$$
