AV-unprocessed.smi:2233|AV-procd|sdf|9040|dock1
  -GOLD-   2272012243D 1   1.00000     0.00000
 Structure written by MMmdl.
 43 44  0  0  0  0  0  0  0  0  2 V2000
  152.7075  142.1737  161.7945 C   0  0  0  0  0  0  0  0  0  0  0  0
  152.2105  143.1498  161.2548 C   0  0  0  0  0  0  0  0  0  0  0  0
  151.5985  144.3180  160.5979 C   0  0  0  0  0  0  0  0  0  0  0  0
  151.6122  144.2715  159.0589 C   0  0  0  0  0  0  0  0  0  0  0  0
  150.8265  143.0932  158.4548 C   0  0  0  0  0  0  0  0  0  0  0  0
  150.6515  143.2277  156.9314 C   0  0  0  0  0  0  0  0  0  0  0  0
  150.1808  141.9298  156.2673 C   0  0  0  0  0  0  0  0  0  0  0  0
  150.7802  140.8770  156.4838 O   0  0  0  0  0  0  0  0  0  0  0  0
  149.1011  142.0449  155.4730 N   0  0  0  0  0  0  0  0  0  0  0  0
  148.4121  141.0354  154.7399 C   0  0  0  0  0  0  0  0  0  0  0  0
  149.0000  139.7908  154.3998 C   0  0  0  0  0  0  0  0  0  0  0  0
  148.3007  138.8786  153.6918 N   0  3  0  0  0  0  0  0  0  0  0  0
  147.0370  139.0898  153.2702 C   0  0  0  0  0  0  0  0  0  0  0  0
  146.3983  140.3104  153.5607 C   0  0  0  0  0  0  0  0  0  0  0  0
  147.0889  141.3013  154.2992 C   0  0  0  0  0  0  0  0  0  0  0  0
  146.4770  142.5298  154.5981 N   0  0  0  0  0  0  0  0  0  0  0  0
  145.9328  143.2174  153.4341 C   0  0  0  0  0  0  0  0  0  0  0  0
  145.4249  144.6115  153.8403 C   0  0  0  0  0  0  0  0  0  0  0  0
  144.4737  144.4833  154.8936 O   0  0  0  0  0  0  0  0  0  0  0  0
  145.0369  143.8789  156.0550 C   0  0  0  0  0  0  0  0  0  0  0  0
  145.5361  142.4653  155.7091 C   0  0  0  0  0  0  0  0  0  0  0  0
  153.1435  141.3198  162.2629 H   0  0  0  0  0  0  0  0  0  0  0  0
  150.5754  144.4073  160.9640 H   0  0  0  0  0  0  0  0  0  0  0  0
  152.1351  145.2014  160.9447 H   0  0  0  0  0  0  0  0  0  0  0  0
  151.1914  145.2051  158.6836 H   0  0  0  0  0  0  0  0  0  0  0  0
  152.6435  144.2436  158.7036 H   0  0  0  0  0  0  0  0  0  0  0  0
  151.3380  142.1567  158.6804 H   0  0  0  0  0  0  0  0  0  0  0  0
  149.8470  143.0332  158.9317 H   0  0  0  0  0  0  0  0  0  0  0  0
  149.9361  144.0235  156.7171 H   0  0  0  0  0  0  0  0  0  0  0  0
  151.5954  143.5255  156.4737 H   0  0  0  0  0  0  0  0  0  0  0  0
  148.6729  142.9595  155.4461 H   0  0  0  0  0  0  0  0  0  0  0  0
  150.0046  139.4874  154.6519 H   0  0  0  0  0  0  0  0  0  0  0  0
  146.5805  138.2852  152.7122 H   0  0  0  0  0  0  0  0  0  0  0  0
  145.3884  140.4805  153.2168 H   0  0  0  0  0  0  0  0  0  0  0  0
  146.7004  143.3081  152.6644 H   0  0  0  0  0  0  0  0  0  0  0  0
  145.1137  142.6366  153.0082 H   0  0  0  0  0  0  0  0  0  0  0  0
  146.2511  145.2499  154.1574 H   0  0  0  0  0  0  0  0  0  0  0  0
  144.9509  145.1018  152.9899 H   0  0  0  0  0  0  0  0  0  0  0  0
  145.8503  144.4955  156.4407 H   0  0  0  0  0  0  0  0  0  0  0  0
  144.2767  143.8292  156.8346 H   0  0  0  0  0  0  0  0  0  0  0  0
  144.6900  141.8304  155.4430 H   0  0  0  0  0  0  0  0  0  0  0  0
  146.0182  142.0155  156.5780 H   0  0  0  0  0  0  0  0  0  0  0  0
  148.7499  137.9913  153.4634 H   0  0  0  0  0  0  0  0  0  0  0  0
  1  2  3  0  0  0  0
  1 22  1  0  0  0  0
  2  3  1  0  0  0  0
  3  4  1  0  0  0  0
  3 23  1  0  0  0  0
  3 24  1  0  0  0  0
  4  5  1  0  0  0  0
  4 25  1  0  0  0  0
  4 26  1  0  0  0  0
  5  6  1  0  0  0  0
  5 27  1  0  0  0  0
  5 28  1  0  0  0  0
  6  7  1  0  0  0  0
  6 29  1  0  0  0  0
  6 30  1  0  0  0  0
  7  8  2  0  0  0  0
  7  9  1  0  0  0  0
  9 10  1  0  0  0  0
  9 31  1  0  0  0  0
 10 15  1  0  0  0  0
 10 11  2  0  0  0  0
 11 12  1  0  0  0  0
 11 32  1  0  0  0  0
 12 13  2  0  0  0  0
 12 43  1  0  0  0  0
 13 14  1  0  0  0  0
 13 33  1  0  0  0  0
 14 15  2  0  0  0  0
 14 34  1  0  0  0  0
 15 16  1  0  0  0  0
 16 21  1  0  0  0  0
 16 17  1  0  0  0  0
 17 18  1  0  0  0  0
 17 35  1  0  0  0  0
 17 36  1  0  0  0  0
 18 19  1  0  0  0  0
 18 37  1  0  0  0  0
 18 38  1  0  0  0  0
 19 20  1  0  0  0  0
 20 21  1  0  0  0  0
 20 39  1  0  0  0  0
 20 40  1  0  0  0  0
 21 41  1  0  0  0  0
 21 42  1  0  0  0  0
M  CHG  1  12   1
M  END
> <s_m_source_file>
AV-unprocessed.smi

> <i_m_source_file_index>
2233

> <i_lp_mmshare_version>
43012

> <i_f3d_flags>
0

> <s_epik_input>
W0NIXSNDW0NIMl1bQ0gyXVtDSDJdW0NIMl1DKD1PKVtOSF1jMVtjSF1uW2NIXVtjSF1jMU4yW0NIMl1bQ0gyXU9bQ0gyXVtDSDJdMg==

> <s_epik_cmdline>
J2VwaWtfcHl0aG9uJywgJy1waCcsICc3LjAnLCAnLXRuJywgJzgnLCAnLW1hJywgJzIwMCcsICctbWV0YWxfYmluZGluZycsICctaW1hZScsICc8aW5maWxlLm1hZT4nLCAnLW9tYWUnLCAnPG91dGZpbGUubWFlPic=

> <r_lp_tautomer_probability>
1

> <r_epik_Ionization_Penalty>
0.153155

> <r_epik_Ionization_Penalty_Charging>
0.153154

> <r_epik_Ionization_Penalty_Neutral>
1.2848e-06

> <r_epik_State_Penalty>
0.142445

> <r_epik_Charging_Adjusted_Penalty>
0.295599

> <i_epik_Tot_Q>
1

> <i_epik_Tot_abs_Q>
1

> <r_epik_Metal_State_Penalty>
0.464899

> <b_epik_Metal_Only>
0

> <s_lp_Force_Field>
OPLS_2005

> <r_lp_Energy>
30.3927

> <b_lp_Chiralities_Consistent>
1

> <s_lp_Variant>
AV-unprocessed.smi:2233-1

> <Gold.Version>
5.8.1

> <Gold.Id.Protein>
6NUR|6NUR_protein|mol2

> <Gold.PLP.Fitness>
49.0647

> <Gold.PLP.PLP>
-41.3200

> <Gold.PLP.part.hbond>
-3.0000

> <Gold.PLP.part.metal>
0.0000

> <Gold.PLP.part.buried>
-2.4309

> <Gold.PLP.part.nonpolar>
-37.2397

> <Gold.PLP.part.repulsive>
0.5361

> <Gold.PLP.ligand.clash>
0.0000

> <Gold.PLP.ligand.torsion>
0.5362

> <Gold.PLP.Chemscore.Hbond>
2.8793

> <Gold.PLP.Chemscore.CHOScore>
0.0000

> <Gold.PLP.Chemscore.Metal>
0.0000

> <Gold.Chemscore.Hbonds>
donor molecule, donor type, donor heavy atom, donor atom, acceptor molecule, acceptor atom, score
      L1  H     9    31       P1  8028  0.96
      L1  H    12    43       P1  7948  0.27

> <Gold.PLP.Chemscore.Internal.Correction>
0.1794

> <Gold.Rescore>
     Score         DG    S(hbond)    S(metal)    S(lipo)     H(rot)  DE(clash)    DE(int)     intcor
     17.08     -20.27       1.54        0.00     116.14       1.54       1.75       1.45       ----

> <Gold.Chemscore.Fitness>
17.0779

> <Gold.Chemscore.DG>
-20.2746

> <Gold.Chemscore.ZeroCoef>
-5.4800

> <Gold.Chemscore.Hbond>
1.5399

> <Gold.Chemscore.Metal>
0.0000

> <Gold.Chemscore.Lipo>
116.1428

> <Gold.Chemscore.Internal_Hbond>
0.0000

> <Gold.Chemscore.DEClash>
1.7490

> <Gold.Chemscore.DEInternal>
1.4477

> <Gold.Chemscore.Rot>
1.5380

> <Gold.Chemscore.Internal.Correction>
   9.000000E+99

> <Gold.Chemscore.Hbonds>
donor molecule, donor type, donor heavy atom, donor atom, acceptor molecule, acceptor atom, score
      L1  H     9    31       P1  8028  0.92
      L1  H    12    43       P1  7948  0.16

> <Gold.Chemscore.Hbond.Weighted>
-5.1432

> <Gold.Chemscore.Metal.Weighted>
-0.0000

> <Gold.Chemscore.Lipo.Weighted>
-13.5887

> <Gold.Chemscore.Internal_Hbond.Weighted>
0.0000

> <Gold.Chemscore.DEClash.Weighted>
1.7490

> <Gold.Chemscore.DEInternal.Weighted>
1.4477

> <Gold.Chemscore.Rot.Weighted>
3.9373

> <Gold.Chemscore.Internal.Correction.Weighted>
   9.000000E+99

> <Gold.Protein.RotatedTorsions>
[ 6907 6896 6895 6894 ] final -109.03 input  -60.11 | X-H torsion
[ 7974 7965 7964 7962 ] final   84.48 input  175.53 | X-H torsion
[ 8008 7997 7996 7995 ] final  -25.34 input   59.86 | X-H torsion
[ 10167 10162 10161 10158 ] final  -62.51 input  -65.29 | X-H torsion
[ 10718 10713 10712 10709 ] final  -73.89 input   66.30 | X-H torsion
[ 10763 10752 10751 10750 ] final   26.11 input  -60.55 | X-H torsion
[ 11005 11000 10999 10996 ] final  -59.12 input  -57.11 | X-H torsion

> <Gold.Protein.ActiveResidues>
 VAL166  LYS551  ARG553  GLY616  TRP617  ASP618  TYR619  PRO620  LYS621  CYS622 
 ASP623  PHE694  ASN695  SER759  ASP760  ASP761  ALA762  ILE779  LEU786  VAL792 
 PHE793  MET794  SER795  GLU796  ALA797  LYS798  CYS799  TRP800  GLU811  SER814 

> <Gold.Protein.RotatedAtoms>
  150.7537  133.9589  159.3509 H   0  0  0  0  0  0  0  0  0  0  0  0  # atno 6907 bound_to 6896
  151.7513  135.0830  160.0340 H   0  0  0  0  0  0  0  0  0  0  0  0  # atno 6908 bound_to 6896
  152.3464  133.6090  159.5949 H   0  0  0  0  0  0  0  0  0  0  0  0  # atno 6909 bound_to 6896
  145.5981  139.2348  143.2261 H   0  0  0  0  0  0  0  0  0  0  0  0  # atno 7974 bound_to 7965
  154.4481  140.1929  156.0605 H   0  0  0  0  0  0  0  0  0  0  0  0  # atno 8008 bound_to 7997
  156.0587  140.3299  155.7408 H   0  0  0  0  0  0  0  0  0  0  0  0  # atno 8009 bound_to 7997
  155.5446  140.0589  157.2854 H   0  0  0  0  0  0  0  0  0  0  0  0  # atno 8010 bound_to 7997
  140.5934  143.2346  151.6089 H   0  0  0  0  0  0  0  0  0  0  0  0  # atno 10167 bound_to 10162
  156.0263  130.4404  150.2810 H   0  0  0  0  0  0  0  0  0  0  0  0  # atno 10718 bound_to 10713
  153.0645  135.6568  154.0386 H   0  0  0  0  0  0  0  0  0  0  0  0  # atno 10763 bound_to 10752
  154.0046  135.2934  155.3400 H   0  0  0  0  0  0  0  0  0  0  0  0  # atno 10764 bound_to 10752
  154.6997  135.5249  153.8577 H   0  0  0  0  0  0  0  0  0  0  0  0  # atno 10765 bound_to 10752
  141.1235  133.6615  156.5024 H   0  0  0  0  0  0  0  0  0  0  0  0  # atno 11005 bound_to 11000
  146.1596  140.6807  142.9283 LP  0  0  0  0  0  0  0  0  0  0  0  0  # atno 17320 bound_to 7965
  144.7322  140.4704  143.6930 LP  0  0  0  0  0  0  0  0  0  0  0  0  # atno 17321 bound_to 7965
  139.5242  144.3110  152.0993 LP  0  0  0  0  0  0  0  0  0  0  0  0  # atno 17342 bound_to 10162
  140.2278  144.4400  150.6313 LP  0  0  0  0  0  0  0  0  0  0  0  0  # atno 17343 bound_to 10162
  157.0914  131.0170  151.3120 LP  0  0  0  0  0  0  0  0  0  0  0  0  # atno 17370 bound_to 10713
  157.4851  130.7788  149.7452 LP  0  0  0  0  0  0  0  0  0  0  0  0  # atno 17371 bound_to 10713
  140.4435  134.6994  157.5004 LP  0  0  0  0  0  0  0  0  0  0  0  0  # atno 17394 bound_to 11000
  140.0213  134.6543  155.9235 LP  0  0  0  0  0  0  0  0  0  0  0  0  # atno 17395 bound_to 11000

$$$$
