AV-unprocessed.smi:2801|AV-procd|sdf|10798|dock6
  -GOLD-   2272015233D 1   1.00000     0.00000
 Structure written by MMmdl.
 32 32  0  0  0  0  0  0  0  0  3 V2000
  152.9189  142.1389  161.3070 C   0  0  0  0  0  0  0  0  0  0  0  0
  153.7581  141.7196  160.0982 C   0  0  0  0  0  0  0  0  0  0  0  0
  152.8807  141.2757  159.0704 O   0  0  0  0  0  0  0  0  0  0  0  0
  151.8050  142.1585  158.7599 C   0  0  1  0  0  0  0  0  0  0  0  0
  152.4081  143.5266  158.3892 C   0  0  0  0  0  0  0  0  0  0  0  0
  151.3489  144.6286  158.2624 C   0  0  0  0  0  0  0  0  0  0  0  0
  150.9709  141.5869  157.6016 C   0  0  0  0  0  0  0  0  0  0  0  0
  149.8966  142.1121  157.3102 O   0  0  0  0  0  0  0  0  0  0  0  0
  151.5154  140.5388  156.9569 N   0  0  0  0  0  0  0  0  0  0  0  0
  151.0159  139.7890  155.8544 C   0  0  0  0  0  0  0  0  0  0  0  0
  149.7473  140.0132  155.2599 C   0  0  0  0  0  0  0  0  0  0  0  0
  149.3343  139.2060  154.1810 C   0  0  0  0  0  0  0  0  0  0  0  0
  150.1390  138.2227  153.7267 N   0  3  0  0  0  0  0  0  0  0  0  0
  151.3475  137.9623  154.2666 C   0  0  0  0  0  0  0  0  0  0  0  0
  151.8182  138.7356  155.3471 C   0  0  0  0  0  0  0  0  0  0  0  0
  153.0436  138.4517  155.8823 O   0  5  0  0  0  0  0  0  0  0  0  0
  153.5545  142.4862  162.1215 H   0  0  0  0  0  0  0  0  0  0  0  0
  152.3239  141.3043  161.6785 H   0  0  0  0  0  0  0  0  0  0  0  0
  152.2360  142.9481  161.0464 H   0  0  0  0  0  0  0  0  0  0  0  0
  154.3628  142.5634  159.7644 H   0  0  0  0  0  0  0  0  0  0  0  0
  154.4397  140.9165  160.3821 H   0  0  0  0  0  0  0  0  0  0  0  0
  151.1704  142.2858  159.6396 H   0  0  0  0  0  0  0  0  0  0  0  0
  153.1480  143.8234  159.1340 H   0  0  0  0  0  0  0  0  0  0  0  0
  152.9422  143.4487  157.4411 H   0  0  0  0  0  0  0  0  0  0  0  0
  151.8077  145.5776  157.9846 H   0  0  0  0  0  0  0  0  0  0  0  0
  150.8196  144.7789  159.2036 H   0  0  0  0  0  0  0  0  0  0  0  0
  150.6116  144.3797  157.4987 H   0  0  0  0  0  0  0  0  0  0  0  0
  152.4409  140.2695  157.2600 H   0  0  0  0  0  0  0  0  0  0  0  0
  149.0745  140.7778  155.6140 H   0  0  0  0  0  0  0  0  0  0  0  0
  148.3862  139.3135  153.6752 H   0  0  0  0  0  0  0  0  0  0  0  0
  151.8983  137.1459  153.8222 H   0  0  0  0  0  0  0  0  0  0  0  0
  149.8196  137.6491  152.9463 H   0  0  0  0  0  0  0  0  0  0  0  0
  1  2  1  0  0  0  0
  1 17  1  0  0  0  0
  1 18  1  0  0  0  0
  1 19  1  0  0  0  0
  2  3  1  0  0  0  0
  2 20  1  0  0  0  0
  2 21  1  0  0  0  0
  3  4  1  0  0  0  0
  4  5  1  0  0  0  0
  4  7  1  0  0  0  0
  4 22  1  0  0  0  0
  5  6  1  0  0  0  0
  5 23  1  0  0  0  0
  5 24  1  0  0  0  0
  6 25  1  0  0  0  0
  6 26  1  0  0  0  0
  6 27  1  0  0  0  0
  7  8  2  0  0  0  0
  7  9  1  0  0  0  0
  9 28  1  0  0  0  0
  9 10  1  0  0  0  0
 10 11  2  0  0  0  0
 10 15  1  0  0  0  0
 11 12  1  0  0  0  0
 11 29  1  0  0  0  0
 12 13  2  0  0  0  0
 12 30  1  0  0  0  0
 13 14  1  0  0  0  0
 13 32  1  0  0  0  0
 14 15  2  0  0  0  0
 14 31  1  0  0  0  0
 15 16  1  0  0  0  0
M  CHG  1  13   1
M  CHG  1  16  -1
M  END
> <s_m_source_file>
AV-unprocessed.smi

> <i_m_source_file_index>
2801

> <i_lp_mmshare_version>
43012

> <i_f3d_flags>
0

> <s_epik_input>
W0NIM11bQ0gyXU9bQ0BIXShbQ0gyXVtDSDNdKUMoPU8pW05IXWMxW2NIXVtjSF1uW2NIXWMxW09IXQ==

> <s_epik_cmdline>
J2VwaWtfcHl0aG9uJywgJy1waCcsICc3LjAnLCAnLXRuJywgJzgnLCAnLW1hJywgJzIwMCcsICctbWV0YWxfYmluZGluZycsICctaW1hZScsICc8aW5maWxlLm1hZT4nLCAnLW9tYWUnLCAnPG91dGZpbGUubWFlPic=

> <r_lp_tautomer_probability>
0.56342

> <r_epik_Ionization_Penalty>
0.0170685

> <r_epik_Ionization_Penalty_Charging>
0.0170685

> <r_epik_Ionization_Penalty_Neutral>
1.5328e-09

> <r_epik_State_Penalty>
0.331557

> <r_epik_Charging_Adjusted_Penalty>
0.348625

> <i_epik_Tot_Q>
0

> <i_epik_Tot_abs_Q>
2

> <r_epik_Metal_State_Penalty>
0.590147

> <b_epik_Metal_Only>
0

> <s_lp_Force_Field>
OPLS_2005

> <r_lp_Energy>
9.87866

> <b_lp_Chiralities_Consistent>
1

> <s_lp_Variant>
AV-unprocessed.smi:2801-2

> <Gold.Version>
5.8.1

> <Gold.Id.Protein>
6NUR|6NUR_protein|mol2

> <Gold.PLP.Fitness>
47.5406

> <Gold.PLP.PLP>
-36.0595

> <Gold.PLP.part.hbond>
-2.9901

> <Gold.PLP.part.metal>
0.0000

> <Gold.PLP.part.buried>
-3.9006

> <Gold.PLP.part.nonpolar>
-29.3198

> <Gold.PLP.part.repulsive>
0.3260

> <Gold.PLP.ligand.clash>
0.0000

> <Gold.PLP.ligand.torsion>
0.2918

> <Gold.PLP.Chemscore.Hbond>
4.0000

> <Gold.PLP.Chemscore.CHOScore>
0.0000

> <Gold.PLP.Chemscore.Metal>
0.0000

> <Gold.Chemscore.Hbonds>
donor molecule, donor type, donor heavy atom, donor atom, acceptor molecule, acceptor atom, score
      L1  H    13    32       P1  7948  2.00
      P1  H  7997  8008       L1    16  1.28

> <Gold.PLP.Chemscore.Internal.Correction>
0.0647

> <Gold.Rescore>
     Score         DG    S(hbond)    S(metal)    S(lipo)     H(rot)  DE(clash)    DE(int)     intcor
     16.29     -17.78       1.79        0.00      88.83       1.59       0.06       1.43       ----

> <Gold.Chemscore.Fitness>
16.2880

> <Gold.Chemscore.DG>
-17.7777

> <Gold.Chemscore.ZeroCoef>
-5.4800

> <Gold.Chemscore.Hbond>
1.7916

> <Gold.Chemscore.Metal>
0.0000

> <Gold.Chemscore.Lipo>
88.8269

> <Gold.Chemscore.Internal_Hbond>
0.0000

> <Gold.Chemscore.DEClash>
0.0637

> <Gold.Chemscore.DEInternal>
1.4261

> <Gold.Chemscore.Rot>
1.5933

> <Gold.Chemscore.Internal.Correction>
   9.000000E+99

> <Gold.Chemscore.Hbonds>
donor molecule, donor type, donor heavy atom, donor atom, acceptor molecule, acceptor atom, score
      L1  H    13    32       P1  7948  0.44
      P1  H  7997  8008       L1    16  0.57

> <Gold.Chemscore.Hbond.Weighted>
-5.9839

> <Gold.Chemscore.Metal.Weighted>
-0.0000

> <Gold.Chemscore.Lipo.Weighted>
-10.3927

> <Gold.Chemscore.Internal_Hbond.Weighted>
0.0000

> <Gold.Chemscore.DEClash.Weighted>
0.0637

> <Gold.Chemscore.DEInternal.Weighted>
1.4261

> <Gold.Chemscore.Rot.Weighted>
4.0789

> <Gold.Chemscore.Internal.Correction.Weighted>
   9.000000E+99

> <Gold.Protein.RotatedTorsions>
[ 6907 6896 6895 6894 ] final  164.51 input  -60.11 | X-H torsion
[ 7974 7965 7964 7962 ] final   -1.07 input  175.53 | X-H torsion
[ 8008 7997 7996 7995 ] final  -27.90 input   59.86 | X-H torsion
[ 10167 10162 10161 10158 ] final   30.12 input  -65.29 | X-H torsion
[ 10718 10713 10712 10709 ] final -151.97 input   66.30 | X-H torsion
[ 10763 10752 10751 10750 ] final   21.68 input  -60.55 | X-H torsion
[ 11005 11000 10999 10996 ] final  -36.20 input  -57.11 | X-H torsion

> <Gold.Protein.ActiveResidues>
 VAL166  LYS551  ARG553  GLY616  TRP617  ASP618  TYR619  PRO620  LYS621  CYS622 
 ASP623  PHE694  ASN695  SER759  ASP760  ASP761  ALA762  ILE779  LEU786  VAL792 
 PHE793  MET794  SER795  GLU796  ALA797  LYS798  CYS799  TRP800  GLU811  SER814 

> <Gold.Protein.RotatedAtoms>
  151.9087  133.3556  159.3855 H   0  0  0  0  0  0  0  0  0  0  0  0  # atno 6907 bound_to 6896
  150.7063  134.4754  159.5454 H   0  0  0  0  0  0  0  0  0  0  0  0  # atno 6908 bound_to 6896
  152.2356  134.8279  160.0518 H   0  0  0  0  0  0  0  0  0  0  0  0  # atno 6909 bound_to 6896
  146.2421  140.1365  142.8336 H   0  0  0  0  0  0  0  0  0  0  0  0  # atno 7974 bound_to 7965
  154.4356  140.1860  156.1004 H   0  0  0  0  0  0  0  0  0  0  0  0  # atno 8008 bound_to 7997
  156.0296  140.3332  155.7100 H   0  0  0  0  0  0  0  0  0  0  0  0  # atno 8009 bound_to 7997
  155.5858  140.0626  157.2762 H   0  0  0  0  0  0  0  0  0  0  0  0  # atno 8010 bound_to 7997
  140.4706  144.0769  150.6236 H   0  0  0  0  0  0  0  0  0  0  0  0  # atno 10167 bound_to 10162
  156.4663  130.8237  151.2467 H   0  0  0  0  0  0  0  0  0  0  0  0  # atno 10718 bound_to 10713
  153.0976  135.6664  153.9734 H   0  0  0  0  0  0  0  0  0  0  0  0  # atno 10763 bound_to 10752
  153.9314  135.3003  155.3447 H   0  0  0  0  0  0  0  0  0  0  0  0  # atno 10764 bound_to 10752
  154.7395  135.5086  153.9173 H   0  0  0  0  0  0  0  0  0  0  0  0  # atno 10765 bound_to 10752
  140.9856  133.7032  156.1759 H   0  0  0  0  0  0  0  0  0  0  0  0  # atno 11005 bound_to 11000
  145.0282  140.8849  143.5125 LP  0  0  0  0  0  0  0  0  0  0  0  0  # atno 17320 bound_to 7965
  145.1425  139.2564  143.5483 LP  0  0  0  0  0  0  0  0  0  0  0  0  # atno 17321 bound_to 7965
  140.3982  143.2717  151.9979 LP  0  0  0  0  0  0  0  0  0  0  0  0  # atno 17342 bound_to 10162
  139.4818  144.6020  151.7589 LP  0  0  0  0  0  0  0  0  0  0  0  0  # atno 17343 bound_to 10162
  157.7494  131.0091  150.3253 LP  0  0  0  0  0  0  0  0  0  0  0  0  # atno 17370 bound_to 10713
  156.3664  130.3856  149.7210 LP  0  0  0  0  0  0  0  0  0  0  0  0  # atno 17371 bound_to 10713
  140.7120  134.4451  157.5581 LP  0  0  0  0  0  0  0  0  0  0  0  0  # atno 17394 bound_to 11000
  139.8969  134.8649  156.2068 LP  0  0  0  0  0  0  0  0  0  0  0  0  # atno 17395 bound_to 11000

$$$$
