AV-unprocessed.smi:215|AV-procd|sdf|1651|dock1
  -GOLD-   2262020 33D 1   1.00000     0.00000
 Structure written by MMmdl.
 59 62  0  0  0  0  0  0  0  0  2 V2000
  151.0598  137.4502  154.4445 C   0  0  0  0  0  0  0  0  0  0  0  0
  150.4221  136.4045  155.3862 C   0  0  1  0  0  0  0  0  0  0  0  0
  150.3045  135.0022  154.7295 C   0  0  2  0  0  0  0  0  0  0  0  0
  148.9737  134.6819  154.1214 N   0  3  2  0  0  0  0  0  0  0  0  0
  147.8579  135.0032  155.0499 C   0  0  0  0  0  0  0  0  0  0  0  0
  148.8619  133.3031  153.5624 C   0  0  0  0  0  0  0  0  0  0  0  0
  147.4907  132.9905  152.9334 C   0  0  0  0  0  0  0  0  0  0  0  0
  147.4248  131.6329  152.5491 O   0  0  0  0  0  0  0  0  0  0  0  0
  150.6616  134.0462  155.8807 C   0  0  0  0  0  0  0  0  0  0  0  0
  151.6642  134.8264  156.7199 C   0  0  0  0  0  0  0  0  0  0  0  0
  151.2612  136.2124  156.5650 N   0  0  0  0  0  0  0  0  0  0  0  0
  151.4405  137.1247  157.5573 C   0  0  0  0  0  0  0  0  0  0  0  0
  151.7757  136.6567  158.7884 N   0  0  0  0  0  0  0  0  0  0  0  0
  151.9748  137.4981  159.8062 C   0  0  0  0  0  0  0  0  0  0  0  0
  151.8935  138.8286  159.8145 N   0  0  0  0  0  0  0  0  0  0  0  0
  151.5538  139.3108  158.5854 C   0  0  0  0  0  0  0  0  0  0  0  0
  151.3039  138.5387  157.4131 C   0  0  0  0  0  0  0  0  0  0  0  0
  150.9554  139.3885  156.3677 N   0  0  0  0  0  0  0  0  0  0  0  0
  151.0027  140.5839  156.8876 C   0  0  0  0  0  0  0  0  0  0  0  0
  151.3816  140.6313  158.2089 N   0  0  0  0  0  0  0  0  0  0  0  0
  151.4790  141.7983  159.0360 C   0  0  0  0  0  0  0  0  0  0  0  0
  150.4699  142.9463  158.9209 C   0  0  0  0  0  0  0  0  0  0  0  0
  151.5903  143.9493  159.2812 C   0  0  0  0  0  0  0  0  0  0  0  0
  151.5875  145.2898  158.5195 C   0  0  0  0  0  0  0  0  0  0  0  0
  150.4466  146.0745  158.8037 O   0  0  0  0  0  0  0  0  0  0  0  0
  151.6802  144.2798  160.7834 C   0  0  0  0  0  0  0  0  0  0  0  0
  150.5200  144.9457  161.2397 O   0  0  0  0  0  0  0  0  0  0  0  0
  152.5607  142.8527  158.7843 C   0  0  0  0  0  0  0  0  0  0  0  0
  149.4369  136.7252  155.7224 H   0  0  0  0  0  0  0  0  0  0  0  0
  151.0734  134.9101  153.9600 H   0  0  0  0  0  0  0  0  0  0  0  0
  150.4914  137.5897  153.5271 H   0  0  0  0  0  0  0  0  0  0  0  0
  152.0679  137.1508  154.1552 H   0  0  0  0  0  0  0  0  0  0  0  0
  151.1405  138.4266  154.9208 H   0  0  0  0  0  0  0  0  0  0  0  0
  147.8485  134.3182  155.8987 H   0  0  0  0  0  0  0  0  0  0  0  0
  146.8898  134.9488  154.5550 H   0  0  0  0  0  0  0  0  0  0  0  0
  147.9303  136.0176  155.4390 H   0  0  0  0  0  0  0  0  0  0  0  0
  149.5951  133.1511  152.7732 H   0  0  0  0  0  0  0  0  0  0  0  0
  149.0877  132.5784  154.3459 H   0  0  0  0  0  0  0  0  0  0  0  0
  146.7042  133.1713  153.6666 H   0  0  0  0  0  0  0  0  0  0  0  0
  147.2623  133.6316  152.0832 H   0  0  0  0  0  0  0  0  0  0  0  0
  148.1839  131.4283  152.0237 H   0  0  0  0  0  0  0  0  0  0  0  0
  149.7758  133.8369  156.4828 H   0  0  0  0  0  0  0  0  0  0  0  0
  151.0721  133.0944  155.5430 H   0  0  0  0  0  0  0  0  0  0  0  0
  151.6479  134.4955  157.7593 H   0  0  0  0  0  0  0  0  0  0  0  0
  152.6769  134.7048  156.3339 H   0  0  0  0  0  0  0  0  0  0  0  0
  152.2389  137.0400  160.7479 H   0  0  0  0  0  0  0  0  0  0  0  0
  150.7647  141.4683  156.3147 H   0  0  0  0  0  0  0  0  0  0  0  0
  151.5314  141.4331  160.0630 H   0  0  0  0  0  0  0  0  0  0  0  0
  150.0870  143.0611  157.9057 H   0  0  0  0  0  0  0  0  0  0  0  0
  149.6506  142.8974  159.6389 H   0  0  0  0  0  0  0  0  0  0  0  0
  152.4694  145.8800  158.7704 H   0  0  0  0  0  0  0  0  0  0  0  0
  151.6131  145.1287  157.4415 H   0  0  0  0  0  0  0  0  0  0  0  0
  149.7355  145.7802  158.2554 H   0  0  0  0  0  0  0  0  0  0  0  0
  151.8208  143.3751  161.3762 H   0  0  0  0  0  0  0  0  0  0  0  0
  152.5364  144.9195  160.9984 H   0  0  0  0  0  0  0  0  0  0  0  0
  150.6656  145.2280  162.1297 H   0  0  0  0  0  0  0  0  0  0  0  0
  153.4604  142.7231  159.3866 H   0  0  0  0  0  0  0  0  0  0  0  0
  152.8139  142.9388  157.7265 H   0  0  0  0  0  0  0  0  0  0  0  0
  148.8766  135.3031  153.3305 H   0  0  0  0  0  0  0  0  0  0  0  0
  1  2  1  0  0  0  0
  1 31  1  0  0  0  0
  1 32  1  0  0  0  0
  1 33  1  0  0  0  0
  2 29  1  0  0  0  0
  2 11  1  0  0  0  0
  2  3  1  0  0  0  0
  3 30  1  0  0  0  0
  3  4  1  0  0  0  0
  3  9  1  0  0  0  0
  4  5  1  0  0  0  0
  4  6  1  0  0  0  0
  4 59  1  0  0  0  0
  5 34  1  0  0  0  0
  5 35  1  0  0  0  0
  5 36  1  0  0  0  0
  6  7  1  0  0  0  0
  6 37  1  0  0  0  0
  6 38  1  0  0  0  0
  7  8  1  0  0  0  0
  7 39  1  0  0  0  0
  7 40  1  0  0  0  0
  8 41  1  0  0  0  0
  9 10  1  0  0  0  0
  9 42  1  0  0  0  0
  9 43  1  0  0  0  0
 10 11  1  0  0  0  0
 10 44  1  0  0  0  0
 10 45  1  0  0  0  0
 11 12  1  0  0  0  0
 12 17  1  0  0  0  0
 12 13  2  0  0  0  0
 13 14  1  0  0  0  0
 14 15  2  0  0  0  0
 14 46  1  0  0  0  0
 15 16  1  0  0  0  0
 16 20  1  0  0  0  0
 16 17  2  0  0  0  0
 17 18  1  0  0  0  0
 18 19  2  0  0  0  0
 19 20  1  0  0  0  0
 19 47  1  0  0  0  0
 20 21  1  0  0  0  0
 21 28  1  0  0  0  0
 21 22  1  0  0  0  0
 21 48  1  0  0  0  0
 22 23  1  0  0  0  0
 22 49  1  0  0  0  0
 22 50  1  0  0  0  0
 23 24  1  0  0  0  0
 23 26  1  0  0  0  0
 23 28  1  0  0  0  0
 24 25  1  0  0  0  0
 24 51  1  0  0  0  0
 24 52  1  0  0  0  0
 25 53  1  0  0  0  0
 26 27  1  0  0  0  0
 26 54  1  0  0  0  0
 26 55  1  0  0  0  0
 27 56  1  0  0  0  0
 28 57  1  0  0  0  0
 28 58  1  0  0  0  0
M  CHG  1   4   1
M  END
> <s_m_source_file>
AV-unprocessed.smi

> <i_m_source_file_index>
215

> <i_lp_mmshare_version>
43012

> <i_f3d_flags>
0

> <s_epik_input>
W09IXVtDSDJdW0NIMl1OKFtDSDNdKVtDQEBIXShbQ0BIXTFbQ0gzXSlbQ0gyXVtDSDJdTjFjKG5bY0hdbjIpYyhjMjMpbltjSF1uM1tDSF0oW0NIMl00KVtDSDJdQzQoW0NIMl1bT0hdKVtDSDJdW09IXQ==

> <s_epik_cmdline>
J2VwaWtfcHl0aG9uJywgJy1waCcsICc3LjAnLCAnLXRuJywgJzgnLCAnLW1hJywgJzIwMCcsICctbWV0YWxfYmluZGluZycsICctaW1hZScsICc8aW5maWxlLm1hZT4nLCAnLW9tYWUnLCAnPG91dGZpbGUubWFlPic=

> <r_lp_tautomer_probability>
1

> <r_epik_Ionization_Penalty>
0.0036237

> <r_epik_Ionization_Penalty_Charging>
0.0032725

> <r_epik_Ionization_Penalty_Neutral>
0.000351196

> <r_epik_State_Penalty>
-0

> <r_epik_Charging_Adjusted_Penalty>
0.0032725

> <i_epik_Tot_Q>
1

> <i_epik_Tot_abs_Q>
1

> <r_epik_Metal_State_Penalty>
-0

> <b_epik_Metal_Only>
0

> <s_lp_Force_Field>
OPLS_2005

> <r_lp_Energy>
68.3917

> <b_lp_Chiralities_Consistent>
1

> <s_lp_Variant>
AV-unprocessed.smi:215-2

> <Gold.Version>
5.8.1

> <Gold.Id.Protein>
6NUR|6NUR_protein|mol2

> <Gold.PLP.Fitness>
54.3736

> <Gold.PLP.PLP>
-42.0348

> <Gold.PLP.part.hbond>
-7.5200

> <Gold.PLP.part.metal>
0.0000

> <Gold.PLP.part.buried>
1.5413

> <Gold.PLP.part.nonpolar>
-35.6948

> <Gold.PLP.part.repulsive>
0.0057

> <Gold.PLP.ligand.clash>
0.6322

> <Gold.PLP.ligand.torsion>
0.7562

> <Gold.PLP.Chemscore.Hbond>
4.5209

> <Gold.PLP.Chemscore.CHOScore>
0.0000

> <Gold.PLP.Chemscore.Metal>
0.0000

> <Gold.Chemscore.Hbonds>
donor molecule, donor type, donor heavy atom, donor atom, acceptor molecule, acceptor atom, score
      L1  H     4    59       P1  7948  2.00
      L1  H     8    41       P1 10747  1.00
      L1  H    25    53       P1  8029  0.91
      P1  H  6896  6908       L1    13  0.60

> <Gold.PLP.Chemscore.Internal.Correction>
0.9207

> <Gold.Rescore>
     Score         DG    S(hbond)    S(metal)    S(lipo)     H(rot)  DE(clash)    DE(int)     intcor
      8.00     -15.01       2.63        0.00     104.28       4.48       4.88       2.13       ----

> <Gold.Chemscore.Fitness>
7.9964

> <Gold.Chemscore.DG>
-15.0065

> <Gold.Chemscore.ZeroCoef>
-5.4800

> <Gold.Chemscore.Hbond>
2.6320

> <Gold.Chemscore.Metal>
0.0000

> <Gold.Chemscore.Lipo>
104.2814

> <Gold.Chemscore.Internal_Hbond>
0.0000

> <Gold.Chemscore.DEClash>
4.8755

> <Gold.Chemscore.DEInternal>
2.1345

> <Gold.Chemscore.Rot>
4.4787

> <Gold.Chemscore.Internal.Correction>
   9.000000E+99

> <Gold.Chemscore.Hbonds>
donor molecule, donor type, donor heavy atom, donor atom, acceptor molecule, acceptor atom, score
      L1  H     4    59       P1  7948  0.65
      L1  H     8    41       P1 10747  0.92
      L1  H    25    53       P1  8029  0.56
      P1  H  6896  6908       L1    13  0.10

> <Gold.Chemscore.Hbond.Weighted>
-8.7910

> <Gold.Chemscore.Metal.Weighted>
-0.0000

> <Gold.Chemscore.Lipo.Weighted>
-12.2009

> <Gold.Chemscore.Internal_Hbond.Weighted>
0.0000

> <Gold.Chemscore.DEClash.Weighted>
4.8755

> <Gold.Chemscore.DEInternal.Weighted>
2.1345

> <Gold.Chemscore.Rot.Weighted>
11.4655

> <Gold.Chemscore.Internal.Correction.Weighted>
   9.000000E+99

> <Gold.Protein.RotatedTorsions>
[ 6907 6896 6895 6894 ] final -141.62 input  -60.11 | X-H torsion
[ 7974 7965 7964 7962 ] final -157.31 input  175.53 | X-H torsion
[ 8008 7997 7996 7995 ] final   65.48 input   59.86 | X-H torsion
[ 10167 10162 10161 10158 ] final -125.59 input  -65.29 | X-H torsion
[ 10718 10713 10712 10709 ] final -177.39 input   66.30 | X-H torsion
[ 10763 10752 10751 10750 ] final -107.74 input  -60.55 | X-H torsion
[ 11005 11000 10999 10996 ] final  -17.41 input  -57.11 | X-H torsion

> <Gold.Protein.ActiveResidues>
 VAL166  LYS551  ARG553  GLY616  TRP617  ASP618  TYR619  PRO620  LYS621  CYS622 
 ASP623  PHE694  ASN695  SER759  ASP760  ASP761  ALA762  ILE779  LEU786  VAL792 
 PHE793  MET794  SER795  GLU796  ALA797  LYS798  CYS799  TRP800  GLU811  SER814 

> <Gold.Protein.RotatedAtoms>
  151.0762  133.5426  159.2623 H   0  0  0  0  0  0  0  0  0  0  0  0  # atno 6907 bound_to 6896
  151.2347  135.0566  159.9011 H   0  0  0  0  0  0  0  0  0  0  0  0  # atno 6908 bound_to 6896
  152.5418  134.0546  159.8179 H   0  0  0  0  0  0  0  0  0  0  0  0  # atno 6909 bound_to 6896
  144.7554  140.3986  143.6016 H   0  0  0  0  0  0  0  0  0  0  0  0  # atno 7974 bound_to 7965
  155.6624  140.3497  155.4788 H   0  0  0  0  0  0  0  0  0  0  0  0  # atno 8008 bound_to 7997
  155.9757  140.1164  157.0795 H   0  0  0  0  0  0  0  0  0  0  0  0  # atno 8009 bound_to 7997
  154.4178  140.1148  156.5353 H   0  0  0  0  0  0  0  0  0  0  0  0  # atno 8010 bound_to 7997
  139.9805  143.5747  152.2380 H   0  0  0  0  0  0  0  0  0  0  0  0  # atno 10167 bound_to 10162
  156.8287  130.9645  151.3108 H   0  0  0  0  0  0  0  0  0  0  0  0  # atno 10718 bound_to 10713
  154.8093  135.4664  154.0475 H   0  0  0  0  0  0  0  0  0  0  0  0  # atno 10763 bound_to 10752
  153.1918  135.6856  153.8349 H   0  0  0  0  0  0  0  0  0  0  0  0  # atno 10764 bound_to 10752
  153.7864  135.3249  155.3350 H   0  0  0  0  0  0  0  0  0  0  0  0  # atno 10765 bound_to 10752
  140.8165  133.8100  155.9616 H   0  0  0  0  0  0  0  0  0  0  0  0  # atno 11005 bound_to 11000
  145.6799  139.1616  143.2707 LP  0  0  0  0  0  0  0  0  0  0  0  0  # atno 17320 bound_to 7965
  146.1557  140.6861  142.9301 LP  0  0  0  0  0  0  0  0  0  0  0  0  # atno 17321 bound_to 7965
  139.6413  144.7655  151.2333 LP  0  0  0  0  0  0  0  0  0  0  0  0  # atno 17342 bound_to 10162
  140.7490  143.6312  150.8421 LP  0  0  0  0  0  0  0  0  0  0  0  0  # atno 17343 bound_to 10162
  157.6418  130.8812  149.9463 LP  0  0  0  0  0  0  0  0  0  0  0  0  # atno 17370 bound_to 10713
  156.0946  130.3660  150.0330 LP  0  0  0  0  0  0  0  0  0  0  0  0  # atno 17371 bound_to 10713
  140.9143  134.2221  157.4966 LP  0  0  0  0  0  0  0  0  0  0  0  0  # atno 17394 bound_to 11000
  139.8711  134.9764  156.4920 LP  0  0  0  0  0  0  0  0  0  0  0  0  # atno 17395 bound_to 11000

$$$$
