AV-unprocessed.smi:1978|AV-procd|sdf|7995|dock5
  -GOLD-   2272010183D 1   1.00000     0.00000
 Structure written by MMmdl.
 45 46  0  0  0  0  0  0  0  0  2 V2000
  152.3024  138.8973  158.1610 C   0  0  0  0  0  0  0  0  0  0  0  0
  151.7775  138.9053  156.7661 C   0  0  0  0  0  0  0  0  0  0  0  0
  150.6448  138.3955  156.1962 C   0  0  0  0  0  0  0  0  0  0  0  0
  150.7792  138.7651  154.8315 C   0  0  0  0  0  0  0  0  0  0  0  0
  149.7850  138.4186  153.8811 N   0  0  0  0  0  0  0  0  0  0  0  0
  148.5588  138.9527  153.7494 C   0  0  0  0  0  0  0  0  0  0  0  0
  148.1012  139.8589  154.4463 O   0  0  0  0  0  0  0  0  0  0  0  0
  147.8748  138.3695  152.7533 N   0  0  0  0  0  0  0  0  0  0  0  0
  146.5230  138.7306  152.3317 C   0  0  0  0  0  0  0  0  0  0  0  0
  145.4729  137.6528  152.7007 C   0  0  1  0  0  0  0  0  0  0  0  0
  146.0940  136.3093  153.1429 C   0  0  0  0  0  0  0  0  0  0  0  0
  144.4813  138.1812  153.6946 N   0  3  2  0  0  0  0  0  0  0  0  0
  145.1102  138.7765  154.9114 C   0  0  0  0  0  0  0  0  0  0  0  0
  144.0851  139.5484  155.7537 C   0  0  0  0  0  0  0  0  0  0  0  0
  142.9334  138.6302  156.1670 C   0  0  0  0  0  0  0  0  0  0  0  0
  142.3117  137.9918  154.9209 C   0  0  0  0  0  0  0  0  0  0  0  0
  143.3613  137.2503  154.0630 C   0  0  1  0  0  0  0  0  0  0  0  0
  142.6507  136.6171  152.8489 C   0  0  0  0  0  0  0  0  0  0  0  0
  151.8930  139.4393  154.5900 N   0  0  0  0  0  0  0  0  0  0  0  0
  152.5389  139.5317  155.8284 O   0  0  0  0  0  0  0  0  0  0  0  0
  151.4859  138.8657  158.8826 H   0  0  0  0  0  0  0  0  0  0  0  0
  152.8938  139.7913  158.3605 H   0  0  0  0  0  0  0  0  0  0  0  0
  152.9372  138.0273  158.3293 H   0  0  0  0  0  0  0  0  0  0  0  0
  149.8504  137.8475  156.6806 H   0  0  0  0  0  0  0  0  0  0  0  0
  150.0342  137.6838  153.2357 H   0  0  0  0  0  0  0  0  0  0  0  0
  148.3303  137.6317  152.2357 H   0  0  0  0  0  0  0  0  0  0  0  0
  146.2652  139.7057  152.7437 H   0  0  0  0  0  0  0  0  0  0  0  0
  146.5443  138.8598  151.2491 H   0  0  0  0  0  0  0  0  0  0  0  0
  144.9551  137.4674  151.7631 H   0  0  0  0  0  0  0  0  0  0  0  0
  146.6706  135.8566  152.3366 H   0  0  0  0  0  0  0  0  0  0  0  0
  145.3312  135.5834  153.4229 H   0  0  0  0  0  0  0  0  0  0  0  0
  146.7674  136.4337  153.9912 H   0  0  0  0  0  0  0  0  0  0  0  0
  145.5592  137.9903  155.5199 H   0  0  0  0  0  0  0  0  0  0  0  0
  145.9132  139.4616  154.6480 H   0  0  0  0  0  0  0  0  0  0  0  0
  144.5664  139.9628  156.6401 H   0  0  0  0  0  0  0  0  0  0  0  0
  143.7005  140.3956  155.1839 H   0  0  0  0  0  0  0  0  0  0  0  0
  143.3004  137.8529  156.8385 H   0  0  0  0  0  0  0  0  0  0  0  0
  142.1804  139.1927  156.7198 H   0  0  0  0  0  0  0  0  0  0  0  0
  141.5239  137.3028  155.2284 H   0  0  0  0  0  0  0  0  0  0  0  0
  141.8264  138.7645  154.3224 H   0  0  0  0  0  0  0  0  0  0  0  0
  143.7739  136.4407  154.6665 H   0  0  0  0  0  0  0  0  0  0  0  0
  141.7490  136.0881  153.1587 H   0  0  0  0  0  0  0  0  0  0  0  0
  143.2731  135.8774  152.3459 H   0  0  0  0  0  0  0  0  0  0  0  0
  142.3530  137.3719  152.1205 H   0  0  0  0  0  0  0  0  0  0  0  0
  144.0306  138.9496  153.2188 H   0  0  0  0  0  0  0  0  0  0  0  0
  1  2  1  0  0  0  0
  1 21  1  0  0  0  0
  1 22  1  0  0  0  0
  1 23  1  0  0  0  0
  2 20  1  0  0  0  0
  2  3  2  0  0  0  0
  3  4  1  0  0  0  0
  3 24  1  0  0  0  0
  4  5  1  0  0  0  0
  4 19  2  0  0  0  0
  5  6  1  0  0  0  0
  5 25  1  0  0  0  0
  6  7  2  0  0  0  0
  6  8  1  0  0  0  0
  8  9  1  0  0  0  0
  8 26  1  0  0  0  0
  9 10  1  0  0  0  0
  9 27  1  0  0  0  0
  9 28  1  0  0  0  0
 10 11  1  0  0  0  0
 10 12  1  0  0  0  0
 10 29  1  0  0  0  0
 11 30  1  0  0  0  0
 11 31  1  0  0  0  0
 11 32  1  0  0  0  0
 12 17  1  0  0  0  0
 12 13  1  0  0  0  0
 12 45  1  0  0  0  0
 13 14  1  0  0  0  0
 13 33  1  0  0  0  0
 13 34  1  0  0  0  0
 14 15  1  0  0  0  0
 14 35  1  0  0  0  0
 14 36  1  0  0  0  0
 15 16  1  0  0  0  0
 15 37  1  0  0  0  0
 15 38  1  0  0  0  0
 16 17  1  0  0  0  0
 16 39  1  0  0  0  0
 16 40  1  0  0  0  0
 17 18  1  0  0  0  0
 17 41  1  0  0  0  0
 18 42  1  0  0  0  0
 18 43  1  0  0  0  0
 18 44  1  0  0  0  0
 19 20  1  0  0  0  0
M  CHG  1  12   1
M  END
> <s_m_source_file>
AV-unprocessed.smi

> <i_m_source_file_index>
1978

> <i_lp_mmshare_version>
43012

> <i_f3d_flags>
0

> <s_epik_input>
W0NIM11jMVtjSF1jKG5vMSlbTkhdQyg9TylbTkhdW0NIMl1bQ0BIXShbQ0gzXSlOMltDSDJdW0NIMl1bQ0gyXVtDSDJdW0NASF0yW0NIM10=

> <s_epik_cmdline>
J2VwaWtfcHl0aG9uJywgJy1waCcsICc3LjAnLCAnLXRuJywgJzgnLCAnLW1hJywgJzIwMCcsICctbWV0YWxfYmluZGluZycsICctaW1hZScsICc8aW5maWxlLm1hZT4nLCAnLW9tYWUnLCAnPG91dGZpbGUubWFlPic=

> <r_epik_Ionization_Penalty>
0.00265971

> <r_epik_Ionization_Penalty_Charging>
0.00262393

> <r_epik_Ionization_Penalty_Neutral>
3.57846e-05

> <r_epik_State_Penalty>
0.00182566

> <r_epik_Charging_Adjusted_Penalty>
0.00444959

> <i_epik_Tot_Q>
1

> <i_epik_Tot_abs_Q>
1

> <r_epik_Metal_State_Penalty>
0.0216344

> <b_epik_Metal_Only>
0

> <s_lp_Force_Field>
OPLS_2005

> <r_lp_Energy>
21.4618

> <b_lp_Chiralities_Consistent>
1

> <s_lp_Variant>
AV-unprocessed.smi:1978-4

> <Gold.Version>
5.8.1

> <Gold.Id.Protein>
6NUR|6NUR_protein|mol2

> <Gold.PLP.Fitness>
35.7289

> <Gold.PLP.PLP>
-22.8456

> <Gold.PLP.part.hbond>
-6.1168

> <Gold.PLP.part.metal>
0.0000

> <Gold.PLP.part.buried>
-3.1355

> <Gold.PLP.part.nonpolar>
-15.3237

> <Gold.PLP.part.repulsive>
0.2769

> <Gold.PLP.ligand.clash>
0.0000

> <Gold.PLP.ligand.torsion>
1.5255

> <Gold.PLP.Chemscore.Hbond>
5.2723

> <Gold.PLP.Chemscore.CHOScore>
0.0000

> <Gold.PLP.Chemscore.Metal>
0.0000

> <Gold.Chemscore.Hbonds>
donor molecule, donor type, donor heavy atom, donor atom, acceptor molecule, acceptor atom, score
      L1  H     5    25       P1  7948  0.40
      L1  H     8    26       P1  7948  1.00
      L1  H    12    45       P1 10175  2.00
      P1  H  7989  7998       L1    19  0.96
      P1  H  7997  8010       L1    20  1.00

> <Gold.PLP.Chemscore.Internal.Correction>
0.1175

> <Gold.Rescore>
     Score         DG    S(hbond)    S(metal)    S(lipo)     H(rot)  DE(clash)    DE(int)     intcor
     17.79     -19.67       3.98        0.00      41.54       1.55       0.34       1.54       ----

> <Gold.Chemscore.Fitness>
17.7895

> <Gold.Chemscore.DG>
-19.6692

> <Gold.Chemscore.ZeroCoef>
-5.4800

> <Gold.Chemscore.Hbond>
3.9793

> <Gold.Chemscore.Metal>
0.0000

> <Gold.Chemscore.Lipo>
41.5365

> <Gold.Chemscore.Internal_Hbond>
0.0000

> <Gold.Chemscore.DEClash>
0.3381

> <Gold.Chemscore.DEInternal>
1.5416

> <Gold.Chemscore.Rot>
1.5474

> <Gold.Chemscore.Internal.Correction>
   9.000000E+99

> <Gold.Chemscore.Hbonds>
donor molecule, donor type, donor heavy atom, donor atom, acceptor molecule, acceptor atom, score
      L1  H     5    25       P1  7948  0.14
      L1  H     8    26       P1  7948  0.95
      L1  H    12    45       P1 10175  1.00
      P1  H  7989  7998       L1    19  0.81
      P1  H  7997  8010       L1    20  0.98

> <Gold.Chemscore.Hbond.Weighted>
-13.2907

> <Gold.Chemscore.Metal.Weighted>
-0.0000

> <Gold.Chemscore.Lipo.Weighted>
-4.8598

> <Gold.Chemscore.Internal_Hbond.Weighted>
0.0000

> <Gold.Chemscore.DEClash.Weighted>
0.3381

> <Gold.Chemscore.DEInternal.Weighted>
1.5416

> <Gold.Chemscore.Rot.Weighted>
3.9612

> <Gold.Chemscore.Internal.Correction.Weighted>
   9.000000E+99

> <Gold.Protein.RotatedTorsions>
[ 6907 6896 6895 6894 ] final -162.24 input  -60.11 | X-H torsion
[ 7974 7965 7964 7962 ] final -105.48 input  175.53 | X-H torsion
[ 8008 7997 7996 7995 ] final   91.99 input   59.86 | X-H torsion
[ 10167 10162 10161 10158 ] final -155.60 input  -65.29 | X-H torsion
[ 10718 10713 10712 10709 ] final  167.11 input   66.30 | X-H torsion
[ 10763 10752 10751 10750 ] final -168.88 input  -60.55 | X-H torsion
[ 11005 11000 10999 10996 ] final  122.13 input  -57.11 | X-H torsion

> <Gold.Protein.ActiveResidues>
 VAL166  LYS551  ARG553  GLY616  TRP617  ASP618  TYR619  PRO620  LYS621  CYS622 
 ASP623  PHE694  ASN695  SER759  ASP760  ASP761  ALA762  ILE779  LEU786  VAL792 
 PHE793  MET794  SER795  GLU796  ALA797  LYS798  CYS799  TRP800  GLU811  SER814 

> <Gold.Protein.RotatedAtoms>
  151.3771  133.3834  159.2705 H   0  0  0  0  0  0  0  0  0  0  0  0  # atno 6907 bound_to 6896
  150.9606  134.8995  159.7738 H   0  0  0  0  0  0  0  0  0  0  0  0  # atno 6908 bound_to 6896
  152.5148  134.3730  159.9377 H   0  0  0  0  0  0  0  0  0  0  0  0  # atno 6909 bound_to 6896
  145.2299  140.9166  143.3210 H   0  0  0  0  0  0  0  0  0  0  0  0  # atno 7974 bound_to 7965
  156.0302  140.3331  155.7131 H   0  0  0  0  0  0  0  0  0  0  0  0  # atno 8008 bound_to 7997
  155.5896  140.0645  157.2779 H   0  0  0  0  0  0  0  0  0  0  0  0  # atno 8009 bound_to 7997
  154.4350  140.1829  156.1049 H   0  0  0  0  0  0  0  0  0  0  0  0  # atno 8010 bound_to 7997
  139.6918  143.9408  152.2388 H   0  0  0  0  0  0  0  0  0  0  0  0  # atno 10167 bound_to 10162
  157.0562  131.0327  151.2663 H   0  0  0  0  0  0  0  0  0  0  0  0  # atno 10718 bound_to 10713
  154.6582  135.2921  154.9901 H   0  0  0  0  0  0  0  0  0  0  0  0  # atno 10763 bound_to 10752
  154.0970  135.6582  153.4866 H   0  0  0  0  0  0  0  0  0  0  0  0  # atno 10764 bound_to 10752
  153.0414  135.5233  154.7520 H   0  0  0  0  0  0  0  0  0  0  0  0  # atno 10765 bound_to 10752
  139.9255  134.9640  156.8063 H   0  0  0  0  0  0  0  0  0  0  0  0  # atno 11005 bound_to 11000
  144.9686  139.3904  143.6320 LP  0  0  0  0  0  0  0  0  0  0  0  0  # atno 17320 bound_to 7965
  146.3355  139.8773  142.8830 LP  0  0  0  0  0  0  0  0  0  0  0  0  # atno 17321 bound_to 7965
  139.9226  144.6790  150.8445 LP  0  0  0  0  0  0  0  0  0  0  0  0  # atno 17342 bound_to 10162
  140.7685  143.3364  151.2300 LP  0  0  0  0  0  0  0  0  0  0  0  0  # atno 17343 bound_to 10162
  157.4991  130.7869  149.7586 LP  0  0  0  0  0  0  0  0  0  0  0  0  # atno 17370 bound_to 10713
  155.9992  130.3890  150.2672 LP  0  0  0  0  0  0  0  0  0  0  0  0  # atno 17371 bound_to 10713
  140.6349  133.9872  155.7679 LP  0  0  0  0  0  0  0  0  0  0  0  0  # atno 17394 bound_to 11000
  141.0809  134.0063  157.3387 LP  0  0  0  0  0  0  0  0  0  0  0  0  # atno 17395 bound_to 11000

$$$$
