AV-unprocessed.smi:306|AV-procd|sdf|2283|dock3
  -GOLD-   2262022183D 1   1.00000     0.00000
 Structure written by MMmdl.
 46 48  0  0  0  0  0  0  0  0  2 V2000
  148.8053  141.4074  155.4392 C   0  0  0  0  0  0  0  0  0  0  0  0
  150.2475  140.8882  155.4099 C   0  0  0  0  0  0  0  0  0  0  0  0
  150.9831  141.2013  156.6818 C   0  0  0  0  0  0  0  0  0  0  0  0
  151.1957  142.4726  157.2848 C   0  0  0  0  0  0  0  0  0  0  0  0
  151.9260  142.1969  158.4066 C   0  0  0  0  0  0  0  0  0  0  0  0
  152.4572  143.1173  159.4601 C   0  0  0  0  0  0  0  0  0  0  0  0
  152.1465  144.5935  159.1883 C   0  0  0  0  0  0  0  0  0  0  0  0
  152.1185  140.8271  158.4294 N   0  0  0  0  0  0  0  0  0  0  0  0
  152.8193  140.0561  159.3774 C   0  0  0  0  0  0  0  0  0  0  0  0
  153.4600  140.5733  160.4262 N   0  0  0  0  0  0  0  0  0  0  0  0
  153.9804  139.4452  161.0447 C   0  0  0  0  0  0  0  0  0  0  0  0
  153.6456  138.3100  160.3715 C   0  0  0  0  0  0  0  0  0  0  0  0
  154.0476  136.9511  160.7970 C   0  0  0  0  0  0  0  0  0  0  0  0
  153.7070  135.9571  160.1592 O   0  0  0  0  0  0  0  0  0  0  0  0
  154.8087  136.9714  161.9369 N   0  5  0  0  0  0  0  0  0  0  0  0
  155.1766  138.0946  162.6463 C   0  0  0  0  0  0  0  0  0  0  0  0
  155.8689  138.0235  163.6626 O   0  0  0  0  0  0  0  0  0  0  0  0
  154.7700  139.3324  162.2214 N   0  0  0  0  0  0  0  0  0  0  0  0
  155.1451  140.5434  162.9571 C   0  0  0  0  0  0  0  0  0  0  0  0
  152.8819  138.7061  159.2694 N   0  0  0  0  0  0  0  0  0  0  0  0
  152.2704  137.8788  158.2323 C   0  0  0  0  0  0  0  0  0  0  0  0
  150.7486  137.7635  158.4034 C   0  0  0  0  0  0  0  0  0  0  0  0
  150.4425  136.9149  159.4972 O   0  0  0  0  0  0  0  0  0  0  0  0
  149.0562  136.8712  159.7818 C   0  0  0  0  0  0  0  0  0  0  0  0
  151.5320  140.2192  157.3776 N   0  0  0  0  0  0  0  0  0  0  0  0
  148.2864  141.1655  154.5116 H   0  0  0  0  0  0  0  0  0  0  0  0
  148.7780  142.4904  155.5632 H   0  0  0  0  0  0  0  0  0  0  0  0
  148.2442  140.9620  156.2611 H   0  0  0  0  0  0  0  0  0  0  0  0
  150.2393  139.8108  155.2430 H   0  0  0  0  0  0  0  0  0  0  0  0
  150.7732  141.3210  154.5581 H   0  0  0  0  0  0  0  0  0  0  0  0
  150.8632  143.4417  156.9439 H   0  0  0  0  0  0  0  0  0  0  0  0
  152.0542  142.8363  160.4335 H   0  0  0  0  0  0  0  0  0  0  0  0
  153.5373  142.9890  159.5371 H   0  0  0  0  0  0  0  0  0  0  0  0
  152.5614  145.2278  159.9717 H   0  0  0  0  0  0  0  0  0  0  0  0
  151.0721  144.7733  159.1510 H   0  0  0  0  0  0  0  0  0  0  0  0
  152.5727  144.9152  158.2377 H   0  0  0  0  0  0  0  0  0  0  0  0
  154.8087  140.4830  163.9932 H   0  0  0  0  0  0  0  0  0  0  0  0
  154.7120  141.4474  162.5296 H   0  0  0  0  0  0  0  0  0  0  0  0
  156.2287  140.6675  162.9571 H   0  0  0  0  0  0  0  0  0  0  0  0
  152.4979  138.3051  157.2555 H   0  0  0  0  0  0  0  0  0  0  0  0
  152.7328  136.8939  158.2278 H   0  0  0  0  0  0  0  0  0  0  0  0
  150.3175  138.7514  158.5703 H   0  0  0  0  0  0  0  0  0  0  0  0
  150.3050  137.3679  157.4888 H   0  0  0  0  0  0  0  0  0  0  0  0
  148.8771  136.2032  160.6243 H   0  0  0  0  0  0  0  0  0  0  0  0
  148.4894  136.4970  158.9284 H   0  0  0  0  0  0  0  0  0  0  0  0
  148.6783  137.8589  160.0486 H   0  0  0  0  0  0  0  0  0  0  0  0
  1  2  1  0  0  0  0
  1 26  1  0  0  0  0
  1 27  1  0  0  0  0
  1 28  1  0  0  0  0
  2  3  1  0  0  0  0
  2 29  1  0  0  0  0
  2 30  1  0  0  0  0
  3 25  2  0  0  0  0
  3  4  1  0  0  0  0
  4  5  2  0  0  0  0
  4 31  1  0  0  0  0
  5  6  1  0  0  0  0
  5  8  1  0  0  0  0
  6  7  1  0  0  0  0
  6 32  1  0  0  0  0
  6 33  1  0  0  0  0
  7 34  1  0  0  0  0
  7 35  1  0  0  0  0
  7 36  1  0  0  0  0
  8  9  1  0  0  0  0
  8 25  1  0  0  0  0
  9 20  1  0  0  0  0
  9 10  2  0  0  0  0
 10 11  1  0  0  0  0
 11 18  1  0  0  0  0
 11 12  2  0  0  0  0
 12 13  1  0  0  0  0
 12 20  1  0  0  0  0
 13 14  2  0  0  0  0
 13 15  1  0  0  0  0
 15 16  1  0  0  0  0
 16 17  2  0  0  0  0
 16 18  1  0  0  0  0
 18 19  1  0  0  0  0
 19 37  1  0  0  0  0
 19 38  1  0  0  0  0
 19 39  1  0  0  0  0
 20 21  1  0  0  0  0
 21 22  1  0  0  0  0
 21 40  1  0  0  0  0
 21 41  1  0  0  0  0
 22 23  1  0  0  0  0
 22 42  1  0  0  0  0
 22 43  1  0  0  0  0
 23 24  1  0  0  0  0
 24 44  1  0  0  0  0
 24 45  1  0  0  0  0
 24 46  1  0  0  0  0
M  CHG  1  15  -1
M  END
> <s_m_source_file>
AV-unprocessed.smi

> <i_m_source_file_index>
306

> <i_lp_mmshare_version>
43012

> <i_f3d_flags>
0

> <s_epik_input>
W0NIM11bQ0gyXWMxW2NIXWMoW0NIMl1bQ0gzXSluKG4xKS1jKG4yKW4oW0NIMl1bQ0gyXU9bQ0gzXSljKGMyMyljKD1PKVtuSF1jKD1PKW4zW0NIM10=

> <s_epik_cmdline>
J2VwaWtfcHl0aG9uJywgJy1waCcsICc3LjAnLCAnLXRuJywgJzgnLCAnLW1hJywgJzIwMCcsICctbWV0YWxfYmluZGluZycsICctaW1hZScsICc8aW5maWxlLm1hZT4nLCAnLW9tYWUnLCAnPG91dGZpbGUubWFlPic=

> <r_lp_tautomer_probability>
1

> <r_epik_Ionization_Penalty>
3.98741

> <r_epik_Ionization_Penalty_Charging>
0.0180637

> <r_epik_Ionization_Penalty_Neutral>
3.96934

> <r_epik_State_Penalty>
3.96767

> <r_epik_Charging_Adjusted_Penalty>
3.98573

> <i_epik_Tot_Q>
-1

> <i_epik_Tot_abs_Q>
1

> <r_epik_Metal_State_Penalty>
0.612217

> <b_epik_Metal_Only>
1

> <s_lp_Force_Field>
OPLS_2005

> <r_lp_Energy>
26.8748

> <b_lp_Chiralities_Consistent>
1

> <s_lp_Variant>
AV-unprocessed.smi:306-2

> <Gold.Version>
5.8.1

> <Gold.Id.Protein>
6NUR|6NUR_protein|mol2

> <Gold.PLP.Fitness>
43.1505

> <Gold.PLP.PLP>
-41.9606

> <Gold.PLP.part.hbond>
-2.0000

> <Gold.PLP.part.metal>
0.0000

> <Gold.PLP.part.buried>
-4.5342

> <Gold.PLP.part.nonpolar>
-34.9692

> <Gold.PLP.part.repulsive>
0.0022

> <Gold.PLP.ligand.clash>
5.3521

> <Gold.PLP.ligand.torsion>
0.2393

> <Gold.PLP.Chemscore.Hbond>
1.9920

> <Gold.PLP.Chemscore.CHOScore>
0.0000

> <Gold.PLP.Chemscore.Metal>
0.0000

> <Gold.Chemscore.Hbonds>
donor molecule, donor type, donor heavy atom, donor atom, acceptor molecule, acceptor atom, score
      P1  H  6896  6907       L1    14  0.96
      P1  H  6896  6909       L1    23  0.88

> <Gold.PLP.Chemscore.Internal.Correction>
1.0446

> <Gold.Rescore>
     Score         DG    S(hbond)    S(metal)    S(lipo)     H(rot)  DE(clash)    DE(int)     intcor
     11.36     -16.06       1.57        0.00      85.19       1.81       0.00       4.69       ----

> <Gold.Chemscore.Fitness>
11.3637

> <Gold.Chemscore.DG>
-16.0567

> <Gold.Chemscore.ZeroCoef>
-5.4800

> <Gold.Chemscore.Hbond>
1.5724

> <Gold.Chemscore.Metal>
0.0000

> <Gold.Chemscore.Lipo>
85.1934

> <Gold.Chemscore.Internal_Hbond>
0.0000

> <Gold.Chemscore.DEClash>
0.0009

> <Gold.Chemscore.DEInternal>
4.6922

> <Gold.Chemscore.Rot>
1.8136

> <Gold.Chemscore.Internal.Correction>
   9.000000E+99

> <Gold.Chemscore.Hbonds>
donor molecule, donor type, donor heavy atom, donor atom, acceptor molecule, acceptor atom, score
      P1  H  6896  6907       L1    14  0.92
      P1  H  6896  6909       L1    23  0.18

> <Gold.Chemscore.Hbond.Weighted>
-5.2518

> <Gold.Chemscore.Metal.Weighted>
-0.0000

> <Gold.Chemscore.Lipo.Weighted>
-9.9676

> <Gold.Chemscore.Internal_Hbond.Weighted>
0.0000

> <Gold.Chemscore.DEClash.Weighted>
0.0009

> <Gold.Chemscore.DEInternal.Weighted>
4.6922

> <Gold.Chemscore.Rot.Weighted>
4.6427

> <Gold.Chemscore.Internal.Correction.Weighted>
   9.000000E+99

> <Gold.Protein.RotatedTorsions>
[ 6907 6896 6895 6894 ] final   73.21 input  -60.11 | X-H torsion
[ 7974 7965 7964 7962 ] final -143.46 input  175.53 | X-H torsion
[ 8008 7997 7996 7995 ] final -104.25 input   59.86 | X-H torsion
[ 10167 10162 10161 10158 ] final   29.47 input  -65.29 | X-H torsion
[ 10718 10713 10712 10709 ] final   -4.27 input   66.30 | X-H torsion
[ 10763 10752 10751 10750 ] final -141.89 input  -60.55 | X-H torsion
[ 11005 11000 10999 10996 ] final -131.99 input  -57.11 | X-H torsion

> <Gold.Protein.ActiveResidues>
 VAL166  LYS551  ARG553  GLY616  TRP617  ASP618  TYR619  PRO620  LYS621  CYS622 
 ASP623  PHE694  ASN695  SER759  ASP760  ASP761  ALA762  ILE779  LEU786  VAL792 
 PHE793  MET794  SER795  GLU796  ALA797  LYS798  CYS799  TRP800  GLU811  SER814 

> <Gold.Protein.RotatedAtoms>
  152.4910  134.4456  159.9557 H   0  0  0  0  0  0  0  0  0  0  0  0  # atno 6907 bound_to 6896
  151.4443  133.3628  159.2794 H   0  0  0  0  0  0  0  0  0  0  0  0  # atno 6908 bound_to 6896
  150.9065  134.8504  159.7456 H   0  0  0  0  0  0  0  0  0  0  0  0  # atno 6909 bound_to 6896
  144.8368  140.5831  143.5479 H   0  0  0  0  0  0  0  0  0  0  0  0  # atno 7974 bound_to 7965
  154.8826  140.0418  157.1791 H   0  0  0  0  0  0  0  0  0  0  0  0  # atno 8008 bound_to 7997
  154.8623  140.2946  155.5510 H   0  0  0  0  0  0  0  0  0  0  0  0  # atno 8009 bound_to 7997
  156.2998  140.2444  156.3599 H   0  0  0  0  0  0  0  0  0  0  0  0  # atno 8010 bound_to 7997
  140.4762  144.0686  150.6251 H   0  0  0  0  0  0  0  0  0  0  0  0  # atno 10167 bound_to 10162
  156.7637  130.5278  149.5780 H   0  0  0  0  0  0  0  0  0  0  0  0  # atno 10718 bound_to 10713
  154.8529  135.3511  154.5940 H   0  0  0  0  0  0  0  0  0  0  0  0  # atno 10763 bound_to 10752
  153.6549  135.6992  153.5201 H   0  0  0  0  0  0  0  0  0  0  0  0  # atno 10764 bound_to 10752
  153.2864  135.4248  155.1084 H   0  0  0  0  0  0  0  0  0  0  0  0  # atno 10765 bound_to 10752
  140.9210  134.1444  157.4314 H   0  0  0  0  0  0  0  0  0  0  0  0  # atno 11005 bound_to 11000
  145.4779  139.1498  143.3778 LP  0  0  0  0  0  0  0  0  0  0  0  0  # atno 17320 bound_to 7965
  146.2665  140.4914  142.8832 LP  0  0  0  0  0  0  0  0  0  0  0  0  # atno 17321 bound_to 7965
  140.3915  143.2750  152.0055 LP  0  0  0  0  0  0  0  0  0  0  0  0  # atno 17342 bound_to 10162
  139.4826  144.6073  151.7497 LP  0  0  0  0  0  0  0  0  0  0  0  0  # atno 17343 bound_to 10162
  156.1322  130.6186  151.0350 LP  0  0  0  0  0  0  0  0  0  0  0  0  # atno 17370 bound_to 10713
  157.6723  131.0858  150.7582 LP  0  0  0  0  0  0  0  0  0  0  0  0  # atno 17371 bound_to 10713
  139.8775  134.9971  156.5830 LP  0  0  0  0  0  0  0  0  0  0  0  0  # atno 17394 bound_to 11000
  140.7988  133.8522  155.8708 LP  0  0  0  0  0  0  0  0  0  0  0  0  # atno 17395 bound_to 11000

$$$$
