AV-unprocessed.smi:964|AV-procd|sdf|4278|dock4
  -GOLD-   22720 2183D 1   1.00000     0.00000
 Structure written by MMmdl.
 20 20  0  0  0  0  0  0  0  0  2 V2000
  147.7480  132.6827  153.1385 C   0  0  0  0  0  0  0  0  0  0  0  0
  146.8189  132.6067  151.9745 C   0  0  0  0  0  0  0  0  0  0  0  0
  145.4974  132.7334  152.0353 N   0  0  0  0  0  0  0  0  0  0  0  0
  145.1793  132.5745  150.7153 C   0  0  0  0  0  0  0  0  0  0  0  0
  143.7793  132.6741  150.2072 C   0  0  0  0  0  0  0  0  0  0  0  0
  143.7206  132.6346  148.6740 C   0  0  0  0  0  0  0  0  0  0  0  0
  142.3306  132.6201  148.1886 N   0  3  0  0  0  0  0  0  0  0  0  0
  146.2037  132.3885  149.8842 N   0  0  0  0  0  0  0  0  0  0  0  0
  147.2557  132.4028  150.7301 N   0  0  0  0  0  0  0  0  0  0  0  0
  148.2113  132.2806  150.4256 H   0  0  0  0  0  0  0  0  0  0  0  0
  147.1927  132.8629  154.0595 H   0  0  0  0  0  0  0  0  0  0  0  0
  148.4605  133.4956  152.9969 H   0  0  0  0  0  0  0  0  0  0  0  0
  148.2979  131.7469  153.2406 H   0  0  0  0  0  0  0  0  0  0  0  0
  143.1881  131.8594  150.6287 H   0  0  0  0  0  0  0  0  0  0  0  0
  143.3368  133.6005  150.5759 H   0  0  0  0  0  0  0  0  0  0  0  0
  144.2284  133.5031  148.2531 H   0  0  0  0  0  0  0  0  0  0  0  0
  144.2322  131.7483  148.2978 H   0  0  0  0  0  0  0  0  0  0  0  0
  142.3152  132.8512  147.2053 H   0  0  0  0  0  0  0  0  0  0  0  0
  141.7874  133.2997  148.7017 H   0  0  0  0  0  0  0  0  0  0  0  0
  141.9351  131.7005  148.3238 H   0  0  0  0  0  0  0  0  0  0  0  0
  1  2  1  0  0  0  0
  1 11  1  0  0  0  0
  1 12  1  0  0  0  0
  1 13  1  0  0  0  0
  2  9  1  0  0  0  0
  2  3  2  0  0  0  0
  3  4  1  0  0  0  0
  4  5  1  0  0  0  0
  4  8  2  0  0  0  0
  5  6  1  0  0  0  0
  5 14  1  0  0  0  0
  5 15  1  0  0  0  0
  6  7  1  0  0  0  0
  6 16  1  0  0  0  0
  6 17  1  0  0  0  0
  7 18  1  0  0  0  0
  7 19  1  0  0  0  0
  7 20  1  0  0  0  0
  8  9  1  0  0  0  0
  9 10  1  0  0  0  0
M  CHG  1   7   1
M  END
> <s_m_source_file>
AV-unprocessed.smi

> <i_m_source_file_index>
964

> <i_lp_mmshare_version>
43012

> <i_f3d_flags>
0

> <s_epik_input>
W0NIM11jMW5jKG5bbkhdMSlbQ0gyXVtDSDJdW05IMl0=

> <s_epik_cmdline>
J2VwaWtfcHl0aG9uJywgJy1waCcsICc3LjAnLCAnLXRuJywgJzgnLCAnLW1hJywgJzIwMCcsICctbWV0YWxfYmluZGluZycsICctaW1hZScsICc8aW5maWxlLm1hZT4nLCAnLW9tYWUnLCAnPG91dGZpbGUubWFlPic=

> <r_epik_Ionization_Penalty>
0.0060057

> <r_epik_Ionization_Penalty_Charging>
0.00364136

> <r_epik_Ionization_Penalty_Neutral>
0.00236434

> <r_epik_State_Penalty>
0.456751

> <r_epik_Charging_Adjusted_Penalty>
0.460392

> <i_epik_Tot_Q>
1

> <i_epik_Tot_abs_Q>
1

> <r_epik_Metal_State_Penalty>
0.65723

> <b_epik_Metal_Only>
0

> <s_lp_Force_Field>
OPLS_2005

> <r_lp_Energy>
-1.07655

> <b_lp_Chiralities_Consistent>
1

> <s_lp_Variant>
AV-unprocessed.smi:964-2

> <Gold.Version>
5.8.1

> <Gold.Id.Protein>
6NUR|6NUR_protein|mol2

> <Gold.PLP.Fitness>
34.7339

> <Gold.PLP.PLP>
-20.6973

> <Gold.PLP.part.hbond>
-3.4736

> <Gold.PLP.part.metal>
0.0000

> <Gold.PLP.part.buried>
-5.0400

> <Gold.PLP.part.nonpolar>
-13.7953

> <Gold.PLP.part.repulsive>
0.5870

> <Gold.PLP.ligand.clash>
0.0000

> <Gold.PLP.ligand.torsion>
0.0407

> <Gold.PLP.Chemscore.Hbond>
4.7040

> <Gold.PLP.Chemscore.CHOScore>
0.0000

> <Gold.PLP.Chemscore.Metal>
0.0000

> <Gold.Chemscore.Hbonds>
donor molecule, donor type, donor heavy atom, donor atom, acceptor molecule, acceptor atom, score
      L1  H     7    18       P1 10195  1.00
      L1  H     7    19       P1 10186  2.00
      L1  H     7    20       P1 10952  0.75
      L1  H     9    10       P1 10747  0.54

> <Gold.PLP.Chemscore.Internal.Correction>
0.0059

> <Gold.Rescore>
     Score         DG    S(hbond)    S(metal)    S(lipo)     H(rot)  DE(clash)    DE(int)     intcor
     17.81     -17.89       3.83        0.00      29.76       1.51       0.07       0.02       ----

> <Gold.Chemscore.Fitness>
17.8082

> <Gold.Chemscore.DG>
-17.8915

> <Gold.Chemscore.ZeroCoef>
-5.4800

> <Gold.Chemscore.Hbond>
3.8296

> <Gold.Chemscore.Metal>
0.0000

> <Gold.Chemscore.Lipo>
29.7584

> <Gold.Chemscore.Internal_Hbond>
0.0000

> <Gold.Chemscore.DEClash>
0.0679

> <Gold.Chemscore.DEInternal>
0.0154

> <Gold.Chemscore.Rot>
1.5082

> <Gold.Chemscore.Internal.Correction>
   9.000000E+99

> <Gold.Chemscore.Hbonds>
donor molecule, donor type, donor heavy atom, donor atom, acceptor molecule, acceptor atom, score
      L1  H     7    18       P1 10195  1.00
      L1  H     7    19       P1 10186  0.98
      L1  H     7    20       P1 10952  0.70
      L1  H     9    10       P1 10747  0.53

> <Gold.Chemscore.Hbond.Weighted>
-12.7909

> <Gold.Chemscore.Metal.Weighted>
-0.0000

> <Gold.Chemscore.Lipo.Weighted>
-3.4817

> <Gold.Chemscore.Internal_Hbond.Weighted>
0.0000

> <Gold.Chemscore.DEClash.Weighted>
0.0679

> <Gold.Chemscore.DEInternal.Weighted>
0.0154

> <Gold.Chemscore.Rot.Weighted>
3.8611

> <Gold.Chemscore.Internal.Correction.Weighted>
   9.000000E+99

> <Gold.Protein.RotatedTorsions>
[ 6907 6896 6895 6894 ] final -147.53 input  -60.11 | X-H torsion
[ 7974 7965 7964 7962 ] final  -84.41 input  175.53 | X-H torsion
[ 8008 7997 7996 7995 ] final  -78.02 input   59.86 | X-H torsion
[ 10167 10162 10161 10158 ] final   80.07 input  -65.29 | X-H torsion
[ 10718 10713 10712 10709 ] final    0.23 input   66.30 | X-H torsion
[ 10763 10752 10751 10750 ] final  -35.10 input  -60.55 | X-H torsion
[ 11005 11000 10999 10996 ] final  -63.91 input  -57.11 | X-H torsion

> <Gold.Protein.ActiveResidues>
 VAL166  LYS551  ARG553  GLY616  TRP617  ASP618  TYR619  PRO620  LYS621  CYS622 
 ASP623  PHE694  ASN695  SER759  ASP760  ASP761  ALA762  ILE779  LEU786  VAL792 
 PHE793  MET794  SER795  GLU796  ALA797  LYS798  CYS799  TRP800  GLU811  SER814 

> <Gold.Protein.RotatedAtoms>
  151.1570  133.4870  159.2594 H   0  0  0  0  0  0  0  0  0  0  0  0  # atno 6907 bound_to 6896
  151.1494  135.0219  159.8671 H   0  0  0  0  0  0  0  0  0  0  0  0  # atno 6908 bound_to 6896
  152.5463  134.1456  159.8550 H   0  0  0  0  0  0  0  0  0  0  0  0  # atno 6909 bound_to 6896
  145.5070  140.9543  143.1728 H   0  0  0  0  0  0  0  0  0  0  0  0  # atno 7974 bound_to 7965
  154.5650  140.0701  156.8878 H   0  0  0  0  0  0  0  0  0  0  0  0  # atno 8008 bound_to 7997
  155.2740  140.3367  155.4245 H   0  0  0  0  0  0  0  0  0  0  0  0  # atno 8009 bound_to 7997
  156.2073  140.1745  156.7757 H   0  0  0  0  0  0  0  0  0  0  0  0  # atno 8010 bound_to 7997
  139.9536  144.6009  150.8137 H   0  0  0  0  0  0  0  0  0  0  0  0  # atno 10167 bound_to 10162
  156.8303  130.5486  149.5687 H   0  0  0  0  0  0  0  0  0  0  0  0  # atno 10718 bound_to 10713
  153.8576  135.6843  153.4786 H   0  0  0  0  0  0  0  0  0  0  0  0  # atno 10763 bound_to 10752
  153.1361  135.4677  154.9422 H   0  0  0  0  0  0  0  0  0  0  0  0  # atno 10764 bound_to 10752
  154.7774  135.3257  154.8013 H   0  0  0  0  0  0  0  0  0  0  0  0  # atno 10765 bound_to 10752
  141.1408  133.6658  156.5753 H   0  0  0  0  0  0  0  0  0  0  0  0  # atno 11005 bound_to 11000
  144.7748  139.6654  143.7179 LP  0  0  0  0  0  0  0  0  0  0  0  0  # atno 17320 bound_to 7965
  146.2190  139.5601  142.9631 LP  0  0  0  0  0  0  0  0  0  0  0  0  # atno 17321 bound_to 7965
  140.7575  143.3088  151.2896 LP  0  0  0  0  0  0  0  0  0  0  0  0  # atno 17342 bound_to 10162
  139.6609  144.0191  152.2691 LP  0  0  0  0  0  0  0  0  0  0  0  0  # atno 17343 bound_to 10162
  156.0938  130.5916  150.9778 LP  0  0  0  0  0  0  0  0  0  0  0  0  # atno 17370 bound_to 10713
  157.6410  131.0910  150.8251 LP  0  0  0  0  0  0  0  0  0  0  0  0  # atno 17371 bound_to 10713
  140.3880  134.7465  157.4704 LP  0  0  0  0  0  0  0  0  0  0  0  0  # atno 17394 bound_to 11000
  140.0587  134.6026  155.8774 LP  0  0  0  0  0  0  0  0  0  0  0  0  # atno 17395 bound_to 11000

$$$$
