AV-unprocessed.smi:952|AV-procd|sdf|4256|dock3
  -GOLD-   22720 2163D 1   1.00000     0.00000
 Structure written by MMmdl.
 35 35  0  0  0  0  0  0  0  0  1 V2000
  149.7164  130.8742  148.8483 C   0  0  0  0  0  0  0  0  0  0  0  0
  150.4497  132.1587  149.2483 C   0  0  0  0  0  0  0  0  0  0  0  0
  150.0262  132.6687  150.6354 C   0  0  0  0  0  0  0  0  0  0  0  0
  150.6913  133.9221  150.9714 N   0  0  0  0  0  0  0  0  0  0  0  0
  151.9840  134.0421  151.3101 C   0  0  0  0  0  0  0  0  0  0  0  0
  152.7528  133.0827  151.3903 O   0  0  0  0  0  0  0  0  0  0  0  0
  152.4678  135.4634  151.6236 C   0  0  0  0  0  0  0  0  0  0  0  0
  151.6278  136.1493  152.6020 N   0  0  0  0  0  0  0  0  0  0  0  0
  152.0768  136.9398  153.5905 C   0  0  0  0  0  0  0  0  0  0  0  0
  153.2718  137.1804  153.7685 O   0  0  0  0  0  0  0  0  0  0  0  0
  151.0068  137.5487  154.5101 C   0  0  1  0  0  0  0  0  0  0  0  0
  151.3606  137.4225  156.0033 C   0  0  0  0  0  0  0  0  0  0  0  0
  150.7573  138.9379  154.1479 N   0  0  0  0  0  0  0  0  0  0  0  0
  150.2877  139.4527  152.9547 C   0  0  0  0  0  0  0  0  0  0  0  0
  150.2229  140.8096  153.0915 C   0  0  0  0  0  0  0  0  0  0  0  0
  150.6819  141.0370  154.4185 C   0  0  0  0  0  0  0  0  0  0  0  0
  151.0022  139.9173  155.0466 N   0  0  0  0  0  0  0  0  0  0  0  0
  150.0292  130.5410  147.8585 H   0  0  0  0  0  0  0  0  0  0  0  0
  148.6371  131.0278  148.8226 H   0  0  0  0  0  0  0  0  0  0  0  0
  149.9246  130.0676  149.5520 H   0  0  0  0  0  0  0  0  0  0  0  0
  151.5243  131.9736  149.2328 H   0  0  0  0  0  0  0  0  0  0  0  0
  150.2588  132.9292  148.5003 H   0  0  0  0  0  0  0  0  0  0  0  0
  148.9498  132.8423  150.6540 H   0  0  0  0  0  0  0  0  0  0  0  0
  150.2323  131.9173  151.3997 H   0  0  0  0  0  0  0  0  0  0  0  0
  150.1301  134.7608  150.9351 H   0  0  0  0  0  0  0  0  0  0  0  0
  153.5026  135.4406  151.9707 H   0  0  0  0  0  0  0  0  0  0  0  0
  152.4603  136.0426  150.7002 H   0  0  0  0  0  0  0  0  0  0  0  0
  150.6313  136.0033  152.5289 H   0  0  0  0  0  0  0  0  0  0  0  0
  150.0858  136.9847  154.3472 H   0  0  0  0  0  0  0  0  0  0  0  0
  151.5390  136.3829  156.2806 H   0  0  0  0  0  0  0  0  0  0  0  0
  150.5456  137.7909  156.6267 H   0  0  0  0  0  0  0  0  0  0  0  0
  152.2541  137.9938  156.2584 H   0  0  0  0  0  0  0  0  0  0  0  0
  150.0406  138.8166  152.1176 H   0  0  0  0  0  0  0  0  0  0  0  0
  149.8982  141.5298  152.3554 H   0  0  0  0  0  0  0  0  0  0  0  0
  150.7919  141.9762  154.9405 H   0  0  0  0  0  0  0  0  0  0  0  0
  1  2  1  0  0  0  0
  1 18  1  0  0  0  0
  1 19  1  0  0  0  0
  1 20  1  0  0  0  0
  2  3  1  0  0  0  0
  2 21  1  0  0  0  0
  2 22  1  0  0  0  0
  3  4  1  0  0  0  0
  3 23  1  0  0  0  0
  3 24  1  0  0  0  0
  4  5  1  0  0  0  0
  4 25  1  0  0  0  0
  5  6  2  0  0  0  0
  5  7  1  0  0  0  0
  7  8  1  0  0  0  0
  7 26  1  0  0  0  0
  7 27  1  0  0  0  0
  8  9  1  0  0  0  0
  8 28  1  0  0  0  0
  9 10  2  0  0  0  0
  9 11  1  0  0  0  0
 11 12  1  0  0  0  0
 11 13  1  0  0  0  0
 11 29  1  0  0  0  0
 12 30  1  0  0  0  0
 12 31  1  0  0  0  0
 12 32  1  0  0  0  0
 13 17  1  0  0  0  0
 13 14  1  0  0  0  0
 14 15  2  0  0  0  0
 14 33  1  0  0  0  0
 15 16  1  0  0  0  0
 15 34  1  0  0  0  0
 16 17  2  0  0  0  0
 16 35  1  0  0  0  0
M  END
> <s_m_source_file>
AV-unprocessed.smi

> <i_m_source_file_index>
952

> <i_lp_mmshare_version>
43012

> <i_f3d_flags>
0

> <s_epik_input>
W0NIM11bQ0gyXVtDSDJdW05IXUMoPU8pW0NIMl1bTkhdQyg9TylbQ0BIXShbQ0gzXSluMVtjSF1bY0hdW2NIXW4x

> <s_epik_cmdline>
J2VwaWtfcHl0aG9uJywgJy1waCcsICc3LjAnLCAnLXRuJywgJzgnLCAnLW1hJywgJzIwMCcsICctbWV0YWxfYmluZGluZycsICctaW1hZScsICc8aW5maWxlLm1hZT4nLCAnLW9tYWUnLCAnPG91dGZpbGUubWFlPic=

> <r_lp_tautomer_probability>
1

> <r_epik_Ionization_Penalty>
2.62173e-05

> <r_epik_Ionization_Penalty_Charging>
0

> <r_epik_Ionization_Penalty_Neutral>
2.62173e-05

> <r_epik_State_Penalty>
-0

> <r_epik_Charging_Adjusted_Penalty>
0

> <i_epik_Tot_Q>
0

> <i_epik_Tot_abs_Q>
0

> <r_epik_Metal_State_Penalty>
-0

> <b_epik_Metal_Only>
0

> <s_lp_Force_Field>
OPLS_2005

> <r_lp_Energy>
2.421

> <b_lp_Chiralities_Consistent>
1

> <s_lp_Variant>
AV-unprocessed.smi:952-2

> <Gold.Version>
5.8.1

> <Gold.Id.Protein>
6NUR|6NUR_protein|mol2

> <Gold.PLP.Fitness>
39.1880

> <Gold.PLP.PLP>
-29.2629

> <Gold.PLP.part.hbond>
-3.0000

> <Gold.PLP.part.metal>
0.0000

> <Gold.PLP.part.buried>
-1.3651

> <Gold.PLP.part.nonpolar>
-25.4700

> <Gold.PLP.part.repulsive>
0.1192

> <Gold.PLP.ligand.clash>
0.0000

> <Gold.PLP.ligand.torsion>
0.7446

> <Gold.PLP.Chemscore.Hbond>
2.7145

> <Gold.PLP.Chemscore.CHOScore>
1.0540

> <Gold.PLP.Chemscore.Metal>
0.0000

> <Gold.Chemscore.Hbonds>
donor molecule, donor type, donor heavy atom, donor atom, acceptor molecule, acceptor atom, score
      P1  H 10752 10763       L1    10  0.06
      L1  C    14    33       P1  7948  0.36

> <Gold.PLP.Chemscore.Internal.Correction>
0.1088

> <Gold.Rescore>
     Score         DG    S(hbond)    S(metal)    S(lipo)     H(rot)  DE(clash)    DE(int)     intcor
     12.51     -13.14       1.93        0.00      59.29       2.24       0.01       0.62       ----

> <Gold.Chemscore.Fitness>
12.5144

> <Gold.Chemscore.DG>
-13.1396

> <Gold.Chemscore.ZeroCoef>
-5.4800

> <Gold.Chemscore.Hbond>
1.9306

> <Gold.Chemscore.Metal>
0.0000

> <Gold.Chemscore.Lipo>
59.2871

> <Gold.Chemscore.Internal_Hbond>
0.0000

> <Gold.Chemscore.DEClash>
0.0058

> <Gold.Chemscore.DEInternal>
0.6194

> <Gold.Chemscore.Rot>
2.2364

> <Gold.Chemscore.Internal.Correction>
   9.000000E+99

> <Gold.Chemscore.Hbonds>
donor molecule, donor type, donor heavy atom, donor atom, acceptor molecule, acceptor atom, score
      P1  H 10752 10763       L1    10  0.04

> <Gold.Chemscore.Hbond.Weighted>
-6.4481

> <Gold.Chemscore.Metal.Weighted>
-0.0000

> <Gold.Chemscore.Lipo.Weighted>
-6.9366

> <Gold.Chemscore.Internal_Hbond.Weighted>
0.0000

> <Gold.Chemscore.DEClash.Weighted>
0.0058

> <Gold.Chemscore.DEInternal.Weighted>
0.6194

> <Gold.Chemscore.Rot.Weighted>
5.7251

> <Gold.Chemscore.Internal.Correction.Weighted>
   9.000000E+99

> <Gold.Protein.RotatedTorsions>
[ 6907 6896 6895 6894 ] final  -73.40 input  -60.11 | X-H torsion
[ 7974 7965 7964 7962 ] final   16.22 input  175.53 | X-H torsion
[ 8008 7997 7996 7995 ] final -174.98 input   59.86 | X-H torsion
[ 10167 10162 10161 10158 ] final  -29.27 input  -65.29 | X-H torsion
[ 10718 10713 10712 10709 ] final  176.48 input   66.30 | X-H torsion
[ 10763 10752 10751 10750 ] final  -46.47 input  -60.55 | X-H torsion
[ 11005 11000 10999 10996 ] final  -69.52 input  -57.11 | X-H torsion

> <Gold.Protein.ActiveResidues>
 VAL166  LYS551  ARG553  GLY616  TRP617  ASP618  TYR619  PRO620  LYS621  CYS622 
 ASP623  PHE694  ASN695  SER759  ASP760  ASP761  ALA762  ILE779  LEU786  VAL792 
 PHE793  MET794  SER795  GLU796  ALA797  LYS798  CYS799  TRP800  GLU811  SER814 

> <Gold.Protein.RotatedAtoms>
  150.7131  134.5022  159.5566 H   0  0  0  0  0  0  0  0  0  0  0  0  # atno 6907 bound_to 6896
  152.2616  134.8025  160.0438 H   0  0  0  0  0  0  0  0  0  0  0  0  # atno 6908 bound_to 6896
  151.8736  133.3445  159.3780 H   0  0  0  0  0  0  0  0  0  0  0  0  # atno 6909 bound_to 6896
  146.2256  139.8779  142.8576 H   0  0  0  0  0  0  0  0  0  0  0  0  # atno 7974 bound_to 7965
  155.9769  140.1174  157.0762 H   0  0  0  0  0  0  0  0  0  0  0  0  # atno 8008 bound_to 7997
  154.4171  140.1152  156.5449 H   0  0  0  0  0  0  0  0  0  0  0  0  # atno 8009 bound_to 7997
  155.6523  140.3473  155.4755 H   0  0  0  0  0  0  0  0  0  0  0  0  # atno 8010 bound_to 7997
  140.7262  143.3942  151.1376 H   0  0  0  0  0  0  0  0  0  0  0  0  # atno 10167 bound_to 10162
  156.9195  130.9936  151.3007 H   0  0  0  0  0  0  0  0  0  0  0  0  # atno 10718 bound_to 10713
  154.0456  135.6638  153.4794 H   0  0  0  0  0  0  0  0  0  0  0  0  # atno 10763 bound_to 10752
  153.0484  135.5100  154.7800 H   0  0  0  0  0  0  0  0  0  0  0  0  # atno 10764 bound_to 10752
  154.6790  135.3042  154.9605 H   0  0  0  0  0  0  0  0  0  0  0  0  # atno 10765 bound_to 10752
  141.1555  133.6766  156.6612 H   0  0  0  0  0  0  0  0  0  0  0  0  # atno 11005 bound_to 11000
  145.2542  141.0054  143.3863 LP  0  0  0  0  0  0  0  0  0  0  0  0  # atno 17320 bound_to 7965
  144.9350  139.4254  143.6477 LP  0  0  0  0  0  0  0  0  0  0  0  0  # atno 17321 bound_to 7965
  139.7552  143.8718  152.3087 LP  0  0  0  0  0  0  0  0  0  0  0  0  # atno 17342 bound_to 10162
  139.8585  144.7129  150.9128 LP  0  0  0  0  0  0  0  0  0  0  0  0  # atno 17343 bound_to 10162
  157.5917  130.8448  149.8669 LP  0  0  0  0  0  0  0  0  0  0  0  0  # atno 17370 bound_to 10713
  156.0498  130.3720  150.1229 LP  0  0  0  0  0  0  0  0  0  0  0  0  # atno 17371 bound_to 10713
  140.3246  134.7979  157.4279 LP  0  0  0  0  0  0  0  0  0  0  0  0  # atno 17394 bound_to 11000
  140.1068  134.5399  155.8302 LP  0  0  0  0  0  0  0  0  0  0  0  0  # atno 17395 bound_to 11000

$$$$
