AV-unprocessed.smi:1149|AV-procd|sdf|4890|dock6
  -GOLD-   22720 3463D 1   1.00000     0.00000
 Structure written by MMmdl.
 51 52  0  0  0  0  0  0  0  0  2 V2000
  152.4727  140.1038  158.8272 C   0  0  0  0  0  0  0  0  0  0  0  0
  152.7875  139.8980  157.4544 O   0  0  0  0  0  0  0  0  0  0  0  0
  151.8438  139.2940  156.6491 C   0  0  0  0  0  0  0  0  0  0  0  0
  152.1592  139.0679  155.2947 C   0  0  0  0  0  0  0  0  0  0  0  0
  151.2000  138.4584  154.4638 C   0  0  0  0  0  0  0  0  0  0  0  0
  149.9468  138.1000  155.0151 C   0  0  0  0  0  0  0  0  0  0  0  0
  148.9047  137.4676  154.2850 N   0  0  0  0  0  0  0  0  0  0  0  0
  147.6626  137.1637  154.6991 C   0  0  0  0  0  0  0  0  0  0  0  0
  147.2156  137.3808  155.8250 O   0  0  0  0  0  0  0  0  0  0  0  0
  146.9589  136.5714  153.7239 N   0  0  0  0  0  0  0  0  0  0  0  0
  145.5766  136.1026  153.8316 C   0  0  0  0  0  0  0  0  0  0  0  0
  145.0015  135.5562  152.4898 C   0  0  0  0  0  0  0  0  0  0  0  0
  143.5065  135.2158  152.6980 C   0  0  0  0  0  0  0  0  0  0  0  0
  145.1045  136.6859  151.4334 C   0  0  0  0  0  0  0  0  0  0  0  0
  145.7793  134.3723  152.0331 N   0  0  0  0  0  0  0  0  0  0  0  0
  145.2791  133.7413  150.8000 C   0  0  0  0  0  0  0  0  0  0  0  0
  146.2916  132.7024  150.2774 C   0  0  0  0  0  0  0  0  0  0  0  0
  146.5588  131.6495  151.2831 N   0  3  0  0  0  0  0  0  0  0  0  0
  145.4760  130.6458  151.4046 C   0  0  0  0  0  0  0  0  0  0  0  0
  146.9577  132.2621  152.5707 C   0  0  0  0  0  0  0  0  0  0  0  0
  145.9283  133.3092  153.0410 C   0  0  0  0  0  0  0  0  0  0  0  0
  149.7370  138.3525  156.3865 C   0  0  0  0  0  0  0  0  0  0  0  0
  150.6517  138.9375  157.1883 N   0  0  0  0  0  0  0  0  0  0  0  0
  153.3096  140.6000  159.3184 H   0  0  0  0  0  0  0  0  0  0  0  0
  152.3005  139.1577  159.3424 H   0  0  0  0  0  0  0  0  0  0  0  0
  151.5954  140.7415  158.9450 H   0  0  0  0  0  0  0  0  0  0  0  0
  153.1225  139.3542  154.8990 H   0  0  0  0  0  0  0  0  0  0  0  0
  151.4488  138.2681  153.4315 H   0  0  0  0  0  0  0  0  0  0  0  0
  149.1553  137.1518  153.3595 H   0  0  0  0  0  0  0  0  0  0  0  0
  147.4114  136.4362  152.8320 H   0  0  0  0  0  0  0  0  0  0  0  0
  145.5390  135.3481  154.6163 H   0  0  0  0  0  0  0  0  0  0  0  0
  144.9365  136.9029  154.2078 H   0  0  0  0  0  0  0  0  0  0  0  0
  142.9529  136.1002  153.0158 H   0  0  0  0  0  0  0  0  0  0  0  0
  143.3563  134.4604  153.4692 H   0  0  0  0  0  0  0  0  0  0  0  0
  143.0293  134.8611  151.7847 H   0  0  0  0  0  0  0  0  0  0  0  0
  144.7379  137.6317  151.8336 H   0  0  0  0  0  0  0  0  0  0  0  0
  144.5034  136.4859  150.5467 H   0  0  0  0  0  0  0  0  0  0  0  0
  146.1332  136.8487  151.1097 H   0  0  0  0  0  0  0  0  0  0  0  0
  144.3078  133.2762  150.9690 H   0  0  0  0  0  0  0  0  0  0  0  0
  145.1430  134.4749  150.0084 H   0  0  0  0  0  0  0  0  0  0  0  0
  145.9333  132.2507  149.3517 H   0  0  0  0  0  0  0  0  0  0  0  0
  147.2316  133.1993  150.0328 H   0  0  0  0  0  0  0  0  0  0  0  0
  144.5464  131.0887  151.7619 H   0  0  0  0  0  0  0  0  0  0  0  0
  145.7641  129.8566  152.0996 H   0  0  0  0  0  0  0  0  0  0  0  0
  145.2792  130.1787  150.4390 H   0  0  0  0  0  0  0  0  0  0  0  0
  147.0889  131.4877  153.3273 H   0  0  0  0  0  0  0  0  0  0  0  0
  147.9318  132.7377  152.4458 H   0  0  0  0  0  0  0  0  0  0  0  0
  146.2896  133.7090  153.9857 H   0  0  0  0  0  0  0  0  0  0  0  0
  144.9693  132.8337  153.2471 H   0  0  0  0  0  0  0  0  0  0  0  0
  148.8026  138.0819  156.8567 H   0  0  0  0  0  0  0  0  0  0  0  0
  147.3625  131.1360  150.9505 H   0  0  0  0  0  0  0  0  0  0  0  0
  1  2  1  0  0  0  0
  1 24  1  0  0  0  0
  1 25  1  0  0  0  0
  1 26  1  0  0  0  0
  2  3  1  0  0  0  0
  3 23  1  0  0  0  0
  3  4  2  0  0  0  0
  4  5  1  0  0  0  0
  4 27  1  0  0  0  0
  5  6  2  0  0  0  0
  5 28  1  0  0  0  0
  6  7  1  0  0  0  0
  6 22  1  0  0  0  0
  7  8  1  0  0  0  0
  7 29  1  0  0  0  0
  8  9  2  0  0  0  0
  8 10  1  0  0  0  0
 10 11  1  0  0  0  0
 10 30  1  0  0  0  0
 11 12  1  0  0  0  0
 11 31  1  0  0  0  0
 11 32  1  0  0  0  0
 12 13  1  0  0  0  0
 12 14  1  0  0  0  0
 12 15  1  0  0  0  0
 13 33  1  0  0  0  0
 13 34  1  0  0  0  0
 13 35  1  0  0  0  0
 14 36  1  0  0  0  0
 14 37  1  0  0  0  0
 14 38  1  0  0  0  0
 15 21  1  0  0  0  0
 15 16  1  0  0  0  0
 16 17  1  0  0  0  0
 16 39  1  0  0  0  0
 16 40  1  0  0  0  0
 17 18  1  0  0  0  0
 17 41  1  0  0  0  0
 17 42  1  0  0  0  0
 18 19  1  0  0  0  0
 18 20  1  0  0  0  0
 18 51  1  0  0  0  0
 19 43  1  0  0  0  0
 19 44  1  0  0  0  0
 19 45  1  0  0  0  0
 20 21  1  0  0  0  0
 20 46  1  0  0  0  0
 20 47  1  0  0  0  0
 21 48  1  0  0  0  0
 21 49  1  0  0  0  0
 22 23  2  0  0  0  0
 22 50  1  0  0  0  0
M  CHG  1  18   1
M  END
> <s_m_source_file>
AV-unprocessed.smi

> <i_m_source_file_index>
1149

> <i_lp_mmshare_version>
43012

> <i_f3d_flags>
0

> <s_epik_input>
W0NIM11PYzFbY0hdW2NIXWMoW2NIXW4xKVtOSF1DKD1PKVtOSF1bQ0gyXUMoW0NIM10pKFtDSDNdKU4yW0NIMl1bQ0gyXU4oW0NIM10pW0NIMl1bQ0gyXTI=

> <s_epik_cmdline>
J2VwaWtfcHl0aG9uJywgJy1waCcsICc3LjAnLCAnLXRuJywgJzgnLCAnLW1hJywgJzIwMCcsICctbWV0YWxfYmluZGluZycsICctaW1hZScsICc8aW5maWxlLm1hZT4nLCAnLW9tYWUnLCAnPG91dGZpbGUubWFlPic=

> <r_lp_tautomer_probability>
1

> <r_epik_Ionization_Penalty>
0.0248754

> <r_epik_Ionization_Penalty_Charging>
0.0238192

> <r_epik_Ionization_Penalty_Neutral>
0.00105627

> <r_epik_State_Penalty>
0.139266

> <r_epik_Charging_Adjusted_Penalty>
0.163085

> <i_epik_Tot_Q>
1

> <i_epik_Tot_abs_Q>
1

> <r_epik_Metal_State_Penalty>
0.139265

> <b_epik_Metal_Only>
0

> <s_lp_Force_Field>
OPLS_2005

> <r_lp_Energy>
29.3026

> <b_lp_Chiralities_Consistent>
1

> <s_lp_Variant>
AV-unprocessed.smi:1149-1

> <Gold.Version>
5.8.1

> <Gold.Id.Protein>
6NUR|6NUR_protein|mol2

> <Gold.PLP.Fitness>
43.0050

> <Gold.PLP.PLP>
-31.1676

> <Gold.PLP.part.hbond>
-4.0000

> <Gold.PLP.part.metal>
0.0000

> <Gold.PLP.part.buried>
-2.3340

> <Gold.PLP.part.nonpolar>
-24.9537

> <Gold.PLP.part.repulsive>
0.1430

> <Gold.PLP.ligand.clash>
0.0000

> <Gold.PLP.ligand.torsion>
0.0912

> <Gold.PLP.Chemscore.Hbond>
3.9920

> <Gold.PLP.Chemscore.CHOScore>
0.0000

> <Gold.PLP.Chemscore.Metal>
0.0000

> <Gold.Chemscore.Hbonds>
donor molecule, donor type, donor heavy atom, donor atom, acceptor molecule, acceptor atom, score
      L1  H     7    29       P1  7948  1.00
      L1  H    10    30       P1  7948  0.99
      L1  H    18    51       P1 10747  1.00
      P1  H  7997  8008       L1     2  1.00

> <Gold.PLP.Chemscore.Internal.Correction>
0.0439

> <Gold.Rescore>
     Score         DG    S(hbond)    S(metal)    S(lipo)     H(rot)  DE(clash)    DE(int)     intcor
     21.38     -23.42       3.86        0.00      80.79       1.72       0.57       1.47       ----

> <Gold.Chemscore.Fitness>
21.3819

> <Gold.Chemscore.DG>
-23.4198

> <Gold.Chemscore.ZeroCoef>
-5.4800

> <Gold.Chemscore.Hbond>
3.8605

> <Gold.Chemscore.Metal>
0.0000

> <Gold.Chemscore.Lipo>
80.7894

> <Gold.Chemscore.Internal_Hbond>
0.0000

> <Gold.Chemscore.DEClash>
0.5673

> <Gold.Chemscore.DEInternal>
1.4706

> <Gold.Chemscore.Rot>
1.7213

> <Gold.Chemscore.Internal.Correction>
   9.000000E+99

> <Gold.Chemscore.Hbonds>
donor molecule, donor type, donor heavy atom, donor atom, acceptor molecule, acceptor atom, score
      L1  H     7    29       P1  7948  0.98
      L1  H    10    30       P1  7948  0.94
      L1  H    18    51       P1 10747  0.99
      P1  H  7997  8008       L1     2  0.88

> <Gold.Chemscore.Hbond.Weighted>
-12.8940

> <Gold.Chemscore.Metal.Weighted>
-0.0000

> <Gold.Chemscore.Lipo.Weighted>
-9.4524

> <Gold.Chemscore.Internal_Hbond.Weighted>
0.0000

> <Gold.Chemscore.DEClash.Weighted>
0.5673

> <Gold.Chemscore.DEInternal.Weighted>
1.4706

> <Gold.Chemscore.Rot.Weighted>
4.4066

> <Gold.Chemscore.Internal.Correction.Weighted>
   9.000000E+99

> <Gold.Protein.RotatedTorsions>
[ 6907 6896 6895 6894 ] final  -86.13 input  -60.11 | X-H torsion
[ 7974 7965 7964 7962 ] final   75.46 input  175.53 | X-H torsion
[ 8008 7997 7996 7995 ] final  -62.68 input   59.86 | X-H torsion
[ 10167 10162 10161 10158 ] final   74.70 input  -65.29 | X-H torsion
[ 10718 10713 10712 10709 ] final -131.10 input   66.30 | X-H torsion
[ 10763 10752 10751 10750 ] final  -50.19 input  -60.55 | X-H torsion
[ 11005 11000 10999 10996 ] final  154.15 input  -57.11 | X-H torsion

> <Gold.Protein.ActiveResidues>
 VAL166  LYS551  ARG553  GLY616  TRP617  ASP618  TYR619  PRO620  LYS621  CYS622 
 ASP623  PHE694  ASN695  SER759  ASP760  ASP761  ALA762  ILE779  LEU786  VAL792 
 PHE793  MET794  SER795  GLU796  ALA797  LYS798  CYS799  TRP800  GLU811  SER814 

> <Gold.Protein.RotatedAtoms>
  150.6868  134.3099  159.4741 H   0  0  0  0  0  0  0  0  0  0  0  0  # atno 6907 bound_to 6896
  152.0986  134.9355  160.0579 H   0  0  0  0  0  0  0  0  0  0  0  0  # atno 6908 bound_to 6896
  152.0643  133.4042  159.4468 H   0  0  0  0  0  0  0  0  0  0  0  0  # atno 6909 bound_to 6896
  145.7153  139.2629  143.1627 H   0  0  0  0  0  0  0  0  0  0  0  0  # atno 7974 bound_to 7965
  154.4513  140.0991  156.6625 H   0  0  0  0  0  0  0  0  0  0  0  0  # atno 8008 bound_to 7997
  155.5277  140.3480  155.4401 H   0  0  0  0  0  0  0  0  0  0  0  0  # atno 8009 bound_to 7997
  156.0686  140.1344  156.9845 H   0  0  0  0  0  0  0  0  0  0  0  0  # atno 8010 bound_to 7997
  140.0109  144.5614  150.7659 H   0  0  0  0  0  0  0  0  0  0  0  0  # atno 10167 bound_to 10162
  156.2210  130.6978  151.0756 H   0  0  0  0  0  0  0  0  0  0  0  0  # atno 10718 bound_to 10713
  154.1063  135.6556  153.4877 H   0  0  0  0  0  0  0  0  0  0  0  0  # atno 10763 bound_to 10752
  153.0271  135.5237  154.7236 H   0  0  0  0  0  0  0  0  0  0  0  0  # atno 10764 bound_to 10752
  154.6403  135.2987  155.0080 H   0  0  0  0  0  0  0  0  0  0  0  0  # atno 10765 bound_to 10752
  140.1463  134.8705  157.2397 H   0  0  0  0  0  0  0  0  0  0  0  0  # atno 11005 bound_to 11000
  146.0675  140.7905  142.9704 LP  0  0  0  0  0  0  0  0  0  0  0  0  # atno 17320 bound_to 7965
  144.6931  140.3291  143.7219 LP  0  0  0  0  0  0  0  0  0  0  0  0  # atno 17321 bound_to 7965
  140.7381  143.2774  151.3699 LP  0  0  0  0  0  0  0  0  0  0  0  0  # atno 17342 bound_to 10162
  139.6205  144.0916  152.2387 LP  0  0  0  0  0  0  0  0  0  0  0  0  # atno 17343 bound_to 10162
  157.7087  131.0744  150.6576 LP  0  0  0  0  0  0  0  0  0  0  0  0  # atno 17370 bound_to 10713
  156.6639  130.4520  149.5678 LP  0  0  0  0  0  0  0  0  0  0  0  0  # atno 17371 bound_to 10713
  140.2659  134.3516  155.7390 LP  0  0  0  0  0  0  0  0  0  0  0  0  # atno 17394 bound_to 11000
  141.2193  133.7396  156.9151 LP  0  0  0  0  0  0  0  0  0  0  0  0  # atno 17395 bound_to 11000

$$$$
