AV-unprocessed.smi:1443|AV-procd|sdf|5880|dock10
  -GOLD-   22720 5563D 1   1.00000     0.00000
 Structure written by MMmdl.
 27 28  0  0  0  0  0  0  0  0  1 V2000
  150.6744  134.2272  155.5835 C   0  0  0  0  0  0  0  0  0  0  0  0
  149.5936  135.6436  155.2427 S   0  0  0  0  0  0  0  0  0  0  0  0
  150.6345  137.0669  155.2845 C   0  0  0  0  0  0  0  0  0  0  0  0
  151.6473  137.2025  154.4092 N   0  0  0  0  0  0  0  0  0  0  0  0
  152.4380  138.6639  154.7233 S   0  0  0  0  0  0  0  0  0  0  0  0
  151.3429  139.0112  156.0291 C   0  0  0  0  0  0  0  0  0  0  0  0
  151.4379  140.1969  156.8145 N   0  0  0  0  0  0  0  0  0  0  0  0
  152.3183  140.5593  157.7727 C   0  0  0  0  0  0  0  0  0  0  0  0
  153.2373  139.8123  158.1043 O   0  0  0  0  0  0  0  0  0  0  0  0
  152.1232  141.7666  158.3262 N   0  0  0  0  0  0  0  0  0  0  0  0
  152.9099  142.3553  159.3586 C   0  0  1  0  0  0  0  0  0  0  0  0
  152.6695  143.8211  159.6477 C   0  0  0  0  0  0  0  0  0  0  0  0
  152.2003  142.7802  160.6283 C   0  0  2  0  0  0  0  0  0  0  0  0
  152.8748  142.6542  161.9770 C   0  0  0  0  0  0  0  0  0  0  0  0
  150.4405  138.0432  156.1883 N   0  0  0  0  0  0  0  0  0  0  0  0
  150.0974  133.3025  155.5725 H   0  0  0  0  0  0  0  0  0  0  0  0
  151.1419  134.3314  156.5630 H   0  0  0  0  0  0  0  0  0  0  0  0
  151.4584  134.1547  154.8295 H   0  0  0  0  0  0  0  0  0  0  0  0
  150.7349  140.8919  156.6082 H   0  0  0  0  0  0  0  0  0  0  0  0
  151.3426  142.3112  157.9881 H   0  0  0  0  0  0  0  0  0  0  0  0
  153.9366  142.0081  159.4671 H   0  0  0  0  0  0  0  0  0  0  0  0
  153.5333  144.4243  159.9208 H   0  0  0  0  0  0  0  0  0  0  0  0
  151.9084  144.3382  159.0660 H   0  0  0  0  0  0  0  0  0  0  0  0
  151.1256  142.6080  160.6607 H   0  0  0  0  0  0  0  0  0  0  0  0
  153.9479  142.8280  161.8923 H   0  0  0  0  0  0  0  0  0  0  0  0
  152.7161  141.6544  162.3813 H   0  0  0  0  0  0  0  0  0  0  0  0
  152.4576  143.3817  162.6735 H   0  0  0  0  0  0  0  0  0  0  0  0
  1  2  1  0  0  0  0
  1 16  1  0  0  0  0
  1 17  1  0  0  0  0
  1 18  1  0  0  0  0
  2  3  1  0  0  0  0
  3 15  1  0  0  0  0
  3  4  2  0  0  0  0
  4  5  1  0  0  0  0
  5  6  1  0  0  0  0
  6  7  1  0  0  0  0
  6 15  2  0  0  0  0
  7  8  1  0  0  0  0
  7 19  1  0  0  0  0
  8  9  2  0  0  0  0
  8 10  1  0  0  0  0
 10 11  1  0  0  0  0
 10 20  1  0  0  0  0
 11 13  1  0  0  0  0
 11 12  1  0  0  0  0
 11 21  1  0  0  0  0
 12 13  1  0  0  0  0
 12 22  1  0  0  0  0
 12 23  1  0  0  0  0
 13 14  1  0  0  0  0
 13 24  1  0  0  0  0
 14 25  1  0  0  0  0
 14 26  1  0  0  0  0
 14 27  1  0  0  0  0
M  END
> <s_m_source_file>
AV-unprocessed.smi

> <i_m_source_file_index>
1443

> <i_lp_mmshare_version>
43012

> <i_f3d_flags>
0

> <s_epik_input>
W0NIM11TYzFuc2MobjEpW05IXUMoPU8pW05IXVtDQEBIXTJbQ0gyXVtDQEhdMltDSDNd

> <s_epik_cmdline>
J2VwaWtfcHl0aG9uJywgJy1waCcsICc3LjAnLCAnLXRuJywgJzgnLCAnLW1hJywgJzIwMCcsICctbWV0YWxfYmluZGluZycsICctaW1hZScsICc8aW5maWxlLm1hZT4nLCAnLW9tYWUnLCAnPG91dGZpbGUubWFlPic=

> <r_lp_tautomer_probability>
1

> <r_epik_Ionization_Penalty>
2.74658e-05

> <r_epik_Ionization_Penalty_Charging>
0

> <r_epik_Ionization_Penalty_Neutral>
2.74658e-05

> <r_epik_State_Penalty>
-0

> <r_epik_Charging_Adjusted_Penalty>
0

> <i_epik_Tot_Q>
0

> <i_epik_Tot_abs_Q>
0

> <r_epik_Metal_State_Penalty>
-0

> <b_epik_Metal_Only>
0

> <s_lp_Force_Field>
OPLS_2005

> <r_lp_Energy>
20.7485

> <b_lp_Chiralities_Consistent>
1

> <s_lp_Variant>
AV-unprocessed.smi:1443-4

> <Gold.Version>
5.8.1

> <Gold.Id.Protein>
6NUR|6NUR_protein|mol2

> <Gold.PLP.Fitness>
34.2729

> <Gold.PLP.PLP>
-29.7603

> <Gold.PLP.part.hbond>
-2.0000

> <Gold.PLP.part.metal>
0.0000

> <Gold.PLP.part.buried>
-3.7811

> <Gold.PLP.part.nonpolar>
-24.1448

> <Gold.PLP.part.repulsive>
0.3517

> <Gold.PLP.ligand.clash>
0.0000

> <Gold.PLP.ligand.torsion>
0.7600

> <Gold.PLP.Chemscore.Hbond>
2.0000

> <Gold.PLP.Chemscore.CHOScore>
0.0000

> <Gold.PLP.Chemscore.Metal>
0.0000

> <Gold.Chemscore.Hbonds>
donor molecule, donor type, donor heavy atom, donor atom, acceptor molecule, acceptor atom, score
      P1  H  7997  8010       L1     9  1.00
      P1  H 10752 10764       L1     4  1.00

> <Gold.PLP.Chemscore.Internal.Correction>
0.0326

> <Gold.Rescore>
     Score         DG    S(hbond)    S(metal)    S(lipo)     H(rot)  DE(clash)    DE(int)     intcor
     15.07     -15.90       1.86        0.00      63.78       1.27       0.01       0.82       ----

> <Gold.Chemscore.Fitness>
15.0654

> <Gold.Chemscore.DG>
-15.8972

> <Gold.Chemscore.ZeroCoef>
-5.4800

> <Gold.Chemscore.Hbond>
1.8580

> <Gold.Chemscore.Metal>
0.0000

> <Gold.Chemscore.Lipo>
63.7808

> <Gold.Chemscore.Internal_Hbond>
0.0000

> <Gold.Chemscore.DEClash>
0.0149

> <Gold.Chemscore.DEInternal>
0.8170

> <Gold.Chemscore.Rot>
1.2699

> <Gold.Chemscore.Internal.Correction>
   9.000000E+99

> <Gold.Chemscore.Hbonds>
donor molecule, donor type, donor heavy atom, donor atom, acceptor molecule, acceptor atom, score
      P1  H  7997  8010       L1     9  0.38
      P1  H 10752 10764       L1     4  0.73

> <Gold.Chemscore.Hbond.Weighted>
-6.2058

> <Gold.Chemscore.Metal.Weighted>
-0.0000

> <Gold.Chemscore.Lipo.Weighted>
-7.4624

> <Gold.Chemscore.Internal_Hbond.Weighted>
0.0000

> <Gold.Chemscore.DEClash.Weighted>
0.0149

> <Gold.Chemscore.DEInternal.Weighted>
0.8170

> <Gold.Chemscore.Rot.Weighted>
3.2509

> <Gold.Chemscore.Internal.Correction.Weighted>
   9.000000E+99

> <Gold.Protein.RotatedTorsions>
[ 6907 6896 6895 6894 ] final  146.34 input  -60.11 | X-H torsion
[ 7974 7965 7964 7962 ] final  -90.00 input  175.53 | X-H torsion
[ 8008 7997 7996 7995 ] final   50.48 input   59.86 | X-H torsion
[ 10167 10162 10161 10158 ] final  -43.89 input  -65.29 | X-H torsion
[ 10718 10713 10712 10709 ] final  -85.33 input   66.30 | X-H torsion
[ 10763 10752 10751 10750 ] final  -79.28 input  -60.55 | X-H torsion
[ 11005 11000 10999 10996 ] final   85.57 input  -57.11 | X-H torsion

> <Gold.Protein.ActiveResidues>
 VAL166  LYS551  ARG553  GLY616  TRP617  ASP618  TYR619  PRO620  LYS621  CYS622 
 ASP623  PHE694  ASN695  SER759  ASP760  ASP761  ALA762  ILE779  LEU786  VAL792 
 PHE793  MET794  SER795  GLU796  ALA797  LYS798  CYS799  TRP800  GLU811  SER814 

> <Gold.Protein.RotatedAtoms>
  152.1692  133.4632  159.4899 H   0  0  0  0  0  0  0  0  0  0  0  0  # atno 6907 bound_to 6896
  150.6917  134.1975  159.4318 H   0  0  0  0  0  0  0  0  0  0  0  0  # atno 6908 bound_to 6896
  151.9881  134.9993  160.0611 H   0  0  0  0  0  0  0  0  0  0  0  0  # atno 6909 bound_to 6896
  145.4322  140.9556  143.2121 H   0  0  0  0  0  0  0  0  0  0  0  0  # atno 7974 bound_to 7965
  155.4194  140.3446  155.4270 H   0  0  0  0  0  0  0  0  0  0  0  0  # atno 8008 bound_to 7997
  156.1402  140.1540  156.8964 H   0  0  0  0  0  0  0  0  0  0  0  0  # atno 8009 bound_to 7997
  154.4964  140.0826  156.7687 H   0  0  0  0  0  0  0  0  0  0  0  0  # atno 8010 bound_to 7997
  140.6917  143.2959  151.3417 H   0  0  0  0  0  0  0  0  0  0  0  0  # atno 10167 bound_to 10162
  155.9998  130.4727  150.4546 H   0  0  0  0  0  0  0  0  0  0  0  0  # atno 10718 bound_to 10713
  154.5366  135.5701  153.6803 H   0  0  0  0  0  0  0  0  0  0  0  0  # atno 10763 bound_to 10752
  152.9952  135.6217  154.2558 H   0  0  0  0  0  0  0  0  0  0  0  0  # atno 10764 bound_to 10752
  154.2487  135.2860  155.2805 H   0  0  0  0  0  0  0  0  0  0  0  0  # atno 10765 bound_to 10752
  139.8968  134.8296  156.2601 H   0  0  0  0  0  0  0  0  0  0  0  0  # atno 11005 bound_to 11000
  144.8175  139.5850  143.7002 LP  0  0  0  0  0  0  0  0  0  0  0  0  # atno 17320 bound_to 7965
  146.2601  139.6390  142.9368 LP  0  0  0  0  0  0  0  0  0  0  0  0  # atno 17321 bound_to 7965
  139.6327  144.0690  152.2490 LP  0  0  0  0  0  0  0  0  0  0  0  0  # atno 17342 bound_to 10162
  140.0170  144.6182  150.7599 LP  0  0  0  0  0  0  0  0  0  0  0  0  # atno 17343 bound_to 10162
  157.2576  131.0560  151.2340 LP  0  0  0  0  0  0  0  0  0  0  0  0  # atno 17370 bound_to 10713
  157.3467  130.7061  149.6415 LP  0  0  0  0  0  0  0  0  0  0  0  0  # atno 17371 bound_to 10713
  141.0168  133.7064  156.1202 LP  0  0  0  0  0  0  0  0  0  0  0  0  # atno 17394 bound_to 11000
  140.7290  134.4275  157.5568 LP  0  0  0  0  0  0  0  0  0  0  0  0  # atno 17395 bound_to 11000

$$$$
