AV-unprocessed.smi:1662|AV-procd|sdf|6659|dock10
  -GOLD-   22720 7373D 1   1.00000     0.00000
 Structure written by MMmdl.
 47 48  0  0  0  0  0  0  0  0  1 V2000
  146.5164  138.7102  152.0111 C   0  0  0  0  0  0  0  0  0  0  0  0
  146.7901  139.2648  153.3830 C   0  0  0  0  0  0  0  0  0  0  0  0
  147.7065  140.1722  153.4699 N   0  0  0  0  0  0  0  0  0  0  0  0
  148.0408  140.7432  154.6828 N   0  0  0  0  0  0  0  0  0  0  0  0
  149.1125  141.7465  154.5989 C   0  0  0  0  0  0  0  0  0  0  0  0
  150.2908  141.4597  155.5410 C   0  0  0  0  0  0  0  0  0  0  0  0
  150.9988  140.4641  155.3820 O   0  0  0  0  0  0  0  0  0  0  0  0
  150.4954  142.3607  156.5138 N   0  0  0  0  0  0  0  0  0  0  0  0
  151.5565  142.3014  157.5180 C   0  0  2  0  0  0  0  0  0  0  0  0
  151.5923  140.8899  158.1366 C   0  0  0  0  0  0  0  0  0  0  0  0
  152.6577  140.7873  159.2314 C   0  0  0  0  0  0  0  0  0  0  0  0
  152.4177  141.8421  160.3162 C   0  0  0  0  0  0  0  0  0  0  0  0
  152.4015  143.2700  159.7349 C   0  0  2  0  0  0  0  0  0  0  0  0
  152.1906  144.2848  160.8741 C   0  0  0  0  0  0  0  0  0  0  0  0
  151.3499  143.4008  158.5960 C   0  0  1  0  0  0  0  0  0  0  0  0
  151.3603  144.8087  157.9602 C   0  0  0  0  0  0  0  0  0  0  0  0
  147.4593  140.4279  155.8762 C   0  0  0  0  0  0  0  0  0  0  0  0
  147.7885  140.9639  156.9356 O   0  0  0  0  0  0  0  0  0  0  0  0
  146.4203  139.4013  155.7695 C   0  0  0  0  0  0  0  0  0  0  0  0
  145.7876  139.0388  156.9966 C   0  0  0  0  0  0  0  0  0  0  0  0
  145.2918  138.7524  158.0029 N   0  0  0  0  0  0  0  0  0  0  0  0
  146.0831  138.8334  154.5845 C   0  0  0  0  0  0  0  0  0  0  0  0
  145.0123  137.7634  154.4220 C   0  0  0  0  0  0  0  0  0  0  0  0
  145.5136  138.9791  151.6791 H   0  0  0  0  0  0  0  0  0  0  0  0
  146.5933  137.6228  152.0095 H   0  0  0  0  0  0  0  0  0  0  0  0
  147.2224  139.0890  151.2707 H   0  0  0  0  0  0  0  0  0  0  0  0
  149.5014  141.7998  153.5803 H   0  0  0  0  0  0  0  0  0  0  0  0
  148.7093  142.7389  154.8099 H   0  0  0  0  0  0  0  0  0  0  0  0
  149.8675  143.1498  156.5654 H   0  0  0  0  0  0  0  0  0  0  0  0
  152.5155  142.4883  157.0302 H   0  0  0  0  0  0  0  0  0  0  0  0
  150.6156  140.6442  158.5563 H   0  0  0  0  0  0  0  0  0  0  0  0
  151.7928  140.1446  157.3660 H   0  0  0  0  0  0  0  0  0  0  0  0
  152.6435  139.7901  159.6719 H   0  0  0  0  0  0  0  0  0  0  0  0
  153.6491  140.9216  158.7970 H   0  0  0  0  0  0  0  0  0  0  0  0
  151.4717  141.6374  160.8195 H   0  0  0  0  0  0  0  0  0  0  0  0
  153.1947  141.7567  161.0768 H   0  0  0  0  0  0  0  0  0  0  0  0
  153.3869  143.4606  159.3067 H   0  0  0  0  0  0  0  0  0  0  0  0
  151.1864  144.2089  161.2917 H   0  0  0  0  0  0  0  0  0  0  0  0
  152.3405  145.3107  160.5402 H   0  0  0  0  0  0  0  0  0  0  0  0
  152.8988  144.1139  161.6852 H   0  0  0  0  0  0  0  0  0  0  0  0
  150.3634  143.2496  159.0381 H   0  0  0  0  0  0  0  0  0  0  0  0
  152.3405  145.0470  157.5464 H   0  0  0  0  0  0  0  0  0  0  0  0
  151.1053  145.5823  158.6833 H   0  0  0  0  0  0  0  0  0  0  0  0
  150.6328  144.8979  157.1537 H   0  0  0  0  0  0  0  0  0  0  0  0
  144.4649  137.5846  155.3467 H   0  0  0  0  0  0  0  0  0  0  0  0
  145.4630  136.8188  154.1169 H   0  0  0  0  0  0  0  0  0  0  0  0
  144.2834  138.0572  153.6662 H   0  0  0  0  0  0  0  0  0  0  0  0
  1  2  1  0  0  0  0
  1 24  1  0  0  0  0
  1 25  1  0  0  0  0
  1 26  1  0  0  0  0
  2 22  1  0  0  0  0
  2  3  2  0  0  0  0
  3  4  1  0  0  0  0
  4  5  1  0  0  0  0
  4 17  1  0  0  0  0
  5  6  1  0  0  0  0
  5 27  1  0  0  0  0
  5 28  1  0  0  0  0
  6  7  2  0  0  0  0
  6  8  1  0  0  0  0
  8  9  1  0  0  0  0
  8 29  1  0  0  0  0
  9 15  1  0  0  0  0
  9 10  1  0  0  0  0
  9 30  1  0  0  0  0
 10 11  1  0  0  0  0
 10 31  1  0  0  0  0
 10 32  1  0  0  0  0
 11 12  1  0  0  0  0
 11 33  1  0  0  0  0
 11 34  1  0  0  0  0
 12 13  1  0  0  0  0
 12 35  1  0  0  0  0
 12 36  1  0  0  0  0
 13 14  1  0  0  0  0
 13 15  1  0  0  0  0
 13 37  1  0  0  0  0
 14 38  1  0  0  0  0
 14 39  1  0  0  0  0
 14 40  1  0  0  0  0
 15 16  1  0  0  0  0
 15 41  1  0  0  0  0
 16 42  1  0  0  0  0
 16 43  1  0  0  0  0
 16 44  1  0  0  0  0
 17 18  2  0  0  0  0
 17 19  1  0  0  0  0
 19 20  1  0  0  0  0
 19 22  2  0  0  0  0
 20 21  3  0  0  0  0
 22 23  1  0  0  0  0
 23 45  1  0  0  0  0
 23 46  1  0  0  0  0
 23 47  1  0  0  0  0
M  END
> <s_m_source_file>
AV-unprocessed.smi

> <i_m_source_file_index>
1662

> <i_lp_mmshare_version>
43012

> <i_f3d_flags>
0

> <s_epik_input>
TiNDYyhjMVtDSDNdKWMoPU8pbihuYzFbQ0gzXSlbQ0gyXUMoPU8pW05IXVtDQEBIXTJbQ0gyXVtDSDJdW0NIMl1bQ0BASF0oW0NIM10pW0NASF0yW0NIM10=

> <s_epik_cmdline>
J2VwaWtfcHl0aG9uJywgJy1waCcsICc3LjAnLCAnLXRuJywgJzgnLCAnLW1hJywgJzIwMCcsICctbWV0YWxfYmluZGluZycsICctaW1hZScsICc8aW5maWxlLm1hZT4nLCAnLW9tYWUnLCAnPG91dGZpbGUubWFlPic=

> <r_lp_tautomer_probability>
1

> <r_epik_Ionization_Penalty>
1.90709e-08

> <r_epik_Ionization_Penalty_Charging>
2.37982e-11

> <r_epik_Ionization_Penalty_Neutral>
1.90471e-08

> <r_epik_State_Penalty>
-0

> <r_epik_Charging_Adjusted_Penalty>
2.37982e-11

> <i_epik_Tot_Q>
0

> <i_epik_Tot_abs_Q>
0

> <r_epik_Metal_State_Penalty>
-0

> <b_epik_Metal_Only>
0

> <s_lp_Force_Field>
OPLS_2005

> <r_lp_Energy>
27.4579

> <b_lp_Chiralities_Consistent>
1

> <s_lp_Variant>
AV-unprocessed.smi:1662-3

> <Gold.Version>
5.8.1

> <Gold.Id.Protein>
6NUR|6NUR_protein|mol2

> <Gold.PLP.Fitness>
43.4156

> <Gold.PLP.PLP>
-38.3098

> <Gold.PLP.part.hbond>
-2.0000

> <Gold.PLP.part.metal>
0.0000

> <Gold.PLP.part.buried>
-4.9401

> <Gold.PLP.part.nonpolar>
-31.7040

> <Gold.PLP.part.repulsive>
1.1918

> <Gold.PLP.ligand.clash>
0.0000

> <Gold.PLP.ligand.torsion>
0.1499

> <Gold.PLP.Chemscore.Hbond>
1.7995

> <Gold.PLP.Chemscore.CHOScore>
0.0000

> <Gold.PLP.Chemscore.Metal>
0.0000

> <Gold.Chemscore.Hbonds>
donor molecule, donor type, donor heavy atom, donor atom, acceptor molecule, acceptor atom, score
      L1  H     8    29       P1  8028  0.93
      P1  H  7989  7998       L1     7  0.88

> <Gold.PLP.Chemscore.Internal.Correction>
0.0071

> <Gold.Rescore>
     Score         DG    S(hbond)    S(metal)    S(lipo)     H(rot)  DE(clash)    DE(int)     intcor
     14.05     -18.14       1.22        0.00     104.97       1.45       0.33       3.76       ----

> <Gold.Chemscore.Fitness>
14.0453

> <Gold.Chemscore.DG>
-18.1387

> <Gold.Chemscore.ZeroCoef>
-5.4800

> <Gold.Chemscore.Hbond>
1.2245

> <Gold.Chemscore.Metal>
0.0000

> <Gold.Chemscore.Lipo>
104.9737

> <Gold.Chemscore.Internal_Hbond>
0.0000

> <Gold.Chemscore.DEClash>
0.3324

> <Gold.Chemscore.DEInternal>
3.7610

> <Gold.Chemscore.Rot>
1.4504

> <Gold.Chemscore.Internal.Correction>
   9.000000E+99

> <Gold.Chemscore.Hbonds>
donor molecule, donor type, donor heavy atom, donor atom, acceptor molecule, acceptor atom, score
      L1  H     8    29       P1  8028  0.84
      P1  H  7989  7998       L1     7  0.16

> <Gold.Chemscore.Hbond.Weighted>
-4.0897

> <Gold.Chemscore.Metal.Weighted>
-0.0000

> <Gold.Chemscore.Lipo.Weighted>
-12.2819

> <Gold.Chemscore.Internal_Hbond.Weighted>
0.0000

> <Gold.Chemscore.DEClash.Weighted>
0.3324

> <Gold.Chemscore.DEInternal.Weighted>
3.7610

> <Gold.Chemscore.Rot.Weighted>
3.7129

> <Gold.Chemscore.Internal.Correction.Weighted>
   9.000000E+99

> <Gold.Protein.RotatedTorsions>
[ 6907 6896 6895 6894 ] final  -78.92 input  -60.11 | X-H torsion
[ 7974 7965 7964 7962 ] final  171.47 input  175.53 | X-H torsion
[ 8008 7997 7996 7995 ] final -151.12 input   59.86 | X-H torsion
[ 10167 10162 10161 10158 ] final -129.78 input  -65.29 | X-H torsion
[ 10718 10713 10712 10709 ] final  -52.27 input   66.30 | X-H torsion
[ 10763 10752 10751 10750 ] final -101.24 input  -60.55 | X-H torsion
[ 11005 11000 10999 10996 ] final -137.18 input  -57.11 | X-H torsion

> <Gold.Protein.ActiveResidues>
 VAL166  LYS551  ARG553  GLY616  TRP617  ASP618  TYR619  PRO620  LYS621  CYS622 
 ASP623  PHE694  ASN695  SER759  ASP760  ASP761  ALA762  ILE779  LEU786  VAL792 
 PHE793  MET794  SER795  GLU796  ALA797  LYS798  CYS799  TRP800  GLU811  SER814 

> <Gold.Protein.RotatedAtoms>
  150.6961  134.4199  159.5199 H   0  0  0  0  0  0  0  0  0  0  0  0  # atno 6907 bound_to 6896
  152.1943  134.8641  160.0523 H   0  0  0  0  0  0  0  0  0  0  0  0  # atno 6908 bound_to 6896
  151.9585  133.3653  159.4063 H   0  0  0  0  0  0  0  0  0  0  0  0  # atno 6909 bound_to 6896
  144.7294  139.9355  143.6426 H   0  0  0  0  0  0  0  0  0  0  0  0  # atno 7974 bound_to 7965
  155.6343  140.0695  157.2639 H   0  0  0  0  0  0  0  0  0  0  0  0  # atno 8008 bound_to 7997
  154.4198  140.1762  156.1555 H   0  0  0  0  0  0  0  0  0  0  0  0  # atno 8009 bound_to 7997
  155.9907  140.3345  155.6754 H   0  0  0  0  0  0  0  0  0  0  0  0  # atno 8010 bound_to 7997
  139.9362  143.6215  152.2516 H   0  0  0  0  0  0  0  0  0  0  0  0  # atno 10167 bound_to 10162
  156.1636  130.4149  149.9755 H   0  0  0  0  0  0  0  0  0  0  0  0  # atno 10718 bound_to 10713
  154.7642  135.4905  153.9522 H   0  0  0  0  0  0  0  0  0  0  0  0  # atno 10763 bound_to 10752
  153.1288  135.6748  153.9220 H   0  0  0  0  0  0  0  0  0  0  0  0  # atno 10764 bound_to 10752
  153.8930  135.3118  155.3426 H   0  0  0  0  0  0  0  0  0  0  0  0  # atno 10765 bound_to 10752
  140.8735  134.2021  157.4636 H   0  0  0  0  0  0  0  0  0  0  0  0  # atno 11005 bound_to 11000
  146.0825  139.3813  143.0456 LP  0  0  0  0  0  0  0  0  0  0  0  0  # atno 17320 bound_to 7965
  145.7822  140.9851  143.1093 LP  0  0  0  0  0  0  0  0  0  0  0  0  # atno 17321 bound_to 7965
  139.6742  144.7659  151.1727 LP  0  0  0  0  0  0  0  0  0  0  0  0  # atno 17342 bound_to 10162
  140.7624  143.5820  150.8885 LP  0  0  0  0  0  0  0  0  0  0  0  0  # atno 17343 bound_to 10162
  156.7577  130.9139  151.3640 LP  0  0  0  0  0  0  0  0  0  0  0  0  # atno 17370 bound_to 10713
  157.6751  130.9087  150.0131 LP  0  0  0  0  0  0  0  0  0  0  0  0  # atno 17371 bound_to 10713
  139.8714  134.9785  156.5000 LP  0  0  0  0  0  0  0  0  0  0  0  0  # atno 17394 bound_to 11000
  140.8545  133.8106  155.9202 LP  0  0  0  0  0  0  0  0  0  0  0  0  # atno 17395 bound_to 11000

$$$$
