AV-unprocessed.smi:2042|AV-procd|sdf|8294|dock7
  -GOLD-   2272010563D 1   1.00000     0.00000
 Structure written by MMmdl.
 30 31  0  0  0  0  0  0  0  0  1 V2000
  152.8505  139.6762  157.8879 O   0  0  0  0  0  0  0  0  0  0  0  0
  151.8056  139.9891  157.3222 C   0  0  0  0  0  0  0  0  0  0  0  0
  151.2246  141.2029  157.3958 N   0  0  0  0  0  0  0  0  0  0  0  0
  151.6217  142.3400  158.1508 C   0  0  0  0  0  0  0  0  0  0  0  0
  152.3889  142.2858  159.3400 C   0  0  0  0  0  0  0  0  0  0  0  0
  152.6985  143.4881  160.0049 C   0  0  0  0  0  0  0  0  0  0  0  0
  152.2263  144.6986  159.4621 C   0  0  0  0  0  0  0  0  0  0  0  0
  151.4848  144.7645  158.3365 N   0  0  0  0  0  0  0  0  0  0  0  0
  151.1912  143.6078  157.7052 C   0  0  0  0  0  0  0  0  0  0  0  0
  151.1581  139.1143  156.5315 N   0  0  0  0  0  0  0  0  0  0  0  0
  151.5115  137.7257  156.2320 C   0  0  2  0  0  0  0  0  0  0  0  0
  150.5004  137.0986  155.2539 C   0  0  0  0  0  0  0  0  0  0  0  0
  150.6958  135.5774  155.2520 C   0  0  0  0  0  0  0  0  0  0  0  0
  151.2730  135.1372  156.9353 S   0  0  0  0  0  0  0  0  0  0  0  0
  150.1643  134.5449  157.6988 O   0  0  0  0  0  0  0  0  0  0  0  0
  152.5709  134.4532  156.8301 O   0  0  0  0  0  0  0  0  0  0  0  0
  151.5368  136.8593  157.5018 C   0  0  0  0  0  0  0  0  0  0  0  0
  150.4159  141.3391  156.8071 H   0  0  0  0  0  0  0  0  0  0  0  0
  152.7331  141.3555  159.7634 H   0  0  0  0  0  0  0  0  0  0  0  0
  153.2814  143.4814  160.9140 H   0  0  0  0  0  0  0  0  0  0  0  0
  152.4452  145.6379  159.9483 H   0  0  0  0  0  0  0  0  0  0  0  0
  150.5927  143.6990  156.8103 H   0  0  0  0  0  0  0  0  0  0  0  0
  150.3350  139.4646  156.0627 H   0  0  0  0  0  0  0  0  0  0  0  0
  152.4922  137.6814  155.7546 H   0  0  0  0  0  0  0  0  0  0  0  0
  149.4871  137.3183  155.5938 H   0  0  0  0  0  0  0  0  0  0  0  0
  150.5953  137.5144  154.2502 H   0  0  0  0  0  0  0  0  0  0  0  0
  149.7843  135.0310  155.0095 H   0  0  0  0  0  0  0  0  0  0  0  0
  151.4736  135.2888  154.5446 H   0  0  0  0  0  0  0  0  0  0  0  0
  152.4733  136.9323  158.0548 H   0  0  0  0  0  0  0  0  0  0  0  0
  150.7160  137.1171  158.1723 H   0  0  0  0  0  0  0  0  0  0  0  0
  1  2  2  0  0  0  0
  2  3  1  0  0  0  0
  2 10  1  0  0  0  0
  3  4  1  0  0  0  0
  3 18  1  0  0  0  0
  4  9  1  0  0  0  0
  4  5  2  0  0  0  0
  5  6  1  0  0  0  0
  5 19  1  0  0  0  0
  6  7  2  0  0  0  0
  6 20  1  0  0  0  0
  7  8  1  0  0  0  0
  7 21  1  0  0  0  0
  8  9  2  0  0  0  0
  9 22  1  0  0  0  0
 10 11  1  0  0  0  0
 10 23  1  0  0  0  0
 11 17  1  0  0  0  0
 11 12  1  0  0  0  0
 11 24  1  0  0  0  0
 12 13  1  0  0  0  0
 12 25  1  0  0  0  0
 12 26  1  0  0  0  0
 13 14  1  0  0  0  0
 13 27  1  0  0  0  0
 13 28  1  0  0  0  0
 14 15  2  0  0  0  0
 14 16  2  0  0  0  0
 14 17  1  0  0  0  0
 17 29  1  0  0  0  0
 17 30  1  0  0  0  0
M  END
> <s_m_source_file>
AV-unprocessed.smi

> <i_m_source_file_index>
2042

> <i_lp_mmshare_version>
43012

> <i_f3d_flags>
0

> <s_epik_input>
Tz1TMSg9TylbQ0gyXVtDSDJdW0NASF0oW0NIMl0xKVtOSF1DKD1PKVtOSF1jMltjSF1bY0hdW2NIXW5bY0hdMg==

> <s_epik_cmdline>
J2VwaWtfcHl0aG9uJywgJy1waCcsICc3LjAnLCAnLXRuJywgJzgnLCAnLW1hJywgJzIwMCcsICctbWV0YWxfYmluZGluZycsICctaW1hZScsICc8aW5maWxlLm1hZT4nLCAnLW9tYWUnLCAnPG91dGZpbGUubWFlPic=

> <r_epik_Ionization_Penalty>
0.00421056

> <r_epik_Ionization_Penalty_Charging>
0

> <r_epik_Ionization_Penalty_Neutral>
0.00421056

> <r_epik_State_Penalty>
0.00300625

> <r_epik_Charging_Adjusted_Penalty>
0.00300625

> <i_epik_Tot_Q>
0

> <i_epik_Tot_abs_Q>
0

> <r_epik_Metal_State_Penalty>
-0

> <b_epik_Metal_Only>
0

> <s_lp_Force_Field>
OPLS_2005

> <r_lp_Energy>
18.6302

> <b_lp_Chiralities_Consistent>
1

> <s_lp_Variant>
AV-unprocessed.smi:2042-1

> <Gold.Version>
5.8.1

> <Gold.Id.Protein>
6NUR|6NUR_protein|mol2

> <Gold.PLP.Fitness>
36.3286

> <Gold.PLP.PLP>
-26.2700

> <Gold.PLP.part.hbond>
-3.2929

> <Gold.PLP.part.metal>
0.0000

> <Gold.PLP.part.buried>
-2.4946

> <Gold.PLP.part.nonpolar>
-21.1599

> <Gold.PLP.part.repulsive>
0.2465

> <Gold.PLP.ligand.clash>
0.0000

> <Gold.PLP.ligand.torsion>
0.1304

> <Gold.PLP.Chemscore.Hbond>
2.4396

> <Gold.PLP.Chemscore.CHOScore>
1.0000

> <Gold.PLP.Chemscore.Metal>
0.0000

> <Gold.Chemscore.Hbonds>
donor molecule, donor type, donor heavy atom, donor atom, acceptor molecule, acceptor atom, score
      P1  H  6896  6908       L1    15  0.61
      P1  H  7997  8010       L1     1  1.00
      P1  H 10752 10763       L1    16  0.80
      L1  C     9    22       P1  8028  1.00

> <Gold.PLP.Chemscore.Internal.Correction>
0.0005

> <Gold.Rescore>
     Score         DG    S(hbond)    S(metal)    S(lipo)     H(rot)  DE(clash)    DE(int)     intcor
     18.17     -19.02       2.28        0.00      72.48       1.00       0.60       0.26       ----

> <Gold.Chemscore.Fitness>
18.1682

> <Gold.Chemscore.DG>
-19.0214

> <Gold.Chemscore.ZeroCoef>
-5.4800

> <Gold.Chemscore.Hbond>
2.2817

> <Gold.Chemscore.Metal>
0.0000

> <Gold.Chemscore.Lipo>
72.4818

> <Gold.Chemscore.Internal_Hbond>
0.0000

> <Gold.Chemscore.DEClash>
0.5979

> <Gold.Chemscore.DEInternal>
0.2552

> <Gold.Chemscore.Rot>
1.0000

> <Gold.Chemscore.Internal.Correction>
   9.000000E+99

> <Gold.Chemscore.Hbonds>
donor molecule, donor type, donor heavy atom, donor atom, acceptor molecule, acceptor atom, score
      P1  H  6896  6908       L1    15  0.42
      P1  H  7997  8010       L1     1  0.76
      P1  H 10752 10763       L1    16  0.23

> <Gold.Chemscore.Hbond.Weighted>
-7.6210

> <Gold.Chemscore.Metal.Weighted>
-0.0000

> <Gold.Chemscore.Lipo.Weighted>
-8.4804

> <Gold.Chemscore.Internal_Hbond.Weighted>
0.0000

> <Gold.Chemscore.DEClash.Weighted>
0.5979

> <Gold.Chemscore.DEInternal.Weighted>
0.2552

> <Gold.Chemscore.Rot.Weighted>
2.5600

> <Gold.Chemscore.Internal.Correction.Weighted>
   9.000000E+99

> <Gold.Protein.RotatedTorsions>
[ 6907 6896 6895 6894 ] final  114.94 input  -60.11 | X-H torsion
[ 7974 7965 7964 7962 ] final   73.15 input  175.53 | X-H torsion
[ 8008 7997 7996 7995 ] final   54.35 input   59.86 | X-H torsion
[ 10167 10162 10161 10158 ] final  121.58 input  -65.29 | X-H torsion
[ 10718 10713 10712 10709 ] final   26.57 input   66.30 | X-H torsion
[ 10763 10752 10751 10750 ] final  106.49 input  -60.55 | X-H torsion
[ 11005 11000 10999 10996 ] final -124.19 input  -57.11 | X-H torsion

> <Gold.Protein.ActiveResidues>
 VAL166  LYS551  ARG553  GLY616  TRP617  ASP618  TYR619  PRO620  LYS621  CYS622 
 ASP623  PHE694  ASN695  SER759  ASP760  ASP761  ALA762  ILE779  LEU786  VAL792 
 PHE793  MET794  SER795  GLU796  ALA797  LYS798  CYS799  TRP800  GLU811  SER814 

> <Gold.Protein.RotatedAtoms>
  152.4772  133.8166  159.7031 H   0  0  0  0  0  0  0  0  0  0  0  0  # atno 6907 bound_to 6896
  150.8797  133.7380  159.2942 H   0  0  0  0  0  0  0  0  0  0  0  0  # atno 6908 bound_to 6896
  151.4888  135.1060  159.9850 H   0  0  0  0  0  0  0  0  0  0  0  0  # atno 6909 bound_to 6896
  145.7445  139.2734  143.1467 H   0  0  0  0  0  0  0  0  0  0  0  0  # atno 7974 bound_to 7965
  155.4832  140.3469  155.4343 H   0  0  0  0  0  0  0  0  0  0  0  0  # atno 8008 bound_to 7997
  156.1025  140.1439  156.9476 H   0  0  0  0  0  0  0  0  0  0  0  0  # atno 8009 bound_to 7997
  154.4703  140.0903  156.7105 H   0  0  0  0  0  0  0  0  0  0  0  0  # atno 8010 bound_to 7997
  139.5911  144.7025  151.3288 H   0  0  0  0  0  0  0  0  0  0  0  0  # atno 10167 bound_to 10162
  157.2086  130.6923  149.6218 H   0  0  0  0  0  0  0  0  0  0  0  0  # atno 10718 bound_to 10713
  153.3937  135.3875  155.1941 H   0  0  0  0  0  0  0  0  0  0  0  0  # atno 10763 bound_to 10752
  154.8722  135.3754  154.4705 H   0  0  0  0  0  0  0  0  0  0  0  0  # atno 10764 bound_to 10752
  153.5194  135.7087  153.5801 H   0  0  0  0  0  0  0  0  0  0  0  0  # atno 10765 bound_to 10752
  140.9860  134.0606  157.3710 H   0  0  0  0  0  0  0  0  0  0  0  0  # atno 11005 bound_to 11000
  146.0416  140.8159  142.9826 LP  0  0  0  0  0  0  0  0  0  0  0  0  # atno 17320 bound_to 7965
  144.6863  140.2919  143.7277 LP  0  0  0  0  0  0  0  0  0  0  0  0  # atno 17321 bound_to 7965
  140.7173  143.7230  150.7681 LP  0  0  0  0  0  0  0  0  0  0  0  0  # atno 17342 bound_to 10162
  140.0786  143.4991  152.2542 LP  0  0  0  0  0  0  0  0  0  0  0  0  # atno 17343 bound_to 10162
  155.9693  130.4559  150.5904 LP  0  0  0  0  0  0  0  0  0  0  0  0  # atno 17370 bound_to 10713
  157.3695  131.0763  151.1569 LP  0  0  0  0  0  0  0  0  0  0  0  0  # atno 17371 bound_to 10713
  139.8971  135.0148  156.7082 LP  0  0  0  0  0  0  0  0  0  0  0  0  # atno 17394 bound_to 11000
  140.7114  133.9220  155.8087 LP  0  0  0  0  0  0  0  0  0  0  0  0  # atno 17395 bound_to 11000

$$$$
